
 OpenBabel03272509383D

 27 29  0  0  1  0  0  0  0  0999 V2000
   36.1550   30.5460   48.4240 C   0  0  0  0  0  0  0  0  0  0  0  0
   36.0600   31.0650   49.7400 C   0  0  0  0  0  0  0  0  0  0  0  0
   36.9070   32.1060   50.1530 C   0  0  0  0  0  0  0  0  0  0  0  0
   37.8350   32.6290   49.2780 C   0  0  0  0  0  0  0  0  0  0  0  0
   37.8850   32.0920   48.0220 C   0  0  0  0  0  0  0  0  0  0  0  0
   37.0680   31.0590   47.5690 C   0  0  0  0  0  0  0  0  0  0  0  0
   35.3140   30.6160   50.3810 H   0  0  0  0  0  0  0  0  0  0  0  0
   36.7070   32.3790   51.1620 H   0  0  0  0  0  0  0  0  0  0  0  0
   38.4480   33.4260   49.6650 H   0  0  0  0  0  0  0  0  0  0  0  0
   38.6690   32.6090   47.4390 H   0  0  0  0  0  0  0  0  0  0  0  0
   37.3540   30.7620   46.1940 C   0  0  0  0  0  0  0  0  0  0  0  0
   38.7950   30.4950   45.8940 C   0  0  0  0  0  0  0  0  0  0  0  0
   39.6560   30.5930   46.5880 H   0  0  0  0  0  0  0  0  0  0  0  0
   39.2400   30.0820   44.7000 C   0  0  0  0  0  3  0  0  0  0  0  0
   38.2240   29.9170   43.7280 C   0  0  0  0  0  3  0  0  0  0  0  0
   36.7740   30.3330   44.5160 S   0  0  0  0  0  0  0  0  0  0  0  0
   35.2460   29.4570   48.0670 C   0  0  1  0  0  3  0  0  0  0  0  0
   35.3650   28.4060   48.8190 O   0  0  0  0  0  1  0  0  0  0  0  0
   32.5970   30.7900   45.9850 C   0  0  0  0  0  0  0  0  0  0  0  0
   32.3860   29.8040   45.0340 C   0  0  0  0  0  0  0  0  0  0  0  0
   33.1630   28.6440   45.1030 C   0  0  0  0  0  0  0  0  0  0  0  0
   34.1090   28.5070   46.0990 N   0  0  0  0  0  0  0  0  0  0  0  0
   34.2730   29.4820   46.9870 C   0  0  0  0  0  0  0  0  0  0  0  0
   33.5180   30.6050   46.9190 N   0  0  0  0  0  0  0  0  0  0  0  0
   31.9550   31.6480   45.8580 H   0  0  0  0  0  0  0  0  0  0  0  0
   31.6940   29.7930   44.2230 H   0  0  0  0  0  0  0  0  0  0  0  0
   33.0620   27.8180   44.3930 H   0  0  0  0  0  0  0  0  0  0  0  0
  1  2  1  0  0  0  0
  2  3  2  0  0  0  0
  2  7  1  0  0  0  0
  3  8  1  0  0  0  0
  4  9  1  0  0  0  0
  4  3  1  0  0  0  0
  5  4  2  0  0  0  0
  6  5  1  0  0  0  0
  6  1  2  0  0  0  0
 10  5  1  0  0  0  0
 11  6  1  0  0  0  0
 12 11  2  0  0  0  0
 12 13  1  0  0  0  0
 14 12  1  0  0  0  0
 15 16  1  0  0  0  0
 15 14  2  0  0  0  0
 16 11  1  0  0  0  0
 17  1  1  0  0  0  0
 17 18  1  1  0  0  0
 19 24  1  0  0  0  0
 20 21  1  0  0  0  0
 20 19  2  0  0  0  0
 21 22  2  0  0  0  0
 22 23  1  0  0  0  0
 23 17  1  0  0  0  0
 24 23  2  0  0  0  0
 25 19  1  0  0  0  0
 26 20  1  0  0  0  0
 27 21  1  0  0  0  0
M  END
>  <minimizedAffinity>
-5.17211056

>  <minimizedRMSD>
1.07666016

$$$$
