
 OpenBabel03272507193D

 27 29  0  0  1  0  0  0  0  0999 V2000
   37.2920   31.2130   49.4350 C   0  0  0  0  0  0  0  0  0  0  0  0
   38.3170   32.1530   49.4470 C   0  0  0  0  0  0  0  0  0  0  0  0
   38.7880   32.5360   48.1960 C   0  0  0  0  0  0  0  0  0  0  0  0
   38.2640   32.0120   47.0530 N   0  0  0  0  0  0  0  0  0  0  0  0
   37.2620   31.0950   47.0830 C   0  0  0  0  0  0  0  0  0  0  0  0
   36.7710   30.6900   48.2870 N   0  0  0  0  0  0  0  0  0  0  0  0
   38.7200   32.5590   50.3440 H   0  0  0  0  0  0  0  0  0  0  0  0
   39.5840   33.2620   48.0850 H   0  0  0  0  0  0  0  0  0  0  0  0
   36.7560   30.7890   50.7650 C   0  0  1  0  0  0  0  0  0  0  0  0
   36.0580   29.5180   50.9450 C   0  0  2  0  0  0  0  0  0  0  0  0
   37.5090   29.5590   51.3170 C   0  0  0  0  0  0  0  0  0  0  0  0
   36.6970   31.6440   51.4950 H   0  0  0  0  0  0  0  0  0  0  0  0
   35.2430   29.5740   51.7130 H   0  0  0  0  0  0  0  0  0  0  0  0
   37.6770   29.5580   52.4300 H   0  0  0  0  0  0  0  0  0  0  0  0
   38.2570   29.0660   50.6960 H   0  0  0  0  0  0  0  0  0  0  0  0
   35.6750   28.8380   49.7970 O   0  0  0  0  0  0  0  0  0  0  0  0
   34.4460   28.4440   49.3870 C   0  0  0  0  0  0  0  0  0  0  0  0
   34.2730   27.4770   48.6180 O   0  0  0  0  0  0  0  0  0  0  0  0
   33.5010   29.2910   49.9700 N   0  0  0  0  0  0  0  0  0  0  0  0
   33.2610   30.1720   49.5040 H   0  0  0  0  0  0  0  0  0  0  0  0
   33.2220   28.7730   50.8500 H   0  0  0  0  0  0  0  0  0  0  0  0
   36.8060   30.6290   45.8190 C   0  0  0  0  0  0  0  0  0  0  0  0
   37.3410   30.5840   44.5770 C   0  0  0  0  0  0  0  0  0  0  0  0
   38.3600   30.9990   44.5010 H   0  0  0  0  0  0  0  0  0  0  0  0
   36.6650   30.0700   43.5200 C   0  0  0  0  0  3  0  0  0  0  0  0
   35.3940   29.5910   43.7850 C   0  0  0  0  0  3  0  0  0  0  0  0
   35.2340   29.9270   45.6450 S   0  0  0  0  0  0  0  0  0  0  0  0
  1  2  1  0  0  0  0
  1  9  1  0  0  0  0
  2  7  1  0  0  0  0
  3  2  2  0  0  0  0
  4  5  2  0  0  0  0
  4  3  1  0  0  0  0
  5  6  1  0  0  0  0
  6  1  2  0  0  0  0
  8  3  1  0  0  0  0
  9 10  1  0  0  0  0
  9 11  1  0  0  0  0
  9 12  1  1  0  0  0
 10 11  1  0  0  0  0
 10 13  1  1  0  0  0
 11 14  1  0  0  0  0
 15 11  1  0  0  0  0
 16 10  1  0  0  0  0
 17 16  1  0  0  0  0
 17 19  1  0  0  0  0
 18 17  2  0  0  0  0
 19 21  1  0  0  0  0
 20 19  1  0  0  0  0
 22  5  1  0  0  0  0
 23 22  2  0  0  0  0
 24 23  1  0  0  0  0
 25 26  2  0  0  0  0
 25 23  1  0  0  0  0
 26 27  1  0  0  0  0
 27 22  1  0  0  0  0
M  END
>  <minimizedAffinity>
-5.18379545

>  <minimizedRMSD>
0.37992385

$$$$
