
 OpenBabel03272509383D

 27 29  0  0  1  0  0  0  0  0999 V2000
   35.1220   30.1020   47.5690 C   0  0  0  0  0  0  0  0  0  0  0  0
   34.4800   30.1280   48.8320 C   0  0  0  0  0  0  0  0  0  0  0  0
   35.1590   30.6170   49.9600 C   0  0  0  0  0  0  0  0  0  0  0  0
   36.4540   31.0750   49.8420 C   0  0  0  0  0  0  0  0  0  0  0  0
   37.0250   31.0270   48.6020 C   0  0  0  0  0  0  0  0  0  0  0  0
   36.3920   30.5490   47.4560 C   0  0  0  0  0  0  0  0  0  0  0  0
   33.4650   29.7560   48.8640 H   0  0  0  0  0  0  0  0  0  0  0  0
   34.5400   30.5700   50.8250 H   0  0  0  0  0  0  0  0  0  0  0  0
   36.9080   31.4360   50.7500 H   0  0  0  0  0  0  0  0  0  0  0  0
   38.0540   31.4260   48.6620 H   0  0  0  0  0  0  0  0  0  0  0  0
   37.2580   30.6750   46.3180 C   0  0  0  0  0  0  0  0  0  0  0  0
   38.7010   30.8910   46.6470 C   0  0  0  0  0  0  0  0  0  0  0  0
   39.1450   31.0540   47.6500 H   0  0  0  0  0  0  0  0  0  0  0  0
   39.6760   30.9100   45.7280 C   0  0  0  0  0  3  0  0  0  0  0  0
   39.2280   30.7080   44.4010 C   0  0  0  0  0  3  0  0  0  0  0  0
   37.5410   30.5130   44.5200 S   0  0  0  0  0  0  0  0  0  0  0  0
   34.3570   29.5720   46.4400 C   0  0  1  0  0  3  0  0  0  0  0  0
   34.3720   28.2770   46.3570 O   0  0  0  0  0  1  0  0  0  0  0  0
   31.7190   31.7130   45.1800 C   0  0  0  0  0  0  0  0  0  0  0  0
   32.0630   31.9290   43.8550 C   0  0  0  0  0  0  0  0  0  0  0  0
   33.2250   31.3230   43.3680 C   0  0  0  0  0  0  0  0  0  0  0  0
   33.9930   30.5370   44.2030 N   0  0  0  0  0  0  0  0  0  0  0  0
   33.6210   30.3620   45.4660 C   0  0  0  0  0  0  0  0  0  0  0  0
   32.4930   30.9480   45.9360 N   0  0  0  0  0  0  0  0  0  0  0  0
   30.8090   32.2160   45.4710 H   0  0  0  0  0  0  0  0  0  0  0  0
   31.5570   32.5100   43.1180 H   0  0  0  0  0  0  0  0  0  0  0  0
   33.5690   31.4410   42.3370 H   0  0  0  0  0  0  0  0  0  0  0  0
  1  2  1  0  0  0  0
  2  7  1  0  0  0  0
  2  3  2  0  0  0  0
  3  8  1  0  0  0  0
  4  3  1  0  0  0  0
  4  9  1  0  0  0  0
  5 10  1  0  0  0  0
  5  4  2  0  0  0  0
  6  1  2  0  0  0  0
  6  5  1  0  0  0  0
 11 12  2  0  0  0  0
 11  6  1  0  0  0  0
 12 13  1  0  0  0  0
 14 12  1  0  0  0  0
 15 16  1  0  0  0  0
 15 14  2  0  0  0  0
 16 11  1  0  0  0  0
 17 18  1  1  0  0  0
 17  1  1  0  0  0  0
 19 25  1  0  0  0  0
 19 24  1  0  0  0  0
 20 19  2  0  0  0  0
 21 20  1  0  0  0  0
 21 22  2  0  0  0  0
 22 23  1  0  0  0  0
 23 24  2  0  0  0  0
 23 17  1  0  0  0  0
 26 20  1  0  0  0  0
 27 21  1  0  0  0  0
M  END
>  <minimizedAffinity>
-4.84787035

>  <minimizedRMSD>
2.48871279

$$$$
