
 OpenBabel03262521003D

 32 34  0  0  1  0  0  0  0  0999 V2000
   38.5580   24.4100   36.5210 N   0  0  0  0  0  0  0  0  0  0  0  0
   39.5980   23.6410   35.9280 C   0  0  1  0  0  0  0  0  0  0  0  0
   40.5550   23.1200   36.9680 C   0  0  0  0  0  0  0  0  0  0  0  0
   39.7680   22.3000   37.8920 N   0  0  0  0  0  0  0  0  0  0  0  0
   38.9060   23.2600   38.6120 C   0  0  0  0  0  0  0  0  0  0  0  0
   37.8920   23.7420   37.5950 C   0  0  2  0  0  0  0  0  0  0  0  0
   38.7400   25.4050   36.6260 H   0  0  0  0  0  0  0  0  0  0  0  0
   40.1600   24.2920   35.2200 H   0  0  0  0  0  0  0  0  0  0  0  0
   41.2920   22.4830   36.4490 H   0  0  0  0  0  0  0  0  0  0  0  0
   41.0720   23.9180   37.5290 H   0  0  0  0  0  0  0  0  0  0  0  0
   40.4080   21.8040   38.5500 H   0  0  0  0  0  0  0  0  0  0  0  0
   39.5090   24.0850   39.0150 H   0  0  0  0  0  0  0  0  0  0  0  0
   38.4130   22.6630   39.3990 H   0  0  0  0  0  0  0  0  0  0  0  0
   37.2590   24.4820   38.1120 H   0  0  0  0  0  0  0  0  0  0  0  0
   37.0860   22.6350   37.1540 N   0  0  0  0  0  0  0  0  0  0  0  0
   37.4410   21.7190   37.5120 H   0  0  0  0  0  0  0  0  0  0  0  0
   36.1170   22.7450   37.4860 H   0  0  0  0  0  0  0  0  0  0  0  0
   38.9330   22.1510   35.0700 S   0  0  0  0  0  0  0  0  0  0  0  0
   36.9000   22.3450   31.5490 C   0  0  0  0  0  0  0  0  0  0  0  0
   37.5990   21.8280   32.6300 C   0  0  0  0  0  0  0  0  0  0  0  0
   38.0280   22.6680   33.6210 C   0  0  0  0  0  0  0  0  0  0  0  0
   37.7340   23.9970   33.4790 N   0  0  0  0  0  0  0  0  0  0  0  0
   37.0680   24.4680   32.4430 C   0  0  0  0  0  0  0  0  0  0  0  0
   36.6450   23.6500   31.4690 N   0  0  0  0  0  0  0  0  0  0  0  0
   36.5950   21.6030   30.8030 H   0  0  0  0  0  0  0  0  0  0  0  0
   37.8470   20.7940   32.7760 H   0  0  0  0  0  0  0  0  0  0  0  0
   36.7690   25.9290   32.3300 C   0  0  0  0  0  0  0  0  0  0  0  0
   37.0070   26.7870   33.4580 C   0  0  0  0  0  0  0  0  0  0  0  0
   37.3960   26.4500   34.4070 H   0  0  0  0  0  0  0  0  0  0  0  0
   36.7200   28.1030   33.3060 C   0  0  0  0  0  3  0  0  0  0  0  0
   36.1990   28.6010   32.0560 C   0  0  0  0  0  3  0  0  0  0  0  0
   36.1360   27.0150   31.0610 S   0  0  0  0  0  0  0  0  0  0  0  0
  1  7  1  0  0  0  0
  1  6  1  0  0  0  0
  2  8  1  6  0  0  0
  2  1  1  0  0  0  0
  2  3  1  0  0  0  0
  3 10  1  0  0  0  0
  3  4  1  0  0  0  0
  4 11  1  0  0  0  0
  4  5  1  0  0  0  0
  5 12  1  0  0  0  0
  5 13  1  0  0  0  0
  6 14  1  1  0  0  0
  6  5  1  0  0  0  0
  9  3  1  0  0  0  0
 15 17  1  0  0  0  0
 15 16  1  0  0  0  0
 15  6  1  0  0  0  0
 18  2  1  0  0  0  0
 19 20  1  0  0  0  0
 20 26  1  0  0  0  0
 20 21  2  0  0  0  0
 21 18  1  0  0  0  0
 22 21  1  0  0  0  0
 23 22  2  0  0  0  0
 24 19  2  0  0  0  0
 24 23  1  0  0  0  0
 25 19  1  0  0  0  0
 27 23  1  0  0  0  0
 27 28  2  0  0  0  0
 28 29  1  0  0  0  0
 30 28  1  0  0  0  0
 31 30  2  0  0  0  0
 32 31  1  0  0  0  0
 32 27  1  0  0  0  0
M  END
>  <minimizedAffinity>
-5.03868866

$$$$

 OpenBabel03262521003D

 32 34  0  0  1  0  0  0  0  0999 V2000
   38.0670   27.8240   31.4900 N   0  0  0  0  0  0  0  0  0  0  0  0
   37.1200   27.1660   32.3240 C   0  0  1  0  0  0  0  0  0  0  0  0
   36.1770   28.1510   32.9640 C   0  0  0  0  0  0  0  0  0  0  0  0
   35.5020   28.8590   31.8720 N   0  0  0  0  0  0  0  0  0  0  0  0
   36.5540   29.6860   31.2480 C   0  0  0  0  0  0  0  0  0  0  0  0
   37.4750   28.7130   30.5400 C   0  0  2  0  0  0  0  0  0  0  0  0
   38.9300   28.1210   31.9390 H   0  0  0  0  0  0  0  0  0  0  0  0
   37.6710   26.6260   33.1290 H   0  0  0  0  0  0  0  0  0  0  0  0
   35.4350   27.5720   33.5400 H   0  0  0  0  0  0  0  0  0  0  0  0
   36.6820   28.8810   33.6210 H   0  0  0  0  0  0  0  0  0  0  0  0
   34.7380   29.4530   32.2620 H   0  0  0  0  0  0  0  0  0  0  0  0
   37.0830   30.2710   32.0130 H   0  0  0  0  0  0  0  0  0  0  0  0
   36.0210   30.3180   30.5170 H   0  0  0  0  0  0  0  0  0  0  0  0
   38.2820   29.3160   30.0940 H   0  0  0  0  0  0  0  0  0  0  0  0
   36.7480   28.0260   29.5060 N   0  0  0  0  0  0  0  0  0  0  0  0
   35.7240   28.2320   29.5370 H   0  0  0  0  0  0  0  0  0  0  0  0
   37.0960   28.3120   28.5780 H   0  0  0  0  0  0  0  0  0  0  0  0
   36.0570   26.0100   31.3610 S   0  0  0  0  0  0  0  0  0  0  0  0
   38.8410   23.3130   30.1190 C   0  0  0  0  0  0  0  0  0  0  0  0
   38.2070   24.5240   30.3590 C   0  0  0  0  0  0  0  0  0  0  0  0
   36.9900   24.5360   30.9830 C   0  0  0  0  0  0  0  0  0  0  0  0
   36.4620   23.3240   31.3400 N   0  0  0  0  0  0  0  0  0  0  0  0
   37.0820   22.1850   31.1030 C   0  0  0  0  0  0  0  0  0  0  0  0
   38.2740   22.1660   30.4920 N   0  0  0  0  0  0  0  0  0  0  0  0
   39.8100   23.3950   29.6160 H   0  0  0  0  0  0  0  0  0  0  0  0
   38.5890   25.4910   30.0950 H   0  0  0  0  0  0  0  0  0  0  0  0
   36.4660   20.8840   31.5110 C   0  0  0  0  0  0  0  0  0  0  0  0
   35.0570   20.8270   31.7900 C   0  0  0  0  0  0  0  0  0  0  0  0
   34.3900   21.6730   31.7270 H   0  0  0  0  0  0  0  0  0  0  0  0
   34.5470   19.6260   32.1560 C   0  0  0  0  0  3  0  0  0  0  0  0
   35.4000   18.4660   32.2550 C   0  0  0  0  0  3  0  0  0  0  0  0
   37.0470   19.2160   31.7750 S   0  0  0  0  0  0  0  0  0  0  0  0
  1  7  1  0  0  0  0
  1  2  1  0  0  0  0
  2  3  1  0  0  0  0
  2  8  1  1  0  0  0
  3  9  1  0  0  0  0
  3 10  1  0  0  0  0
  4 11  1  0  0  0  0
  4  3  1  0  0  0  0
  5  4  1  0  0  0  0
  5 12  1  0  0  0  0
  6 14  1  6  0  0  0
  6  5  1  0  0  0  0
  6  1  1  0  0  0  0
 13  5  1  0  0  0  0
 15 16  1  0  0  0  0
 15  6  1  0  0  0  0
 17 15  1  0  0  0  0
 18  2  1  0  0  0  0
 19 20  2  0  0  0  0
 19 24  1  0  0  0  0
 20 21  1  0  0  0  0
 21 22  2  0  0  0  0
 21 18  1  0  0  0  0
 23 22  1  0  0  0  0
 23 27  1  0  0  0  0
 24 23  2  0  0  0  0
 25 19  1  0  0  0  0
 26 20  1  0  0  0  0
 27 32  1  0  0  0  0
 27 28  2  0  0  0  0
 28 30  1  0  0  0  0
 29 28  1  0  0  0  0
 30 31  2  0  0  0  0
 32 31  1  0  0  0  0
M  END
>  <minimizedAffinity>
-4.69222689

$$$$

 OpenBabel03262521003D

 32 34  0  0  1  0  0  0  0  0999 V2000
   37.9260   26.3900   32.0860 N   0  0  0  0  0  0  0  0  0  0  0  0
   36.5040   26.3310   32.0690 C   0  0  1  0  0  0  0  0  0  0  0  0
   35.9140   27.5550   31.4210 C   0  0  0  0  0  0  0  0  0  0  0  0
   36.4450   27.6090   30.0570 N   0  0  0  0  0  0  0  0  0  0  0  0
   37.8810   27.9170   30.2200 C   0  0  0  0  0  0  0  0  0  0  0  0
   38.5030   26.6670   30.8080 C   0  0  2  0  0  0  0  0  0  0  0  0
   38.3470   26.8320   32.8990 H   0  0  0  0  0  0  0  0  0  0  0  0
   36.1400   26.2730   33.1210 H   0  0  0  0  0  0  0  0  0  0  0  0
   34.8200   27.4140   31.3840 H   0  0  0  0  0  0  0  0  0  0  0  0
   36.1570   28.4940   31.9500 H   0  0  0  0  0  0  0  0  0  0  0  0
   35.9580   28.3600   29.5220 H   0  0  0  0  0  0  0  0  0  0  0  0
   38.0110   28.7890   30.8750 H   0  0  0  0  0  0  0  0  0  0  0  0
   38.2520   28.0910   29.1950 H   0  0  0  0  0  0  0  0  0  0  0  0
   39.5710   26.8940   30.9630 H   0  0  0  0  0  0  0  0  0  0  0  0
   38.3650   25.5760   29.8810 N   0  0  0  0  0  0  0  0  0  0  0  0
   37.7590   25.8230   29.0660 H   0  0  0  0  0  0  0  0  0  0  0  0
   39.2880   25.3040   29.5110 H   0  0  0  0  0  0  0  0  0  0  0  0
   35.8970   24.9000   31.0800 S   0  0  0  0  0  0  0  0  0  0  0  0
   36.0200   21.0850   32.4910 C   0  0  0  0  0  0  0  0  0  0  0  0
   35.6310   22.1980   31.7610 C   0  0  0  0  0  0  0  0  0  0  0  0
   36.2820   23.3870   31.9450 C   0  0  0  0  0  0  0  0  0  0  0  0
   37.3000   23.4030   32.8600 N   0  0  0  0  0  0  0  0  0  0  0  0
   37.6540   22.3320   33.5430 C   0  0  0  0  0  0  0  0  0  0  0  0
   37.0210   21.1650   33.3670 N   0  0  0  0  0  0  0  0  0  0  0  0
   35.4460   20.1750   32.2820 H   0  0  0  0  0  0  0  0  0  0  0  0
   34.8400   22.2240   31.0370 H   0  0  0  0  0  0  0  0  0  0  0  0
   38.7740   22.3970   34.5330 C   0  0  0  0  0  0  0  0  0  0  0  0
   38.4830   22.6980   35.9090 C   0  0  0  0  0  0  0  0  0  0  0  0
   37.4920   22.8850   36.2930 H   0  0  0  0  0  0  0  0  0  0  0  0
   39.5320   22.7460   36.7660 C   0  0  0  0  0  3  0  0  0  0  0  0
   40.8750   22.5020   36.2980 C   0  0  0  0  0  3  0  0  0  0  0  0
   40.5470   22.1860   34.4810 S   0  0  0  0  0  0  0  0  0  0  0  0
  1  7  1  0  0  0  0
  2  1  1  0  0  0  0
  2  8  1  1  0  0  0
  3 10  1  0  0  0  0
  3  2  1  0  0  0  0
  4  5  1  0  0  0  0
  4  3  1  0  0  0  0
  5  6  1  0  0  0  0
  5 12  1  0  0  0  0
  6 14  1  1  0  0  0
  6  1  1  0  0  0  0
  9  3  1  0  0  0  0
 11  4  1  0  0  0  0
 13  5  1  0  0  0  0
 15  6  1  0  0  0  0
 16 15  1  0  0  0  0
 17 15  1  0  0  0  0
 18 21  1  0  0  0  0
 18  2  1  0  0  0  0
 19 24  1  0  0  0  0
 20 21  1  0  0  0  0
 20 19  2  0  0  0  0
 21 22  2  0  0  0  0
 22 23  1  0  0  0  0
 23 27  1  0  0  0  0
 24 23  2  0  0  0  0
 25 19  1  0  0  0  0
 26 20  1  0  0  0  0
 27 28  2  0  0  0  0
 28 29  1  0  0  0  0
 28 30  1  0  0  0  0
 31 30  2  0  0  0  0
 32 27  1  0  0  0  0
 32 31  1  0  0  0  0
M  END
>  <minimizedAffinity>
-4.68261719

$$$$

 OpenBabel03262521003D

 32 34  0  0  1  0  0  0  0  0999 V2000
   38.5540   22.1480   36.1760 N   0  0  0  0  0  0  0  0  0  0  0  0
   38.0230   23.1950   36.9800 C   0  0  1  0  0  0  0  0  0  0  0  0
   38.5910   23.1540   38.3740 C   0  0  0  0  0  0  0  0  0  0  0  0
   40.0440   23.2900   38.2420 N   0  0  0  0  0  0  0  0  0  0  0  0
   40.4870   22.0290   37.6120 C   0  0  0  0  0  0  0  0  0  0  0  0
   39.9820   22.0860   36.1850 C   0  0  2  0  0  0  0  0  0  0  0  0
   38.0440   21.2690   36.1900 H   0  0  0  0  0  0  0  0  0  0  0  0
   36.9170   23.0680   37.0420 H   0  0  0  0  0  0  0  0  0  0  0  0
   38.1890   24.0260   38.9200 H   0  0  0  0  0  0  0  0  0  0  0  0
   38.3540   22.2240   38.9200 H   0  0  0  0  0  0  0  0  0  0  0  0
   40.4710   23.4080   39.1870 H   0  0  0  0  0  0  0  0  0  0  0  0
   40.0820   21.1680   38.1590 H   0  0  0  0  0  0  0  0  0  0  0  0
   41.5900   22.0730   37.6360 H   0  0  0  0  0  0  0  0  0  0  0  0
   40.2810   21.1370   35.7100 H   0  0  0  0  0  0  0  0  0  0  0  0
   40.5970   23.1900   35.4980 N   0  0  0  0  0  0  0  0  0  0  0  0
   41.1510   23.7980   36.1420 H   0  0  0  0  0  0  0  0  0  0  0  0
   41.2370   22.8430   34.7680 H   0  0  0  0  0  0  0  0  0  0  0  0
   38.4620   24.8540   36.3100 S   0  0  0  0  0  0  0  0  0  0  0  0
   37.0310   26.1420   32.7240 C   0  0  0  0  0  0  0  0  0  0  0  0
   37.4920   26.1610   34.0320 C   0  0  0  0  0  0  0  0  0  0  0  0
   37.8510   24.9880   34.6380 C   0  0  0  0  0  0  0  0  0  0  0  0
   37.7290   23.8430   33.8980 N   0  0  0  0  0  0  0  0  0  0  0  0
   37.2890   23.8480   32.6550 C   0  0  0  0  0  0  0  0  0  0  0  0
   36.9360   24.9930   32.0550 N   0  0  0  0  0  0  0  0  0  0  0  0
   36.7660   27.1240   32.3170 H   0  0  0  0  0  0  0  0  0  0  0  0
   37.6010   27.0360   34.6420 H   0  0  0  0  0  0  0  0  0  0  0  0
   37.1720   22.5720   31.8840 C   0  0  0  0  0  0  0  0  0  0  0  0
   35.9120   21.8800   31.8490 C   0  0  0  0  0  0  0  0  0  0  0  0
   35.0190   22.2210   32.3490 H   0  0  0  0  0  0  0  0  0  0  0  0
   35.8580   20.7280   31.1370 C   0  0  0  0  0  3  0  0  0  0  0  0
   37.0270   20.2340   30.4500 C   0  0  0  0  0  3  0  0  0  0  0  0
   38.2680   21.5640   30.8960 S   0  0  0  0  0  0  0  0  0  0  0  0
  1  6  1  0  0  0  0
  1  7  1  0  0  0  0
  1  2  1  0  0  0  0
  2  8  1  1  0  0  0
  2  3  1  0  0  0  0
  3 10  1  0  0  0  0
  3  9  1  0  0  0  0
  4  3  1  0  0  0  0
  4 11  1  0  0  0  0
  5 13  1  0  0  0  0
  5 12  1  0  0  0  0
  5  4  1  0  0  0  0
  6 14  1  6  0  0  0
  6  5  1  0  0  0  0
 15 16  1  0  0  0  0
 15  6  1  0  0  0  0
 17 15  1  0  0  0  0
 18  2  1  0  0  0  0
 19 20  1  0  0  0  0
 20 21  2  0  0  0  0
 20 26  1  0  0  0  0
 21 18  1  0  0  0  0
 22 21  1  0  0  0  0
 23 22  2  0  0  0  0
 24 23  1  0  0  0  0
 24 19  2  0  0  0  0
 25 19  1  0  0  0  0
 27 23  1  0  0  0  0
 28 27  2  0  0  0  0
 28 29  1  0  0  0  0
 30 28  1  0  0  0  0
 31 32  1  0  0  0  0
 31 30  2  0  0  0  0
 32 27  1  0  0  0  0
M  END
>  <minimizedAffinity>
-4.58342171

$$$$

 OpenBabel03262521003D

 32 34  0  0  1  0  0  0  0  0999 V2000
   39.1500   27.9220   30.8660 N   0  0  0  0  0  0  0  0  0  0  0  0
   37.9680   27.5560   31.5690 C   0  0  1  0  0  0  0  0  0  0  0  0
   36.7650   28.2820   31.0300 C   0  0  0  0  0  0  0  0  0  0  0  0
   36.6550   27.9230   29.6130 N   0  0  0  0  0  0  0  0  0  0  0  0
   37.8150   28.5720   28.9660 C   0  0  0  0  0  0  0  0  0  0  0  0
   39.0320   27.8070   29.4460 C   0  0  2  0  0  0  0  0  0  0  0  0
   39.6620   28.7200   31.2330 H   0  0  0  0  0  0  0  0  0  0  0  0
   38.0970   27.8270   32.6430 H   0  0  0  0  0  0  0  0  0  0  0  0
   35.8810   27.9050   31.5730 H   0  0  0  0  0  0  0  0  0  0  0  0
   36.8300   29.3790   31.1290 H   0  0  0  0  0  0  0  0  0  0  0  0
   35.7570   28.2890   29.2280 H   0  0  0  0  0  0  0  0  0  0  0  0
   37.8600   29.6340   29.2440 H   0  0  0  0  0  0  0  0  0  0  0  0
   37.6590   28.4160   27.8850 H   0  0  0  0  0  0  0  0  0  0  0  0
   39.9080   28.3000   28.9940 H   0  0  0  0  0  0  0  0  0  0  0  0
   38.9520   26.4430   28.9980 N   0  0  0  0  0  0  0  0  0  0  0  0
   38.0300   26.2230   28.5570 H   0  0  0  0  0  0  0  0  0  0  0  0
   39.6850   26.2560   28.2960 H   0  0  0  0  0  0  0  0  0  0  0  0
   37.5960   25.7610   31.3810 S   0  0  0  0  0  0  0  0  0  0  0  0
   40.7880   23.5400   32.5820 C   0  0  0  0  0  0  0  0  0  0  0  0
   39.9230   24.2540   31.7650 C   0  0  0  0  0  0  0  0  0  0  0  0
   38.7980   24.8160   32.3020 C   0  0  0  0  0  0  0  0  0  0  0  0
   38.5910   24.6330   33.6430 N   0  0  0  0  0  0  0  0  0  0  0  0
   39.4260   23.9510   34.4010 C   0  0  0  0  0  0  0  0  0  0  0  0
   40.5310   23.3990   33.8810 N   0  0  0  0  0  0  0  0  0  0  0  0
   41.6630   23.1250   32.0710 H   0  0  0  0  0  0  0  0  0  0  0  0
   40.0520   24.4180   30.7130 H   0  0  0  0  0  0  0  0  0  0  0  0
   39.1590   23.7770   35.8620 C   0  0  0  0  0  0  0  0  0  0  0  0
   38.1080   24.5380   36.4830 C   0  0  0  0  0  0  0  0  0  0  0  0
   37.4800   25.2440   35.9620 H   0  0  0  0  0  0  0  0  0  0  0  0
   37.9070   24.3460   37.8090 C   0  0  0  0  0  3  0  0  0  0  0  0
   38.7210   23.4120   38.5490 C   0  0  0  0  0  3  0  0  0  0  0  0
   39.8470   22.7930   37.1850 S   0  0  0  0  0  0  0  0  0  0  0  0
  1  7  1  0  0  0  0
  1  2  1  0  0  0  0
  2  8  1  1  0  0  0
  3 10  1  0  0  0  0
  3  2  1  0  0  0  0
  3  9  1  0  0  0  0
  4  3  1  0  0  0  0
  5 12  1  0  0  0  0
  5  6  1  0  0  0  0
  5  4  1  0  0  0  0
  6 14  1  6  0  0  0
  6  1  1  0  0  0  0
 11  4  1  0  0  0  0
 13  5  1  0  0  0  0
 15  6  1  0  0  0  0
 16 15  1  0  0  0  0
 17 15  1  0  0  0  0
 18  2  1  0  0  0  0
 18 21  1  0  0  0  0
 19 24  1  0  0  0  0
 20 21  1  0  0  0  0
 20 19  2  0  0  0  0
 21 22  2  0  0  0  0
 22 23  1  0  0  0  0
 23 27  1  0  0  0  0
 24 23  2  0  0  0  0
 25 19  1  0  0  0  0
 26 20  1  0  0  0  0
 27 28  2  0  0  0  0
 27 32  1  0  0  0  0
 28 30  1  0  0  0  0
 29 28  1  0  0  0  0
 30 31  2  0  0  0  0
 32 31  1  0  0  0  0
M  END
>  <minimizedAffinity>
-4.51877022

$$$$

 OpenBabel03262521003D

 32 34  0  0  1  0  0  0  0  0999 V2000
   37.7210   25.1610   35.9390 N   0  0  0  0  0  0  0  0  0  0  0  0
   37.9770   26.3590   35.2140 C   0  0  1  0  0  0  0  0  0  0  0  0
   39.4530   26.6470   35.1390 C   0  0  0  0  0  0  0  0  0  0  0  0
   40.0740   25.4980   34.4750 N   0  0  0  0  0  0  0  0  0  0  0  0
   39.9510   24.3880   35.4420 C   0  0  0  0  0  0  0  0  0  0  0  0
   38.4770   24.0390   35.4780 C   0  0  2  0  0  0  0  0  0  0  0  0
   37.5940   25.2630   36.9430 H   0  0  0  0  0  0  0  0  0  0  0  0
   37.4740   27.2040   35.7380 H   0  0  0  0  0  0  0  0  0  0  0  0
   39.5820   27.5470   34.5120 H   0  0  0  0  0  0  0  0  0  0  0  0
   39.9220   26.8030   36.1260 H   0  0  0  0  0  0  0  0  0  0  0  0
   41.0760   25.7110   34.2740 H   0  0  0  0  0  0  0  0  0  0  0  0
   40.3240   24.6990   36.4270 H   0  0  0  0  0  0  0  0  0  0  0  0
   40.5360   23.5620   35.0020 H   0  0  0  0  0  0  0  0  0  0  0  0
   38.3660   23.2300   36.2190 H   0  0  0  0  0  0  0  0  0  0  0  0
   38.0590   23.5750   34.1820 N   0  0  0  0  0  0  0  0  0  0  0  0
   38.8030   23.6960   33.4590 H   0  0  0  0  0  0  0  0  0  0  0  0
   37.8240   22.5710   34.2230 H   0  0  0  0  0  0  0  0  0  0  0  0
   37.4030   26.2290   33.4680 S   0  0  0  0  0  0  0  0  0  0  0  0
   35.6790   29.3390   31.4880 C   0  0  0  0  0  0  0  0  0  0  0  0
   36.3280   28.1360   31.7230 C   0  0  0  0  0  0  0  0  0  0  0  0
   36.5820   27.7460   33.0090 C   0  0  0  0  0  0  0  0  0  0  0  0
   36.1710   28.5890   34.0060 N   0  0  0  0  0  0  0  0  0  0  0  0
   35.5560   29.7290   33.7600 C   0  0  0  0  0  0  0  0  0  0  0  0
   35.3040   30.1160   32.5030 N   0  0  0  0  0  0  0  0  0  0  0  0
   35.5160   29.5730   30.4300 H   0  0  0  0  0  0  0  0  0  0  0  0
   36.6640   27.4510   30.9690 H   0  0  0  0  0  0  0  0  0  0  0  0
   35.1240   30.6180   34.8830 C   0  0  0  0  0  0  0  0  0  0  0  0
   33.7640   30.5600   35.3470 C   0  0  0  0  0  0  0  0  0  0  0  0
   33.0100   29.9060   34.9370 H   0  0  0  0  0  0  0  0  0  0  0  0
   33.4230   31.3860   36.3650 C   0  0  0  0  0  3  0  0  0  0  0  0
   34.3970   32.2780   36.9460 C   0  0  0  0  0  3  0  0  0  0  0  0
   35.9000   31.8570   35.9110 S   0  0  0  0  0  0  0  0  0  0  0  0
  1  7  1  0  0  0  0
  2  8  1  1  0  0  0
  2  1  1  0  0  0  0
  3  2  1  0  0  0  0
  3 10  1  0  0  0  0
  4  3  1  0  0  0  0
  4  5  1  0  0  0  0
  5  6  1  0  0  0  0
  5 12  1  0  0  0  0
  6  1  1  0  0  0  0
  6 14  1  1  0  0  0
  9  3  1  0  0  0  0
 11  4  1  0  0  0  0
 13  5  1  0  0  0  0
 15 17  1  0  0  0  0
 15  6  1  0  0  0  0
 16 15  1  0  0  0  0
 18  2  1  0  0  0  0
 19 20  2  0  0  0  0
 19 24  1  0  0  0  0
 20 21  1  0  0  0  0
 21 18  1  0  0  0  0
 21 22  2  0  0  0  0
 23 22  1  0  0  0  0
 23 27  1  0  0  0  0
 24 23  2  0  0  0  0
 25 19  1  0  0  0  0
 26 20  1  0  0  0  0
 27 28  2  0  0  0  0
 27 32  1  0  0  0  0
 28 30  1  0  0  0  0
 29 28  1  0  0  0  0
 30 31  2  0  0  0  0
 32 31  1  0  0  0  0
M  END
>  <minimizedAffinity>
-4.46613359

$$$$

 OpenBabel03262521003D

 32 34  0  0  1  0  0  0  0  0999 V2000
   39.3890   24.5490   33.4870 N   0  0  0  0  0  0  0  0  0  0  0  0
   38.2220   24.5490   34.3010 C   0  0  1  0  0  0  0  0  0  0  0  0
   38.3110   23.5060   35.3830 C   0  0  0  0  0  0  0  0  0  0  0  0
   39.4980   23.8240   36.1800 N   0  0  0  0  0  0  0  0  0  0  0  0
   40.6420   23.5470   35.2870 C   0  0  0  0  0  0  0  0  0  0  0  0
   40.6070   24.6310   34.2290 C   0  0  2  0  0  0  0  0  0  0  0  0
   39.3720   23.9330   32.6770 H   0  0  0  0  0  0  0  0  0  0  0  0
   37.3410   24.3220   33.6570 H   0  0  0  0  0  0  0  0  0  0  0  0
   37.4090   23.6050   36.0120 H   0  0  0  0  0  0  0  0  0  0  0  0
   38.3910   22.4750   34.9960 H   0  0  0  0  0  0  0  0  0  0  0  0
   39.5250   23.2140   37.0260 H   0  0  0  0  0  0  0  0  0  0  0  0
   40.5480   22.5430   34.8510 H   0  0  0  0  0  0  0  0  0  0  0  0
   41.5340   23.6560   35.9270 H   0  0  0  0  0  0  0  0  0  0  0  0
   41.4390   24.4190   33.5380 H   0  0  0  0  0  0  0  0  0  0  0  0
   40.8020   25.9150   34.8480 N   0  0  0  0  0  0  0  0  0  0  0  0
   40.7930   25.8580   35.8920 H   0  0  0  0  0  0  0  0  0  0  0  0
   41.7110   26.3120   34.5650 H   0  0  0  0  0  0  0  0  0  0  0  0
   38.0060   26.1570   35.1740 S   0  0  0  0  0  0  0  0  0  0  0  0
   35.9730   27.9620   32.1440 C   0  0  0  0  0  0  0  0  0  0  0  0
   36.7590   27.0480   32.8310 C   0  0  0  0  0  0  0  0  0  0  0  0
   37.0170   27.2440   34.1590 C   0  0  0  0  0  0  0  0  0  0  0  0
   36.4700   28.3560   34.7410 N   0  0  0  0  0  0  0  0  0  0  0  0
   35.7260   29.2120   34.0700 C   0  0  0  0  0  0  0  0  0  0  0  0
   35.4700   29.0250   32.7680 N   0  0  0  0  0  0  0  0  0  0  0  0
   35.8180   27.7280   31.0850 H   0  0  0  0  0  0  0  0  0  0  0  0
   37.2030   26.1670   32.4100 H   0  0  0  0  0  0  0  0  0  0  0  0
   35.1490   30.4140   34.7470 C   0  0  0  0  0  0  0  0  0  0  0  0
   35.9590   31.1590   35.6740 C   0  0  0  0  0  0  0  0  0  0  0  0
   36.9780   30.9110   35.9240 H   0  0  0  0  0  0  0  0  0  0  0  0
   35.3900   32.2390   36.2620 C   0  0  0  0  0  3  0  0  0  0  0  0
   34.0290   32.6100   35.9570 C   0  0  0  0  0  3  0  0  0  0  0  0
   33.5810   31.2700   34.7280 S   0  0  0  0  0  0  0  0  0  0  0  0
  1  6  1  0  0  0  0
  1  2  1  0  0  0  0
  2  8  1  6  0  0  0
  2 18  1  0  0  0  0
  2  3  1  0  0  0  0
  3  9  1  0  0  0  0
  3  4  1  0  0  0  0
  4 11  1  0  0  0  0
  5 13  1  0  0  0  0
  5  4  1  0  0  0  0
  6 14  1  6  0  0  0
  6 15  1  0  0  0  0
  6  5  1  0  0  0  0
  7  1  1  0  0  0  0
 10  3  1  0  0  0  0
 12  5  1  0  0  0  0
 15 16  1  0  0  0  0
 17 15  1  0  0  0  0
 19 24  2  0  0  0  0
 19 20  1  0  0  0  0
 20 21  2  0  0  0  0
 21 22  1  0  0  0  0
 21 18  1  0  0  0  0
 23 22  2  0  0  0  0
 23 27  1  0  0  0  0
 24 23  1  0  0  0  0
 25 19  1  0  0  0  0
 26 20  1  0  0  0  0
 27 28  2  0  0  0  0
 28 29  1  0  0  0  0
 28 30  1  0  0  0  0
 31 30  2  0  0  0  0
 32 27  1  0  0  0  0
 32 31  1  0  0  0  0
M  END
>  <minimizedAffinity>
-4.4057889

$$$$

 OpenBabel03262521003D

 32 34  0  0  1  0  0  0  0  0999 V2000
   36.6660   26.1100   32.3560 N   0  0  0  0  0  0  0  0  0  0  0  0
   37.8330   26.6740   31.7700 C   0  0  1  0  0  0  0  0  0  0  0  0
   38.7000   25.6130   31.1460 C   0  0  0  0  0  0  0  0  0  0  0  0
   37.8830   24.9440   30.1300 N   0  0  0  0  0  0  0  0  0  0  0  0
   36.8600   24.2010   30.8940 C   0  0  0  0  0  0  0  0  0  0  0  0
   35.9370   25.2550   31.4720 C   0  0  2  0  0  0  0  0  0  0  0  0
   36.7460   25.8240   33.3290 H   0  0  0  0  0  0  0  0  0  0  0  0
   38.4170   27.1890   32.5680 H   0  0  0  0  0  0  0  0  0  0  0  0
   39.5480   26.1240   30.6570 H   0  0  0  0  0  0  0  0  0  0  0  0
   39.0740   24.8680   31.8700 H   0  0  0  0  0  0  0  0  0  0  0  0
   38.4810   24.2950   29.5740 H   0  0  0  0  0  0  0  0  0  0  0  0
   37.3350   23.5960   31.6770 H   0  0  0  0  0  0  0  0  0  0  0  0
   36.3310   23.5920   30.1410 H   0  0  0  0  0  0  0  0  0  0  0  0
   35.1840   24.7150   32.0700 H   0  0  0  0  0  0  0  0  0  0  0  0
   35.2910   25.9700   30.4040 N   0  0  0  0  0  0  0  0  0  0  0  0
   35.6800   25.7180   29.4670 H   0  0  0  0  0  0  0  0  0  0  0  0
   34.2820   25.7560   30.3920 H   0  0  0  0  0  0  0  0  0  0  0  0
   37.4100   27.8390   30.4060 S   0  0  0  0  0  0  0  0  0  0  0  0
   35.9650   31.5110   31.4060 C   0  0  0  0  0  0  0  0  0  0  0  0
   36.7570   30.5280   30.8290 C   0  0  0  0  0  0  0  0  0  0  0  0
   36.4850   29.2110   31.0760 C   0  0  0  0  0  0  0  0  0  0  0  0
   35.4230   28.9390   31.8950 N   0  0  0  0  0  0  0  0  0  0  0  0
   34.6820   29.8880   32.4330 C   0  0  0  0  0  0  0  0  0  0  0  0
   34.9440   31.1810   32.1950 N   0  0  0  0  0  0  0  0  0  0  0  0
   36.2530   32.5370   31.1560 H   0  0  0  0  0  0  0  0  0  0  0  0
   37.5950   30.7030   30.1830 H   0  0  0  0  0  0  0  0  0  0  0  0
   33.5310   29.5430   33.3230 C   0  0  0  0  0  0  0  0  0  0  0  0
   33.6530   29.7370   34.7430 C   0  0  0  0  0  0  0  0  0  0  0  0
   34.5350   30.1230   35.2290 H   0  0  0  0  0  0  0  0  0  0  0  0
   32.5820   29.4090   35.5050 C   0  0  0  0  0  3  0  0  0  0  0  0
   31.3790   28.8900   34.9000 C   0  0  0  0  0  3  0  0  0  0  0  0
   31.8820   28.8930   33.0950 S   0  0  0  0  0  0  0  0  0  0  0  0
  1  7  1  0  0  0  0
  2  1  1  0  0  0  0
  2  8  1  1  0  0  0
  3  2  1  0  0  0  0
  3 10  1  0  0  0  0
  4  5  1  0  0  0  0
  4  3  1  0  0  0  0
  5  6  1  0  0  0  0
  5 12  1  0  0  0  0
  6 14  1  1  0  0  0
  6  1  1  0  0  0  0
  9  3  1  0  0  0  0
 11  4  1  0  0  0  0
 13  5  1  0  0  0  0
 15  6  1  0  0  0  0
 16 15  1  0  0  0  0
 17 15  1  0  0  0  0
 18 21  1  0  0  0  0
 18  2  1  0  0  0  0
 19 24  1  0  0  0  0
 20 21  1  0  0  0  0
 20 19  2  0  0  0  0
 21 22  2  0  0  0  0
 22 23  1  0  0  0  0
 23 27  1  0  0  0  0
 24 23  2  0  0  0  0
 25 19  1  0  0  0  0
 26 20  1  0  0  0  0
 27 28  2  0  0  0  0
 28 29  1  0  0  0  0
 28 30  1  0  0  0  0
 31 30  2  0  0  0  0
 32 27  1  0  0  0  0
 32 31  1  0  0  0  0
M  END
>  <minimizedAffinity>
-4.36556482

$$$$

 OpenBabel03262521003D

 32 34  0  0  1  0  0  0  0  0999 V2000
   36.8620   25.5590   30.9130 N   0  0  0  0  0  0  0  0  0  0  0  0
   38.2680   25.5480   31.1270 C   0  0  1  0  0  0  0  0  0  0  0  0
   38.9490   26.6410   30.3460 C   0  0  0  0  0  0  0  0  0  0  0  0
   38.3670   27.9080   30.7970 N   0  0  0  0  0  0  0  0  0  0  0  0
   36.9770   27.8870   30.2950 C   0  0  0  0  0  0  0  0  0  0  0  0
   36.2600   26.8390   31.1200 C   0  0  2  0  0  0  0  0  0  0  0  0
   36.5220   25.0000   30.1340 H   0  0  0  0  0  0  0  0  0  0  0  0
   38.6700   24.5650   30.7900 H   0  0  0  0  0  0  0  0  0  0  0  0
   40.0210   26.6160   30.6080 H   0  0  0  0  0  0  0  0  0  0  0  0
   38.8240   26.5450   29.2530 H   0  0  0  0  0  0  0  0  0  0  0  0
   38.9020   28.7040   30.3870 H   0  0  0  0  0  0  0  0  0  0  0  0
   36.9640   27.6480   29.2230 H   0  0  0  0  0  0  0  0  0  0  0  0
   36.5820   28.8940   30.5160 H   0  0  0  0  0  0  0  0  0  0  0  0
   35.2270   26.7920   30.7360 H   0  0  0  0  0  0  0  0  0  0  0  0
   36.2480   27.2370   32.5030 N   0  0  0  0  0  0  0  0  0  0  0  0
   36.8400   28.0800   32.6770 H   0  0  0  0  0  0  0  0  0  0  0  0
   35.2870   27.4630   32.8000 H   0  0  0  0  0  0  0  0  0  0  0  0
   38.6860   25.8620   32.8940 S   0  0  0  0  0  0  0  0  0  0  0  0
   38.1870   23.0940   35.8350 C   0  0  0  0  0  0  0  0  0  0  0  0
   38.5100   24.2830   35.1980 C   0  0  0  0  0  0  0  0  0  0  0  0
   38.3210   24.3990   33.8490 C   0  0  0  0  0  0  0  0  0  0  0  0
   37.8130   23.3080   33.1970 N   0  0  0  0  0  0  0  0  0  0  0  0
   37.5120   22.1870   33.8220 C   0  0  0  0  0  0  0  0  0  0  0  0
   37.6950   22.0670   35.1440 N   0  0  0  0  0  0  0  0  0  0  0  0
   38.3700   23.0880   36.9150 H   0  0  0  0  0  0  0  0  0  0  0  0
   38.9090   25.1570   35.6750 H   0  0  0  0  0  0  0  0  0  0  0  0
   36.9580   21.0200   33.0670 C   0  0  0  0  0  0  0  0  0  0  0  0
   35.7110   20.4370   33.4840 C   0  0  0  0  0  0  0  0  0  0  0  0
   35.1280   20.7870   34.3220 H   0  0  0  0  0  0  0  0  0  0  0  0
   35.2530   19.3820   32.7680 C   0  0  0  0  0  3  0  0  0  0  0  0
   35.9980   18.8800   31.6390 C   0  0  0  0  0  3  0  0  0  0  0  0
   37.4610   20.0500   31.6540 S   0  0  0  0  0  0  0  0  0  0  0  0
  1  6  1  0  0  0  0
  1  2  1  0  0  0  0
  2  8  1  6  0  0  0
  2 18  1  0  0  0  0
  3  9  1  0  0  0  0
  3  4  1  0  0  0  0
  3  2  1  0  0  0  0
  5 13  1  0  0  0  0
  5  4  1  0  0  0  0
  5  6  1  0  0  0  0
  6 14  1  6  0  0  0
  6 15  1  0  0  0  0
  7  1  1  0  0  0  0
 10  3  1  0  0  0  0
 11  4  1  0  0  0  0
 12  5  1  0  0  0  0
 15 16  1  0  0  0  0
 15 17  1  0  0  0  0
 18 21  1  0  0  0  0
 19 25  1  0  0  0  0
 20 26  1  0  0  0  0
 20 19  1  0  0  0  0
 21 20  2  0  0  0  0
 22 23  2  0  0  0  0
 22 21  1  0  0  0  0
 23 24  1  0  0  0  0
 24 19  2  0  0  0  0
 27 28  2  0  0  0  0
 27 23  1  0  0  0  0
 28 29  1  0  0  0  0
 30 28  1  0  0  0  0
 31 32  1  0  0  0  0
 31 30  2  0  0  0  0
 32 27  1  0  0  0  0
M  END
>  <minimizedAffinity>
-4.35687256

$$$$
