
 OpenBabel03272509383D

 27 29  0  0  1  0  0  0  0  0999 V2000
   36.1540   30.5460   48.4230 C   0  0  0  0  0  0  0  0  0  0  0  0
   36.0590   31.0650   49.7390 C   0  0  0  0  0  0  0  0  0  0  0  0
   36.9060   32.1050   50.1530 C   0  0  0  0  0  0  0  0  0  0  0  0
   37.8350   32.6280   49.2780 C   0  0  0  0  0  0  0  0  0  0  0  0
   37.8850   32.0920   48.0220 C   0  0  0  0  0  0  0  0  0  0  0  0
   37.0670   31.0590   47.5690 C   0  0  0  0  0  0  0  0  0  0  0  0
   35.3130   30.6160   50.3800 H   0  0  0  0  0  0  0  0  0  0  0  0
   36.7060   32.3790   51.1620 H   0  0  0  0  0  0  0  0  0  0  0  0
   38.4480   33.4250   49.6650 H   0  0  0  0  0  0  0  0  0  0  0  0
   38.6680   32.6090   47.4390 H   0  0  0  0  0  0  0  0  0  0  0  0
   37.3530   30.7620   46.1940 C   0  0  0  0  0  0  0  0  0  0  0  0
   38.7950   30.4960   45.8940 C   0  0  0  0  0  0  0  0  0  0  0  0
   39.6550   30.5930   46.5880 H   0  0  0  0  0  0  0  0  0  0  0  0
   39.2390   30.0820   44.7000 C   0  0  0  0  0  3  0  0  0  0  0  0
   38.2240   29.9170   43.7270 C   0  0  0  0  0  3  0  0  0  0  0  0
   36.7730   30.3330   44.5150 S   0  0  0  0  0  0  0  0  0  0  0  0
   35.2450   29.4580   48.0660 C   0  0  1  0  0  3  0  0  0  0  0  0
   35.3630   28.4060   48.8180 O   0  0  0  0  0  1  0  0  0  0  0  0
   32.5960   30.7910   45.9830 C   0  0  0  0  0  0  0  0  0  0  0  0
   32.3860   29.8060   45.0320 C   0  0  0  0  0  0  0  0  0  0  0  0
   33.1630   28.6460   45.1010 C   0  0  0  0  0  0  0  0  0  0  0  0
   34.1080   28.5080   46.0980 N   0  0  0  0  0  0  0  0  0  0  0  0
   34.2720   29.4830   46.9860 C   0  0  0  0  0  0  0  0  0  0  0  0
   33.5170   30.6060   46.9180 N   0  0  0  0  0  0  0  0  0  0  0  0
   31.9550   31.6500   45.8570 H   0  0  0  0  0  0  0  0  0  0  0  0
   31.6940   29.7950   44.2210 H   0  0  0  0  0  0  0  0  0  0  0  0
   33.0620   27.8200   44.3910 H   0  0  0  0  0  0  0  0  0  0  0  0
  1  2  1  0  0  0  0
  2  3  2  0  0  0  0
  2  7  1  0  0  0  0
  3  8  1  0  0  0  0
  4  9  1  0  0  0  0
  4  3  1  0  0  0  0
  5  4  2  0  0  0  0
  6  5  1  0  0  0  0
  6  1  2  0  0  0  0
 10  5  1  0  0  0  0
 11  6  1  0  0  0  0
 12 11  2  0  0  0  0
 12 13  1  0  0  0  0
 14 12  1  0  0  0  0
 15 16  1  0  0  0  0
 15 14  2  0  0  0  0
 16 11  1  0  0  0  0
 17  1  1  0  0  0  0
 17 18  1  1  0  0  0
 19 24  1  0  0  0  0
 20 21  1  0  0  0  0
 20 19  2  0  0  0  0
 21 22  2  0  0  0  0
 22 23  1  0  0  0  0
 23 17  1  0  0  0  0
 24 23  2  0  0  0  0
 25 19  1  0  0  0  0
 26 20  1  0  0  0  0
 27 21  1  0  0  0  0
M  END
>  <minimizedAffinity>
-5.17268133

>  <minimizedRMSD>
1.10720885

$$$$
