
 OpenBabel03272507193D

 27 29  0  0  1  0  0  0  0  0999 V2000
   36.9940   31.4330   49.1960 C   0  0  0  0  0  0  0  0  0  0  0  0
   37.4470   32.4850   49.9850 C   0  0  0  0  0  0  0  0  0  0  0  0
   38.3530   33.3410   49.3700 C   0  0  0  0  0  0  0  0  0  0  0  0
   38.7530   33.1420   48.0830 N   0  0  0  0  0  0  0  0  0  0  0  0
   38.2870   32.1020   47.3440 C   0  0  0  0  0  0  0  0  0  0  0  0
   37.3970   31.2370   47.9070 N   0  0  0  0  0  0  0  0  0  0  0  0
   37.1290   32.6340   50.9890 H   0  0  0  0  0  0  0  0  0  0  0  0
   38.7730   34.1950   49.8890 H   0  0  0  0  0  0  0  0  0  0  0  0
   36.0090   30.5000   49.8250 C   0  0  1  0  0  0  0  0  0  0  0  0
   34.8760   29.9570   49.0780 C   0  0  2  0  0  0  0  0  0  0  0  0
   36.0890   29.0860   49.2080 C   0  0  0  0  0  0  0  0  0  0  0  0
   36.0730   30.5030   50.9490 H   0  0  0  0  0  0  0  0  0  0  0  0
   33.9650   29.8110   49.7160 H   0  0  0  0  0  0  0  0  0  0  0  0
   35.9440   28.2370   49.9320 H   0  0  0  0  0  0  0  0  0  0  0  0
   36.7420   28.9110   48.3530 H   0  0  0  0  0  0  0  0  0  0  0  0
   34.5910   30.5370   47.8500 O   0  0  0  0  0  0  0  0  0  0  0  0
   33.8230   30.0840   46.8310 C   0  0  0  0  0  0  0  0  0  0  0  0
   34.0100   28.9740   46.2920 O   0  0  0  0  0  0  0  0  0  0  0  0
   32.8610   31.0560   46.5450 N   0  0  0  0  0  0  0  0  0  0  0  0
   33.0920   31.8150   45.8970 H   0  0  0  0  0  0  0  0  0  0  0  0
   32.0290   30.7500   47.1240 H   0  0  0  0  0  0  0  0  0  0  0  0
   38.7840   32.0090   46.0150 C   0  0  0  0  0  0  0  0  0  0  0  0
   38.3320   32.4100   44.8040 C   0  0  0  0  0  0  0  0  0  0  0  0
   37.3580   32.9290   44.8280 H   0  0  0  0  0  0  0  0  0  0  0  0
   39.0310   32.1860   43.6650 C   0  0  0  0  0  3  0  0  0  0  0  0
   40.2360   31.5210   43.8100 C   0  0  0  0  0  3  0  0  0  0  0  0
   40.2990   31.2400   45.6860 S   0  0  0  0  0  0  0  0  0  0  0  0
  1  9  1  0  0  0  0
  1  2  1  0  0  0  0
  2  7  1  0  0  0  0
  3  8  1  0  0  0  0
  3  2  2  0  0  0  0
  4  3  1  0  0  0  0
  5  6  1  0  0  0  0
  5  4  2  0  0  0  0
  6  1  2  0  0  0  0
  9 12  1  1  0  0  0
 10 11  1  0  0  0  0
 10 13  1  1  0  0  0
 10  9  1  0  0  0  0
 11  9  1  0  0  0  0
 11 14  1  0  0  0  0
 15 11  1  0  0  0  0
 16 10  1  0  0  0  0
 17 16  1  0  0  0  0
 18 17  2  0  0  0  0
 19 17  1  0  0  0  0
 19 21  1  0  0  0  0
 20 19  1  0  0  0  0
 22  5  1  0  0  0  0
 23 24  1  0  0  0  0
 23 22  2  0  0  0  0
 25 26  2  0  0  0  0
 25 23  1  0  0  0  0
 26 27  1  0  0  0  0
 27 22  1  0  0  0  0
M  END
>  <minimizedAffinity>
-5.56300926

>  <minimizedRMSD>
2.55016446

$$$$
