
 OpenBabel03272506303D

 31 33  0  0  1  0  0  0  0  0999 V2000
   33.8230   28.9750   48.2290 C   0  0  1  0  0  0  0  0  0  0  0  0
   33.4440   29.5510   46.9420 C   0  0  0  0  0  0  0  0  0  0  0  0
   33.7420   28.7560   45.7170 C   0  0  0  0  0  0  0  0  0  0  0  0
   33.6610   27.2860   45.8390 C   0  0  0  0  0  0  0  0  0  0  0  0
   34.0210   26.7000   47.1450 C   0  0  0  0  0  0  0  0  0  0  0  0
   33.5820   27.4950   48.3200 C   0  0  2  0  0  0  0  0  0  0  0  0
   33.1450   29.4070   49.0320 H   0  0  0  0  0  0  0  0  0  0  0  0
   33.7500   30.5760   46.7370 H   0  0  0  0  0  0  0  0  0  0  0  0
   32.3090   29.6240   46.9560 H   0  0  0  0  0  0  0  0  0  0  0  0
   34.7750   29.0610   45.3870 H   0  0  0  0  0  0  0  0  0  0  0  0
   33.0730   29.0950   44.8970 H   0  0  0  0  0  0  0  0  0  0  0  0
   32.6570   26.9420   45.5240 H   0  0  0  0  0  0  0  0  0  0  0  0
   34.3840   26.8610   45.0780 H   0  0  0  0  0  0  0  0  0  0  0  0
   33.5170   25.7010   47.2240 H   0  0  0  0  0  0  0  0  0  0  0  0
   35.1340   26.5490   47.1830 H   0  0  0  0  0  0  0  0  0  0  0  0
   33.8740   27.0540   49.2680 H   0  0  0  0  0  0  0  0  0  0  0  0
   35.9600   30.3440   48.1060 C   0  0  0  0  0  0  0  0  0  0  0  0
   35.1640   29.3560   48.7350 C   0  0  0  0  0  0  0  0  0  0  0  0
   35.7180   28.7730   49.8590 C   0  0  0  0  0  0  0  0  0  0  0  0
   36.9490   29.1530   50.2970 N   0  0  0  0  0  0  0  0  0  0  0  0
   37.6660   30.1020   49.6590 C   0  0  0  0  0  0  0  0  0  0  0  0
   37.1580   30.6930   48.5590 N   0  0  0  0  0  0  0  0  0  0  0  0
   35.6490   30.8770   47.2240 H   0  0  0  0  0  0  0  0  0  0  0  0
   35.2630   28.0110   50.4660 H   0  0  0  0  0  0  0  0  0  0  0  0
   38.6350   30.3470   50.0700 H   0  0  0  0  0  0  0  0  0  0  0  0
   32.0420   27.3310   48.3490 C   0  0  0  0  0  0  0  0  0  0  0  0
   31.3800   26.5750   47.5390 C   0  0  0  0  0  0  0  0  0  0  0  0
   31.7370   25.9240   46.7180 H   0  0  0  0  0  0  0  0  0  0  0  0
   30.0160   26.4490   47.5790 C   0  0  0  0  0  3  0  0  0  0  0  0
   29.3860   27.1730   48.5230 C   0  0  0  0  0  3  0  0  0  0  0  0
   30.8230   28.0470   49.3670 S   0  0  0  0  0  0  0  0  0  0  0  0
  1  6  1  0  0  0  0
  1 18  1  0  0  0  0
  1  7  1  1  0  0  0
  2  9  1  0  0  0  0
  2  1  1  0  0  0  0
  3  4  1  0  0  0  0
  3  2  1  0  0  0  0
  4  5  1  0  0  0  0
  5 15  1  0  0  0  0
  5 14  1  0  0  0  0
  5  6  1  0  0  0  0
  6 26  1  0  0  0  0
  6 16  1  1  0  0  0
  8  2  1  0  0  0  0
 10  3  1  0  0  0  0
 11  3  1  0  0  0  0
 12  4  1  0  0  0  0
 13  4  1  0  0  0  0
 17 22  2  0  0  0  0
 17 18  1  0  0  0  0
 18 19  2  0  0  0  0
 19 20  1  0  0  0  0
 19 24  1  0  0  0  0
 21 25  1  0  0  0  0
 21 20  2  0  0  0  0
 22 21  1  0  0  0  0
 23 17  1  0  0  0  0
 26 31  1  0  0  0  0
 27 29  1  0  0  0  0
 27 26  2  0  0  0  0
 28 27  1  0  0  0  0
 29 30  2  0  0  0  0
 30 31  1  0  0  0  0
M  END
>  <minimizedAffinity>
-4.28879023

>  <minimizedRMSD>
1.80966079

$$$$
