
 OpenBabel03272506173D

 31 33  0  0  0  0  0  0  0  0999 V2000
   35.5320   30.2910   49.8330 C   0  0  0  0  0  0  0  0  0  0  0  0
   36.4510   31.2260   49.0810 C   0  0  0  0  0  0  0  0  0  0  0  0
   37.8990   30.8700   49.2440 C   0  0  0  0  0  0  0  0  0  0  0  0
   38.3400   30.7490   50.6750 C   0  0  0  0  0  0  0  0  0  0  0  0
   37.3310   30.0720   51.5530 C   0  0  0  0  0  0  0  0  0  0  0  0
   36.2470   29.3690   50.7600 C   0  0  0  0  0  0  0  0  0  0  0  0
   34.7830   30.8810   50.3970 H   0  0  0  0  0  0  0  0  0  0  0  0
   36.2310   31.2510   48.0080 H   0  0  0  0  0  0  0  0  0  0  0  0
   36.3400   32.2540   49.5240 H   0  0  0  0  0  0  0  0  0  0  0  0
   38.4920   31.6670   48.7700 H   0  0  0  0  0  0  0  0  0  0  0  0
   38.0830   29.9200   48.7000 H   0  0  0  0  0  0  0  0  0  0  0  0
   39.2620   30.1030   50.6750 H   0  0  0  0  0  0  0  0  0  0  0  0
   38.6780   31.7040   51.1130 H   0  0  0  0  0  0  0  0  0  0  0  0
   37.7940   29.2980   52.1960 H   0  0  0  0  0  0  0  0  0  0  0  0
   36.8940   30.8320   52.2060 H   0  0  0  0  0  0  0  0  0  0  0  0
   36.7800   28.6120   50.1330 H   0  0  0  0  0  0  0  0  0  0  0  0
   35.5720   28.9000   51.4720 H   0  0  0  0  0  0  0  0  0  0  0  0
   34.7630   29.4490   48.8650 C   0  0  0  0  0  0  0  0  0  0  0  0
   34.2240   30.1310   47.7570 C   0  0  0  0  0  0  0  0  0  0  0  0
   33.4880   29.3420   46.8500 C   0  0  0  0  0  0  0  0  0  0  0  0
   33.3330   28.0090   47.0720 N   0  0  0  0  0  0  0  0  0  0  0  0
   33.8780   27.4060   48.1610 C   0  0  0  0  0  0  0  0  0  0  0  0
   34.5800   28.1170   49.0410 N   0  0  0  0  0  0  0  0  0  0  0  0
   34.3110   31.1640   47.5320 H   0  0  0  0  0  0  0  0  0  0  0  0
   33.7540   26.3640   48.3310 H   0  0  0  0  0  0  0  0  0  0  0  0
   32.9010   29.9200   45.7020 C   0  0  0  0  0  0  0  0  0  0  0  0
   32.1490   31.0700   45.5830 C   0  0  0  0  0  0  0  0  0  0  0  0
   31.9500   31.6530   46.4730 H   0  0  0  0  0  0  0  0  0  0  0  0
   31.6780   31.4410   44.3580 C   0  0  0  0  0  3  0  0  0  0  0  0
   32.0100   30.5890   43.2730 C   0  0  0  0  0  3  0  0  0  0  0  0
   32.9950   29.2730   44.0570 S   0  0  0  0  0  0  0  0  0  0  0  0
  1  7  1  0  0  0  0
  1  6  1  0  0  0  0
  2  3  1  0  0  0  0
  2  9  1  0  0  0  0
  2  1  1  0  0  0  0
  3  4  1  0  0  0  0
  4 13  1  0  0  0  0
  4  5  1  0  0  0  0
  5 14  1  0  0  0  0
  5 15  1  0  0  0  0
  6 17  1  0  0  0  0
  6  5  1  0  0  0  0
  8  2  1  0  0  0  0
 10  3  1  0  0  0  0
 11  3  1  0  0  0  0
 12  4  1  0  0  0  0
 16  6  1  0  0  0  0
 18 23  1  0  0  0  0
 18  1  1  0  0  0  0
 19 18  2  0  0  0  0
 20 21  2  0  0  0  0
 20 19  1  0  0  0  0
 21 22  1  0  0  0  0
 22 25  1  0  0  0  0
 22 23  2  0  0  0  0
 24 19  1  0  0  0  0
 26 20  1  0  0  0  0
 27 26  2  0  0  0  0
 27 28  1  0  0  0  0
 29 27  1  0  0  0  0
 30 31  1  0  0  0  0
 30 29  2  0  0  0  0
 31 26  1  0  0  0  0
M  END
>  <minimizedAffinity>
-5.17858744

>  <minimizedRMSD>
0.211005658

$$$$
