
 OpenBabel03272507193D

 27 29  0  0  1  0  0  0  0  0999 V2000
   37.5750   31.2970   49.4720 C   0  0  0  0  0  0  0  0  0  0  0  0
   38.3260   32.4570   49.6230 C   0  0  0  0  0  0  0  0  0  0  0  0
   38.8500   32.9840   48.4480 C   0  0  0  0  0  0  0  0  0  0  0  0
   38.6270   32.3860   47.2440 N   0  0  0  0  0  0  0  0  0  0  0  0
   37.8860   31.2510   47.1380 C   0  0  0  0  0  0  0  0  0  0  0  0
   37.3550   30.7000   48.2640 N   0  0  0  0  0  0  0  0  0  0  0  0
   38.4960   32.9190   50.5670 H   0  0  0  0  0  0  0  0  0  0  0  0
   39.4510   33.8860   48.4450 H   0  0  0  0  0  0  0  0  0  0  0  0
   36.9890   30.7110   50.7180 C   0  0  1  0  0  0  0  0  0  0  0  0
   36.0920   29.5580   50.6790 C   0  0  2  0  0  0  0  0  0  0  0  0
   37.5340   29.2920   50.9910 C   0  0  0  0  0  0  0  0  0  0  0  0
   37.0790   31.4040   51.6000 H   0  0  0  0  0  0  0  0  0  0  0  0
   35.3050   29.5930   51.4770 H   0  0  0  0  0  0  0  0  0  0  0  0
   37.7100   29.0460   52.0750 H   0  0  0  0  0  0  0  0  0  0  0  0
   38.1840   28.8170   50.2560 H   0  0  0  0  0  0  0  0  0  0  0  0
   35.5910   29.1870   49.4390 O   0  0  0  0  0  0  0  0  0  0  0  0
   34.3170   29.1830   48.9800 C   0  0  0  0  0  0  0  0  0  0  0  0
   33.5070   28.2760   49.2600 O   0  0  0  0  0  0  0  0  0  0  0  0
   34.1330   30.3220   48.1940 N   0  0  0  0  0  0  0  0  0  0  0  0
   34.3810   30.2920   47.2010 H   0  0  0  0  0  0  0  0  0  0  0  0
   33.7370   31.0270   48.8780 H   0  0  0  0  0  0  0  0  0  0  0  0
   37.7300   30.7300   45.8240 C   0  0  0  0  0  0  0  0  0  0  0  0
   36.6680   30.4840   45.0220 C   0  0  0  0  0  0  0  0  0  0  0  0
   35.6900   30.7340   45.4670 H   0  0  0  0  0  0  0  0  0  0  0  0
   36.8110   29.9690   43.7770 C   0  0  0  0  0  3  0  0  0  0  0  0
   38.1080   29.7110   43.3690 C   0  0  0  0  0  3  0  0  0  0  0  0
   39.1070   30.2530   44.8890 S   0  0  0  0  0  0  0  0  0  0  0  0
  1  2  1  0  0  0  0
  1  9  1  0  0  0  0
  2  7  1  0  0  0  0
  3  2  2  0  0  0  0
  4  3  1  0  0  0  0
  5  4  2  0  0  0  0
  5  6  1  0  0  0  0
  6  1  2  0  0  0  0
  8  3  1  0  0  0  0
  9 11  1  0  0  0  0
  9 12  1  1  0  0  0
 10  9  1  0  0  0  0
 10 11  1  0  0  0  0
 10 13  1  1  0  0  0
 11 14  1  0  0  0  0
 15 11  1  0  0  0  0
 16 10  1  0  0  0  0
 17 18  2  0  0  0  0
 17 16  1  0  0  0  0
 19 21  1  0  0  0  0
 19 17  1  0  0  0  0
 20 19  1  0  0  0  0
 22  5  1  0  0  0  0
 23 24  1  0  0  0  0
 23 22  2  0  0  0  0
 25 23  1  0  0  0  0
 26 25  2  0  0  0  0
 26 27  1  0  0  0  0
 27 22  1  0  0  0  0
M  END
>  <minimizedAffinity>
-5.35551643

>  <minimizedRMSD>
0.988056242

$$$$
