
 OpenBabel03272509383D

 27 29  0  0  1  0  0  0  0  0999 V2000
   34.7940   29.5010   47.7860 C   0  0  0  0  0  0  0  0  0  0  0  0
   34.0890   29.0730   48.9400 C   0  0  0  0  0  0  0  0  0  0  0  0
   34.6330   29.2780   50.2180 C   0  0  0  0  0  0  0  0  0  0  0  0
   35.8570   29.8990   50.3550 C   0  0  0  0  0  0  0  0  0  0  0  0
   36.4930   30.2910   49.2120 C   0  0  0  0  0  0  0  0  0  0  0  0
   35.9930   30.1070   47.9240 C   0  0  0  0  0  0  0  0  0  0  0  0
   33.1350   28.5920   48.7700 H   0  0  0  0  0  0  0  0  0  0  0  0
   33.9820   28.9020   50.9710 H   0  0  0  0  0  0  0  0  0  0  0  0
   36.2080   30.0230   51.3660 H   0  0  0  0  0  0  0  0  0  0  0  0
   37.4520   30.7720   49.4780 H   0  0  0  0  0  0  0  0  0  0  0  0
   36.8920   30.6680   46.9550 C   0  0  0  0  0  0  0  0  0  0  0  0
   38.2020   31.1320   47.5070 C   0  0  0  0  0  0  0  0  0  0  0  0
   38.5070   31.1730   48.5730 H   0  0  0  0  0  0  0  0  0  0  0  0
   39.2150   31.5700   46.7460 C   0  0  0  0  0  3  0  0  0  0  0  0
   38.9430   31.5590   45.3560 C   0  0  0  0  0  3  0  0  0  0  0  0
   37.3540   30.9620   45.2130 S   0  0  0  0  0  0  0  0  0  0  0  0
   34.1690   29.2460   46.4880 C   0  0  1  0  0  3  0  0  0  0  0  0
   34.2910   28.0210   46.0780 O   0  0  0  0  0  1  0  0  0  0  0  0
   33.3740   31.2080   43.5470 C   0  0  0  0  0  0  0  0  0  0  0  0
   32.2870   31.9740   43.9350 C   0  0  0  0  0  0  0  0  0  0  0  0
   31.8090   31.8270   45.2410 C   0  0  0  0  0  0  0  0  0  0  0  0
   32.4190   30.9360   46.1010 N   0  0  0  0  0  0  0  0  0  0  0  0
   33.4590   30.2240   45.6800 C   0  0  0  0  0  0  0  0  0  0  0  0
   33.9210   30.3680   44.4150 N   0  0  0  0  0  0  0  0  0  0  0  0
   33.6770   31.3840   42.5260 H   0  0  0  0  0  0  0  0  0  0  0  0
   31.7350   32.6880   43.3680 H   0  0  0  0  0  0  0  0  0  0  0  0
   30.9570   32.3920   45.6290 H   0  0  0  0  0  0  0  0  0  0  0  0
  1  6  2  0  0  0  0
  1  2  1  0  0  0  0
  2  3  2  0  0  0  0
  3  4  1  0  0  0  0
  3  8  1  0  0  0  0
  4  9  1  0  0  0  0
  5 10  1  0  0  0  0
  5  4  2  0  0  0  0
  6  5  1  0  0  0  0
  7  2  1  0  0  0  0
 11 12  2  0  0  0  0
 11  6  1  0  0  0  0
 12 13  1  0  0  0  0
 14 12  1  0  0  0  0
 15 14  2  0  0  0  0
 16 15  1  0  0  0  0
 16 11  1  0  0  0  0
 17 18  1  1  0  0  0
 17  1  1  0  0  0  0
 19 20  2  0  0  0  0
 19 24  1  0  0  0  0
 20 21  1  0  0  0  0
 21 27  1  0  0  0  0
 21 22  2  0  0  0  0
 23 22  1  0  0  0  0
 23 17  1  0  0  0  0
 24 23  2  0  0  0  0
 25 19  1  0  0  0  0
 26 20  1  0  0  0  0
M  END
>  <minimizedAffinity>
-4.97036409

>  <minimizedRMSD>
2.72257686

$$$$
