
 OpenBabel03272507453D

 30 32  0  0  0  0  0  0  0  0999 V2000
   34.7320   31.1080   43.6790 N   0  0  0  0  0  0  0  0  0  0  0  0
   34.5430   30.1370   44.7210 C   0  0  0  0  0  0  0  0  0  0  0  0
   35.5380   30.0920   45.8070 C   0  0  0  0  0  0  0  0  0  0  0  0
   36.9290   30.5290   45.4830 C   0  0  0  0  0  0  0  0  0  0  0  0
   37.0210   31.5110   44.3520 C   0  0  0  0  0  0  0  0  0  0  0  0
   36.0950   31.0110   43.2200 C   0  0  0  0  0  0  0  0  0  0  0  0
   34.4910   29.1410   44.2140 H   0  0  0  0  0  0  0  0  0  0  0  0
   33.5240   30.3140   45.1430 H   0  0  0  0  0  0  0  0  0  0  0  0
   35.1500   30.7010   46.6670 H   0  0  0  0  0  0  0  0  0  0  0  0
   35.6000   29.0580   46.2110 H   0  0  0  0  0  0  0  0  0  0  0  0
   37.5590   29.6540   45.2290 H   0  0  0  0  0  0  0  0  0  0  0  0
   36.6850   32.5160   44.6260 H   0  0  0  0  0  0  0  0  0  0  0  0
   38.0490   31.4690   43.9490 H   0  0  0  0  0  0  0  0  0  0  0  0
   36.2600   31.6120   42.3040 H   0  0  0  0  0  0  0  0  0  0  0  0
   36.4160   29.9810   42.9800 H   0  0  0  0  0  0  0  0  0  0  0  0
   33.7450   32.0120   43.1850 C   0  0  0  0  0  0  0  0  0  0  0  0
   34.0070   33.1140   42.3730 C   0  0  0  0  0  0  0  0  0  0  0  0
   32.9300   33.8930   41.9790 C   0  0  0  0  0  0  0  0  0  0  0  0
   31.6750   33.5630   42.3900 N   0  0  0  0  0  0  0  0  0  0  0  0
   31.4640   32.4880   43.1740 C   0  0  0  0  0  0  0  0  0  0  0  0
   32.4940   31.7340   43.5590 N   0  0  0  0  0  0  0  0  0  0  0  0
   35.0400   33.2790   42.1090 H   0  0  0  0  0  0  0  0  0  0  0  0
   33.1510   34.7330   41.3570 H   0  0  0  0  0  0  0  0  0  0  0  0
   30.4540   32.2310   43.4990 H   0  0  0  0  0  0  0  0  0  0  0  0
   37.5160   31.1670   46.6760 C   0  0  0  0  0  0  0  0  0  0  0  0
   38.3930   32.1880   46.7620 C   0  0  0  0  0  0  0  0  0  0  0  0
   38.7640   32.6580   45.8360 H   0  0  0  0  0  0  0  0  0  0  0  0
   38.8020   32.6160   48.0030 C   0  0  0  0  0  3  0  0  0  0  0  0
   38.2900   31.9770   49.0880 C   0  0  0  0  0  3  0  0  0  0  0  0
   37.1790   30.7070   48.3690 S   0  0  0  0  0  0  0  0  0  0  0  0
  1  2  1  0  0  0  0
  2  8  1  0  0  0  0
  2  3  1  0  0  0  0
  3 10  1  0  0  0  0
  3  9  1  0  0  0  0
  4  3  1  0  0  0  0
  4 25  1  0  0  0  0
  5 12  1  0  0  0  0
  5  4  1  0  0  0  0
  6  1  1  0  0  0  0
  6  5  1  0  0  0  0
  7  2  1  0  0  0  0
 11  4  1  0  0  0  0
 13  5  1  0  0  0  0
 14  6  1  0  0  0  0
 15  6  1  0  0  0  0
 16 21  1  0  0  0  0
 16  1  1  0  0  0  0
 17 16  2  0  0  0  0
 18 17  1  0  0  0  0
 18 19  2  0  0  0  0
 19 20  1  0  0  0  0
 20 24  1  0  0  0  0
 20 21  2  0  0  0  0
 22 17  1  0  0  0  0
 23 18  1  0  0  0  0
 25 26  2  0  0  0  0
 25 30  1  0  0  0  0
 26 28  1  0  0  0  0
 27 26  1  0  0  0  0
 28 29  2  0  0  0  0
 30 29  1  0  0  0  0
M  END
>  <minimizedAffinity>
-3.61424303

>  <minimizedRMSD>
5.66487503

$$$$
