
 OpenBabel03272509113D

 25 27  0  0  0  0  0  0  0  0999 V2000
   35.9050   30.6430   48.3830 C   0  0  0  0  0  0  0  0  0  0  0  0
   34.9250   29.7190   47.9240 C   0  0  0  0  0  0  0  0  0  0  0  0
   34.5560   28.6820   48.7540 C   0  0  0  0  0  0  0  0  0  0  0  0
   35.1430   28.5770   49.9890 N   0  0  0  0  0  0  0  0  0  0  0  0
   36.0790   29.4850   50.3920 C   0  0  0  0  0  0  0  0  0  0  0  0
   36.4500   30.4940   49.6060 N   0  0  0  0  0  0  0  0  0  0  0  0
   36.2290   31.4690   47.7770 H   0  0  0  0  0  0  0  0  0  0  0  0
   36.4560   29.2780   51.3870 H   0  0  0  0  0  0  0  0  0  0  0  0
   33.5710   27.6830   48.3810 C   0  0  0  0  0  0  0  0  0  0  0  0
   32.2790   27.8960   48.7900 C   0  0  0  0  0  0  0  0  0  0  0  0
   31.2700   26.9740   48.4620 C   0  0  0  0  0  0  0  0  0  0  0  0
   31.6230   25.8530   47.7190 C   0  0  0  0  0  0  0  0  0  0  0  0
   32.9080   25.6100   47.2930 C   0  0  0  0  0  0  0  0  0  0  0  0
   33.8750   26.5560   47.6440 C   0  0  0  0  0  0  0  0  0  0  0  0
   31.8480   28.6870   49.3680 H   0  0  0  0  0  0  0  0  0  0  0  0
   30.2300   27.0580   48.7400 H   0  0  0  0  0  0  0  0  0  0  0  0
   30.8760   25.1080   47.4400 H   0  0  0  0  0  0  0  0  0  0  0  0
   33.1340   24.7300   46.7210 H   0  0  0  0  0  0  0  0  0  0  0  0
   34.8940   26.3850   47.3190 H   0  0  0  0  0  0  0  0  0  0  0  0
   34.4150   29.9620   46.6110 C   0  0  0  0  0  0  0  0  0  0  0  0
   35.1560   29.7920   45.3700 C   0  0  0  0  0  0  0  0  0  0  0  0
   36.1720   29.4560   45.4290 H   0  0  0  0  0  0  0  0  0  0  0  0
   34.4990   30.0780   44.2170 C   0  0  0  0  0  3  0  0  0  0  0  0
   33.1220   30.5290   44.2390 C   0  0  0  0  0  3  0  0  0  0  0  0
   32.7310   30.5500   46.0330 S   0  0  0  0  0  0  0  0  0  0  0  0
  1  6  1  0  0  0  0
  2  1  2  0  0  0  0
  2  3  1  0  0  0  0
  3  4  2  0  0  0  0
  4  5  1  0  0  0  0
  5  8  1  0  0  0  0
  6  5  2  0  0  0  0
  7  1  1  0  0  0  0
  9  3  1  0  0  0  0
  9 10  1  0  0  0  0
 10 15  1  0  0  0  0
 11 16  1  0  0  0  0
 11 10  2  0  0  0  0
 12 11  1  0  0  0  0
 13 14  1  0  0  0  0
 13 12  2  0  0  0  0
 14  9  2  0  0  0  0
 17 12  1  0  0  0  0
 18 13  1  0  0  0  0
 19 14  1  0  0  0  0
 20  2  1  0  0  0  0
 21 22  1  0  0  0  0
 21 20  2  0  0  0  0
 23 24  2  0  0  0  0
 23 21  1  0  0  0  0
 24 25  1  0  0  0  0
 25 20  1  0  0  0  0
M  END
>  <minimizedAffinity>
-4.49325466

>  <minimizedRMSD>
7.36539984

$$$$
