
 OpenBabel03272506183D

 31 33  0  0  0  0  0  0  0  0999 V2000
   35.4770   30.3000   49.8880 C   0  0  0  0  0  0  0  0  0  0  0  0
   36.4450   31.2050   49.1620 C   0  0  0  0  0  0  0  0  0  0  0  0
   37.8750   30.7930   49.3460 C   0  0  0  0  0  0  0  0  0  0  0  0
   38.2860   30.6420   50.7830 C   0  0  0  0  0  0  0  0  0  0  0  0
   37.2360   29.9970   51.6370 C   0  0  0  0  0  0  0  0  0  0  0  0
   36.1410   29.3430   50.8190 C   0  0  0  0  0  0  0  0  0  0  0  0
   34.7420   30.9130   50.4450 H   0  0  0  0  0  0  0  0  0  0  0  0
   36.2450   31.2480   48.0850 H   0  0  0  0  0  0  0  0  0  0  0  0
   36.3660   32.2330   49.6110 H   0  0  0  0  0  0  0  0  0  0  0  0
   38.5060   31.5700   48.8890 H   0  0  0  0  0  0  0  0  0  0  0  0
   38.0320   29.8410   48.7960 H   0  0  0  0  0  0  0  0  0  0  0  0
   39.1830   29.9620   50.7930 H   0  0  0  0  0  0  0  0  0  0  0  0
   38.6520   31.5800   51.2360 H   0  0  0  0  0  0  0  0  0  0  0  0
   37.6580   29.2000   52.2800 H   0  0  0  0  0  0  0  0  0  0  0  0
   36.8170   30.7670   52.2900 H   0  0  0  0  0  0  0  0  0  0  0  0
   36.6550   28.5720   50.1940 H   0  0  0  0  0  0  0  0  0  0  0  0
   35.4360   28.8940   51.5140 H   0  0  0  0  0  0  0  0  0  0  0  0
   34.6940   29.4960   48.8990 C   0  0  0  0  0  0  0  0  0  0  0  0
   34.3570   30.1600   47.7040 C   0  0  0  0  0  0  0  0  0  0  0  0
   33.6070   29.4100   46.7760 C   0  0  0  0  0  0  0  0  0  0  0  0
   33.2530   28.1270   47.0600 N   0  0  0  0  0  0  0  0  0  0  0  0
   33.6090   27.5390   48.2320 C   0  0  0  0  0  0  0  0  0  0  0  0
   34.3170   28.2160   49.1350 N   0  0  0  0  0  0  0  0  0  0  0  0
   34.6030   31.1550   47.4290 H   0  0  0  0  0  0  0  0  0  0  0  0
   33.3310   26.5370   48.4510 H   0  0  0  0  0  0  0  0  0  0  0  0
   33.2120   29.9740   45.5430 C   0  0  0  0  0  0  0  0  0  0  0  0
   33.7060   29.7490   44.2760 C   0  0  0  0  0  0  0  0  0  0  0  0
   34.5190   29.0450   44.1530 H   0  0  0  0  0  0  0  0  0  0  0  0
   33.1650   30.4140   43.2150 C   0  0  0  0  0  3  0  0  0  0  0  0
   32.1040   31.3100   43.5100 C   0  0  0  0  0  3  0  0  0  0  0  0
   31.9220   31.1650   45.3160 S   0  0  0  0  0  0  0  0  0  0  0  0
  1  7  1  0  0  0  0
  1  6  1  0  0  0  0
  2  3  1  0  0  0  0
  2  9  1  0  0  0  0
  2  1  1  0  0  0  0
  3  4  1  0  0  0  0
  4 12  1  0  0  0  0
  4 13  1  0  0  0  0
  4  5  1  0  0  0  0
  5 14  1  0  0  0  0
  5 15  1  0  0  0  0
  6 17  1  0  0  0  0
  6  5  1  0  0  0  0
  8  2  1  0  0  0  0
 10  3  1  0  0  0  0
 11  3  1  0  0  0  0
 16  6  1  0  0  0  0
 18 23  1  0  0  0  0
 18  1  1  0  0  0  0
 19 18  2  0  0  0  0
 20 21  2  0  0  0  0
 20 19  1  0  0  0  0
 21 22  1  0  0  0  0
 22 25  1  0  0  0  0
 22 23  2  0  0  0  0
 24 19  1  0  0  0  0
 26 20  1  0  0  0  0
 27 26  2  0  0  0  0
 28 27  1  0  0  0  0
 29 30  2  0  0  0  0
 29 27  1  0  0  0  0
 30 31  1  0  0  0  0
 31 26  1  0  0  0  0
M  END
>  <minimizedAffinity>
-5.14816475

>  <minimizedRMSD>
0.369200855

$$$$
