
 OpenBabel03272506183D

 31 33  0  0  0  0  0  0  0  0999 V2000
   35.5330   30.2920   49.8320 C   0  0  0  0  0  0  0  0  0  0  0  0
   36.4520   31.2270   49.0810 C   0  0  0  0  0  0  0  0  0  0  0  0
   37.9000   30.8720   49.2430 C   0  0  0  0  0  0  0  0  0  0  0  0
   38.3420   30.7510   50.6740 C   0  0  0  0  0  0  0  0  0  0  0  0
   37.3330   30.0740   51.5520 C   0  0  0  0  0  0  0  0  0  0  0  0
   36.2500   29.3700   50.7590 C   0  0  0  0  0  0  0  0  0  0  0  0
   34.7840   30.8810   50.3970 H   0  0  0  0  0  0  0  0  0  0  0  0
   36.2310   31.2530   48.0070 H   0  0  0  0  0  0  0  0  0  0  0  0
   36.3410   32.2560   49.5230 H   0  0  0  0  0  0  0  0  0  0  0  0
   38.4920   31.6690   48.7680 H   0  0  0  0  0  0  0  0  0  0  0  0
   38.0840   29.9220   48.6980 H   0  0  0  0  0  0  0  0  0  0  0  0
   39.2640   30.1060   50.6730 H   0  0  0  0  0  0  0  0  0  0  0  0
   38.6790   31.7070   51.1110 H   0  0  0  0  0  0  0  0  0  0  0  0
   37.7970   29.3000   52.1940 H   0  0  0  0  0  0  0  0  0  0  0  0
   36.8960   30.8330   52.2050 H   0  0  0  0  0  0  0  0  0  0  0  0
   36.7820   28.6140   50.1320 H   0  0  0  0  0  0  0  0  0  0  0  0
   35.5750   28.9010   51.4710 H   0  0  0  0  0  0  0  0  0  0  0  0
   34.7640   29.4490   48.8650 C   0  0  0  0  0  0  0  0  0  0  0  0
   34.2250   30.1310   47.7570 C   0  0  0  0  0  0  0  0  0  0  0  0
   33.4880   29.3420   46.8500 C   0  0  0  0  0  0  0  0  0  0  0  0
   33.3340   28.0090   47.0730 N   0  0  0  0  0  0  0  0  0  0  0  0
   33.8790   27.4060   48.1620 C   0  0  0  0  0  0  0  0  0  0  0  0
   34.5810   28.1180   49.0410 N   0  0  0  0  0  0  0  0  0  0  0  0
   34.3110   31.1640   47.5320 H   0  0  0  0  0  0  0  0  0  0  0  0
   33.7560   26.3640   48.3320 H   0  0  0  0  0  0  0  0  0  0  0  0
   32.9010   29.9200   45.7030 C   0  0  0  0  0  0  0  0  0  0  0  0
   32.1490   31.0690   45.5840 C   0  0  0  0  0  0  0  0  0  0  0  0
   31.9510   31.6530   46.4720 H   0  0  0  0  0  0  0  0  0  0  0  0
   31.6780   31.4410   44.3580 C   0  0  0  0  0  3  0  0  0  0  0  0
   32.0090   30.5880   43.2730 C   0  0  0  0  0  3  0  0  0  0  0  0
   32.9940   29.2720   44.0570 S   0  0  0  0  0  0  0  0  0  0  0  0
  1  7  1  0  0  0  0
  1  6  1  0  0  0  0
  2  3  1  0  0  0  0
  2  9  1  0  0  0  0
  2  1  1  0  0  0  0
  3  4  1  0  0  0  0
  4 13  1  0  0  0  0
  4  5  1  0  0  0  0
  5 14  1  0  0  0  0
  5 15  1  0  0  0  0
  6 17  1  0  0  0  0
  6  5  1  0  0  0  0
  8  2  1  0  0  0  0
 10  3  1  0  0  0  0
 11  3  1  0  0  0  0
 12  4  1  0  0  0  0
 16  6  1  0  0  0  0
 18 23  1  0  0  0  0
 18  1  1  0  0  0  0
 19 18  2  0  0  0  0
 20 21  2  0  0  0  0
 20 19  1  0  0  0  0
 21 22  1  0  0  0  0
 22 25  1  0  0  0  0
 22 23  2  0  0  0  0
 24 19  1  0  0  0  0
 26 20  1  0  0  0  0
 27 26  2  0  0  0  0
 27 28  1  0  0  0  0
 29 27  1  0  0  0  0
 30 31  1  0  0  0  0
 30 29  2  0  0  0  0
 31 26  1  0  0  0  0
M  END
>  <minimizedAffinity>
-5.17840528

>  <minimizedRMSD>
0.146740243

$$$$
