
 OpenBabel03272505553D

 31 33  0  0  1  0  0  0  0  0999 V2000
   35.3120   30.3120   49.9600 C   0  0  2  0  0  0  0  0  0  0  0  0
   36.2520   31.2110   49.1940 C   0  0  0  0  0  0  0  0  0  0  0  0
   37.6860   30.8020   49.2730 C   0  0  2  0  0  0  0  0  0  0  0  0
   38.1670   30.5960   50.6920 C   0  0  0  0  0  0  0  0  0  0  0  0
   37.1680   29.9450   51.5910 C   0  0  0  0  0  0  0  0  0  0  0  0
   36.0270   29.3260   50.8150 C   0  0  0  0  0  0  0  0  0  0  0  0
   34.6320   30.9780   50.5220 H   0  0  0  0  0  0  0  0  0  0  0  0
   36.1730   32.2640   49.5260 H   0  0  0  0  0  0  0  0  0  0  0  0
   36.0000   31.2310   48.0990 H   0  0  0  0  0  0  0  0  0  0  0  0
   37.9480   29.9710   48.6160 H   0  0  0  0  0  0  0  0  0  0  0  0
   39.0180   29.8590   50.5990 H   0  0  0  0  0  0  0  0  0  0  0  0
   38.5830   31.4870   51.1670 H   0  0  0  0  0  0  0  0  0  0  0  0
   36.7630   30.6750   52.3250 H   0  0  0  0  0  0  0  0  0  0  0  0
   37.6070   29.1250   52.2140 H   0  0  0  0  0  0  0  0  0  0  0  0
   35.2840   29.0200   51.6120 H   0  0  0  0  0  0  0  0  0  0  0  0
   36.3420   28.4300   50.2780 H   0  0  0  0  0  0  0  0  0  0  0  0
   34.4580   29.5510   48.9950 C   0  0  0  0  0  0  0  0  0  0  0  0
   34.3410   30.0820   47.7000 C   0  0  0  0  0  0  0  0  0  0  0  0
   33.5360   29.3840   46.8050 C   0  0  0  0  0  0  0  0  0  0  0  0
   32.8990   28.2290   47.2120 N   0  0  0  0  0  0  0  0  0  0  0  0
   33.0440   27.7510   48.4840 C   0  0  0  0  0  0  0  0  0  0  0  0
   33.8160   28.4140   49.3550 N   0  0  0  0  0  0  0  0  0  0  0  0
   34.8060   30.9630   47.3360 H   0  0  0  0  0  0  0  0  0  0  0  0
   33.3650   29.6760   45.8010 H   0  0  0  0  0  0  0  0  0  0  0  0
   32.5450   26.8500   48.7940 H   0  0  0  0  0  0  0  0  0  0  0  0
   38.4620   32.0410   48.8150 C   0  0  0  0  0  0  0  0  0  0  0  0
   38.7500   33.1310   49.5420 C   0  0  0  0  0  0  0  0  0  0  0  0
   38.4260   33.2050   50.5730 H   0  0  0  0  0  0  0  0  0  0  0  0
   39.4610   34.1270   48.9250 C   0  0  0  0  0  0  0  0  0  0  0  0
   39.8370   33.9670   47.6200 C   0  0  0  0  0  0  0  0  0  0  0  0
   39.1160   32.2520   47.2430 S   0  0  0  0  0  0  0  0  0  0  0  0
  1  7  1  1  0  0  0
  1  6  1  0  0  0  0
  2  3  1  0  0  0  0
  2  8  1  0  0  0  0
  2  1  1  0  0  0  0
  3 10  1  6  0  0  0
  3  4  1  0  0  0  0
  4 12  1  0  0  0  0
  4  5  1  0  0  0  0
  5 14  1  0  0  0  0
  5 13  1  0  0  0  0
  6  5  1  0  0  0  0
  6 15  1  0  0  0  0
  9  2  1  0  0  0  0
 11  4  1  0  0  0  0
 16  6  1  0  0  0  0
 17 22  1  0  0  0  0
 17  1  1  0  0  0  0
 18 17  2  0  0  0  0
 19 20  2  0  0  0  0
 19 18  1  0  0  0  0
 20 21  1  0  0  0  0
 21 25  1  0  0  0  0
 21 22  2  0  0  0  0
 23 18  1  0  0  0  0
 24 19  1  0  0  0  0
 26  3  1  0  0  0  0
 26 27  2  0  0  0  0
 27 28  1  0  0  0  0
 29 27  1  0  0  0  0
 30 29  2  0  0  0  0
 31 30  1  0  0  0  0
 31 26  1  0  0  0  0
M  END
>  <minimizedAffinity>
-6.25425148

>  <minimizedRMSD>
0.746911049

$$$$
