
 OpenBabel03272506303D

 31 33  0  0  1  0  0  0  0  0999 V2000
   33.6170   29.0970   48.5010 C   0  0  1  0  0  0  0  0  0  0  0  0
   33.4770   29.5470   47.1190 C   0  0  0  0  0  0  0  0  0  0  0  0
   34.0000   28.6530   46.0480 C   0  0  0  0  0  0  0  0  0  0  0  0
   33.9080   27.1980   46.2870 C   0  0  0  0  0  0  0  0  0  0  0  0
   34.0260   26.7400   47.6850 C   0  0  0  0  0  0  0  0  0  0  0  0
   33.3740   27.6250   48.6830 C   0  0  2  0  0  0  0  0  0  0  0  0
   32.8000   29.5830   49.1240 H   0  0  0  0  0  0  0  0  0  0  0  0
   33.8090   30.5570   46.8800 H   0  0  0  0  0  0  0  0  0  0  0  0
   32.3580   29.5940   46.9200 H   0  0  0  0  0  0  0  0  0  0  0  0
   35.0740   28.9510   45.8850 H   0  0  0  0  0  0  0  0  0  0  0  0
   33.4910   28.9020   45.0920 H   0  0  0  0  0  0  0  0  0  0  0  0
   32.9810   26.8040   45.8270 H   0  0  0  0  0  0  0  0  0  0  0  0
   34.7620   26.7240   45.7130 H   0  0  0  0  0  0  0  0  0  0  0  0
   33.5220   25.7400   47.7630 H   0  0  0  0  0  0  0  0  0  0  0  0
   35.1140   26.6190   47.9390 H   0  0  0  0  0  0  0  0  0  0  0  0
   33.4890   27.2780   49.7040 H   0  0  0  0  0  0  0  0  0  0  0  0
   35.7300   30.5000   48.6450 C   0  0  0  0  0  0  0  0  0  0  0  0
   34.8400   29.5520   49.2060 C   0  0  0  0  0  0  0  0  0  0  0  0
   35.1830   29.0840   50.4600 C   0  0  0  0  0  0  0  0  0  0  0  0
   36.3100   29.5290   51.0780 N   0  0  0  0  0  0  0  0  0  0  0  0
   37.1250   30.4360   50.4980 C   0  0  0  0  0  0  0  0  0  0  0  0
   36.8230   30.9170   49.2750 N   0  0  0  0  0  0  0  0  0  0  0  0
   35.5820   30.9460   47.6770 H   0  0  0  0  0  0  0  0  0  0  0  0
   34.6300   28.3680   51.0410 H   0  0  0  0  0  0  0  0  0  0  0  0
   38.0000   30.7400   51.0540 H   0  0  0  0  0  0  0  0  0  0  0  0
   31.8550   27.4290   48.4450 C   0  0  0  0  0  0  0  0  0  0  0  0
   30.9360   27.9220   49.2050 C   0  0  0  0  0  0  0  0  0  0  0  0
   31.0210   28.5490   50.1150 H   0  0  0  0  0  0  0  0  0  0  0  0
   29.5970   27.7290   48.9820 C   0  0  0  0  0  3  0  0  0  0  0  0
   29.2830   26.9830   47.9070 C   0  0  0  0  0  3  0  0  0  0  0  0
   30.9810   26.5600   47.2160 S   0  0  0  0  0  0  0  0  0  0  0  0
  1  6  1  0  0  0  0
  1  7  1  1  0  0  0
  1 18  1  0  0  0  0
  2  1  1  0  0  0  0
  3  4  1  0  0  0  0
  3  2  1  0  0  0  0
  4  5  1  0  0  0  0
  5 14  1  0  0  0  0
  5 15  1  0  0  0  0
  5  6  1  0  0  0  0
  6 16  1  1  0  0  0
  8  2  1  0  0  0  0
  9  2  1  0  0  0  0
 10  3  1  0  0  0  0
 11  3  1  0  0  0  0
 12  4  1  0  0  0  0
 13  4  1  0  0  0  0
 17 18  2  0  0  0  0
 17 22  1  0  0  0  0
 18 19  1  0  0  0  0
 19 24  1  0  0  0  0
 19 20  2  0  0  0  0
 21 25  1  0  0  0  0
 21 20  1  0  0  0  0
 22 21  2  0  0  0  0
 23 17  1  0  0  0  0
 26  6  1  0  0  0  0
 26 27  2  0  0  0  0
 27 28  1  0  0  0  0
 29 27  1  0  0  0  0
 30 29  2  0  0  0  0
 31 30  1  0  0  0  0
 31 26  1  0  0  0  0
M  END
>  <minimizedAffinity>
-4.50470686

>  <minimizedRMSD>
1.75263834

$$$$
