
 OpenBabel03272506183D

 31 33  0  0  0  0  0  0  0  0999 V2000
   35.5330   30.2920   49.8320 C   0  0  0  0  0  0  0  0  0  0  0  0
   36.4520   31.2270   49.0800 C   0  0  0  0  0  0  0  0  0  0  0  0
   37.9000   30.8720   49.2430 C   0  0  0  0  0  0  0  0  0  0  0  0
   38.3410   30.7510   50.6740 C   0  0  0  0  0  0  0  0  0  0  0  0
   37.3330   30.0750   51.5520 C   0  0  0  0  0  0  0  0  0  0  0  0
   36.2490   29.3710   50.7590 C   0  0  0  0  0  0  0  0  0  0  0  0
   34.7840   30.8820   50.3960 H   0  0  0  0  0  0  0  0  0  0  0  0
   36.2310   31.2520   48.0070 H   0  0  0  0  0  0  0  0  0  0  0  0
   36.3410   32.2560   49.5220 H   0  0  0  0  0  0  0  0  0  0  0  0
   38.4930   31.6680   48.7680 H   0  0  0  0  0  0  0  0  0  0  0  0
   38.0840   29.9220   48.6990 H   0  0  0  0  0  0  0  0  0  0  0  0
   39.2640   30.1060   50.6740 H   0  0  0  0  0  0  0  0  0  0  0  0
   38.6790   31.7070   51.1110 H   0  0  0  0  0  0  0  0  0  0  0  0
   37.7960   29.3000   52.1950 H   0  0  0  0  0  0  0  0  0  0  0  0
   36.8960   30.8340   52.2050 H   0  0  0  0  0  0  0  0  0  0  0  0
   36.7810   28.6140   50.1330 H   0  0  0  0  0  0  0  0  0  0  0  0
   35.5740   28.9020   51.4720 H   0  0  0  0  0  0  0  0  0  0  0  0
   34.7640   29.4500   48.8650 C   0  0  0  0  0  0  0  0  0  0  0  0
   34.2250   30.1310   47.7570 C   0  0  0  0  0  0  0  0  0  0  0  0
   33.4880   29.3420   46.8510 C   0  0  0  0  0  0  0  0  0  0  0  0
   33.3340   28.0090   47.0730 N   0  0  0  0  0  0  0  0  0  0  0  0
   33.8790   27.4060   48.1620 C   0  0  0  0  0  0  0  0  0  0  0  0
   34.5810   28.1180   49.0420 N   0  0  0  0  0  0  0  0  0  0  0  0
   34.3110   31.1650   47.5320 H   0  0  0  0  0  0  0  0  0  0  0  0
   33.7560   26.3640   48.3330 H   0  0  0  0  0  0  0  0  0  0  0  0
   32.9010   29.9190   45.7030 C   0  0  0  0  0  0  0  0  0  0  0  0
   32.1500   31.0690   45.5830 C   0  0  0  0  0  0  0  0  0  0  0  0
   31.9530   31.6550   46.4720 H   0  0  0  0  0  0  0  0  0  0  0  0
   31.6790   31.4410   44.3590 C   0  0  0  0  0  3  0  0  0  0  0  0
   32.0080   30.5870   43.2740 C   0  0  0  0  0  3  0  0  0  0  0  0
   32.9920   29.2710   44.0590 S   0  0  0  0  0  0  0  0  0  0  0  0
  1  7  1  0  0  0  0
  1  6  1  0  0  0  0
  2  3  1  0  0  0  0
  2  9  1  0  0  0  0
  2  1  1  0  0  0  0
  3  4  1  0  0  0  0
  4 13  1  0  0  0  0
  4  5  1  0  0  0  0
  5 14  1  0  0  0  0
  5 15  1  0  0  0  0
  6 17  1  0  0  0  0
  6  5  1  0  0  0  0
  8  2  1  0  0  0  0
 10  3  1  0  0  0  0
 11  3  1  0  0  0  0
 12  4  1  0  0  0  0
 16  6  1  0  0  0  0
 18 23  1  0  0  0  0
 18  1  1  0  0  0  0
 19 18  2  0  0  0  0
 20 21  2  0  0  0  0
 20 19  1  0  0  0  0
 21 22  1  0  0  0  0
 22 25  1  0  0  0  0
 22 23  2  0  0  0  0
 24 19  1  0  0  0  0
 26 20  1  0  0  0  0
 27 26  2  0  0  0  0
 27 28  1  0  0  0  0
 29 27  1  0  0  0  0
 30 31  1  0  0  0  0
 30 29  2  0  0  0  0
 31 26  1  0  0  0  0
M  END
>  <minimizedAffinity>
-5.1784153

>  <minimizedRMSD>
0.178643614

$$$$
