
 OpenBabel03272506183D

 31 33  0  0  0  0  0  0  0  0999 V2000
   35.5360   30.3010   49.8050 C   0  0  0  0  0  0  0  0  0  0  0  0
   36.4640   31.2250   49.0490 C   0  0  0  0  0  0  0  0  0  0  0  0
   37.9090   30.8650   49.2250 C   0  0  0  0  0  0  0  0  0  0  0  0
   38.3410   30.7570   50.6590 C   0  0  0  0  0  0  0  0  0  0  0  0
   37.3240   30.0930   51.5380 C   0  0  0  0  0  0  0  0  0  0  0  0
   36.2420   29.3860   50.7450 C   0  0  0  0  0  0  0  0  0  0  0  0
   34.7860   30.9000   50.3580 H   0  0  0  0  0  0  0  0  0  0  0  0
   36.2500   31.2400   47.9740 H   0  0  0  0  0  0  0  0  0  0  0  0
   36.3540   32.2580   49.4800 H   0  0  0  0  0  0  0  0  0  0  0  0
   38.5080   31.6540   48.7460 H   0  0  0  0  0  0  0  0  0  0  0  0
   38.0920   29.9090   48.6910 H   0  0  0  0  0  0  0  0  0  0  0  0
   39.2610   30.1080   50.6720 H   0  0  0  0  0  0  0  0  0  0  0  0
   38.6800   31.7160   51.0890 H   0  0  0  0  0  0  0  0  0  0  0  0
   37.7800   29.3240   52.1910 H   0  0  0  0  0  0  0  0  0  0  0  0
   36.8860   30.8610   52.1800 H   0  0  0  0  0  0  0  0  0  0  0  0
   36.7750   28.6210   50.1300 H   0  0  0  0  0  0  0  0  0  0  0  0
   35.5610   28.9270   51.4580 H   0  0  0  0  0  0  0  0  0  0  0  0
   34.7700   29.4520   48.8410 C   0  0  0  0  0  0  0  0  0  0  0  0
   34.2540   30.1220   47.7150 C   0  0  0  0  0  0  0  0  0  0  0  0
   33.5190   29.3270   46.8110 C   0  0  0  0  0  0  0  0  0  0  0  0
   33.3460   27.9990   47.0540 N   0  0  0  0  0  0  0  0  0  0  0  0
   33.8690   27.4080   48.1590 C   0  0  0  0  0  0  0  0  0  0  0  0
   34.5690   28.1260   49.0370 N   0  0  0  0  0  0  0  0  0  0  0  0
   34.3550   31.1500   47.4740 H   0  0  0  0  0  0  0  0  0  0  0  0
   33.7310   26.3700   48.3450 H   0  0  0  0  0  0  0  0  0  0  0  0
   32.9550   29.8920   45.6470 C   0  0  0  0  0  0  0  0  0  0  0  0
   33.5560   30.2240   44.4510 C   0  0  0  0  0  0  0  0  0  0  0  0
   34.6170   30.0460   44.3370 H   0  0  0  0  0  0  0  0  0  0  0  0
   32.8050   30.7650   43.4490 C   0  0  0  0  0  3  0  0  0  0  0  0
   31.4250   30.9480   43.7260 C   0  0  0  0  0  3  0  0  0  0  0  0
   31.2540   30.3300   45.4300 S   0  0  0  0  0  0  0  0  0  0  0  0
  1  7  1  0  0  0  0
  1  6  1  0  0  0  0
  2  3  1  0  0  0  0
  2  9  1  0  0  0  0
  2  1  1  0  0  0  0
  3  4  1  0  0  0  0
  4 12  1  0  0  0  0
  4 13  1  0  0  0  0
  4  5  1  0  0  0  0
  5 15  1  0  0  0  0
  5 14  1  0  0  0  0
  6 17  1  0  0  0  0
  6  5  1  0  0  0  0
  8  2  1  0  0  0  0
 10  3  1  0  0  0  0
 11  3  1  0  0  0  0
 16  6  1  0  0  0  0
 18 23  1  0  0  0  0
 18  1  1  0  0  0  0
 19 18  2  0  0  0  0
 20 21  2  0  0  0  0
 20 19  1  0  0  0  0
 21 22  1  0  0  0  0
 22 25  1  0  0  0  0
 22 23  2  0  0  0  0
 24 19  1  0  0  0  0
 26 20  1  0  0  0  0
 27 26  2  0  0  0  0
 28 27  1  0  0  0  0
 29 30  2  0  0  0  0
 29 27  1  0  0  0  0
 30 31  1  0  0  0  0
 31 26  1  0  0  0  0
M  END
>  <minimizedAffinity>
-5.13511562

>  <minimizedRMSD>
0.15041317

$$$$
