
 OpenBabel03262521003D

 32 34  0  0  1  0  0  0  0  0999 V2000
   39.8450   33.0260   45.9420 N   0  0  0  0  0  0  0  0  0  0  0  0
   38.5400   32.4610   45.9890 C   0  0  1  0  0  0  0  0  0  0  0  0
   38.0080   32.1980   44.6050 C   0  0  0  0  0  0  0  0  0  0  0  0
   38.9470   31.2770   43.9600 N   0  0  0  0  0  0  0  0  0  0  0  0
   40.1760   32.0720   43.7530 C   0  0  0  0  0  0  0  0  0  0  0  0
   40.7620   32.2870   45.1330 C   0  0  2  0  0  0  0  0  0  0  0  0
   39.8920   34.0420   45.9000 H   0  0  0  0  0  0  0  0  0  0  0  0
   37.8600   33.1810   46.5020 H   0  0  0  0  0  0  0  0  0  0  0  0
   37.0270   31.7030   44.7170 H   0  0  0  0  0  0  0  0  0  0  0  0
   37.9030   33.1100   43.9930 H   0  0  0  0  0  0  0  0  0  0  0  0
   38.5510   30.9550   43.0500 H   0  0  0  0  0  0  0  0  0  0  0  0
   39.9350   33.0210   43.2550 H   0  0  0  0  0  0  0  0  0  0  0  0
   40.8330   31.4240   43.1480 H   0  0  0  0  0  0  0  0  0  0  0  0
   41.6650   32.9040   44.9960 H   0  0  0  0  0  0  0  0  0  0  0  0
   41.1200   31.0180   45.7080 N   0  0  0  0  0  0  0  0  0  0  0  0
   40.7890   30.2130   45.1300 H   0  0  0  0  0  0  0  0  0  0  0  0
   42.1450   30.9420   45.7910 H   0  0  0  0  0  0  0  0  0  0  0  0
   38.5390   30.8290   46.8440 S   0  0  0  0  0  0  0  0  0  0  0  0
   36.0510   31.2770   50.0330 C   0  0  0  0  0  0  0  0  0  0  0  0
   37.1690   31.3880   49.2200 C   0  0  0  0  0  0  0  0  0  0  0  0
   37.1790   30.7740   47.9980 C   0  0  0  0  0  0  0  0  0  0  0  0
   36.0580   30.0710   47.6470 N   0  0  0  0  0  0  0  0  0  0  0  0
   35.0050   29.9780   48.4350 C   0  0  0  0  0  0  0  0  0  0  0  0
   34.9890   30.5780   49.6330 N   0  0  0  0  0  0  0  0  0  0  0  0
   36.1280   31.7990   50.9930 H   0  0  0  0  0  0  0  0  0  0  0  0
   38.0640   31.9290   49.4600 H   0  0  0  0  0  0  0  0  0  0  0  0
   33.8020   29.1990   48.0100 C   0  0  0  0  0  0  0  0  0  0  0  0
   33.2510   28.2090   48.8960 C   0  0  0  0  0  0  0  0  0  0  0  0
   33.6500   27.9800   49.8720 H   0  0  0  0  0  0  0  0  0  0  0  0
   32.1610   27.5300   48.4640 C   0  0  0  0  0  0  0  0  0  0  0  0
   31.5920   27.8030   47.1670 C   0  0  0  0  0  0  0  0  0  0  0  0
   32.7510   29.1460   46.5650 S   0  0  0  0  0  0  0  0  0  0  0  0
  1  2  1  0  0  0  0
  2  8  1  1  0  0  0
  2 18  1  0  0  0  0
  3  9  1  0  0  0  0
  3  2  1  0  0  0  0
  4  3  1  0  0  0  0
  5  4  1  0  0  0  0
  5  6  1  0  0  0  0
  6 14  1  6  0  0  0
  6 15  1  0  0  0  0
  6  1  1  0  0  0  0
  7  1  1  0  0  0  0
 10  3  1  0  0  0  0
 11  4  1  0  0  0  0
 12  5  1  0  0  0  0
 13  5  1  0  0  0  0
 15 17  1  0  0  0  0
 16 15  1  0  0  0  0
 18 21  1  0  0  0  0
 19 25  1  0  0  0  0
 20 26  1  0  0  0  0
 20 19  2  0  0  0  0
 21 20  1  0  0  0  0
 22 21  2  0  0  0  0
 22 23  1  0  0  0  0
 23 24  2  0  0  0  0
 24 19  1  0  0  0  0
 27 23  1  0  0  0  0
 27 28  2  0  0  0  0
 28 29  1  0  0  0  0
 30 28  1  0  0  0  0
 31 30  2  0  0  0  0
 32 31  1  0  0  0  0
 32 27  1  0  0  0  0
M  END
>  <minimizedAffinity>
-5.47894812

>  <minimizedRMSD>
2.01446366

$$$$
