
 OpenBabel03262522323D

 24 26  0  0  0  0  0  0  0  0999 V2000
   37.9240   31.8670   49.1270 C   0  0  0  0  0  0  0  0  0  0  0  0
   38.4200   33.0430   49.6730 C   0  0  0  0  0  0  0  0  0  0  0  0
   39.2500   33.9210   49.0140 C   0  0  0  0  0  0  0  0  0  0  0  0
   39.6430   33.6460   47.7110 C   0  0  0  0  0  0  0  0  0  0  0  0
   39.1360   32.4840   47.2100 C   0  0  0  0  0  0  0  0  0  0  0  0
   38.3320   31.6350   47.8500 N   0  0  0  0  0  0  0  0  0  0  0  0
   38.1310   33.2870   50.6900 H   0  0  0  0  0  0  0  0  0  0  0  0
   39.5910   34.8210   49.5230 H   0  0  0  0  0  0  0  0  0  0  0  0
   40.2900   34.3220   47.1880 H   0  0  0  0  0  0  0  0  0  0  0  0
   37.3770   30.3320   51.0380 C   0  0  0  0  0  0  0  0  0  0  0  0
   37.0520   30.9670   49.8440 C   0  0  0  0  0  0  0  0  0  0  0  0
   35.7910   30.7250   49.2870 C   0  0  0  0  0  0  0  0  0  0  0  0
   34.9500   29.8740   49.9550 N   0  0  0  0  0  0  0  0  0  0  0  0
   35.3160   29.2790   51.1180 C   0  0  0  0  0  0  0  0  0  0  0  0
   36.5310   29.5020   51.6710 N   0  0  0  0  0  0  0  0  0  0  0  0
   38.3500   30.5410   51.4330 H   0  0  0  0  0  0  0  0  0  0  0  0
   35.4090   31.1460   48.3720 H   0  0  0  0  0  0  0  0  0  0  0  0
   34.6290   28.6140   51.6190 H   0  0  0  0  0  0  0  0  0  0  0  0
   39.5110   32.1350   45.8410 C   0  0  0  0  0  0  0  0  0  0  0  0
   40.5910   31.2750   45.4130 C   0  0  0  0  0  0  0  0  0  0  0  0
   41.2220   30.8120   46.1510 H   0  0  0  0  0  0  0  0  0  0  0  0
   40.7120   31.1250   44.0680 C   0  0  0  0  0  0  0  0  0  0  0  0
   39.8610   31.7530   43.1620 C   0  0  0  0  0  0  0  0  0  0  0  0
   38.7230   32.6900   44.3660 S   0  0  0  0  0  0  0  0  0  0  0  0
  1  2  1  0  0  0  0
  1 11  1  0  0  0  0
  2  7  1  0  0  0  0
  3  8  1  0  0  0  0
  3  2  2  0  0  0  0
  4  3  1  0  0  0  0
  5  4  2  0  0  0  0
  5  6  1  0  0  0  0
  6  1  2  0  0  0  0
  9  4  1  0  0  0  0
 10 16  1  0  0  0  0
 10 15  1  0  0  0  0
 11 10  2  0  0  0  0
 12 11  1  0  0  0  0
 12 13  2  0  0  0  0
 13 14  1  0  0  0  0
 14 18  1  0  0  0  0
 14 15  2  0  0  0  0
 17 12  1  0  0  0  0
 19  5  1  0  0  0  0
 20 19  2  0  0  0  0
 20 21  1  0  0  0  0
 22 20  1  0  0  0  0
 23 22  2  0  0  0  0
 23 24  1  0  0  0  0
 24 19  1  0  0  0  0
M  END
>  <minimizedAffinity>
-6.00013924

>  <minimizedRMSD>
0.410933942

$$$$
