
 OpenBabel03272506313D

 31 33  0  0  1  0  0  0  0  0999 V2000
   38.2210   24.9670   33.9270 C   0  0  1  0  0  0  0  0  0  0  0  0
   39.5500   25.5410   33.7440 C   0  0  0  0  0  0  0  0  0  0  0  0
   39.8220   26.8630   34.3750 C   0  0  0  0  0  0  0  0  0  0  0  0
   39.1470   27.1420   35.6600 C   0  0  0  0  0  0  0  0  0  0  0  0
   37.8130   26.5460   35.8590 C   0  0  0  0  0  0  0  0  0  0  0  0
   37.6590   25.1760   35.3050 C   0  0  2  0  0  0  0  0  0  0  0  0
   38.2990   23.8370   33.8380 H   0  0  0  0  0  0  0  0  0  0  0  0
   39.9470   25.5860   32.7300 H   0  0  0  0  0  0  0  0  0  0  0  0
   40.2690   24.8320   34.2660 H   0  0  0  0  0  0  0  0  0  0  0  0
   39.5390   27.6410   33.6120 H   0  0  0  0  0  0  0  0  0  0  0  0
   40.9200   26.9820   34.5020 H   0  0  0  0  0  0  0  0  0  0  0  0
   39.8200   26.8770   36.4980 H   0  0  0  0  0  0  0  0  0  0  0  0
   39.0160   28.2660   35.7160 H   0  0  0  0  0  0  0  0  0  0  0  0
   37.6320   26.4690   36.9640 H   0  0  0  0  0  0  0  0  0  0  0  0
   37.0380   27.2250   35.4110 H   0  0  0  0  0  0  0  0  0  0  0  0
   36.6650   24.7660   35.4480 H   0  0  0  0  0  0  0  0  0  0  0  0
   36.8120   26.6050   32.5890 C   0  0  0  0  0  0  0  0  0  0  0  0
   37.2320   25.2810   32.8670 C   0  0  0  0  0  0  0  0  0  0  0  0
   36.6630   24.2990   32.0790 C   0  0  0  0  0  0  0  0  0  0  0  0
   35.7640   24.6270   31.1120 N   0  0  0  0  0  0  0  0  0  0  0  0
   35.3980   25.9070   30.8880 C   0  0  0  0  0  0  0  0  0  0  0  0
   35.9320   26.8920   31.6370 N   0  0  0  0  0  0  0  0  0  0  0  0
   37.1760   27.4630   33.1270 H   0  0  0  0  0  0  0  0  0  0  0  0
   36.8610   23.2450   32.1410 H   0  0  0  0  0  0  0  0  0  0  0  0
   34.6790   26.0840   30.1010 H   0  0  0  0  0  0  0  0  0  0  0  0
   38.5140   24.2810   36.2360 C   0  0  0  0  0  0  0  0  0  0  0  0
   38.2720   24.1070   37.4930 C   0  0  0  0  0  0  0  0  0  0  0  0
   37.4650   24.5200   38.1280 H   0  0  0  0  0  0  0  0  0  0  0  0
   39.0460   23.3160   38.3010 C   0  0  0  0  0  3  0  0  0  0  0  0
   40.0930   22.7150   37.7060 C   0  0  0  0  0  3  0  0  0  0  0  0
   39.9360   23.3240   35.9330 S   0  0  0  0  0  0  0  0  0  0  0  0
  1  7  1  6  0  0  0
  1  6  1  0  0  0  0
  2  1  1  0  0  0  0
  2  9  1  0  0  0  0
  2  3  1  0  0  0  0
  3 11  1  0  0  0  0
  3  4  1  0  0  0  0
  4 13  1  0  0  0  0
  4  5  1  0  0  0  0
  4 12  1  0  0  0  0
  5 14  1  0  0  0  0
  6 16  1  1  0  0  0
  6  5  1  0  0  0  0
  6 26  1  0  0  0  0
  8  2  1  0  0  0  0
 10  3  1  0  0  0  0
 15  5  1  0  0  0  0
 17 18  1  0  0  0  0
 17 23  1  0  0  0  0
 18  1  1  0  0  0  0
 19 24  1  0  0  0  0
 19 18  2  0  0  0  0
 20 19  1  0  0  0  0
 21 20  2  0  0  0  0
 21 22  1  0  0  0  0
 22 17  2  0  0  0  0
 25 21  1  0  0  0  0
 26 27  2  0  0  0  0
 27 28  1  0  0  0  0
 27 29  1  0  0  0  0
 30 29  2  0  0  0  0
 31 26  1  0  0  0  0
 31 30  1  0  0  0  0
M  END
>  <minimizedAffinity>
-5.18314123

$$$$

 OpenBabel03272506313D

 31 33  0  0  1  0  0  0  0  0999 V2000
   37.5680   26.6810   33.6420 C   0  0  1  0  0  0  0  0  0  0  0  0
   38.7840   26.4330   32.8740 C   0  0  0  0  0  0  0  0  0  0  0  0
   40.0680   26.9400   33.4340 C   0  0  0  0  0  0  0  0  0  0  0  0
   40.1990   26.9440   34.9060 C   0  0  0  0  0  0  0  0  0  0  0  0
   38.9690   27.1720   35.6880 C   0  0  0  0  0  0  0  0  0  0  0  0
   37.7520   26.5320   35.1260 C   0  0  2  0  0  0  0  0  0  0  0  0
   36.8070   25.8770   33.3840 H   0  0  0  0  0  0  0  0  0  0  0  0
   38.7750   26.6930   31.8160 H   0  0  0  0  0  0  0  0  0  0  0  0
   38.9150   25.3040   32.8560 H   0  0  0  0  0  0  0  0  0  0  0  0
   40.1980   27.9840   33.0310 H   0  0  0  0  0  0  0  0  0  0  0  0
   40.9070   26.3620   32.9910 H   0  0  0  0  0  0  0  0  0  0  0  0
   40.7020   26.0150   35.2360 H   0  0  0  0  0  0  0  0  0  0  0  0
   40.9110   27.7870   35.1630 H   0  0  0  0  0  0  0  0  0  0  0  0
   39.1230   26.7300   36.7080 H   0  0  0  0  0  0  0  0  0  0  0  0
   38.8020   28.2770   35.7930 H   0  0  0  0  0  0  0  0  0  0  0  0
   36.8580   26.7280   35.7080 H   0  0  0  0  0  0  0  0  0  0  0  0
   36.0190   28.6080   34.2300 C   0  0  0  0  0  0  0  0  0  0  0  0
   36.8250   27.9170   33.2930 C   0  0  0  0  0  0  0  0  0  0  0  0
   36.8800   28.4750   32.0300 C   0  0  0  0  0  0  0  0  0  0  0  0
   36.1900   29.6130   31.7490 N   0  0  0  0  0  0  0  0  0  0  0  0
   35.4360   30.2330   32.6810 C   0  0  0  0  0  0  0  0  0  0  0  0
   35.3580   29.7190   33.9250 N   0  0  0  0  0  0  0  0  0  0  0  0
   35.8900   28.2830   35.2480 H   0  0  0  0  0  0  0  0  0  0  0  0
   37.4390   28.0940   31.1950 H   0  0  0  0  0  0  0  0  0  0  0  0
   34.9180   31.1330   32.3790 H   0  0  0  0  0  0  0  0  0  0  0  0
   37.9640   25.0150   35.3620 C   0  0  0  0  0  0  0  0  0  0  0  0
   38.0680   24.4740   36.5300 C   0  0  0  0  0  0  0  0  0  0  0  0
   38.0260   24.9330   37.5360 H   0  0  0  0  0  0  0  0  0  0  0  0
   38.2630   23.1300   36.7160 C   0  0  0  0  0  3  0  0  0  0  0  0
   38.3420   22.3870   35.5970 C   0  0  0  0  0  3  0  0  0  0  0  0
   38.1260   23.6850   34.2520 S   0  0  0  0  0  0  0  0  0  0  0  0
  1  7  1  6  0  0  0
  1  6  1  0  0  0  0
  2  3  1  0  0  0  0
  2  1  1  0  0  0  0
  3  4  1  0  0  0  0
  4 13  1  0  0  0  0
  4 12  1  0  0  0  0
  4  5  1  0  0  0  0
  5 15  1  0  0  0  0
  5 14  1  0  0  0  0
  6 26  1  0  0  0  0
  6  5  1  0  0  0  0
  6 16  1  1  0  0  0
  8  2  1  0  0  0  0
  9  2  1  0  0  0  0
 10  3  1  0  0  0  0
 11  3  1  0  0  0  0
 17 23  1  0  0  0  0
 18  1  1  0  0  0  0
 18 17  2  0  0  0  0
 19 18  1  0  0  0  0
 20 19  2  0  0  0  0
 20 21  1  0  0  0  0
 21 22  2  0  0  0  0
 22 17  1  0  0  0  0
 24 19  1  0  0  0  0
 25 21  1  0  0  0  0
 26 27  2  0  0  0  0
 27 29  1  0  0  0  0
 27 28  1  0  0  0  0
 30 29  2  0  0  0  0
 31 26  1  0  0  0  0
 31 30  1  0  0  0  0
M  END
>  <minimizedAffinity>
-4.89767599

$$$$

 OpenBabel03272506313D

 31 33  0  0  1  0  0  0  0  0999 V2000
   38.5200   26.1420   35.1760 C   0  0  1  0  0  0  0  0  0  0  0  0
   39.5830   27.1310   35.0320 C   0  0  0  0  0  0  0  0  0  0  0  0
   40.3990   27.0900   33.7860 C   0  0  0  0  0  0  0  0  0  0  0  0
   39.7090   26.6700   32.5490 C   0  0  0  0  0  0  0  0  0  0  0  0
   38.6180   25.6860   32.6910 C   0  0  0  0  0  0  0  0  0  0  0  0
   37.7750   25.8690   33.9000 C   0  0  2  0  0  0  0  0  0  0  0  0
   37.7230   26.5640   35.8670 H   0  0  0  0  0  0  0  0  0  0  0  0
   40.2780   27.2510   35.8630 H   0  0  0  0  0  0  0  0  0  0  0  0
   39.0630   28.1420   34.9900 H   0  0  0  0  0  0  0  0  0  0  0  0
   41.2650   26.4020   33.9990 H   0  0  0  0  0  0  0  0  0  0  0  0
   40.8650   28.0870   33.6280 H   0  0  0  0  0  0  0  0  0  0  0  0
   39.3560   27.5640   31.9990 H   0  0  0  0  0  0  0  0  0  0  0  0
   40.4960   26.1940   31.8880 H   0  0  0  0  0  0  0  0  0  0  0  0
   37.9390   25.7960   31.8040 H   0  0  0  0  0  0  0  0  0  0  0  0
   39.0560   24.6520   32.6870 H   0  0  0  0  0  0  0  0  0  0  0  0
   36.9910   25.1240   33.9920 H   0  0  0  0  0  0  0  0  0  0  0  0
   40.0290   24.1260   35.5190 C   0  0  0  0  0  0  0  0  0  0  0  0
   38.8940   24.8920   35.8820 C   0  0  0  0  0  0  0  0  0  0  0  0
   38.1600   24.4000   36.9440 C   0  0  0  0  0  0  0  0  0  0  0  0
   38.5380   23.2530   37.5700 N   0  0  0  0  0  0  0  0  0  0  0  0
   39.6310   22.5610   37.1840 C   0  0  0  0  0  0  0  0  0  0  0  0
   40.3730   23.0110   36.1520 N   0  0  0  0  0  0  0  0  0  0  0  0
   40.6880   24.3960   34.7110 H   0  0  0  0  0  0  0  0  0  0  0  0
   37.2740   24.8440   37.3600 H   0  0  0  0  0  0  0  0  0  0  0  0
   39.8650   21.6600   37.7340 H   0  0  0  0  0  0  0  0  0  0  0  0
   36.9620   27.1580   33.6170 C   0  0  0  0  0  0  0  0  0  0  0  0
   36.5630   27.9760   34.5340 C   0  0  0  0  0  0  0  0  0  0  0  0
   36.7060   27.9430   35.6310 H   0  0  0  0  0  0  0  0  0  0  0  0
   35.8380   29.1060   34.2630 C   0  0  0  0  0  3  0  0  0  0  0  0
   35.5580   29.3280   32.9650 C   0  0  0  0  0  3  0  0  0  0  0  0
   36.3730   27.8500   32.1330 S   0  0  0  0  0  0  0  0  0  0  0  0
  1  7  1  1  0  0  0
  1 18  1  0  0  0  0
  2  1  1  0  0  0  0
  2  8  1  0  0  0  0
  3 10  1  0  0  0  0
  3  2  1  0  0  0  0
  4  5  1  0  0  0  0
  4  3  1  0  0  0  0
  5  6  1  0  0  0  0
  6 16  1  1  0  0  0
  6  1  1  0  0  0  0
  9  2  1  0  0  0  0
 11  3  1  0  0  0  0
 12  4  1  0  0  0  0
 13  4  1  0  0  0  0
 14  5  1  0  0  0  0
 15  5  1  0  0  0  0
 17 18  2  0  0  0  0
 17 22  1  0  0  0  0
 18 19  1  0  0  0  0
 19 24  1  0  0  0  0
 19 20  2  0  0  0  0
 21 20  1  0  0  0  0
 21 25  1  0  0  0  0
 22 21  2  0  0  0  0
 23 17  1  0  0  0  0
 26  6  1  0  0  0  0
 26 27  2  0  0  0  0
 27 28  1  0  0  0  0
 29 27  1  0  0  0  0
 30 29  2  0  0  0  0
 31 30  1  0  0  0  0
 31 26  1  0  0  0  0
M  END
>  <minimizedAffinity>
-4.78786945

$$$$

 OpenBabel03272506313D

 31 33  0  0  1  0  0  0  0  0999 V2000
   38.7160   24.3470   35.1060 C   0  0  1  0  0  0  0  0  0  0  0  0
   37.8410   25.0980   36.0010 C   0  0  0  0  0  0  0  0  0  0  0  0
   38.2950   26.4500   36.4340 C   0  0  0  0  0  0  0  0  0  0  0  0
   39.0830   27.2330   35.4600 C   0  0  0  0  0  0  0  0  0  0  0  0
   39.9520   26.4770   34.5390 C   0  0  0  0  0  0  0  0  0  0  0  0
   39.3760   25.1960   34.0570 C   0  0  2  0  0  0  0  0  0  0  0  0
   38.0810   23.6210   34.5040 H   0  0  0  0  0  0  0  0  0  0  0  0
   37.4680   24.5890   36.8890 H   0  0  0  0  0  0  0  0  0  0  0  0
   36.8920   25.3010   35.4090 H   0  0  0  0  0  0  0  0  0  0  0  0
   38.8880   26.2950   37.3780 H   0  0  0  0  0  0  0  0  0  0  0  0
   37.4100   27.0410   36.7520 H   0  0  0  0  0  0  0  0  0  0  0  0
   38.4110   27.9070   34.8950 H   0  0  0  0  0  0  0  0  0  0  0  0
   39.7580   27.9110   36.0660 H   0  0  0  0  0  0  0  0  0  0  0  0
   40.1270   27.1140   33.6310 H   0  0  0  0  0  0  0  0  0  0  0  0
   40.9380   26.2850   35.0420 H   0  0  0  0  0  0  0  0  0  0  0  0
   40.0400   24.6500   33.3950 H   0  0  0  0  0  0  0  0  0  0  0  0
   39.5880   23.0990   37.1410 C   0  0  0  0  0  0  0  0  0  0  0  0
   39.6750   23.4270   35.7650 C   0  0  0  0  0  0  0  0  0  0  0  0
   40.7100   22.8260   35.0750 C   0  0  0  0  0  0  0  0  0  0  0  0
   41.5660   21.9830   35.7130 N   0  0  0  0  0  0  0  0  0  0  0  0
   41.4380   21.7040   37.0280 C   0  0  0  0  0  0  0  0  0  0  0  0
   40.4400   22.2710   37.7340 N   0  0  0  0  0  0  0  0  0  0  0  0
   38.8300   23.4950   37.7940 H   0  0  0  0  0  0  0  0  0  0  0  0
   40.9300   22.9520   34.0310 H   0  0  0  0  0  0  0  0  0  0  0  0
   42.1580   21.0240   37.4600 H   0  0  0  0  0  0  0  0  0  0  0  0
   38.2370   25.6170   33.0950 C   0  0  0  0  0  0  0  0  0  0  0  0
   37.2990   24.8240   32.6960 C   0  0  0  0  0  0  0  0  0  0  0  0
   37.1130   23.7600   32.9370 H   0  0  0  0  0  0  0  0  0  0  0  0
   36.3050   25.2160   31.8380 C   0  0  0  0  0  3  0  0  0  0  0  0
   36.3560   26.4950   31.4230 C   0  0  0  0  0  3  0  0  0  0  0  0
   37.8900   27.1300   32.3090 S   0  0  0  0  0  0  0  0  0  0  0  0
  1  7  1  6  0  0  0
  1 18  1  0  0  0  0
  1  2  1  0  0  0  0
  2  3  1  0  0  0  0
  2  8  1  0  0  0  0
  3 11  1  0  0  0  0
  3 10  1  0  0  0  0
  4 13  1  0  0  0  0
  4  3  1  0  0  0  0
  5 15  1  0  0  0  0
  5  4  1  0  0  0  0
  6 16  1  6  0  0  0
  6  5  1  0  0  0  0
  6  1  1  0  0  0  0
  9  2  1  0  0  0  0
 12  4  1  0  0  0  0
 14  5  1  0  0  0  0
 17 22  1  0  0  0  0
 17 23  1  0  0  0  0
 18 17  2  0  0  0  0
 19 20  2  0  0  0  0
 19 18  1  0  0  0  0
 20 21  1  0  0  0  0
 21 25  1  0  0  0  0
 21 22  2  0  0  0  0
 24 19  1  0  0  0  0
 26  6  1  0  0  0  0
 27 28  1  0  0  0  0
 27 26  2  0  0  0  0
 29 27  1  0  0  0  0
 30 29  2  0  0  0  0
 30 31  1  0  0  0  0
 31 26  1  0  0  0  0
M  END
>  <minimizedAffinity>
-4.70732594

$$$$

 OpenBabel03272506313D

 31 33  0  0  1  0  0  0  0  0999 V2000
   37.9910   26.2930   35.2650 C   0  0  1  0  0  0  0  0  0  0  0  0
   39.1140   27.2190   35.3710 C   0  0  0  0  0  0  0  0  0  0  0  0
   40.3060   26.9580   34.5160 C   0  0  0  0  0  0  0  0  0  0  0  0
   40.0560   26.3640   33.1860 C   0  0  0  0  0  0  0  0  0  0  0  0
   38.9090   25.4440   33.0680 C   0  0  0  0  0  0  0  0  0  0  0  0
   37.7160   25.8390   33.8590 C   0  0  2  0  0  0  0  0  0  0  0  0
   37.0410   26.8410   35.5620 H   0  0  0  0  0  0  0  0  0  0  0  0
   39.4850   27.4520   36.3690 H   0  0  0  0  0  0  0  0  0  0  0  0
   38.7250   28.2230   35.0060 H   0  0  0  0  0  0  0  0  0  0  0  0
   40.9860   26.2910   35.1160 H   0  0  0  0  0  0  0  0  0  0  0  0
   40.8760   27.9040   34.3950 H   0  0  0  0  0  0  0  0  0  0  0  0
   39.9890   27.1670   32.4270 H   0  0  0  0  0  0  0  0  0  0  0  0
   40.9830   25.7680   32.9220 H   0  0  0  0  0  0  0  0  0  0  0  0
   38.5900   25.4270   31.9920 H   0  0  0  0  0  0  0  0  0  0  0  0
   39.2360   24.4110   33.3650 H   0  0  0  0  0  0  0  0  0  0  0  0
   36.8920   25.1390   33.7710 H   0  0  0  0  0  0  0  0  0  0  0  0
   37.9990   25.3600   37.6290 C   0  0  0  0  0  0  0  0  0  0  0  0
   37.9950   25.1630   36.2260 C   0  0  0  0  0  0  0  0  0  0  0  0
   37.9880   23.8450   35.8110 C   0  0  0  0  0  0  0  0  0  0  0  0
   37.9860   22.8350   36.7220 N   0  0  0  0  0  0  0  0  0  0  0  0
   37.9890   23.0790   38.0500 C   0  0  0  0  0  0  0  0  0  0  0  0
   37.9950   24.3520   38.4930 N   0  0  0  0  0  0  0  0  0  0  0  0
   38.0030   26.3340   38.0870 H   0  0  0  0  0  0  0  0  0  0  0  0
   37.9820   23.5030   34.7920 H   0  0  0  0  0  0  0  0  0  0  0  0
   37.9860   22.2220   38.7090 H   0  0  0  0  0  0  0  0  0  0  0  0
   37.1580   27.0870   33.1280 C   0  0  0  0  0  0  0  0  0  0  0  0
   36.4880   28.0250   33.7100 C   0  0  0  0  0  0  0  0  0  0  0  0
   36.1940   28.1390   34.7710 H   0  0  0  0  0  0  0  0  0  0  0  0
   35.9970   29.1170   33.0430 C   0  0  0  0  0  3  0  0  0  0  0  0
   36.2550   29.1640   31.7230 C   0  0  0  0  0  3  0  0  0  0  0  0
   37.2340   27.5780   31.4610 S   0  0  0  0  0  0  0  0  0  0  0  0
  1  2  1  0  0  0  0
  1  7  1  1  0  0  0
  1 18  1  0  0  0  0
  2  8  1  0  0  0  0
  3 10  1  0  0  0  0
  3  2  1  0  0  0  0
  4  3  1  0  0  0  0
  5  4  1  0  0  0  0
  5 15  1  0  0  0  0
  5  6  1  0  0  0  0
  6 16  1  6  0  0  0
  6  1  1  0  0  0  0
  9  2  1  0  0  0  0
 11  3  1  0  0  0  0
 12  4  1  0  0  0  0
 13  4  1  0  0  0  0
 14  5  1  0  0  0  0
 17 23  1  0  0  0  0
 17 22  1  0  0  0  0
 18 17  2  0  0  0  0
 19 18  1  0  0  0  0
 19 20  2  0  0  0  0
 20 21  1  0  0  0  0
 21 22  2  0  0  0  0
 21 25  1  0  0  0  0
 24 19  1  0  0  0  0
 26 27  2  0  0  0  0
 26  6  1  0  0  0  0
 27 28  1  0  0  0  0
 29 27  1  0  0  0  0
 30 29  2  0  0  0  0
 31 30  1  0  0  0  0
 31 26  1  0  0  0  0
M  END
>  <minimizedAffinity>
-4.6555624

$$$$

 OpenBabel03272506313D

 31 33  0  0  1  0  0  0  0  0999 V2000
   38.7610   25.2440   33.9370 C   0  0  1  0  0  0  0  0  0  0  0  0
   39.3930   26.4820   34.3850 C   0  0  0  0  0  0  0  0  0  0  0  0
   38.8610   27.1190   35.6220 C   0  0  0  0  0  0  0  0  0  0  0  0
   38.3500   26.2140   36.6730 C   0  0  0  0  0  0  0  0  0  0  0  0
   37.7300   24.9520   36.2260 C   0  0  0  0  0  0  0  0  0  0  0  0
   38.3930   24.3160   35.0600 C   0  0  2  0  0  0  0  0  0  0  0  0
   39.5180   24.6490   33.3330 H   0  0  0  0  0  0  0  0  0  0  0  0
   39.5260   27.2760   33.6510 H   0  0  0  0  0  0  0  0  0  0  0  0
   40.4630   26.2040   34.6530 H   0  0  0  0  0  0  0  0  0  0  0  0
   38.0480   27.8240   35.2890 H   0  0  0  0  0  0  0  0  0  0  0  0
   39.6450   27.7780   36.0530 H   0  0  0  0  0  0  0  0  0  0  0  0
   39.1500   26.0140   37.4110 H   0  0  0  0  0  0  0  0  0  0  0  0
   37.5520   26.7920   37.2320 H   0  0  0  0  0  0  0  0  0  0  0  0
   37.7950   24.2190   37.0740 H   0  0  0  0  0  0  0  0  0  0  0  0
   36.6470   25.1400   35.9910 H   0  0  0  0  0  0  0  0  0  0  0  0
   37.9100   23.4000   34.7390 H   0  0  0  0  0  0  0  0  0  0  0  0
   37.1780   26.6720   32.5540 C   0  0  0  0  0  0  0  0  0  0  0  0
   37.6570   25.4020   32.9580 C   0  0  0  0  0  0  0  0  0  0  0  0
   37.0320   24.3170   32.3750 C   0  0  0  0  0  0  0  0  0  0  0  0
   36.0270   24.5020   31.4770 N   0  0  0  0  0  0  0  0  0  0  0  0
   35.6090   25.7360   31.1250 C   0  0  0  0  0  0  0  0  0  0  0  0
   36.1960   26.8190   31.6730 N   0  0  0  0  0  0  0  0  0  0  0  0
   37.5770   27.5990   32.9290 H   0  0  0  0  0  0  0  0  0  0  0  0
   37.2610   23.2830   32.5560 H   0  0  0  0  0  0  0  0  0  0  0  0
   34.8050   25.7980   30.4040 H   0  0  0  0  0  0  0  0  0  0  0  0
   39.7410   23.7920   35.6160 C   0  0  0  0  0  0  0  0  0  0  0  0
   39.8560   23.1110   36.7080 C   0  0  0  0  0  0  0  0  0  0  0  0
   39.0830   22.7760   37.4250 H   0  0  0  0  0  0  0  0  0  0  0  0
   41.0600   22.6630   37.1860 C   0  0  0  0  0  3  0  0  0  0  0  0
   42.1390   22.9730   36.4430 C   0  0  0  0  0  3  0  0  0  0  0  0
   41.3700   23.9380   35.0230 S   0  0  0  0  0  0  0  0  0  0  0  0
  1  7  1  6  0  0  0
  1  2  1  0  0  0  0
  1  6  1  0  0  0  0
  2  9  1  0  0  0  0
  2  3  1  0  0  0  0
  3 11  1  0  0  0  0
  3  4  1  0  0  0  0
  4 13  1  0  0  0  0
  4 12  1  0  0  0  0
  5  4  1  0  0  0  0
  5 14  1  0  0  0  0
  6 16  1  6  0  0  0
  6 26  1  0  0  0  0
  6  5  1  0  0  0  0
  8  2  1  0  0  0  0
 10  3  1  0  0  0  0
 15  5  1  0  0  0  0
 17 23  1  0  0  0  0
 17 18  1  0  0  0  0
 18  1  1  0  0  0  0
 19 24  1  0  0  0  0
 19 18  2  0  0  0  0
 20 19  1  0  0  0  0
 21 20  2  0  0  0  0
 21 22  1  0  0  0  0
 22 17  2  0  0  0  0
 25 21  1  0  0  0  0
 26 27  2  0  0  0  0
 27 29  1  0  0  0  0
 27 28  1  0  0  0  0
 30 29  2  0  0  0  0
 31 26  1  0  0  0  0
 31 30  1  0  0  0  0
M  END
>  <minimizedAffinity>
-4.63167667

$$$$

 OpenBabel03272506313D

 31 33  0  0  1  0  0  0  0  0999 V2000
   37.0470   22.6260   31.7410 C   0  0  1  0  0  0  0  0  0  0  0  0
   37.7170   22.1480   32.9470 C   0  0  0  0  0  0  0  0  0  0  0  0
   36.8740   21.5120   33.9970 C   0  0  0  0  0  0  0  0  0  0  0  0
   35.7020   20.7380   33.5350 C   0  0  0  0  0  0  0  0  0  0  0  0
   35.0350   21.2040   32.3050 C   0  0  0  0  0  0  0  0  0  0  0  0
   35.9560   21.7140   31.2580 C   0  0  2  0  0  0  0  0  0  0  0  0
   37.7960   22.6260   30.8870 H   0  0  0  0  0  0  0  0  0  0  0  0
   38.3930   22.8350   33.4560 H   0  0  0  0  0  0  0  0  0  0  0  0
   38.4120   21.3160   32.6070 H   0  0  0  0  0  0  0  0  0  0  0  0
   36.5440   22.3420   34.6830 H   0  0  0  0  0  0  0  0  0  0  0  0
   37.5160   20.8630   34.6310 H   0  0  0  0  0  0  0  0  0  0  0  0
   35.9740   19.6690   33.4480 H   0  0  0  0  0  0  0  0  0  0  0  0
   34.9340   20.7930   34.3660 H   0  0  0  0  0  0  0  0  0  0  0  0
   34.4900   20.3310   31.8570 H   0  0  0  0  0  0  0  0  0  0  0  0
   34.2880   21.9990   32.5720 H   0  0  0  0  0  0  0  0  0  0  0  0
   35.4420   22.0670   30.3700 H   0  0  0  0  0  0  0  0  0  0  0  0
   37.2290   25.0100   32.6030 C   0  0  0  0  0  0  0  0  0  0  0  0
   36.6200   24.0470   31.7620 C   0  0  0  0  0  0  0  0  0  0  0  0
   35.6040   24.5200   30.9540 C   0  0  0  0  0  0  0  0  0  0  0  0
   35.2430   25.8310   30.9970 N   0  0  0  0  0  0  0  0  0  0  0  0
   35.8580   26.7090   31.8180 C   0  0  0  0  0  0  0  0  0  0  0  0
   36.8550   26.2840   32.6200 N   0  0  0  0  0  0  0  0  0  0  0  0
   38.0320   24.7770   33.2800 H   0  0  0  0  0  0  0  0  0  0  0  0
   35.0310   23.9410   30.2530 H   0  0  0  0  0  0  0  0  0  0  0  0
   35.5140   27.7340   31.7920 H   0  0  0  0  0  0  0  0  0  0  0  0
   36.6820   20.4520   30.7280 C   0  0  0  0  0  0  0  0  0  0  0  0
   36.1570   19.2720   30.7070 C   0  0  0  0  0  0  0  0  0  0  0  0
   35.1540   18.9310   31.0290 H   0  0  0  0  0  0  0  0  0  0  0  0
   36.8200   18.1670   30.2420 C   0  0  0  0  0  3  0  0  0  0  0  0
   38.0730   18.3770   29.7970 C   0  0  0  0  0  3  0  0  0  0  0  0
   38.2770   20.2280   30.0690 S   0  0  0  0  0  0  0  0  0  0  0  0
  1  7  1  6  0  0  0
  1 18  1  0  0  0  0
  1  2  1  0  0  0  0
  2  8  1  0  0  0  0
  2  3  1  0  0  0  0
  3 11  1  0  0  0  0
  3 10  1  0  0  0  0
  4  3  1  0  0  0  0
  4 13  1  0  0  0  0
  5 15  1  0  0  0  0
  5  4  1  0  0  0  0
  6 16  1  6  0  0  0
  6  1  1  0  0  0  0
  6  5  1  0  0  0  0
  9  2  1  0  0  0  0
 12  4  1  0  0  0  0
 14  5  1  0  0  0  0
 17 22  1  0  0  0  0
 17 23  1  0  0  0  0
 18 17  2  0  0  0  0
 19 20  2  0  0  0  0
 19 18  1  0  0  0  0
 20 21  1  0  0  0  0
 21 22  2  0  0  0  0
 24 19  1  0  0  0  0
 25 21  1  0  0  0  0
 26  6  1  0  0  0  0
 27 26  2  0  0  0  0
 27 28  1  0  0  0  0
 29 27  1  0  0  0  0
 30 31  1  0  0  0  0
 30 29  2  0  0  0  0
 31 26  1  0  0  0  0
M  END
>  <minimizedAffinity>
-4.46568918

$$$$

 OpenBabel03272506313D

 31 33  0  0  1  0  0  0  0  0999 V2000
   35.8590   29.3170   33.3040 C   0  0  1  0  0  0  0  0  0  0  0  0
   35.8980   30.3270   32.2500 C   0  0  0  0  0  0  0  0  0  0  0  0
   34.6330   30.6040   31.5140 C   0  0  0  0  0  0  0  0  0  0  0  0
   33.3750   30.4900   32.2810 C   0  0  0  0  0  0  0  0  0  0  0  0
   33.3370   29.4860   33.3620 C   0  0  0  0  0  0  0  0  0  0  0  0
   34.6030   29.3550   34.1280 C   0  0  2  0  0  0  0  0  0  0  0  0
   36.6800   29.5460   34.0550 H   0  0  0  0  0  0  0  0  0  0  0  0
   36.6880   30.2500   31.5050 H   0  0  0  0  0  0  0  0  0  0  0  0
   36.1370   31.3100   32.7710 H   0  0  0  0  0  0  0  0  0  0  0  0
   34.6170   29.8970   30.6370 H   0  0  0  0  0  0  0  0  0  0  0  0
   34.6950   31.6150   31.0580 H   0  0  0  0  0  0  0  0  0  0  0  0
   33.0840   31.4860   32.6670 H   0  0  0  0  0  0  0  0  0  0  0  0
   32.5700   30.2010   31.5370 H   0  0  0  0  0  0  0  0  0  0  0  0
   32.5480   29.7990   34.0950 H   0  0  0  0  0  0  0  0  0  0  0  0
   33.0530   28.4900   32.9260 H   0  0  0  0  0  0  0  0  0  0  0  0
   34.5570   28.5990   34.9050 H   0  0  0  0  0  0  0  0  0  0  0  0
   35.8320   27.4040   31.6330 C   0  0  0  0  0  0  0  0  0  0  0  0
   36.2130   27.9380   32.8880 C   0  0  0  0  0  0  0  0  0  0  0  0
   36.9430   27.0900   33.6980 C   0  0  0  0  0  0  0  0  0  0  0  0
   37.2530   25.8340   33.2790 N   0  0  0  0  0  0  0  0  0  0  0  0
   36.8650   25.3740   32.0710 C   0  0  0  0  0  0  0  0  0  0  0  0
   36.1520   26.1720   31.2520 N   0  0  0  0  0  0  0  0  0  0  0  0
   35.2630   27.9560   30.9050 H   0  0  0  0  0  0  0  0  0  0  0  0
   37.3190   27.3210   34.6780 H   0  0  0  0  0  0  0  0  0  0  0  0
   37.1520   24.3640   31.8120 H   0  0  0  0  0  0  0  0  0  0  0  0
   34.6950   30.6620   34.9550 C   0  0  0  0  0  0  0  0  0  0  0  0
   35.8010   31.1530   35.4100 C   0  0  0  0  0  0  0  0  0  0  0  0
   36.8390   30.7820   35.3120 H   0  0  0  0  0  0  0  0  0  0  0  0
   35.8590   32.3060   36.1460 C   0  0  0  0  0  3  0  0  0  0  0  0
   34.6820   32.9170   36.3770 C   0  0  0  0  0  3  0  0  0  0  0  0
   33.4720   31.7760   35.4960 S   0  0  0  0  0  0  0  0  0  0  0  0
  1  7  1  1  0  0  0
  1  6  1  0  0  0  0
  2  9  1  0  0  0  0
  2  1  1  0  0  0  0
  3  2  1  0  0  0  0
  3  4  1  0  0  0  0
  4 12  1  0  0  0  0
  4  5  1  0  0  0  0
  5 14  1  0  0  0  0
  5  6  1  0  0  0  0
  6 16  1  1  0  0  0
  6 26  1  0  0  0  0
  8  2  1  0  0  0  0
 10  3  1  0  0  0  0
 11  3  1  0  0  0  0
 13  4  1  0  0  0  0
 15  5  1  0  0  0  0
 17 18  1  0  0  0  0
 18  1  1  0  0  0  0
 18 19  2  0  0  0  0
 19 24  1  0  0  0  0
 20 19  1  0  0  0  0
 21 20  2  0  0  0  0
 22 17  2  0  0  0  0
 22 21  1  0  0  0  0
 23 17  1  0  0  0  0
 25 21  1  0  0  0  0
 26 27  2  0  0  0  0
 26 31  1  0  0  0  0
 27 29  1  0  0  0  0
 28 27  1  0  0  0  0
 29 30  2  0  0  0  0
 31 30  1  0  0  0  0
M  END
>  <minimizedAffinity>
-4.44997311

$$$$

 OpenBabel03272506313D

 31 33  0  0  1  0  0  0  0  0999 V2000
   39.8300   24.7240   34.7080 C   0  0  1  0  0  0  0  0  0  0  0  0
   38.6670   24.3070   35.4860 C   0  0  0  0  0  0  0  0  0  0  0  0
   38.1190   25.2740   36.4780 C   0  0  0  0  0  0  0  0  0  0  0  0
   38.2100   26.7080   36.1340 C   0  0  0  0  0  0  0  0  0  0  0  0
   39.3720   27.1310   35.3290 C   0  0  0  0  0  0  0  0  0  0  0  0
   39.7820   26.1630   34.2800 C   0  0  2  0  0  0  0  0  0  0  0  0
   39.8330   24.1520   33.7270 H   0  0  0  0  0  0  0  0  0  0  0  0
   38.7100   23.3360   35.9800 H   0  0  0  0  0  0  0  0  0  0  0  0
   37.8240   24.1710   34.7350 H   0  0  0  0  0  0  0  0  0  0  0  0
   38.6580   25.0720   37.4460 H   0  0  0  0  0  0  0  0  0  0  0  0
   37.0590   25.0120   36.6880 H   0  0  0  0  0  0  0  0  0  0  0  0
   37.2670   27.0360   35.6570 H   0  0  0  0  0  0  0  0  0  0  0  0
   38.2690   27.2700   37.1160 H   0  0  0  0  0  0  0  0  0  0  0  0
   39.0960   28.0820   34.8010 H   0  0  0  0  0  0  0  0  0  0  0  0
   40.2370   27.3360   36.0160 H   0  0  0  0  0  0  0  0  0  0  0  0
   40.6490   26.4880   33.7140 H   0  0  0  0  0  0  0  0  0  0  0  0
   42.3250   25.0990   35.0120 C   0  0  0  0  0  0  0  0  0  0  0  0
   41.1500   24.3520   35.2730 C   0  0  0  0  0  0  0  0  0  0  0  0
   41.3140   23.2550   36.0970 C   0  0  0  0  0  0  0  0  0  0  0  0
   42.5400   22.9490   36.6000 N   0  0  0  0  0  0  0  0  0  0  0  0
   43.6290   23.6960   36.3200 C   0  0  0  0  0  0  0  0  0  0  0  0
   43.5080   24.7750   35.5200 N   0  0  0  0  0  0  0  0  0  0  0  0
   42.3380   25.9760   34.3880 H   0  0  0  0  0  0  0  0  0  0  0  0
   40.5410   22.5760   36.4070 H   0  0  0  0  0  0  0  0  0  0  0  0
   44.5660   23.3870   36.7600 H   0  0  0  0  0  0  0  0  0  0  0  0
   38.6560   26.2380   33.2180 C   0  0  0  0  0  0  0  0  0  0  0  0
   38.0360   27.3250   32.9000 C   0  0  0  0  0  0  0  0  0  0  0  0
   38.1640   28.3570   33.2780 H   0  0  0  0  0  0  0  0  0  0  0  0
   37.0370   27.3680   31.9620 C   0  0  0  0  0  3  0  0  0  0  0  0
   36.7290   26.1950   31.3770 C   0  0  0  0  0  3  0  0  0  0  0  0
   37.9280   25.0140   32.2200 S   0  0  0  0  0  0  0  0  0  0  0  0
  1  7  1  6  0  0  0
  1 18  1  0  0  0  0
  1  2  1  0  0  0  0
  2  8  1  0  0  0  0
  2  3  1  0  0  0  0
  3 11  1  0  0  0  0
  3 10  1  0  0  0  0
  4  3  1  0  0  0  0
  4 13  1  0  0  0  0
  5 15  1  0  0  0  0
  5  4  1  0  0  0  0
  6 16  1  6  0  0  0
  6  1  1  0  0  0  0
  6  5  1  0  0  0  0
  9  2  1  0  0  0  0
 12  4  1  0  0  0  0
 14  5  1  0  0  0  0
 17 18  2  0  0  0  0
 17 22  1  0  0  0  0
 18 19  1  0  0  0  0
 19 24  1  0  0  0  0
 19 20  2  0  0  0  0
 21 20  1  0  0  0  0
 21 25  1  0  0  0  0
 22 21  2  0  0  0  0
 23 17  1  0  0  0  0
 26  6  1  0  0  0  0
 27 26  2  0  0  0  0
 27 28  1  0  0  0  0
 29 27  1  0  0  0  0
 30 29  2  0  0  0  0
 30 31  1  0  0  0  0
 31 26  1  0  0  0  0
M  END
>  <minimizedAffinity>
-4.40706062

$$$$
