
 OpenBabel03272500563D

 32 34  0  0  0  0  0  0  0  0999 V2000
   38.2500   31.9250   47.3960 C   0  0  0  0  0  0  0  0  0  0  0  0
   38.8110   32.8010   48.2780 C   0  0  0  0  0  0  0  0  0  0  0  0
   38.3870   32.9010   49.6080 C   0  0  0  0  0  0  0  0  0  0  0  0
   37.3110   32.0190   50.0230 C   0  0  0  0  0  0  0  0  0  0  0  0
   36.7960   31.1720   49.1030 C   0  0  0  0  0  0  0  0  0  0  0  0
   37.2110   31.0870   47.8250 C   0  0  0  0  0  0  0  0  0  0  0  0
   39.6280   33.4780   47.9860 H   0  0  0  0  0  0  0  0  0  0  0  0
   38.8740   33.6180   50.2560 H   0  0  0  0  0  0  0  0  0  0  0  0
   37.0970   32.2040   51.0520 H   0  0  0  0  0  0  0  0  0  0  0  0
   36.0460   30.6100   49.6360 H   0  0  0  0  0  0  0  0  0  0  0  0
   40.0440   31.2490   45.8750 C   0  0  0  0  0  0  0  0  0  0  0  0
   38.8100   31.9280   46.0630 C   0  0  0  0  0  0  0  0  0  0  0  0
   38.2930   32.5060   44.9300 C   0  0  0  0  0  0  0  0  0  0  0  0
   38.9390   32.4140   43.7500 N   0  0  0  0  0  0  0  0  0  0  0  0
   40.0760   31.7810   43.6000 C   0  0  0  0  0  0  0  0  0  0  0  0
   40.6290   31.1990   44.6620 N   0  0  0  0  0  0  0  0  0  0  0  0
   40.5130   30.7640   46.7420 H   0  0  0  0  0  0  0  0  0  0  0  0
   37.3450   33.0160   45.1270 H   0  0  0  0  0  0  0  0  0  0  0  0
   40.5010   31.7730   42.6030 H   0  0  0  0  0  0  0  0  0  0  0  0
   35.1990   30.0640   47.1590 C   0  0  0  0  0  0  0  0  0  0  0  0
   34.6610   30.6900   48.1580 O   0  0  0  0  0  0  0  0  0  0  0  0
   36.6260   30.2190   46.9340 N   0  0  0  0  0  0  0  0  0  0  0  0
   37.1330   29.7170   46.1740 H   0  0  0  0  0  0  0  0  0  0  0  0
   34.4130   29.2800   46.3580 O   0  0  0  0  0  0  0  0  0  0  0  0
   33.0320   29.4000   46.2460 C   0  0  0  0  0  0  0  0  0  0  0  0
   32.4710   30.2760   45.4420 O   0  0  0  0  0  0  0  0  0  0  0  0
   32.0590   28.5690   46.9770 C   0  0  0  0  0  0  0  0  0  0  0  0
   30.7350   28.4840   46.8710 C   0  0  0  0  0  0  0  0  0  0  0  0
   30.2370   29.1070   46.1410 H   0  0  0  0  0  0  0  0  0  0  0  0
   30.0230   27.6260   47.6680 C   0  0  0  0  0  3  0  0  0  0  0  0
   30.8150   26.8620   48.5900 C   0  0  0  0  0  3  0  0  0  0  0  0
   32.5700   27.4730   48.2050 S   0  0  0  0  0  0  0  0  0  0  0  0
  1  6  2  0  0  0  0
  1  2  1  0  0  0  0
  2  3  2  0  0  0  0
  3  4  1  0  0  0  0
  3  8  1  0  0  0  0
  4  9  1  0  0  0  0
  5 10  1  0  0  0  0
  5  4  2  0  0  0  0
  6  5  1  0  0  0  0
  7  2  1  0  0  0  0
 11 12  1  0  0  0  0
 11 17  1  0  0  0  0
 12  1  1  0  0  0  0
 13 18  1  0  0  0  0
 13 12  2  0  0  0  0
 14 13  1  0  0  0  0
 15 14  2  0  0  0  0
 15 16  1  0  0  0  0
 16 11  2  0  0  0  0
 19 15  1  0  0  0  0
 20 21  2  0  0  0  0
 22 20  1  0  0  0  0
 22  6  1  0  0  0  0
 23 22  1  0  0  0  0
 24 20  1  0  0  0  0
 25 24  1  0  0  0  0
 25 27  1  0  0  0  0
 26 25  2  0  0  0  0
 27 32  1  0  0  0  0
 28 27  2  0  0  0  0
 28 30  1  0  0  0  0
 29 28  1  0  0  0  0
 30 31  2  0  0  0  0
 32 31  1  0  0  0  0
M  END
>  <minimizedAffinity>
-5.73975039

>  <minimizedRMSD>
1.3718667

$$$$
