
 OpenBabel03272500563D

 32 34  0  0  0  0  0  0  0  0999 V2000
   38.2410   31.9180   47.3940 C   0  0  0  0  0  0  0  0  0  0  0  0
   38.8240   32.7710   48.2850 C   0  0  0  0  0  0  0  0  0  0  0  0
   38.4040   32.8650   49.6170 C   0  0  0  0  0  0  0  0  0  0  0  0
   37.3080   32.0030   50.0230 C   0  0  0  0  0  0  0  0  0  0  0  0
   36.7730   31.1790   49.0940 C   0  0  0  0  0  0  0  0  0  0  0  0
   37.1830   31.1000   47.8140 C   0  0  0  0  0  0  0  0  0  0  0  0
   39.6570   33.4320   48.0000 H   0  0  0  0  0  0  0  0  0  0  0  0
   38.9090   33.5620   50.2730 H   0  0  0  0  0  0  0  0  0  0  0  0
   37.1000   32.1820   51.0550 H   0  0  0  0  0  0  0  0  0  0  0  0
   36.0110   30.6290   49.6220 H   0  0  0  0  0  0  0  0  0  0  0  0
   40.0360   31.2490   45.8700 C   0  0  0  0  0  0  0  0  0  0  0  0
   38.7990   31.9240   46.0600 C   0  0  0  0  0  0  0  0  0  0  0  0
   38.2790   32.5020   44.9280 C   0  0  0  0  0  0  0  0  0  0  0  0
   38.9240   32.4120   43.7470 N   0  0  0  0  0  0  0  0  0  0  0  0
   40.0630   31.7830   43.5950 C   0  0  0  0  0  0  0  0  0  0  0  0
   40.6190   31.2020   44.6560 N   0  0  0  0  0  0  0  0  0  0  0  0
   40.5070   30.7650   46.7360 H   0  0  0  0  0  0  0  0  0  0  0  0
   37.3300   33.0090   45.1270 H   0  0  0  0  0  0  0  0  0  0  0  0
   40.4860   31.7770   42.5980 H   0  0  0  0  0  0  0  0  0  0  0  0
   35.1580   30.0870   47.1750 C   0  0  0  0  0  0  0  0  0  0  0  0
   34.6460   30.6800   48.2070 O   0  0  0  0  0  0  0  0  0  0  0  0
   36.5780   30.2570   46.9150 N   0  0  0  0  0  0  0  0  0  0  0  0
   37.0650   29.7800   46.1260 H   0  0  0  0  0  0  0  0  0  0  0  0
   34.3530   29.3240   46.3720 O   0  0  0  0  0  0  0  0  0  0  0  0
   32.9700   29.4480   46.2960 C   0  0  0  0  0  0  0  0  0  0  0  0
   32.3930   30.3840   45.5760 O   0  0  0  0  0  0  0  0  0  0  0  0
   32.0130   28.5550   46.9730 C   0  0  0  0  0  0  0  0  0  0  0  0
   30.7000   28.4050   46.8120 C   0  0  0  0  0  0  0  0  0  0  0  0
   30.2000   29.0150   46.0730 H   0  0  0  0  0  0  0  0  0  0  0  0
   30.0030   27.4980   47.5660 C   0  0  0  0  0  3  0  0  0  0  0  0
   30.7950   26.7580   48.5070 C   0  0  0  0  0  3  0  0  0  0  0  0
   32.5310   27.4650   48.2030 S   0  0  0  0  0  0  0  0  0  0  0  0
  1  6  2  0  0  0  0
  1  2  1  0  0  0  0
  2  3  2  0  0  0  0
  3  4  1  0  0  0  0
  3  8  1  0  0  0  0
  4  9  1  0  0  0  0
  5 10  1  0  0  0  0
  5  4  2  0  0  0  0
  6  5  1  0  0  0  0
  7  2  1  0  0  0  0
 11 12  1  0  0  0  0
 11 17  1  0  0  0  0
 12  1  1  0  0  0  0
 13 18  1  0  0  0  0
 13 12  2  0  0  0  0
 14 13  1  0  0  0  0
 15 14  2  0  0  0  0
 15 16  1  0  0  0  0
 16 11  2  0  0  0  0
 19 15  1  0  0  0  0
 20 21  2  0  0  0  0
 22 20  1  0  0  0  0
 22  6  1  0  0  0  0
 23 22  1  0  0  0  0
 24 20  1  0  0  0  0
 25 24  1  0  0  0  0
 25 27  1  0  0  0  0
 26 25  2  0  0  0  0
 27 32  1  0  0  0  0
 28 27  2  0  0  0  0
 28 30  1  0  0  0  0
 29 28  1  0  0  0  0
 30 31  2  0  0  0  0
 32 31  1  0  0  0  0
M  END
>  <minimizedAffinity>
-5.77298355

>  <minimizedRMSD>
1.34675872

$$$$
