
 OpenBabel03272500573D

 32 34  0  0  0  0  0  0  0  0999 V2000
   38.1010   31.8930   47.4290 C   0  0  0  0  0  0  0  0  0  0  0  0
   38.5650   32.8010   48.3350 C   0  0  0  0  0  0  0  0  0  0  0  0
   38.0620   32.8820   49.6390 C   0  0  0  0  0  0  0  0  0  0  0  0
   37.0130   31.9450   49.9990 C   0  0  0  0  0  0  0  0  0  0  0  0
   36.5960   31.0690   49.0560 C   0  0  0  0  0  0  0  0  0  0  0  0
   37.0850   31.0020   47.8040 C   0  0  0  0  0  0  0  0  0  0  0  0
   39.3600   33.5190   48.0850 H   0  0  0  0  0  0  0  0  0  0  0  0
   38.4740   33.6260   50.3090 H   0  0  0  0  0  0  0  0  0  0  0  0
   36.7320   32.1230   51.0130 H   0  0  0  0  0  0  0  0  0  0  0  0
   35.8480   30.4700   49.5500 H   0  0  0  0  0  0  0  0  0  0  0  0
   39.9960   31.2790   46.0070 C   0  0  0  0  0  0  0  0  0  0  0  0
   38.7340   31.9210   46.1290 C   0  0  0  0  0  0  0  0  0  0  0  0
   38.2640   32.4920   44.9720 C   0  0  0  0  0  0  0  0  0  0  0  0
   38.9770   32.4270   43.8290 N   0  0  0  0  0  0  0  0  0  0  0  0
   40.1390   31.8280   43.7400 C   0  0  0  0  0  0  0  0  0  0  0  0
   40.6480   31.2540   44.8270 N   0  0  0  0  0  0  0  0  0  0  0  0
   40.4300   30.8010   46.8960 H   0  0  0  0  0  0  0  0  0  0  0  0
   37.2930   32.9740   45.1190 H   0  0  0  0  0  0  0  0  0  0  0  0
   40.6180   31.8390   42.7680 H   0  0  0  0  0  0  0  0  0  0  0  0
   35.1530   29.9680   46.9490 C   0  0  0  0  0  0  0  0  0  0  0  0
   34.5090   30.6410   47.8490 O   0  0  0  0  0  0  0  0  0  0  0  0
   36.5990   30.1020   46.8880 N   0  0  0  0  0  0  0  0  0  0  0  0
   37.1840   29.5620   46.2150 H   0  0  0  0  0  0  0  0  0  0  0  0
   34.4560   29.1570   46.0930 O   0  0  0  0  0  0  0  0  0  0  0  0
   33.3460   29.5550   45.3570 C   0  0  0  0  0  0  0  0  0  0  0  0
   33.3320   30.6730   44.6650 O   0  0  0  0  0  0  0  0  0  0  0  0
   32.0960   28.7820   45.2470 C   0  0  0  0  0  0  0  0  0  0  0  0
   31.5980   28.0720   44.2360 C   0  0  0  0  0  0  0  0  0  0  0  0
   32.1650   28.0200   43.3170 H   0  0  0  0  0  0  0  0  0  0  0  0
   30.3970   27.4250   44.3620 C   0  0  0  0  0  3  0  0  0  0  0  0
   29.7560   27.5810   45.6360 C   0  0  0  0  0  3  0  0  0  0  0  0
   30.9910   28.6850   46.5660 S   0  0  0  0  0  0  0  0  0  0  0  0
  1  6  2  0  0  0  0
  1  2  1  0  0  0  0
  2  3  2  0  0  0  0
  3  4  1  0  0  0  0
  3  8  1  0  0  0  0
  4  9  1  0  0  0  0
  5 10  1  0  0  0  0
  5  4  2  0  0  0  0
  6  5  1  0  0  0  0
  7  2  1  0  0  0  0
 11 12  1  0  0  0  0
 11 17  1  0  0  0  0
 12  1  1  0  0  0  0
 13 18  1  0  0  0  0
 13 12  2  0  0  0  0
 14 13  1  0  0  0  0
 15 14  2  0  0  0  0
 15 16  1  0  0  0  0
 16 11  2  0  0  0  0
 19 15  1  0  0  0  0
 20 21  2  0  0  0  0
 22 20  1  0  0  0  0
 22  6  1  0  0  0  0
 23 22  1  0  0  0  0
 24 20  1  0  0  0  0
 25 24  1  0  0  0  0
 26 25  2  0  0  0  0
 27 25  1  0  0  0  0
 27 32  1  0  0  0  0
 28 30  1  0  0  0  0
 28 27  2  0  0  0  0
 29 28  1  0  0  0  0
 30 31  2  0  0  0  0
 31 32  1  0  0  0  0
M  END
>  <minimizedAffinity>
-5.18648863

>  <minimizedRMSD>
0.0944920778

$$$$
