
 OpenBabel03272500563D

 32 34  0  0  0  0  0  0  0  0999 V2000
   38.2480   31.9230   47.3960 C   0  0  0  0  0  0  0  0  0  0  0  0
   38.8090   32.7990   48.2780 C   0  0  0  0  0  0  0  0  0  0  0  0
   38.3850   32.8970   49.6090 C   0  0  0  0  0  0  0  0  0  0  0  0
   37.3080   32.0160   50.0220 C   0  0  0  0  0  0  0  0  0  0  0  0
   36.7930   31.1700   49.1010 C   0  0  0  0  0  0  0  0  0  0  0  0
   37.2080   31.0860   47.8230 C   0  0  0  0  0  0  0  0  0  0  0  0
   39.6280   33.4750   47.9870 H   0  0  0  0  0  0  0  0  0  0  0  0
   38.8730   33.6140   50.2570 H   0  0  0  0  0  0  0  0  0  0  0  0
   37.0940   32.2010   51.0520 H   0  0  0  0  0  0  0  0  0  0  0  0
   36.0430   30.6080   49.6340 H   0  0  0  0  0  0  0  0  0  0  0  0
   40.0430   31.2490   45.8750 C   0  0  0  0  0  0  0  0  0  0  0  0
   38.8080   31.9270   46.0630 C   0  0  0  0  0  0  0  0  0  0  0  0
   38.2910   32.5050   44.9300 C   0  0  0  0  0  0  0  0  0  0  0  0
   38.9370   32.4130   43.7500 N   0  0  0  0  0  0  0  0  0  0  0  0
   40.0750   31.7820   43.6000 C   0  0  0  0  0  0  0  0  0  0  0  0
   40.6280   31.2000   44.6620 N   0  0  0  0  0  0  0  0  0  0  0  0
   40.5120   30.7640   46.7420 H   0  0  0  0  0  0  0  0  0  0  0  0
   37.3430   33.0150   45.1260 H   0  0  0  0  0  0  0  0  0  0  0  0
   40.5010   31.7740   42.6030 H   0  0  0  0  0  0  0  0  0  0  0  0
   35.1960   30.0650   47.1570 C   0  0  0  0  0  0  0  0  0  0  0  0
   34.6590   30.6890   48.1560 O   0  0  0  0  0  0  0  0  0  0  0  0
   36.6230   30.2200   46.9320 N   0  0  0  0  0  0  0  0  0  0  0  0
   37.1300   29.7180   46.1720 H   0  0  0  0  0  0  0  0  0  0  0  0
   34.4090   29.2810   46.3550 O   0  0  0  0  0  0  0  0  0  0  0  0
   33.0280   29.4010   46.2460 C   0  0  0  0  0  0  0  0  0  0  0  0
   32.4650   30.2770   45.4430 O   0  0  0  0  0  0  0  0  0  0  0  0
   32.0580   28.5670   46.9770 C   0  0  0  0  0  0  0  0  0  0  0  0
   30.7320   28.4810   46.8750 C   0  0  0  0  0  0  0  0  0  0  0  0
   30.2320   29.1070   46.1480 H   0  0  0  0  0  0  0  0  0  0  0  0
   30.0240   27.6220   47.6720 C   0  0  0  0  0  3  0  0  0  0  0  0
   30.8190   26.8550   48.5890 C   0  0  0  0  0  3  0  0  0  0  0  0
   32.5730   27.4690   48.2010 S   0  0  0  0  0  0  0  0  0  0  0  0
  1  6  2  0  0  0  0
  1  2  1  0  0  0  0
  2  3  2  0  0  0  0
  3  4  1  0  0  0  0
  3  8  1  0  0  0  0
  4  9  1  0  0  0  0
  5 10  1  0  0  0  0
  5  4  2  0  0  0  0
  6  5  1  0  0  0  0
  7  2  1  0  0  0  0
 11 12  1  0  0  0  0
 11 17  1  0  0  0  0
 12  1  1  0  0  0  0
 13 18  1  0  0  0  0
 13 12  2  0  0  0  0
 14 13  1  0  0  0  0
 15 14  2  0  0  0  0
 15 16  1  0  0  0  0
 16 11  2  0  0  0  0
 19 15  1  0  0  0  0
 20 21  2  0  0  0  0
 22 20  1  0  0  0  0
 22  6  1  0  0  0  0
 23 22  1  0  0  0  0
 24 20  1  0  0  0  0
 25 24  1  0  0  0  0
 25 27  1  0  0  0  0
 26 25  2  0  0  0  0
 27 32  1  0  0  0  0
 28 27  2  0  0  0  0
 28 30  1  0  0  0  0
 29 28  1  0  0  0  0
 30 31  2  0  0  0  0
 32 31  1  0  0  0  0
M  END
>  <minimizedAffinity>
-5.73871088

>  <minimizedRMSD>
1.38135242

$$$$
