
 OpenBabel03272500593D

 32 34  0  0  0  0  0  0  0  0999 V2000
   33.6420   30.5930   35.5670 C   0  0  0  0  0  0  0  0  0  0  0  0
   33.2270   31.6510   36.3230 C   0  0  0  0  0  0  0  0  0  0  0  0
   34.1030   32.6530   36.7550 C   0  0  0  0  0  0  0  0  0  0  0  0
   35.4950   32.5240   36.3610 C   0  0  0  0  0  0  0  0  0  0  0  0
   35.8440   31.4540   35.6130 C   0  0  0  0  0  0  0  0  0  0  0  0
   34.9920   30.4940   35.2040 C   0  0  0  0  0  0  0  0  0  0  0  0
   32.1770   31.7690   36.6320 H   0  0  0  0  0  0  0  0  0  0  0  0
   33.7090   33.4650   37.3530 H   0  0  0  0  0  0  0  0  0  0  0  0
   36.0380   33.3520   36.7590 H   0  0  0  0  0  0  0  0  0  0  0  0
   36.8980   31.5830   35.4230 H   0  0  0  0  0  0  0  0  0  0  0  0
   32.1290   28.7730   36.1910 C   0  0  0  0  0  0  0  0  0  0  0  0
   32.6140   29.6520   35.1840 C   0  0  0  0  0  0  0  0  0  0  0  0
   32.0260   29.4960   33.9530 C   0  0  0  0  0  0  0  0  0  0  0  0
   31.0670   28.5690   33.7560 N   0  0  0  0  0  0  0  0  0  0  0  0
   30.6360   27.7690   34.6990 C   0  0  0  0  0  0  0  0  0  0  0  0
   31.1660   27.8710   35.9160 N   0  0  0  0  0  0  0  0  0  0  0  0
   32.5580   28.8440   37.2000 H   0  0  0  0  0  0  0  0  0  0  0  0
   32.4330   30.1930   33.2140 H   0  0  0  0  0  0  0  0  0  0  0  0
   29.8600   27.0640   34.4230 H   0  0  0  0  0  0  0  0  0  0  0  0
   35.6410   29.7540   33.0670 C   0  0  0  0  0  0  0  0  0  0  0  0
   35.3780   30.9600   32.6740 O   0  0  0  0  0  0  0  0  0  0  0  0
   35.4200   29.4190   34.4640 N   0  0  0  0  0  0  0  0  0  0  0  0
   35.5730   28.4600   34.8430 H   0  0  0  0  0  0  0  0  0  0  0  0
   36.1120   28.8410   32.1610 O   0  0  0  0  0  0  0  0  0  0  0  0
   36.7390   27.6460   32.4970 C   0  0  0  0  0  0  0  0  0  0  0  0
   37.7510   27.6020   33.3350 O   0  0  0  0  0  0  0  0  0  0  0  0
   36.3390   26.3220   31.9890 C   0  0  0  0  0  0  0  0  0  0  0  0
   35.3520   25.9670   31.1660 C   0  0  0  0  0  0  0  0  0  0  0  0
   34.7050   26.7400   30.7780 H   0  0  0  0  0  0  0  0  0  0  0  0
   35.1660   24.6540   30.8260 C   0  0  0  0  0  3  0  0  0  0  0  0
   36.1010   23.7380   31.4160 C   0  0  0  0  0  3  0  0  0  0  0  0
   37.1960   24.8990   32.4440 S   0  0  0  0  0  0  0  0  0  0  0  0
  1  2  1  0  0  0  0
  2  7  1  0  0  0  0
  2  3  2  0  0  0  0
  3  8  1  0  0  0  0
  4  3  1  0  0  0  0
  4  9  1  0  0  0  0
  5  4  2  0  0  0  0
  6  1  2  0  0  0  0
  6  5  1  0  0  0  0
 10  5  1  0  0  0  0
 11 17  1  0  0  0  0
 12  1  1  0  0  0  0
 12 11  2  0  0  0  0
 13 12  1  0  0  0  0
 14 13  2  0  0  0  0
 14 15  1  0  0  0  0
 15 16  2  0  0  0  0
 16 11  1  0  0  0  0
 18 13  1  0  0  0  0
 19 15  1  0  0  0  0
 20 22  1  0  0  0  0
 21 20  2  0  0  0  0
 22 23  1  0  0  0  0
 22  6  1  0  0  0  0
 24 25  1  0  0  0  0
 24 20  1  0  0  0  0
 25 26  2  0  0  0  0
 27 32  1  0  0  0  0
 27 25  1  0  0  0  0
 28 27  2  0  0  0  0
 29 28  1  0  0  0  0
 30 28  1  0  0  0  0
 30 31  2  0  0  0  0
 31 32  1  0  0  0  0
M  END
>  <minimizedAffinity>
-5.15770197

$$$$

 OpenBabel03272500593D

 32 34  0  0  0  0  0  0  0  0999 V2000
   37.1590   21.9780   33.2290 C   0  0  0  0  0  0  0  0  0  0  0  0
   36.3450   21.0100   33.7410 C   0  0  0  0  0  0  0  0  0  0  0  0
   35.2870   20.4560   33.0100 C   0  0  0  0  0  0  0  0  0  0  0  0
   35.0870   20.9570   31.6620 C   0  0  0  0  0  0  0  0  0  0  0  0
   35.9270   21.9170   31.2120 C   0  0  0  0  0  0  0  0  0  0  0  0
   36.9400   22.4430   31.9250 C   0  0  0  0  0  0  0  0  0  0  0  0
   36.4800   20.6140   34.7590 H   0  0  0  0  0  0  0  0  0  0  0  0
   34.6790   19.6910   33.4750 H   0  0  0  0  0  0  0  0  0  0  0  0
   34.2540   20.4470   31.2300 H   0  0  0  0  0  0  0  0  0  0  0  0
   35.6090   22.1070   30.1990 H   0  0  0  0  0  0  0  0  0  0  0  0
   39.5060   21.8620   33.9150 C   0  0  0  0  0  0  0  0  0  0  0  0
   38.2180   22.4350   34.1010 C   0  0  0  0  0  0  0  0  0  0  0  0
   38.1450   23.3730   35.1000 C   0  0  0  0  0  0  0  0  0  0  0  0
   39.2340   23.6970   35.8260 N   0  0  0  0  0  0  0  0  0  0  0  0
   40.4120   23.1560   35.6370 C   0  0  0  0  0  0  0  0  0  0  0  0
   40.5480   22.2390   34.6810 N   0  0  0  0  0  0  0  0  0  0  0  0
   39.6330   21.1030   33.1310 H   0  0  0  0  0  0  0  0  0  0  0  0
   37.1350   23.7820   35.2050 H   0  0  0  0  0  0  0  0  0  0  0  0
   41.2140   23.4970   36.2810 H   0  0  0  0  0  0  0  0  0  0  0  0
   37.1180   24.7460   31.4780 C   0  0  0  0  0  0  0  0  0  0  0  0
   35.9120   24.8330   31.9410 O   0  0  0  0  0  0  0  0  0  0  0  0
   37.7410   23.4350   31.4140 N   0  0  0  0  0  0  0  0  0  0  0  0
   38.6940   23.2840   31.0190 H   0  0  0  0  0  0  0  0  0  0  0  0
   37.7610   25.8830   31.0630 O   0  0  0  0  0  0  0  0  0  0  0  0
   37.8850   27.0410   31.8230 C   0  0  0  0  0  0  0  0  0  0  0  0
   37.6020   28.2280   31.3350 O   0  0  0  0  0  0  0  0  0  0  0  0
   38.3130   27.0730   33.2320 C   0  0  0  0  0  0  0  0  0  0  0  0
   39.5240   26.9560   33.7760 C   0  0  0  0  0  0  0  0  0  0  0  0
   40.3700   26.8110   33.1200 H   0  0  0  0  0  0  0  0  0  0  0  0
   39.6880   27.0170   35.1350 C   0  0  0  0  0  3  0  0  0  0  0  0
   38.4760   27.2130   35.8810 C   0  0  0  0  0  3  0  0  0  0  0  0
   37.1720   27.2920   34.5040 S   0  0  0  0  0  0  0  0  0  0  0  0
  1  2  1  0  0  0  0
  1 12  1  0  0  0  0
  2  7  1  0  0  0  0
  3  8  1  0  0  0  0
  3  2  2  0  0  0  0
  4  3  1  0  0  0  0
  5  4  2  0  0  0  0
  5  6  1  0  0  0  0
  6  1  2  0  0  0  0
  9  4  1  0  0  0  0
 10  5  1  0  0  0  0
 11 12  2  0  0  0  0
 11 16  1  0  0  0  0
 12 13  1  0  0  0  0
 13 18  1  0  0  0  0
 13 14  2  0  0  0  0
 15 14  1  0  0  0  0
 15 19  1  0  0  0  0
 16 15  2  0  0  0  0
 17 11  1  0  0  0  0
 20 21  2  0  0  0  0
 22 20  1  0  0  0  0
 22  6  1  0  0  0  0
 23 22  1  0  0  0  0
 24 20  1  0  0  0  0
 24 25  1  0  0  0  0
 25 27  1  0  0  0  0
 26 25  2  0  0  0  0
 27 28  2  0  0  0  0
 27 32  1  0  0  0  0
 28 30  1  0  0  0  0
 29 28  1  0  0  0  0
 30 31  2  0  0  0  0
 32 31  1  0  0  0  0
M  END
>  <minimizedAffinity>
-5.13138533

$$$$

 OpenBabel03272500593D

 32 34  0  0  0  0  0  0  0  0999 V2000
   36.5400   22.2110   32.1290 C   0  0  0  0  0  0  0  0  0  0  0  0
   35.4500   21.8200   31.4070 C   0  0  0  0  0  0  0  0  0  0  0  0
   34.8010   20.6000   31.6310 C   0  0  0  0  0  0  0  0  0  0  0  0
   35.3380   19.7530   32.6810 C   0  0  0  0  0  0  0  0  0  0  0  0
   36.4200   20.1960   33.3610 C   0  0  0  0  0  0  0  0  0  0  0  0
   37.0370   21.3710   33.1340 C   0  0  0  0  0  0  0  0  0  0  0  0
   35.0250   22.4470   30.6080 H   0  0  0  0  0  0  0  0  0  0  0  0
   33.9410   20.3500   31.0220 H   0  0  0  0  0  0  0  0  0  0  0  0
   34.7470   18.8660   32.7370 H   0  0  0  0  0  0  0  0  0  0  0  0
   36.6180   19.4290   34.0920 H   0  0  0  0  0  0  0  0  0  0  0  0
   37.9180   23.5800   30.6400 C   0  0  0  0  0  0  0  0  0  0  0  0
   37.0860   23.5060   31.7910 C   0  0  0  0  0  0  0  0  0  0  0  0
   36.8990   24.7000   32.4430 C   0  0  0  0  0  0  0  0  0  0  0  0
   37.4780   25.8320   31.9940 N   0  0  0  0  0  0  0  0  0  0  0  0
   38.2410   25.8770   30.9300 C   0  0  0  0  0  0  0  0  0  0  0  0
   38.4610   24.7520   30.2530 N   0  0  0  0  0  0  0  0  0  0  0  0
   38.1100   22.6600   30.0720 H   0  0  0  0  0  0  0  0  0  0  0  0
   36.2540   24.5900   33.3200 H   0  0  0  0  0  0  0  0  0  0  0  0
   38.6500   26.8440   30.6650 H   0  0  0  0  0  0  0  0  0  0  0  0
   37.8690   21.9350   35.2610 C   0  0  0  0  0  0  0  0  0  0  0  0
   36.6510   21.7810   35.6740 O   0  0  0  0  0  0  0  0  0  0  0  0
   38.1490   21.7490   33.8480 N   0  0  0  0  0  0  0  0  0  0  0  0
   39.0970   21.8940   33.4390 H   0  0  0  0  0  0  0  0  0  0  0  0
   38.8450   22.2700   36.1630 O   0  0  0  0  0  0  0  0  0  0  0  0
   38.9060   23.4780   36.8470 C   0  0  0  0  0  0  0  0  0  0  0  0
   38.9380   23.5350   38.1600 O   0  0  0  0  0  0  0  0  0  0  0  0
   38.9650   24.8020   36.2010 C   0  0  0  0  0  0  0  0  0  0  0  0
   38.2690   25.9140   36.4320 C   0  0  0  0  0  0  0  0  0  0  0  0
   37.5220   25.9000   37.2130 H   0  0  0  0  0  0  0  0  0  0  0  0
   38.4980   27.0460   35.6950 C   0  0  0  0  0  3  0  0  0  0  0  0
   39.5190   26.9190   34.6940 C   0  0  0  0  0  3  0  0  0  0  0  0
   40.0700   25.1160   34.9180 S   0  0  0  0  0  0  0  0  0  0  0  0
  1  6  1  0  0  0  0
  2  3  1  0  0  0  0
  2  1  2  0  0  0  0
  3  4  2  0  0  0  0
  4  9  1  0  0  0  0
  4  5  1  0  0  0  0
  5 10  1  0  0  0  0
  6  5  2  0  0  0  0
  6 22  1  0  0  0  0
  7  2  1  0  0  0  0
  8  3  1  0  0  0  0
 11 12  1  0  0  0  0
 12  1  1  0  0  0  0
 12 13  2  0  0  0  0
 13 18  1  0  0  0  0
 14 13  1  0  0  0  0
 15 14  2  0  0  0  0
 16 11  2  0  0  0  0
 16 15  1  0  0  0  0
 17 11  1  0  0  0  0
 19 15  1  0  0  0  0
 20 21  2  0  0  0  0
 20 24  1  0  0  0  0
 22 20  1  0  0  0  0
 23 22  1  0  0  0  0
 24 25  1  0  0  0  0
 25 26  2  0  0  0  0
 27 28  2  0  0  0  0
 27 25  1  0  0  0  0
 28 29  1  0  0  0  0
 30 28  1  0  0  0  0
 31 32  1  0  0  0  0
 31 30  2  0  0  0  0
 32 27  1  0  0  0  0
M  END
>  <minimizedAffinity>
-5.11849165

$$$$

 OpenBabel03272500593D

 32 34  0  0  0  0  0  0  0  0999 V2000
   37.7400   26.7060   34.0120 C   0  0  0  0  0  0  0  0  0  0  0  0
   37.2290   27.6020   34.9040 C   0  0  0  0  0  0  0  0  0  0  0  0
   36.4040   28.6630   34.5100 C   0  0  0  0  0  0  0  0  0  0  0  0
   36.1050   28.7730   33.0930 C   0  0  0  0  0  0  0  0  0  0  0  0
   36.6420   27.8530   32.2600 C   0  0  0  0  0  0  0  0  0  0  0  0
   37.4360   26.8390   32.6500 C   0  0  0  0  0  0  0  0  0  0  0  0
   37.4400   27.5370   35.9820 H   0  0  0  0  0  0  0  0  0  0  0  0
   36.0310   29.3400   35.2680 H   0  0  0  0  0  0  0  0  0  0  0  0
   35.4720   29.6200   32.9440 H   0  0  0  0  0  0  0  0  0  0  0  0
   36.2670   28.1150   31.2840 H   0  0  0  0  0  0  0  0  0  0  0  0
   39.9640   25.8740   34.6070 C   0  0  0  0  0  0  0  0  0  0  0  0
   38.5590   25.6560   34.5760 C   0  0  0  0  0  0  0  0  0  0  0  0
   38.1510   24.4560   35.1020 C   0  0  0  0  0  0  0  0  0  0  0  0
   39.0470   23.5780   35.6000 N   0  0  0  0  0  0  0  0  0  0  0  0
   40.3370   23.8010   35.6190 C   0  0  0  0  0  0  0  0  0  0  0  0
   40.7960   24.9480   35.1230 N   0  0  0  0  0  0  0  0  0  0  0  0
   40.3570   26.8150   34.2000 H   0  0  0  0  0  0  0  0  0  0  0  0
   37.0650   24.3360   35.0540 H   0  0  0  0  0  0  0  0  0  0  0  0
   40.9590   23.0220   36.0450 H   0  0  0  0  0  0  0  0  0  0  0  0
   37.0230   24.9210   31.3510 C   0  0  0  0  0  0  0  0  0  0  0  0
   35.8510   24.9160   31.9030 O   0  0  0  0  0  0  0  0  0  0  0  0
   37.9680   25.9520   31.7460 N   0  0  0  0  0  0  0  0  0  0  0  0
   38.9410   25.9950   31.3720 H   0  0  0  0  0  0  0  0  0  0  0  0
   37.3320   23.9610   30.4240 O   0  0  0  0  0  0  0  0  0  0  0  0
   37.5980   22.6300   30.7260 C   0  0  0  0  0  0  0  0  0  0  0  0
   38.7020   22.0330   30.3330 O   0  0  0  0  0  0  0  0  0  0  0  0
   36.7120   21.7600   31.5200 C   0  0  0  0  0  0  0  0  0  0  0  0
   35.5400   21.2030   31.2160 C   0  0  0  0  0  0  0  0  0  0  0  0
   35.1230   21.3870   30.2370 H   0  0  0  0  0  0  0  0  0  0  0  0
   34.8840   20.4180   32.1270 C   0  0  0  0  0  3  0  0  0  0  0  0
   35.5570   20.2610   33.3860 C   0  0  0  0  0  3  0  0  0  0  0  0
   37.1260   21.2990   33.1270 S   0  0  0  0  0  0  0  0  0  0  0  0
  1 12  1  0  0  0  0
  1  2  1  0  0  0  0
  2  7  1  0  0  0  0
  3  2  2  0  0  0  0
  3  8  1  0  0  0  0
  4  3  1  0  0  0  0
  5  6  1  0  0  0  0
  5  4  2  0  0  0  0
  6  1  2  0  0  0  0
  9  4  1  0  0  0  0
 10  5  1  0  0  0  0
 11 16  1  0  0  0  0
 12 11  2  0  0  0  0
 12 13  1  0  0  0  0
 13 14  2  0  0  0  0
 14 15  1  0  0  0  0
 15 19  1  0  0  0  0
 16 15  2  0  0  0  0
 17 11  1  0  0  0  0
 18 13  1  0  0  0  0
 20 22  1  0  0  0  0
 20 21  2  0  0  0  0
 22  6  1  0  0  0  0
 23 22  1  0  0  0  0
 24 25  1  0  0  0  0
 24 20  1  0  0  0  0
 25 27  1  0  0  0  0
 26 25  2  0  0  0  0
 27 32  1  0  0  0  0
 28 27  2  0  0  0  0
 28 30  1  0  0  0  0
 29 28  1  0  0  0  0
 30 31  2  0  0  0  0
 32 31  1  0  0  0  0
M  END
>  <minimizedAffinity>
-4.97890186

$$$$

 OpenBabel03272500593D

 32 34  0  0  0  0  0  0  0  0999 V2000
   37.1860   27.0510   32.7190 C   0  0  0  0  0  0  0  0  0  0  0  0
   36.9590   28.0330   31.8000 C   0  0  0  0  0  0  0  0  0  0  0  0
   36.3380   29.2430   32.1330 C   0  0  0  0  0  0  0  0  0  0  0  0
   35.9400   29.4180   33.5180 C   0  0  0  0  0  0  0  0  0  0  0  0
   36.1920   28.4080   34.3810 C   0  0  0  0  0  0  0  0  0  0  0  0
   36.7880   27.2480   34.0490 C   0  0  0  0  0  0  0  0  0  0  0  0
   37.2540   27.9230   30.7450 H   0  0  0  0  0  0  0  0  0  0  0  0
   36.1880   29.9810   31.3550 H   0  0  0  0  0  0  0  0  0  0  0  0
   35.4850   30.3780   33.6220 H   0  0  0  0  0  0  0  0  0  0  0  0
   35.8410   28.7690   35.3350 H   0  0  0  0  0  0  0  0  0  0  0  0
   37.0550   24.9060   31.5480 C   0  0  0  0  0  0  0  0  0  0  0  0
   37.8540   25.8680   32.2240 C   0  0  0  0  0  0  0  0  0  0  0  0
   39.1850   25.5490   32.3160 C   0  0  0  0  0  0  0  0  0  0  0  0
   39.6590   24.3990   31.7920 N   0  0  0  0  0  0  0  0  0  0  0  0
   38.9040   23.5270   31.1730 C   0  0  0  0  0  0  0  0  0  0  0  0
   37.6020   23.7790   31.0510 N   0  0  0  0  0  0  0  0  0  0  0  0
   35.9790   25.1000   31.4410 H   0  0  0  0  0  0  0  0  0  0  0  0
   39.7560   26.3190   32.8440 H   0  0  0  0  0  0  0  0  0  0  0  0
   39.3960   22.6390   30.7920 H   0  0  0  0  0  0  0  0  0  0  0  0
   38.1350   26.5130   35.8320 C   0  0  0  0  0  0  0  0  0  0  0  0
   38.8380   27.5790   35.6160 O   0  0  0  0  0  0  0  0  0  0  0  0
   36.9920   26.2520   34.9730 N   0  0  0  0  0  0  0  0  0  0  0  0
   36.4050   25.3960   35.0640 H   0  0  0  0  0  0  0  0  0  0  0  0
   38.4910   25.6710   36.8520 O   0  0  0  0  0  0  0  0  0  0  0  0
   38.3550   24.2870   36.8170 C   0  0  0  0  0  0  0  0  0  0  0  0
   37.1790   23.7010   36.8530 O   0  0  0  0  0  0  0  0  0  0  0  0
   39.4790   23.3400   36.7140 C   0  0  0  0  0  0  0  0  0  0  0  0
   40.1510   22.6810   37.6580 C   0  0  0  0  0  0  0  0  0  0  0  0
   39.8660   22.8300   38.6890 H   0  0  0  0  0  0  0  0  0  0  0  0
   41.1780   21.8390   37.3240 C   0  0  0  0  0  3  0  0  0  0  0  0
   41.4450   21.7390   35.9170 C   0  0  0  0  0  3  0  0  0  0  0  0
   40.1450   22.9120   35.1840 S   0  0  0  0  0  0  0  0  0  0  0  0
  1  6  1  0  0  0  0
  2  3  1  0  0  0  0
  2  1  2  0  0  0  0
  3  4  2  0  0  0  0
  4  9  1  0  0  0  0
  4  5  1  0  0  0  0
  5 10  1  0  0  0  0
  6  5  2  0  0  0  0
  6 22  1  0  0  0  0
  7  2  1  0  0  0  0
  8  3  1  0  0  0  0
 11 12  1  0  0  0  0
 12 13  2  0  0  0  0
 12  1  1  0  0  0  0
 13 18  1  0  0  0  0
 14 13  1  0  0  0  0
 15 14  2  0  0  0  0
 16 15  1  0  0  0  0
 16 11  2  0  0  0  0
 17 11  1  0  0  0  0
 19 15  1  0  0  0  0
 20 24  1  0  0  0  0
 21 20  2  0  0  0  0
 22 23  1  0  0  0  0
 22 20  1  0  0  0  0
 25 24  1  0  0  0  0
 25 26  2  0  0  0  0
 27 25  1  0  0  0  0
 27 28  2  0  0  0  0
 28 29  1  0  0  0  0
 30 28  1  0  0  0  0
 31 30  2  0  0  0  0
 32 31  1  0  0  0  0
 32 27  1  0  0  0  0
M  END
>  <minimizedAffinity>
-4.96177101

$$$$

 OpenBabel03272500593D

 32 34  0  0  0  0  0  0  0  0999 V2000
   40.0320   22.7380   36.8700 C   0  0  0  0  0  0  0  0  0  0  0  0
   39.8190   23.1200   38.1620 C   0  0  0  0  0  0  0  0  0  0  0  0
   38.5420   23.4160   38.6550 C   0  0  0  0  0  0  0  0  0  0  0  0
   37.4340   23.2950   37.7250 C   0  0  0  0  0  0  0  0  0  0  0  0
   37.7090   22.9120   36.4580 C   0  0  0  0  0  0  0  0  0  0  0  0
   38.9420   22.6330   35.9940 C   0  0  0  0  0  0  0  0  0  0  0  0
   40.6430   23.2170   38.8840 H   0  0  0  0  0  0  0  0  0  0  0  0
   38.4420   23.7140   39.6910 H   0  0  0  0  0  0  0  0  0  0  0  0
   36.5320   23.5490   38.2370 H   0  0  0  0  0  0  0  0  0  0  0  0
   36.7490   22.8660   35.9700 H   0  0  0  0  0  0  0  0  0  0  0  0
   41.8980   21.1550   36.8340 C   0  0  0  0  0  0  0  0  0  0  0  0
   41.4040   22.4500   36.5170 C   0  0  0  0  0  0  0  0  0  0  0  0
   42.3090   23.2750   35.8980 C   0  0  0  0  0  0  0  0  0  0  0  0
   43.5610   22.8510   35.6290 N   0  0  0  0  0  0  0  0  0  0  0  0
   43.9950   21.6520   35.9300 C   0  0  0  0  0  0  0  0  0  0  0  0
   43.1640   20.8040   36.5320 N   0  0  0  0  0  0  0  0  0  0  0  0
   41.2240   20.4440   37.3320 H   0  0  0  0  0  0  0  0  0  0  0  0
   41.8820   24.2580   35.6760 H   0  0  0  0  0  0  0  0  0  0  0  0
   45.0200   21.4240   35.6640 H   0  0  0  0  0  0  0  0  0  0  0  0
   39.2320   23.4170   33.7950 C   0  0  0  0  0  0  0  0  0  0  0  0
   39.0510   24.5980   34.2930 O   0  0  0  0  0  0  0  0  0  0  0  0
   39.1540   22.2710   34.6860 N   0  0  0  0  0  0  0  0  0  0  0  0
   39.2510   21.2900   34.3480 H   0  0  0  0  0  0  0  0  0  0  0  0
   39.4830   23.2860   32.4540 O   0  0  0  0  0  0  0  0  0  0  0  0
   38.5040   23.1360   31.4790 C   0  0  0  0  0  0  0  0  0  0  0  0
   38.5280   22.1470   30.6130 O   0  0  0  0  0  0  0  0  0  0  0  0
   37.3410   24.0270   31.3180 C   0  0  0  0  0  0  0  0  0  0  0  0
   36.0370   23.7560   31.2710 C   0  0  0  0  0  0  0  0  0  0  0  0
   35.7230   22.7260   31.3610 H   0  0  0  0  0  0  0  0  0  0  0  0
   35.1210   24.7610   31.1130 C   0  0  0  0  0  3  0  0  0  0  0  0
   35.6820   26.0790   31.0080 C   0  0  0  0  0  3  0  0  0  0  0  0
   37.5420   25.7300   31.1520 S   0  0  0  0  0  0  0  0  0  0  0  0
  1  2  1  0  0  0  0
  2  3  2  0  0  0  0
  2  7  1  0  0  0  0
  3  8  1  0  0  0  0
  4  9  1  0  0  0  0
  4  3  1  0  0  0  0
  5  4  2  0  0  0  0
  6  5  1  0  0  0  0
  6  1  2  0  0  0  0
 10  5  1  0  0  0  0
 11 17  1  0  0  0  0
 12 11  2  0  0  0  0
 12  1  1  0  0  0  0
 13 12  1  0  0  0  0
 14 13  2  0  0  0  0
 14 15  1  0  0  0  0
 15 16  2  0  0  0  0
 16 11  1  0  0  0  0
 18 13  1  0  0  0  0
 19 15  1  0  0  0  0
 20 21  2  0  0  0  0
 20 22  1  0  0  0  0
 22  6  1  0  0  0  0
 23 22  1  0  0  0  0
 24 20  1  0  0  0  0
 25 24  1  0  0  0  0
 26 25  2  0  0  0  0
 27 25  1  0  0  0  0
 28 27  2  0  0  0  0
 28 29  1  0  0  0  0
 30 28  1  0  0  0  0
 31 30  2  0  0  0  0
 31 32  1  0  0  0  0
 32 27  1  0  0  0  0
M  END
>  <minimizedAffinity>
-4.91298199

$$$$

 OpenBabel03272500593D

 32 34  0  0  0  0  0  0  0  0999 V2000
   37.1110   21.4360   31.1670 C   0  0  0  0  0  0  0  0  0  0  0  0
   36.1330   20.6100   30.6930 C   0  0  0  0  0  0  0  0  0  0  0  0
   36.2550   19.2150   30.7140 C   0  0  0  0  0  0  0  0  0  0  0  0
   37.4810   18.6710   31.2700 C   0  0  0  0  0  0  0  0  0  0  0  0
   38.4120   19.5400   31.7230 C   0  0  0  0  0  0  0  0  0  0  0  0
   38.2840   20.8800   31.6960 C   0  0  0  0  0  0  0  0  0  0  0  0
   35.1960   21.0010   30.2690 H   0  0  0  0  0  0  0  0  0  0  0  0
   35.4420   18.6180   30.3220 H   0  0  0  0  0  0  0  0  0  0  0  0
   37.4320   17.6050   31.2200 H   0  0  0  0  0  0  0  0  0  0  0  0
   39.2050   18.9190   32.1070 H   0  0  0  0  0  0  0  0  0  0  0  0
   35.5470   23.2820   31.5340 C   0  0  0  0  0  0  0  0  0  0  0  0
   36.8280   22.8520   31.0940 C   0  0  0  0  0  0  0  0  0  0  0  0
   37.6530   23.8570   30.6540 C   0  0  0  0  0  0  0  0  0  0  0  0
   37.2400   25.1410   30.6550 N   0  0  0  0  0  0  0  0  0  0  0  0
   36.0540   25.5150   31.0660 C   0  0  0  0  0  0  0  0  0  0  0  0
   35.2070   24.5860   31.5050 N   0  0  0  0  0  0  0  0  0  0  0  0
   34.8370   22.5270   31.8980 H   0  0  0  0  0  0  0  0  0  0  0  0
   38.6250   23.4750   30.3260 H   0  0  0  0  0  0  0  0  0  0  0  0
   35.8350   26.5750   31.0210 H   0  0  0  0  0  0  0  0  0  0  0  0
   39.1530   22.0100   33.5670 C   0  0  0  0  0  0  0  0  0  0  0  0
   38.1350   21.5330   34.2100 O   0  0  0  0  0  0  0  0  0  0  0  0
   39.2810   21.7080   32.1520 N   0  0  0  0  0  0  0  0  0  0  0  0
   40.0530   22.0890   31.5640 H   0  0  0  0  0  0  0  0  0  0  0  0
   40.0660   22.7820   34.2370 O   0  0  0  0  0  0  0  0  0  0  0  0
   40.3950   22.6300   35.5790 C   0  0  0  0  0  0  0  0  0  0  0  0
   41.4770   21.9900   35.9640 O   0  0  0  0  0  0  0  0  0  0  0  0
   39.6050   23.1720   36.6990 C   0  0  0  0  0  0  0  0  0  0  0  0
   39.6370   22.8930   38.0020 C   0  0  0  0  0  0  0  0  0  0  0  0
   40.3410   22.1510   38.3510 H   0  0  0  0  0  0  0  0  0  0  0  0
   38.7950   23.5310   38.8730 C   0  0  0  0  0  3  0  0  0  0  0  0
   37.9150   24.4910   38.2690 C   0  0  0  0  0  3  0  0  0  0  0  0
   38.4010   24.3760   36.4380 S   0  0  0  0  0  0  0  0  0  0  0  0
  1  6  1  0  0  0  0
  2  3  1  0  0  0  0
  2  1  2  0  0  0  0
  3  4  2  0  0  0  0
  4  5  1  0  0  0  0
  5 10  1  0  0  0  0
  6  5  2  0  0  0  0
  6 22  1  0  0  0  0
  7  2  1  0  0  0  0
  8  3  1  0  0  0  0
  9  4  1  0  0  0  0
 11 17  1  0  0  0  0
 12  1  1  0  0  0  0
 12 11  2  0  0  0  0
 13 14  2  0  0  0  0
 13 12  1  0  0  0  0
 14 15  1  0  0  0  0
 15 16  2  0  0  0  0
 16 11  1  0  0  0  0
 18 13  1  0  0  0  0
 19 15  1  0  0  0  0
 20 21  2  0  0  0  0
 20 24  1  0  0  0  0
 22 20  1  0  0  0  0
 23 22  1  0  0  0  0
 24 25  1  0  0  0  0
 25 26  2  0  0  0  0
 25 27  1  0  0  0  0
 27 28  2  0  0  0  0
 28 29  1  0  0  0  0
 28 30  1  0  0  0  0
 31 30  2  0  0  0  0
 32 27  1  0  0  0  0
 32 31  1  0  0  0  0
M  END
>  <minimizedAffinity>
-4.91098166

$$$$

 OpenBabel03272500593D

 32 34  0  0  0  0  0  0  0  0999 V2000
   39.7650   23.4320   36.3420 C   0  0  0  0  0  0  0  0  0  0  0  0
   39.9350   22.9860   37.6200 C   0  0  0  0  0  0  0  0  0  0  0  0
   39.0150   23.2600   38.6390 C   0  0  0  0  0  0  0  0  0  0  0  0
   37.8500   24.0480   38.2780 C   0  0  0  0  0  0  0  0  0  0  0  0
   37.7380   24.4610   36.9950 C   0  0  0  0  0  0  0  0  0  0  0  0
   38.6310   24.1930   36.0240 C   0  0  0  0  0  0  0  0  0  0  0  0
   40.8100   22.3860   37.9160 H   0  0  0  0  0  0  0  0  0  0  0  0
   39.2100   22.8760   39.6320 H   0  0  0  0  0  0  0  0  0  0  0  0
   37.2430   24.1750   39.1470 H   0  0  0  0  0  0  0  0  0  0  0  0
   36.8010   24.9930   36.9590 H   0  0  0  0  0  0  0  0  0  0  0  0
   41.9550   23.8660   35.3420 C   0  0  0  0  0  0  0  0  0  0  0  0
   40.7930   23.0500   35.4000 C   0  0  0  0  0  0  0  0  0  0  0  0
   40.7980   21.9780   34.5430 C   0  0  0  0  0  0  0  0  0  0  0  0
   41.8460   21.7520   33.7240 N   0  0  0  0  0  0  0  0  0  0  0  0
   42.9080   22.5180   33.6870 C   0  0  0  0  0  0  0  0  0  0  0  0
   42.9630   23.5740   34.4950 N   0  0  0  0  0  0  0  0  0  0  0  0
   42.0150   24.7420   36.0020 H   0  0  0  0  0  0  0  0  0  0  0  0
   39.8840   21.3830   34.6260 H   0  0  0  0  0  0  0  0  0  0  0  0
   43.6870   22.2370   32.9890 H   0  0  0  0  0  0  0  0  0  0  0  0
   38.8990   26.0430   34.5970 C   0  0  0  0  0  0  0  0  0  0  0  0
   39.3270   26.6710   35.6460 O   0  0  0  0  0  0  0  0  0  0  0  0
   38.4670   24.6640   34.7440 N   0  0  0  0  0  0  0  0  0  0  0  0
   38.0760   24.1100   33.9520 H   0  0  0  0  0  0  0  0  0  0  0  0
   38.8650   26.6970   33.3930 O   0  0  0  0  0  0  0  0  0  0  0  0
   37.7030   26.9930   32.6890 C   0  0  0  0  0  0  0  0  0  0  0  0
   37.3280   26.2980   31.6380 O   0  0  0  0  0  0  0  0  0  0  0  0
   36.7670   28.0760   33.0410 C   0  0  0  0  0  0  0  0  0  0  0  0
   36.2600   28.4390   34.2190 C   0  0  0  0  0  0  0  0  0  0  0  0
   36.5500   27.8800   35.0970 H   0  0  0  0  0  0  0  0  0  0  0  0
   35.3920   29.4950   34.3090 C   0  0  0  0  0  3  0  0  0  0  0  0
   35.0980   30.1430   33.0620 C   0  0  0  0  0  3  0  0  0  0  0  0
   36.1360   29.1320   31.8360 S   0  0  0  0  0  0  0  0  0  0  0  0
  1  2  1  0  0  0  0
  2  7  1  0  0  0  0
  2  3  2  0  0  0  0
  3  8  1  0  0  0  0
  4  3  1  0  0  0  0
  4  9  1  0  0  0  0
  5  4  2  0  0  0  0
  6  1  2  0  0  0  0
  6  5  1  0  0  0  0
 10  5  1  0  0  0  0
 11 12  1  0  0  0  0
 11 17  1  0  0  0  0
 12  1  1  0  0  0  0
 13 18  1  0  0  0  0
 13 12  2  0  0  0  0
 14 13  1  0  0  0  0
 15 14  2  0  0  0  0
 15 16  1  0  0  0  0
 16 11  2  0  0  0  0
 19 15  1  0  0  0  0
 20 22  1  0  0  0  0
 20 21  2  0  0  0  0
 22  6  1  0  0  0  0
 23 22  1  0  0  0  0
 24 20  1  0  0  0  0
 25 27  1  0  0  0  0
 25 24  1  0  0  0  0
 26 25  2  0  0  0  0
 27 28  2  0  0  0  0
 28 30  1  0  0  0  0
 28 29  1  0  0  0  0
 31 30  2  0  0  0  0
 32 27  1  0  0  0  0
 32 31  1  0  0  0  0
M  END
>  <minimizedAffinity>
-4.90977573

$$$$

 OpenBabel03272500593D

 32 34  0  0  0  0  0  0  0  0999 V2000
   37.1410   22.1050   33.2230 C   0  0  0  0  0  0  0  0  0  0  0  0
   36.3990   21.1160   33.7990 C   0  0  0  0  0  0  0  0  0  0  0  0
   35.3640   20.4610   33.1190 C   0  0  0  0  0  0  0  0  0  0  0  0
   35.1080   20.8800   31.7530 C   0  0  0  0  0  0  0  0  0  0  0  0
   35.8770   21.8660   31.2380 C   0  0  0  0  0  0  0  0  0  0  0  0
   36.8680   22.4890   31.9030 C   0  0  0  0  0  0  0  0  0  0  0  0
   36.5770   20.7810   34.8330 H   0  0  0  0  0  0  0  0  0  0  0  0
   34.8140   19.6850   33.6350 H   0  0  0  0  0  0  0  0  0  0  0  0
   34.3000   20.2990   31.3660 H   0  0  0  0  0  0  0  0  0  0  0  0
   35.5290   21.9850   30.2250 H   0  0  0  0  0  0  0  0  0  0  0  0
   39.4330   21.9900   34.0720 C   0  0  0  0  0  0  0  0  0  0  0  0
   38.1850   22.6700   34.0480 C   0  0  0  0  0  0  0  0  0  0  0  0
   38.1320   23.8020   34.8210 C   0  0  0  0  0  0  0  0  0  0  0  0
   39.2040   24.2050   35.5340 N   0  0  0  0  0  0  0  0  0  0  0  0
   40.3450   23.5630   35.5400 C   0  0  0  0  0  0  0  0  0  0  0  0
   40.4610   22.4560   34.8100 N   0  0  0  0  0  0  0  0  0  0  0  0
   39.5430   21.0740   33.4740 H   0  0  0  0  0  0  0  0  0  0  0  0
   37.1520   24.2870   34.7700 H   0  0  0  0  0  0  0  0  0  0  0  0
   41.1370   23.9810   36.1510 H   0  0  0  0  0  0  0  0  0  0  0  0
   36.8930   24.7720   31.3360 C   0  0  0  0  0  0  0  0  0  0  0  0
   35.6910   24.8080   31.8180 O   0  0  0  0  0  0  0  0  0  0  0  0
   37.5970   23.5010   31.3260 N   0  0  0  0  0  0  0  0  0  0  0  0
   38.5500   23.3900   30.9200 H   0  0  0  0  0  0  0  0  0  0  0  0
   37.4550   25.9240   30.8510 O   0  0  0  0  0  0  0  0  0  0  0  0
   37.9410   26.9590   31.6420 C   0  0  0  0  0  0  0  0  0  0  0  0
   39.2250   27.2270   31.7270 O   0  0  0  0  0  0  0  0  0  0  0  0
   37.0980   27.8680   32.4390 C   0  0  0  0  0  0  0  0  0  0  0  0
   36.7710   27.8430   33.7310 C   0  0  0  0  0  0  0  0  0  0  0  0
   37.1630   27.0440   34.3440 H   0  0  0  0  0  0  0  0  0  0  0  0
   35.9590   28.8080   34.2640 C   0  0  0  0  0  3  0  0  0  0  0  0
   35.5150   29.8060   33.3320 C   0  0  0  0  0  3  0  0  0  0  0  0
   36.3390   29.2370   31.7200 S   0  0  0  0  0  0  0  0  0  0  0  0
  1  2  1  0  0  0  0
  1 12  1  0  0  0  0
  2  7  1  0  0  0  0
  3  8  1  0  0  0  0
  3  2  2  0  0  0  0
  4  3  1  0  0  0  0
  5  4  2  0  0  0  0
  5  6  1  0  0  0  0
  6  1  2  0  0  0  0
  9  4  1  0  0  0  0
 10  5  1  0  0  0  0
 11 16  1  0  0  0  0
 12 11  2  0  0  0  0
 12 13  1  0  0  0  0
 13 14  2  0  0  0  0
 14 15  1  0  0  0  0
 15 19  1  0  0  0  0
 16 15  2  0  0  0  0
 17 11  1  0  0  0  0
 18 13  1  0  0  0  0
 20 21  2  0  0  0  0
 22 20  1  0  0  0  0
 22  6  1  0  0  0  0
 23 22  1  0  0  0  0
 24 20  1  0  0  0  0
 24 25  1  0  0  0  0
 25 26  2  0  0  0  0
 25 27  1  0  0  0  0
 27 28  2  0  0  0  0
 28 30  1  0  0  0  0
 28 29  1  0  0  0  0
 31 30  2  0  0  0  0
 32 27  1  0  0  0  0
 32 31  1  0  0  0  0
M  END
>  <minimizedAffinity>
-4.87967348

$$$$
