
 OpenBabel03272500563D

 32 34  0  0  0  0  0  0  0  0999 V2000
   38.1550   31.8710   47.3920 C   0  0  0  0  0  0  0  0  0  0  0  0
   38.6730   32.7390   48.3080 C   0  0  0  0  0  0  0  0  0  0  0  0
   38.2030   32.8080   49.6260 C   0  0  0  0  0  0  0  0  0  0  0  0
   37.1270   31.9030   49.9870 C   0  0  0  0  0  0  0  0  0  0  0  0
   36.6560   31.0670   49.0350 C   0  0  0  0  0  0  0  0  0  0  0  0
   37.1140   31.0110   47.7700 C   0  0  0  0  0  0  0  0  0  0  0  0
   39.4910   33.4320   48.0570 H   0  0  0  0  0  0  0  0  0  0  0  0
   38.6580   33.5190   50.3030 H   0  0  0  0  0  0  0  0  0  0  0  0
   36.8760   32.0670   51.0120 H   0  0  0  0  0  0  0  0  0  0  0  0
   35.8960   30.4850   49.5320 H   0  0  0  0  0  0  0  0  0  0  0  0
   40.0090   31.2480   45.9210 C   0  0  0  0  0  0  0  0  0  0  0  0
   38.7590   31.9070   46.0790 C   0  0  0  0  0  0  0  0  0  0  0  0
   38.2730   32.5000   44.9410 C   0  0  0  0  0  0  0  0  0  0  0  0
   38.9600   32.4380   43.7810 N   0  0  0  0  0  0  0  0  0  0  0  0
   40.1100   31.8240   43.6590 C   0  0  0  0  0  0  0  0  0  0  0  0
   40.6350   31.2280   44.7280 N   0  0  0  0  0  0  0  0  0  0  0  0
   40.4550   30.7530   46.7950 H   0  0  0  0  0  0  0  0  0  0  0  0
   37.3120   32.9940   45.1140 H   0  0  0  0  0  0  0  0  0  0  0  0
   40.5680   31.8390   42.6770 H   0  0  0  0  0  0  0  0  0  0  0  0
   35.1320   30.0230   46.9790 C   0  0  0  0  0  0  0  0  0  0  0  0
   34.5420   30.6600   47.9400 O   0  0  0  0  0  0  0  0  0  0  0  0
   36.5730   30.1530   46.8450 N   0  0  0  0  0  0  0  0  0  0  0  0
   37.1180   29.6400   46.1190 H   0  0  0  0  0  0  0  0  0  0  0  0
   34.3840   29.2510   46.1290 O   0  0  0  0  0  0  0  0  0  0  0  0
   33.1420   29.6130   45.6210 C   0  0  0  0  0  0  0  0  0  0  0  0
   33.0180   30.3290   44.5250 O   0  0  0  0  0  0  0  0  0  0  0  0
   31.8510   29.2280   46.2180 C   0  0  0  0  0  0  0  0  0  0  0  0
   30.6220   29.7030   46.0160 C   0  0  0  0  0  0  0  0  0  0  0  0
   30.4940   30.5050   45.3030 H   0  0  0  0  0  0  0  0  0  0  0  0
   29.5530   29.1840   46.6940 C   0  0  0  0  0  3  0  0  0  0  0  0
   29.8730   28.1240   47.6080 C   0  0  0  0  0  3  0  0  0  0  0  0
   31.7530   27.9710   47.3920 S   0  0  0  0  0  0  0  0  0  0  0  0
  1  6  2  0  0  0  0
  1  2  1  0  0  0  0
  2  3  2  0  0  0  0
  3  4  1  0  0  0  0
  3  8  1  0  0  0  0
  4  9  1  0  0  0  0
  5 10  1  0  0  0  0
  5  4  2  0  0  0  0
  6  5  1  0  0  0  0
  7  2  1  0  0  0  0
 11 12  1  0  0  0  0
 11 17  1  0  0  0  0
 12  1  1  0  0  0  0
 13 18  1  0  0  0  0
 13 12  2  0  0  0  0
 14 13  1  0  0  0  0
 15 14  2  0  0  0  0
 15 16  1  0  0  0  0
 16 11  2  0  0  0  0
 19 15  1  0  0  0  0
 20 21  2  0  0  0  0
 22 20  1  0  0  0  0
 22  6  1  0  0  0  0
 23 22  1  0  0  0  0
 24 20  1  0  0  0  0
 25 24  1  0  0  0  0
 25 27  1  0  0  0  0
 26 25  2  0  0  0  0
 27 32  1  0  0  0  0
 28 27  2  0  0  0  0
 28 30  1  0  0  0  0
 29 28  1  0  0  0  0
 30 31  2  0  0  0  0
 32 31  1  0  0  0  0
M  END
>  <minimizedAffinity>
-5.61691761

>  <minimizedRMSD>
1.03039753

$$$$
