
 OpenBabel03272500563D

 32 34  0  0  0  0  0  0  0  0999 V2000
   38.1550   31.8710   47.3930 C   0  0  0  0  0  0  0  0  0  0  0  0
   38.6730   32.7390   48.3090 C   0  0  0  0  0  0  0  0  0  0  0  0
   38.2030   32.8080   49.6260 C   0  0  0  0  0  0  0  0  0  0  0  0
   37.1270   31.9030   49.9880 C   0  0  0  0  0  0  0  0  0  0  0  0
   36.6560   31.0670   49.0350 C   0  0  0  0  0  0  0  0  0  0  0  0
   37.1140   31.0110   47.7710 C   0  0  0  0  0  0  0  0  0  0  0  0
   39.4900   33.4330   48.0570 H   0  0  0  0  0  0  0  0  0  0  0  0
   38.6580   33.5200   50.3030 H   0  0  0  0  0  0  0  0  0  0  0  0
   36.8750   32.0670   51.0120 H   0  0  0  0  0  0  0  0  0  0  0  0
   35.8970   30.4840   49.5320 H   0  0  0  0  0  0  0  0  0  0  0  0
   40.0090   31.2470   45.9220 C   0  0  0  0  0  0  0  0  0  0  0  0
   38.7600   31.9070   46.0800 C   0  0  0  0  0  0  0  0  0  0  0  0
   38.2740   32.5000   44.9410 C   0  0  0  0  0  0  0  0  0  0  0  0
   38.9610   32.4380   43.7820 N   0  0  0  0  0  0  0  0  0  0  0  0
   40.1110   31.8230   43.6590 C   0  0  0  0  0  0  0  0  0  0  0  0
   40.6350   31.2280   44.7280 N   0  0  0  0  0  0  0  0  0  0  0  0
   40.4550   30.7520   46.7960 H   0  0  0  0  0  0  0  0  0  0  0  0
   37.3130   32.9940   45.1150 H   0  0  0  0  0  0  0  0  0  0  0  0
   40.5690   31.8390   42.6780 H   0  0  0  0  0  0  0  0  0  0  0  0
   35.1320   30.0220   46.9790 C   0  0  0  0  0  0  0  0  0  0  0  0
   34.5420   30.6600   47.9400 O   0  0  0  0  0  0  0  0  0  0  0  0
   36.5730   30.1520   46.8460 N   0  0  0  0  0  0  0  0  0  0  0  0
   37.1190   29.6390   46.1200 H   0  0  0  0  0  0  0  0  0  0  0  0
   34.3850   29.2500   46.1290 O   0  0  0  0  0  0  0  0  0  0  0  0
   33.1420   29.6120   45.6210 C   0  0  0  0  0  0  0  0  0  0  0  0
   33.0190   30.3280   44.5250 O   0  0  0  0  0  0  0  0  0  0  0  0
   31.8520   29.2280   46.2180 C   0  0  0  0  0  0  0  0  0  0  0  0
   30.6230   29.7030   46.0160 C   0  0  0  0  0  0  0  0  0  0  0  0
   30.4950   30.5050   45.3040 H   0  0  0  0  0  0  0  0  0  0  0  0
   29.5530   29.1840   46.6940 C   0  0  0  0  0  3  0  0  0  0  0  0
   29.8740   28.1230   47.6080 C   0  0  0  0  0  3  0  0  0  0  0  0
   31.7540   27.9700   47.3920 S   0  0  0  0  0  0  0  0  0  0  0  0
  1  6  2  0  0  0  0
  1  2  1  0  0  0  0
  2  3  2  0  0  0  0
  3  4  1  0  0  0  0
  3  8  1  0  0  0  0
  4  9  1  0  0  0  0
  5 10  1  0  0  0  0
  5  4  2  0  0  0  0
  6  5  1  0  0  0  0
  7  2  1  0  0  0  0
 11 12  1  0  0  0  0
 11 17  1  0  0  0  0
 12  1  1  0  0  0  0
 13 18  1  0  0  0  0
 13 12  2  0  0  0  0
 14 13  1  0  0  0  0
 15 14  2  0  0  0  0
 15 16  1  0  0  0  0
 16 11  2  0  0  0  0
 19 15  1  0  0  0  0
 20 21  2  0  0  0  0
 22 20  1  0  0  0  0
 22  6  1  0  0  0  0
 23 22  1  0  0  0  0
 24 20  1  0  0  0  0
 25 24  1  0  0  0  0
 25 27  1  0  0  0  0
 26 25  2  0  0  0  0
 27 32  1  0  0  0  0
 28 27  2  0  0  0  0
 28 30  1  0  0  0  0
 29 28  1  0  0  0  0
 30 31  2  0  0  0  0
 32 31  1  0  0  0  0
M  END
>  <minimizedAffinity>
-5.61350298

>  <minimizedRMSD>
1.06869292

$$$$
