
 OpenBabel03272500563D

 32 34  0  0  0  0  0  0  0  0999 V2000
   38.1560   31.8870   47.4080 C   0  0  0  0  0  0  0  0  0  0  0  0
   38.6710   32.7680   48.3120 C   0  0  0  0  0  0  0  0  0  0  0  0
   38.2050   32.8500   49.6300 C   0  0  0  0  0  0  0  0  0  0  0  0
   37.1350   31.9430   50.0060 C   0  0  0  0  0  0  0  0  0  0  0  0
   36.6660   31.0920   49.0650 C   0  0  0  0  0  0  0  0  0  0  0  0
   37.1210   31.0250   47.8000 C   0  0  0  0  0  0  0  0  0  0  0  0
   39.4830   33.4640   48.0500 H   0  0  0  0  0  0  0  0  0  0  0  0
   38.6570   33.5730   50.2970 H   0  0  0  0  0  0  0  0  0  0  0  0
   36.8860   32.1180   51.0290 H   0  0  0  0  0  0  0  0  0  0  0  0
   35.9120   30.5110   49.5710 H   0  0  0  0  0  0  0  0  0  0  0  0
   40.0070   31.2520   45.9380 C   0  0  0  0  0  0  0  0  0  0  0  0
   38.7560   31.9110   46.0940 C   0  0  0  0  0  0  0  0  0  0  0  0
   38.2650   32.4900   44.9500 C   0  0  0  0  0  0  0  0  0  0  0  0
   38.9480   32.4180   43.7890 N   0  0  0  0  0  0  0  0  0  0  0  0
   40.1000   31.8050   43.6690 C   0  0  0  0  0  0  0  0  0  0  0  0
   40.6290   31.2220   44.7430 N   0  0  0  0  0  0  0  0  0  0  0  0
   40.4560   30.7670   46.8150 H   0  0  0  0  0  0  0  0  0  0  0  0
   37.3040   32.9840   45.1220 H   0  0  0  0  0  0  0  0  0  0  0  0
   40.5550   31.8120   42.6860 H   0  0  0  0  0  0  0  0  0  0  0  0
   35.1430   30.0130   47.0270 C   0  0  0  0  0  0  0  0  0  0  0  0
   34.5530   30.6560   47.9840 O   0  0  0  0  0  0  0  0  0  0  0  0
   36.5830   30.1520   46.8860 N   0  0  0  0  0  0  0  0  0  0  0  0
   37.1290   29.6340   46.1650 H   0  0  0  0  0  0  0  0  0  0  0  0
   34.3980   29.2260   46.1890 O   0  0  0  0  0  0  0  0  0  0  0  0
   33.0990   29.5120   45.7860 C   0  0  0  0  0  0  0  0  0  0  0  0
   32.8430   30.2540   44.7320 O   0  0  0  0  0  0  0  0  0  0  0  0
   31.8870   29.0110   46.4580 C   0  0  0  0  0  0  0  0  0  0  0  0
   30.6030   29.3200   46.2830 C   0  0  0  0  0  0  0  0  0  0  0  0
   30.3510   30.0570   45.5330 H   0  0  0  0  0  0  0  0  0  0  0  0
   29.6300   28.7170   47.0350 C   0  0  0  0  0  3  0  0  0  0  0  0
   30.1120   27.7590   47.9900 C   0  0  0  0  0  3  0  0  0  0  0  0
   31.9870   27.8220   47.7020 S   0  0  0  0  0  0  0  0  0  0  0  0
  1  6  2  0  0  0  0
  1  2  1  0  0  0  0
  2  3  2  0  0  0  0
  3  4  1  0  0  0  0
  3  8  1  0  0  0  0
  4  9  1  0  0  0  0
  5 10  1  0  0  0  0
  5  4  2  0  0  0  0
  6  5  1  0  0  0  0
  7  2  1  0  0  0  0
 11 12  1  0  0  0  0
 11 17  1  0  0  0  0
 12  1  1  0  0  0  0
 13 18  1  0  0  0  0
 13 12  2  0  0  0  0
 14 13  1  0  0  0  0
 15 14  2  0  0  0  0
 15 16  1  0  0  0  0
 16 11  2  0  0  0  0
 19 15  1  0  0  0  0
 20 21  2  0  0  0  0
 22 20  1  0  0  0  0
 22  6  1  0  0  0  0
 23 22  1  0  0  0  0
 24 20  1  0  0  0  0
 25 24  1  0  0  0  0
 25 27  1  0  0  0  0
 26 25  2  0  0  0  0
 27 32  1  0  0  0  0
 28 27  2  0  0  0  0
 28 30  1  0  0  0  0
 29 28  1  0  0  0  0
 30 31  2  0  0  0  0
 32 31  1  0  0  0  0
M  END
>  <minimizedAffinity>
-5.62413597

>  <minimizedRMSD>
1.13144743

$$$$
