
 OpenBabel03272500573D

 32 34  0  0  0  0  0  0  0  0999 V2000
   38.1580   31.8940   47.4210 C   0  0  0  0  0  0  0  0  0  0  0  0
   38.6640   32.7940   48.3120 C   0  0  0  0  0  0  0  0  0  0  0  0
   38.2020   32.8830   49.6310 C   0  0  0  0  0  0  0  0  0  0  0  0
   37.1480   31.9650   50.0220 C   0  0  0  0  0  0  0  0  0  0  0  0
   36.6880   31.0960   49.0930 C   0  0  0  0  0  0  0  0  0  0  0  0
   37.1380   31.0210   47.8260 C   0  0  0  0  0  0  0  0  0  0  0  0
   39.4640   33.4980   48.0380 H   0  0  0  0  0  0  0  0  0  0  0  0
   38.6460   33.6200   50.2880 H   0  0  0  0  0  0  0  0  0  0  0  0
   36.9000   32.1470   51.0440 H   0  0  0  0  0  0  0  0  0  0  0  0
   35.9450   30.5100   49.6090 H   0  0  0  0  0  0  0  0  0  0  0  0
   40.0010   31.2520   45.9440 C   0  0  0  0  0  0  0  0  0  0  0  0
   38.7520   31.9120   46.1030 C   0  0  0  0  0  0  0  0  0  0  0  0
   38.2560   32.4880   44.9590 C   0  0  0  0  0  0  0  0  0  0  0  0
   38.9330   32.4100   43.7960 N   0  0  0  0  0  0  0  0  0  0  0  0
   40.0830   31.7950   43.6730 C   0  0  0  0  0  0  0  0  0  0  0  0
   40.6170   31.2160   44.7460 N   0  0  0  0  0  0  0  0  0  0  0  0
   40.4540   30.7700   46.8210 H   0  0  0  0  0  0  0  0  0  0  0  0
   37.2960   32.9830   45.1340 H   0  0  0  0  0  0  0  0  0  0  0  0
   40.5340   31.7980   42.6870 H   0  0  0  0  0  0  0  0  0  0  0  0
   35.1660   30.0030   47.0460 C   0  0  0  0  0  0  0  0  0  0  0  0
   34.5650   30.6730   47.9770 O   0  0  0  0  0  0  0  0  0  0  0  0
   36.6090   30.1300   46.9260 N   0  0  0  0  0  0  0  0  0  0  0  0
   37.1630   29.5920   46.2250 H   0  0  0  0  0  0  0  0  0  0  0  0
   34.4300   29.2010   46.2150 O   0  0  0  0  0  0  0  0  0  0  0  0
   33.0500   29.2810   46.0600 C   0  0  0  0  0  0  0  0  0  0  0  0
   32.4970   29.9850   45.0970 O   0  0  0  0  0  0  0  0  0  0  0  0
   32.0720   28.5860   46.9150 C   0  0  0  0  0  0  0  0  0  0  0  0
   32.2460   27.8310   47.9990 C   0  0  0  0  0  0  0  0  0  0  0  0
   33.2520   27.6680   48.3560 H   0  0  0  0  0  0  0  0  0  0  0  0
   31.1700   27.2780   48.6440 C   0  0  0  0  0  3  0  0  0  0  0  0
   29.8940   27.5800   48.0590 C   0  0  0  0  0  3  0  0  0  0  0  0
   30.3830   28.6710   46.5840 S   0  0  0  0  0  0  0  0  0  0  0  0
  1  6  2  0  0  0  0
  1  2  1  0  0  0  0
  2  3  2  0  0  0  0
  3  4  1  0  0  0  0
  3  8  1  0  0  0  0
  4  9  1  0  0  0  0
  5 10  1  0  0  0  0
  5  4  2  0  0  0  0
  6  5  1  0  0  0  0
  7  2  1  0  0  0  0
 11 12  1  0  0  0  0
 11 17  1  0  0  0  0
 12  1  1  0  0  0  0
 13 18  1  0  0  0  0
 13 12  2  0  0  0  0
 14 13  1  0  0  0  0
 15 14  2  0  0  0  0
 15 16  1  0  0  0  0
 16 11  2  0  0  0  0
 19 15  1  0  0  0  0
 20 21  2  0  0  0  0
 22 20  1  0  0  0  0
 22  6  1  0  0  0  0
 23 22  1  0  0  0  0
 24 20  1  0  0  0  0
 25 24  1  0  0  0  0
 25 27  1  0  0  0  0
 26 25  2  0  0  0  0
 27 28  2  0  0  0  0
 28 29  1  0  0  0  0
 28 30  1  0  0  0  0
 31 30  2  0  0  0  0
 32 27  1  0  0  0  0
 32 31  1  0  0  0  0
M  END
>  <minimizedAffinity>
-5.7290988

>  <minimizedRMSD>
1.36687994

$$$$
