
 OpenBabel03272500543D

 29 31  0  0  0  0  0  0  0  0999 V2000
   35.4970   30.1610   43.8760 C   0  0  0  0  0  0  0  0  0  0  0  0
   35.4670   29.8050   42.5300 C   0  0  0  0  0  0  0  0  0  0  0  0
   36.4440   30.2060   41.6340 C   0  0  0  0  0  0  0  0  0  0  0  0
   37.5150   31.0120   42.1000 C   0  0  0  0  0  0  0  0  0  0  0  0
   37.5080   31.3410   43.4290 C   0  0  0  0  0  0  0  0  0  0  0  0
   36.5540   30.9460   44.3150 C   0  0  0  0  0  0  0  0  0  0  0  0
   34.6490   29.1830   42.1450 H   0  0  0  0  0  0  0  0  0  0  0  0
   36.3290   29.8690   40.5930 H   0  0  0  0  0  0  0  0  0  0  0  0
   38.1770   31.2380   41.2990 H   0  0  0  0  0  0  0  0  0  0  0  0
   38.3590   31.9800   43.5440 H   0  0  0  0  0  0  0  0  0  0  0  0
   34.4120   28.3720   45.0940 C   0  0  0  0  0  0  0  0  0  0  0  0
   34.3670   29.7090   44.6650 C   0  0  0  0  0  0  0  0  0  0  0  0
   33.2430   30.4560   45.0420 C   0  0  0  0  0  0  0  0  0  0  0  0
   32.2770   29.8860   45.7770 N   0  0  0  0  0  0  0  0  0  0  0  0
   32.3280   28.6120   46.1800 C   0  0  0  0  0  0  0  0  0  0  0  0
   33.3960   27.8710   45.8330 N   0  0  0  0  0  0  0  0  0  0  0  0
   35.1920   27.6560   44.9010 H   0  0  0  0  0  0  0  0  0  0  0  0
   33.2540   31.4850   44.6850 H   0  0  0  0  0  0  0  0  0  0  0  0
   31.5020   28.2580   46.7640 H   0  0  0  0  0  0  0  0  0  0  0  0
   37.7670   30.7250   46.3010 C   0  0  0  0  0  0  0  0  0  0  0  0
   38.5450   29.9940   45.6290 O   0  0  0  0  0  0  0  0  0  0  0  0
   36.5800   31.2600   45.6790 N   0  0  0  0  0  0  0  0  0  0  0  0
   35.8550   31.7980   46.1670 H   0  0  0  0  0  0  0  0  0  0  0  0
   38.0240   31.0640   47.7210 C   0  0  0  0  0  0  0  0  0  0  0  0
   37.8930   30.5370   48.8980 C   0  0  0  0  0  0  0  0  0  0  0  0
   37.4640   29.5470   48.8310 H   0  0  0  0  0  0  0  0  0  0  0  0
   38.2750   31.2260   50.0160 C   0  0  0  0  0  3  0  0  0  0  0  0
   38.8140   32.5320   49.7840 C   0  0  0  0  0  3  0  0  0  0  0  0
   38.7210   32.6600   47.9100 S   0  0  0  0  0  0  0  0  0  0  0  0
  1  6  1  0  0  0  0
  1 12  1  0  0  0  0
  2  1  2  0  0  0  0
  3  4  2  0  0  0  0
  3  2  1  0  0  0  0
  4  5  1  0  0  0  0
  5 10  1  0  0  0  0
  5  6  2  0  0  0  0
  6 22  1  0  0  0  0
  7  2  1  0  0  0  0
  8  3  1  0  0  0  0
  9  4  1  0  0  0  0
 11 16  1  0  0  0  0
 12 13  1  0  0  0  0
 12 11  2  0  0  0  0
 13 14  2  0  0  0  0
 14 15  1  0  0  0  0
 15 19  1  0  0  0  0
 16 15  2  0  0  0  0
 17 11  1  0  0  0  0
 18 13  1  0  0  0  0
 20 24  1  0  0  0  0
 21 20  2  0  0  0  0
 22 23  1  0  0  0  0
 22 20  1  0  0  0  0
 24 29  1  0  0  0  0
 24 25  2  0  0  0  0
 25 27  1  0  0  0  0
 26 25  1  0  0  0  0
 28 27  2  0  0  0  0
 29 28  1  0  0  0  0
M  END
>  <minimizedAffinity>
-4.00007153

>  <minimizedRMSD>
5.16341734

$$$$
