
 OpenBabel03272500543D

 29 31  0  0  0  0  0  0  0  0999 V2000
   38.1130   31.0570   46.9430 C   0  0  0  0  0  0  0  0  0  0  0  0
   39.0270   30.3290   46.1860 C   0  0  0  0  0  0  0  0  0  0  0  0
   40.1860   30.8930   45.6780 C   0  0  0  0  0  0  0  0  0  0  0  0
   40.4540   32.2620   45.9340 C   0  0  0  0  0  0  0  0  0  0  0  0
   39.5320   32.9430   46.6830 C   0  0  0  0  0  0  0  0  0  0  0  0
   38.3940   32.3950   47.1880 C   0  0  0  0  0  0  0  0  0  0  0  0
   38.8420   29.2690   45.9730 H   0  0  0  0  0  0  0  0  0  0  0  0
   40.8420   30.2310   45.0930 H   0  0  0  0  0  0  0  0  0  0  0  0
   41.3730   32.5450   45.4790 H   0  0  0  0  0  0  0  0  0  0  0  0
   39.9040   33.9460   46.7050 H   0  0  0  0  0  0  0  0  0  0  0  0
   36.9730   29.7250   48.6130 C   0  0  0  0  0  0  0  0  0  0  0  0
   36.9230   30.3340   47.3480 C   0  0  0  0  0  0  0  0  0  0  0  0
   35.7370   30.1780   46.6190 C   0  0  0  0  0  0  0  0  0  0  0  0
   34.7210   29.4720   47.1370 N   0  0  0  0  0  0  0  0  0  0  0  0
   34.7790   28.8950   48.3420 C   0  0  0  0  0  0  0  0  0  0  0  0
   35.9060   29.0290   49.0650 N   0  0  0  0  0  0  0  0  0  0  0  0
   37.7960   29.7410   49.3060 H   0  0  0  0  0  0  0  0  0  0  0  0
   35.7460   30.6680   45.6460 H   0  0  0  0  0  0  0  0  0  0  0  0
   33.9100   28.3540   48.6590 H   0  0  0  0  0  0  0  0  0  0  0  0
   37.8880   33.0760   49.3660 C   0  0  0  0  0  0  0  0  0  0  0  0
   38.8920   32.3940   49.7080 O   0  0  0  0  0  0  0  0  0  0  0  0
   37.4790   33.0950   47.9830 N   0  0  0  0  0  0  0  0  0  0  0  0
   36.6350   33.5580   47.6280 H   0  0  0  0  0  0  0  0  0  0  0  0
   37.1010   33.8730   50.3380 C   0  0  0  0  0  0  0  0  0  0  0  0
   37.0570   34.1050   51.6120 C   0  0  0  0  0  0  0  0  0  0  0  0
   37.8270   33.5540   52.1310 H   0  0  0  0  0  0  0  0  0  0  0  0
   36.1200   34.9540   52.1330 C   0  0  0  0  0  3  0  0  0  0  0  0
   35.2230   35.5420   51.1840 C   0  0  0  0  0  3  0  0  0  0  0  0
   35.8290   34.7980   49.5670 S   0  0  0  0  0  0  0  0  0  0  0  0
  1  6  1  0  0  0  0
  1 12  1  0  0  0  0
  2  1  2  0  0  0  0
  3  4  2  0  0  0  0
  3  2  1  0  0  0  0
  4  5  1  0  0  0  0
  5 10  1  0  0  0  0
  5  6  2  0  0  0  0
  6 22  1  0  0  0  0
  7  2  1  0  0  0  0
  8  3  1  0  0  0  0
  9  4  1  0  0  0  0
 11 16  1  0  0  0  0
 11 17  1  0  0  0  0
 12 11  2  0  0  0  0
 13 14  2  0  0  0  0
 13 12  1  0  0  0  0
 14 15  1  0  0  0  0
 15 19  1  0  0  0  0
 15 16  2  0  0  0  0
 18 13  1  0  0  0  0
 20 21  2  0  0  0  0
 20 24  1  0  0  0  0
 22 20  1  0  0  0  0
 23 22  1  0  0  0  0
 24 25  2  0  0  0  0
 25 26  1  0  0  0  0
 25 27  1  0  0  0  0
 28 27  2  0  0  0  0
 29 24  1  0  0  0  0
 29 28  1  0  0  0  0
M  END
>  <minimizedAffinity>
5.13319683

>  <minimizedRMSD>
2.23028612

$$$$
