
 OpenBabel03272500543D

 29 31  0  0  0  0  0  0  0  0999 V2000
   38.0030   30.2020   43.0920 C   0  0  0  0  0  0  0  0  0  0  0  0
   38.2170   30.1690   41.7160 C   0  0  0  0  0  0  0  0  0  0  0  0
   39.4590   30.4080   41.1530 C   0  0  0  0  0  0  0  0  0  0  0  0
   40.5550   30.7010   42.0040 C   0  0  0  0  0  0  0  0  0  0  0  0
   40.3050   30.7240   43.3500 C   0  0  0  0  0  0  0  0  0  0  0  0
   39.0880   30.4860   43.9100 C   0  0  0  0  0  0  0  0  0  0  0  0
   37.3850   29.9460   41.0370 H   0  0  0  0  0  0  0  0  0  0  0  0
   39.5220   30.3560   40.0550 H   0  0  0  0  0  0  0  0  0  0  0  0
   41.4340   30.8610   41.4250 H   0  0  0  0  0  0  0  0  0  0  0  0
   41.2400   31.0090   43.7850 H   0  0  0  0  0  0  0  0  0  0  0  0
   36.2010   28.6530   43.5550 C   0  0  0  0  0  0  0  0  0  0  0  0
   36.6320   29.9890   43.5150 C   0  0  0  0  0  0  0  0  0  0  0  0
   35.6960   30.9650   43.8830 C   0  0  0  0  0  0  0  0  0  0  0  0
   34.4590   30.6010   44.2500 N   0  0  0  0  0  0  0  0  0  0  0  0
   34.0580   29.3260   44.2850 C   0  0  0  0  0  0  0  0  0  0  0  0
   34.9350   28.3680   43.9370 N   0  0  0  0  0  0  0  0  0  0  0  0
   36.7790   27.7790   43.3080 H   0  0  0  0  0  0  0  0  0  0  0  0
   36.0770   31.9850   43.8360 H   0  0  0  0  0  0  0  0  0  0  0  0
   33.0470   29.1480   44.5940 H   0  0  0  0  0  0  0  0  0  0  0  0
   38.7450   31.8240   45.7950 C   0  0  0  0  0  0  0  0  0  0  0  0
   38.9620   32.7970   45.0220 O   0  0  0  0  0  0  0  0  0  0  0  0
   38.8550   30.4770   45.2900 N   0  0  0  0  0  0  0  0  0  0  0  0
   38.7710   29.6290   45.8620 H   0  0  0  0  0  0  0  0  0  0  0  0
   38.3750   32.0080   47.2190 C   0  0  0  0  0  0  0  0  0  0  0  0
   38.7160   32.7320   48.2390 C   0  0  0  0  0  0  0  0  0  0  0  0
   39.5130   33.4140   47.9780 H   0  0  0  0  0  0  0  0  0  0  0  0
   38.0870   32.5780   49.4430 C   0  0  0  0  0  3  0  0  0  0  0  0
   37.0580   31.5840   49.4810 C   0  0  0  0  0  3  0  0  0  0  0  0
   37.0840   30.9340   47.7160 S   0  0  0  0  0  0  0  0  0  0  0  0
  1 12  1  0  0  0  0
  1  6  1  0  0  0  0
  2  1  2  0  0  0  0
  3  2  1  0  0  0  0
  3  4  2  0  0  0  0
  4  5  1  0  0  0  0
  5 10  1  0  0  0  0
  5  6  2  0  0  0  0
  6 22  1  0  0  0  0
  7  2  1  0  0  0  0
  8  3  1  0  0  0  0
  9  4  1  0  0  0  0
 11 16  1  0  0  0  0
 12 11  2  0  0  0  0
 12 13  1  0  0  0  0
 13 14  2  0  0  0  0
 14 15  1  0  0  0  0
 15 19  1  0  0  0  0
 16 15  2  0  0  0  0
 17 11  1  0  0  0  0
 18 13  1  0  0  0  0
 20 24  1  0  0  0  0
 21 20  2  0  0  0  0
 22 20  1  0  0  0  0
 22 23  1  0  0  0  0
 24 29  1  0  0  0  0
 24 25  2  0  0  0  0
 25 27  1  0  0  0  0
 26 25  1  0  0  0  0
 27 28  2  0  0  0  0
 29 28  1  0  0  0  0
M  END
>  <minimizedAffinity>
-4.44987965

>  <minimizedRMSD>
5.34206629

$$$$
