
 OpenBabel03272508153D

 27 29  0  0  0  0  0  0  0  0999 V2000
   34.9270   30.6730   46.9700 Cl  0  0  0  0  0  0  0  0  0  0  0  0
   36.3420   30.4370   45.9960 C   0  0  0  0  0  0  0  0  0  0  0  0
   36.0980   29.7920   44.8170 C   0  0  0  0  0  0  0  0  0  0  0  0
   37.1770   29.5700   43.9450 C   0  0  0  0  0  0  0  0  0  0  0  0
   38.4420   29.9790   44.2520 C   0  0  0  0  0  0  0  0  0  0  0  0
   38.6540   30.6300   45.4550 C   0  0  0  0  0  0  0  0  0  0  0  0
   40.2690   31.1780   45.8640 Cl  0  0  0  0  0  0  0  0  0  0  0  0
   37.6010   30.8470   46.3080 C   0  0  0  0  0  0  0  0  0  0  0  0
   37.0910   29.0710   42.9910 H   0  0  0  0  0  0  0  0  0  0  0  0
   39.3030   29.8250   43.6000 H   0  0  0  0  0  0  0  0  0  0  0  0
   34.5520   27.8840   44.5480 C   0  0  0  0  0  0  0  0  0  0  0  0
   34.8410   29.2560   44.2820 C   0  0  0  0  0  0  0  0  0  0  0  0
   33.9260   29.9770   43.5440 C   0  0  0  0  0  0  0  0  0  0  0  0
   32.8020   29.3400   43.1120 N   0  0  0  0  0  0  0  0  0  0  0  0
   32.5580   28.0510   43.3780 C   0  0  0  0  0  0  0  0  0  0  0  0
   33.4290   27.3200   44.0960 N   0  0  0  0  0  0  0  0  0  0  0  0
   35.2870   27.3320   45.1340 H   0  0  0  0  0  0  0  0  0  0  0  0
   34.1530   31.0170   43.3460 H   0  0  0  0  0  0  0  0  0  0  0  0
   31.6320   27.6530   42.9830 H   0  0  0  0  0  0  0  0  0  0  0  0
   37.8000   31.5030   47.5930 C   0  0  0  0  0  0  0  0  0  0  0  0
   38.2630   32.6670   47.8010 O   0  0  0  0  0  0  0  0  0  0  0  0
   37.4490   30.7870   48.8470 C   0  0  0  0  0  0  0  0  0  0  0  0
   37.6440   29.5090   49.1950 C   0  0  0  0  0  0  0  0  0  0  0  0
   38.1560   28.8050   48.5170 H   0  0  0  0  0  0  0  0  0  0  0  0
   37.2260   29.0370   50.3800 C   0  0  0  0  0  3  0  0  0  0  0  0
   36.5820   29.9540   51.2160 C   0  0  0  0  0  3  0  0  0  0  0  0
   36.6090   31.5500   50.1940 S   0  0  0  0  0  0  0  0  0  0  0  0
  2  8  1  0  0  0  0
  2  1  1  0  0  0  0
  3  2  2  0  0  0  0
  4  5  2  0  0  0  0
  4  3  1  0  0  0  0
  5  6  1  0  0  0  0
  6  7  1  0  0  0  0
  6  8  2  0  0  0  0
  8 20  1  0  0  0  0
  9  4  1  0  0  0  0
 10  5  1  0  0  0  0
 11 17  1  0  0  0  0
 12 11  1  0  0  0  0
 12  3  1  0  0  0  0
 13 12  2  0  0  0  0
 14 15  2  0  0  0  0
 14 13  1  0  0  0  0
 15 16  1  0  0  0  0
 16 11  2  0  0  0  0
 18 13  1  0  0  0  0
 19 15  1  0  0  0  0
 20 21  2  0  0  0  0
 20 22  1  0  0  0  0
 22 23  2  0  0  0  0
 22 27  1  0  0  0  0
 23 25  1  0  0  0  0
 24 23  1  0  0  0  0
 25 26  2  0  0  0  0
 27 26  1  0  0  0  0
M  END
>  <minimizedAffinity>
-3.9494071

>  <minimizedRMSD>
3.80401635

$$$$
