
 OpenBabel03272500543D

 29 31  0  0  0  0  0  0  0  0999 V2000
   35.9150   30.4930   43.3440 C   0  0  0  0  0  0  0  0  0  0  0  0
   35.8990   29.8180   42.1270 C   0  0  0  0  0  0  0  0  0  0  0  0
   36.9180   29.9390   41.1970 C   0  0  0  0  0  0  0  0  0  0  0  0
   38.0200   30.7820   41.4910 C   0  0  0  0  0  0  0  0  0  0  0  0
   38.0000   31.4280   42.6980 C   0  0  0  0  0  0  0  0  0  0  0  0
   37.0040   31.3110   43.6170 C   0  0  0  0  0  0  0  0  0  0  0  0
   35.0570   29.1610   41.8760 H   0  0  0  0  0  0  0  0  0  0  0  0
   36.8090   29.3610   40.2670 H   0  0  0  0  0  0  0  0  0  0  0  0
   38.7130   30.7700   40.6840 H   0  0  0  0  0  0  0  0  0  0  0  0
   38.8820   32.0340   42.6840 H   0  0  0  0  0  0  0  0  0  0  0  0
   34.8480   29.3210   45.1740 C   0  0  0  0  0  0  0  0  0  0  0  0
   34.7430   30.3050   44.1780 C   0  0  0  0  0  0  0  0  0  0  0  0
   33.5250   30.9930   44.0960 C   0  0  0  0  0  0  0  0  0  0  0  0
   32.5310   30.6970   44.9470 N   0  0  0  0  0  0  0  0  0  0  0  0
   32.6410   29.7580   45.8910 C   0  0  0  0  0  0  0  0  0  0  0  0
   33.7990   29.0810   45.9930 N   0  0  0  0  0  0  0  0  0  0  0  0
   35.7020   28.6990   45.3820 H   0  0  0  0  0  0  0  0  0  0  0  0
   33.4920   31.7460   43.3090 H   0  0  0  0  0  0  0  0  0  0  0  0
   31.7850   29.6020   46.5170 H   0  0  0  0  0  0  0  0  0  0  0  0
   37.9080   31.2750   45.7720 C   0  0  0  0  0  0  0  0  0  0  0  0
   38.4620   30.1990   45.4150 O   0  0  0  0  0  0  0  0  0  0  0  0
   37.0150   31.9500   44.8630 N   0  0  0  0  0  0  0  0  0  0  0  0
   36.4640   32.7830   45.0940 H   0  0  0  0  0  0  0  0  0  0  0  0
   38.1400   31.8840   47.1040 C   0  0  0  0  0  0  0  0  0  0  0  0
   38.8690   32.8050   47.6510 C   0  0  0  0  0  0  0  0  0  0  0  0
   39.5040   33.2800   46.9160 H   0  0  0  0  0  0  0  0  0  0  0  0
   38.7730   33.0660   48.9890 C   0  0  0  0  0  3  0  0  0  0  0  0
   37.8320   32.2620   49.7100 C   0  0  0  0  0  3  0  0  0  0  0  0
   37.1440   31.1630   48.3500 S   0  0  0  0  0  0  0  0  0  0  0  0
  1  6  1  0  0  0  0
  1 12  1  0  0  0  0
  2  1  2  0  0  0  0
  3  4  2  0  0  0  0
  3  2  1  0  0  0  0
  4  5  1  0  0  0  0
  5  6  2  0  0  0  0
  6 22  1  0  0  0  0
  7  2  1  0  0  0  0
  8  3  1  0  0  0  0
  9  4  1  0  0  0  0
 10  5  1  0  0  0  0
 11 17  1  0  0  0  0
 11 16  1  0  0  0  0
 12 11  2  0  0  0  0
 13 12  1  0  0  0  0
 13 14  2  0  0  0  0
 14 15  1  0  0  0  0
 15 16  2  0  0  0  0
 15 19  1  0  0  0  0
 18 13  1  0  0  0  0
 20 24  1  0  0  0  0
 21 20  2  0  0  0  0
 22 23  1  0  0  0  0
 22 20  1  0  0  0  0
 24 25  2  0  0  0  0
 24 29  1  0  0  0  0
 25 27  1  0  0  0  0
 26 25  1  0  0  0  0
 27 28  2  0  0  0  0
 29 28  1  0  0  0  0
M  END
>  <minimizedAffinity>
-4.08619499

>  <minimizedRMSD>
5.16518784

$$$$
