
 OpenBabel03272507313D

 26 28  0  0  0  0  0  0  0  0999 V2000
   37.7580   25.8200   34.7900 C   0  0  0  0  0  0  0  0  0  0  0  0
   38.3390   26.7420   35.6250 C   0  0  0  0  0  0  0  0  0  0  0  0
   37.7690   27.9930   35.3400 C   0  0  0  0  0  0  0  0  0  0  0  0
   36.8550   27.7460   34.3240 C   0  0  0  0  0  0  0  0  0  0  0  0
   36.8960   26.4660   34.0500 O   0  0  0  0  0  0  0  0  0  0  0  0
   39.0930   26.6620   36.3920 H   0  0  0  0  0  0  0  0  0  0  0  0
   37.9890   28.9360   35.8030 H   0  0  0  0  0  0  0  0  0  0  0  0
   38.1190   24.4270   34.8220 C   0  0  0  0  0  0  0  0  0  0  0  0
   38.0530   23.7480   33.7970 O   0  0  0  0  0  0  0  0  0  0  0  0
   38.5510   23.9000   36.1100 C   0  0  0  0  0  0  0  0  0  0  0  0
   37.6270   23.9700   37.1590 C   0  0  0  0  0  0  0  0  0  0  0  0
   38.0030   23.4750   38.4070 C   0  0  0  0  0  0  0  0  0  0  0  0
   39.2510   22.9470   38.5390 N   0  0  0  0  0  0  0  0  0  0  0  0
   40.1190   22.8920   37.5110 C   0  0  0  0  0  0  0  0  0  0  0  0
   39.7700   23.3650   36.3080 N   0  0  0  0  0  0  0  0  0  0  0  0
   36.6450   24.3930   37.0250 H   0  0  0  0  0  0  0  0  0  0  0  0
   37.2810   23.5350   39.2110 H   0  0  0  0  0  0  0  0  0  0  0  0
   41.1130   22.4790   37.5890 H   0  0  0  0  0  0  0  0  0  0  0  0
   36.0030   28.7610   33.6810 C   0  0  0  0  0  0  0  0  0  0  0  0
   35.9090   28.7730   32.4340 O   0  0  0  0  0  0  0  0  0  0  0  0
   35.3160   29.6930   34.4850 C   0  0  0  0  0  0  0  0  0  0  0  0
   35.7700   30.7530   35.1930 C   0  0  0  0  0  0  0  0  0  0  0  0
   36.8540   30.9610   35.1910 H   0  0  0  0  0  0  0  0  0  0  0  0
   34.9110   31.5450   35.8980 C   0  0  0  0  0  3  0  0  0  0  0  0
   33.5040   31.1780   35.8420 C   0  0  0  0  0  3  0  0  0  0  0  0
   33.5820   29.6900   34.7440 S   0  0  0  0  0  0  0  0  0  0  0  0
  1  8  1  0  0  0  0
  1  2  2  0  0  0  0
  2  6  1  0  0  0  0
  3  2  1  0  0  0  0
  3  7  1  0  0  0  0
  4  3  2  0  0  0  0
  5  4  1  0  0  0  0
  5  1  1  0  0  0  0
  8 10  1  0  0  0  0
  9  8  2  0  0  0  0
 10 15  2  0  0  0  0
 10 11  1  0  0  0  0
 11 12  2  0  0  0  0
 12 13  1  0  0  0  0
 12 17  1  0  0  0  0
 14 18  1  0  0  0  0
 14 13  2  0  0  0  0
 15 14  1  0  0  0  0
 16 11  1  0  0  0  0
 19  4  1  0  0  0  0
 19 21  1  0  0  0  0
 20 19  2  0  0  0  0
 21 26  1  0  0  0  0
 21 22  2  0  0  0  0
 22 24  1  0  0  0  0
 23 22  1  0  0  0  0
 25 24  2  0  0  0  0
 26 25  1  0  0  0  0
M  END
>  <minimizedAffinity>
-5.16605997

$$$$

 OpenBabel03272507313D

 26 28  0  0  0  0  0  0  0  0999 V2000
   37.6280   26.4100   34.0360 C   0  0  0  0  0  0  0  0  0  0  0  0
   37.2930   27.5440   33.3370 C   0  0  0  0  0  0  0  0  0  0  0  0
   36.5780   27.1460   32.1970 C   0  0  0  0  0  0  0  0  0  0  0  0
   36.5220   25.7610   32.2750 C   0  0  0  0  0  0  0  0  0  0  0  0
   37.1500   25.3950   33.3650 O   0  0  0  0  0  0  0  0  0  0  0  0
   37.4770   28.5920   33.5120 H   0  0  0  0  0  0  0  0  0  0  0  0
   36.1640   27.7710   31.4300 H   0  0  0  0  0  0  0  0  0  0  0  0
   38.3720   26.4630   35.2670 C   0  0  0  0  0  0  0  0  0  0  0  0
   38.6520   27.5490   35.7730 O   0  0  0  0  0  0  0  0  0  0  0  0
   38.7570   25.1820   35.8460 C   0  0  0  0  0  0  0  0  0  0  0  0
   37.9760   24.7130   36.9090 C   0  0  0  0  0  0  0  0  0  0  0  0
   38.3120   23.4910   37.4890 C   0  0  0  0  0  0  0  0  0  0  0  0
   39.3830   22.8160   36.9890 N   0  0  0  0  0  0  0  0  0  0  0  0
   40.1160   23.2910   35.9650 C   0  0  0  0  0  0  0  0  0  0  0  0
   39.8040   24.4640   35.4000 N   0  0  0  0  0  0  0  0  0  0  0  0
   37.1320   25.2700   37.2830 H   0  0  0  0  0  0  0  0  0  0  0  0
   37.7010   23.1390   38.3100 H   0  0  0  0  0  0  0  0  0  0  0  0
   40.9690   22.7760   35.5500 H   0  0  0  0  0  0  0  0  0  0  0  0
   35.8690   24.8790   31.2930 C   0  0  0  0  0  0  0  0  0  0  0  0
   34.9280   25.3290   30.6030 O   0  0  0  0  0  0  0  0  0  0  0  0
   36.3190   23.5500   31.1540 C   0  0  0  0  0  0  0  0  0  0  0  0
   35.6640   22.3760   31.3020 C   0  0  0  0  0  0  0  0  0  0  0  0
   34.6000   22.4010   31.5970 H   0  0  0  0  0  0  0  0  0  0  0  0
   36.3010   21.1860   31.0980 C   0  0  0  0  0  3  0  0  0  0  0  0
   37.7040   21.2630   30.7220 C   0  0  0  0  0  3  0  0  0  0  0  0
   37.9520   23.0980   30.7030 S   0  0  0  0  0  0  0  0  0  0  0  0
  1  8  1  0  0  0  0
  2  6  1  0  0  0  0
  2  1  2  0  0  0  0
  3  4  2  0  0  0  0
  3  2  1  0  0  0  0
  4  5  1  0  0  0  0
  5  1  1  0  0  0  0
  7  3  1  0  0  0  0
  8  9  2  0  0  0  0
  8 10  1  0  0  0  0
 10 11  1  0  0  0  0
 11 16  1  0  0  0  0
 11 12  2  0  0  0  0
 12 17  1  0  0  0  0
 13 12  1  0  0  0  0
 14 13  2  0  0  0  0
 15 10  2  0  0  0  0
 15 14  1  0  0  0  0
 18 14  1  0  0  0  0
 19  4  1  0  0  0  0
 20 19  2  0  0  0  0
 21 19  1  0  0  0  0
 21 22  2  0  0  0  0
 22 23  1  0  0  0  0
 24 22  1  0  0  0  0
 25 24  2  0  0  0  0
 26 25  1  0  0  0  0
 26 21  1  0  0  0  0
M  END
>  <minimizedAffinity>
-5.11736917

$$$$

 OpenBabel03272507313D

 26 28  0  0  0  0  0  0  0  0999 V2000
   37.9020   27.1920   34.2350 C   0  0  0  0  0  0  0  0  0  0  0  0
   37.9800   27.3180   32.8700 C   0  0  0  0  0  0  0  0  0  0  0  0
   36.9040   28.1200   32.4550 C   0  0  0  0  0  0  0  0  0  0  0  0
   36.2240   28.4370   33.6230 C   0  0  0  0  0  0  0  0  0  0  0  0
   36.8530   27.8690   34.6210 O   0  0  0  0  0  0  0  0  0  0  0  0
   38.6720   26.9340   32.1370 H   0  0  0  0  0  0  0  0  0  0  0  0
   36.6580   28.4220   31.4560 H   0  0  0  0  0  0  0  0  0  0  0  0
   38.8620   26.4260   34.9870 C   0  0  0  0  0  0  0  0  0  0  0  0
   39.9610   26.9080   35.2570 O   0  0  0  0  0  0  0  0  0  0  0  0
   38.4510   25.0860   35.3860 C   0  0  0  0  0  0  0  0  0  0  0  0
   38.0540   24.9210   36.7180 C   0  0  0  0  0  0  0  0  0  0  0  0
   37.6520   23.6540   37.1370 C   0  0  0  0  0  0  0  0  0  0  0  0
   37.6660   22.6420   36.2270 N   0  0  0  0  0  0  0  0  0  0  0  0
   38.0520   22.8300   34.9510 C   0  0  0  0  0  0  0  0  0  0  0  0
   38.4410   24.0420   34.5360 N   0  0  0  0  0  0  0  0  0  0  0  0
   38.0530   25.7420   37.4170 H   0  0  0  0  0  0  0  0  0  0  0  0
   37.3490   23.5390   38.1700 H   0  0  0  0  0  0  0  0  0  0  0  0
   38.0720   22.0460   34.2100 H   0  0  0  0  0  0  0  0  0  0  0  0
   35.0100   29.2670   33.7010 C   0  0  0  0  0  0  0  0  0  0  0  0
   34.1140   29.1160   32.8410 O   0  0  0  0  0  0  0  0  0  0  0  0
   34.8850   30.2100   34.7420 C   0  0  0  0  0  0  0  0  0  0  0  0
   35.8100   31.0010   35.3320 C   0  0  0  0  0  0  0  0  0  0  0  0
   36.8590   30.9260   34.9950 H   0  0  0  0  0  0  0  0  0  0  0  0
   35.4600   31.8690   36.3260 C   0  0  0  0  0  3  0  0  0  0  0  0
   34.0540   31.8830   36.7020 C   0  0  0  0  0  3  0  0  0  0  0  0
   33.3770   30.6070   35.5440 S   0  0  0  0  0  0  0  0  0  0  0  0
  1  5  1  0  0  0  0
  1  8  1  0  0  0  0
  2  1  2  0  0  0  0
  3  2  1  0  0  0  0
  3  4  2  0  0  0  0
  4 19  1  0  0  0  0
  4  5  1  0  0  0  0
  6  2  1  0  0  0  0
  7  3  1  0  0  0  0
  8  9  2  0  0  0  0
  8 10  1  0  0  0  0
 10 11  1  0  0  0  0
 11 12  2  0  0  0  0
 11 16  1  0  0  0  0
 12 17  1  0  0  0  0
 13 12  1  0  0  0  0
 14 13  2  0  0  0  0
 15 14  1  0  0  0  0
 15 10  2  0  0  0  0
 18 14  1  0  0  0  0
 19 21  1  0  0  0  0
 20 19  2  0  0  0  0
 21 22  2  0  0  0  0
 21 26  1  0  0  0  0
 22 24  1  0  0  0  0
 23 22  1  0  0  0  0
 24 25  2  0  0  0  0
 26 25  1  0  0  0  0
M  END
>  <minimizedAffinity>
-5.11673737

$$$$

 OpenBabel03272507313D

 26 28  0  0  0  0  0  0  0  0999 V2000
   36.5270   25.7430   32.3000 C   0  0  0  0  0  0  0  0  0  0  0  0
   36.4720   27.1150   32.2740 C   0  0  0  0  0  0  0  0  0  0  0  0
   37.1440   27.5890   33.4120 C   0  0  0  0  0  0  0  0  0  0  0  0
   37.5750   26.4470   34.0740 C   0  0  0  0  0  0  0  0  0  0  0  0
   37.1860   25.4080   33.3780 O   0  0  0  0  0  0  0  0  0  0  0  0
   36.0340   27.8170   31.5820 H   0  0  0  0  0  0  0  0  0  0  0  0
   37.2930   28.6090   33.7090 H   0  0  0  0  0  0  0  0  0  0  0  0
   35.9280   24.9350   31.2690 C   0  0  0  0  0  0  0  0  0  0  0  0
   34.9730   25.3660   30.6240 O   0  0  0  0  0  0  0  0  0  0  0  0
   36.5150   23.6180   31.0570 C   0  0  0  0  0  0  0  0  0  0  0  0
   35.6900   22.5150   31.3070 C   0  0  0  0  0  0  0  0  0  0  0  0
   36.2160   21.2380   31.1140 C   0  0  0  0  0  0  0  0  0  0  0  0
   37.5050   21.1320   30.6910 N   0  0  0  0  0  0  0  0  0  0  0  0
   38.2740   22.2110   30.4580 C   0  0  0  0  0  0  0  0  0  0  0  0
   37.7820   23.4420   30.6400 N   0  0  0  0  0  0  0  0  0  0  0  0
   34.6720   22.6310   31.6410 H   0  0  0  0  0  0  0  0  0  0  0  0
   35.5680   20.3930   31.3120 H   0  0  0  0  0  0  0  0  0  0  0  0
   39.2990   22.1540   30.1220 H   0  0  0  0  0  0  0  0  0  0  0  0
   38.3340   26.4310   35.3360 C   0  0  0  0  0  0  0  0  0  0  0  0
   38.7480   27.5130   35.8100 O   0  0  0  0  0  0  0  0  0  0  0  0
   38.5760   25.2000   35.9790 C   0  0  0  0  0  0  0  0  0  0  0  0
   37.9610   24.6190   37.0350 C   0  0  0  0  0  0  0  0  0  0  0  0
   37.1350   25.1630   37.5260 H   0  0  0  0  0  0  0  0  0  0  0  0
   38.3540   23.3940   37.4890 C   0  0  0  0  0  3  0  0  0  0  0  0
   39.4590   22.7680   36.7780 C   0  0  0  0  0  3  0  0  0  0  0  0
   39.8140   24.0560   35.4960 S   0  0  0  0  0  0  0  0  0  0  0  0
  1  5  1  0  0  0  0
  2  1  2  0  0  0  0
  2  3  1  0  0  0  0
  3  7  1  0  0  0  0
  3  4  2  0  0  0  0
  4 19  1  0  0  0  0
  5  4  1  0  0  0  0
  6  2  1  0  0  0  0
  8  1  1  0  0  0  0
  9  8  2  0  0  0  0
 10  8  1  0  0  0  0
 10 11  1  0  0  0  0
 11 16  1  0  0  0  0
 12 11  2  0  0  0  0
 12 17  1  0  0  0  0
 13 12  1  0  0  0  0
 14 15  1  0  0  0  0
 14 13  2  0  0  0  0
 15 10  2  0  0  0  0
 18 14  1  0  0  0  0
 19 20  2  0  0  0  0
 19 21  1  0  0  0  0
 21 22  2  0  0  0  0
 22 24  1  0  0  0  0
 22 23  1  0  0  0  0
 25 24  2  0  0  0  0
 26 21  1  0  0  0  0
 26 25  1  0  0  0  0
M  END
>  <minimizedAffinity>
-5.06353998

$$$$

 OpenBabel03272507313D

 26 28  0  0  0  0  0  0  0  0999 V2000
   36.8660   27.7700   34.2730 C   0  0  0  0  0  0  0  0  0  0  0  0
   37.6470   28.0120   35.3770 C   0  0  0  0  0  0  0  0  0  0  0  0
   38.2330   26.7940   35.7570 C   0  0  0  0  0  0  0  0  0  0  0  0
   37.7600   25.8670   34.8380 C   0  0  0  0  0  0  0  0  0  0  0  0
   36.9710   26.4960   34.0030 O   0  0  0  0  0  0  0  0  0  0  0  0
   37.8580   28.9050   35.9420 H   0  0  0  0  0  0  0  0  0  0  0  0
   38.9010   26.6150   36.5780 H   0  0  0  0  0  0  0  0  0  0  0  0
   36.1170   28.8150   33.6240 C   0  0  0  0  0  0  0  0  0  0  0  0
   36.1460   28.9260   32.3990 O   0  0  0  0  0  0  0  0  0  0  0  0
   35.3540   29.7000   34.4950 C   0  0  0  0  0  0  0  0  0  0  0  0
   33.9800   29.4510   34.5950 C   0  0  0  0  0  0  0  0  0  0  0  0
   33.2160   30.2760   35.4190 C   0  0  0  0  0  0  0  0  0  0  0  0
   33.8490   31.2810   36.0850 N   0  0  0  0  0  0  0  0  0  0  0  0
   35.1720   31.4960   35.9700 C   0  0  0  0  0  0  0  0  0  0  0  0
   35.9170   30.7120   35.1810 N   0  0  0  0  0  0  0  0  0  0  0  0
   33.5070   28.6470   34.0560 H   0  0  0  0  0  0  0  0  0  0  0  0
   32.1550   30.0750   35.4880 H   0  0  0  0  0  0  0  0  0  0  0  0
   35.6970   32.2850   36.4870 H   0  0  0  0  0  0  0  0  0  0  0  0
   38.0970   24.4340   34.8260 C   0  0  0  0  0  0  0  0  0  0  0  0
   37.8150   23.7510   33.8160 O   0  0  0  0  0  0  0  0  0  0  0  0
   38.7270   23.8640   35.9520 C   0  0  0  0  0  0  0  0  0  0  0  0
   38.2960   23.7180   37.2250 C   0  0  0  0  0  0  0  0  0  0  0  0
   37.2980   24.1070   37.4910 H   0  0  0  0  0  0  0  0  0  0  0  0
   39.0780   23.1110   38.1650 C   0  0  0  0  0  3  0  0  0  0  0  0
   40.3810   22.6440   37.7150 C   0  0  0  0  0  3  0  0  0  0  0  0
   40.3270   23.1470   35.9340 S   0  0  0  0  0  0  0  0  0  0  0  0
  1  2  2  0  0  0  0
  2  3  1  0  0  0  0
  2  6  1  0  0  0  0
  3  7  1  0  0  0  0
  4  3  2  0  0  0  0
  5  1  1  0  0  0  0
  5  4  1  0  0  0  0
  8  1  1  0  0  0  0
  8 10  1  0  0  0  0
  9  8  2  0  0  0  0
 10 11  2  0  0  0  0
 10 15  1  0  0  0  0
 11 12  1  0  0  0  0
 12 17  1  0  0  0  0
 12 13  2  0  0  0  0
 14 13  1  0  0  0  0
 14 18  1  0  0  0  0
 15 14  2  0  0  0  0
 16 11  1  0  0  0  0
 19  4  1  0  0  0  0
 19 21  1  0  0  0  0
 20 19  2  0  0  0  0
 21 22  2  0  0  0  0
 22 23  1  0  0  0  0
 22 24  1  0  0  0  0
 25 24  2  0  0  0  0
 26 21  1  0  0  0  0
 26 25  1  0  0  0  0
M  END
>  <minimizedAffinity>
-5.05794001

$$$$

 OpenBabel03272507313D

 26 28  0  0  0  0  0  0  0  0999 V2000
   35.9960   28.4770   33.7010 C   0  0  0  0  0  0  0  0  0  0  0  0
   36.6710   28.1630   32.5460 C   0  0  0  0  0  0  0  0  0  0  0  0
   37.7770   27.3750   32.9020 C   0  0  0  0  0  0  0  0  0  0  0  0
   37.7040   27.2590   34.2840 C   0  0  0  0  0  0  0  0  0  0  0  0
   36.6480   27.9200   34.6870 O   0  0  0  0  0  0  0  0  0  0  0  0
   36.4990   28.4040   31.5100 H   0  0  0  0  0  0  0  0  0  0  0  0
   38.5200   26.9550   32.2520 H   0  0  0  0  0  0  0  0  0  0  0  0
   34.8020   29.2810   33.6920 C   0  0  0  0  0  0  0  0  0  0  0  0
   33.9810   29.1590   32.7830 O   0  0  0  0  0  0  0  0  0  0  0  0
   34.6450   30.2180   34.7970 C   0  0  0  0  0  0  0  0  0  0  0  0
   35.7710   30.9740   35.1460 C   0  0  0  0  0  0  0  0  0  0  0  0
   35.6590   31.8810   36.1980 C   0  0  0  0  0  0  0  0  0  0  0  0
   34.4580   31.9860   36.8310 N   0  0  0  0  0  0  0  0  0  0  0  0
   33.3920   31.2470   36.4730 C   0  0  0  0  0  0  0  0  0  0  0  0
   33.4860   30.3710   35.4650 N   0  0  0  0  0  0  0  0  0  0  0  0
   36.7090   30.8690   34.6250 H   0  0  0  0  0  0  0  0  0  0  0  0
   36.5360   32.4590   36.4580 H   0  0  0  0  0  0  0  0  0  0  0  0
   32.4300   31.3110   36.9580 H   0  0  0  0  0  0  0  0  0  0  0  0
   38.6580   26.5190   35.1260 C   0  0  0  0  0  0  0  0  0  0  0  0
   39.7420   27.0610   35.4360 O   0  0  0  0  0  0  0  0  0  0  0  0
   38.3290   25.2190   35.5630 C   0  0  0  0  0  0  0  0  0  0  0  0
   37.9200   24.7700   36.7710 C   0  0  0  0  0  0  0  0  0  0  0  0
   37.8270   25.4960   37.5980 H   0  0  0  0  0  0  0  0  0  0  0  0
   37.6350   23.4500   36.9700 C   0  0  0  0  0  3  0  0  0  0  0  0
   37.8000   22.5760   35.8190 C   0  0  0  0  0  3  0  0  0  0  0  0
   38.3620   23.7930   34.5430 S   0  0  0  0  0  0  0  0  0  0  0  0
  1  5  1  0  0  0  0
  2  3  1  0  0  0  0
  2  1  2  0  0  0  0
  3  4  2  0  0  0  0
  4  5  1  0  0  0  0
  4 19  1  0  0  0  0
  6  2  1  0  0  0  0
  7  3  1  0  0  0  0
  8  1  1  0  0  0  0
  8 10  1  0  0  0  0
  9  8  2  0  0  0  0
 10 11  2  0  0  0  0
 10 15  1  0  0  0  0
 11 12  1  0  0  0  0
 12 17  1  0  0  0  0
 12 13  2  0  0  0  0
 14 13  1  0  0  0  0
 14 18  1  0  0  0  0
 15 14  2  0  0  0  0
 16 11  1  0  0  0  0
 19 20  2  0  0  0  0
 19 21  1  0  0  0  0
 21 22  2  0  0  0  0
 22 24  1  0  0  0  0
 22 23  1  0  0  0  0
 25 24  2  0  0  0  0
 26 21  1  0  0  0  0
 26 25  1  0  0  0  0
M  END
>  <minimizedAffinity>
-5.00970125

$$$$

 OpenBabel03272507313D

 26 28  0  0  0  0  0  0  0  0999 V2000
   37.9900   25.4760   36.0500 C   0  0  0  0  0  0  0  0  0  0  0  0
   38.5290   26.7020   36.3570 C   0  0  0  0  0  0  0  0  0  0  0  0
   38.1460   27.5990   35.3460 C   0  0  0  0  0  0  0  0  0  0  0  0
   37.3810   26.8430   34.4680 C   0  0  0  0  0  0  0  0  0  0  0  0
   37.3270   25.6200   34.9330 O   0  0  0  0  0  0  0  0  0  0  0  0
   39.1410   27.0480   37.1730 H   0  0  0  0  0  0  0  0  0  0  0  0
   38.3910   28.6400   35.2660 H   0  0  0  0  0  0  0  0  0  0  0  0
   38.1910   24.3230   36.8880 C   0  0  0  0  0  0  0  0  0  0  0  0
   37.4250   24.0980   37.8250 O   0  0  0  0  0  0  0  0  0  0  0  0
   39.3290   23.4750   36.5580 C   0  0  0  0  0  0  0  0  0  0  0  0
   39.9050   22.7570   37.6140 C   0  0  0  0  0  0  0  0  0  0  0  0
   40.9960   21.9340   37.3370 C   0  0  0  0  0  0  0  0  0  0  0  0
   41.4420   21.8700   36.0530 N   0  0  0  0  0  0  0  0  0  0  0  0
   40.8680   22.5720   35.0580 C   0  0  0  0  0  0  0  0  0  0  0  0
   39.8210   23.3660   35.3100 N   0  0  0  0  0  0  0  0  0  0  0  0
   39.5290   22.8280   38.6210 H   0  0  0  0  0  0  0  0  0  0  0  0
   41.4330   21.3850   38.1610 H   0  0  0  0  0  0  0  0  0  0  0  0
   41.2030   22.5390   34.0320 H   0  0  0  0  0  0  0  0  0  0  0  0
   36.7520   27.3490   33.2370 C   0  0  0  0  0  0  0  0  0  0  0  0
   36.7700   26.6360   32.2080 O   0  0  0  0  0  0  0  0  0  0  0  0
   36.1460   28.6220   33.2440 C   0  0  0  0  0  0  0  0  0  0  0  0
   35.4820   29.2780   34.2230 C   0  0  0  0  0  0  0  0  0  0  0  0
   35.3460   28.7730   35.1950 H   0  0  0  0  0  0  0  0  0  0  0  0
   34.9850   30.5320   34.0140 C   0  0  0  0  0  3  0  0  0  0  0  0
   35.2100   31.1030   32.6950 C   0  0  0  0  0  3  0  0  0  0  0  0
   36.1420   29.7260   31.8820 S   0  0  0  0  0  0  0  0  0  0  0  0
  1  2  2  0  0  0  0
  1  8  1  0  0  0  0
  2  6  1  0  0  0  0
  3  2  1  0  0  0  0
  4  5  1  0  0  0  0
  4  3  2  0  0  0  0
  5  1  1  0  0  0  0
  7  3  1  0  0  0  0
  8  9  2  0  0  0  0
 10  8  1  0  0  0  0
 10 11  1  0  0  0  0
 11 16  1  0  0  0  0
 12 11  2  0  0  0  0
 12 17  1  0  0  0  0
 13 12  1  0  0  0  0
 14 15  1  0  0  0  0
 14 13  2  0  0  0  0
 15 10  2  0  0  0  0
 18 14  1  0  0  0  0
 19 21  1  0  0  0  0
 19  4  1  0  0  0  0
 20 19  2  0  0  0  0
 21 22  2  0  0  0  0
 22 23  1  0  0  0  0
 24 22  1  0  0  0  0
 25 24  2  0  0  0  0
 26 25  1  0  0  0  0
 26 21  1  0  0  0  0
M  END
>  <minimizedAffinity>
-4.96796894

$$$$

 OpenBabel03272507313D

 26 28  0  0  0  0  0  0  0  0999 V2000
   37.8610   26.8540   34.1970 C   0  0  0  0  0  0  0  0  0  0  0  0
   38.4220   27.5630   35.2320 C   0  0  0  0  0  0  0  0  0  0  0  0
   38.6040   26.6760   36.3050 C   0  0  0  0  0  0  0  0  0  0  0  0
   38.1300   25.4550   35.8440 C   0  0  0  0  0  0  0  0  0  0  0  0
   37.7130   25.6240   34.6140 O   0  0  0  0  0  0  0  0  0  0  0  0
   38.7150   28.5950   35.3370 H   0  0  0  0  0  0  0  0  0  0  0  0
   39.0170   26.8920   37.2720 H   0  0  0  0  0  0  0  0  0  0  0  0
   37.5420   27.4690   32.9350 C   0  0  0  0  0  0  0  0  0  0  0  0
   38.2000   27.1960   31.9320 O   0  0  0  0  0  0  0  0  0  0  0  0
   36.4250   28.4050   32.9360 C   0  0  0  0  0  0  0  0  0  0  0  0
   35.7550   28.5830   34.1520 C   0  0  0  0  0  0  0  0  0  0  0  0
   34.6820   29.4710   34.1930 C   0  0  0  0  0  0  0  0  0  0  0  0
   34.3420   30.1200   33.0460 N   0  0  0  0  0  0  0  0  0  0  0  0
   35.0050   29.9290   31.8900 C   0  0  0  0  0  0  0  0  0  0  0  0
   36.0370   29.0790   31.8370 N   0  0  0  0  0  0  0  0  0  0  0  0
   36.0480   28.0550   35.0450 H   0  0  0  0  0  0  0  0  0  0  0  0
   34.1710   29.6000   35.1380 H   0  0  0  0  0  0  0  0  0  0  0  0
   34.7560   30.4320   30.9670 H   0  0  0  0  0  0  0  0  0  0  0  0
   38.1080   24.2040   36.6210 C   0  0  0  0  0  0  0  0  0  0  0  0
   37.0760   23.9040   37.2610 O   0  0  0  0  0  0  0  0  0  0  0  0
   39.2490   23.3750   36.6250 C   0  0  0  0  0  0  0  0  0  0  0  0
   39.8940   22.7650   37.6460 C   0  0  0  0  0  0  0  0  0  0  0  0
   39.5190   22.9220   38.6730 H   0  0  0  0  0  0  0  0  0  0  0  0
   40.9860   21.9810   37.4160 C   0  0  0  0  0  3  0  0  0  0  0  0
   41.4040   21.8480   36.0290 C   0  0  0  0  0  3  0  0  0  0  0  0
   40.1340   22.9010   35.1880 S   0  0  0  0  0  0  0  0  0  0  0  0
  1  5  1  0  0  0  0
  1  2  2  0  0  0  0
  2  6  1  0  0  0  0
  2  3  1  0  0  0  0
  3  7  1  0  0  0  0
  4  3  2  0  0  0  0
  4 19  1  0  0  0  0
  5  4  1  0  0  0  0
  8 10  1  0  0  0  0
  8  1  1  0  0  0  0
  9  8  2  0  0  0  0
 10 11  1  0  0  0  0
 11 12  2  0  0  0  0
 11 16  1  0  0  0  0
 12 17  1  0  0  0  0
 13 12  1  0  0  0  0
 14 13  2  0  0  0  0
 15 14  1  0  0  0  0
 15 10  2  0  0  0  0
 18 14  1  0  0  0  0
 19 21  1  0  0  0  0
 19 20  2  0  0  0  0
 21 22  2  0  0  0  0
 22 23  1  0  0  0  0
 24 22  1  0  0  0  0
 25 24  2  0  0  0  0
 26 25  1  0  0  0  0
 26 21  1  0  0  0  0
M  END
>  <minimizedAffinity>
-4.87248707

$$$$

 OpenBabel03272507313D

 26 28  0  0  0  0  0  0  0  0999 V2000
   38.1030   24.8330   33.9210 C   0  0  0  0  0  0  0  0  0  0  0  0
   39.1810   25.6820   33.8750 C   0  0  0  0  0  0  0  0  0  0  0  0
   38.7670   26.8610   33.2330 C   0  0  0  0  0  0  0  0  0  0  0  0
   37.4310   26.6470   32.9220 C   0  0  0  0  0  0  0  0  0  0  0  0
   37.1050   25.4520   33.3470 O   0  0  0  0  0  0  0  0  0  0  0  0
   40.1980   25.5930   34.2220 H   0  0  0  0  0  0  0  0  0  0  0  0
   39.3520   27.7360   33.0260 H   0  0  0  0  0  0  0  0  0  0  0  0
   38.1860   23.5260   34.5190 C   0  0  0  0  0  0  0  0  0  0  0  0
   38.0460   22.5190   33.8260 O   0  0  0  0  0  0  0  0  0  0  0  0
   38.4370   23.4860   35.9550 C   0  0  0  0  0  0  0  0  0  0  0  0
   39.6140   22.8520   36.3700 C   0  0  0  0  0  0  0  0  0  0  0  0
   39.8890   22.7950   37.7350 C   0  0  0  0  0  0  0  0  0  0  0  0
   38.9970   23.3610   38.5940 N   0  0  0  0  0  0  0  0  0  0  0  0
   37.8730   23.9640   38.1660 C   0  0  0  0  0  0  0  0  0  0  0  0
   37.5960   24.0250   36.8570 N   0  0  0  0  0  0  0  0  0  0  0  0
   40.3020   22.4140   35.6650 H   0  0  0  0  0  0  0  0  0  0  0  0
   40.8010   22.3020   38.0440 H   0  0  0  0  0  0  0  0  0  0  0  0
   37.1500   24.4200   38.8250 H   0  0  0  0  0  0  0  0  0  0  0  0
   36.5550   27.6080   32.2320 C   0  0  0  0  0  0  0  0  0  0  0  0
   36.2010   27.3720   31.0550 O   0  0  0  0  0  0  0  0  0  0  0  0
   36.1360   28.7710   32.9110 C   0  0  0  0  0  0  0  0  0  0  0  0
   35.8920   28.9870   34.2240 C   0  0  0  0  0  0  0  0  0  0  0  0
   36.0070   28.1430   34.9260 H   0  0  0  0  0  0  0  0  0  0  0  0
   35.5060   30.2170   34.6730 C   0  0  0  0  0  3  0  0  0  0  0  0
   35.3750   31.2580   33.6650 C   0  0  0  0  0  3  0  0  0  0  0  0
   35.8380   30.3170   32.1390 S   0  0  0  0  0  0  0  0  0  0  0  0
  1  8  1  0  0  0  0
  2  1  2  0  0  0  0
  2  6  1  0  0  0  0
  3  2  1  0  0  0  0
  4  3  2  0  0  0  0
  4  5  1  0  0  0  0
  5  1  1  0  0  0  0
  7  3  1  0  0  0  0
  8 10  1  0  0  0  0
  9  8  2  0  0  0  0
 10 11  2  0  0  0  0
 10 15  1  0  0  0  0
 11 12  1  0  0  0  0
 12 17  1  0  0  0  0
 12 13  2  0  0  0  0
 14 13  1  0  0  0  0
 14 18  1  0  0  0  0
 15 14  2  0  0  0  0
 16 11  1  0  0  0  0
 19 21  1  0  0  0  0
 19  4  1  0  0  0  0
 20 19  2  0  0  0  0
 21 22  2  0  0  0  0
 22 24  1  0  0  0  0
 22 23  1  0  0  0  0
 25 24  2  0  0  0  0
 26 21  1  0  0  0  0
 26 25  1  0  0  0  0
M  END
>  <minimizedAffinity>
-4.84785128

$$$$
