
 OpenBabel03272508503D

 26 28  0  0  1  0  0  0  0  0999 V2000
   38.6180   30.8020   46.2830 C   0  0  2  0  0  0  0  0  0  0  0  0
   40.0380   31.1020   46.1520 C   0  0  0  0  0  0  0  0  0  0  0  0
   38.9560   32.0010   45.5270 C   0  0  1  0  0  0  0  0  0  0  0  0
   38.1450   29.9940   45.6460 H   0  0  0  0  0  0  0  0  0  0  0  0
   40.6230   31.4780   47.0130 H   0  0  0  0  0  0  0  0  0  0  0  0
   40.6530   30.5670   45.4300 H   0  0  0  0  0  0  0  0  0  0  0  0
   39.0400   33.0030   45.9590 H   0  0  0  0  0  0  0  0  0  0  0  0
   35.9110   30.6380   48.8120 C   0  0  0  0  0  0  0  0  0  0  0  0
   36.5440   31.2080   49.9470 C   0  0  0  0  0  0  0  0  0  0  0  0
   37.9070   31.6500   49.8340 C   0  0  0  0  0  0  0  0  0  0  0  0
   38.5180   31.4910   48.6260 N   0  0  0  0  0  0  0  0  0  0  0  0
   37.8660   30.9370   47.5690 C   0  0  0  0  0  0  0  0  0  0  0  0
   36.5890   30.5090   47.6250 N   0  0  0  0  0  0  0  0  0  0  0  0
   34.8970   30.3400   48.9930 H   0  0  0  0  0  0  0  0  0  0  0  0
   36.0320   31.3140   50.8710 H   0  0  0  0  0  0  0  0  0  0  0  0
   38.4120   32.0810   50.6620 H   0  0  0  0  0  0  0  0  0  0  0  0
   39.4020   33.0250   43.3250 C   0  0  0  0  0  0  0  0  0  0  0  0
   40.0270   33.9450   43.9040 O   0  0  0  0  0  0  0  0  0  0  0  0
   38.8900   31.9040   44.0670 N   0  0  0  0  0  0  0  0  0  0  0  0
   38.4800   31.0420   43.6530 H   0  0  0  0  0  0  0  0  0  0  0  0
   39.0820   32.9000   41.8770 C   0  0  0  0  0  0  0  0  0  0  0  0
   38.5000   33.9500   41.1580 C   0  0  0  0  0  0  0  0  0  0  0  0
   38.2490   34.9040   41.5980 H   0  0  0  0  0  0  0  0  0  0  0  0
   38.2210   33.8140   39.8490 C   0  0  0  0  0  3  0  0  0  0  0  0
   38.5720   32.4870   39.2370 C   0  0  0  0  0  3  0  0  0  0  0  0
   39.2930   31.6040   40.7560 S   0  0  0  0  0  0  0  0  0  0  0  0
  1  4  1  6  0  0  0
  1 12  1  0  0  0  0
  2  1  1  0  0  0  0
  2  5  1  0  0  0  0
  3  7  1  1  0  0  0
  3  2  1  0  0  0  0
  3  1  1  0  0  0  0
  6  2  1  0  0  0  0
  8 14  1  0  0  0  0
  8  9  1  0  0  0  0
  9 15  1  0  0  0  0
 10  9  2  0  0  0  0
 10 16  1  0  0  0  0
 11 10  1  0  0  0  0
 12 13  1  0  0  0  0
 12 11  2  0  0  0  0
 13  8  2  0  0  0  0
 17 18  2  0  0  0  0
 17 19  1  0  0  0  0
 19  3  1  0  0  0  0
 20 19  1  0  0  0  0
 21 17  1  0  0  0  0
 22 23  1  0  0  0  0
 22 21  2  0  0  0  0
 24 22  1  0  0  0  0
 25 24  2  0  0  0  0
 25 26  1  0  0  0  0
 26 21  1  0  0  0  0
M  END
>  <minimizedAffinity>
-4.39265347

>  <minimizedRMSD>
8.41230869

$$$$
