
 OpenBabel03272508523D

 26 28  0  0  1  0  0  0  0  0999 V2000
   35.9630   26.9630   31.2400 C   0  0  2  0  0  0  0  0  0  0  0  0
   36.6450   27.9500   30.4130 C   0  0  0  0  0  0  0  0  0  0  0  0
   36.8820   27.8580   31.9310 C   0  0  1  0  0  0  0  0  0  0  0  0
   34.8820   27.1180   31.5400 H   0  0  0  0  0  0  0  0  0  0  0  0
   37.4540   27.6520   29.7200 H   0  0  0  0  0  0  0  0  0  0  0  0
   36.1280   28.8540   30.0920 H   0  0  0  0  0  0  0  0  0  0  0  0
   37.9410   27.6440   32.1080 H   0  0  0  0  0  0  0  0  0  0  0  0
   35.5910   23.2790   31.4520 C   0  0  0  0  0  0  0  0  0  0  0  0
   36.8870   22.8380   31.0780 C   0  0  0  0  0  0  0  0  0  0  0  0
   37.8870   23.8180   30.7540 C   0  0  0  0  0  0  0  0  0  0  0  0
   37.5260   25.1300   30.8270 N   0  0  0  0  0  0  0  0  0  0  0  0
   36.2680   25.4990   31.1900 C   0  0  0  0  0  0  0  0  0  0  0  0
   35.2980   24.6190   31.5040 N   0  0  0  0  0  0  0  0  0  0  0  0
   34.9150   22.4770   31.6750 H   0  0  0  0  0  0  0  0  0  0  0  0
   37.1290   21.8050   31.0340 H   0  0  0  0  0  0  0  0  0  0  0  0
   38.8670   23.5240   30.4700 H   0  0  0  0  0  0  0  0  0  0  0  0
   36.1650   28.7840   34.1050 C   0  0  0  0  0  0  0  0  0  0  0  0
   36.7020   27.8050   34.6740 O   0  0  0  0  0  0  0  0  0  0  0  0
   36.2870   28.9660   32.6830 N   0  0  0  0  0  0  0  0  0  0  0  0
   35.9890   29.8100   32.1550 H   0  0  0  0  0  0  0  0  0  0  0  0
   35.3580   29.8740   34.7170 C   0  0  0  0  0  0  0  0  0  0  0  0
   35.9370   30.8520   35.5330 C   0  0  0  0  0  0  0  0  0  0  0  0
   36.9910   30.8800   35.7690 H   0  0  0  0  0  0  0  0  0  0  0  0
   35.1870   31.8270   36.0760 C   0  0  0  0  0  3  0  0  0  0  0  0
   33.7200   31.7870   35.7470 C   0  0  0  0  0  3  0  0  0  0  0  0
   33.6730   30.2460   34.6370 S   0  0  0  0  0  0  0  0  0  0  0  0
  1  4  1  1  0  0  0
  1  3  1  0  0  0  0
  2  1  1  0  0  0  0
  2  3  1  0  0  0  0
  3  7  1  1  0  0  0
  3 19  1  0  0  0  0
  5  2  1  0  0  0  0
  6  2  1  0  0  0  0
  8 13  1  0  0  0  0
  8 14  1  0  0  0  0
  9  8  2  0  0  0  0
 10 11  2  0  0  0  0
 10  9  1  0  0  0  0
 11 12  1  0  0  0  0
 12  1  1  0  0  0  0
 12 13  2  0  0  0  0
 15  9  1  0  0  0  0
 16 10  1  0  0  0  0
 17 18  2  0  0  0  0
 17 21  1  0  0  0  0
 19 17  1  0  0  0  0
 20 19  1  0  0  0  0
 21 22  2  0  0  0  0
 22 23  1  0  0  0  0
 22 24  1  0  0  0  0
 25 24  2  0  0  0  0
 26 21  1  0  0  0  0
 26 25  1  0  0  0  0
M  END
>  <minimizedAffinity>
-4.26735783

$$$$

 OpenBabel03272508523D

 26 28  0  0  1  0  0  0  0  0999 V2000
   38.1840   23.9140   34.5230 C   0  0  2  0  0  0  0  0  0  0  0  0
   38.7350   23.0370   33.4980 C   0  0  0  0  0  0  0  0  0  0  0  0
   39.2210   24.4860   33.6750 C   0  0  1  0  0  0  0  0  0  0  0  0
   37.1710   24.3990   34.3750 H   0  0  0  0  0  0  0  0  0  0  0  0
   39.4120   22.2030   33.7650 H   0  0  0  0  0  0  0  0  0  0  0  0
   38.1890   22.8550   32.5740 H   0  0  0  0  0  0  0  0  0  0  0  0
   40.2910   24.4720   33.9080 H   0  0  0  0  0  0  0  0  0  0  0  0
   37.8730   24.1410   38.2120 C   0  0  0  0  0  0  0  0  0  0  0  0
   38.9880   23.3760   38.6410 C   0  0  0  0  0  0  0  0  0  0  0  0
   39.8470   22.7840   37.6520 C   0  0  0  0  0  0  0  0  0  0  0  0
   39.5330   22.9960   36.3430 N   0  0  0  0  0  0  0  0  0  0  0  0
   38.4500   23.7370   35.9840 C   0  0  0  0  0  0  0  0  0  0  0  0
   37.6180   24.3130   36.8740 N   0  0  0  0  0  0  0  0  0  0  0  0
   37.2930   24.5420   39.0200 H   0  0  0  0  0  0  0  0  0  0  0  0
   39.1980   23.2340   39.6720 H   0  0  0  0  0  0  0  0  0  0  0  0
   40.6900   22.2050   37.9370 H   0  0  0  0  0  0  0  0  0  0  0  0
   38.8690   26.7950   32.8730 C   0  0  0  0  0  0  0  0  0  0  0  0
   39.4560   27.2170   33.8970 O   0  0  0  0  0  0  0  0  0  0  0  0
   38.7810   25.3840   32.6050 N   0  0  0  0  0  0  0  0  0  0  0  0
   38.4320   24.9590   31.7220 H   0  0  0  0  0  0  0  0  0  0  0  0
   38.1970   27.5870   31.8070 C   0  0  0  0  0  0  0  0  0  0  0  0
   37.0060   28.2820   32.0440 C   0  0  0  0  0  0  0  0  0  0  0  0
   36.5040   28.2900   33.0000 H   0  0  0  0  0  0  0  0  0  0  0  0
   36.4170   28.9900   31.0640 C   0  0  0  0  0  3  0  0  0  0  0  0
   37.1170   28.9780   29.7340 C   0  0  0  0  0  3  0  0  0  0  0  0
   38.6040   27.8730   30.1530 S   0  0  0  0  0  0  0  0  0  0  0  0
  1  4  1  6  0  0  0
  1 12  1  0  0  0  0
  2  3  1  0  0  0  0
  2  5  1  0  0  0  0
  2  1  1  0  0  0  0
  3  7  1  1  0  0  0
  3  1  1  0  0  0  0
  6  2  1  0  0  0  0
  8  9  1  0  0  0  0
  8 14  1  0  0  0  0
  9 15  1  0  0  0  0
 10 16  1  0  0  0  0
 10  9  2  0  0  0  0
 11 10  1  0  0  0  0
 12 11  2  0  0  0  0
 12 13  1  0  0  0  0
 13  8  2  0  0  0  0
 17 18  2  0  0  0  0
 19 17  1  0  0  0  0
 19  3  1  0  0  0  0
 20 19  1  0  0  0  0
 21 22  2  0  0  0  0
 21 17  1  0  0  0  0
 22 23  1  0  0  0  0
 24 22  1  0  0  0  0
 25 26  1  0  0  0  0
 25 24  2  0  0  0  0
 26 21  1  0  0  0  0
M  END
>  <minimizedAffinity>
-4.24157667

$$$$

 OpenBabel03272508523D

 26 28  0  0  1  0  0  0  0  0999 V2000
   38.7600   26.2930   35.1670 C   0  0  2  0  0  0  0  0  0  0  0  0
   38.2960   27.3180   36.0930 C   0  0  0  0  0  0  0  0  0  0  0  0
   37.4010   26.7790   34.9630 C   0  0  1  0  0  0  0  0  0  0  0  0
   39.4600   26.5650   34.3190 H   0  0  0  0  0  0  0  0  0  0  0  0
   38.0510   27.0680   37.1430 H   0  0  0  0  0  0  0  0  0  0  0  0
   38.6030   28.3550   35.9700 H   0  0  0  0  0  0  0  0  0  0  0  0
   36.5080   26.3280   35.4070 H   0  0  0  0  0  0  0  0  0  0  0  0
   38.2550   22.9430   36.6760 C   0  0  0  0  0  0  0  0  0  0  0  0
   39.4190   22.2560   36.2440 C   0  0  0  0  0  0  0  0  0  0  0  0
   40.3770   22.9550   35.4310 C   0  0  0  0  0  0  0  0  0  0  0  0
   40.1060   24.2540   35.1210 N   0  0  0  0  0  0  0  0  0  0  0  0
   38.9730   24.8660   35.5600 C   0  0  0  0  0  0  0  0  0  0  0  0
   38.0480   24.2540   36.3240 N   0  0  0  0  0  0  0  0  0  0  0  0
   37.6020   22.3410   37.2760 H   0  0  0  0  0  0  0  0  0  0  0  0
   39.5940   21.2430   36.5080 H   0  0  0  0  0  0  0  0  0  0  0  0
   41.2590   22.4730   35.0900 H   0  0  0  0  0  0  0  0  0  0  0  0
   36.8510   27.1860   32.5900 C   0  0  0  0  0  0  0  0  0  0  0  0
   36.5710   25.9710   32.4690 O   0  0  0  0  0  0  0  0  0  0  0  0
   37.1970   27.7370   33.8730 N   0  0  0  0  0  0  0  0  0  0  0  0
   37.3130   28.7490   34.0850 H   0  0  0  0  0  0  0  0  0  0  0  0
   36.8850   28.2320   31.5320 C   0  0  0  0  0  0  0  0  0  0  0  0
   36.0980   29.3870   31.6100 C   0  0  0  0  0  0  0  0  0  0  0  0
   35.4270   29.5930   32.4310 H   0  0  0  0  0  0  0  0  0  0  0  0
   36.1460   30.3170   30.6410 C   0  0  0  0  0  3  0  0  0  0  0  0
   37.0800   30.0300   29.4990 C   0  0  0  0  0  3  0  0  0  0  0  0
   37.7780   28.3540   30.0580 S   0  0  0  0  0  0  0  0  0  0  0  0
  1  4  1  6  0  0  0
  1 12  1  0  0  0  0
  1  2  1  0  0  0  0
  2  5  1  0  0  0  0
  3  1  1  0  0  0  0
  3  7  1  1  0  0  0
  3  2  1  0  0  0  0
  6  2  1  0  0  0  0
  8 14  1  0  0  0  0
  9 15  1  0  0  0  0
  9  8  2  0  0  0  0
 10  9  1  0  0  0  0
 11 10  2  0  0  0  0
 11 12  1  0  0  0  0
 12 13  2  0  0  0  0
 13  8  1  0  0  0  0
 16 10  1  0  0  0  0
 17 19  1  0  0  0  0
 18 17  2  0  0  0  0
 19 20  1  0  0  0  0
 19  3  1  0  0  0  0
 21 22  2  0  0  0  0
 21 17  1  0  0  0  0
 22 23  1  0  0  0  0
 24 22  1  0  0  0  0
 25 26  1  0  0  0  0
 25 24  2  0  0  0  0
 26 21  1  0  0  0  0
M  END
>  <minimizedAffinity>
-4.23174286

$$$$

 OpenBabel03272508523D

 26 28  0  0  1  0  0  0  0  0999 V2000
   38.1530   26.5040   32.2400 C   0  0  2  0  0  0  0  0  0  0  0  0
   38.0670   25.3120   31.4060 C   0  0  0  0  0  0  0  0  0  0  0  0
   37.3130   25.4240   32.7430 C   0  0  1  0  0  0  0  0  0  0  0  0
   39.0700   26.6870   32.8790 H   0  0  0  0  0  0  0  0  0  0  0  0
   37.4930   25.3200   30.4590 H   0  0  0  0  0  0  0  0  0  0  0  0
   38.8720   24.5800   31.4020 H   0  0  0  0  0  0  0  0  0  0  0  0
   36.2400   25.3320   32.5490 H   0  0  0  0  0  0  0  0  0  0  0  0
   37.2760   29.5940   30.3870 C   0  0  0  0  0  0  0  0  0  0  0  0
   36.3330   30.1940   31.2610 C   0  0  0  0  0  0  0  0  0  0  0  0
   36.0030   29.5280   32.4910 C   0  0  0  0  0  0  0  0  0  0  0  0
   36.6250   28.3430   32.7470 N   0  0  0  0  0  0  0  0  0  0  0  0
   37.5220   27.8100   31.8740 C   0  0  0  0  0  0  0  0  0  0  0  0
   37.8640   28.3960   30.7110 N   0  0  0  0  0  0  0  0  0  0  0  0
   37.4570   30.1640   29.4970 H   0  0  0  0  0  0  0  0  0  0  0  0
   35.8690   31.1200   31.0240 H   0  0  0  0  0  0  0  0  0  0  0  0
   35.3020   29.9470   33.1680 H   0  0  0  0  0  0  0  0  0  0  0  0
   37.8400   25.1230   35.1360 C   0  0  0  0  0  0  0  0  0  0  0  0
   37.1990   26.1700   35.3870 O   0  0  0  0  0  0  0  0  0  0  0  0
   37.8780   24.5840   33.8030 N   0  0  0  0  0  0  0  0  0  0  0  0
   38.2700   23.6590   33.5360 H   0  0  0  0  0  0  0  0  0  0  0  0
   38.6290   24.2810   36.0760 C   0  0  0  0  0  0  0  0  0  0  0  0
   38.2120   24.0550   37.3930 C   0  0  0  0  0  0  0  0  0  0  0  0
   37.3040   24.4700   37.8070 H   0  0  0  0  0  0  0  0  0  0  0  0
   38.9430   23.2910   38.2230 C   0  0  0  0  0  3  0  0  0  0  0  0
   40.2050   22.7150   37.6460 C   0  0  0  0  0  3  0  0  0  0  0  0
   40.1150   23.4230   35.8850 S   0  0  0  0  0  0  0  0  0  0  0  0
  1  3  1  0  0  0  0
  1  4  1  1  0  0  0
  2  1  1  0  0  0  0
  2  3  1  0  0  0  0
  3  7  1  6  0  0  0
  3 19  1  0  0  0  0
  5  2  1  0  0  0  0
  6  2  1  0  0  0  0
  8 13  2  0  0  0  0
  8  9  1  0  0  0  0
  9 10  2  0  0  0  0
 10 11  1  0  0  0  0
 10 16  1  0  0  0  0
 12  1  1  0  0  0  0
 12 11  2  0  0  0  0
 13 12  1  0  0  0  0
 14  8  1  0  0  0  0
 15  9  1  0  0  0  0
 17 18  2  0  0  0  0
 17 21  1  0  0  0  0
 19 17  1  0  0  0  0
 20 19  1  0  0  0  0
 21 22  2  0  0  0  0
 22 23  1  0  0  0  0
 22 24  1  0  0  0  0
 25 24  2  0  0  0  0
 26 21  1  0  0  0  0
 26 25  1  0  0  0  0
M  END
>  <minimizedAffinity>
-4.22810459

$$$$

 OpenBabel03272508523D

 26 28  0  0  1  0  0  0  0  0999 V2000
   36.3280   28.1950   32.9890 C   0  0  2  0  0  0  0  0  0  0  0  0
   37.0790   28.3480   31.7490 C   0  0  0  0  0  0  0  0  0  0  0  0
   35.9680   27.2940   31.9010 C   0  0  1  0  0  0  0  0  0  0  0  0
   36.7900   27.6610   33.8740 H   0  0  0  0  0  0  0  0  0  0  0  0
   36.9120   29.2180   31.0860 H   0  0  0  0  0  0  0  0  0  0  0  0
   38.0830   27.9360   31.6560 H   0  0  0  0  0  0  0  0  0  0  0  0
   35.1890   27.4970   31.1600 H   0  0  0  0  0  0  0  0  0  0  0  0
   33.2710   30.2800   33.2310 C   0  0  0  0  0  0  0  0  0  0  0  0
   33.5320   31.0360   34.4030 C   0  0  0  0  0  0  0  0  0  0  0  0
   34.7670   30.8240   35.1060 C   0  0  0  0  0  0  0  0  0  0  0  0
   35.6250   29.8950   34.5980 N   0  0  0  0  0  0  0  0  0  0  0  0
   35.3260   29.1960   33.4700 C   0  0  0  0  0  0  0  0  0  0  0  0
   34.1830   29.3600   32.7760 N   0  0  0  0  0  0  0  0  0  0  0  0
   32.3260   30.5080   32.7760 H   0  0  0  0  0  0  0  0  0  0  0  0
   32.8360   31.7520   34.7660 H   0  0  0  0  0  0  0  0  0  0  0  0
   34.9950   31.3720   35.9860 H   0  0  0  0  0  0  0  0  0  0  0  0
   35.6750   24.9050   31.3540 C   0  0  0  0  0  0  0  0  0  0  0  0
   34.6990   25.2120   30.6300 O   0  0  0  0  0  0  0  0  0  0  0  0
   36.4740   25.9220   31.9840 N   0  0  0  0  0  0  0  0  0  0  0  0
   37.3690   25.7600   32.4870 H   0  0  0  0  0  0  0  0  0  0  0  0
   36.1760   23.5440   31.6910 C   0  0  0  0  0  0  0  0  0  0  0  0
   35.5700   22.3880   31.1860 C   0  0  0  0  0  0  0  0  0  0  0  0
   34.7130   22.4070   30.5290 H   0  0  0  0  0  0  0  0  0  0  0  0
   36.0410   21.1710   31.5050 C   0  0  0  0  0  3  0  0  0  0  0  0
   37.2340   21.1460   32.4200 C   0  0  0  0  0  3  0  0  0  0  0  0
   37.4880   23.0110   32.6800 S   0  0  0  0  0  0  0  0  0  0  0  0
  1 12  1  0  0  0  0
  1  4  1  1  0  0  0
  2  3  1  0  0  0  0
  2  1  1  0  0  0  0
  3  7  1  6  0  0  0
  3 19  1  0  0  0  0
  3  1  1  0  0  0  0
  5  2  1  0  0  0  0
  6  2  1  0  0  0  0
  8  9  1  0  0  0  0
  9 15  1  0  0  0  0
  9 10  2  0  0  0  0
 10 16  1  0  0  0  0
 11 10  1  0  0  0  0
 12 11  2  0  0  0  0
 13  8  2  0  0  0  0
 13 12  1  0  0  0  0
 14  8  1  0  0  0  0
 17 21  1  0  0  0  0
 17 19  1  0  0  0  0
 18 17  2  0  0  0  0
 19 20  1  0  0  0  0
 21 26  1  0  0  0  0
 22 24  1  0  0  0  0
 22 21  2  0  0  0  0
 23 22  1  0  0  0  0
 24 25  2  0  0  0  0
 25 26  1  0  0  0  0
M  END
>  <minimizedAffinity>
-4.19020462

$$$$

 OpenBabel03272508523D

 26 28  0  0  1  0  0  0  0  0999 V2000
   38.7880   26.2850   35.1600 C   0  0  2  0  0  0  0  0  0  0  0  0
   38.3180   27.2910   36.1020 C   0  0  0  0  0  0  0  0  0  0  0  0
   37.4290   26.7730   34.9580 C   0  0  1  0  0  0  0  0  0  0  0  0
   39.4920   26.5730   34.3210 H   0  0  0  0  0  0  0  0  0  0  0  0
   38.0680   27.0220   37.1460 H   0  0  0  0  0  0  0  0  0  0  0  0
   38.6240   28.3310   36.0000 H   0  0  0  0  0  0  0  0  0  0  0  0
   36.5350   26.3130   35.3890 H   0  0  0  0  0  0  0  0  0  0  0  0
   40.3190   22.9220   35.4800 C   0  0  0  0  0  0  0  0  0  0  0  0
   39.3350   22.2310   36.2340 C   0  0  0  0  0  0  0  0  0  0  0  0
   38.1430   22.9300   36.6290 C   0  0  0  0  0  0  0  0  0  0  0  0
   38.0280   24.2340   36.2500 N   0  0  0  0  0  0  0  0  0  0  0  0
   39.0010   24.8510   35.5280 C   0  0  0  0  0  0  0  0  0  0  0  0
   40.1350   24.2380   35.1340 N   0  0  0  0  0  0  0  0  0  0  0  0
   41.1700   22.3190   35.2330 H   0  0  0  0  0  0  0  0  0  0  0  0
   39.4630   21.2130   36.5100 H   0  0  0  0  0  0  0  0  0  0  0  0
   37.3870   22.4440   37.1930 H   0  0  0  0  0  0  0  0  0  0  0  0
   36.8860   27.2230   32.5920 C   0  0  0  0  0  0  0  0  0  0  0  0
   36.6040   26.0100   32.4480 O   0  0  0  0  0  0  0  0  0  0  0  0
   37.2290   27.7510   33.8860 N   0  0  0  0  0  0  0  0  0  0  0  0
   37.3460   28.7580   34.1150 H   0  0  0  0  0  0  0  0  0  0  0  0
   36.9240   28.2880   31.5520 C   0  0  0  0  0  0  0  0  0  0  0  0
   37.8410   28.2560   30.4960 C   0  0  0  0  0  0  0  0  0  0  0  0
   38.5700   27.4700   30.3680 H   0  0  0  0  0  0  0  0  0  0  0  0
   37.8560   29.2290   29.5690 C   0  0  0  0  0  3  0  0  0  0  0  0
   36.8400   30.3230   29.7490 C   0  0  0  0  0  3  0  0  0  0  0  0
   35.9810   29.7180   31.3310 S   0  0  0  0  0  0  0  0  0  0  0  0
  1  4  1  6  0  0  0
  1 12  1  0  0  0  0
  1  2  1  0  0  0  0
  2  5  1  0  0  0  0
  3  1  1  0  0  0  0
  3  7  1  1  0  0  0
  3  2  1  0  0  0  0
  6  2  1  0  0  0  0
  8  9  1  0  0  0  0
  9 15  1  0  0  0  0
  9 10  2  0  0  0  0
 10 16  1  0  0  0  0
 11 10  1  0  0  0  0
 12 11  2  0  0  0  0
 13  8  2  0  0  0  0
 13 12  1  0  0  0  0
 14  8  1  0  0  0  0
 17 19  1  0  0  0  0
 18 17  2  0  0  0  0
 19 20  1  0  0  0  0
 19  3  1  0  0  0  0
 21 17  1  0  0  0  0
 22 21  2  0  0  0  0
 23 22  1  0  0  0  0
 24 25  2  0  0  0  0
 24 22  1  0  0  0  0
 25 26  1  0  0  0  0
 26 21  1  0  0  0  0
M  END
>  <minimizedAffinity>
-4.17723608

$$$$

 OpenBabel03272508523D

 26 28  0  0  1  0  0  0  0  0999 V2000
   38.1810   24.3970   34.5320 C   0  0  2  0  0  0  0  0  0  0  0  0
   38.7250   24.2560   33.1880 C   0  0  0  0  0  0  0  0  0  0  0  0
   38.7600   25.5970   33.9420 C   0  0  1  0  0  0  0  0  0  0  0  0
   37.0620   24.4750   34.6890 H   0  0  0  0  0  0  0  0  0  0  0  0
   39.6710   23.7100   33.0100 H   0  0  0  0  0  0  0  0  0  0  0  0
   38.0640   24.2420   32.3220 H   0  0  0  0  0  0  0  0  0  0  0  0
   39.8040   25.9050   34.0610 H   0  0  0  0  0  0  0  0  0  0  0  0
   38.7950   23.3530   38.0370 C   0  0  0  0  0  0  0  0  0  0  0  0
   40.0380   22.6780   37.9210 C   0  0  0  0  0  0  0  0  0  0  0  0
   40.6620   22.5880   36.6300 C   0  0  0  0  0  0  0  0  0  0  0  0
   40.0120   23.1630   35.5790 N   0  0  0  0  0  0  0  0  0  0  0  0
   38.8200   23.7970   35.7440 C   0  0  0  0  0  0  0  0  0  0  0  0
   38.1970   23.9090   36.9330 N   0  0  0  0  0  0  0  0  0  0  0  0
   38.4090   23.3690   39.0370 H   0  0  0  0  0  0  0  0  0  0  0  0
   40.5120   22.2430   38.7660 H   0  0  0  0  0  0  0  0  0  0  0  0
   41.5920   22.0910   36.5060 H   0  0  0  0  0  0  0  0  0  0  0  0
   37.3520   27.5870   34.3320 C   0  0  0  0  0  0  0  0  0  0  0  0
   37.8560   27.6930   35.4750 O   0  0  0  0  0  0  0  0  0  0  0  0
   37.8250   26.5900   33.4080 N   0  0  0  0  0  0  0  0  0  0  0  0
   37.5570   26.5210   32.4060 H   0  0  0  0  0  0  0  0  0  0  0  0
   36.2550   28.3950   33.7330 C   0  0  0  0  0  0  0  0  0  0  0  0
   35.6180   29.4180   34.4460 C   0  0  0  0  0  0  0  0  0  0  0  0
   35.8760   29.6830   35.4600 H   0  0  0  0  0  0  0  0  0  0  0  0
   34.6290   30.1330   33.8830 C   0  0  0  0  0  3  0  0  0  0  0  0
   34.2700   29.7620   32.4710 C   0  0  0  0  0  3  0  0  0  0  0  0
   35.5050   28.3490   32.1780 S   0  0  0  0  0  0  0  0  0  0  0  0
  1  4  1  1  0  0  0
  1 12  1  0  0  0  0
  2  3  1  0  0  0  0
  2  1  1  0  0  0  0
  3  7  1  1  0  0  0
  3  1  1  0  0  0  0
  5  2  1  0  0  0  0
  6  2  1  0  0  0  0
  8 14  1  0  0  0  0
  9  8  1  0  0  0  0
  9 15  1  0  0  0  0
 10  9  2  0  0  0  0
 11 12  2  0  0  0  0
 11 10  1  0  0  0  0
 12 13  1  0  0  0  0
 13  8  2  0  0  0  0
 16 10  1  0  0  0  0
 17 18  2  0  0  0  0
 19  3  1  0  0  0  0
 19 17  1  0  0  0  0
 20 19  1  0  0  0  0
 21 17  1  0  0  0  0
 21 22  2  0  0  0  0
 22 23  1  0  0  0  0
 24 22  1  0  0  0  0
 25 24  2  0  0  0  0
 26 25  1  0  0  0  0
 26 21  1  0  0  0  0
M  END
>  <minimizedAffinity>
-4.13017607

$$$$

 OpenBabel03272508523D

 26 28  0  0  1  0  0  0  0  0999 V2000
   37.2050   27.4670   33.3130 C   0  0  2  0  0  0  0  0  0  0  0  0
   37.9970   27.3150   34.5260 C   0  0  0  0  0  0  0  0  0  0  0  0
   36.5450   27.8220   34.5630 C   0  0  1  0  0  0  0  0  0  0  0  0
   37.3710   28.3560   32.6310 H   0  0  0  0  0  0  0  0  0  0  0  0
   38.2310   26.3120   34.9320 H   0  0  0  0  0  0  0  0  0  0  0  0
   38.7420   28.0610   34.7980 H   0  0  0  0  0  0  0  0  0  0  0  0
   35.9470   27.1310   35.1660 H   0  0  0  0  0  0  0  0  0  0  0  0
   35.2860   25.4590   30.8560 C   0  0  0  0  0  0  0  0  0  0  0  0
   35.7910   24.1540   31.0960 C   0  0  0  0  0  0  0  0  0  0  0  0
   36.7940   23.9730   32.1090 C   0  0  0  0  0  0  0  0  0  0  0  0
   37.2060   25.0800   32.7880 N   0  0  0  0  0  0  0  0  0  0  0  0
   36.6900   26.3100   32.5180 C   0  0  0  0  0  0  0  0  0  0  0  0
   35.7490   26.5300   31.5790 N   0  0  0  0  0  0  0  0  0  0  0  0
   34.5430   25.4940   30.0830 H   0  0  0  0  0  0  0  0  0  0  0  0
   35.4430   23.3160   30.5440 H   0  0  0  0  0  0  0  0  0  0  0  0
   37.1940   23.0110   32.3160 H   0  0  0  0  0  0  0  0  0  0  0  0
   35.2330   29.9090   34.4290 C   0  0  0  0  0  0  0  0  0  0  0  0
   34.2720   29.2500   33.9660 O   0  0  0  0  0  0  0  0  0  0  0  0
   36.4330   29.2500   34.8710 N   0  0  0  0  0  0  0  0  0  0  0  0
   37.2160   29.7020   35.3840 H   0  0  0  0  0  0  0  0  0  0  0  0
   35.3350   31.3830   34.6070 C   0  0  0  0  0  0  0  0  0  0  0  0
   36.1840   31.9540   35.5620 C   0  0  0  0  0  0  0  0  0  0  0  0
   36.8100   31.3720   36.2220 H   0  0  0  0  0  0  0  0  0  0  0  0
   36.2580   33.2890   35.7050 C   0  0  0  0  0  3  0  0  0  0  0  0
   35.3860   34.0980   34.7850 C   0  0  0  0  0  3  0  0  0  0  0  0
   34.5520   32.6990   33.8080 S   0  0  0  0  0  0  0  0  0  0  0  0
  1  4  1  6  0  0  0
  1  2  1  0  0  0  0
  1  3  1  0  0  0  0
  2  3  1  0  0  0  0
  2  6  1  0  0  0  0
  2  5  1  0  0  0  0
  3 19  1  0  0  0  0
  3  7  1  1  0  0  0
  8  9  2  0  0  0  0
  8 13  1  0  0  0  0
  9 10  1  0  0  0  0
 10 16  1  0  0  0  0
 10 11  2  0  0  0  0
 12 11  1  0  0  0  0
 12  1  1  0  0  0  0
 13 12  2  0  0  0  0
 14  8  1  0  0  0  0
 15  9  1  0  0  0  0
 17 21  1  0  0  0  0
 17 19  1  0  0  0  0
 18 17  2  0  0  0  0
 19 20  1  0  0  0  0
 21 22  2  0  0  0  0
 22 24  1  0  0  0  0
 22 23  1  0  0  0  0
 25 24  2  0  0  0  0
 26 21  1  0  0  0  0
 26 25  1  0  0  0  0
M  END
>  <minimizedAffinity>
-4.11073303

$$$$

 OpenBabel03272508523D

 26 28  0  0  1  0  0  0  0  0999 V2000
   37.4080   26.5130   32.8020 C   0  0  2  0  0  0  0  0  0  0  0  0
   38.7130   26.4110   32.1600 C   0  0  0  0  0  0  0  0  0  0  0  0
   37.4350   25.8730   31.4930 C   0  0  1  0  0  0  0  0  0  0  0  0
   37.1270   25.8020   33.6380 H   0  0  0  0  0  0  0  0  0  0  0  0
   39.2100   27.3040   31.7360 H   0  0  0  0  0  0  0  0  0  0  0  0
   39.4210   25.6420   32.4660 H   0  0  0  0  0  0  0  0  0  0  0  0
   37.2880   26.3960   30.5430 H   0  0  0  0  0  0  0  0  0  0  0  0
   35.6890   29.4120   34.3480 C   0  0  0  0  0  0  0  0  0  0  0  0
   35.3310   30.1750   33.2060 C   0  0  0  0  0  0  0  0  0  0  0  0
   35.6850   29.6830   31.9030 C   0  0  0  0  0  0  0  0  0  0  0  0
   36.3530   28.4970   31.8410 N   0  0  0  0  0  0  0  0  0  0  0  0
   36.6730   27.8040   32.9680 C   0  0  0  0  0  0  0  0  0  0  0  0
   36.3620   28.2230   34.2100 N   0  0  0  0  0  0  0  0  0  0  0  0
   35.3830   29.8590   35.2740 H   0  0  0  0  0  0  0  0  0  0  0  0
   34.8110   31.0960   33.2970 H   0  0  0  0  0  0  0  0  0  0  0  0
   35.4340   30.2270   31.0270 H   0  0  0  0  0  0  0  0  0  0  0  0
   36.0520   23.8350   31.3110 C   0  0  0  0  0  0  0  0  0  0  0  0
   35.0650   24.5560   31.0330 O   0  0  0  0  0  0  0  0  0  0  0  0
   37.3620   24.4090   31.4690 N   0  0  0  0  0  0  0  0  0  0  0  0
   38.2480   23.8740   31.5680 H   0  0  0  0  0  0  0  0  0  0  0  0
   36.0850   22.3620   31.5190 C   0  0  0  0  0  0  0  0  0  0  0  0
   35.0980   21.6990   32.2590 C   0  0  0  0  0  0  0  0  0  0  0  0
   34.2620   22.2040   32.7190 H   0  0  0  0  0  0  0  0  0  0  0  0
   35.1500   20.3670   32.4330 C   0  0  0  0  0  3  0  0  0  0  0  0
   36.3140   19.6650   31.7920 C   0  0  0  0  0  3  0  0  0  0  0  0
   37.1940   21.1470   30.9940 S   0  0  0  0  0  0  0  0  0  0  0  0
  1 12  1  0  0  0  0
  1  4  1  1  0  0  0
  2  6  1  0  0  0  0
  2  1  1  0  0  0  0
  3  7  1  6  0  0  0
  3  2  1  0  0  0  0
  3  1  1  0  0  0  0
  5  2  1  0  0  0  0
  8 14  1  0  0  0  0
  9 15  1  0  0  0  0
  9  8  2  0  0  0  0
 10  9  1  0  0  0  0
 11 10  2  0  0  0  0
 11 12  1  0  0  0  0
 12 13  2  0  0  0  0
 13  8  1  0  0  0  0
 16 10  1  0  0  0  0
 17 19  1  0  0  0  0
 17 21  1  0  0  0  0
 18 17  2  0  0  0  0
 19  3  1  0  0  0  0
 19 20  1  0  0  0  0
 21 22  2  0  0  0  0
 22 24  1  0  0  0  0
 22 23  1  0  0  0  0
 25 24  2  0  0  0  0
 26 21  1  0  0  0  0
 26 25  1  0  0  0  0
M  END
>  <minimizedAffinity>
-4.10212612

$$$$
