
 OpenBabel03262521013D

 34 36  0  0  1  0  0  0  0  0999 V2000
   39.8000   33.0090   45.9700 N   0  0  0  0  0  0  0  0  0  0  0  0
   38.4870   32.4560   46.0580 C   0  0  1  0  0  0  0  0  0  0  0  0
   37.9400   32.1790   44.6770 C   0  0  0  0  0  0  0  0  0  0  0  0
   38.8600   31.2440   44.0400 N   0  0  0  0  0  0  0  0  0  0  0  0
   40.0880   32.0080   43.8000 C   0  0  0  0  0  0  0  0  0  0  0  0
   40.7050   32.2340   45.1690 C   0  0  2  0  0  0  0  0  0  0  0  0
   40.1820   33.4710   46.7790 H   0  0  0  0  0  0  0  0  0  0  0  0
   37.8310   33.1600   46.5800 H   0  0  0  0  0  0  0  0  0  0  0  0
   37.8210   33.1010   44.0800 H   0  0  0  0  0  0  0  0  0  0  0  0
   36.9270   31.6940   44.7640 H   0  0  0  0  0  0  0  0  0  0  0  0
   38.4360   31.0350   43.0930 H   0  0  0  0  0  0  0  0  0  0  0  0
   39.8270   32.9850   43.3520 H   0  0  0  0  0  0  0  0  0  0  0  0
   40.7830   31.4460   43.1430 H   0  0  0  0  0  0  0  0  0  0  0  0
   41.6390   32.8160   45.0180 H   0  0  0  0  0  0  0  0  0  0  0  0
   41.0460   30.9710   45.7560 N   0  0  0  0  0  0  0  0  0  0  0  0
   41.3180   31.0650   46.7480 H   0  0  0  0  0  0  0  0  0  0  0  0
   41.7560   30.5120   45.1620 H   0  0  0  0  0  0  0  0  0  0  0  0
   38.4730   30.8360   46.9340 S   0  0  0  0  0  0  0  0  0  0  0  0
   35.6290   30.7620   49.8320 C   0  0  0  0  0  0  0  0  0  0  0  0
   36.8620   30.9080   49.2370 C   0  0  0  0  0  0  0  0  0  0  0  0
   36.9630   30.6930   47.8740 C   0  0  0  0  0  0  0  0  0  0  0  0
   35.8180   30.3420   47.1620 N   0  0  0  0  0  0  0  0  0  0  0  0
   34.6620   30.2200   47.8000 C   0  0  0  0  0  0  0  0  0  0  0  0
   34.5450   30.4250   49.1290 N   0  0  0  0  0  0  0  0  0  0  0  0
   35.5830   30.9370   50.9010 H   0  0  0  0  0  0  0  0  0  0  0  0
   37.7640   31.1760   49.7500 H   0  0  0  0  0  0  0  0  0  0  0  0
   33.4640   29.8560   47.0720 C   0  0  0  0  0  0  0  0  0  0  0  0
   32.9160   30.6170   46.2520 O   0  0  0  0  0  0  0  0  0  0  0  0
   32.8490   28.5730   47.2730 C   0  0  0  0  0  0  0  0  0  0  0  0
   31.5640   28.2030   47.2490 C   0  0  0  0  0  0  0  0  0  0  0  0
   30.7980   28.9390   47.0500 H   0  0  0  0  0  0  0  0  0  0  0  0
   31.2060   26.9000   47.4740 C   0  0  0  0  0  0  0  0  0  0  0  0
   32.2940   26.0020   47.7270 C   0  0  0  0  0  0  0  0  0  0  0  0
   33.7970   27.0760   47.6330 S   0  0  0  0  0  0  0  0  0  0  0  0
  1  2  1  0  0  0  0
  1  7  1  0  0  0  0
  2  8  1  1  0  0  0
  2 18  1  0  0  0  0
  3 10  1  0  0  0  0
  3  2  1  0  0  0  0
  4  3  1  0  0  0  0
  5  4  1  0  0  0  0
  5  6  1  0  0  0  0
  6 14  1  6  0  0  0
  6 15  1  0  0  0  0
  6  1  1  0  0  0  0
  9  3  1  0  0  0  0
 11  4  1  0  0  0  0
 12  5  1  0  0  0  0
 13  5  1  0  0  0  0
 15 16  1  0  0  0  0
 17 15  1  0  0  0  0
 18 21  1  0  0  0  0
 19 25  1  0  0  0  0
 20 26  1  0  0  0  0
 20 19  1  0  0  0  0
 21 20  2  0  0  0  0
 22 23  2  0  0  0  0
 22 21  1  0  0  0  0
 23 24  1  0  0  0  0
 24 19  2  0  0  0  0
 27 29  1  0  0  0  0
 27 23  1  0  0  0  0
 28 27  2  0  0  0  0
 29 34  1  0  0  0  0
 30 29  2  0  0  0  0
 30 32  1  0  0  0  0
 31 30  1  0  0  0  0
 32 33  2  0  0  0  0
 34 33  1  0  0  0  0
M  END
>  <minimizedAffinity>
-5.43661165

>  <minimizedRMSD>
3.25044608

$$$$
