
 OpenBabel03272508503D

 26 28  0  0  1  0  0  0  0  0999 V2000
   37.9560   30.5700   44.4640 C   0  0  2  0  0  0  0  0  0  0  0  0
   36.8050   29.6770   44.5020 C   0  0  0  0  0  0  0  0  0  0  0  0
   36.9250   30.8880   45.4440 C   0  0  1  0  0  0  0  0  0  0  0  0
   38.9370   30.2590   44.9370 H   0  0  0  0  0  0  0  0  0  0  0  0
   36.0470   29.6900   43.6970 H   0  0  0  0  0  0  0  0  0  0  0  0
   36.8720   28.7110   45.0000 H   0  0  0  0  0  0  0  0  0  0  0  0
   36.0800   31.5600   45.2600 H   0  0  0  0  0  0  0  0  0  0  0  0
   37.8980   32.1780   41.1220 C   0  0  0  0  0  0  0  0  0  0  0  0
   38.7300   33.3080   41.3340 C   0  0  0  0  0  0  0  0  0  0  0  0
   39.3100   33.5110   42.6330 C   0  0  0  0  0  0  0  0  0  0  0  0
   39.0220   32.5910   43.5970 N   0  0  0  0  0  0  0  0  0  0  0  0
   38.2170   31.5250   43.3430 C   0  0  0  0  0  0  0  0  0  0  0  0
   37.6510   31.2920   42.1420 N   0  0  0  0  0  0  0  0  0  0  0  0
   37.5130   32.1120   40.1240 H   0  0  0  0  0  0  0  0  0  0  0  0
   38.9300   34.0020   40.5550 H   0  0  0  0  0  0  0  0  0  0  0  0
   39.9370   34.3450   42.8270 H   0  0  0  0  0  0  0  0  0  0  0  0
   36.0580   30.4150   47.7070 C   0  0  0  0  0  0  0  0  0  0  0  0
   34.8930   30.4630   47.2470 O   0  0  0  0  0  0  0  0  0  0  0  0
   37.1980   30.5210   46.8350 N   0  0  0  0  0  0  0  0  0  0  0  0
   38.1870   30.3610   47.1130 H   0  0  0  0  0  0  0  0  0  0  0  0
   36.4810   30.2530   49.1240 C   0  0  0  0  0  0  0  0  0  0  0  0
   35.6860   29.5760   50.0580 C   0  0  0  0  0  0  0  0  0  0  0  0
   34.7310   29.1350   49.8160 H   0  0  0  0  0  0  0  0  0  0  0  0
   36.0900   29.4430   51.3340 C   0  0  0  0  0  3  0  0  0  0  0  0
   37.4210   30.0580   51.6710 C   0  0  0  0  0  3  0  0  0  0  0  0
   37.8930   30.7700   49.9740 S   0  0  0  0  0  0  0  0  0  0  0  0
  1  2  1  0  0  0  0
  1  4  1  1  0  0  0
  1  3  1  0  0  0  0
  2  6  1  0  0  0  0
  2  3  1  0  0  0  0
  3  7  1  6  0  0  0
  3 19  1  0  0  0  0
  5  2  1  0  0  0  0
  8  9  2  0  0  0  0
  8 13  1  0  0  0  0
  9 10  1  0  0  0  0
 10 16  1  0  0  0  0
 10 11  2  0  0  0  0
 12 11  1  0  0  0  0
 12  1  1  0  0  0  0
 13 12  2  0  0  0  0
 14  8  1  0  0  0  0
 15  9  1  0  0  0  0
 17 21  1  0  0  0  0
 18 17  2  0  0  0  0
 19 20  1  0  0  0  0
 19 17  1  0  0  0  0
 21 26  1  0  0  0  0
 21 22  2  0  0  0  0
 22 24  1  0  0  0  0
 23 22  1  0  0  0  0
 24 25  2  0  0  0  0
 26 25  1  0  0  0  0
M  END
>  <minimizedAffinity>
-4.04943466

>  <minimizedRMSD>
3.40528893

$$$$
