
 OpenBabel03272508503D

 26 28  0  0  1  0  0  0  0  0999 V2000
   39.4240   30.8920   46.2380 C   0  0  2  0  0  0  0  0  0  0  0  0
   40.7140   31.4520   45.8550 C   0  0  0  0  0  0  0  0  0  0  0  0
   39.4350   31.7280   45.0440 C   0  0  1  0  0  0  0  0  0  0  0  0
   39.1860   29.8070   46.0180 H   0  0  0  0  0  0  0  0  0  0  0  0
   41.1730   32.2740   46.4360 H   0  0  0  0  0  0  0  0  0  0  0  0
   41.4520   30.8390   45.3390 H   0  0  0  0  0  0  0  0  0  0  0  0
   39.2480   32.8060   45.0390 H   0  0  0  0  0  0  0  0  0  0  0  0
   37.0470   30.9440   49.0840 C   0  0  0  0  0  0  0  0  0  0  0  0
   37.2880   32.2290   49.6350 C   0  0  0  0  0  0  0  0  0  0  0  0
   38.2720   33.0760   49.0180 C   0  0  0  0  0  0  0  0  0  0  0  0
   38.9240   32.5870   47.9260 N   0  0  0  0  0  0  0  0  0  0  0  0
   38.6570   31.3450   47.4390 C   0  0  0  0  0  0  0  0  0  0  0  0
   37.7440   30.5160   47.9800 N   0  0  0  0  0  0  0  0  0  0  0  0
   36.2980   30.3870   49.6110 H   0  0  0  0  0  0  0  0  0  0  0  0
   36.7570   32.5740   50.4870 H   0  0  0  0  0  0  0  0  0  0  0  0
   38.4770   34.0440   49.4030 H   0  0  0  0  0  0  0  0  0  0  0  0
   39.3260   31.8690   42.5810 C   0  0  0  0  0  0  0  0  0  0  0  0
   39.4580   33.1130   42.6680 O   0  0  0  0  0  0  0  0  0  0  0  0
   39.4040   31.0370   43.7520 N   0  0  0  0  0  0  0  0  0  0  0  0
   39.4380   29.9980   43.7530 H   0  0  0  0  0  0  0  0  0  0  0  0
   39.0830   31.0550   41.3600 C   0  0  0  0  0  0  0  0  0  0  0  0
   39.9960   30.0860   40.9260 C   0  0  0  0  0  0  0  0  0  0  0  0
   40.9220   29.8700   41.4400 H   0  0  0  0  0  0  0  0  0  0  0  0
   39.7550   29.3630   39.8180 C   0  0  0  0  0  3  0  0  0  0  0  0
   38.4680   29.6650   39.1040 C   0  0  0  0  0  3  0  0  0  0  0  0
   37.7790   31.0330   40.2270 S   0  0  0  0  0  0  0  0  0  0  0  0
  1  4  1  6  0  0  0
  1 12  1  0  0  0  0
  2  1  1  0  0  0  0
  2  5  1  0  0  0  0
  3  7  1  1  0  0  0
  3  2  1  0  0  0  0
  3  1  1  0  0  0  0
  6  2  1  0  0  0  0
  8 14  1  0  0  0  0
  8  9  1  0  0  0  0
  9 15  1  0  0  0  0
 10 16  1  0  0  0  0
 10  9  2  0  0  0  0
 11 10  1  0  0  0  0
 12 11  2  0  0  0  0
 12 13  1  0  0  0  0
 13  8  2  0  0  0  0
 17 18  2  0  0  0  0
 17 19  1  0  0  0  0
 19 20  1  0  0  0  0
 19  3  1  0  0  0  0
 21 17  1  0  0  0  0
 22 21  2  0  0  0  0
 22 23  1  0  0  0  0
 24 22  1  0  0  0  0
 25 24  2  0  0  0  0
 25 26  1  0  0  0  0
 26 21  1  0  0  0  0
M  END
>  <minimizedAffinity>
-4.21198177

>  <minimizedRMSD>
8.25340366

$$$$
