
 OpenBabel03272508503D

 26 28  0  0  1  0  0  0  0  0999 V2000
   37.4630   31.7140   43.8530 C   0  0  2  0  0  0  0  0  0  0  0  0
   37.4900   30.2660   43.6940 C   0  0  0  0  0  0  0  0  0  0  0  0
   36.5420   30.9560   44.6910 C   0  0  1  0  0  0  0  0  0  0  0  0
   38.2730   32.2380   44.4460 H   0  0  0  0  0  0  0  0  0  0  0  0
   37.0680   29.7840   42.7920 H   0  0  0  0  0  0  0  0  0  0  0  0
   38.2770   29.6730   44.1570 H   0  0  0  0  0  0  0  0  0  0  0  0
   35.5100   30.7160   44.4180 H   0  0  0  0  0  0  0  0  0  0  0  0
   35.1080   33.8040   41.8930 C   0  0  0  0  0  0  0  0  0  0  0  0
   35.9660   34.3510   40.9040 C   0  0  0  0  0  0  0  0  0  0  0  0
   37.3580   33.9930   40.9160 C   0  0  0  0  0  0  0  0  0  0  0  0
   37.7760   33.1390   41.8920 N   0  0  0  0  0  0  0  0  0  0  0  0
   36.9120   32.6440   42.8190 C   0  0  0  0  0  0  0  0  0  0  0  0
   35.6000   32.9480   42.8470 N   0  0  0  0  0  0  0  0  0  0  0  0
   34.0900   34.1280   41.8020 H   0  0  0  0  0  0  0  0  0  0  0  0
   35.6010   35.0140   40.1590 H   0  0  0  0  0  0  0  0  0  0  0  0
   38.0290   34.3830   40.1920 H   0  0  0  0  0  0  0  0  0  0  0  0
   35.8990   30.2920   46.9800 C   0  0  0  0  0  0  0  0  0  0  0  0
   34.7930   29.9050   46.5340 O   0  0  0  0  0  0  0  0  0  0  0  0
   36.9270   30.7630   46.0910 N   0  0  0  0  0  0  0  0  0  0  0  0
   37.9080   30.9760   46.3620 H   0  0  0  0  0  0  0  0  0  0  0  0
   36.3510   30.3440   48.3970 C   0  0  0  0  0  0  0  0  0  0  0  0
   36.1370   29.2780   49.2790 C   0  0  0  0  0  0  0  0  0  0  0  0
   35.6390   28.3630   48.9930 H   0  0  0  0  0  0  0  0  0  0  0  0
   36.5550   29.3480   50.5550 C   0  0  0  0  0  3  0  0  0  0  0  0
   37.2470   30.6210   50.9510 C   0  0  0  0  0  3  0  0  0  0  0  0
   37.1730   31.5640   49.3030 S   0  0  0  0  0  0  0  0  0  0  0  0
  1  4  1  1  0  0  0
  1  3  1  0  0  0  0
  2  1  1  0  0  0  0
  2  6  1  0  0  0  0
  2  3  1  0  0  0  0
  3  7  1  6  0  0  0
  3 19  1  0  0  0  0
  5  2  1  0  0  0  0
  8 13  1  0  0  0  0
  9 10  1  0  0  0  0
  9  8  2  0  0  0  0
 10 11  2  0  0  0  0
 11 12  1  0  0  0  0
 12 13  2  0  0  0  0
 12  1  1  0  0  0  0
 14  8  1  0  0  0  0
 15  9  1  0  0  0  0
 16 10  1  0  0  0  0
 17 21  1  0  0  0  0
 18 17  2  0  0  0  0
 19 20  1  0  0  0  0
 19 17  1  0  0  0  0
 21 22  2  0  0  0  0
 21 26  1  0  0  0  0
 22 24  1  0  0  0  0
 23 22  1  0  0  0  0
 24 25  2  0  0  0  0
 26 25  1  0  0  0  0
M  END
>  <minimizedAffinity>
-4.23034286

>  <minimizedRMSD>
4.4425354

$$$$
