
 OpenBabel03272507403D

 38 41  0  0  0  0  0  0  0  0999 V2000
   38.1870   32.1610   47.2430 C   0  0  0  0  0  0  0  0  0  0  0  0
   37.7910   32.6100   48.4900 C   0  0  0  0  0  0  0  0  0  0  0  0
   38.5480   33.5520   49.1580 C   0  0  0  0  0  0  0  0  0  0  0  0
   39.7100   34.0470   48.5720 C   0  0  0  0  0  0  0  0  0  0  0  0
   40.0940   33.5930   47.3280 C   0  0  0  0  0  0  0  0  0  0  0  0
   39.3200   32.6570   46.6920 C   0  0  0  0  0  0  0  0  0  0  0  0
   38.3010   33.9480   50.1330 H   0  0  0  0  0  0  0  0  0  0  0  0
   40.3010   34.7870   49.0990 H   0  0  0  0  0  0  0  0  0  0  0  0
   41.0020   33.9860   46.8790 H   0  0  0  0  0  0  0  0  0  0  0  0
   39.7440   32.1790   45.3570 C   0  0  0  0  0  0  0  0  0  0  0  0
   40.6020   31.1510   45.0340 C   0  0  0  0  0  0  0  0  0  0  0  0
   40.6780   31.0950   43.6420 C   0  0  0  0  0  0  0  0  0  0  0  0
   39.8460   32.1110   43.2030 C   0  0  0  0  0  0  0  0  0  0  0  0
   39.3050   32.7370   44.2360 O   0  0  0  0  0  0  0  0  0  0  0  0
   41.1110   30.5170   45.7430 H   0  0  0  0  0  0  0  0  0  0  0  0
   41.2600   30.4070   43.0410 H   0  0  0  0  0  0  0  0  0  0  0  0
   39.6370   32.3900   42.1640 H   0  0  0  0  0  0  0  0  0  0  0  0
   36.6620   30.4160   46.1110 N   0  0  0  0  0  0  0  0  0  0  0  0
   37.3500   31.1880   46.6180 C   0  0  0  0  0  0  0  0  0  0  0  0
   36.6650   32.2060   49.1890 O   0  0  0  0  0  0  0  0  0  0  0  0
   36.6340   31.1800   50.0750 C   0  0  0  0  0  0  0  0  0  0  0  0
   35.5420   30.3350   49.8540 C   0  0  0  0  0  0  0  0  0  0  0  0
   35.3450   29.2290   50.6650 C   0  0  0  0  0  0  0  0  0  0  0  0
   36.2430   29.0020   51.6680 N   0  0  0  0  0  0  0  0  0  0  0  0
   37.2980   29.8470   51.8580 C   0  0  0  0  0  0  0  0  0  0  0  0
   37.4680   30.8920   51.0780 N   0  0  0  0  0  0  0  0  0  0  0  0
   34.5520   28.5290   50.5780 H   0  0  0  0  0  0  0  0  0  0  0  0
   38.0050   29.6490   52.6650 H   0  0  0  0  0  0  0  0  0  0  0  0
   34.2180   29.3650   48.0630 C   0  0  0  0  0  0  0  0  0  0  0  0
   34.6990   28.1590   47.9220 O   0  0  0  0  0  0  0  0  0  0  0  0
   34.5740   30.4690   48.8680 N   0  0  0  0  0  0  0  0  0  0  0  0
   34.0720   31.3350   48.6610 H   0  0  0  0  0  0  0  0  0  0  0  0
   33.0610   29.4310   47.1150 C   0  0  0  0  0  0  0  0  0  0  0  0
   32.1330   28.5140   47.0560 C   0  0  0  0  0  0  0  0  0  0  0  0
   31.9920   27.5780   47.6240 H   0  0  0  0  0  0  0  0  0  0  0  0
   31.0470   28.4450   46.2590 C   0  0  0  0  0  3  0  0  0  0  0  0
   31.0510   29.6340   45.4020 C   0  0  0  0  0  3  0  0  0  0  0  0
   32.6330   30.5940   45.9380 S   0  0  0  0  0  0  0  0  0  0  0  0
  1  2  1  0  0  0  0
  2  3  2  0  0  0  0
  2 20  1  0  0  0  0
  3  7  1  0  0  0  0
  4  8  1  0  0  0  0
  4  3  1  0  0  0  0
  5  4  2  0  0  0  0
  6  1  2  0  0  0  0
  6  5  1  0  0  0  0
  9  5  1  0  0  0  0
 10  6  1  0  0  0  0
 11 10  2  0  0  0  0
 11 15  1  0  0  0  0
 12 11  1  0  0  0  0
 13 12  2  0  0  0  0
 13 14  1  0  0  0  0
 14 10  1  0  0  0  0
 16 12  1  0  0  0  0
 17 13  1  0  0  0  0
 18 19  3  0  0  0  0
 19  1  1  0  0  0  0
 20 21  1  0  0  0  0
 21 26  1  0  0  0  0
 22 21  2  0  0  0  0
 22 23  1  0  0  0  0
 23 24  2  0  0  0  0
 24 25  1  0  0  0  0
 25 28  1  0  0  0  0
 26 25  2  0  0  0  0
 27 23  1  0  0  0  0
 29 31  1  0  0  0  0
 30 29  2  0  0  0  0
 31 22  1  0  0  0  0
 32 31  1  0  0  0  0
 33 29  1  0  0  0  0
 34 33  2  0  0  0  0
 34 35  1  0  0  0  0
 36 34  1  0  0  0  0
 37 38  1  0  0  0  0
 37 36  2  0  0  0  0
 38 33  1  0  0  0  0
M  END
>  <minimizedAffinity>
-5.89604521

>  <minimizedRMSD>
0.430926949

$$$$
