
 OpenBabel03272503243D

 29 31  0  0  1  0  0  0  0  0999 V2000
   36.2820   29.9020   49.1800 N   0  0  0  0  0  0  0  0  0  0  0  0
   36.8050   31.2190   49.0670 C   0  0  1  0  0  0  0  0  0  0  0  0
   37.3890   31.5270   50.4250 C   0  0  0  0  0  0  0  0  0  0  0  0
   37.1890   30.2140   51.2220 C   0  0  0  0  0  0  0  0  0  0  0  0
   37.1040   29.2190   50.1280 C   0  0  0  0  0  0  0  0  0  0  0  0
   35.8900   31.9510   48.9950 H   0  0  0  0  0  0  0  0  0  0  0  0
   38.4550   31.7760   50.3190 H   0  0  0  0  0  0  0  0  0  0  0  0
   36.7950   32.2670   50.9820 H   0  0  0  0  0  0  0  0  0  0  0  0
   38.1530   30.0740   51.7680 H   0  0  0  0  0  0  0  0  0  0  0  0
   36.3180   30.2480   51.8680 H   0  0  0  0  0  0  0  0  0  0  0  0
   38.0850   28.9080   49.7390 H   0  0  0  0  0  0  0  0  0  0  0  0
   36.6020   28.2810   50.5030 H   0  0  0  0  0  0  0  0  0  0  0  0
   35.1520   29.3870   48.4890 C   0  0  0  0  0  0  0  0  0  0  0  0
   34.4340   30.2560   47.6480 C   0  0  0  0  0  0  0  0  0  0  0  0
   33.3250   29.7710   46.9490 C   0  0  0  0  0  0  0  0  0  0  0  0
   33.0130   28.4310   47.1490 N   0  0  0  0  0  0  0  0  0  0  0  0
   33.7250   27.6460   47.9580 C   0  0  0  0  0  0  0  0  0  0  0  0
   34.8160   28.1000   48.6520 N   0  0  0  0  0  0  0  0  0  0  0  0
   34.6690   31.2970   47.4860 H   0  0  0  0  0  0  0  0  0  0  0  0
   32.7590   30.4210   46.2990 H   0  0  0  0  0  0  0  0  0  0  0  0
   33.3930   26.6180   48.0390 H   0  0  0  0  0  0  0  0  0  0  0  0
   37.6080   31.5500   47.9250 C   0  0  0  0  0  0  0  0  0  0  0  0
   38.2600   32.5550   47.8910 O   0  0  0  0  0  0  0  0  0  0  0  0
   37.9920   31.0700   46.5480 C   0  0  0  0  0  0  0  0  0  0  0  0
   37.1680   30.6550   45.6120 C   0  0  0  0  0  0  0  0  0  0  0  0
   36.1020   30.5370   45.5180 H   0  0  0  0  0  0  0  0  0  0  0  0
   37.5500   30.2190   44.3990 C   0  0  0  0  0  3  0  0  0  0  0  0
   38.9720   30.2390   44.1950 C   0  0  0  0  0  3  0  0  0  0  0  0
   39.5690   30.9260   45.8880 S   0  0  0  0  0  0  0  0  0  0  0  0
  1  5  1  0  0  0  0
  2  6  1  6  0  0  0
  2  1  1  0  0  0  0
  2  3  1  0  0  0  0
  3  8  1  0  0  0  0
  3  4  1  0  0  0  0
  4  9  1  0  0  0  0
  4 10  1  0  0  0  0
  5 12  1  0  0  0  0
  5  4  1  0  0  0  0
  7  3  1  0  0  0  0
 11  5  1  0  0  0  0
 13 18  1  0  0  0  0
 13  1  1  0  0  0  0
 14 13  2  0  0  0  0
 15 16  2  0  0  0  0
 15 14  1  0  0  0  0
 16 17  1  0  0  0  0
 17 21  1  0  0  0  0
 17 18  2  0  0  0  0
 19 14  1  0  0  0  0
 20 15  1  0  0  0  0
 22  2  1  0  0  0  0
 23 22  2  0  0  0  0
 24 22  1  0  0  0  0
 25 24  2  0  0  0  0
 26 25  1  0  0  0  0
 27 25  1  0  0  0  0
 28 27  2  0  0  0  0
 28 29  1  0  0  0  0
 29 24  1  0  0  0  0
M  END
>  <minimizedAffinity>
-5.03700829

>  <minimizedRMSD>
0.918520808

$$$$
