
 OpenBabel03272503243D

 29 31  0  0  1  0  0  0  0  0999 V2000
   36.2910   29.8900   49.2060 N   0  0  0  0  0  0  0  0  0  0  0  0
   36.8180   31.2020   49.0540 C   0  0  1  0  0  0  0  0  0  0  0  0
   37.4330   31.5340   50.3940 C   0  0  0  0  0  0  0  0  0  0  0  0
   37.2430   30.2390   51.2210 C   0  0  0  0  0  0  0  0  0  0  0  0
   37.1300   29.2220   50.1500 C   0  0  0  0  0  0  0  0  0  0  0  0
   35.9060   31.9380   48.9870 H   0  0  0  0  0  0  0  0  0  0  0  0
   38.4980   31.7750   50.2600 H   0  0  0  0  0  0  0  0  0  0  0  0
   36.8550   32.2890   50.9470 H   0  0  0  0  0  0  0  0  0  0  0  0
   38.2180   30.1050   51.7500 H   0  0  0  0  0  0  0  0  0  0  0  0
   36.3870   30.2910   51.8850 H   0  0  0  0  0  0  0  0  0  0  0  0
   38.1010   28.8980   49.7470 H   0  0  0  0  0  0  0  0  0  0  0  0
   36.6320   28.2950   50.5550 H   0  0  0  0  0  0  0  0  0  0  0  0
   35.1440   29.3680   48.5500 C   0  0  0  0  0  0  0  0  0  0  0  0
   34.4350   30.2110   47.6770 C   0  0  0  0  0  0  0  0  0  0  0  0
   33.3090   29.7180   47.0110 C   0  0  0  0  0  0  0  0  0  0  0  0
   32.9720   28.3950   47.2760 N   0  0  0  0  0  0  0  0  0  0  0  0
   33.6760   27.6340   48.1130 C   0  0  0  0  0  0  0  0  0  0  0  0
   34.7840   28.0960   48.7760 N   0  0  0  0  0  0  0  0  0  0  0  0
   34.6890   31.2390   47.4650 H   0  0  0  0  0  0  0  0  0  0  0  0
   32.7500   30.3490   46.3370 H   0  0  0  0  0  0  0  0  0  0  0  0
   33.3250   26.6180   48.2460 H   0  0  0  0  0  0  0  0  0  0  0  0
   37.5980   31.5050   47.8890 C   0  0  0  0  0  0  0  0  0  0  0  0
   38.2320   32.5190   47.8100 O   0  0  0  0  0  0  0  0  0  0  0  0
   37.9690   30.9820   46.5240 C   0  0  0  0  0  0  0  0  0  0  0  0
   39.1800   30.6950   46.1040 C   0  0  0  0  0  0  0  0  0  0  0  0
   40.1710   30.7280   46.5240 H   0  0  0  0  0  0  0  0  0  0  0  0
   39.4740   30.2430   44.8730 C   0  0  0  0  0  0  0  0  0  0  0  0
   38.3270   30.0900   44.0220 C   0  0  0  0  0  0  0  0  0  0  0  0
   36.9210   30.6570   45.2040 S   0  0  0  0  0  0  0  0  0  0  0  0
  1  5  1  0  0  0  0
  2  6  1  6  0  0  0
  2  1  1  0  0  0  0
  2  3  1  0  0  0  0
  3  8  1  0  0  0  0
  3  4  1  0  0  0  0
  4  9  1  0  0  0  0
  4 10  1  0  0  0  0
  5 12  1  0  0  0  0
  5  4  1  0  0  0  0
  7  3  1  0  0  0  0
 11  5  1  0  0  0  0
 13 18  1  0  0  0  0
 13  1  1  0  0  0  0
 14 13  2  0  0  0  0
 15 16  2  0  0  0  0
 15 14  1  0  0  0  0
 16 17  1  0  0  0  0
 17 21  1  0  0  0  0
 17 18  2  0  0  0  0
 19 14  1  0  0  0  0
 20 15  1  0  0  0  0
 22  2  1  0  0  0  0
 23 22  2  0  0  0  0
 24 22  1  0  0  0  0
 25 26  1  0  0  0  0
 25 24  2  0  0  0  0
 27 25  1  0  0  0  0
 28 27  2  0  0  0  0
 28 29  1  0  0  0  0
 29 24  1  0  0  0  0
M  END
>  <minimizedAffinity>
-5.17339134

>  <minimizedRMSD>
0.903565049

$$$$
