
 OpenBabel03272503243D

 29 31  0  0  1  0  0  0  0  0999 V2000
   36.6180   30.1110   49.0470 N   0  0  0  0  0  0  0  0  0  0  0  0
   37.1300   31.4310   48.9230 C   0  0  1  0  0  0  0  0  0  0  0  0
   37.7300   31.7480   50.2730 C   0  0  0  0  0  0  0  0  0  0  0  0
   37.5490   30.4360   51.0760 C   0  0  0  0  0  0  0  0  0  0  0  0
   37.4560   29.4370   49.9870 C   0  0  0  0  0  0  0  0  0  0  0  0
   36.2100   32.1570   48.8610 H   0  0  0  0  0  0  0  0  0  0  0  0
   38.7930   32.0030   50.1530 H   0  0  0  0  0  0  0  0  0  0  0  0
   37.1380   32.4850   50.8350 H   0  0  0  0  0  0  0  0  0  0  0  0
   38.5200   30.3050   51.6110 H   0  0  0  0  0  0  0  0  0  0  0  0
   36.6860   30.4660   51.7340 H   0  0  0  0  0  0  0  0  0  0  0  0
   38.4350   29.1310   49.5870 H   0  0  0  0  0  0  0  0  0  0  0  0
   36.9660   28.4970   50.3720 H   0  0  0  0  0  0  0  0  0  0  0  0
   35.4830   29.5870   48.3730 C   0  0  0  0  0  0  0  0  0  0  0  0
   34.9140   30.3480   47.3370 C   0  0  0  0  0  0  0  0  0  0  0  0
   33.8030   29.8500   46.6500 C   0  0  0  0  0  0  0  0  0  0  0  0
   33.3380   28.6050   47.0610 N   0  0  0  0  0  0  0  0  0  0  0  0
   33.9120   27.9200   48.0490 C   0  0  0  0  0  0  0  0  0  0  0  0
   35.0020   28.3890   48.7350 N   0  0  0  0  0  0  0  0  0  0  0  0
   35.2680   31.3140   47.0110 H   0  0  0  0  0  0  0  0  0  0  0  0
   33.3500   30.4180   45.8520 H   0  0  0  0  0  0  0  0  0  0  0  0
   33.4670   26.9600   48.2870 H   0  0  0  0  0  0  0  0  0  0  0  0
   37.9160   31.7640   47.7700 C   0  0  0  0  0  0  0  0  0  0  0  0
   38.6610   32.7030   47.7730 O   0  0  0  0  0  0  0  0  0  0  0  0
   38.1980   31.3460   46.3490 C   0  0  0  0  0  0  0  0  0  0  0  0
   38.8500   30.2720   45.9690 C   0  0  0  0  0  0  0  0  0  0  0  0
   39.3330   29.4450   46.4640 H   0  0  0  0  0  0  0  0  0  0  0  0
   39.0940   29.9390   44.6890 C   0  0  0  0  0  3  0  0  0  0  0  0
   38.5700   30.8770   43.7360 C   0  0  0  0  0  3  0  0  0  0  0  0
   37.7600   32.1680   44.9070 S   0  0  0  0  0  0  0  0  0  0  0  0
  1  5  1  0  0  0  0
  2  6  1  6  0  0  0
  2  1  1  0  0  0  0
  2  3  1  0  0  0  0
  3  8  1  0  0  0  0
  3  4  1  0  0  0  0
  4  9  1  0  0  0  0
  4 10  1  0  0  0  0
  5 12  1  0  0  0  0
  5  4  1  0  0  0  0
  7  3  1  0  0  0  0
 11  5  1  0  0  0  0
 13 18  1  0  0  0  0
 13  1  1  0  0  0  0
 14 13  2  0  0  0  0
 15 16  2  0  0  0  0
 15 14  1  0  0  0  0
 16 17  1  0  0  0  0
 17 21  1  0  0  0  0
 17 18  2  0  0  0  0
 19 14  1  0  0  0  0
 20 15  1  0  0  0  0
 22 23  2  0  0  0  0
 22  2  1  0  0  0  0
 24 22  1  0  0  0  0
 25 24  2  0  0  0  0
 25 26  1  0  0  0  0
 27 25  1  0  0  0  0
 28 27  2  0  0  0  0
 28 29  1  0  0  0  0
 29 24  1  0  0  0  0
M  END
>  <minimizedAffinity>
-4.99471617

>  <minimizedRMSD>
1.05021393

$$$$
