
 OpenBabel03272503243D

 29 31  0  0  1  0  0  0  0  0999 V2000
   36.6190   30.1110   49.0480 N   0  0  0  0  0  0  0  0  0  0  0  0
   37.1310   31.4310   48.9250 C   0  0  1  0  0  0  0  0  0  0  0  0
   37.7300   31.7480   50.2750 C   0  0  0  0  0  0  0  0  0  0  0  0
   37.5490   30.4360   51.0770 C   0  0  0  0  0  0  0  0  0  0  0  0
   37.4570   29.4370   49.9870 C   0  0  0  0  0  0  0  0  0  0  0  0
   36.2100   32.1570   48.8620 H   0  0  0  0  0  0  0  0  0  0  0  0
   38.7920   32.0030   50.1550 H   0  0  0  0  0  0  0  0  0  0  0  0
   37.1370   32.4840   50.8370 H   0  0  0  0  0  0  0  0  0  0  0  0
   38.5210   30.3040   51.6120 H   0  0  0  0  0  0  0  0  0  0  0  0
   36.6860   30.4650   51.7350 H   0  0  0  0  0  0  0  0  0  0  0  0
   38.4360   29.1310   49.5880 H   0  0  0  0  0  0  0  0  0  0  0  0
   36.9670   28.4960   50.3720 H   0  0  0  0  0  0  0  0  0  0  0  0
   35.4830   29.5860   48.3730 C   0  0  0  0  0  0  0  0  0  0  0  0
   34.9160   30.3470   47.3360 C   0  0  0  0  0  0  0  0  0  0  0  0
   33.8050   29.8480   46.6490 C   0  0  0  0  0  0  0  0  0  0  0  0
   33.3390   28.6040   47.0610 N   0  0  0  0  0  0  0  0  0  0  0  0
   33.9120   27.9200   48.0500 C   0  0  0  0  0  0  0  0  0  0  0  0
   35.0020   28.3890   48.7370 N   0  0  0  0  0  0  0  0  0  0  0  0
   35.2700   31.3130   47.0100 H   0  0  0  0  0  0  0  0  0  0  0  0
   33.3530   30.4170   45.8510 H   0  0  0  0  0  0  0  0  0  0  0  0
   33.4670   26.9610   48.2880 H   0  0  0  0  0  0  0  0  0  0  0  0
   37.9170   31.7650   47.7720 C   0  0  0  0  0  0  0  0  0  0  0  0
   38.6610   32.7040   47.7750 O   0  0  0  0  0  0  0  0  0  0  0  0
   38.1980   31.3480   46.3500 C   0  0  0  0  0  0  0  0  0  0  0  0
   38.8490   30.2720   45.9690 C   0  0  0  0  0  0  0  0  0  0  0  0
   39.3290   29.4450   46.4650 H   0  0  0  0  0  0  0  0  0  0  0  0
   39.0940   29.9400   44.6910 C   0  0  0  0  0  3  0  0  0  0  0  0
   38.5720   30.8800   43.7380 C   0  0  0  0  0  3  0  0  0  0  0  0
   37.7640   32.1710   44.9080 S   0  0  0  0  0  0  0  0  0  0  0  0
  1  5  1  0  0  0  0
  2  6  1  6  0  0  0
  2  1  1  0  0  0  0
  2  3  1  0  0  0  0
  3  8  1  0  0  0  0
  3  4  1  0  0  0  0
  4  9  1  0  0  0  0
  4 10  1  0  0  0  0
  5 12  1  0  0  0  0
  5  4  1  0  0  0  0
  7  3  1  0  0  0  0
 11  5  1  0  0  0  0
 13 18  1  0  0  0  0
 13  1  1  0  0  0  0
 14 13  2  0  0  0  0
 15 16  2  0  0  0  0
 15 14  1  0  0  0  0
 16 17  1  0  0  0  0
 17 21  1  0  0  0  0
 17 18  2  0  0  0  0
 19 14  1  0  0  0  0
 20 15  1  0  0  0  0
 22 23  2  0  0  0  0
 22  2  1  0  0  0  0
 24 22  1  0  0  0  0
 25 24  2  0  0  0  0
 25 26  1  0  0  0  0
 27 25  1  0  0  0  0
 28 27  2  0  0  0  0
 28 29  1  0  0  0  0
 29 24  1  0  0  0  0
M  END
>  <minimizedAffinity>
-4.99801159

>  <minimizedRMSD>
1.07913053

$$$$
