
 OpenBabel03272501313D

 17 18  0  0  0  0  0  0  0  0999 V2000
   39.8240   22.9250   37.7510 C   0  0  0  0  0  0  0  0  0  0  0  0
   39.6720   23.3050   36.4100 C   0  0  0  0  0  0  0  0  0  0  0  0
   38.5160   23.9840   36.0590 C   0  0  0  0  0  0  0  0  0  0  0  0
   37.5960   24.2400   37.0420 N   0  0  0  0  0  0  0  0  0  0  0  0
   37.7670   23.8670   38.3120 C   0  0  0  0  0  0  0  0  0  0  0  0
   38.8860   23.2040   38.6770 N   0  0  0  0  0  0  0  0  0  0  0  0
   40.6830   22.3920   38.1390 H   0  0  0  0  0  0  0  0  0  0  0  0
   40.4560   23.0480   35.7380 H   0  0  0  0  0  0  0  0  0  0  0  0
   36.9720   24.1250   39.0010 H   0  0  0  0  0  0  0  0  0  0  0  0
   38.3260   24.3880   34.6870 C   0  0  0  0  0  0  0  0  0  0  0  0
   38.6450   23.6770   33.6920 O   0  0  0  0  0  0  0  0  0  0  0  0
   37.7350   25.6910   34.3880 C   0  0  0  0  0  0  0  0  0  0  0  0
   37.5590   26.7720   35.1440 C   0  0  0  0  0  0  0  0  0  0  0  0
   37.9010   26.7390   36.1920 H   0  0  0  0  0  0  0  0  0  0  0  0
   36.9690   27.8860   34.6210 C   0  0  0  0  0  3  0  0  0  0  0  0
   36.5800   27.8260   33.3110 C   0  0  0  0  0  3  0  0  0  0  0  0
   37.0740   26.1310   32.8200 S   0  0  0  0  0  0  0  0  0  0  0  0
  1  7  1  0  0  0  0
  1  6  1  0  0  0  0
  2  1  2  0  0  0  0
  3  2  1  0  0  0  0
  3  4  2  0  0  0  0
  4  5  1  0  0  0  0
  5  6  2  0  0  0  0
  5  9  1  0  0  0  0
  8  2  1  0  0  0  0
 10  3  1  0  0  0  0
 11 10  2  0  0  0  0
 12 10  1  0  0  0  0
 12 13  2  0  0  0  0
 13 14  1  0  0  0  0
 15 13  1  0  0  0  0
 16 15  2  0  0  0  0
 17 16  1  0  0  0  0
 17 12  1  0  0  0  0
M  END
>  <minimizedAffinity>
-3.91646075

$$$$

 OpenBabel03272501313D

 17 18  0  0  0  0  0  0  0  0999 V2000
   36.6460   21.2770   33.4400 C   0  0  0  0  0  0  0  0  0  0  0  0
   37.6970   22.0030   34.0170 C   0  0  0  0  0  0  0  0  0  0  0  0
   37.7080   22.1400   35.3960 C   0  0  0  0  0  0  0  0  0  0  0  0
   36.6930   21.5560   36.1080 N   0  0  0  0  0  0  0  0  0  0  0  0
   35.7040   20.8690   35.5330 C   0  0  0  0  0  0  0  0  0  0  0  0
   35.6730   20.7230   34.1900 N   0  0  0  0  0  0  0  0  0  0  0  0
   36.5350   21.1060   32.3770 H   0  0  0  0  0  0  0  0  0  0  0  0
   38.4280   22.4100   33.3580 H   0  0  0  0  0  0  0  0  0  0  0  0
   34.9570   20.4540   36.1980 H   0  0  0  0  0  0  0  0  0  0  0  0
   38.7750   22.8830   36.0210 C   0  0  0  0  0  0  0  0  0  0  0  0
   39.6890   22.3540   36.7170 O   0  0  0  0  0  0  0  0  0  0  0  0
   38.8370   24.3350   35.8680 C   0  0  0  0  0  0  0  0  0  0  0  0
   38.1070   25.3090   36.4070 C   0  0  0  0  0  0  0  0  0  0  0  0
   37.2970   25.0330   37.1020 H   0  0  0  0  0  0  0  0  0  0  0  0
   38.3690   26.6120   36.0970 C   0  0  0  0  0  3  0  0  0  0  0  0
   39.3940   26.8510   35.2250 C   0  0  0  0  0  3  0  0  0  0  0  0
   39.9980   25.1640   34.8400 S   0  0  0  0  0  0  0  0  0  0  0  0
  1  2  2  0  0  0  0
  1  6  1  0  0  0  0
  2  3  1  0  0  0  0
  3 10  1  0  0  0  0
  3  4  2  0  0  0  0
  5  4  1  0  0  0  0
  5  9  1  0  0  0  0
  6  5  2  0  0  0  0
  7  1  1  0  0  0  0
  8  2  1  0  0  0  0
 10 11  2  0  0  0  0
 12 10  1  0  0  0  0
 12 13  2  0  0  0  0
 13 14  1  0  0  0  0
 15 13  1  0  0  0  0
 16 15  2  0  0  0  0
 17 16  1  0  0  0  0
 17 12  1  0  0  0  0
M  END
>  <minimizedAffinity>
-3.86008716

$$$$

 OpenBabel03272501313D

 17 18  0  0  0  0  0  0  0  0999 V2000
   39.8380   22.7790   37.8660 C   0  0  0  0  0  0  0  0  0  0  0  0
   39.6410   22.6140   36.4880 C   0  0  0  0  0  0  0  0  0  0  0  0
   38.4610   23.0940   35.9420 C   0  0  0  0  0  0  0  0  0  0  0  0
   37.5630   23.7010   36.7820 N   0  0  0  0  0  0  0  0  0  0  0  0
   37.7770   23.8460   38.0910 C   0  0  0  0  0  0  0  0  0  0  0  0
   38.9200   23.3840   38.6450 N   0  0  0  0  0  0  0  0  0  0  0  0
   40.7180   22.4440   38.4010 H   0  0  0  0  0  0  0  0  0  0  0  0
   40.4120   22.1250   35.9410 H   0  0  0  0  0  0  0  0  0  0  0  0
   36.9960   24.3410   38.6540 H   0  0  0  0  0  0  0  0  0  0  0  0
   38.2260   22.9390   34.5280 C   0  0  0  0  0  0  0  0  0  0  0  0
   38.8670   23.5620   33.6330 O   0  0  0  0  0  0  0  0  0  0  0  0
   37.1920   22.0180   34.0590 C   0  0  0  0  0  0  0  0  0  0  0  0
   36.4340   21.1400   34.7120 C   0  0  0  0  0  0  0  0  0  0  0  0
   36.5630   21.0460   35.8030 H   0  0  0  0  0  0  0  0  0  0  0  0
   35.5230   20.3830   34.0340 C   0  0  0  0  0  3  0  0  0  0  0  0
   35.4400   20.5730   32.6820 C   0  0  0  0  0  3  0  0  0  0  0  0
   36.6970   21.8720   32.3780 S   0  0  0  0  0  0  0  0  0  0  0  0
  1  7  1  0  0  0  0
  1  6  1  0  0  0  0
  2  1  2  0  0  0  0
  3  2  1  0  0  0  0
  3  4  2  0  0  0  0
  4  5  1  0  0  0  0
  5  6  2  0  0  0  0
  5  9  1  0  0  0  0
  8  2  1  0  0  0  0
 10  3  1  0  0  0  0
 11 10  2  0  0  0  0
 12 10  1  0  0  0  0
 12 13  2  0  0  0  0
 13 14  1  0  0  0  0
 15 13  1  0  0  0  0
 16 15  2  0  0  0  0
 17 16  1  0  0  0  0
 17 12  1  0  0  0  0
M  END
>  <minimizedAffinity>
-3.74334717

$$$$

 OpenBabel03272501313D

 17 18  0  0  0  0  0  0  0  0999 V2000
   38.2960   27.3950   35.2960 C   0  0  0  0  0  0  0  0  0  0  0  0
   38.3660   26.2970   36.1630 C   0  0  0  0  0  0  0  0  0  0  0  0
   38.1230   25.0390   35.6340 C   0  0  0  0  0  0  0  0  0  0  0  0
   37.8300   24.9490   34.2980 N   0  0  0  0  0  0  0  0  0  0  0  0
   37.7700   26.0130   33.4940 C   0  0  0  0  0  0  0  0  0  0  0  0
   38.0040   27.2490   33.9890 N   0  0  0  0  0  0  0  0  0  0  0  0
   38.4660   28.4220   35.5970 H   0  0  0  0  0  0  0  0  0  0  0  0
   38.6020   26.4940   37.1820 H   0  0  0  0  0  0  0  0  0  0  0  0
   37.5300   25.8190   32.4560 H   0  0  0  0  0  0  0  0  0  0  0  0
   38.1850   23.8870   36.4990 C   0  0  0  0  0  0  0  0  0  0  0  0
   37.2230   23.4930   37.2200 O   0  0  0  0  0  0  0  0  0  0  0  0
   39.4150   23.1020   36.5780 C   0  0  0  0  0  0  0  0  0  0  0  0
   40.0780   22.6060   37.6200 C   0  0  0  0  0  0  0  0  0  0  0  0
   39.6760   22.7870   38.6300 H   0  0  0  0  0  0  0  0  0  0  0  0
   41.2260   21.8940   37.4260 C   0  0  0  0  0  3  0  0  0  0  0  0
   41.6430   21.7250   36.1350 C   0  0  0  0  0  3  0  0  0  0  0  0
   40.3560   22.6100   35.1760 S   0  0  0  0  0  0  0  0  0  0  0  0
  1  7  1  0  0  0  0
  1  2  1  0  0  0  0
  2  8  1  0  0  0  0
  3  2  2  0  0  0  0
  3 10  1  0  0  0  0
  4  3  1  0  0  0  0
  5  6  1  0  0  0  0
  5  4  2  0  0  0  0
  6  1  2  0  0  0  0
  9  5  1  0  0  0  0
 10 12  1  0  0  0  0
 10 11  2  0  0  0  0
 12 13  2  0  0  0  0
 13 14  1  0  0  0  0
 15 13  1  0  0  0  0
 16 15  2  0  0  0  0
 17 16  1  0  0  0  0
 17 12  1  0  0  0  0
M  END
>  <minimizedAffinity>
-3.73934984

$$$$

 OpenBabel03272501313D

 17 18  0  0  0  0  0  0  0  0999 V2000
   36.1920   27.7480   32.4550 C   0  0  0  0  0  0  0  0  0  0  0  0
   36.9280   27.7240   33.6480 C   0  0  0  0  0  0  0  0  0  0  0  0
   37.4800   26.5160   34.0420 C   0  0  0  0  0  0  0  0  0  0  0  0
   37.2740   25.4220   33.2420 N   0  0  0  0  0  0  0  0  0  0  0  0
   36.5700   25.4740   32.1100 C   0  0  0  0  0  0  0  0  0  0  0  0
   36.0220   26.6410   31.7060 N   0  0  0  0  0  0  0  0  0  0  0  0
   35.7170   28.6320   32.0500 H   0  0  0  0  0  0  0  0  0  0  0  0
   37.0170   28.6400   34.1840 H   0  0  0  0  0  0  0  0  0  0  0  0
   36.4740   24.5460   31.5600 H   0  0  0  0  0  0  0  0  0  0  0  0
   38.2410   26.4560   35.2660 C   0  0  0  0  0  0  0  0  0  0  0  0
   38.7340   27.4690   35.8410 O   0  0  0  0  0  0  0  0  0  0  0  0
   38.4800   25.1670   35.9120 C   0  0  0  0  0  0  0  0  0  0  0  0
   37.8180   24.5280   36.8740 C   0  0  0  0  0  0  0  0  0  0  0  0
   36.9210   25.0070   37.2990 H   0  0  0  0  0  0  0  0  0  0  0  0
   38.2520   23.3100   37.3120 C   0  0  0  0  0  3  0  0  0  0  0  0
   39.3750   22.8010   36.7210 C   0  0  0  0  0  3  0  0  0  0  0  0
   39.8180   24.1000   35.5070 S   0  0  0  0  0  0  0  0  0  0  0  0
  1  2  1  0  0  0  0
  2  3  2  0  0  0  0
  2  8  1  0  0  0  0
  3 10  1  0  0  0  0
  4  3  1  0  0  0  0
  5  4  2  0  0  0  0
  6  5  1  0  0  0  0
  6  1  2  0  0  0  0
  7  1  1  0  0  0  0
  9  5  1  0  0  0  0
 10 11  2  0  0  0  0
 10 12  1  0  0  0  0
 12 13  2  0  0  0  0
 13 14  1  0  0  0  0
 13 15  1  0  0  0  0
 16 15  2  0  0  0  0
 17 12  1  0  0  0  0
 17 16  1  0  0  0  0
M  END
>  <minimizedAffinity>
-3.73639655

$$$$

 OpenBabel03272501313D

 17 18  0  0  0  0  0  0  0  0999 V2000
   41.2340   21.8620   37.4660 C   0  0  0  0  0  0  0  0  0  0  0  0
   39.9590   22.4450   37.4810 C   0  0  0  0  0  0  0  0  0  0  0  0
   39.6810   23.4120   36.5280 C   0  0  0  0  0  0  0  0  0  0  0  0
   40.6660   23.7370   35.6330 N   0  0  0  0  0  0  0  0  0  0  0  0
   41.8720   23.1640   35.6410 C   0  0  0  0  0  0  0  0  0  0  0  0
   42.1660   22.2190   36.5610 N   0  0  0  0  0  0  0  0  0  0  0  0
   41.5630   21.0990   38.1600 H   0  0  0  0  0  0  0  0  0  0  0  0
   39.2780   22.1100   38.2270 H   0  0  0  0  0  0  0  0  0  0  0  0
   42.5700   23.5010   34.8850 H   0  0  0  0  0  0  0  0  0  0  0  0
   38.3790   24.0340   36.5160 C   0  0  0  0  0  0  0  0  0  0  0  0
   37.3520   23.5320   37.0570 O   0  0  0  0  0  0  0  0  0  0  0  0
   38.1940   25.3210   35.8490 C   0  0  0  0  0  0  0  0  0  0  0  0
   38.2760   26.5690   36.3040 C   0  0  0  0  0  0  0  0  0  0  0  0
   38.5260   26.7230   37.3670 H   0  0  0  0  0  0  0  0  0  0  0  0
   38.0550   27.6210   35.4640 C   0  0  0  0  0  3  0  0  0  0  0  0
   37.7510   27.3260   34.1640 C   0  0  0  0  0  3  0  0  0  0  0  0
   37.7850   25.4940   34.1470 S   0  0  0  0  0  0  0  0  0  0  0  0
  1  2  1  0  0  0  0
  1  7  1  0  0  0  0
  2  8  1  0  0  0  0
  3  2  2  0  0  0  0
  4  5  2  0  0  0  0
  4  3  1  0  0  0  0
  5  6  1  0  0  0  0
  6  1  2  0  0  0  0
  9  5  1  0  0  0  0
 10  3  1  0  0  0  0
 10 11  2  0  0  0  0
 12 13  2  0  0  0  0
 12 10  1  0  0  0  0
 13 14  1  0  0  0  0
 15 13  1  0  0  0  0
 16 15  2  0  0  0  0
 17 16  1  0  0  0  0
 17 12  1  0  0  0  0
M  END
>  <minimizedAffinity>
-3.7351532

$$$$

 OpenBabel03272501313D

 17 18  0  0  0  0  0  0  0  0999 V2000
   37.6910   23.7450   37.3400 C   0  0  0  0  0  0  0  0  0  0  0  0
   38.0710   25.0060   36.8610 C   0  0  0  0  0  0  0  0  0  0  0  0
   38.4260   25.1100   35.5260 C   0  0  0  0  0  0  0  0  0  0  0  0
   38.3830   23.9750   34.7580 N   0  0  0  0  0  0  0  0  0  0  0  0
   38.0160   22.7860   35.2400 C   0  0  0  0  0  0  0  0  0  0  0  0
   37.6660   22.6610   36.5400 N   0  0  0  0  0  0  0  0  0  0  0  0
   37.3950   23.5450   38.3620 H   0  0  0  0  0  0  0  0  0  0  0  0
   38.0660   25.8130   37.5560 H   0  0  0  0  0  0  0  0  0  0  0  0
   38.0200   21.9610   34.5400 H   0  0  0  0  0  0  0  0  0  0  0  0
   38.8240   26.3930   35.0010 C   0  0  0  0  0  0  0  0  0  0  0  0
   39.9730   26.8960   35.1640 O   0  0  0  0  0  0  0  0  0  0  0  0
   37.8720   27.1910   34.2310 C   0  0  0  0  0  0  0  0  0  0  0  0
   36.8280   27.9240   34.6110 C   0  0  0  0  0  0  0  0  0  0  0  0
   36.5890   27.9770   35.6860 H   0  0  0  0  0  0  0  0  0  0  0  0
   36.0810   28.5870   33.6810 C   0  0  0  0  0  3  0  0  0  0  0  0
   36.4580   28.4570   32.3730 C   0  0  0  0  0  3  0  0  0  0  0  0
   37.9200   27.3580   32.4810 S   0  0  0  0  0  0  0  0  0  0  0  0
  1  7  1  0  0  0  0
  2  1  1  0  0  0  0
  2  8  1  0  0  0  0
  3  2  2  0  0  0  0
  4  5  2  0  0  0  0
  4  3  1  0  0  0  0
  5  6  1  0  0  0  0
  6  1  2  0  0  0  0
  9  5  1  0  0  0  0
 10 11  2  0  0  0  0
 10  3  1  0  0  0  0
 12 13  2  0  0  0  0
 12 10  1  0  0  0  0
 13 14  1  0  0  0  0
 15 13  1  0  0  0  0
 16 17  1  0  0  0  0
 16 15  2  0  0  0  0
 17 12  1  0  0  0  0
M  END
>  <minimizedAffinity>
-3.7060833

$$$$

 OpenBabel03272501313D

 17 18  0  0  0  0  0  0  0  0999 V2000
   38.2750   26.5870   36.0220 C   0  0  0  0  0  0  0  0  0  0  0  0
   38.0960   25.2220   36.2840 C   0  0  0  0  0  0  0  0  0  0  0  0
   39.0440   24.3390   35.7920 C   0  0  0  0  0  0  0  0  0  0  0  0
   40.0970   24.8560   35.0820 N   0  0  0  0  0  0  0  0  0  0  0  0
   40.2440   26.1610   34.8480 C   0  0  0  0  0  0  0  0  0  0  0  0
   39.3310   27.0400   35.3180 N   0  0  0  0  0  0  0  0  0  0  0  0
   37.6010   27.3650   36.3550 H   0  0  0  0  0  0  0  0  0  0  0  0
   37.2370   24.9420   36.8470 H   0  0  0  0  0  0  0  0  0  0  0  0
   41.1150   26.4520   34.2750 H   0  0  0  0  0  0  0  0  0  0  0  0
   38.8890   22.9270   36.0420 C   0  0  0  0  0  0  0  0  0  0  0  0
   39.6450   22.2580   36.8030 O   0  0  0  0  0  0  0  0  0  0  0  0
   37.8060   22.1890   35.3950 C   0  0  0  0  0  0  0  0  0  0  0  0
   36.7460   21.5610   35.8980 C   0  0  0  0  0  0  0  0  0  0  0  0
   36.6050   21.5640   36.9910 H   0  0  0  0  0  0  0  0  0  0  0  0
   35.8630   20.9330   35.0670 C   0  0  0  0  0  3  0  0  0  0  0  0
   36.1260   20.9860   33.7260 C   0  0  0  0  0  3  0  0  0  0  0  0
   37.6770   21.9600   33.6560 S   0  0  0  0  0  0  0  0  0  0  0  0
  1  2  1  0  0  0  0
  1  7  1  0  0  0  0
  2  8  1  0  0  0  0
  3 10  1  0  0  0  0
  3  2  2  0  0  0  0
  4  3  1  0  0  0  0
  5  4  2  0  0  0  0
  5  6  1  0  0  0  0
  6  1  2  0  0  0  0
  9  5  1  0  0  0  0
 10 11  2  0  0  0  0
 12 13  2  0  0  0  0
 12 10  1  0  0  0  0
 13 14  1  0  0  0  0
 15 13  1  0  0  0  0
 16 15  2  0  0  0  0
 17 16  1  0  0  0  0
 17 12  1  0  0  0  0
M  END
>  <minimizedAffinity>
-3.66201043

$$$$

 OpenBabel03272501313D

 17 18  0  0  0  0  0  0  0  0999 V2000
   39.7560   22.8360   37.7800 C   0  0  0  0  0  0  0  0  0  0  0  0
   39.7200   23.1970   36.4260 C   0  0  0  0  0  0  0  0  0  0  0  0
   38.7590   24.1100   36.0260 C   0  0  0  0  0  0  0  0  0  0  0  0
   37.9040   24.6040   36.9780 N   0  0  0  0  0  0  0  0  0  0  0  0
   37.9610   24.2440   38.2610 C   0  0  0  0  0  0  0  0  0  0  0  0
   38.8910   23.3540   38.6740 N   0  0  0  0  0  0  0  0  0  0  0  0
   40.4610   22.1330   38.2060 H   0  0  0  0  0  0  0  0  0  0  0  0
   40.4370   22.7440   35.7820 H   0  0  0  0  0  0  0  0  0  0  0  0
   37.2340   24.7000   38.9220 H   0  0  0  0  0  0  0  0  0  0  0  0
   38.6930   24.5020   34.6400 C   0  0  0  0  0  0  0  0  0  0  0  0
   37.8580   24.0340   33.8140 O   0  0  0  0  0  0  0  0  0  0  0  0
   39.6310   25.4940   34.1190 C   0  0  0  0  0  0  0  0  0  0  0  0
   40.3760   26.4100   34.7350 C   0  0  0  0  0  0  0  0  0  0  0  0
   40.3160   26.4810   35.8330 H   0  0  0  0  0  0  0  0  0  0  0  0
   41.1870   27.2340   34.0090 C   0  0  0  0  0  3  0  0  0  0  0  0
   41.1890   27.0680   32.6520 C   0  0  0  0  0  3  0  0  0  0  0  0
   39.9990   25.6950   32.4110 S   0  0  0  0  0  0  0  0  0  0  0  0
  1  7  1  0  0  0  0
  1  6  1  0  0  0  0
  2  1  2  0  0  0  0
  3  2  1  0  0  0  0
  3  4  2  0  0  0  0
  4  5  1  0  0  0  0
  5  6  2  0  0  0  0
  5  9  1  0  0  0  0
  8  2  1  0  0  0  0
 10  3  1  0  0  0  0
 11 10  2  0  0  0  0
 12 10  1  0  0  0  0
 12 13  2  0  0  0  0
 13 14  1  0  0  0  0
 15 13  1  0  0  0  0
 16 15  2  0  0  0  0
 17 16  1  0  0  0  0
 17 12  1  0  0  0  0
M  END
>  <minimizedAffinity>
-3.63141131

$$$$
