
 OpenBabel03262522083D

 17 18  0  0  0  0  0  0  0  0999 V2000
   37.6120   29.7810   50.1260 C   0  0  0  0  0  0  0  0  0  0  0  0
   37.0260   30.4110   49.0100 C   0  0  0  0  0  0  0  0  0  0  0  0
   35.6220   30.4690   48.9560 C   0  0  0  0  0  0  0  0  0  0  0  0
   34.8970   29.9240   49.9640 N   0  0  0  0  0  0  0  0  0  0  0  0
   35.5030   29.3240   51.0220 C   0  0  0  0  0  0  0  0  0  0  0  0
   36.8460   29.2470   51.1150 N   0  0  0  0  0  0  0  0  0  0  0  0
   38.6880   29.7350   50.1700 H   0  0  0  0  0  0  0  0  0  0  0  0
   35.1700   30.9530   48.1000 H   0  0  0  0  0  0  0  0  0  0  0  0
   34.8190   28.9290   51.7590 H   0  0  0  0  0  0  0  0  0  0  0  0
   37.8830   30.9720   47.9680 C   0  0  0  0  0  0  0  0  0  0  0  0
   37.9600   30.3320   46.9270 O   0  0  0  0  0  0  0  0  0  0  0  0
   38.5870   32.2030   48.1780 C   0  0  0  0  0  0  0  0  0  0  0  0
   38.6220   33.0500   49.2540 C   0  0  0  0  0  0  0  0  0  0  0  0
   38.0310   32.7890   50.1200 H   0  0  0  0  0  0  0  0  0  0  0  0
   39.4060   34.1730   49.1480 C   0  0  0  0  0  0  0  0  0  0  0  0
   40.1080   34.3950   47.9960 C   0  0  0  0  0  0  0  0  0  0  0  0
   39.6620   32.9460   46.9580 S   0  0  0  0  0  0  0  0  0  0  0  0
  1  7  1  0  0  0  0
  1  6  1  0  0  0  0
  2  1  2  0  0  0  0
  3  2  1  0  0  0  0
  3  4  2  0  0  0  0
  4  5  1  0  0  0  0
  5  6  2  0  0  0  0
  5  9  1  0  0  0  0
  8  3  1  0  0  0  0
 10 12  1  0  0  0  0
 10  2  1  0  0  0  0
 11 10  2  0  0  0  0
 12 13  2  0  0  0  0
 13 14  1  0  0  0  0
 15 13  1  0  0  0  0
 16 15  2  0  0  0  0
 17 16  1  0  0  0  0
 17 12  1  0  0  0  0
M  END
>  <minimizedAffinity>
-4.3367095

>  <minimizedRMSD>
2.8044405

$$$$
