
 OpenBabel03272501293D

 17 18  0  0  0  0  0  0  0  0999 V2000
   37.5200   30.2220   50.9010 C   0  0  0  0  0  0  0  0  0  0  0  0
   38.2420   31.1580   50.1480 C   0  0  0  0  0  0  0  0  0  0  0  0
   38.0210   31.1970   48.7810 C   0  0  0  0  0  0  0  0  0  0  0  0
   37.1100   30.3190   48.2510 N   0  0  0  0  0  0  0  0  0  0  0  0
   36.4360   29.4380   48.9920 C   0  0  0  0  0  0  0  0  0  0  0  0
   36.6360   29.3820   50.3280 N   0  0  0  0  0  0  0  0  0  0  0  0
   37.6110   30.1010   51.9730 H   0  0  0  0  0  0  0  0  0  0  0  0
   38.9220   31.7860   50.6740 H   0  0  0  0  0  0  0  0  0  0  0  0
   35.7430   28.7960   48.4640 H   0  0  0  0  0  0  0  0  0  0  0  0
   38.7490   32.1470   47.9760 C   0  0  0  0  0  0  0  0  0  0  0  0
   39.1300   33.2790   48.3930 O   0  0  0  0  0  0  0  0  0  0  0  0
   39.0840   31.8220   46.5920 C   0  0  0  0  0  0  0  0  0  0  0  0
   40.1310   31.1910   46.0650 C   0  0  0  0  0  0  0  0  0  0  0  0
   40.9180   30.8260   46.7440 H   0  0  0  0  0  0  0  0  0  0  0  0
   40.2120   31.0090   44.7150 C   0  0  0  0  0  3  0  0  0  0  0  0
   39.1840   31.4980   43.9570 C   0  0  0  0  0  3  0  0  0  0  0  0
   38.0730   32.2390   45.2130 S   0  0  0  0  0  0  0  0  0  0  0  0
  1  7  1  0  0  0  0
  2  8  1  0  0  0  0
  2  1  2  0  0  0  0
  3  2  1  0  0  0  0
  4  3  2  0  0  0  0
  4  5  1  0  0  0  0
  5  6  2  0  0  0  0
  6  1  1  0  0  0  0
  9  5  1  0  0  0  0
 10 11  2  0  0  0  0
 10  3  1  0  0  0  0
 12 10  1  0  0  0  0
 13 12  2  0  0  0  0
 13 14  1  0  0  0  0
 15 13  1  0  0  0  0
 16 15  2  0  0  0  0
 16 17  1  0  0  0  0
 17 12  1  0  0  0  0
M  END
>  <minimizedAffinity>
-4.63958025

>  <minimizedRMSD>
1.73154211

$$$$
