
 OpenBabel03272501293D

 17 18  0  0  0  0  0  0  0  0999 V2000
   37.5650   30.2590   50.8860 C   0  0  0  0  0  0  0  0  0  0  0  0
   38.2450   31.2190   50.1240 C   0  0  0  0  0  0  0  0  0  0  0  0
   37.9930   31.2600   48.7620 C   0  0  0  0  0  0  0  0  0  0  0  0
   37.0970   30.3610   48.2460 N   0  0  0  0  0  0  0  0  0  0  0  0
   36.4630   29.4570   48.9950 C   0  0  0  0  0  0  0  0  0  0  0  0
   36.6930   29.3980   50.3260 N   0  0  0  0  0  0  0  0  0  0  0  0
   37.6820   30.1340   51.9550 H   0  0  0  0  0  0  0  0  0  0  0  0
   38.9180   31.8630   50.6400 H   0  0  0  0  0  0  0  0  0  0  0  0
   35.7770   28.7980   48.4770 H   0  0  0  0  0  0  0  0  0  0  0  0
   38.6770   32.2350   47.9490 C   0  0  0  0  0  0  0  0  0  0  0  0
   39.1640   33.3120   48.3980 O   0  0  0  0  0  0  0  0  0  0  0  0
   38.8370   32.0030   46.5150 C   0  0  0  0  0  0  0  0  0  0  0  0
   38.0510   32.2950   45.4820 C   0  0  0  0  0  0  0  0  0  0  0  0
   37.0930   32.8020   45.6820 H   0  0  0  0  0  0  0  0  0  0  0  0
   38.4330   31.9650   44.2150 C   0  0  0  0  0  3  0  0  0  0  0  0
   39.6390   31.3370   44.0710 C   0  0  0  0  0  3  0  0  0  0  0  0
   40.2370   31.2140   45.7990 S   0  0  0  0  0  0  0  0  0  0  0  0
  1  7  1  0  0  0  0
  2  8  1  0  0  0  0
  2  1  2  0  0  0  0
  3  2  1  0  0  0  0
  4  3  2  0  0  0  0
  4  5  1  0  0  0  0
  5  6  2  0  0  0  0
  6  1  1  0  0  0  0
  9  5  1  0  0  0  0
 10 11  2  0  0  0  0
 10  3  1  0  0  0  0
 12 10  1  0  0  0  0
 13 14  1  0  0  0  0
 13 12  2  0  0  0  0
 15 13  1  0  0  0  0
 16 15  2  0  0  0  0
 16 17  1  0  0  0  0
 17 12  1  0  0  0  0
M  END
>  <minimizedAffinity>
-4.4544282

>  <minimizedRMSD>
1.75623667

$$$$
