
 OpenBabel03272501293D

 17 18  0  0  0  0  0  0  0  0999 V2000
   37.4760   29.9900   50.9140 C   0  0  0  0  0  0  0  0  0  0  0  0
   38.2700   30.9770   50.3150 C   0  0  0  0  0  0  0  0  0  0  0  0
   37.7410   31.6650   49.2350 C   0  0  0  0  0  0  0  0  0  0  0  0
   36.4750   31.3390   48.8220 N   0  0  0  0  0  0  0  0  0  0  0  0
   35.7400   30.3950   49.4120 C   0  0  0  0  0  0  0  0  0  0  0  0
   36.2360   29.7100   50.4670 N   0  0  0  0  0  0  0  0  0  0  0  0
   37.7840   29.3900   51.7620 H   0  0  0  0  0  0  0  0  0  0  0  0
   39.2390   31.1390   50.7260 H   0  0  0  0  0  0  0  0  0  0  0  0
   34.7540   30.2240   48.9980 H   0  0  0  0  0  0  0  0  0  0  0  0
   38.5330   32.6850   48.5940 C   0  0  0  0  0  0  0  0  0  0  0  0
   38.7580   33.8240   49.0970 O   0  0  0  0  0  0  0  0  0  0  0  0
   39.1270   32.4290   47.2840 C   0  0  0  0  0  0  0  0  0  0  0  0
   39.9060   33.1780   46.5080 C   0  0  0  0  0  0  0  0  0  0  0  0
   40.1870   34.1840   46.8630 H   0  0  0  0  0  0  0  0  0  0  0  0
   40.3380   32.7020   45.3050 C   0  0  0  0  0  3  0  0  0  0  0  0
   39.9360   31.4430   44.9540 C   0  0  0  0  0  3  0  0  0  0  0  0
   38.9120   30.9310   46.3850 S   0  0  0  0  0  0  0  0  0  0  0  0
  1  7  1  0  0  0  0
  2  8  1  0  0  0  0
  2  1  2  0  0  0  0
  3  2  1  0  0  0  0
  4  3  2  0  0  0  0
  4  5  1  0  0  0  0
  5  6  2  0  0  0  0
  6  1  1  0  0  0  0
  9  5  1  0  0  0  0
 10 11  2  0  0  0  0
 10  3  1  0  0  0  0
 12 10  1  0  0  0  0
 13 14  1  0  0  0  0
 13 12  2  0  0  0  0
 15 13  1  0  0  0  0
 16 15  2  0  0  0  0
 16 17  1  0  0  0  0
 17 12  1  0  0  0  0
M  END
>  <minimizedAffinity>
-4.75803709

>  <minimizedRMSD>
2.32971239

$$$$
