
 OpenBabel03272504583D

 30 32  0  0  1  0  0  0  0  0999 V2000
   37.6020   25.8860   35.1660 C   0  0  1  0  0  0  0  0  0  0  0  0
   38.1830   27.1710   34.8610 C   0  0  0  0  0  0  0  0  0  0  0  0
   37.8450   26.2160   33.7610 C   0  0  2  0  0  0  0  0  0  0  0  0
   36.4950   25.7590   35.4280 H   0  0  0  0  0  0  0  0  0  0  0  0
   37.5940   27.9190   35.3550 H   0  0  0  0  0  0  0  0  0  0  0  0
   39.2640   27.2860   35.0870 H   0  0  0  0  0  0  0  0  0  0  0  0
   38.7120   26.0320   33.1500 H   0  0  0  0  0  0  0  0  0  0  0  0
   38.4390   24.7870   35.7550 C   0  0  0  0  0  0  0  0  0  0  0  0
   39.5420   24.3720   34.9780 C   0  0  0  0  0  0  0  0  0  0  0  0
   40.2970   23.3700   35.5370 C   0  0  0  0  0  0  0  0  0  0  0  0
   39.9700   22.8540   36.7430 N   0  0  0  0  0  0  0  0  0  0  0  0
   38.8970   23.2810   37.4660 C   0  0  0  0  0  0  0  0  0  0  0  0
   38.1140   24.2800   36.9430 N   0  0  0  0  0  0  0  0  0  0  0  0
   38.5480   22.7810   38.7250 N   0  0  0  0  0  0  0  0  0  0  0  0
   39.8100   24.7730   34.0260 H   0  0  0  0  0  0  0  0  0  0  0  0
   41.1610   22.9940   35.0050 H   0  0  0  0  0  0  0  0  0  0  0  0
   38.4870   23.3580   39.5950 H   0  0  0  0  0  0  0  0  0  0  0  0
   38.3600   21.7440   38.6670 H   0  0  0  0  0  0  0  0  0  0  0  0
   36.7060   26.5380   33.0160 O   0  0  0  0  0  0  0  0  0  0  0  0
   35.1850   25.6210   31.1460 O   0  0  0  0  0  0  0  0  0  0  0  0
   36.5750   25.5360   31.6890 P   0  0  1  0  0  0  0  0  0  0  0  0
   37.5730   26.1690   30.4140 O   0  0  0  0  0  0  0  0  0  0  0  0
   37.6510   27.1390   30.5930 H   0  0  0  0  0  0  0  0  0  0  0  0
   37.0750   24.0030   32.0840 O   0  0  0  0  0  0  0  0  0  0  0  0
   36.6860   22.8930   32.5000 C   0  0  0  0  0  0  0  0  0  0  0  0
   35.6100   22.2290   31.9480 C   0  0  0  0  0  0  0  0  0  0  0  0
   34.9450   22.5140   31.1160 H   0  0  0  0  0  0  0  0  0  0  0  0
   35.0170   21.0470   32.2220 C   0  0  0  0  0  3  0  0  0  0  0  0
   35.7410   20.3970   33.3690 C   0  0  0  0  0  3  0  0  0  0  0  0
   37.1540   21.6130   33.8500 S   0  0  0  0  0  0  0  0  0  0  0  0
  1  4  1  1  0  0  0
  1  8  1  0  0  0  0
  2  6  1  0  0  0  0
  2  1  1  0  0  0  0
  2  5  1  0  0  0  0
  3  7  1  6  0  0  0
  3  2  1  0  0  0  0
  3  1  1  0  0  0  0
  8 13  1  0  0  0  0
  9 10  1  0  0  0  0
  9  8  2  0  0  0  0
 10 11  2  0  0  0  0
 11 12  1  0  0  0  0
 12 14  1  0  0  0  0
 13 12  2  0  0  0  0
 14 17  1  0  0  0  0
 15  9  1  0  0  0  0
 16 10  1  0  0  0  0
 18 14  1  0  0  0  0
 19  3  1  0  0  0  0
 21 20  2  6  0  0  0
 21 24  1  0  0  0  0
 21 19  1  0  0  0  0
 22 23  1  0  0  0  0
 22 21  1  0  0  0  0
 24 25  1  0  0  0  0
 25 30  1  0  0  0  0
 26 28  1  0  0  0  0
 26 25  2  0  0  0  0
 27 26  1  0  0  0  0
 28 29  2  0  0  0  0
 29 30  1  0  0  0  0
M  END
>  <minimizedAffinity>
-5.2466073

$$$$

 OpenBabel03272504583D

 30 32  0  0  1  0  0  0  0  0999 V2000
   37.6570   26.1910   35.4250 C   0  0  1  0  0  0  0  0  0  0  0  0
   38.5630   27.2930   35.6410 C   0  0  0  0  0  0  0  0  0  0  0  0
   38.2280   26.8540   34.2520 C   0  0  2  0  0  0  0  0  0  0  0  0
   36.5210   26.3030   35.5140 H   0  0  0  0  0  0  0  0  0  0  0  0
   38.0780   27.9860   36.3010 H   0  0  0  0  0  0  0  0  0  0  0  0
   39.5790   27.0280   36.0010 H   0  0  0  0  0  0  0  0  0  0  0  0
   39.1290   26.6320   33.7060 H   0  0  0  0  0  0  0  0  0  0  0  0
   38.0950   24.7770   35.6810 C   0  0  0  0  0  0  0  0  0  0  0  0
   38.1640   23.9410   34.5450 C   0  0  0  0  0  0  0  0  0  0  0  0
   38.5710   22.6550   34.8000 C   0  0  0  0  0  0  0  0  0  0  0  0
   38.8740   22.2660   36.0590 N   0  0  0  0  0  0  0  0  0  0  0  0
   38.7960   23.1020   37.1320 C   0  0  0  0  0  0  0  0  0  0  0  0
   38.3910   24.3970   36.9220 N   0  0  0  0  0  0  0  0  0  0  0  0
   39.1230   22.7330   38.4410 N   0  0  0  0  0  0  0  0  0  0  0  0
   37.9290   24.2380   33.5470 H   0  0  0  0  0  0  0  0  0  0  0  0
   38.6500   21.9490   33.9830 H   0  0  0  0  0  0  0  0  0  0  0  0
   39.8680   23.1910   39.0160 H   0  0  0  0  0  0  0  0  0  0  0  0
   38.5150   21.9320   38.7580 H   0  0  0  0  0  0  0  0  0  0  0  0
   37.3540   27.6910   33.5520 O   0  0  0  0  0  0  0  0  0  0  0  0
   37.2770   28.9050   31.2780 O   0  0  0  0  0  0  0  0  0  0  0  0
   37.6490   27.6040   31.9130 P   0  0  1  0  0  0  0  0  0  0  0  0
   39.3650   27.4800   31.6640 O   0  0  0  0  0  0  0  0  0  0  0  0
   39.7810   27.8940   32.4610 H   0  0  0  0  0  0  0  0  0  0  0  0
   36.8920   26.2740   31.2700 O   0  0  0  0  0  0  0  0  0  0  0  0
   36.9280   25.0290   31.2040 C   0  0  0  0  0  0  0  0  0  0  0  0
   35.8660   24.2330   31.5790 C   0  0  0  0  0  0  0  0  0  0  0  0
   34.8720   24.5070   31.9720 H   0  0  0  0  0  0  0  0  0  0  0  0
   35.6760   22.8970   31.5960 C   0  0  0  0  0  3  0  0  0  0  0  0
   36.9230   22.2240   31.0890 C   0  0  0  0  0  3  0  0  0  0  0  0
   38.1510   23.6480   30.6780 S   0  0  0  0  0  0  0  0  0  0  0  0
  1  4  1  1  0  0  0
  1  2  1  0  0  0  0
  1  8  1  0  0  0  0
  2  6  1  0  0  0  0
  2  5  1  0  0  0  0
  3  7  1  6  0  0  0
  3  1  1  0  0  0  0
  3  2  1  0  0  0  0
  8 13  1  0  0  0  0
  9 10  1  0  0  0  0
  9  8  2  0  0  0  0
 10 11  2  0  0  0  0
 11 12  1  0  0  0  0
 12 14  1  0  0  0  0
 13 12  2  0  0  0  0
 14 18  1  0  0  0  0
 14 17  1  0  0  0  0
 15  9  1  0  0  0  0
 16 10  1  0  0  0  0
 19  3  1  0  0  0  0
 21 20  2  6  0  0  0
 21 19  1  0  0  0  0
 22 21  1  0  0  0  0
 22 23  1  0  0  0  0
 24 21  1  0  0  0  0
 25 24  1  0  0  0  0
 25 26  2  0  0  0  0
 26 28  1  0  0  0  0
 26 27  1  0  0  0  0
 29 28  2  0  0  0  0
 30 29  1  0  0  0  0
 30 25  1  0  0  0  0
M  END
>  <minimizedAffinity>
-5.13721704

$$$$

 OpenBabel03272504583D

 30 32  0  0  1  0  0  0  0  0999 V2000
   37.4780   25.8470   35.3550 C   0  0  1  0  0  0  0  0  0  0  0  0
   37.8940   27.2250   35.2430 C   0  0  0  0  0  0  0  0  0  0  0  0
   37.8250   26.3570   34.0280 C   0  0  2  0  0  0  0  0  0  0  0  0
   36.3800   25.5440   35.4620 H   0  0  0  0  0  0  0  0  0  0  0  0
   37.1500   27.8280   35.7260 H   0  0  0  0  0  0  0  0  0  0  0  0
   38.9140   27.4600   35.6140 H   0  0  0  0  0  0  0  0  0  0  0  0
   38.7740   26.3580   33.5170 H   0  0  0  0  0  0  0  0  0  0  0  0
   38.3970   24.8140   35.9430 C   0  0  0  0  0  0  0  0  0  0  0  0
   39.5750   24.5520   35.2100 C   0  0  0  0  0  0  0  0  0  0  0  0
   40.4030   23.6100   35.7680 C   0  0  0  0  0  0  0  0  0  0  0  0
   40.0730   23.0060   36.9320 N   0  0  0  0  0  0  0  0  0  0  0  0
   38.9250   23.2860   37.6120 C   0  0  0  0  0  0  0  0  0  0  0  0
   38.0680   24.2210   37.0890 N   0  0  0  0  0  0  0  0  0  0  0  0
   38.5700   22.6930   38.8290 N   0  0  0  0  0  0  0  0  0  0  0  0
   39.8460   25.0240   34.2910 H   0  0  0  0  0  0  0  0  0  0  0  0
   41.3270   23.3510   35.2680 H   0  0  0  0  0  0  0  0  0  0  0  0
   38.4040   23.2210   39.7170 H   0  0  0  0  0  0  0  0  0  0  0  0
   38.4960   21.6470   38.7180 H   0  0  0  0  0  0  0  0  0  0  0  0
   36.7430   26.5990   33.1770 O   0  0  0  0  0  0  0  0  0  0  0  0
   38.6950   27.3960   31.6920 O   0  0  0  0  0  0  0  0  0  0  0  0
   37.2190   27.5330   31.8790 P   0  0  1  0  0  0  0  0  0  0  0  0
   36.5380   26.8560   30.4290 O   0  0  0  0  0  0  0  0  0  0  0  0
   36.3910   25.8970   30.6260 H   0  0  0  0  0  0  0  0  0  0  0  0
   36.6840   29.0920   32.0760 O   0  0  0  0  0  0  0  0  0  0  0  0
   35.7920   29.7920   32.5970 C   0  0  0  0  0  0  0  0  0  0  0  0
   35.6280   29.8910   33.9620 C   0  0  0  0  0  0  0  0  0  0  0  0
   36.1920   29.4210   34.7860 H   0  0  0  0  0  0  0  0  0  0  0  0
   34.7560   30.5680   34.7400 C   0  0  0  0  0  3  0  0  0  0  0  0
   33.8170   31.3400   33.8540 C   0  0  0  0  0  3  0  0  0  0  0  0
   34.3610   30.9460   32.0500 S   0  0  0  0  0  0  0  0  0  0  0  0
  1  4  1  1  0  0  0
  1  8  1  0  0  0  0
  2  1  1  0  0  0  0
  2  6  1  0  0  0  0
  2  5  1  0  0  0  0
  3  7  1  6  0  0  0
  3  2  1  0  0  0  0
  3  1  1  0  0  0  0
  8 13  1  0  0  0  0
  9 10  1  0  0  0  0
  9  8  2  0  0  0  0
 10 11  2  0  0  0  0
 11 12  1  0  0  0  0
 12 14  1  0  0  0  0
 13 12  2  0  0  0  0
 14 17  1  0  0  0  0
 15  9  1  0  0  0  0
 16 10  1  0  0  0  0
 18 14  1  0  0  0  0
 19  3  1  0  0  0  0
 21 20  2  6  0  0  0
 21 24  1  0  0  0  0
 21 19  1  0  0  0  0
 22 23  1  0  0  0  0
 22 21  1  0  0  0  0
 24 25  1  0  0  0  0
 25 26  2  0  0  0  0
 26 28  1  0  0  0  0
 26 27  1  0  0  0  0
 29 28  2  0  0  0  0
 30 25  1  0  0  0  0
 30 29  1  0  0  0  0
M  END
>  <minimizedAffinity>
-4.94543171

$$$$

 OpenBabel03272504583D

 30 32  0  0  1  0  0  0  0  0999 V2000
   37.9750   26.0870   35.8090 C   0  0  1  0  0  0  0  0  0  0  0  0
   38.9230   27.1610   35.6370 C   0  0  0  0  0  0  0  0  0  0  0  0
   37.9940   26.7910   34.5270 C   0  0  2  0  0  0  0  0  0  0  0  0
   37.0010   26.2160   36.3950 H   0  0  0  0  0  0  0  0  0  0  0  0
   38.8060   27.8330   36.4650 H   0  0  0  0  0  0  0  0  0  0  0  0
   39.9840   26.8620   35.5010 H   0  0  0  0  0  0  0  0  0  0  0  0
   38.5520   26.5760   33.6310 H   0  0  0  0  0  0  0  0  0  0  0  0
   38.4290   24.6550   35.8010 C   0  0  0  0  0  0  0  0  0  0  0  0
   38.2530   23.9630   34.5830 C   0  0  0  0  0  0  0  0  0  0  0  0
   38.6800   22.6580   34.5950 C   0  0  0  0  0  0  0  0  0  0  0  0
   39.2220   22.1210   35.7110 N   0  0  0  0  0  0  0  0  0  0  0  0
   39.3760   22.8220   36.8700 C   0  0  0  0  0  0  0  0  0  0  0  0
   38.9620   24.1290   36.9020 N   0  0  0  0  0  0  0  0  0  0  0  0
   39.9530   22.2980   38.0320 N   0  0  0  0  0  0  0  0  0  0  0  0
   37.8280   24.3770   33.6950 H   0  0  0  0  0  0  0  0  0  0  0  0
   38.5800   22.0570   33.7000 H   0  0  0  0  0  0  0  0  0  0  0  0
   40.8070   22.6880   38.4950 H   0  0  0  0  0  0  0  0  0  0  0  0
   39.4060   21.4610   38.3670 H   0  0  0  0  0  0  0  0  0  0  0  0
   36.9310   27.6740   34.3130 O   0  0  0  0  0  0  0  0  0  0  0  0
   37.7630   28.1680   31.9220 O   0  0  0  0  0  0  0  0  0  0  0  0
   36.5510   27.7480   32.6900 P   0  0  1  0  0  0  0  0  0  0  0  0
   36.2210   26.1380   32.1240 O   0  0  0  0  0  0  0  0  0  0  0  0
   36.7150   25.5340   32.7320 H   0  0  0  0  0  0  0  0  0  0  0  0
   35.2170   28.7080   32.4630 O   0  0  0  0  0  0  0  0  0  0  0  0
   34.2780   29.2830   33.0520 C   0  0  0  0  0  0  0  0  0  0  0  0
   34.4860   30.2220   34.0400 C   0  0  0  0  0  0  0  0  0  0  0  0
   35.4230   30.6150   34.4680 H   0  0  0  0  0  0  0  0  0  0  0  0
   33.6490   30.9590   34.8010 C   0  0  0  0  0  3  0  0  0  0  0  0
   32.2310   30.6240   34.4260 C   0  0  0  0  0  3  0  0  0  0  0  0
   32.3610   29.2970   33.0370 S   0  0  0  0  0  0  0  0  0  0  0  0
  1  4  1  1  0  0  0
  2  1  1  0  0  0  0
  2  5  1  0  0  0  0
  3  7  1  6  0  0  0
  3  2  1  0  0  0  0
  3  1  1  0  0  0  0
  6  2  1  0  0  0  0
  8  1  1  0  0  0  0
  8 13  1  0  0  0  0
  9 10  1  0  0  0  0
  9  8  2  0  0  0  0
 10 11  2  0  0  0  0
 11 12  1  0  0  0  0
 12 13  2  0  0  0  0
 12 14  1  0  0  0  0
 14 18  1  0  0  0  0
 14 17  1  0  0  0  0
 15  9  1  0  0  0  0
 16 10  1  0  0  0  0
 19  3  1  0  0  0  0
 21 20  2  6  0  0  0
 21 19  1  0  0  0  0
 22 21  1  0  0  0  0
 22 23  1  0  0  0  0
 24 21  1  0  0  0  0
 24 25  1  0  0  0  0
 25 26  2  0  0  0  0
 26 27  1  0  0  0  0
 26 28  1  0  0  0  0
 29 28  2  0  0  0  0
 30 25  1  0  0  0  0
 30 29  1  0  0  0  0
M  END
>  <minimizedAffinity>
-4.90887594

$$$$

 OpenBabel03272504583D

 30 32  0  0  1  0  0  0  0  0999 V2000
   38.4310   26.3160   34.7580 C   0  0  1  0  0  0  0  0  0  0  0  0
   38.3100   26.8370   36.0980 C   0  0  0  0  0  0  0  0  0  0  0  0
   37.9540   25.4140   35.8070 C   0  0  2  0  0  0  0  0  0  0  0  0
   39.4380   26.0100   34.3060 H   0  0  0  0  0  0  0  0  0  0  0  0
   39.2460   27.2950   36.3540 H   0  0  0  0  0  0  0  0  0  0  0  0
   37.4560   27.5220   36.2820 H   0  0  0  0  0  0  0  0  0  0  0  0
   36.9490   25.2090   36.1340 H   0  0  0  0  0  0  0  0  0  0  0  0
   37.4420   26.6980   33.6950 C   0  0  0  0  0  0  0  0  0  0  0  0
   36.8070   27.9480   33.8680 C   0  0  0  0  0  0  0  0  0  0  0  0
   35.9110   28.2800   32.8830 C   0  0  0  0  0  0  0  0  0  0  0  0
   35.6860   27.4430   31.8450 N   0  0  0  0  0  0  0  0  0  0  0  0
   36.3190   26.2440   31.7110 C   0  0  0  0  0  0  0  0  0  0  0  0
   37.2230   25.8710   32.6750 N   0  0  0  0  0  0  0  0  0  0  0  0
   36.1230   25.3680   30.6370 N   0  0  0  0  0  0  0  0  0  0  0  0
   36.9770   28.6170   34.6820 H   0  0  0  0  0  0  0  0  0  0  0  0
   35.3810   29.2220   32.9410 H   0  0  0  0  0  0  0  0  0  0  0  0
   36.8780   25.0550   29.9850 H   0  0  0  0  0  0  0  0  0  0  0  0
   35.1110   25.0770   30.5840 H   0  0  0  0  0  0  0  0  0  0  0  0
   38.8790   24.4620   36.2450 O   0  0  0  0  0  0  0  0  0  0  0  0
   39.4800   21.9590   36.0960 O   0  0  0  0  0  0  0  0  0  0  0  0
   38.3670   22.9250   35.8490 P   0  0  1  0  0  0  0  0  0  0  0  0
   37.1270   22.4470   36.9710 O   0  0  0  0  0  0  0  0  0  0  0  0
   37.2930   22.9740   37.7920 H   0  0  0  0  0  0  0  0  0  0  0  0
   37.7610   22.9100   34.3040 O   0  0  0  0  0  0  0  0  0  0  0  0
   37.6100   22.1990   33.2890 C   0  0  0  0  0  0  0  0  0  0  0  0
   36.4830   22.2650   32.4980 C   0  0  0  0  0  0  0  0  0  0  0  0
   35.5790   22.8910   32.5910 H   0  0  0  0  0  0  0  0  0  0  0  0
   36.1030   21.6120   31.3790 C   0  0  0  0  0  3  0  0  0  0  0  0
   37.1870   20.6430   30.9920 C   0  0  0  0  0  3  0  0  0  0  0  0
   38.5660   20.8480   32.3200 S   0  0  0  0  0  0  0  0  0  0  0  0
  1  4  1  6  0  0  0
  1  3  1  0  0  0  0
  1  2  1  0  0  0  0
  2  6  1  0  0  0  0
  2  5  1  0  0  0  0
  3  2  1  0  0  0  0
  3  7  1  6  0  0  0
  3 19  1  0  0  0  0
  8  9  1  0  0  0  0
  8  1  1  0  0  0  0
  9 15  1  0  0  0  0
 10 16  1  0  0  0  0
 10  9  2  0  0  0  0
 11 10  1  0  0  0  0
 12 11  2  0  0  0  0
 12 13  1  0  0  0  0
 13  8  2  0  0  0  0
 14 12  1  0  0  0  0
 17 14  1  0  0  0  0
 18 14  1  0  0  0  0
 21 20  2  1  0  0  0
 21 19  1  0  0  0  0
 21 22  1  0  0  0  0
 22 23  1  0  0  0  0
 24 21  1  0  0  0  0
 25 24  1  0  0  0  0
 26 27  1  0  0  0  0
 26 25  2  0  0  0  0
 28 26  1  0  0  0  0
 29 28  2  0  0  0  0
 29 30  1  0  0  0  0
 30 25  1  0  0  0  0
M  END
>  <minimizedAffinity>
-4.8962841

$$$$

 OpenBabel03272504583D

 30 32  0  0  1  0  0  0  0  0999 V2000
   38.6310   23.5090   36.3310 C   0  0  1  0  0  0  0  0  0  0  0  0
   37.9470   23.9370   37.5270 C   0  0  0  0  0  0  0  0  0  0  0  0
   38.4290   24.9440   36.5340 C   0  0  2  0  0  0  0  0  0  0  0  0
   38.0750   23.0870   35.4230 H   0  0  0  0  0  0  0  0  0  0  0  0
   37.0280   23.3870   37.5890 H   0  0  0  0  0  0  0  0  0  0  0  0
   38.5260   23.8720   38.4720 H   0  0  0  0  0  0  0  0  0  0  0  0
   39.0650   25.6670   37.0180 H   0  0  0  0  0  0  0  0  0  0  0  0
   40.0460   23.0100   36.3940 C   0  0  0  0  0  0  0  0  0  0  0  0
   40.9630   23.6550   35.5350 C   0  0  0  0  0  0  0  0  0  0  0  0
   42.2520   23.1880   35.6120 C   0  0  0  0  0  0  0  0  0  0  0  0
   42.5710   22.1850   36.4620 N   0  0  0  0  0  0  0  0  0  0  0  0
   41.6570   21.5870   37.2770 C   0  0  0  0  0  0  0  0  0  0  0  0
   40.3570   22.0220   37.2310 N   0  0  0  0  0  0  0  0  0  0  0  0
   41.9640   20.5640   38.1810 N   0  0  0  0  0  0  0  0  0  0  0  0
   40.7220   24.4480   34.8610 H   0  0  0  0  0  0  0  0  0  0  0  0
   43.0160   23.6290   34.9850 H   0  0  0  0  0  0  0  0  0  0  0  0
   41.8160   20.6250   39.2150 H   0  0  0  0  0  0  0  0  0  0  0  0
   42.3620   19.7320   37.6700 H   0  0  0  0  0  0  0  0  0  0  0  0
   37.4380   25.5280   35.7400 O   0  0  0  0  0  0  0  0  0  0  0  0
   39.3380   27.2620   35.5520 O   0  0  0  0  0  0  0  0  0  0  0  0
   38.0470   26.8480   34.9220 P   0  0  1  0  0  0  0  0  0  0  0  0
   38.4940   26.3480   33.3180 O   0  0  0  0  0  0  0  0  0  0  0  0
   38.6790   25.3770   33.3820 H   0  0  0  0  0  0  0  0  0  0  0  0
   36.8980   28.0430   34.8380 O   0  0  0  0  0  0  0  0  0  0  0  0
   36.1080   28.6270   34.0690 C   0  0  0  0  0  0  0  0  0  0  0  0
   35.3960   29.7460   34.4460 C   0  0  0  0  0  0  0  0  0  0  0  0
   35.3810   30.2950   35.4020 H   0  0  0  0  0  0  0  0  0  0  0  0
   34.5040   30.5300   33.8040 C   0  0  0  0  0  3  0  0  0  0  0  0
   34.3120   30.0030   32.4080 C   0  0  0  0  0  3  0  0  0  0  0  0
   35.4570   28.4610   32.2720 S   0  0  0  0  0  0  0  0  0  0  0  0
  1  4  1  6  0  0  0
  1  8  1  0  0  0  0
  1  3  1  0  0  0  0
  1  2  1  0  0  0  0
  2  5  1  0  0  0  0
  2  6  1  0  0  0  0
  3  7  1  1  0  0  0
  3  2  1  0  0  0  0
  8 13  1  0  0  0  0
  9 10  1  0  0  0  0
  9  8  2  0  0  0  0
 10 11  2  0  0  0  0
 11 12  1  0  0  0  0
 12 14  1  0  0  0  0
 13 12  2  0  0  0  0
 14 17  1  0  0  0  0
 15  9  1  0  0  0  0
 16 10  1  0  0  0  0
 18 14  1  0  0  0  0
 19  3  1  0  0  0  0
 21 20  2  1  0  0  0
 21 19  1  0  0  0  0
 22 23  1  0  0  0  0
 22 21  1  0  0  0  0
 24 21  1  0  0  0  0
 25 26  2  0  0  0  0
 25 24  1  0  0  0  0
 26 27  1  0  0  0  0
 28 26  1  0  0  0  0
 29 28  2  0  0  0  0
 30 29  1  0  0  0  0
 30 25  1  0  0  0  0
M  END
>  <minimizedAffinity>
-4.89452314

$$$$

 OpenBabel03272504583D

 30 32  0  0  1  0  0  0  0  0999 V2000
   37.8100   26.1120   35.4850 C   0  0  1  0  0  0  0  0  0  0  0  0
   38.4850   27.3480   35.8020 C   0  0  0  0  0  0  0  0  0  0  0  0
   38.4500   26.8490   34.3940 C   0  0  2  0  0  0  0  0  0  0  0  0
   36.6720   26.0410   35.3910 H   0  0  0  0  0  0  0  0  0  0  0  0
   37.7980   27.9600   36.3540 H   0  0  0  0  0  0  0  0  0  0  0  0
   39.4600   27.2540   36.3260 H   0  0  0  0  0  0  0  0  0  0  0  0
   39.4500   26.7690   34.0030 H   0  0  0  0  0  0  0  0  0  0  0  0
   38.4180   24.7900   35.8550 C   0  0  0  0  0  0  0  0  0  0  0  0
   39.0460   24.0880   34.8030 C   0  0  0  0  0  0  0  0  0  0  0  0
   39.6000   22.8840   35.1640 C   0  0  0  0  0  0  0  0  0  0  0  0
   39.5260   22.4480   36.4420 N   0  0  0  0  0  0  0  0  0  0  0  0
   38.9110   23.1550   37.4310 C   0  0  0  0  0  0  0  0  0  0  0  0
   38.3430   24.3630   37.1140 N   0  0  0  0  0  0  0  0  0  0  0  0
   38.8390   22.7380   38.7650 N   0  0  0  0  0  0  0  0  0  0  0  0
   39.1120   24.4230   33.7920 H   0  0  0  0  0  0  0  0  0  0  0  0
   40.1000   22.2830   34.4160 H   0  0  0  0  0  0  0  0  0  0  0  0
   39.2280   23.2750   39.5740 H   0  0  0  0  0  0  0  0  0  0  0  0
   38.3400   21.8110   38.8310 H   0  0  0  0  0  0  0  0  0  0  0  0
   37.5780   27.5280   33.5370 O   0  0  0  0  0  0  0  0  0  0  0  0
   38.7550   26.0230   31.8050 O   0  0  0  0  0  0  0  0  0  0  0  0
   37.4710   26.7410   32.0700 P   0  0  1  0  0  0  0  0  0  0  0  0
   36.2900   25.4730   32.2050 O   0  0  0  0  0  0  0  0  0  0  0  0
   36.2600   25.2360   33.1660 H   0  0  0  0  0  0  0  0  0  0  0  0
   37.0140   27.8100   30.8860 O   0  0  0  0  0  0  0  0  0  0  0  0
   37.4390   28.5170   29.9490 C   0  0  0  0  0  0  0  0  0  0  0  0
   37.0150   29.8130   29.7450 C   0  0  0  0  0  0  0  0  0  0  0  0
   36.2890   30.4250   30.3080 H   0  0  0  0  0  0  0  0  0  0  0  0
   37.3240   30.7500   28.8230 C   0  0  0  0  0  3  0  0  0  0  0  0
   38.3400   30.1780   27.8730 C   0  0  0  0  0  3  0  0  0  0  0  0
   38.6680   28.3810   28.4830 S   0  0  0  0  0  0  0  0  0  0  0  0
  1  4  1  1  0  0  0
  1  2  1  0  0  0  0
  1  8  1  0  0  0  0
  2  6  1  0  0  0  0
  2  5  1  0  0  0  0
  3  7  1  6  0  0  0
  3  1  1  0  0  0  0
  3  2  1  0  0  0  0
  8 13  1  0  0  0  0
  9 10  1  0  0  0  0
  9  8  2  0  0  0  0
 10 11  2  0  0  0  0
 11 12  1  0  0  0  0
 12 14  1  0  0  0  0
 13 12  2  0  0  0  0
 14 18  1  0  0  0  0
 14 17  1  0  0  0  0
 15  9  1  0  0  0  0
 16 10  1  0  0  0  0
 19  3  1  0  0  0  0
 21 20  2  6  0  0  0
 21 22  1  0  0  0  0
 21 19  1  0  0  0  0
 22 23  1  0  0  0  0
 24 21  1  0  0  0  0
 25 24  1  0  0  0  0
 26 25  2  0  0  0  0
 26 27  1  0  0  0  0
 28 26  1  0  0  0  0
 29 30  1  0  0  0  0
 29 28  2  0  0  0  0
 30 25  1  0  0  0  0
M  END
>  <minimizedAffinity>
-4.79371214

$$$$

 OpenBabel03272504583D

 30 32  0  0  1  0  0  0  0  0999 V2000
   38.6550   23.4210   36.6140 C   0  0  1  0  0  0  0  0  0  0  0  0
   38.2100   23.9770   37.8700 C   0  0  0  0  0  0  0  0  0  0  0  0
   38.5350   24.8750   36.7200 C   0  0  2  0  0  0  0  0  0  0  0  0
   37.9320   22.9500   35.8610 H   0  0  0  0  0  0  0  0  0  0  0  0
   37.3010   23.4770   38.1420 H   0  0  0  0  0  0  0  0  0  0  0  0
   38.9470   23.9660   38.6990 H   0  0  0  0  0  0  0  0  0  0  0  0
   39.2690   25.6060   37.0160 H   0  0  0  0  0  0  0  0  0  0  0  0
   40.0420   22.8650   36.4710 C   0  0  0  0  0  0  0  0  0  0  0  0
   40.8260   23.4300   35.4400 C   0  0  0  0  0  0  0  0  0  0  0  0
   42.0930   22.9120   35.3300 C   0  0  0  0  0  0  0  0  0  0  0  0
   42.5130   21.9370   36.1680 N   0  0  0  0  0  0  0  0  0  0  0  0
   41.7280   21.4170   37.1530 C   0  0  0  0  0  0  0  0  0  0  0  0
   40.4530   21.9050   37.2970 N   0  0  0  0  0  0  0  0  0  0  0  0
   42.1440   20.4250   38.0470 N   0  0  0  0  0  0  0  0  0  0  0  0
   40.5050   24.2000   34.7740 H   0  0  0  0  0  0  0  0  0  0  0  0
   42.7570   23.2900   34.5640 H   0  0  0  0  0  0  0  0  0  0  0  0
   42.1720   20.5400   39.0870 H   0  0  0  0  0  0  0  0  0  0  0  0
   42.4240   19.5540   37.5220 H   0  0  0  0  0  0  0  0  0  0  0  0
   37.4350   25.4360   36.0640 O   0  0  0  0  0  0  0  0  0  0  0  0
   37.4140   27.9150   35.3580 O   0  0  0  0  0  0  0  0  0  0  0  0
   37.9350   26.5740   34.9530 P   0  0  1  0  0  0  0  0  0  0  0  0
   39.6620   26.7340   35.0610 O   0  0  0  0  0  0  0  0  0  0  0  0
   39.8990   26.4580   35.9810 H   0  0  0  0  0  0  0  0  0  0  0  0
   37.5100   26.0960   33.4210 O   0  0  0  0  0  0  0  0  0  0  0  0
   37.1760   25.1120   32.7300 C   0  0  0  0  0  0  0  0  0  0  0  0
   37.7250   23.8590   32.9080 C   0  0  0  0  0  0  0  0  0  0  0  0
   38.4900   23.5090   33.6210 H   0  0  0  0  0  0  0  0  0  0  0  0
   37.5280   22.6720   32.2970 C   0  0  0  0  0  3  0  0  0  0  0  0
   36.4870   22.8460   31.2250 C   0  0  0  0  0  3  0  0  0  0  0  0
   35.9780   24.7010   31.2900 S   0  0  0  0  0  0  0  0  0  0  0  0
  1  4  1  6  0  0  0
  1  3  1  0  0  0  0
  1  2  1  0  0  0  0
  2  5  1  0  0  0  0
  2  6  1  0  0  0  0
  3  7  1  1  0  0  0
  3  2  1  0  0  0  0
  8  1  1  0  0  0  0
  8 13  1  0  0  0  0
  9  8  2  0  0  0  0
 10  9  1  0  0  0  0
 10 11  2  0  0  0  0
 11 12  1  0  0  0  0
 12 13  2  0  0  0  0
 12 14  1  0  0  0  0
 14 17  1  0  0  0  0
 15  9  1  0  0  0  0
 16 10  1  0  0  0  0
 18 14  1  0  0  0  0
 19  3  1  0  0  0  0
 21 22  1  0  0  0  0
 21 20  2  1  0  0  0
 21 19  1  0  0  0  0
 22 23  1  0  0  0  0
 24 21  1  0  0  0  0
 25 26  2  0  0  0  0
 25 24  1  0  0  0  0
 26 27  1  0  0  0  0
 28 26  1  0  0  0  0
 29 30  1  0  0  0  0
 29 28  2  0  0  0  0
 30 25  1  0  0  0  0
M  END
>  <minimizedAffinity>
-4.73514557

$$$$

 OpenBabel03272504583D

 30 32  0  0  1  0  0  0  0  0999 V2000
   36.6550   23.1890   31.1330 C   0  0  1  0  0  0  0  0  0  0  0  0
   35.6190   24.1920   31.0620 C   0  0  0  0  0  0  0  0  0  0  0  0
   36.6380   24.2370   32.1550 C   0  0  2  0  0  0  0  0  0  0  0  0
   37.5800   23.2130   30.4600 H   0  0  0  0  0  0  0  0  0  0  0  0
   35.6280   24.5970   30.0680 H   0  0  0  0  0  0  0  0  0  0  0  0
   34.6010   23.8670   31.3610 H   0  0  0  0  0  0  0  0  0  0  0  0
   36.1510   24.2540   33.1150 H   0  0  0  0  0  0  0  0  0  0  0  0
   36.3400   21.7940   31.5910 C   0  0  0  0  0  0  0  0  0  0  0  0
   35.9990   21.6580   32.9550 C   0  0  0  0  0  0  0  0  0  0  0  0
   35.7100   20.3760   33.3520 C   0  0  0  0  0  0  0  0  0  0  0  0
   35.7600   19.3540   32.4680 N   0  0  0  0  0  0  0  0  0  0  0  0
   36.0940   19.5240   31.1570 C   0  0  0  0  0  0  0  0  0  0  0  0
   36.3920   20.7900   30.7190 N   0  0  0  0  0  0  0  0  0  0  0  0
   36.1320   18.4890   30.2170 N   0  0  0  0  0  0  0  0  0  0  0  0
   35.9550   22.4580   33.6610 H   0  0  0  0  0  0  0  0  0  0  0  0
   35.4390   20.1860   34.3820 H   0  0  0  0  0  0  0  0  0  0  0  0
   35.5520   18.4590   29.3470 H   0  0  0  0  0  0  0  0  0  0  0  0
   36.8260   17.7510   30.5140 H   0  0  0  0  0  0  0  0  0  0  0  0
   37.6210   25.2210   32.0200 O   0  0  0  0  0  0  0  0  0  0  0  0
   39.3530   26.5300   33.4110 O   0  0  0  0  0  0  0  0  0  0  0  0
   38.0260   25.8500   33.5110 P   0  0  1  0  0  0  0  0  0  0  0  0
   36.9150   27.1320   33.8930 O   0  0  0  0  0  0  0  0  0  0  0  0
   36.5860   27.4680   33.0230 H   0  0  0  0  0  0  0  0  0  0  0  0
   37.9360   24.6650   34.6690 O   0  0  0  0  0  0  0  0  0  0  0  0
   38.5820   24.0790   35.5620 C   0  0  0  0  0  0  0  0  0  0  0  0
   38.1100   23.9400   36.8500 C   0  0  0  0  0  0  0  0  0  0  0  0
   37.1670   24.2830   37.3070 H   0  0  0  0  0  0  0  0  0  0  0  0
   38.6170   23.3610   37.9600 C   0  0  0  0  0  3  0  0  0  0  0  0
   39.9630   22.7770   37.6290 C   0  0  0  0  0  3  0  0  0  0  0  0
   40.2590   23.1720   35.7680 S   0  0  0  0  0  0  0  0  0  0  0  0
  1  4  1  6  0  0  0
  1  8  1  0  0  0  0
  1  3  1  0  0  0  0
  2  1  1  0  0  0  0
  2  6  1  0  0  0  0
  2  3  1  0  0  0  0
  3  7  1  1  0  0  0
  5  2  1  0  0  0  0
  8  9  1  0  0  0  0
  9 10  2  0  0  0  0
  9 15  1  0  0  0  0
 10 16  1  0  0  0  0
 11 10  1  0  0  0  0
 12 11  2  0  0  0  0
 13 12  1  0  0  0  0
 13  8  2  0  0  0  0
 14 18  1  0  0  0  0
 14 12  1  0  0  0  0
 17 14  1  0  0  0  0
 19  3  1  0  0  0  0
 19 21  1  0  0  0  0
 21 20  2  6  0  0  0
 21 22  1  0  0  0  0
 21 24  1  0  0  0  0
 23 22  1  0  0  0  0
 24 25  1  0  0  0  0
 25 30  1  0  0  0  0
 25 26  2  0  0  0  0
 26 27  1  0  0  0  0
 26 28  1  0  0  0  0
 29 28  2  0  0  0  0
 30 29  1  0  0  0  0
M  END
>  <minimizedAffinity>
-4.72220755

$$$$
