
 OpenBabel03272503433D

 43 47  0  0  1  0  0  0  0  0999 V2000
   34.4010   29.7060   31.7220 C   0  0  2  0  0  0  0  0  0  0  0  0
   35.7900   29.3230   31.1710 C   0  0  1  0  0  0  0  0  0  0  0  0
   36.5660   30.5030   31.6640 C   0  0  0  0  0  0  0  0  0  0  0  0
   35.7300   31.5980   31.5820 O   0  0  0  0  0  0  0  0  0  0  0  0
   34.4370   31.1790   31.3420 C   0  0  0  0  0  0  0  0  0  0  0  0
   33.6110   29.1380   31.2040 H   0  0  0  0  0  0  0  0  0  0  0  0
   35.7780   29.2880   30.0800 H   0  0  0  0  0  0  0  0  0  0  0  0
   37.4270   30.7090   30.9910 H   0  0  0  0  0  0  0  0  0  0  0  0
   36.9990   30.3580   32.6810 H   0  0  0  0  0  0  0  0  0  0  0  0
   33.7200   31.7120   31.9760 H   0  0  0  0  0  0  0  0  0  0  0  0
   34.1370   31.3010   30.2820 H   0  0  0  0  0  0  0  0  0  0  0  0
   37.2400   26.5290   32.8930 C   0  0  0  0  0  0  0  0  0  0  0  0
   36.3740   25.8660   32.0820 C   0  0  0  0  0  0  0  0  0  0  0  0
   35.7400   26.8800   31.3490 C   0  0  0  0  0  0  0  0  0  0  0  0
   36.2230   28.0740   31.7250 N   0  0  0  0  0  0  0  0  0  0  0  0
   37.1500   27.8620   32.6780 N   0  0  0  0  0  0  0  0  0  0  0  0
   36.1880   24.7990   31.9950 H   0  0  0  0  0  0  0  0  0  0  0  0
   34.9820   26.6690   30.6060 H   0  0  0  0  0  0  0  0  0  0  0  0
   38.5930   24.4900   35.7340 C   0  0  0  0  0  0  0  0  0  0  0  0
   37.7050   25.0590   34.8540 C   0  0  0  0  0  0  0  0  0  0  0  0
   38.1320   25.9030   33.8490 C   0  0  0  0  0  0  0  0  0  0  0  0
   39.4650   26.1380   33.7800 N   0  0  0  0  0  0  0  0  0  0  0  0
   40.3310   25.5650   34.6630 C   0  0  0  0  0  0  0  0  0  0  0  0
   39.9140   24.7560   35.6240 N   0  0  0  0  0  0  0  0  0  0  0  0
   36.6270   24.9050   34.8620 H   0  0  0  0  0  0  0  0  0  0  0  0
   41.4040   25.7820   34.5710 H   0  0  0  0  0  0  0  0  0  0  0  0
   37.9760   23.6660   36.6810 O   0  0  0  0  0  0  0  0  0  0  0  0
   38.2230   23.7750   38.0700 C   0  0  0  0  0  0  0  0  0  0  0  0
   38.0620   25.0680   38.5210 F   0  0  0  0  0  0  0  0  0  0  0  0
   39.4920   23.3240   38.3140 F   0  0  0  0  0  0  0  0  0  0  0  0
   37.3500   22.9340   38.7340 F   0  0  0  0  0  0  0  0  0  0  0  0
   34.4840   29.5540   33.0830 O   0  0  0  0  0  0  0  0  0  0  0  0
   33.5380   29.7490   34.0500 C   0  0  0  0  0  0  0  0  0  0  0  0
   32.2520   29.2320   34.1360 C   0  0  0  0  0  0  0  0  0  0  0  0
   31.9940   28.5790   33.2900 H   0  0  0  0  0  0  0  0  0  0  0  0
   31.4380   29.5520   35.2060 C   0  0  0  0  0  3  0  0  0  0  0  0
   31.8830   30.3830   36.2000 C   0  0  0  0  0  3  0  0  0  0  0  0
   33.1390   30.9020   36.1380 C   0  0  0  0  0  0  0  0  0  0  0  0
   33.5380   31.7370   37.1730 C   0  0  0  0  0  3  0  0  0  0  0  0
   34.7970   32.2890   37.1600 C   0  0  0  0  0  3  0  0  0  0  0  0
   35.6460   31.9990   36.1120 C   0  0  0  0  0  3  0  0  0  0  0  0
   35.2540   31.1800   35.1000 C   0  0  0  0  0  3  0  0  0  0  0  0
   33.9860   30.5970   35.0710 C   0  0  0  0  0  0  0  0  0  0  0  0
  1  6  1  6  0  0  0
  1 32  1  0  0  0  0
  2  7  1  6  0  0  0
  2  3  1  0  0  0  0
  2  1  1  0  0  0  0
  2 15  1  0  0  0  0
  3  9  1  0  0  0  0
  4  3  1  0  0  0  0
  5  4  1  0  0  0  0
  5  1  1  0  0  0  0
  5 10  1  0  0  0  0
  8  3  1  0  0  0  0
 11  5  1  0  0  0  0
 12 21  1  0  0  0  0
 13 12  1  0  0  0  0
 14 15  1  0  0  0  0
 14 13  2  0  0  0  0
 15 16  1  0  0  0  0
 16 12  2  0  0  0  0
 17 13  1  0  0  0  0
 18 14  1  0  0  0  0
 19 27  1  0  0  0  0
 20 25  1  0  0  0  0
 20 19  2  0  0  0  0
 21 20  1  0  0  0  0
 22 21  2  0  0  0  0
 22 23  1  0  0  0  0
 23 24  2  0  0  0  0
 24 19  1  0  0  0  0
 26 23  1  0  0  0  0
 27 28  1  0  0  0  0
 28 30  1  0  0  0  0
 28 29  1  0  0  0  0
 28 31  1  0  0  0  0
 32 33  1  0  0  0  0
 33 34  2  0  0  0  0
 33 43  1  0  0  0  0
 34 36  1  0  0  0  0
 35 34  1  0  0  0  0
 36 37  2  0  0  0  0
 38 37  1  0  0  0  0
 38 39  1  0  0  0  0
 40 39  2  0  0  0  0
 41 40  1  0  0  0  0
 42 41  2  0  0  0  0
 43 42  1  0  0  0  0
 43 38  2  0  0  0  0
M  END
>  <minimizedAffinity>
-6.77779913

$$$$

 OpenBabel03272503433D

 43 47  0  0  1  0  0  0  0  0999 V2000
   39.0250   22.9630   32.5720 C   0  0  2  0  0  0  0  0  0  0  0  0
   37.8480   23.6690   31.8680 C   0  0  1  0  0  0  0  0  0  0  0  0
   36.7200   22.9000   32.4810 C   0  0  0  0  0  0  0  0  0  0  0  0
   37.1550   21.5980   32.6300 O   0  0  0  0  0  0  0  0  0  0  0  0
   38.5180   21.5360   32.4230 C   0  0  0  0  0  0  0  0  0  0  0  0
   39.9670   23.1530   32.0310 H   0  0  0  0  0  0  0  0  0  0  0  0
   37.8900   23.5120   30.7890 H   0  0  0  0  0  0  0  0  0  0  0  0
   35.8520   22.8670   31.7870 H   0  0  0  0  0  0  0  0  0  0  0  0
   36.3390   23.3460   33.4280 H   0  0  0  0  0  0  0  0  0  0  0  0
   39.0100   20.9190   33.1820 H   0  0  0  0  0  0  0  0  0  0  0  0
   38.7810   21.1460   31.4190 H   0  0  0  0  0  0  0  0  0  0  0  0
   37.2320   27.1370   32.5480 C   0  0  0  0  0  0  0  0  0  0  0  0
   38.5670   27.0940   32.7980 C   0  0  0  0  0  0  0  0  0  0  0  0
   38.9220   25.7590   32.5600 C   0  0  0  0  0  0  0  0  0  0  0  0
   37.8350   25.0660   32.1880 N   0  0  0  0  0  0  0  0  0  0  0  0
   36.7890   25.9130   32.1790 N   0  0  0  0  0  0  0  0  0  0  0  0
   39.2360   27.8900   33.1140 H   0  0  0  0  0  0  0  0  0  0  0  0
   39.9370   25.4000   32.6760 H   0  0  0  0  0  0  0  0  0  0  0  0
   35.1600   29.9520   33.9070 C   0  0  0  0  0  0  0  0  0  0  0  0
   35.9460   28.8260   33.8580 C   0  0  0  0  0  0  0  0  0  0  0  0
   36.4000   28.3200   32.6580 C   0  0  0  0  0  0  0  0  0  0  0  0
   36.0320   28.9890   31.5390 N   0  0  0  0  0  0  0  0  0  0  0  0
   35.2520   30.1050   31.6060 C   0  0  0  0  0  0  0  0  0  0  0  0
   34.8200   30.5850   32.7620 N   0  0  0  0  0  0  0  0  0  0  0  0
   36.2720   28.2500   34.7230 H   0  0  0  0  0  0  0  0  0  0  0  0
   34.9770   30.6180   30.6740 H   0  0  0  0  0  0  0  0  0  0  0  0
   34.7980   30.3120   35.2090 O   0  0  0  0  0  0  0  0  0  0  0  0
   35.3360   31.4420   35.8700 C   0  0  0  0  0  0  0  0  0  0  0  0
   34.7770   31.6210   37.1180 F   0  0  0  0  0  0  0  0  0  0  0  0
   35.1290   32.5380   35.0780 F   0  0  0  0  0  0  0  0  0  0  0  0
   36.7020   31.2670   35.9890 F   0  0  0  0  0  0  0  0  0  0  0  0
   38.9710   23.3630   33.8830 O   0  0  0  0  0  0  0  0  0  0  0  0
   39.6540   22.9010   34.9730 C   0  0  0  0  0  0  0  0  0  0  0  0
   40.7800   22.0890   35.0240 C   0  0  0  0  0  0  0  0  0  0  0  0
   41.1430   21.7970   34.0280 H   0  0  0  0  0  0  0  0  0  0  0  0
   41.3290   21.7280   36.2390 C   0  0  0  0  0  3  0  0  0  0  0  0
   40.7750   22.1620   37.4140 C   0  0  0  0  0  3  0  0  0  0  0  0
   39.6720   22.9590   37.3910 C   0  0  0  0  0  0  0  0  0  0  0  0
   39.1530   23.3690   38.6110 C   0  0  0  0  0  3  0  0  0  0  0  0
   38.0390   24.1740   38.6440 C   0  0  0  0  0  3  0  0  0  0  0  0
   37.4550   24.5610   37.4560 C   0  0  0  0  0  3  0  0  0  0  0  0
   37.9660   24.1590   36.2620 C   0  0  0  0  0  3  0  0  0  0  0  0
   39.0940   23.3410   36.1790 C   0  0  0  0  0  0  0  0  0  0  0  0
  1  6  1  6  0  0  0
  1 32  1  0  0  0  0
  2  7  1  6  0  0  0
  2 15  1  0  0  0  0
  2  3  1  0  0  0  0
  2  1  1  0  0  0  0
  3  4  1  0  0  0  0
  3  9  1  0  0  0  0
  5  1  1  0  0  0  0
  5  4  1  0  0  0  0
  5 10  1  0  0  0  0
  8  3  1  0  0  0  0
 11  5  1  0  0  0  0
 12 21  1  0  0  0  0
 12 13  1  0  0  0  0
 13 17  1  0  0  0  0
 14 18  1  0  0  0  0
 14 13  2  0  0  0  0
 15 14  1  0  0  0  0
 16 15  1  0  0  0  0
 16 12  2  0  0  0  0
 19 27  1  0  0  0  0
 20 19  1  0  0  0  0
 20 25  1  0  0  0  0
 21 20  2  0  0  0  0
 22 23  2  0  0  0  0
 22 21  1  0  0  0  0
 23 24  1  0  0  0  0
 24 19  2  0  0  0  0
 26 23  1  0  0  0  0
 27 28  1  0  0  0  0
 28 31  1  0  0  0  0
 28 29  1  0  0  0  0
 30 28  1  0  0  0  0
 32 33  1  0  0  0  0
 33 34  2  0  0  0  0
 33 43  1  0  0  0  0
 34 36  1  0  0  0  0
 35 34  1  0  0  0  0
 36 37  2  0  0  0  0
 38 37  1  0  0  0  0
 38 39  1  0  0  0  0
 39 40  2  0  0  0  0
 41 40  1  0  0  0  0
 42 41  2  0  0  0  0
 43 42  1  0  0  0  0
 43 38  2  0  0  0  0
M  END
>  <minimizedAffinity>
-6.69865751

$$$$

 OpenBabel03272503433D

 43 47  0  0  1  0  0  0  0  0999 V2000
   38.1230   23.1070   35.3360 C   0  0  2  0  0  0  0  0  0  0  0  0
   38.9610   24.3060   35.8250 C   0  0  1  0  0  0  0  0  0  0  0  0
   40.3260   23.7220   35.6430 C   0  0  0  0  0  0  0  0  0  0  0  0
   40.2340   22.3800   35.9520 O   0  0  0  0  0  0  0  0  0  0  0  0
   38.9060   22.0140   36.0480 C   0  0  0  0  0  0  0  0  0  0  0  0
   37.0810   23.1980   35.6840 H   0  0  0  0  0  0  0  0  0  0  0  0
   38.7600   24.5160   36.8780 H   0  0  0  0  0  0  0  0  0  0  0  0
   41.0380   24.1670   36.3720 H   0  0  0  0  0  0  0  0  0  0  0  0
   40.7610   23.9100   34.6350 H   0  0  0  0  0  0  0  0  0  0  0  0
   38.7140   21.0670   35.5330 H   0  0  0  0  0  0  0  0  0  0  0  0
   38.5610   21.9280   37.0980 H   0  0  0  0  0  0  0  0  0  0  0  0
   37.7980   27.1930   34.0410 C   0  0  0  0  0  0  0  0  0  0  0  0
   39.0520   27.1020   33.5250 C   0  0  0  0  0  0  0  0  0  0  0  0
   39.6100   25.9860   34.1640 C   0  0  0  0  0  0  0  0  0  0  0  0
   38.7120   25.4590   35.0110 N   0  0  0  0  0  0  0  0  0  0  0  0
   37.5910   26.2020   34.9380 N   0  0  0  0  0  0  0  0  0  0  0  0
   39.5430   27.7310   32.7880 H   0  0  0  0  0  0  0  0  0  0  0  0
   40.6180   25.6480   33.9640 H   0  0  0  0  0  0  0  0  0  0  0  0
   35.1850   29.8770   34.2160 C   0  0  0  0  0  0  0  0  0  0  0  0
   36.0990   28.9300   34.6080 C   0  0  0  0  0  0  0  0  0  0  0  0
   36.8210   28.2040   33.6840 C   0  0  0  0  0  0  0  0  0  0  0  0
   36.5820   28.4750   32.3780 N   0  0  0  0  0  0  0  0  0  0  0  0
   35.6710   29.4190   32.0070 C   0  0  0  0  0  0  0  0  0  0  0  0
   34.9810   30.1120   32.9000 N   0  0  0  0  0  0  0  0  0  0  0  0
   36.3320   28.6710   35.6400 H   0  0  0  0  0  0  0  0  0  0  0  0
   35.5080   29.6080   30.9370 H   0  0  0  0  0  0  0  0  0  0  0  0
   34.5520   30.5080   35.2910 O   0  0  0  0  0  0  0  0  0  0  0  0
   35.1080   31.6230   35.9630 C   0  0  0  0  0  0  0  0  0  0  0  0
   36.4780   31.5200   36.0810 F   0  0  0  0  0  0  0  0  0  0  0  0
   34.5150   31.7190   37.1930 F   0  0  0  0  0  0  0  0  0  0  0  0
   34.7820   32.7640   35.2550 F   0  0  0  0  0  0  0  0  0  0  0  0
   38.3210   23.0410   33.9800 O   0  0  0  0  0  0  0  0  0  0  0  0
   37.4270   23.1600   32.9530 C   0  0  0  0  0  0  0  0  0  0  0  0
   37.2550   24.2060   32.0560 C   0  0  0  0  0  0  0  0  0  0  0  0
   37.9530   25.0370   32.2270 H   0  0  0  0  0  0  0  0  0  0  0  0
   36.2830   24.1350   31.0760 C   0  0  0  0  0  3  0  0  0  0  0  0
   35.4730   23.0360   30.9710 C   0  0  0  0  0  3  0  0  0  0  0  0
   35.6220   21.9980   31.8380 C   0  0  0  0  0  0  0  0  0  0  0  0
   34.7750   20.9100   31.6860 C   0  0  0  0  0  3  0  0  0  0  0  0
   34.8830   19.8350   32.5350 C   0  0  0  0  0  3  0  0  0  0  0  0
   35.8380   19.8580   33.5300 C   0  0  0  0  0  3  0  0  0  0  0  0
   36.6680   20.9250   33.6770 C   0  0  0  0  0  3  0  0  0  0  0  0
   36.5950   22.0390   32.8390 C   0  0  0  0  0  0  0  0  0  0  0  0
  1  6  1  1  0  0  0
  1  2  1  0  0  0  0
  1  5  1  0  0  0  0
  2  7  1  1  0  0  0
  3  2  1  0  0  0  0
  3  4  1  0  0  0  0
  3  8  1  0  0  0  0
  4  5  1  0  0  0  0
  5 11  1  0  0  0  0
  9  3  1  0  0  0  0
 10  5  1  0  0  0  0
 12 16  2  0  0  0  0
 13 12  1  0  0  0  0
 13 14  2  0  0  0  0
 14 15  1  0  0  0  0
 15  2  1  0  0  0  0
 16 15  1  0  0  0  0
 17 13  1  0  0  0  0
 18 14  1  0  0  0  0
 19 20  1  0  0  0  0
 19 27  1  0  0  0  0
 20 25  1  0  0  0  0
 21 12  1  0  0  0  0
 21 20  2  0  0  0  0
 22 21  1  0  0  0  0
 23 22  2  0  0  0  0
 23 24  1  0  0  0  0
 24 19  2  0  0  0  0
 26 23  1  0  0  0  0
 27 28  1  0  0  0  0
 28 29  1  0  0  0  0
 28 30  1  0  0  0  0
 31 28  1  0  0  0  0
 32  1  1  0  0  0  0
 33 32  1  0  0  0  0
 34 35  1  0  0  0  0
 34 33  2  0  0  0  0
 36 34  1  0  0  0  0
 37 36  2  0  0  0  0
 37 38  1  0  0  0  0
 38 43  1  0  0  0  0
 39 38  2  0  0  0  0
 39 40  1  0  0  0  0
 40 41  2  0  0  0  0
 41 42  1  0  0  0  0
 43 33  1  0  0  0  0
 43 42  2  0  0  0  0
M  END
>  <minimizedAffinity>
-6.51864386

$$$$

 OpenBabel03272503433D

 43 47  0  0  1  0  0  0  0  0999 V2000
   39.9110   25.6280   31.6980 C   0  0  2  0  0  0  0  0  0  0  0  0
   38.9430   25.7470   30.5020 C   0  0  1  0  0  0  0  0  0  0  0  0
   38.7320   24.2910   30.2320 C   0  0  0  0  0  0  0  0  0  0  0  0
   39.9330   23.6570   30.4820 O   0  0  0  0  0  0  0  0  0  0  0  0
   40.7900   24.5230   31.1320 C   0  0  0  0  0  0  0  0  0  0  0  0
   40.4470   26.5790   31.8550 H   0  0  0  0  0  0  0  0  0  0  0  0
   39.4290   26.2380   29.6570 H   0  0  0  0  0  0  0  0  0  0  0  0
   38.5040   24.1260   29.1560 H   0  0  0  0  0  0  0  0  0  0  0  0
   37.8790   23.8510   30.7980 H   0  0  0  0  0  0  0  0  0  0  0  0
   41.2970   24.0300   31.9680 H   0  0  0  0  0  0  0  0  0  0  0  0
   41.5530   24.9580   30.4560 H   0  0  0  0  0  0  0  0  0  0  0  0
   36.3100   27.9680   31.5050 C   0  0  0  0  0  0  0  0  0  0  0  0
   35.5980   26.8150   31.3890 C   0  0  0  0  0  0  0  0  0  0  0  0
   36.5460   25.8600   30.9930 C   0  0  0  0  0  0  0  0  0  0  0  0
   37.7500   26.4420   30.8880 N   0  0  0  0  0  0  0  0  0  0  0  0
   37.6090   27.7440   31.2030 N   0  0  0  0  0  0  0  0  0  0  0  0
   34.5390   26.6380   31.5550 H   0  0  0  0  0  0  0  0  0  0  0  0
   36.2850   24.8260   30.8150 H   0  0  0  0  0  0  0  0  0  0  0  0
   34.9610   30.8300   33.5170 C   0  0  0  0  0  0  0  0  0  0  0  0
   35.4810   29.5990   33.2010 C   0  0  0  0  0  0  0  0  0  0  0  0
   35.7590   29.2510   31.8950 C   0  0  0  0  0  0  0  0  0  0  0  0
   35.4920   30.1840   30.9490 N   0  0  0  0  0  0  0  0  0  0  0  0
   34.9760   31.4010   31.2810 C   0  0  0  0  0  0  0  0  0  0  0  0
   34.7120   31.7270   32.5360 N   0  0  0  0  0  0  0  0  0  0  0  0
   35.7160   28.8130   33.9180 H   0  0  0  0  0  0  0  0  0  0  0  0
   34.7740   32.1280   30.4820 H   0  0  0  0  0  0  0  0  0  0  0  0
   34.7460   31.0000   34.8880 O   0  0  0  0  0  0  0  0  0  0  0  0
   35.7560   31.4470   35.7740 C   0  0  0  0  0  0  0  0  0  0  0  0
   35.2370   31.8360   36.9910 F   0  0  0  0  0  0  0  0  0  0  0  0
   36.4230   32.4800   35.1720 F   0  0  0  0  0  0  0  0  0  0  0  0
   36.6610   30.4190   35.9570 F   0  0  0  0  0  0  0  0  0  0  0  0
   39.1560   25.1620   32.7440 O   0  0  0  0  0  0  0  0  0  0  0  0
   38.8950   25.7260   33.9620 C   0  0  0  0  0  0  0  0  0  0  0  0
   38.9940   27.0550   34.3510 C   0  0  0  0  0  0  0  0  0  0  0  0
   39.3310   27.7160   33.5410 H   0  0  0  0  0  0  0  0  0  0  0  0
   38.6810   27.4310   35.6440 C   0  0  0  0  0  3  0  0  0  0  0  0
   38.2700   26.5020   36.5630 C   0  0  0  0  0  3  0  0  0  0  0  0
   38.1660   25.1930   36.2050 C   0  0  0  0  0  0  0  0  0  0  0  0
   37.7450   24.2960   37.1760 C   0  0  0  0  0  3  0  0  0  0  0  0
   37.6230   22.9620   36.8680 C   0  0  0  0  0  3  0  0  0  0  0  0
   37.9240   22.5380   35.5900 C   0  0  0  0  0  3  0  0  0  0  0  0
   38.3350   23.4190   34.6400 C   0  0  0  0  0  3  0  0  0  0  0  0
   38.4740   24.7830   34.9070 C   0  0  0  0  0  0  0  0  0  0  0  0
  1  6  1  1  0  0  0
  1 32  1  0  0  0  0
  2  7  1  6  0  0  0
  2 15  1  0  0  0  0
  2  1  1  0  0  0  0
  3  4  1  0  0  0  0
  3  2  1  0  0  0  0
  3  9  1  0  0  0  0
  4  5  1  0  0  0  0
  5  1  1  0  0  0  0
  5 10  1  0  0  0  0
  8  3  1  0  0  0  0
 11  5  1  0  0  0  0
 12 21  1  0  0  0  0
 13 12  1  0  0  0  0
 13 17  1  0  0  0  0
 14 13  2  0  0  0  0
 15 14  1  0  0  0  0
 15 16  1  0  0  0  0
 16 12  2  0  0  0  0
 18 14  1  0  0  0  0
 19 27  1  0  0  0  0
 20 19  1  0  0  0  0
 20 25  1  0  0  0  0
 21 20  2  0  0  0  0
 22 23  2  0  0  0  0
 22 21  1  0  0  0  0
 23 24  1  0  0  0  0
 24 19  2  0  0  0  0
 26 23  1  0  0  0  0
 27 28  1  0  0  0  0
 28 31  1  0  0  0  0
 28 29  1  0  0  0  0
 30 28  1  0  0  0  0
 32 33  1  0  0  0  0
 33 34  2  0  0  0  0
 33 43  1  0  0  0  0
 34 36  1  0  0  0  0
 35 34  1  0  0  0  0
 36 37  2  0  0  0  0
 38 37  1  0  0  0  0
 38 39  1  0  0  0  0
 40 39  2  0  0  0  0
 41 40  1  0  0  0  0
 42 43  1  0  0  0  0
 42 41  2  0  0  0  0
 43 38  2  0  0  0  0
M  END
>  <minimizedAffinity>
-6.51255655

$$$$

 OpenBabel03272503433D

 43 47  0  0  1  0  0  0  0  0999 V2000
   41.0530   25.8480   30.5900 C   0  0  2  0  0  0  0  0  0  0  0  0
   42.5130   25.6730   31.0560 C   0  0  1  0  0  0  0  0  0  0  0  0
   43.0230   27.0420   30.7340 C   0  0  0  0  0  0  0  0  0  0  0  0
   42.3890   27.4450   29.5750 O   0  0  0  0  0  0  0  0  0  0  0  0
   41.3470   26.5850   29.2920 C   0  0  0  0  0  0  0  0  0  0  0  0
   40.5770   24.8650   30.4390 H   0  0  0  0  0  0  0  0  0  0  0  0
   43.0220   24.9130   30.4600 H   0  0  0  0  0  0  0  0  0  0  0  0
   44.1100   27.0060   30.5050 H   0  0  0  0  0  0  0  0  0  0  0  0
   42.9090   27.7690   31.5710 H   0  0  0  0  0  0  0  0  0  0  0  0
   40.4450   27.1330   29.0000 H   0  0  0  0  0  0  0  0  0  0  0  0
   41.5970   25.8570   28.4940 H   0  0  0  0  0  0  0  0  0  0  0  0
   42.2660   24.4200   34.4090 C   0  0  0  0  0  0  0  0  0  0  0  0
   43.0940   25.4760   34.6260 C   0  0  0  0  0  0  0  0  0  0  0  0
   43.2630   26.0510   33.3580 C   0  0  0  0  0  0  0  0  0  0  0  0
   42.5600   25.3530   32.4530 N   0  0  0  0  0  0  0  0  0  0  0  0
   41.9420   24.3450   33.0970 N   0  0  0  0  0  0  0  0  0  0  0  0
   43.5430   25.8230   35.5520 H   0  0  0  0  0  0  0  0  0  0  0  0
   43.8800   26.9240   33.1960 H   0  0  0  0  0  0  0  0  0  0  0  0
   40.1050   22.6020   36.8760 C   0  0  0  0  0  0  0  0  0  0  0  0
   40.5000   23.4900   35.9050 C   0  0  0  0  0  0  0  0  0  0  0  0
   41.7950   23.5070   35.4320 C   0  0  0  0  0  0  0  0  0  0  0  0
   42.6510   22.6060   35.9740 N   0  0  0  0  0  0  0  0  0  0  0  0
   42.2420   21.7330   36.9370 C   0  0  0  0  0  0  0  0  0  0  0  0
   40.9970   21.7220   37.3860 N   0  0  0  0  0  0  0  0  0  0  0  0
   39.8560   24.2330   35.4350 H   0  0  0  0  0  0  0  0  0  0  0  0
   42.9680   21.0190   37.3490 H   0  0  0  0  0  0  0  0  0  0  0  0
   38.7580   22.7350   37.2270 O   0  0  0  0  0  0  0  0  0  0  0  0
   38.3240   23.5230   38.3210 C   0  0  0  0  0  0  0  0  0  0  0  0
   39.3210   23.6940   39.2580 F   0  0  0  0  0  0  0  0  0  0  0  0
   37.2280   22.9170   38.8740 F   0  0  0  0  0  0  0  0  0  0  0  0
   37.9190   24.7520   37.8370 F   0  0  0  0  0  0  0  0  0  0  0  0
   40.4670   26.6880   31.5030 O   0  0  0  0  0  0  0  0  0  0  0  0
   39.1510   27.0100   31.6850 C   0  0  0  0  0  0  0  0  0  0  0  0
   38.1620   27.2260   30.7350 C   0  0  0  0  0  0  0  0  0  0  0  0
   38.5240   27.1130   29.7040 H   0  0  0  0  0  0  0  0  0  0  0  0
   36.8750   27.5460   31.1250 C   0  0  0  0  0  3  0  0  0  0  0  0
   36.5520   27.6560   32.4510 C   0  0  0  0  0  3  0  0  0  0  0  0
   37.5040   27.4500   33.4010 C   0  0  0  0  0  0  0  0  0  0  0  0
   37.1220   27.5740   34.7290 C   0  0  0  0  0  3  0  0  0  0  0  0
   38.0440   27.3760   35.7280 C   0  0  0  0  0  3  0  0  0  0  0  0
   39.3420   27.0550   35.3890 C   0  0  0  0  0  3  0  0  0  0  0  0
   39.7150   26.9330   34.0880 C   0  0  0  0  0  3  0  0  0  0  0  0
   38.8130   27.1240   33.0390 C   0  0  0  0  0  0  0  0  0  0  0  0
  1  6  1  6  0  0  0
  1  2  1  0  0  0  0
  1 32  1  0  0  0  0
  2  7  1  6  0  0  0
  2 15  1  0  0  0  0
  3  2  1  0  0  0  0
  3  9  1  0  0  0  0
  4  3  1  0  0  0  0
  5  4  1  0  0  0  0
  5  1  1  0  0  0  0
  8  3  1  0  0  0  0
 10  5  1  0  0  0  0
 11  5  1  0  0  0  0
 12 13  1  0  0  0  0
 12 21  1  0  0  0  0
 13 17  1  0  0  0  0
 14 13  2  0  0  0  0
 15 16  1  0  0  0  0
 15 14  1  0  0  0  0
 16 12  2  0  0  0  0
 18 14  1  0  0  0  0
 19 27  1  0  0  0  0
 19 24  1  0  0  0  0
 20 19  2  0  0  0  0
 21 20  1  0  0  0  0
 21 22  2  0  0  0  0
 22 23  1  0  0  0  0
 23 26  1  0  0  0  0
 23 24  2  0  0  0  0
 25 20  1  0  0  0  0
 27 28  1  0  0  0  0
 28 30  1  0  0  0  0
 28 29  1  0  0  0  0
 31 28  1  0  0  0  0
 32 33  1  0  0  0  0
 33 43  1  0  0  0  0
 34 36  1  0  0  0  0
 34 33  2  0  0  0  0
 35 34  1  0  0  0  0
 36 37  2  0  0  0  0
 37 38  1  0  0  0  0
 38 39  1  0  0  0  0
 39 40  2  0  0  0  0
 41 40  1  0  0  0  0
 42 41  2  0  0  0  0
 43 38  2  0  0  0  0
 43 42  1  0  0  0  0
M  END
>  <minimizedAffinity>
-6.49748898

$$$$

 OpenBabel03272503433D

 43 47  0  0  1  0  0  0  0  0999 V2000
   38.5460   22.8600   32.1660 C   0  0  2  0  0  0  0  0  0  0  0  0
   37.6140   22.8870   30.9370 C   0  0  1  0  0  0  0  0  0  0  0  0
   36.8540   21.6250   31.1970 C   0  0  0  0  0  0  0  0  0  0  0  0
   37.7440   20.7270   31.7520 O   0  0  0  0  0  0  0  0  0  0  0  0
   38.9050   21.3830   32.1090 C   0  0  0  0  0  0  0  0  0  0  0  0
   39.4090   23.5280   32.0090 H   0  0  0  0  0  0  0  0  0  0  0  0
   38.1890   22.8170   30.0120 H   0  0  0  0  0  0  0  0  0  0  0  0
   36.5070   21.1770   30.2400 H   0  0  0  0  0  0  0  0  0  0  0  0
   35.9390   21.7740   31.8160 H   0  0  0  0  0  0  0  0  0  0  0  0
   39.2460   21.0770   33.1040 H   0  0  0  0  0  0  0  0  0  0  0  0
   39.7270   21.2230   31.3830 H   0  0  0  0  0  0  0  0  0  0  0  0
   36.0890   26.1350   30.9800 C   0  0  0  0  0  0  0  0  0  0  0  0
   34.9700   25.3630   30.9580 C   0  0  0  0  0  0  0  0  0  0  0  0
   35.4560   24.0480   30.9390 C   0  0  0  0  0  0  0  0  0  0  0  0
   36.7980   24.0660   30.9510 N   0  0  0  0  0  0  0  0  0  0  0  0
   37.1930   25.3520   30.9760 N   0  0  0  0  0  0  0  0  0  0  0  0
   33.9260   25.6620   30.9530 H   0  0  0  0  0  0  0  0  0  0  0  0
   34.7990   23.1890   30.9180 H   0  0  0  0  0  0  0  0  0  0  0  0
   35.4710   29.7120   31.9210 C   0  0  0  0  0  0  0  0  0  0  0  0
   35.4250   28.3390   31.9410 C   0  0  0  0  0  0  0  0  0  0  0  0
   36.1010   27.5840   31.0050 C   0  0  0  0  0  0  0  0  0  0  0  0
   36.8080   28.2670   30.0710 N   0  0  0  0  0  0  0  0  0  0  0  0
   36.8420   29.6290   30.0660 C   0  0  0  0  0  0  0  0  0  0  0  0
   36.1900   30.3470   30.9680 N   0  0  0  0  0  0  0  0  0  0  0  0
   34.8760   27.7400   32.6670 H   0  0  0  0  0  0  0  0  0  0  0  0
   37.4270   30.1430   29.2910 H   0  0  0  0  0  0  0  0  0  0  0  0
   34.7240   30.3010   32.9460 O   0  0  0  0  0  0  0  0  0  0  0  0
   35.3130   30.8100   34.1280 C   0  0  0  0  0  0  0  0  0  0  0  0
   36.0030   31.9820   33.8960 F   0  0  0  0  0  0  0  0  0  0  0  0
   36.1390   29.8480   34.6410 F   0  0  0  0  0  0  0  0  0  0  0  0
   34.3100   31.0320   35.0530 F   0  0  0  0  0  0  0  0  0  0  0  0
   37.7450   23.1240   33.2480 O   0  0  0  0  0  0  0  0  0  0  0  0
   38.0740   23.3080   34.5620 C   0  0  0  0  0  0  0  0  0  0  0  0
   38.3870   22.3620   35.5290 C   0  0  0  0  0  0  0  0  0  0  0  0
   38.3570   21.3320   35.1470 H   0  0  0  0  0  0  0  0  0  0  0  0
   38.6960   22.7530   36.8180 C   0  0  0  0  0  3  0  0  0  0  0  0
   38.6980   24.0770   37.1660 C   0  0  0  0  0  3  0  0  0  0  0  0
   38.3930   25.0230   36.2370 C   0  0  0  0  0  0  0  0  0  0  0  0
   38.4110   26.3500   36.6450 C   0  0  0  0  0  3  0  0  0  0  0  0
   38.1110   27.3460   35.7460 C   0  0  0  0  0  3  0  0  0  0  0  0
   37.7960   27.0050   34.4470 C   0  0  0  0  0  3  0  0  0  0  0  0
   37.7810   25.7050   34.0490 C   0  0  0  0  0  3  0  0  0  0  0  0
   38.0780   24.6600   34.9260 C   0  0  0  0  0  0  0  0  0  0  0  0
  1  6  1  6  0  0  0
  1 32  1  0  0  0  0
  2  7  1  6  0  0  0
  2 15  1  0  0  0  0
  2  3  1  0  0  0  0
  2  1  1  0  0  0  0
  3  4  1  0  0  0  0
  3  9  1  0  0  0  0
  4  5  1  0  0  0  0
  5  1  1  0  0  0  0
  5 10  1  0  0  0  0
  8  3  1  0  0  0  0
 11  5  1  0  0  0  0
 12 21  1  0  0  0  0
 13 12  1  0  0  0  0
 14 15  1  0  0  0  0
 14 13  2  0  0  0  0
 15 16  1  0  0  0  0
 16 12  2  0  0  0  0
 17 13  1  0  0  0  0
 18 14  1  0  0  0  0
 19 20  1  0  0  0  0
 19 27  1  0  0  0  0
 20 25  1  0  0  0  0
 21 20  2  0  0  0  0
 22 21  1  0  0  0  0
 23 22  2  0  0  0  0
 23 24  1  0  0  0  0
 24 19  2  0  0  0  0
 26 23  1  0  0  0  0
 27 28  1  0  0  0  0
 28 30  1  0  0  0  0
 28 31  1  0  0  0  0
 29 28  1  0  0  0  0
 32 33  1  0  0  0  0
 33 43  2  0  0  0  0
 33 34  1  0  0  0  0
 34 36  2  0  0  0  0
 35 34  1  0  0  0  0
 36 37  1  0  0  0  0
 38 39  1  0  0  0  0
 38 37  2  0  0  0  0
 40 39  2  0  0  0  0
 41 40  1  0  0  0  0
 42 41  2  0  0  0  0
 42 43  1  0  0  0  0
 43 38  1  0  0  0  0
M  END
>  <minimizedAffinity>
-6.47017813

$$$$

 OpenBabel03272503433D

 43 47  0  0  1  0  0  0  0  0999 V2000
   39.8650   25.7230   30.2710 C   0  0  2  0  0  0  0  0  0  0  0  0
   41.1050   26.4760   30.7950 C   0  0  1  0  0  0  0  0  0  0  0  0
   40.6650   27.8750   30.5000 C   0  0  0  0  0  0  0  0  0  0  0  0
   39.9510   27.8330   29.3190 O   0  0  0  0  0  0  0  0  0  0  0  0
   39.6750   26.5210   28.9900 C   0  0  0  0  0  0  0  0  0  0  0  0
   40.1050   24.6620   30.0960 H   0  0  0  0  0  0  0  0  0  0  0  0
   41.9920   26.2130   30.2160 H   0  0  0  0  0  0  0  0  0  0  0  0
   41.5470   28.5280   30.3150 H   0  0  0  0  0  0  0  0  0  0  0  0
   40.1010   28.3510   31.3360 H   0  0  0  0  0  0  0  0  0  0  0  0
   38.6360   26.4010   28.6650 H   0  0  0  0  0  0  0  0  0  0  0  0
   40.3450   26.1280   28.1990 H   0  0  0  0  0  0  0  0  0  0  0  0
   41.3990   25.2690   34.1610 C   0  0  0  0  0  0  0  0  0  0  0  0
   41.8320   26.5450   34.3420 C   0  0  0  0  0  0  0  0  0  0  0  0
   41.7580   27.1220   33.0660 C   0  0  0  0  0  0  0  0  0  0  0  0
   41.3010   26.2140   32.1900 N   0  0  0  0  0  0  0  0  0  0  0  0
   41.0780   25.0680   32.8620 N   0  0  0  0  0  0  0  0  0  0  0  0
   42.1670   27.0380   35.2510 H   0  0  0  0  0  0  0  0  0  0  0  0
   42.0400   28.1490   32.8780 H   0  0  0  0  0  0  0  0  0  0  0  0
   40.0640   22.9610   36.7970 C   0  0  0  0  0  0  0  0  0  0  0  0
   40.1070   23.9180   35.8120 C   0  0  0  0  0  0  0  0  0  0  0  0
   41.2950   24.2680   35.2040 C   0  0  0  0  0  0  0  0  0  0  0  0
   42.4080   23.6210   35.6280 N   0  0  0  0  0  0  0  0  0  0  0  0
   42.3460   22.6740   36.6070 C   0  0  0  0  0  0  0  0  0  0  0  0
   41.2030   22.3430   37.1860 N   0  0  0  0  0  0  0  0  0  0  0  0
   39.2470   24.4670   35.4330 H   0  0  0  0  0  0  0  0  0  0  0  0
   43.2720   22.1740   36.9210 H   0  0  0  0  0  0  0  0  0  0  0  0
   38.7750   22.7410   37.2930 O   0  0  0  0  0  0  0  0  0  0  0  0
   38.2420   23.4610   38.3890 C   0  0  0  0  0  0  0  0  0  0  0  0
   39.2110   23.7720   39.3200 F   0  0  0  0  0  0  0  0  0  0  0  0
   37.2460   22.7080   38.9490 F   0  0  0  0  0  0  0  0  0  0  0  0
   37.6650   24.6220   37.9080 F   0  0  0  0  0  0  0  0  0  0  0  0
   38.8590   25.9930   31.1650 O   0  0  0  0  0  0  0  0  0  0  0  0
   37.5260   25.6950   31.1060 C   0  0  0  0  0  0  0  0  0  0  0  0
   36.4420   26.5520   30.9710 C   0  0  0  0  0  0  0  0  0  0  0  0
   36.7350   27.6090   30.9060 H   0  0  0  0  0  0  0  0  0  0  0  0
   35.1540   26.0510   30.9310 C   0  0  0  0  0  3  0  0  0  0  0  0
   34.9240   24.7040   31.0240 C   0  0  0  0  0  3  0  0  0  0  0  0
   35.9700   23.8450   31.1570 C   0  0  0  0  0  0  0  0  0  0  0  0
   35.6790   22.4900   31.2470 C   0  0  0  0  0  3  0  0  0  0  0  0
   36.6990   21.5790   31.3820 C   0  0  0  0  0  3  0  0  0  0  0  0
   38.0010   22.0310   31.4270 C   0  0  0  0  0  3  0  0  0  0  0  0
   38.2840   23.3570   31.3390 C   0  0  0  0  0  3  0  0  0  0  0  0
   37.2830   24.3200   31.2000 C   0  0  0  0  0  0  0  0  0  0  0  0
  1  6  1  6  0  0  0
  1  2  1  0  0  0  0
  1 32  1  0  0  0  0
  2  7  1  6  0  0  0
  2 15  1  0  0  0  0
  3  2  1  0  0  0  0
  3  9  1  0  0  0  0
  4  3  1  0  0  0  0
  5  4  1  0  0  0  0
  5  1  1  0  0  0  0
  8  3  1  0  0  0  0
 10  5  1  0  0  0  0
 11  5  1  0  0  0  0
 12 13  1  0  0  0  0
 12 21  1  0  0  0  0
 13 17  1  0  0  0  0
 14 13  2  0  0  0  0
 15 16  1  0  0  0  0
 15 14  1  0  0  0  0
 16 12  2  0  0  0  0
 18 14  1  0  0  0  0
 19 24  1  0  0  0  0
 19 27  1  0  0  0  0
 20 19  2  0  0  0  0
 21 22  2  0  0  0  0
 21 20  1  0  0  0  0
 22 23  1  0  0  0  0
 23 26  1  0  0  0  0
 23 24  2  0  0  0  0
 25 20  1  0  0  0  0
 27 28  1  0  0  0  0
 28 30  1  0  0  0  0
 28 29  1  0  0  0  0
 31 28  1  0  0  0  0
 33 32  1  0  0  0  0
 33 43  1  0  0  0  0
 34 33  2  0  0  0  0
 35 34  1  0  0  0  0
 36 34  1  0  0  0  0
 36 37  2  0  0  0  0
 37 38  1  0  0  0  0
 38 43  2  0  0  0  0
 38 39  1  0  0  0  0
 39 40  2  0  0  0  0
 40 41  1  0  0  0  0
 42 41  2  0  0  0  0
 43 42  1  0  0  0  0
M  END
>  <minimizedAffinity>
-6.30226517

$$$$

 OpenBabel03272503433D

 43 47  0  0  1  0  0  0  0  0999 V2000
   39.4230   23.4590   36.1590 C   0  0  2  0  0  0  0  0  0  0  0  0
   40.4360   24.4840   35.6070 C   0  0  1  0  0  0  0  0  0  0  0  0
   41.5030   23.5350   35.1610 C   0  0  0  0  0  0  0  0  0  0  0  0
   41.5300   22.5010   36.0750 O   0  0  0  0  0  0  0  0  0  0  0  0
   40.4190   22.5710   36.8900 C   0  0  0  0  0  0  0  0  0  0  0  0
   38.7010   23.9540   36.8290 H   0  0  0  0  0  0  0  0  0  0  0  0
   40.7990   25.1380   36.4030 H   0  0  0  0  0  0  0  0  0  0  0  0
   42.5000   24.0250   35.2050 H   0  0  0  0  0  0  0  0  0  0  0  0
   41.3780   23.1870   34.1090 H   0  0  0  0  0  0  0  0  0  0  0  0
   39.9600   21.5860   37.0260 H   0  0  0  0  0  0  0  0  0  0  0  0
   40.6460   23.0020   37.8870 H   0  0  0  0  0  0  0  0  0  0  0  0
   38.5570   26.5280   33.3350 C   0  0  0  0  0  0  0  0  0  0  0  0
   39.5620   26.1380   32.5060 C   0  0  0  0  0  0  0  0  0  0  0  0
   40.3730   25.3190   33.3050 C   0  0  0  0  0  0  0  0  0  0  0  0
   39.8530   25.2430   34.5400 N   0  0  0  0  0  0  0  0  0  0  0  0
   38.7320   25.9880   34.5630 N   0  0  0  0  0  0  0  0  0  0  0  0
   39.7300   26.3860   31.4620 H   0  0  0  0  0  0  0  0  0  0  0  0
   41.2700   24.8480   32.9270 H   0  0  0  0  0  0  0  0  0  0  0  0
   35.6450   28.8880   33.4620 C   0  0  0  0  0  0  0  0  0  0  0  0
   36.6760   28.0770   33.8700 C   0  0  0  0  0  0  0  0  0  0  0  0
   37.4570   27.3950   32.9600 C   0  0  0  0  0  0  0  0  0  0  0  0
   37.1530   27.5670   31.6500 N   0  0  0  0  0  0  0  0  0  0  0  0
   36.1260   28.3750   31.2630 C   0  0  0  0  0  0  0  0  0  0  0  0
   35.3810   29.0270   32.1430 N   0  0  0  0  0  0  0  0  0  0  0  0
   36.9650   27.9030   34.9060 H   0  0  0  0  0  0  0  0  0  0  0  0
   35.9130   28.4870   30.1910 H   0  0  0  0  0  0  0  0  0  0  0  0
   34.9690   29.4940   34.5250 O   0  0  0  0  0  0  0  0  0  0  0  0
   35.3440   30.7510   35.0560 C   0  0  0  0  0  0  0  0  0  0  0  0
   36.4610   30.6570   35.8590 F   0  0  0  0  0  0  0  0  0  0  0  0
   34.2790   31.2540   35.7530 F   0  0  0  0  0  0  0  0  0  0  0  0
   35.5940   31.6110   34.0030 F   0  0  0  0  0  0  0  0  0  0  0  0
   38.9110   22.8140   35.0620 O   0  0  0  0  0  0  0  0  0  0  0  0
   37.7640   22.0810   34.9280 C   0  0  0  0  0  0  0  0  0  0  0  0
   36.9180   21.5890   35.9130 C   0  0  0  0  0  0  0  0  0  0  0  0
   37.2480   21.8440   36.9300 H   0  0  0  0  0  0  0  0  0  0  0  0
   35.7940   20.8610   35.5710 C   0  0  0  0  0  3  0  0  0  0  0  0
   35.4940   20.6120   34.2580 C   0  0  0  0  0  3  0  0  0  0  0  0
   36.3090   21.0830   33.2750 C   0  0  0  0  0  0  0  0  0  0  0  0
   35.9570   20.8010   31.9620 C   0  0  0  0  0  3  0  0  0  0  0  0
   36.7440   21.2530   30.9310 C   0  0  0  0  0  3  0  0  0  0  0  0
   37.8770   21.9840   31.2220 C   0  0  0  0  0  3  0  0  0  0  0  0
   38.2200   22.2600   32.5080 C   0  0  0  0  0  3  0  0  0  0  0  0
   37.4510   21.8220   33.5880 C   0  0  0  0  0  0  0  0  0  0  0  0
  1  6  1  1  0  0  0
  1  5  1  0  0  0  0
  2  1  1  0  0  0  0
  2  7  1  1  0  0  0
  3  8  1  0  0  0  0
  3  2  1  0  0  0  0
  3  4  1  0  0  0  0
  4  5  1  0  0  0  0
  5 10  1  0  0  0  0
  5 11  1  0  0  0  0
  9  3  1  0  0  0  0
 12 16  2  0  0  0  0
 13 14  2  0  0  0  0
 13 12  1  0  0  0  0
 14 15  1  0  0  0  0
 15 16  1  0  0  0  0
 15  2  1  0  0  0  0
 17 13  1  0  0  0  0
 18 14  1  0  0  0  0
 19 20  1  0  0  0  0
 19 27  1  0  0  0  0
 20 25  1  0  0  0  0
 21 12  1  0  0  0  0
 21 20  2  0  0  0  0
 22 21  1  0  0  0  0
 23 22  2  0  0  0  0
 23 24  1  0  0  0  0
 24 19  2  0  0  0  0
 26 23  1  0  0  0  0
 27 28  1  0  0  0  0
 28 30  1  0  0  0  0
 28 29  1  0  0  0  0
 31 28  1  0  0  0  0
 32  1  1  0  0  0  0
 33 32  1  0  0  0  0
 33 34  1  0  0  0  0
 34 35  1  0  0  0  0
 36 34  2  0  0  0  0
 37 36  1  0  0  0  0
 38 43  1  0  0  0  0
 38 37  2  0  0  0  0
 39 38  1  0  0  0  0
 40 41  1  0  0  0  0
 40 39  2  0  0  0  0
 41 42  2  0  0  0  0
 42 43  1  0  0  0  0
 43 33  2  0  0  0  0
M  END
>  <minimizedAffinity>
-6.26244545

$$$$

 OpenBabel03272503433D

 43 47  0  0  1  0  0  0  0  0999 V2000
   40.2360   26.5090   29.8710 C   0  0  2  0  0  0  0  0  0  0  0  0
   40.4750   24.9870   29.9340 C   0  0  1  0  0  0  0  0  0  0  0  0
   41.7530   24.9870   30.7110 C   0  0  0  0  0  0  0  0  0  0  0  0
   42.4730   26.0920   30.3010 O   0  0  0  0  0  0  0  0  0  0  0  0
   41.6650   26.9210   29.5490 C   0  0  0  0  0  0  0  0  0  0  0  0
   39.5180   26.7530   29.0700 H   0  0  0  0  0  0  0  0  0  0  0  0
   40.6220   24.5750   28.9340 H   0  0  0  0  0  0  0  0  0  0  0  0
   42.3650   24.0960   30.4510 H   0  0  0  0  0  0  0  0  0  0  0  0
   41.6050   24.9470   31.8150 H   0  0  0  0  0  0  0  0  0  0  0  0
   41.7900   27.9690   29.8370 H   0  0  0  0  0  0  0  0  0  0  0  0
   41.8480   26.8240   28.4600 H   0  0  0  0  0  0  0  0  0  0  0  0
   38.1410   23.3050   32.0790 C   0  0  0  0  0  0  0  0  0  0  0  0
   37.3560   23.4710   30.9810 C   0  0  0  0  0  0  0  0  0  0  0  0
   38.1820   24.1310   30.0600 C   0  0  0  0  0  0  0  0  0  0  0  0
   39.3900   24.3350   30.6080 N   0  0  0  0  0  0  0  0  0  0  0  0
   39.3690   23.8270   31.8550 N   0  0  0  0  0  0  0  0  0  0  0  0
   36.3240   23.1740   30.8190 H   0  0  0  0  0  0  0  0  0  0  0  0
   37.8410   24.4090   29.0720 H   0  0  0  0  0  0  0  0  0  0  0  0
   37.8440   22.3110   35.6820 C   0  0  0  0  0  0  0  0  0  0  0  0
   38.2760   22.9470   34.5440 C   0  0  0  0  0  0  0  0  0  0  0  0
   37.7250   22.6650   33.3110 C   0  0  0  0  0  0  0  0  0  0  0  0
   36.7430   21.7310   33.2850 N   0  0  0  0  0  0  0  0  0  0  0  0
   36.3270   21.1090   34.4250 C   0  0  0  0  0  0  0  0  0  0  0  0
   36.8600   21.3860   35.6040 N   0  0  0  0  0  0  0  0  0  0  0  0
   39.0590   23.7040   34.5060 H   0  0  0  0  0  0  0  0  0  0  0  0
   35.5280   20.3590   34.3590 H   0  0  0  0  0  0  0  0  0  0  0  0
   38.5190   22.7280   36.8340 O   0  0  0  0  0  0  0  0  0  0  0  0
   37.9090   23.5190   37.8370 C   0  0  0  0  0  0  0  0  0  0  0  0
   37.0950   24.4930   37.2990 F   0  0  0  0  0  0  0  0  0  0  0  0
   38.8980   24.0730   38.6030 F   0  0  0  0  0  0  0  0  0  0  0  0
   37.1670   22.6880   38.6550 F   0  0  0  0  0  0  0  0  0  0  0  0
   39.8970   26.8880   31.1450 O   0  0  0  0  0  0  0  0  0  0  0  0
   38.6950   27.2990   31.6510 C   0  0  0  0  0  0  0  0  0  0  0  0
   37.5680   27.7500   30.9760 C   0  0  0  0  0  0  0  0  0  0  0  0
   37.6970   27.7640   29.8850 H   0  0  0  0  0  0  0  0  0  0  0  0
   36.4360   28.1240   31.6760 C   0  0  0  0  0  3  0  0  0  0  0  0
   36.4050   28.0580   33.0440 C   0  0  0  0  0  3  0  0  0  0  0  0
   37.4970   27.6200   33.7270 C   0  0  0  0  0  0  0  0  0  0  0  0
   37.4100   27.5730   35.1110 C   0  0  0  0  0  3  0  0  0  0  0  0
   38.4840   27.1390   35.8500 C   0  0  0  0  0  3  0  0  0  0  0  0
   39.6370   26.7550   35.1960 C   0  0  0  0  0  3  0  0  0  0  0  0
   39.7200   26.8000   33.8410 C   0  0  0  0  0  3  0  0  0  0  0  0
   38.6550   27.2340   33.0490 C   0  0  0  0  0  0  0  0  0  0  0  0
  1  6  1  6  0  0  0
  1  2  1  0  0  0  0
  1 32  1  0  0  0  0
  2  7  1  6  0  0  0
  2 15  1  0  0  0  0
  2  3  1  0  0  0  0
  3  9  1  0  0  0  0
  4  3  1  0  0  0  0
  5 10  1  0  0  0  0
  5  1  1  0  0  0  0
  5  4  1  0  0  0  0
  8  3  1  0  0  0  0
 11  5  1  0  0  0  0
 12 21  1  0  0  0  0
 13 12  1  0  0  0  0
 14 15  1  0  0  0  0
 14 13  2  0  0  0  0
 15 16  1  0  0  0  0
 16 12  2  0  0  0  0
 17 13  1  0  0  0  0
 18 14  1  0  0  0  0
 19 27  1  0  0  0  0
 20 19  2  0  0  0  0
 21 20  1  0  0  0  0
 22 21  2  0  0  0  0
 22 23  1  0  0  0  0
 23 24  2  0  0  0  0
 24 19  1  0  0  0  0
 25 20  1  0  0  0  0
 26 23  1  0  0  0  0
 27 28  1  0  0  0  0
 28 30  1  0  0  0  0
 28 31  1  0  0  0  0
 29 28  1  0  0  0  0
 32 33  1  0  0  0  0
 33 43  1  0  0  0  0
 34 33  2  0  0  0  0
 34 36  1  0  0  0  0
 35 34  1  0  0  0  0
 36 37  2  0  0  0  0
 37 38  1  0  0  0  0
 38 39  1  0  0  0  0
 39 40  2  0  0  0  0
 41 40  1  0  0  0  0
 42 41  2  0  0  0  0
 43 38  2  0  0  0  0
 43 42  1  0  0  0  0
M  END
>  <minimizedAffinity>
-6.24657869

$$$$
