
 OpenBabel03272503503D

 39 42  0  0  1  0  0  0  0  0999 V2000
   33.1250   27.3980   45.8700 C   0  0  1  0  0  0  0  0  0  0  0  0
   33.9330   27.4890   47.1830 C   0  0  2  0  0  0  0  0  0  0  0  0
   33.8100   26.2510   47.7260 O   0  0  0  0  0  0  0  0  0  0  0  0
   34.0510   25.3880   46.6680 C   0  0  0  0  0  0  0  0  0  0  0  0
   33.4870   26.0090   45.4070 C   0  0  2  0  0  0  0  0  0  0  0  0
   33.4750   28.1900   45.1790 H   0  0  0  0  0  0  0  0  0  0  0  0
   34.9580   27.7550   46.8370 H   0  0  0  0  0  0  0  0  0  0  0  0
   35.1100   25.1010   46.5620 H   0  0  0  0  0  0  0  0  0  0  0  0
   33.4730   24.4600   46.8600 H   0  0  0  0  0  0  0  0  0  0  0  0
   32.5710   25.4870   45.0730 H   0  0  0  0  0  0  0  0  0  0  0  0
   31.7810   27.5930   46.1180 O   0  0  0  0  0  0  0  0  0  0  0  0
   31.4060   28.2900   45.5200 H   0  0  0  0  0  0  0  0  0  0  0  0
   33.3490   28.5220   47.8700 O   0  0  0  0  0  0  0  0  0  0  0  0
   35.3570   29.8500   46.7780 O   0  0  0  0  0  0  0  0  0  0  0  0
   34.1040   30.0090   47.6340 P   0  0  1  0  0  0  0  0  0  0  0  0
   33.0940   31.0390   46.7460 O   0  0  0  0  0  0  0  0  0  0  0  0
   32.3670   31.3020   47.3910 H   0  0  0  0  0  0  0  0  0  0  0  0
   34.4160   30.6560   49.1820 O   0  0  0  0  0  0  0  0  0  0  0  0
   35.6550   30.5190   49.7930 C   0  0  0  0  0  0  0  0  0  0  0  0
   35.9890   29.4910   50.7060 C   0  0  0  0  0  0  0  0  0  0  0  0
   37.2720   29.4850   51.2370 C   0  0  0  0  0  0  0  0  0  0  0  0
   38.1460   30.4710   50.8520 N   0  0  0  0  0  0  0  0  0  0  0  0
   37.7960   31.4450   49.9740 C   0  0  0  0  0  0  0  0  0  0  0  0
   36.5460   31.4720   49.4410 N   0  0  0  0  0  0  0  0  0  0  0  0
   35.2280   28.7860   50.9240 H   0  0  0  0  0  0  0  0  0  0  0  0
   37.5200   28.7130   51.9200 H   0  0  0  0  0  0  0  0  0  0  0  0
   38.4960   32.2140   49.6820 H   0  0  0  0  0  0  0  0  0  0  0  0
   34.4460   26.0560   44.4310 O   0  0  0  0  0  0  0  0  0  0  0  0
   34.5590   27.1060   43.5580 C   0  0  0  0  0  0  0  0  0  0  0  0
   35.1820   28.3150   43.6530 C   0  0  0  0  0  0  0  0  0  0  0  0
   35.6890   28.5020   44.5830 H   0  0  0  0  0  0  0  0  0  0  0  0
   35.1870   29.2590   42.6540 C   0  0  0  0  0  3  0  0  0  0  0  0
   34.5400   29.0260   41.4580 C   0  0  0  0  0  3  0  0  0  0  0  0
   33.8930   27.7970   41.3320 C   0  0  0  0  0  0  0  0  0  0  0  0
   33.2630   27.6170   40.1160 C   0  0  0  0  0  3  0  0  0  0  0  0
   32.5960   26.4370   39.8920 C   0  0  0  0  0  3  0  0  0  0  0  0
   32.5700   25.4700   40.8710 C   0  0  0  0  0  3  0  0  0  0  0  0
   33.2110   25.6840   42.0730 C   0  0  0  0  0  3  0  0  0  0  0  0
   33.8960   26.8480   42.3530 C   0  0  0  0  0  0  0  0  0  0  0  0
  1  6  1  6  0  0  0
  1 11  1  0  0  0  0
  1  2  1  0  0  0  0
  2  7  1  6  0  0  0
  2  3  1  0  0  0  0
  2 13  1  0  0  0  0
  4  9  1  0  0  0  0
  4  3  1  0  0  0  0
  5 10  1  6  0  0  0
  5  1  1  0  0  0  0
  5  4  1  0  0  0  0
  8  4  1  0  0  0  0
 12 11  1  0  0  0  0
 15 14  2  6  0  0  0
 15 13  1  0  0  0  0
 15 18  1  0  0  0  0
 16 17  1  0  0  0  0
 16 15  1  0  0  0  0
 18 19  1  0  0  0  0
 19 20  1  0  0  0  0
 20 25  1  0  0  0  0
 20 21  2  0  0  0  0
 21 26  1  0  0  0  0
 22 21  1  0  0  0  0
 23 22  2  0  0  0  0
 24 19  2  0  0  0  0
 24 23  1  0  0  0  0
 27 23  1  0  0  0  0
 28  5  1  0  0  0  0
 29 30  1  0  0  0  0
 29 28  1  0  0  0  0
 30 31  1  0  0  0  0
 32 30  2  0  0  0  0
 33 32  1  0  0  0  0
 34 33  2  0  0  0  0
 34 39  1  0  0  0  0
 35 34  1  0  0  0  0
 36 35  2  0  0  0  0
 36 37  1  0  0  0  0
 37 38  2  0  0  0  0
 38 39  1  0  0  0  0
 39 29  2  0  0  0  0
M  END
>  <minimizedAffinity>
-4.09344435

>  <minimizedRMSD>
2.42621112

$$$$
