
 OpenBabel03262521103D

 26 28  0  0  0  0  0  0  0  0999 V2000
   34.5370   28.8710   46.6420 O   0  0  0  0  0  0  0  0  0  0  0  0
   34.0570   28.8190   48.0700 P   0  0  1  0  0  0  0  0  0  0  0  0
   34.7770   27.5390   48.9370 O   0  0  0  0  0  0  0  0  0  0  0  0
   34.0810   26.9640   49.3360 H   0  0  0  0  0  0  0  0  0  0  0  0
   34.4670   30.2360   48.9540 O   0  0  0  0  0  0  0  0  0  0  0  0
   35.7380   30.4610   49.4500 C   0  0  0  0  0  0  0  0  0  0  0  0
   36.1930   30.0500   50.7200 C   0  0  0  0  0  0  0  0  0  0  0  0
   37.5060   30.3610   51.0560 C   0  0  0  0  0  0  0  0  0  0  0  0
   38.2820   31.0380   50.1640 N   0  0  0  0  0  0  0  0  0  0  0  0
   37.8050   31.4150   48.9530 C   0  0  0  0  0  0  0  0  0  0  0  0
   36.5310   31.1230   48.6020 N   0  0  0  0  0  0  0  0  0  0  0  0
   35.4560   29.5330   51.2870 H   0  0  0  0  0  0  0  0  0  0  0  0
   37.8120   30.0320   52.0260 H   0  0  0  0  0  0  0  0  0  0  0  0
   38.4920   31.9480   48.3090 H   0  0  0  0  0  0  0  0  0  0  0  0
   32.3790   28.6310   48.0380 O   0  0  0  0  0  0  0  0  0  0  0  0
   31.7090   27.5570   47.4660 C   0  0  0  0  0  0  0  0  0  0  0  0
   31.9880   26.2100   47.5700 C   0  0  0  0  0  0  0  0  0  0  0  0
   32.8430   25.9880   48.1810 H   0  0  0  0  0  0  0  0  0  0  0  0
   31.2000   25.2870   46.9210 C   0  0  0  0  0  0  0  0  0  0  0  0
   30.1230   25.6650   46.1600 C   0  0  0  0  0  0  0  0  0  0  0  0
   29.8230   27.0020   46.0400 C   0  0  0  0  0  0  0  0  0  0  0  0
   28.7330   27.3360   45.2660 C   0  0  0  0  0  0  0  0  0  0  0  0
   28.3950   28.6520   45.1170 C   0  0  0  0  0  0  0  0  0  0  0  0
   29.1520   29.6200   45.7450 C   0  0  0  0  0  0  0  0  0  0  0  0
   30.2340   29.2410   46.5110 C   0  0  0  0  0  0  0  0  0  0  0  0
   30.6120   27.9270   46.6890 C   0  0  0  0  0  0  0  0  0  0  0  0
  2  1  2  6  0  0  0
  2  3  1  0  0  0  0
  2  5  1  0  0  0  0
  3  4  1  0  0  0  0
  5  6  1  0  0  0  0
  6  7  1  0  0  0  0
  7  8  2  0  0  0  0
  7 12  1  0  0  0  0
  8 13  1  0  0  0  0
  9  8  1  0  0  0  0
 10  9  2  0  0  0  0
 11 10  1  0  0  0  0
 11  6  2  0  0  0  0
 14 10  1  0  0  0  0
 15  2  1  0  0  0  0
 16 17  1  0  0  0  0
 16 15  1  0  0  0  0
 17 18  1  0  0  0  0
 19 17  2  0  0  0  0
 20 19  1  0  0  0  0
 21 20  2  0  0  0  0
 21 26  1  0  0  0  0
 22 21  1  0  0  0  0
 23 22  2  0  0  0  0
 23 24  1  0  0  0  0
 24 25  2  0  0  0  0
 25 26  1  0  0  0  0
 26 16  2  0  0  0  0
M  END
>  <minimizedAffinity>
-4.06796646

>  <minimizedRMSD>
5.19641304

$$$$
