
 OpenBabel03272503243D

 34 37  0  0  1  0  0  0  0  0999 V2000
   37.1160   30.6720   48.2700 N   0  0  0  0  0  0  0  0  0  0  0  0
   37.4530   31.7960   47.4810 C   0  0  1  0  0  0  0  0  0  0  0  0
   38.3370   32.6550   48.3770 C   0  0  0  0  0  0  0  0  0  0  0  0
   38.4390   31.8400   49.6860 C   0  0  0  0  0  0  0  0  0  0  0  0
   38.2580   30.4490   49.1180 C   0  0  0  0  0  0  0  0  0  0  0  0
   36.4640   32.4210   47.5000 H   0  0  0  0  0  0  0  0  0  0  0  0
   37.9730   33.6660   48.5380 H   0  0  0  0  0  0  0  0  0  0  0  0
   39.3610   32.6030   47.9410 H   0  0  0  0  0  0  0  0  0  0  0  0
   39.3970   31.9900   50.1860 H   0  0  0  0  0  0  0  0  0  0  0  0
   37.5530   32.1490   50.2730 H   0  0  0  0  0  0  0  0  0  0  0  0
   38.0680   29.7840   49.9580 H   0  0  0  0  0  0  0  0  0  0  0  0
   39.1710   30.1900   48.5430 H   0  0  0  0  0  0  0  0  0  0  0  0
   35.8940   29.9400   48.2230 C   0  0  0  0  0  0  0  0  0  0  0  0
   34.8950   30.3480   47.3640 C   0  0  0  0  0  0  0  0  0  0  0  0
   33.7100   29.6130   47.2750 C   0  0  0  0  0  0  0  0  0  0  0  0
   33.6250   28.4930   48.0850 N   0  0  0  0  0  0  0  0  0  0  0  0
   34.6190   28.1240   48.9140 C   0  0  0  0  0  0  0  0  0  0  0  0
   35.7670   28.8510   48.9880 N   0  0  0  0  0  0  0  0  0  0  0  0
   34.9560   31.2170   46.7320 H   0  0  0  0  0  0  0  0  0  0  0  0
   32.9140   29.9090   46.6100 H   0  0  0  0  0  0  0  0  0  0  0  0
   34.4560   27.2360   49.5030 H   0  0  0  0  0  0  0  0  0  0  0  0
   37.8600   31.5990   46.1240 C   0  0  0  0  0  0  0  0  0  0  0  0
   38.3220   32.6210   45.5840 O   0  0  0  0  0  0  0  0  0  0  0  0
   37.8930   30.5470   45.1170 C   0  0  0  0  0  0  0  0  0  0  0  0
   39.0130   29.7860   44.8660 C   0  0  0  0  0  0  0  0  0  0  0  0
   39.9380   29.8350   45.4080 H   0  0  0  0  0  0  0  0  0  0  0  0
   39.1870   28.8530   43.8700 C   0  0  0  0  0  3  0  0  0  0  0  0
   38.1300   28.6480   43.0190 C   0  0  0  0  0  3  0  0  0  0  0  0
   36.9740   29.3650   43.1970 C   0  0  0  0  0  0  0  0  0  0  0  0
   35.9190   29.1290   42.3470 C   0  0  0  0  0  3  0  0  0  0  0  0
   34.7070   29.7730   42.4520 C   0  0  0  0  0  3  0  0  0  0  0  0
   34.6120   30.6980   43.4920 C   0  0  0  0  0  3  0  0  0  0  0  0
   35.6850   30.9130   44.3250 C   0  0  0  0  0  3  0  0  0  0  0  0
   36.8950   30.2730   44.2220 C   0  0  0  0  0  0  0  0  0  0  0  0
  1  5  1  0  0  0  0
  2  6  1  6  0  0  0
  2  1  1  0  0  0  0
  2  3  1  0  0  0  0
  3  7  1  0  0  0  0
  3  4  1  0  0  0  0
  4  9  1  0  0  0  0
  4 10  1  0  0  0  0
  5  4  1  0  0  0  0
  5 11  1  0  0  0  0
  8  3  1  0  0  0  0
 12  5  1  0  0  0  0
 13  1  1  0  0  0  0
 13 18  1  0  0  0  0
 14 13  2  0  0  0  0
 15 14  1  0  0  0  0
 15 16  2  0  0  0  0
 16 17  1  0  0  0  0
 17 18  2  0  0  0  0
 17 21  1  0  0  0  0
 19 14  1  0  0  0  0
 20 15  1  0  0  0  0
 22  2  1  0  0  0  0
 23 22  2  0  0  0  0
 24 22  1  0  0  0  0
 25 24  1  0  0  0  0
 25 26  1  0  0  0  0
 27 25  2  0  0  0  0
 28 29  2  0  0  0  0
 28 27  1  0  0  0  0
 29 34  1  0  0  0  0
 30 31  2  0  0  0  0
 30 29  1  0  0  0  0
 31 32  1  0  0  0  0
 32 33  2  0  0  0  0
 34 33  1  0  0  0  0
 34 24  2  0  0  0  0
M  END
>  <minimizedAffinity>
-5.1375308

>  <minimizedRMSD>
1.53408539

$$$$
