
 OpenBabel03262522243D

 34 37  0  0  0  0  0  0  0  0999 V2000
   37.1260   25.9970   33.0080 C   0  0  0  0  0  0  0  0  0  0  0  0
   37.8420   26.0710   34.2240 C   0  0  0  0  0  0  0  0  0  0  0  0
   37.7100   27.2170   34.9820 C   0  0  0  0  0  0  0  0  0  0  0  0
   36.9040   28.1850   34.5080 N   0  0  0  0  0  0  0  0  0  0  0  0
   36.2450   28.0930   33.3690 C   0  0  0  0  0  0  0  0  0  0  0  0
   36.3380   26.9860   32.5780 N   0  0  0  0  0  0  0  0  0  0  0  0
   37.1490   25.1480   32.3240 H   0  0  0  0  0  0  0  0  0  0  0  0
   38.2630   27.2320   35.8880 H   0  0  0  0  0  0  0  0  0  0  0  0
   38.5990   24.9590   34.4980 O   0  0  0  0  0  0  0  0  0  0  0  0
   38.5660   24.4710   35.8110 C   0  0  0  0  0  0  0  0  0  0  0  0
   37.6650   24.7910   36.7920 C   0  0  0  0  0  0  0  0  0  0  0  0
   37.7800   24.2220   38.0180 C   0  0  0  0  0  0  0  0  0  0  0  0
   38.8160   23.3230   38.2520 C   0  0  0  0  0  0  0  0  0  0  0  0
   39.7130   23.0150   37.2480 C   0  0  0  0  0  0  0  0  0  0  0  0
   39.5480   23.6140   36.0460 N   0  0  0  0  0  0  0  0  0  0  0  0
   36.8980   25.5020   36.5020 H   0  0  0  0  0  0  0  0  0  0  0  0
   37.0750   24.4710   38.7880 H   0  0  0  0  0  0  0  0  0  0  0  0
   38.9310   22.8540   39.2230 H   0  0  0  0  0  0  0  0  0  0  0  0
   40.8270   22.0410   37.5180 C   0  0  0  0  0  0  0  0  0  0  0  0
   40.5710   21.0260   37.1480 H   0  0  0  0  0  0  0  0  0  0  0  0
   41.0320   22.0910   38.5960 H   0  0  0  0  0  0  0  0  0  0  0  0
   41.7100   22.4370   36.9750 H   0  0  0  0  0  0  0  0  0  0  0  0
   35.2660   29.5880   33.0600 S   0  0  0  0  0  0  0  0  0  0  0  0
   34.9230   30.4700   34.5550 C   0  0  0  0  0  0  0  0  0  0  0  0
   35.9280   31.3540   34.9070 C   0  0  0  0  0  0  0  0  0  0  0  0
   36.8440   31.5290   34.3660 H   0  0  0  0  0  0  0  0  0  0  0  0
   35.8240   32.1360   36.0620 C   0  0  0  0  0  3  0  0  0  0  0  0
   34.6840   32.0010   36.8480 C   0  0  0  0  0  3  0  0  0  0  0  0
   33.6800   31.1100   36.4890 C   0  0  0  0  0  0  0  0  0  0  0  0
   32.5260   30.9480   37.2500 C   0  0  0  0  0  3  0  0  0  0  0  0
   31.5700   30.0440   36.8320 C   0  0  0  0  0  3  0  0  0  0  0  0
   31.7120   29.2890   35.6780 C   0  0  0  0  0  3  0  0  0  0  0  0
   32.8530   29.4310   34.9000 C   0  0  0  0  0  3  0  0  0  0  0  0
   33.7930   30.3360   35.3350 C   0  0  0  0  0  0  0  0  0  0  0  0
  1  2  1  0  0  0  0
  2  9  1  0  0  0  0
  2  3  2  0  0  0  0
  3  8  1  0  0  0  0
  4  3  1  0  0  0  0
  5  4  2  0  0  0  0
  6  1  2  0  0  0  0
  6  5  1  0  0  0  0
  7  1  1  0  0  0  0
  9 10  1  0  0  0  0
 10 15  2  0  0  0  0
 10 11  1  0  0  0  0
 11 12  2  0  0  0  0
 12 13  1  0  0  0  0
 12 17  1  0  0  0  0
 13 18  1  0  0  0  0
 14 19  1  0  0  0  0
 14 13  2  0  0  0  0
 15 14  1  0  0  0  0
 16 11  1  0  0  0  0
 19 21  1  0  0  0  0
 20 19  1  0  0  0  0
 22 19  1  0  0  0  0
 23  5  1  0  0  0  0
 23 24  1  0  0  0  0
 24 25  2  0  0  0  0
 24 34  1  0  0  0  0
 25 27  1  0  0  0  0
 26 25  1  0  0  0  0
 27 28  2  0  0  0  0
 29 28  1  0  0  0  0
 29 30  1  0  0  0  0
 31 30  2  0  0  0  0
 32 31  1  0  0  0  0
 33 34  1  0  0  0  0
 33 32  2  0  0  0  0
 34 29  2  0  0  0  0
M  END
>  <minimizedAffinity>
-6.81055212

$$$$

 OpenBabel03262522243D

 34 37  0  0  0  0  0  0  0  0999 V2000
   36.9840   25.3790   32.7580 C   0  0  0  0  0  0  0  0  0  0  0  0
   37.8370   25.4700   33.8820 C   0  0  0  0  0  0  0  0  0  0  0  0
   38.0080   26.7100   34.4630 C   0  0  0  0  0  0  0  0  0  0  0  0
   37.3480   27.7480   33.9170 N   0  0  0  0  0  0  0  0  0  0  0  0
   36.5570   27.6380   32.8670 C   0  0  0  0  0  0  0  0  0  0  0  0
   36.3500   26.4400   32.2510 N   0  0  0  0  0  0  0  0  0  0  0  0
   36.7700   24.4590   32.2140 H   0  0  0  0  0  0  0  0  0  0  0  0
   38.6550   26.7350   35.3040 H   0  0  0  0  0  0  0  0  0  0  0  0
   38.4000   24.2760   34.2580 O   0  0  0  0  0  0  0  0  0  0  0  0
   38.4850   24.0140   35.6310 C   0  0  0  0  0  0  0  0  0  0  0  0
   37.6540   24.4760   36.6170 C   0  0  0  0  0  0  0  0  0  0  0  0
   37.8830   24.1220   37.9060 C   0  0  0  0  0  0  0  0  0  0  0  0
   38.9630   23.2940   38.1990 C   0  0  0  0  0  0  0  0  0  0  0  0
   39.7880   22.8390   37.1890 C   0  0  0  0  0  0  0  0  0  0  0  0
   39.5100   23.2250   35.9230 N   0  0  0  0  0  0  0  0  0  0  0  0
   36.8450   25.1140   36.2780 H   0  0  0  0  0  0  0  0  0  0  0  0
   37.2330   24.4840   38.6810 H   0  0  0  0  0  0  0  0  0  0  0  0
   39.1690   22.9960   39.2210 H   0  0  0  0  0  0  0  0  0  0  0  0
   40.9500   21.9450   37.5230 C   0  0  0  0  0  0  0  0  0  0  0  0
   40.6980   20.8780   37.3480 H   0  0  0  0  0  0  0  0  0  0  0  0
   41.2370   22.1780   38.5570 H   0  0  0  0  0  0  0  0  0  0  0  0
   41.7750   22.2610   36.8510 H   0  0  0  0  0  0  0  0  0  0  0  0
   35.8440   29.2440   32.4170 S   0  0  0  0  0  0  0  0  0  0  0  0
   34.4560   29.6550   33.4350 C   0  0  0  0  0  0  0  0  0  0  0  0
   33.2640   29.1320   32.9660 C   0  0  0  0  0  0  0  0  0  0  0  0
   33.1340   28.5310   32.0800 H   0  0  0  0  0  0  0  0  0  0  0  0
   32.0640   29.3580   33.6480 C   0  0  0  0  0  3  0  0  0  0  0  0
   32.1000   30.1210   34.8110 C   0  0  0  0  0  3  0  0  0  0  0  0
   33.3020   30.6430   35.2750 C   0  0  0  0  0  0  0  0  0  0  0  0
   33.3770   31.4110   36.4330 C   0  0  0  0  0  3  0  0  0  0  0  0
   34.6040   31.8980   36.8350 C   0  0  0  0  0  3  0  0  0  0  0  0
   35.7720   31.6490   36.1290 C   0  0  0  0  0  3  0  0  0  0  0  0
   35.7250   30.8860   34.9710 C   0  0  0  0  0  3  0  0  0  0  0  0
   34.4920   30.4120   34.5880 C   0  0  0  0  0  0  0  0  0  0  0  0
  1  2  1  0  0  0  0
  2  9  1  0  0  0  0
  2  3  2  0  0  0  0
  3  8  1  0  0  0  0
  4  3  1  0  0  0  0
  5  4  2  0  0  0  0
  6  1  2  0  0  0  0
  6  5  1  0  0  0  0
  7  1  1  0  0  0  0
  9 10  1  0  0  0  0
 10 15  2  0  0  0  0
 10 11  1  0  0  0  0
 11 12  2  0  0  0  0
 12 13  1  0  0  0  0
 12 17  1  0  0  0  0
 13 18  1  0  0  0  0
 14 19  1  0  0  0  0
 14 13  2  0  0  0  0
 15 14  1  0  0  0  0
 16 11  1  0  0  0  0
 19 21  1  0  0  0  0
 20 19  1  0  0  0  0
 22 19  1  0  0  0  0
 23  5  1  0  0  0  0
 23 24  1  0  0  0  0
 24 34  1  0  0  0  0
 25 24  2  0  0  0  0
 25 27  1  0  0  0  0
 26 25  1  0  0  0  0
 27 28  2  0  0  0  0
 28 29  1  0  0  0  0
 29 30  1  0  0  0  0
 30 31  2  0  0  0  0
 32 31  1  0  0  0  0
 33 32  2  0  0  0  0
 34 33  1  0  0  0  0
 34 29  2  0  0  0  0
M  END
>  <minimizedAffinity>
-6.69135666

$$$$

 OpenBabel03262522243D

 34 37  0  0  0  0  0  0  0  0999 V2000
   37.5940   25.9350   33.1120 C   0  0  0  0  0  0  0  0  0  0  0  0
   38.2310   26.2090   34.3440 C   0  0  0  0  0  0  0  0  0  0  0  0
   37.8310   27.3290   35.0420 C   0  0  0  0  0  0  0  0  0  0  0  0
   36.8580   28.0850   34.5000 N   0  0  0  0  0  0  0  0  0  0  0  0
   36.2780   27.8100   33.3480 C   0  0  0  0  0  0  0  0  0  0  0  0
   36.6320   26.7170   32.6130 N   0  0  0  0  0  0  0  0  0  0  0  0
   37.8220   25.0850   32.4690 H   0  0  0  0  0  0  0  0  0  0  0  0
   38.3340   27.4970   35.9620 H   0  0  0  0  0  0  0  0  0  0  0  0
   39.1940   25.2950   34.6920 O   0  0  0  0  0  0  0  0  0  0  0  0
   39.0200   24.6120   35.9030 C   0  0  0  0  0  0  0  0  0  0  0  0
   38.0360   24.8140   36.8340 C   0  0  0  0  0  0  0  0  0  0  0  0
   38.0150   24.0590   37.9610 C   0  0  0  0  0  0  0  0  0  0  0  0
   38.9990   23.0910   38.1450 C   0  0  0  0  0  0  0  0  0  0  0  0
   39.9810   22.9050   37.1920 C   0  0  0  0  0  0  0  0  0  0  0  0
   39.9510   23.6880   36.0900 N   0  0  0  0  0  0  0  0  0  0  0  0
   37.3210   25.5930   36.5900 H   0  0  0  0  0  0  0  0  0  0  0  0
   37.2450   24.2160   38.6920 H   0  0  0  0  0  0  0  0  0  0  0  0
   39.0060   22.4740   39.0360 H   0  0  0  0  0  0  0  0  0  0  0  0
   41.0370   21.8550   37.4070 C   0  0  0  0  0  0  0  0  0  0  0  0
   40.7910   20.9210   36.8600 H   0  0  0  0  0  0  0  0  0  0  0  0
   41.1360   21.7290   38.4940 H   0  0  0  0  0  0  0  0  0  0  0  0
   41.9790   22.2930   37.0180 H   0  0  0  0  0  0  0  0  0  0  0  0
   35.0180   29.0490   32.9410 S   0  0  0  0  0  0  0  0  0  0  0  0
   35.6930   30.6850   32.9050 C   0  0  0  0  0  0  0  0  0  0  0  0
   36.2290   31.0260   31.6750 C   0  0  0  0  0  0  0  0  0  0  0  0
   36.2600   30.4010   30.7960 H   0  0  0  0  0  0  0  0  0  0  0  0
   36.8060   32.2820   31.4680 C   0  0  0  0  0  3  0  0  0  0  0  0
   36.8270   33.1810   32.5290 C   0  0  0  0  0  3  0  0  0  0  0  0
   36.2870   32.8310   33.7610 C   0  0  0  0  0  0  0  0  0  0  0  0
   36.2900   33.7030   34.8450 C   0  0  0  0  0  3  0  0  0  0  0  0
   35.7370   33.2890   36.0400 C   0  0  0  0  0  3  0  0  0  0  0  0
   35.1730   32.0320   36.2040 C   0  0  0  0  0  3  0  0  0  0  0  0
   35.1570   31.1430   35.1390 C   0  0  0  0  0  3  0  0  0  0  0  0
   35.7140   31.5760   33.9580 C   0  0  0  0  0  0  0  0  0  0  0  0
  1  2  1  0  0  0  0
  2  9  1  0  0  0  0
  2  3  2  0  0  0  0
  3  8  1  0  0  0  0
  4  3  1  0  0  0  0
  5  4  2  0  0  0  0
  6  1  2  0  0  0  0
  6  5  1  0  0  0  0
  7  1  1  0  0  0  0
  9 10  1  0  0  0  0
 10 15  2  0  0  0  0
 10 11  1  0  0  0  0
 11 12  2  0  0  0  0
 12 13  1  0  0  0  0
 12 17  1  0  0  0  0
 13 18  1  0  0  0  0
 14 19  1  0  0  0  0
 14 13  2  0  0  0  0
 15 14  1  0  0  0  0
 16 11  1  0  0  0  0
 19 21  1  0  0  0  0
 20 19  1  0  0  0  0
 22 19  1  0  0  0  0
 23  5  1  0  0  0  0
 24 23  1  0  0  0  0
 24 34  1  0  0  0  0
 25 24  2  0  0  0  0
 26 25  1  0  0  0  0
 27 25  1  0  0  0  0
 27 28  2  0  0  0  0
 28 29  1  0  0  0  0
 29 34  2  0  0  0  0
 29 30  1  0  0  0  0
 30 31  2  0  0  0  0
 31 32  1  0  0  0  0
 33 32  2  0  0  0  0
 34 33  1  0  0  0  0
M  END
>  <minimizedAffinity>
-6.40173674

$$$$

 OpenBabel03262522243D

 34 37  0  0  0  0  0  0  0  0999 V2000
   38.0750   27.0990   32.6160 C   0  0  0  0  0  0  0  0  0  0  0  0
   38.2050   26.6940   33.9640 C   0  0  0  0  0  0  0  0  0  0  0  0
   37.3790   27.2840   34.8980 C   0  0  0  0  0  0  0  0  0  0  0  0
   36.5030   28.2070   34.4570 N   0  0  0  0  0  0  0  0  0  0  0  0
   36.4000   28.5690   33.1940 C   0  0  0  0  0  0  0  0  0  0  0  0
   37.1900   28.0220   32.2270 N   0  0  0  0  0  0  0  0  0  0  0  0
   38.6690   26.7090   31.7890 H   0  0  0  0  0  0  0  0  0  0  0  0
   37.5080   26.9510   35.8980 H   0  0  0  0  0  0  0  0  0  0  0  0
   39.1670   25.7370   34.1720 O   0  0  0  0  0  0  0  0  0  0  0  0
   38.7450   24.5110   34.7030 C   0  0  0  0  0  0  0  0  0  0  0  0
   38.2020   23.4550   34.0220 C   0  0  0  0  0  0  0  0  0  0  0  0
   37.8460   22.3340   34.6980 C   0  0  0  0  0  0  0  0  0  0  0  0
   38.0410   22.2830   36.0750 C   0  0  0  0  0  0  0  0  0  0  0  0
   38.5910   23.3610   36.7420 C   0  0  0  0  0  0  0  0  0  0  0  0
   38.9260   24.4510   36.0150 N   0  0  0  0  0  0  0  0  0  0  0  0
   38.0950   23.6010   32.9520 H   0  0  0  0  0  0  0  0  0  0  0  0
   37.4200   21.5050   34.1660 H   0  0  0  0  0  0  0  0  0  0  0  0
   37.7650   21.4000   36.6400 H   0  0  0  0  0  0  0  0  0  0  0  0
   38.7950   23.2900   38.2300 C   0  0  0  0  0  0  0  0  0  0  0  0
   39.8430   23.0230   38.4790 H   0  0  0  0  0  0  0  0  0  0  0  0
   38.0450   22.5860   38.6150 H   0  0  0  0  0  0  0  0  0  0  0  0
   38.5540   24.3030   38.6150 H   0  0  0  0  0  0  0  0  0  0  0  0
   35.1170   29.8330   32.9800 S   0  0  0  0  0  0  0  0  0  0  0  0
   34.8550   30.7600   34.4650 C   0  0  0  0  0  0  0  0  0  0  0  0
   35.8070   31.7430   34.6690 C   0  0  0  0  0  0  0  0  0  0  0  0
   36.6430   31.9660   34.0240 H   0  0  0  0  0  0  0  0  0  0  0  0
   35.7540   32.5720   35.7940 C   0  0  0  0  0  3  0  0  0  0  0  0
   34.7190   32.3820   36.7040 C   0  0  0  0  0  3  0  0  0  0  0  0
   33.7660   31.3920   36.4930 C   0  0  0  0  0  0  0  0  0  0  0  0
   32.7170   31.1730   37.3800 C   0  0  0  0  0  3  0  0  0  0  0  0
   31.8080   30.1710   37.1070 C   0  0  0  0  0  3  0  0  0  0  0  0
   31.8960   29.3720   35.9770 C   0  0  0  0  0  3  0  0  0  0  0  0
   32.9320   29.5690   35.0760 C   0  0  0  0  0  3  0  0  0  0  0  0
   33.8280   30.5710   35.3670 C   0  0  0  0  0  0  0  0  0  0  0  0
  1  2  1  0  0  0  0
  2  9  1  0  0  0  0
  2  3  2  0  0  0  0
  3  8  1  0  0  0  0
  4  3  1  0  0  0  0
  5  4  2  0  0  0  0
  6  1  2  0  0  0  0
  6  5  1  0  0  0  0
  7  1  1  0  0  0  0
  9 10  1  0  0  0  0
 10 15  1  0  0  0  0
 11 12  1  0  0  0  0
 11 10  2  0  0  0  0
 12 13  2  0  0  0  0
 13 18  1  0  0  0  0
 13 14  1  0  0  0  0
 14 19  1  0  0  0  0
 15 14  2  0  0  0  0
 16 11  1  0  0  0  0
 17 12  1  0  0  0  0
 19 20  1  0  0  0  0
 19 21  1  0  0  0  0
 19 22  1  0  0  0  0
 23  5  1  0  0  0  0
 23 24  1  0  0  0  0
 24 25  2  0  0  0  0
 24 34  1  0  0  0  0
 25 27  1  0  0  0  0
 26 25  1  0  0  0  0
 27 28  2  0  0  0  0
 29 28  1  0  0  0  0
 29 30  1  0  0  0  0
 31 30  2  0  0  0  0
 32 31  1  0  0  0  0
 33 34  1  0  0  0  0
 33 32  2  0  0  0  0
 34 29  2  0  0  0  0
M  END
>  <minimizedAffinity>
-6.17900896

$$$$

 OpenBabel03262522243D

 34 37  0  0  0  0  0  0  0  0999 V2000
   37.5630   27.1010   34.7210 C   0  0  0  0  0  0  0  0  0  0  0  0
   38.3100   26.6180   33.6220 C   0  0  0  0  0  0  0  0  0  0  0  0
   37.9540   27.0500   32.3610 C   0  0  0  0  0  0  0  0  0  0  0  0
   36.9190   27.9050   32.2660 N   0  0  0  0  0  0  0  0  0  0  0  0
   36.2370   28.3410   33.3070 C   0  0  0  0  0  0  0  0  0  0  0  0
   36.5410   27.9490   34.5760 N   0  0  0  0  0  0  0  0  0  0  0  0
   37.7450   26.8330   35.7620 H   0  0  0  0  0  0  0  0  0  0  0  0
   38.5400   26.6640   31.5640 H   0  0  0  0  0  0  0  0  0  0  0  0
   39.3210   25.7550   33.9660 O   0  0  0  0  0  0  0  0  0  0  0  0
   38.9480   24.4970   34.4570 C   0  0  0  0  0  0  0  0  0  0  0  0
   38.2150   23.5390   33.8080 C   0  0  0  0  0  0  0  0  0  0  0  0
   37.9430   22.3670   34.4350 C   0  0  0  0  0  0  0  0  0  0  0  0
   38.4160   22.1650   35.7290 C   0  0  0  0  0  0  0  0  0  0  0  0
   39.1530   23.1460   36.3630 C   0  0  0  0  0  0  0  0  0  0  0  0
   39.3930   24.2930   35.6880 N   0  0  0  0  0  0  0  0  0  0  0  0
   37.8970   23.8000   32.8050 H   0  0  0  0  0  0  0  0  0  0  0  0
   37.3680   21.6140   33.9290 H   0  0  0  0  0  0  0  0  0  0  0  0
   38.2120   21.2380   36.2530 H   0  0  0  0  0  0  0  0  0  0  0  0
   39.6570   22.9110   37.7600 C   0  0  0  0  0  0  0  0  0  0  0  0
   40.7160   22.5810   37.7550 H   0  0  0  0  0  0  0  0  0  0  0  0
   38.9640   22.1980   38.2270 H   0  0  0  0  0  0  0  0  0  0  0  0
   39.5600   23.8860   38.2820 H   0  0  0  0  0  0  0  0  0  0  0  0
   34.9170   29.4740   32.7920 S   0  0  0  0  0  0  0  0  0  0  0  0
   33.8440   29.8870   34.1380 C   0  0  0  0  0  0  0  0  0  0  0  0
   32.6250   29.2330   34.0830 C   0  0  0  0  0  0  0  0  0  0  0  0
   32.3080   28.5350   33.3240 H   0  0  0  0  0  0  0  0  0  0  0  0
   31.6540   29.4410   35.0670 C   0  0  0  0  0  3  0  0  0  0  0  0
   31.9450   30.3230   36.1040 C   0  0  0  0  0  3  0  0  0  0  0  0
   33.1710   30.9760   36.1520 C   0  0  0  0  0  0  0  0  0  0  0  0
   33.4980   31.8630   37.1720 C   0  0  0  0  0  3  0  0  0  0  0  0
   34.7340   32.4770   37.1570 C   0  0  0  0  0  3  0  0  0  0  0  0
   35.6700   32.2410   36.1600 C   0  0  0  0  0  3  0  0  0  0  0  0
   35.3700   31.3610   35.1310 C   0  0  0  0  0  3  0  0  0  0  0  0
   34.1330   30.7610   35.1660 C   0  0  0  0  0  0  0  0  0  0  0  0
  1  7  1  0  0  0  0
  2  9  1  0  0  0  0
  2  1  2  0  0  0  0
  3  2  1  0  0  0  0
  4  3  2  0  0  0  0
  4  5  1  0  0  0  0
  5  6  2  0  0  0  0
  6  1  1  0  0  0  0
  8  3  1  0  0  0  0
  9 10  1  0  0  0  0
 10 15  1  0  0  0  0
 11 12  1  0  0  0  0
 11 10  2  0  0  0  0
 12 13  2  0  0  0  0
 13 18  1  0  0  0  0
 13 14  1  0  0  0  0
 14 19  1  0  0  0  0
 15 14  2  0  0  0  0
 16 11  1  0  0  0  0
 17 12  1  0  0  0  0
 19 21  1  0  0  0  0
 19 22  1  0  0  0  0
 20 19  1  0  0  0  0
 23  5  1  0  0  0  0
 23 24  1  0  0  0  0
 24 34  1  0  0  0  0
 25 24  2  0  0  0  0
 25 27  1  0  0  0  0
 26 25  1  0  0  0  0
 27 28  2  0  0  0  0
 28 29  1  0  0  0  0
 29 30  1  0  0  0  0
 31 30  2  0  0  0  0
 32 31  1  0  0  0  0
 33 34  1  0  0  0  0
 33 32  2  0  0  0  0
 34 29  2  0  0  0  0
M  END
>  <minimizedAffinity>
-6.06013823

$$$$

 OpenBabel03262522243D

 34 37  0  0  0  0  0  0  0  0999 V2000
   36.9370   27.3360   32.9540 C   0  0  0  0  0  0  0  0  0  0  0  0
   37.1550   27.0140   31.5950 C   0  0  0  0  0  0  0  0  0  0  0  0
   36.6200   27.8520   30.6390 C   0  0  0  0  0  0  0  0  0  0  0  0
   35.9270   28.9230   31.0690 N   0  0  0  0  0  0  0  0  0  0  0  0
   35.7360   29.2030   32.3430 C   0  0  0  0  0  0  0  0  0  0  0  0
   36.2400   28.4110   33.3320 N   0  0  0  0  0  0  0  0  0  0  0  0
   37.3060   26.7540   33.7980 H   0  0  0  0  0  0  0  0  0  0  0  0
   36.8080   27.5740   29.6310 H   0  0  0  0  0  0  0  0  0  0  0  0
   37.8930   25.8720   31.4010 O   0  0  0  0  0  0  0  0  0  0  0  0
   37.2470   24.6490   31.6210 C   0  0  0  0  0  0  0  0  0  0  0  0
   36.0930   24.2030   31.0340 C   0  0  0  0  0  0  0  0  0  0  0  0
   35.6010   22.9830   31.3660 C   0  0  0  0  0  0  0  0  0  0  0  0
   36.2850   22.2080   32.2990 C   0  0  0  0  0  0  0  0  0  0  0  0
   37.4470   22.6780   32.8780 C   0  0  0  0  0  0  0  0  0  0  0  0
   37.8890   23.9020   32.5080 N   0  0  0  0  0  0  0  0  0  0  0  0
   35.6430   24.8860   30.3220 H   0  0  0  0  0  0  0  0  0  0  0  0
   34.6970   22.6310   30.9070 H   0  0  0  0  0  0  0  0  0  0  0  0
   35.9140   21.2300   32.5820 H   0  0  0  0  0  0  0  0  0  0  0  0
   38.1730   21.8290   33.8850 C   0  0  0  0  0  0  0  0  0  0  0  0
   39.0180   21.2840   33.4150 H   0  0  0  0  0  0  0  0  0  0  0  0
   37.4180   21.1790   34.3480 H   0  0  0  0  0  0  0  0  0  0  0  0
   38.5500   22.5330   34.6550 H   0  0  0  0  0  0  0  0  0  0  0  0
   34.7570   30.7180   32.5380 S   0  0  0  0  0  0  0  0  0  0  0  0
   34.7390   31.2770   34.2170 C   0  0  0  0  0  0  0  0  0  0  0  0
   35.8340   32.0600   34.5410 C   0  0  0  0  0  0  0  0  0  0  0  0
   36.6420   32.3330   33.8820 H   0  0  0  0  0  0  0  0  0  0  0  0
   35.9820   32.5880   35.8280 C   0  0  0  0  0  3  0  0  0  0  0  0
   35.0000   32.3060   36.7730 C   0  0  0  0  0  3  0  0  0  0  0  0
   33.9050   31.5190   36.4390 C   0  0  0  0  0  0  0  0  0  0  0  0
   32.9040   31.2160   37.3570 C   0  0  0  0  0  3  0  0  0  0  0  0
   31.8440   30.4270   36.9570 C   0  0  0  0  0  3  0  0  0  0  0  0
   31.7350   29.9240   35.6690 C   0  0  0  0  0  3  0  0  0  0  0  0
   32.7190   30.2110   34.7340 C   0  0  0  0  0  3  0  0  0  0  0  0
   33.7660   30.9970   35.1540 C   0  0  0  0  0  0  0  0  0  0  0  0
  1  6  1  0  0  0  0
  1  7  1  0  0  0  0
  2  1  2  0  0  0  0
  3  4  2  0  0  0  0
  3  2  1  0  0  0  0
  4  5  1  0  0  0  0
  5 23  1  0  0  0  0
  5  6  2  0  0  0  0
  8  3  1  0  0  0  0
  9  2  1  0  0  0  0
  9 10  1  0  0  0  0
 10 15  1  0  0  0  0
 11 12  1  0  0  0  0
 11 10  2  0  0  0  0
 12 13  2  0  0  0  0
 13 18  1  0  0  0  0
 13 14  1  0  0  0  0
 14 19  1  0  0  0  0
 15 14  2  0  0  0  0
 16 11  1  0  0  0  0
 17 12  1  0  0  0  0
 19 21  1  0  0  0  0
 19 22  1  0  0  0  0
 20 19  1  0  0  0  0
 23 24  1  0  0  0  0
 24 25  2  0  0  0  0
 24 34  1  0  0  0  0
 25 27  1  0  0  0  0
 26 25  1  0  0  0  0
 27 28  2  0  0  0  0
 29 28  1  0  0  0  0
 29 30  1  0  0  0  0
 31 30  2  0  0  0  0
 32 31  1  0  0  0  0
 33 34  1  0  0  0  0
 33 32  2  0  0  0  0
 34 29  2  0  0  0  0
M  END
>  <minimizedAffinity>
-5.93499422

$$$$

 OpenBabel03262522243D

 34 37  0  0  0  0  0  0  0  0999 V2000
   37.7480   26.9000   34.8650 C   0  0  0  0  0  0  0  0  0  0  0  0
   38.3000   26.3270   33.6970 C   0  0  0  0  0  0  0  0  0  0  0  0
   37.8700   26.8080   32.4770 C   0  0  0  0  0  0  0  0  0  0  0  0
   36.9540   27.7940   32.4860 N   0  0  0  0  0  0  0  0  0  0  0  0
   36.4530   28.3130   33.5900 C   0  0  0  0  0  0  0  0  0  0  0  0
   36.8390   27.8780   34.8230 N   0  0  0  0  0  0  0  0  0  0  0  0
   38.0050   26.6060   35.8830 H   0  0  0  0  0  0  0  0  0  0  0  0
   38.3100   26.3510   31.6250 H   0  0  0  0  0  0  0  0  0  0  0  0
   39.2180   25.3350   33.9380 O   0  0  0  0  0  0  0  0  0  0  0  0
   38.7620   24.1890   34.6010 C   0  0  0  0  0  0  0  0  0  0  0  0
   38.9630   23.8560   35.9140 C   0  0  0  0  0  0  0  0  0  0  0  0
   38.4470   22.6980   36.3970 C   0  0  0  0  0  0  0  0  0  0  0  0
   37.7220   21.8710   35.5430 C   0  0  0  0  0  0  0  0  0  0  0  0
   37.5320   22.2280   34.2230 C   0  0  0  0  0  0  0  0  0  0  0  0
   38.0700   23.3940   33.7980 N   0  0  0  0  0  0  0  0  0  0  0  0
   39.5410   24.5710   36.4890 H   0  0  0  0  0  0  0  0  0  0  0  0
   38.6030   22.4340   37.4260 H   0  0  0  0  0  0  0  0  0  0  0  0
   37.2990   20.9400   35.9030 H   0  0  0  0  0  0  0  0  0  0  0  0
   36.7470   21.3240   33.3130 C   0  0  0  0  0  0  0  0  0  0  0  0
   35.6960   21.6680   33.2140 H   0  0  0  0  0  0  0  0  0  0  0  0
   36.8520   20.3070   33.7160 H   0  0  0  0  0  0  0  0  0  0  0  0
   37.2600   21.3660   32.3310 H   0  0  0  0  0  0  0  0  0  0  0  0
   35.2480   29.6140   33.2100 S   0  0  0  0  0  0  0  0  0  0  0  0
   34.8200   30.5530   34.6480 C   0  0  0  0  0  0  0  0  0  0  0  0
   35.7970   31.4620   35.0150 C   0  0  0  0  0  0  0  0  0  0  0  0
   36.7400   31.6240   34.5160 H   0  0  0  0  0  0  0  0  0  0  0  0
   35.6260   32.2890   36.1300 C   0  0  0  0  0  3  0  0  0  0  0  0
   34.4470   32.1740   36.8600 C   0  0  0  0  0  3  0  0  0  0  0  0
   33.4700   31.2590   36.4840 C   0  0  0  0  0  0  0  0  0  0  0  0
   32.2790   31.1160   37.1900 C   0  0  0  0  0  3  0  0  0  0  0  0
   31.3540   30.1870   36.7600 C   0  0  0  0  0  3  0  0  0  0  0  0
   31.5630   29.3860   35.6470 C   0  0  0  0  0  3  0  0  0  0  0  0
   32.7420   29.5080   34.9260 C   0  0  0  0  0  3  0  0  0  0  0  0
   33.6510   30.4400   35.3710 C   0  0  0  0  0  0  0  0  0  0  0  0
  1  7  1  0  0  0  0
  2  9  1  0  0  0  0
  2  1  2  0  0  0  0
  3  4  2  0  0  0  0
  3  2  1  0  0  0  0
  4  5  1  0  0  0  0
  5  6  2  0  0  0  0
  6  1  1  0  0  0  0
  8  3  1  0  0  0  0
  9 10  1  0  0  0  0
 10 11  1  0  0  0  0
 11 12  2  0  0  0  0
 11 16  1  0  0  0  0
 12 17  1  0  0  0  0
 13 18  1  0  0  0  0
 13 12  1  0  0  0  0
 14 13  2  0  0  0  0
 15 14  1  0  0  0  0
 15 10  2  0  0  0  0
 19 21  1  0  0  0  0
 19 14  1  0  0  0  0
 20 19  1  0  0  0  0
 22 19  1  0  0  0  0
 23  5  1  0  0  0  0
 23 24  1  0  0  0  0
 24 25  2  0  0  0  0
 24 34  1  0  0  0  0
 25 27  1  0  0  0  0
 26 25  1  0  0  0  0
 27 28  2  0  0  0  0
 29 28  1  0  0  0  0
 29 30  1  0  0  0  0
 31 30  2  0  0  0  0
 32 31  1  0  0  0  0
 33 34  1  0  0  0  0
 33 32  2  0  0  0  0
 34 29  2  0  0  0  0
M  END
>  <minimizedAffinity>
-5.93451834

$$$$

 OpenBabel03262522243D

 34 37  0  0  0  0  0  0  0  0999 V2000
   36.9700   26.2710   32.7130 C   0  0  0  0  0  0  0  0  0  0  0  0
   37.4180   26.1090   34.0440 C   0  0  0  0  0  0  0  0  0  0  0  0
   37.1770   27.1340   34.9350 C   0  0  0  0  0  0  0  0  0  0  0  0
   36.5290   28.2190   34.4730 N   0  0  0  0  0  0  0  0  0  0  0  0
   36.1200   28.3480   33.2260 C   0  0  0  0  0  0  0  0  0  0  0  0
   36.3310   27.3690   32.3000 N   0  0  0  0  0  0  0  0  0  0  0  0
   37.1020   25.5350   31.9190 H   0  0  0  0  0  0  0  0  0  0  0  0
   37.5290   26.9710   35.9240 H   0  0  0  0  0  0  0  0  0  0  0  0
   38.0540   24.9150   34.2800 O   0  0  0  0  0  0  0  0  0  0  0  0
   39.4340   24.9620   34.5170 C   0  0  0  0  0  0  0  0  0  0  0  0
   40.3220   25.9000   34.0620 C   0  0  0  0  0  0  0  0  0  0  0  0
   41.6340   25.7940   34.3880 C   0  0  0  0  0  0  0  0  0  0  0  0
   42.0500   24.7290   35.1820 C   0  0  0  0  0  0  0  0  0  0  0  0
   41.1370   23.7950   35.6300 C   0  0  0  0  0  0  0  0  0  0  0  0
   39.8430   23.9530   35.2720 N   0  0  0  0  0  0  0  0  0  0  0  0
   39.8910   26.6870   33.4520 H   0  0  0  0  0  0  0  0  0  0  0  0
   42.3320   26.5290   34.0320 H   0  0  0  0  0  0  0  0  0  0  0  0
   43.0930   24.6200   35.4570 H   0  0  0  0  0  0  0  0  0  0  0  0
   41.6030   22.6500   36.4860 C   0  0  0  0  0  0  0  0  0  0  0  0
   41.4250   22.8550   37.5630 H   0  0  0  0  0  0  0  0  0  0  0  0
   42.6570   22.4750   36.2290 H   0  0  0  0  0  0  0  0  0  0  0  0
   41.0130   21.7700   36.1590 H   0  0  0  0  0  0  0  0  0  0  0  0
   35.2890   29.9400   32.9730 S   0  0  0  0  0  0  0  0  0  0  0  0
   34.9480   30.7530   34.5080 C   0  0  0  0  0  0  0  0  0  0  0  0
   35.9110   31.6840   34.8570 C   0  0  0  0  0  0  0  0  0  0  0  0
   36.7970   31.9290   34.2920 H   0  0  0  0  0  0  0  0  0  0  0  0
   35.8020   32.4210   36.0400 C   0  0  0  0  0  3  0  0  0  0  0  0
   34.6980   32.1950   36.8570 C   0  0  0  0  0  3  0  0  0  0  0  0
   33.7360   31.2590   36.5000 C   0  0  0  0  0  0  0  0  0  0  0  0
   32.6200   31.0060   37.2920 C   0  0  0  0  0  3  0  0  0  0  0  0
   31.7030   30.0610   36.8750 C   0  0  0  0  0  3  0  0  0  0  0  0
   31.8500   29.3520   35.6920 C   0  0  0  0  0  3  0  0  0  0  0  0
   32.9530   29.5850   34.8840 C   0  0  0  0  0  3  0  0  0  0  0  0
   33.8540   30.5290   35.3180 C   0  0  0  0  0  0  0  0  0  0  0  0
  1  2  1  0  0  0  0
  2  9  1  0  0  0  0
  2  3  2  0  0  0  0
  3  8  1  0  0  0  0
  4  3  1  0  0  0  0
  5  4  2  0  0  0  0
  6  1  2  0  0  0  0
  6  5  1  0  0  0  0
  7  1  1  0  0  0  0
  9 10  1  0  0  0  0
 10 15  1  0  0  0  0
 11 12  1  0  0  0  0
 11 10  2  0  0  0  0
 12 13  2  0  0  0  0
 13 18  1  0  0  0  0
 13 14  1  0  0  0  0
 14 19  1  0  0  0  0
 15 14  2  0  0  0  0
 16 11  1  0  0  0  0
 17 12  1  0  0  0  0
 19 20  1  0  0  0  0
 21 19  1  0  0  0  0
 22 19  1  0  0  0  0
 23  5  1  0  0  0  0
 23 24  1  0  0  0  0
 24 25  2  0  0  0  0
 24 34  1  0  0  0  0
 25 27  1  0  0  0  0
 26 25  1  0  0  0  0
 27 28  2  0  0  0  0
 29 28  1  0  0  0  0
 29 30  1  0  0  0  0
 31 30  2  0  0  0  0
 32 31  1  0  0  0  0
 33 34  1  0  0  0  0
 33 32  2  0  0  0  0
 34 29  2  0  0  0  0
M  END
>  <minimizedAffinity>
-5.93248892

$$$$

 OpenBabel03262522243D

 34 37  0  0  0  0  0  0  0  0999 V2000
   37.5650   27.5140   33.7350 C   0  0  0  0  0  0  0  0  0  0  0  0
   36.6630   27.6210   32.6510 C   0  0  0  0  0  0  0  0  0  0  0  0
   36.2910   26.4600   32.0050 C   0  0  0  0  0  0  0  0  0  0  0  0
   36.8120   25.3040   32.4550 N   0  0  0  0  0  0  0  0  0  0  0  0
   37.6520   25.2290   33.4680 C   0  0  0  0  0  0  0  0  0  0  0  0
   38.0580   26.3420   34.1440 N   0  0  0  0  0  0  0  0  0  0  0  0
   37.9340   28.3550   34.3220 H   0  0  0  0  0  0  0  0  0  0  0  0
   35.6120   26.5850   31.1980 H   0  0  0  0  0  0  0  0  0  0  0  0
   36.2670   28.9060   32.3760 O   0  0  0  0  0  0  0  0  0  0  0  0
   35.3120   29.4760   33.2270 C   0  0  0  0  0  0  0  0  0  0  0  0
   35.5370   30.3440   34.2620 C   0  0  0  0  0  0  0  0  0  0  0  0
   34.4880   30.8030   34.9910 C   0  0  0  0  0  0  0  0  0  0  0  0
   33.2030   30.3780   34.6690 C   0  0  0  0  0  0  0  0  0  0  0  0
   32.9990   29.5020   33.6210 C   0  0  0  0  0  0  0  0  0  0  0  0
   34.0830   29.0790   32.9310 N   0  0  0  0  0  0  0  0  0  0  0  0
   36.5760   30.6100   34.4260 H   0  0  0  0  0  0  0  0  0  0  0  0
   34.6620   31.4840   35.8030 H   0  0  0  0  0  0  0  0  0  0  0  0
   32.3470   30.7290   35.2360 H   0  0  0  0  0  0  0  0  0  0  0  0
   31.6040   29.0530   33.2870 C   0  0  0  0  0  0  0  0  0  0  0  0
   31.1840   29.6410   32.4430 H   0  0  0  0  0  0  0  0  0  0  0  0
   31.0220   29.1190   34.2160 H   0  0  0  0  0  0  0  0  0  0  0  0
   31.6920   27.9840   33.0040 H   0  0  0  0  0  0  0  0  0  0  0  0
   38.1410   23.5110   33.7840 S   0  0  0  0  0  0  0  0  0  0  0  0
   38.6820   23.2790   35.4540 C   0  0  0  0  0  0  0  0  0  0  0  0
   37.8030   23.7990   36.3880 C   0  0  0  0  0  0  0  0  0  0  0  0
   36.8720   24.3020   36.1790 H   0  0  0  0  0  0  0  0  0  0  0  0
   38.0720   23.7040   37.7570 C   0  0  0  0  0  3  0  0  0  0  0  0
   39.2470   23.0730   38.1550 C   0  0  0  0  0  3  0  0  0  0  0  0
   40.1250   22.5540   37.2110 C   0  0  0  0  0  0  0  0  0  0  0  0
   41.3080   21.9170   37.5710 C   0  0  0  0  0  3  0  0  0  0  0  0
   42.1330   21.4250   36.5800 C   0  0  0  0  0  3  0  0  0  0  0  0
   41.8270   21.5400   35.2320 C   0  0  0  0  0  3  0  0  0  0  0  0
   40.6540   22.1700   34.8450 C   0  0  0  0  0  3  0  0  0  0  0  0
   39.8470   22.6530   35.8480 C   0  0  0  0  0  0  0  0  0  0  0  0
  1  6  1  0  0  0  0
  1  7  1  0  0  0  0
  2  1  2  0  0  0  0
  3  4  2  0  0  0  0
  3  2  1  0  0  0  0
  4  5  1  0  0  0  0
  5 23  1  0  0  0  0
  5  6  2  0  0  0  0
  8  3  1  0  0  0  0
  9  2  1  0  0  0  0
  9 10  1  0  0  0  0
 10 11  1  0  0  0  0
 11 16  1  0  0  0  0
 11 12  2  0  0  0  0
 12 17  1  0  0  0  0
 13 12  1  0  0  0  0
 13 18  1  0  0  0  0
 14 13  2  0  0  0  0
 15 10  2  0  0  0  0
 15 14  1  0  0  0  0
 19 14  1  0  0  0  0
 19 21  1  0  0  0  0
 20 19  1  0  0  0  0
 22 19  1  0  0  0  0
 23 24  1  0  0  0  0
 24 34  2  0  0  0  0
 24 25  1  0  0  0  0
 25 27  2  0  0  0  0
 26 25  1  0  0  0  0
 27 28  1  0  0  0  0
 29 30  1  0  0  0  0
 29 28  2  0  0  0  0
 31 30  2  0  0  0  0
 32 31  1  0  0  0  0
 33 32  2  0  0  0  0
 33 34  1  0  0  0  0
 34 29  1  0  0  0  0
M  END
>  <minimizedAffinity>
-5.89906073

$$$$
