
 OpenBabel03272505443D

 26 28  0  0  0  0  0  0  0  0999 V2000
   39.5300   27.2550   33.6460 O   0  0  0  0  0  0  0  0  0  0  0  0
   38.5900   26.6790   34.7080 P   0  0  2  0  0  0  0  0  0  0  0  0
   38.8400   27.5700   36.1080 O   0  0  0  0  0  0  0  0  0  0  0  0
   39.2040   28.4760   35.9440 H   0  0  0  0  0  0  0  0  0  0  0  0
   38.9600   25.0440   34.8960 O   0  0  0  0  0  0  0  0  0  0  0  0
   39.8000   22.8410   37.6940 C   0  0  0  0  0  0  0  0  0  0  0  0
   38.8100   23.2860   38.6300 C   0  0  0  0  0  0  0  0  0  0  0  0
   37.9250   24.3010   38.2480 C   0  0  0  0  0  0  0  0  0  0  0  0
   38.0530   24.8210   36.9930 N   0  0  0  0  0  0  0  0  0  0  0  0
   38.9990   24.3820   36.1260 C   0  0  0  0  0  0  0  0  0  0  0  0
   39.8650   23.3980   36.4770 N   0  0  0  0  0  0  0  0  0  0  0  0
   40.4630   22.0700   37.9950 H   0  0  0  0  0  0  0  0  0  0  0  0
   38.7360   22.8470   39.6240 H   0  0  0  0  0  0  0  0  0  0  0  0
   37.1700   24.6630   38.9190 H   0  0  0  0  0  0  0  0  0  0  0  0
   37.0190   26.9480   34.1570 O   0  0  0  0  0  0  0  0  0  0  0  0
   36.7300   27.6910   33.0230 C   0  0  0  0  0  0  0  0  0  0  0  0
   36.9090   27.3030   31.7120 C   0  0  0  0  0  0  0  0  0  0  0  0
   37.3120   26.3330   31.5560 H   0  0  0  0  0  0  0  0  0  0  0  0
   36.5670   28.1760   30.6920 C   0  0  0  0  0  3  0  0  0  0  0  0
   36.0450   29.4350   30.9240 C   0  0  0  0  0  3  0  0  0  0  0  0
   35.8770   29.7950   32.2500 C   0  0  0  0  0  0  0  0  0  0  0  0
   35.3530   31.0580   32.4570 C   0  0  0  0  0  3  0  0  0  0  0  0
   35.1450   31.5170   33.7610 C   0  0  0  0  0  3  0  0  0  0  0  0
   35.4740   30.6780   34.8230 C   0  0  0  0  0  3  0  0  0  0  0  0
   35.9950   29.4190   34.5840 C   0  0  0  0  0  3  0  0  0  0  0  0
   36.2110   28.9440   33.3040 C   0  0  0  0  0  0  0  0  0  0  0  0
  2  1  2  6  0  0  0
  2  5  1  0  0  0  0
  2  3  1  0  0  0  0
  4  3  1  0  0  0  0
  5 10  1  0  0  0  0
  6 12  1  0  0  0  0
  6  7  1  0  0  0  0
  7 13  1  0  0  0  0
  8  7  2  0  0  0  0
  8 14  1  0  0  0  0
  9  8  1  0  0  0  0
 10 11  1  0  0  0  0
 10  9  2  0  0  0  0
 11  6  2  0  0  0  0
 15  2  1  0  0  0  0
 16 26  1  0  0  0  0
 16 15  1  0  0  0  0
 17 16  2  0  0  0  0
 18 17  1  0  0  0  0
 19 20  2  0  0  0  0
 19 17  1  0  0  0  0
 20 21  1  0  0  0  0
 21 22  2  0  0  0  0
 21 26  1  0  0  0  0
 22 23  1  0  0  0  0
 23 24  2  0  0  0  0
 25 24  1  0  0  0  0
 26 25  2  0  0  0  0
M  END
>  <minimizedAffinity>
-5.75926208

$$$$

 OpenBabel03272505443D

 26 28  0  0  0  0  0  0  0  0999 V2000
   39.6020   27.1980   33.8930 O   0  0  0  0  0  0  0  0  0  0  0  0
   38.4580   26.5780   34.7000 P   0  0  2  0  0  0  0  0  0  0  0  0
   38.3780   27.4210   36.1490 O   0  0  0  0  0  0  0  0  0  0  0  0
   38.7560   28.3350   36.1000 H   0  0  0  0  0  0  0  0  0  0  0  0
   38.8020   24.9400   34.9120 O   0  0  0  0  0  0  0  0  0  0  0  0
   39.8310   22.8450   37.7300 C   0  0  0  0  0  0  0  0  0  0  0  0
   38.8640   23.2800   38.6930 C   0  0  0  0  0  0  0  0  0  0  0  0
   37.9280   24.2510   38.3210 C   0  0  0  0  0  0  0  0  0  0  0  0
   37.9870   24.7420   37.0490 N   0  0  0  0  0  0  0  0  0  0  0  0
   38.9140   24.3130   36.1560 C   0  0  0  0  0  0  0  0  0  0  0  0
   39.8290   23.3710   36.4970 N   0  0  0  0  0  0  0  0  0  0  0  0
   40.5340   22.1070   38.0230 H   0  0  0  0  0  0  0  0  0  0  0  0
   38.8460   22.8650   39.7000 H   0  0  0  0  0  0  0  0  0  0  0  0
   37.1870   24.6050   39.0120 H   0  0  0  0  0  0  0  0  0  0  0  0
   37.0450   26.8550   33.8230 O   0  0  0  0  0  0  0  0  0  0  0  0
   36.5650   28.1230   33.5400 C   0  0  0  0  0  0  0  0  0  0  0  0
   35.9300   28.9820   34.4120 C   0  0  0  0  0  0  0  0  0  0  0  0
   35.7940   28.6330   35.4060 H   0  0  0  0  0  0  0  0  0  0  0  0
   35.5110   30.2230   33.9610 C   0  0  0  0  0  3  0  0  0  0  0  0
   35.7000   30.6520   32.6610 C   0  0  0  0  0  3  0  0  0  0  0  0
   36.3400   29.7690   31.8090 C   0  0  0  0  0  0  0  0  0  0  0  0
   36.5180   30.2210   30.5140 C   0  0  0  0  0  3  0  0  0  0  0  0
   37.1540   29.4030   29.5760 C   0  0  0  0  0  3  0  0  0  0  0  0
   37.5940   28.1440   29.9790 C   0  0  0  0  0  3  0  0  0  0  0  0
   37.4030   27.7200   31.2810 C   0  0  0  0  0  3  0  0  0  0  0  0
   36.7760   28.5110   32.2270 C   0  0  0  0  0  0  0  0  0  0  0  0
  2  1  2  6  0  0  0
  2  5  1  0  0  0  0
  2  3  1  0  0  0  0
  4  3  1  0  0  0  0
  5 10  1  0  0  0  0
  6 12  1  0  0  0  0
  6  7  1  0  0  0  0
  7 13  1  0  0  0  0
  8  7  2  0  0  0  0
  8 14  1  0  0  0  0
  9  8  1  0  0  0  0
 10 11  1  0  0  0  0
 10  9  2  0  0  0  0
 11  6  2  0  0  0  0
 15  2  1  0  0  0  0
 16 15  1  0  0  0  0
 16 17  1  0  0  0  0
 17 18  1  0  0  0  0
 19 17  2  0  0  0  0
 20 19  1  0  0  0  0
 21 26  1  0  0  0  0
 21 20  2  0  0  0  0
 22 21  1  0  0  0  0
 23 24  1  0  0  0  0
 23 22  2  0  0  0  0
 24 25  2  0  0  0  0
 25 26  1  0  0  0  0
 26 16  2  0  0  0  0
M  END
>  <minimizedAffinity>
-5.67448044

$$$$

 OpenBabel03272505443D

 26 28  0  0  0  0  0  0  0  0999 V2000
   36.3090   26.0320   31.7380 O   0  0  0  0  0  0  0  0  0  0  0  0
   37.0160   24.6770   31.6610 P   0  0  2  0  0  0  0  0  0  0  0  0
   37.5280   24.4890   30.0730 O   0  0  0  0  0  0  0  0  0  0  0  0
   37.6470   25.3440   29.5890 H   0  0  0  0  0  0  0  0  0  0  0  0
   35.9170   23.4910   32.1400 O   0  0  0  0  0  0  0  0  0  0  0  0
   36.8920   20.2890   30.6600 C   0  0  0  0  0  0  0  0  0  0  0  0
   35.8530   19.4680   31.2070 C   0  0  0  0  0  0  0  0  0  0  0  0
   34.8930   20.0550   32.0380 C   0  0  0  0  0  0  0  0  0  0  0  0
   34.9980   21.3930   32.2900 N   0  0  0  0  0  0  0  0  0  0  0  0
   35.9910   22.1480   31.7600 C   0  0  0  0  0  0  0  0  0  0  0  0
   36.9310   21.5970   30.9500 N   0  0  0  0  0  0  0  0  0  0  0  0
   37.6130   19.8330   30.0300 H   0  0  0  0  0  0  0  0  0  0  0  0
   35.8000   18.4030   30.9840 H   0  0  0  0  0  0  0  0  0  0  0  0
   34.0990   19.4750   32.4680 H   0  0  0  0  0  0  0  0  0  0  0  0
   38.3670   24.7810   32.6660 O   0  0  0  0  0  0  0  0  0  0  0  0
   38.3760   25.5000   33.8500 C   0  0  0  0  0  0  0  0  0  0  0  0
   38.5240   26.8640   33.9890 C   0  0  0  0  0  0  0  0  0  0  0  0
   38.6440   27.4220   33.0930 H   0  0  0  0  0  0  0  0  0  0  0  0
   38.5100   27.4240   35.2560 C   0  0  0  0  0  3  0  0  0  0  0  0
   38.3520   26.6750   36.4070 C   0  0  0  0  0  3  0  0  0  0  0  0
   38.2060   25.3100   36.2350 C   0  0  0  0  0  0  0  0  0  0  0  0
   38.0500   24.5810   37.4000 C   0  0  0  0  0  3  0  0  0  0  0  0
   37.8940   23.1930   37.3350 C   0  0  0  0  0  3  0  0  0  0  0  0
   37.9020   22.5800   36.0830 C   0  0  0  0  0  3  0  0  0  0  0  0
   38.0590   23.3360   34.9360 C   0  0  0  0  0  3  0  0  0  0  0  0
   38.2150   24.7090   34.9750 C   0  0  0  0  0  0  0  0  0  0  0  0
  2  1  2  1  0  0  0
  2  5  1  0  0  0  0
  2 15  1  0  0  0  0
  3  2  1  0  0  0  0
  4  3  1  0  0  0  0
  6 11  2  0  0  0  0
  6  7  1  0  0  0  0
  7  8  2  0  0  0  0
  8  9  1  0  0  0  0
  8 14  1  0  0  0  0
 10  5  1  0  0  0  0
 10  9  2  0  0  0  0
 11 10  1  0  0  0  0
 12  6  1  0  0  0  0
 13  7  1  0  0  0  0
 15 16  1  0  0  0  0
 16 17  2  0  0  0  0
 16 26  1  0  0  0  0
 17 19  1  0  0  0  0
 18 17  1  0  0  0  0
 19 20  2  0  0  0  0
 21 20  1  0  0  0  0
 21 22  1  0  0  0  0
 23 22  2  0  0  0  0
 24 23  1  0  0  0  0
 25 26  1  0  0  0  0
 25 24  2  0  0  0  0
 26 21  2  0  0  0  0
M  END
>  <minimizedAffinity>
-5.51064396

$$$$

 OpenBabel03272505443D

 26 28  0  0  0  0  0  0  0  0999 V2000
   35.0720   24.8700   30.9850 O   0  0  0  0  0  0  0  0  0  0  0  0
   36.5260   24.8060   31.4580 P   0  0  2  0  0  0  0  0  0  0  0  0
   37.4700   24.5820   30.0890 O   0  0  0  0  0  0  0  0  0  0  0  0
   37.0410   24.8980   29.2540 H   0  0  0  0  0  0  0  0  0  0  0  0
   36.6570   23.5350   32.5600 O   0  0  0  0  0  0  0  0  0  0  0  0
   36.2950   20.3130   30.8650 C   0  0  0  0  0  0  0  0  0  0  0  0
   35.8390   19.5300   31.9740 C   0  0  0  0  0  0  0  0  0  0  0  0
   35.6830   20.1470   33.2200 C   0  0  0  0  0  0  0  0  0  0  0  0
   35.9800   21.4760   33.3160 N   0  0  0  0  0  0  0  0  0  0  0  0
   36.4100   22.1950   32.2500 C   0  0  0  0  0  0  0  0  0  0  0  0
   36.5660   21.6140   31.0330 N   0  0  0  0  0  0  0  0  0  0  0  0
   36.4070   19.8330   29.9250 H   0  0  0  0  0  0  0  0  0  0  0  0
   35.6110   18.4710   31.8610 H   0  0  0  0  0  0  0  0  0  0  0  0
   35.3440   19.5960   34.0760 H   0  0  0  0  0  0  0  0  0  0  0  0
   36.8800   26.3120   32.1310 O   0  0  0  0  0  0  0  0  0  0  0  0
   37.6400   26.4690   33.2780 C   0  0  0  0  0  0  0  0  0  0  0  0
   37.2090   26.3320   34.5810 C   0  0  0  0  0  0  0  0  0  0  0  0
   36.1860   26.0810   34.7180 H   0  0  0  0  0  0  0  0  0  0  0  0
   38.1070   26.5270   35.6180 C   0  0  0  0  0  3  0  0  0  0  0  0
   39.4340   26.8550   35.4110 C   0  0  0  0  0  3  0  0  0  0  0  0
   39.8360   26.9840   34.0940 C   0  0  0  0  0  0  0  0  0  0  0  0
   41.1670   27.3120   33.9120 C   0  0  0  0  0  3  0  0  0  0  0  0
   41.6730   27.4670   32.6170 C   0  0  0  0  0  3  0  0  0  0  0  0
   40.8100   27.2830   31.5390 C   0  0  0  0  0  3  0  0  0  0  0  0
   39.4840   26.9540   31.7520 C   0  0  0  0  0  3  0  0  0  0  0  0
   38.9610   26.7970   33.0230 C   0  0  0  0  0  0  0  0  0  0  0  0
  2  1  2  6  0  0  0
  2 15  1  0  0  0  0
  2  5  1  0  0  0  0
  3  2  1  0  0  0  0
  4  3  1  0  0  0  0
  6 11  2  0  0  0  0
  6  7  1  0  0  0  0
  7  8  2  0  0  0  0
  8  9  1  0  0  0  0
  8 14  1  0  0  0  0
 10  5  1  0  0  0  0
 10  9  2  0  0  0  0
 11 10  1  0  0  0  0
 12  6  1  0  0  0  0
 13  7  1  0  0  0  0
 15 16  1  0  0  0  0
 16 17  1  0  0  0  0
 17 18  1  0  0  0  0
 17 19  2  0  0  0  0
 20 19  1  0  0  0  0
 21 20  2  0  0  0  0
 22 21  1  0  0  0  0
 23 22  2  0  0  0  0
 24 25  2  0  0  0  0
 24 23  1  0  0  0  0
 25 26  1  0  0  0  0
 26 16  2  0  0  0  0
 26 21  1  0  0  0  0
M  END
>  <minimizedAffinity>
-5.29777813

$$$$

 OpenBabel03272505443D

 26 28  0  0  0  0  0  0  0  0999 V2000
   37.3720   27.3410   34.1810 O   0  0  0  0  0  0  0  0  0  0  0  0
   38.7410   26.8280   34.6360 P   0  0  2  0  0  0  0  0  0  0  0  0
   39.0440   27.5230   36.1330 O   0  0  0  0  0  0  0  0  0  0  0  0
   38.2250   27.7940   36.6200 H   0  0  0  0  0  0  0  0  0  0  0  0
   39.8740   27.2690   33.4670 O   0  0  0  0  0  0  0  0  0  0  0  0
   40.5250   25.1920   30.5250 C   0  0  0  0  0  0  0  0  0  0  0  0
   39.8180   25.9650   29.5490 C   0  0  0  0  0  0  0  0  0  0  0  0
   39.1690   27.1380   29.9530 C   0  0  0  0  0  0  0  0  0  0  0  0
   39.2430   27.4870   31.2700 N   0  0  0  0  0  0  0  0  0  0  0  0
   39.9210   26.7380   32.1750 C   0  0  0  0  0  0  0  0  0  0  0  0
   40.5560   25.5980   31.8020 N   0  0  0  0  0  0  0  0  0  0  0  0
   41.0140   24.3070   30.2060 H   0  0  0  0  0  0  0  0  0  0  0  0
   39.7800   25.6560   28.5050 H   0  0  0  0  0  0  0  0  0  0  0  0
   38.6280   27.7450   29.2530 H   0  0  0  0  0  0  0  0  0  0  0  0
   38.5910   25.1590   34.8240 O   0  0  0  0  0  0  0  0  0  0  0  0
   38.6420   24.5270   36.0560 C   0  0  0  0  0  0  0  0  0  0  0  0
   37.7620   24.6880   37.1050 C   0  0  0  0  0  0  0  0  0  0  0  0
   36.9610   25.3680   36.9520 H   0  0  0  0  0  0  0  0  0  0  0  0
   37.9630   23.9740   38.2760 C   0  0  0  0  0  3  0  0  0  0  0  0
   39.0150   23.0950   38.4490 C   0  0  0  0  0  3  0  0  0  0  0  0
   39.8810   22.9550   37.3780 C   0  0  0  0  0  0  0  0  0  0  0  0
   40.9250   22.0710   37.5750 C   0  0  0  0  0  3  0  0  0  0  0  0
   41.8560   21.8590   36.5530 C   0  0  0  0  0  3  0  0  0  0  0  0
   41.7000   22.5530   35.3560 C   0  0  0  0  0  3  0  0  0  0  0  0
   40.6450   23.4310   35.1880 C   0  0  0  0  0  3  0  0  0  0  0  0
   39.7130   23.6570   36.1840 C   0  0  0  0  0  0  0  0  0  0  0  0
  2  1  2  6  0  0  0
  2 15  1  0  0  0  0
  2  3  1  0  0  0  0
  3  4  1  0  0  0  0
  5  2  1  0  0  0  0
  6 11  1  0  0  0  0
  7  8  1  0  0  0  0
  7  6  2  0  0  0  0
  8  9  2  0  0  0  0
  9 10  1  0  0  0  0
 10  5  1  0  0  0  0
 11 10  2  0  0  0  0
 12  6  1  0  0  0  0
 13  7  1  0  0  0  0
 14  8  1  0  0  0  0
 15 16  1  0  0  0  0
 16 26  2  0  0  0  0
 16 17  1  0  0  0  0
 17 19  2  0  0  0  0
 18 17  1  0  0  0  0
 19 20  1  0  0  0  0
 21 22  1  0  0  0  0
 21 20  2  0  0  0  0
 23 22  2  0  0  0  0
 24 23  1  0  0  0  0
 25 24  2  0  0  0  0
 25 26  1  0  0  0  0
 26 21  1  0  0  0  0
M  END
>  <minimizedAffinity>
-5.18732166

$$$$

 OpenBabel03272505443D

 26 28  0  0  0  0  0  0  0  0999 V2000
   38.3110   26.2730   32.7130 O   0  0  0  0  0  0  0  0  0  0  0  0
   38.3090   26.2550   34.2430 P   0  0  2  0  0  0  0  0  0  0  0  0
   36.8730   26.9740   34.7320 O   0  0  0  0  0  0  0  0  0  0  0  0
   36.1550   26.9310   34.0530 H   0  0  0  0  0  0  0  0  0  0  0  0
   39.6750   27.0910   34.7720 O   0  0  0  0  0  0  0  0  0  0  0  0
   43.0480   25.7140   34.4340 C   0  0  0  0  0  0  0  0  0  0  0  0
   43.4910   26.4880   33.3120 C   0  0  0  0  0  0  0  0  0  0  0  0
   42.6170   27.4240   32.7480 C   0  0  0  0  0  0  0  0  0  0  0  0
   41.3750   27.5510   33.2990 N   0  0  0  0  0  0  0  0  0  0  0  0
   40.9800   26.8070   34.3620 C   0  0  0  0  0  0  0  0  0  0  0  0
   41.8140   25.8950   34.9230 N   0  0  0  0  0  0  0  0  0  0  0  0
   43.7210   25.0090   34.8530 H   0  0  0  0  0  0  0  0  0  0  0  0
   44.4900   26.3600   32.8980 H   0  0  0  0  0  0  0  0  0  0  0  0
   42.9090   28.0230   31.9070 H   0  0  0  0  0  0  0  0  0  0  0  0
   38.2980   24.6330   34.7060 O   0  0  0  0  0  0  0  0  0  0  0  0
   38.5040   24.2160   36.0100 C   0  0  0  0  0  0  0  0  0  0  0  0
   37.7870   24.5980   37.1240 C   0  0  0  0  0  0  0  0  0  0  0  0
   36.9920   25.2850   36.9640 H   0  0  0  0  0  0  0  0  0  0  0  0
   38.1290   24.0810   38.3640 C   0  0  0  0  0  3  0  0  0  0  0  0
   39.1690   23.1890   38.5440 C   0  0  0  0  0  3  0  0  0  0  0  0
   39.8700   22.8250   37.4080 C   0  0  0  0  0  0  0  0  0  0  0  0
   40.9050   21.9310   37.6140 C   0  0  0  0  0  3  0  0  0  0  0  0
   41.6760   21.5010   36.5290 C   0  0  0  0  0  3  0  0  0  0  0  0
   41.3730   21.9910   35.2610 C   0  0  0  0  0  3  0  0  0  0  0  0
   40.3310   22.8840   35.0860 C   0  0  0  0  0  3  0  0  0  0  0  0
   39.5560   23.3240   36.1430 C   0  0  0  0  0  0  0  0  0  0  0  0
  2  1  2  6  0  0  0
  2 15  1  0  0  0  0
  2  3  1  0  0  0  0
  2  5  1  0  0  0  0
  4  3  1  0  0  0  0
  6 12  1  0  0  0  0
  6 11  1  0  0  0  0
  7  6  2  0  0  0  0
  8  9  2  0  0  0  0
  8  7  1  0  0  0  0
  9 10  1  0  0  0  0
 10  5  1  0  0  0  0
 10 11  2  0  0  0  0
 13  7  1  0  0  0  0
 14  8  1  0  0  0  0
 15 16  1  0  0  0  0
 16 26  2  0  0  0  0
 16 17  1  0  0  0  0
 17 19  2  0  0  0  0
 18 17  1  0  0  0  0
 19 20  1  0  0  0  0
 21 22  1  0  0  0  0
 21 20  2  0  0  0  0
 23 22  2  0  0  0  0
 24 23  1  0  0  0  0
 25 24  2  0  0  0  0
 25 26  1  0  0  0  0
 26 21  1  0  0  0  0
M  END
>  <minimizedAffinity>
-5.15453291

$$$$

 OpenBabel03272505443D

 26 28  0  0  0  0  0  0  0  0999 V2000
   38.3890   21.5330   32.2140 O   0  0  0  0  0  0  0  0  0  0  0  0
   39.0570   22.2170   33.4090 P   0  0  2  0  0  0  0  0  0  0  0  0
   40.5120   21.4230   33.6700 O   0  0  0  0  0  0  0  0  0  0  0  0
   40.8650   20.9650   32.8660 H   0  0  0  0  0  0  0  0  0  0  0  0
   38.0050   22.1080   34.7230 O   0  0  0  0  0  0  0  0  0  0  0  0
   37.8560   23.5950   38.0630 C   0  0  0  0  0  0  0  0  0  0  0  0
   39.2010   23.3320   38.4820 C   0  0  0  0  0  0  0  0  0  0  0  0
   40.0660   22.6700   37.6040 C   0  0  0  0  0  0  0  0  0  0  0  0
   39.5790   22.3030   36.3820 N   0  0  0  0  0  0  0  0  0  0  0  0
   38.3010   22.5650   36.0100 C   0  0  0  0  0  0  0  0  0  0  0  0
   37.4480   23.2060   36.8480 N   0  0  0  0  0  0  0  0  0  0  0  0
   37.2110   24.0980   38.7380 H   0  0  0  0  0  0  0  0  0  0  0  0
   39.5560   23.6390   39.4650 H   0  0  0  0  0  0  0  0  0  0  0  0
   41.0800   22.4530   37.8780 H   0  0  0  0  0  0  0  0  0  0  0  0
   39.3730   23.8060   32.9380 O   0  0  0  0  0  0  0  0  0  0  0  0
   38.3760   24.7240   32.6520 C   0  0  0  0  0  0  0  0  0  0  0  0
   37.5630   24.7420   31.5380 C   0  0  0  0  0  0  0  0  0  0  0  0
   37.7200   23.9710   30.8240 H   0  0  0  0  0  0  0  0  0  0  0  0
   36.6110   25.7400   31.4080 C   0  0  0  0  0  3  0  0  0  0  0  0
   36.4290   26.7330   32.3510 C   0  0  0  0  0  3  0  0  0  0  0  0
   37.2590   26.6880   33.4570 C   0  0  0  0  0  0  0  0  0  0  0  0
   37.0590   27.6910   34.3880 C   0  0  0  0  0  3  0  0  0  0  0  0
   37.8480   27.7350   35.5420 C   0  0  0  0  0  3  0  0  0  0  0  0
   38.8210   26.7550   35.7200 C   0  0  0  0  0  3  0  0  0  0  0  0
   38.9970   25.7630   34.7730 C   0  0  0  0  0  3  0  0  0  0  0  0
   38.2310   25.7000   33.6240 C   0  0  0  0  0  0  0  0  0  0  0  0
  2  1  2  6  0  0  0
  2  3  1  0  0  0  0
  2  5  1  0  0  0  0
  4  3  1  0  0  0  0
  5 10  1  0  0  0  0
  6  7  1  0  0  0  0
  6 12  1  0  0  0  0
  7 13  1  0  0  0  0
  8 14  1  0  0  0  0
  8  7  2  0  0  0  0
  9  8  1  0  0  0  0
 10  9  2  0  0  0  0
 10 11  1  0  0  0  0
 11  6  2  0  0  0  0
 15  2  1  0  0  0  0
 16 15  1  0  0  0  0
 16 26  1  0  0  0  0
 17 16  2  0  0  0  0
 18 17  1  0  0  0  0
 19 17  1  0  0  0  0
 19 20  2  0  0  0  0
 20 21  1  0  0  0  0
 21 26  2  0  0  0  0
 21 22  1  0  0  0  0
 22 23  2  0  0  0  0
 23 24  1  0  0  0  0
 25 24  2  0  0  0  0
 26 25  1  0  0  0  0
M  END
>  <minimizedAffinity>
-5.12035036

$$$$

 OpenBabel03272505443D

 26 28  0  0  0  0  0  0  0  0999 V2000
   40.2610   25.8870   33.7130 O   0  0  0  0  0  0  0  0  0  0  0  0
   38.7530   25.6870   33.5450 P   0  0  2  0  0  0  0  0  0  0  0  0
   38.4620   25.5780   31.8950 O   0  0  0  0  0  0  0  0  0  0  0  0
   39.2480   25.2840   31.3710 H   0  0  0  0  0  0  0  0  0  0  0  0
   37.9730   26.9980   34.2640 O   0  0  0  0  0  0  0  0  0  0  0  0
   35.4920   28.3580   31.9420 C   0  0  0  0  0  0  0  0  0  0  0  0
   34.8000   29.2300   32.8450 C   0  0  0  0  0  0  0  0  0  0  0  0
   35.2220   29.2980   34.1770 C   0  0  0  0  0  0  0  0  0  0  0  0
   36.2790   28.5210   34.5530 N   0  0  0  0  0  0  0  0  0  0  0  0
   36.9180   27.7050   33.6790 C   0  0  0  0  0  0  0  0  0  0  0  0
   36.5250   27.6260   32.3820 N   0  0  0  0  0  0  0  0  0  0  0  0
   35.1640   28.3170   30.9340 H   0  0  0  0  0  0  0  0  0  0  0  0
   33.9590   29.8360   32.5090 H   0  0  0  0  0  0  0  0  0  0  0  0
   34.7300   29.9370   34.8850 H   0  0  0  0  0  0  0  0  0  0  0  0
   38.3810   24.2100   34.2680 O   0  0  0  0  0  0  0  0  0  0  0  0
   38.5230   23.9740   35.6260 C   0  0  0  0  0  0  0  0  0  0  0  0
   37.7340   24.4740   36.6400 C   0  0  0  0  0  0  0  0  0  0  0  0
   36.9330   25.1080   36.3490 H   0  0  0  0  0  0  0  0  0  0  0  0
   38.0200   24.1360   37.9530 C   0  0  0  0  0  3  0  0  0  0  0  0
   39.0700   23.3090   38.3040 C   0  0  0  0  0  3  0  0  0  0  0  0
   39.8430   22.8230   37.2650 C   0  0  0  0  0  0  0  0  0  0  0  0
   40.8880   21.9980   37.6410 C   0  0  0  0  0  3  0  0  0  0  0  0
   41.7290   21.4550   36.6650 C   0  0  0  0  0  3  0  0  0  0  0  0
   41.4850   21.7650   35.3290 C   0  0  0  0  0  3  0  0  0  0  0  0
   40.4320   22.5920   34.9830 C   0  0  0  0  0  3  0  0  0  0  0  0
   39.5880   23.1410   35.9300 C   0  0  0  0  0  0  0  0  0  0  0  0
  2  1  2  1  0  0  0
  2  5  1  0  0  0  0
  2 15  1  0  0  0  0
  3  2  1  0  0  0  0
  4  3  1  0  0  0  0
  6 11  2  0  0  0  0
  6  7  1  0  0  0  0
  7  8  2  0  0  0  0
  8  9  1  0  0  0  0
  8 14  1  0  0  0  0
 10  5  1  0  0  0  0
 10  9  2  0  0  0  0
 11 10  1  0  0  0  0
 12  6  1  0  0  0  0
 13  7  1  0  0  0  0
 15 16  1  0  0  0  0
 16 26  2  0  0  0  0
 16 17  1  0  0  0  0
 17 19  2  0  0  0  0
 18 17  1  0  0  0  0
 19 20  1  0  0  0  0
 21 22  1  0  0  0  0
 21 20  2  0  0  0  0
 23 22  2  0  0  0  0
 24 23  1  0  0  0  0
 25 24  2  0  0  0  0
 25 26  1  0  0  0  0
 26 21  1  0  0  0  0
M  END
>  <minimizedAffinity>
-5.11383915

$$$$

 OpenBabel03272505443D

 26 28  0  0  0  0  0  0  0  0999 V2000
   37.2270   25.0800   32.4690 O   0  0  0  0  0  0  0  0  0  0  0  0
   38.1550   23.9720   32.9730 P   0  0  2  0  0  0  0  0  0  0  0  0
   39.1650   23.5700   31.6950 O   0  0  0  0  0  0  0  0  0  0  0  0
   39.2730   24.2950   31.0290 H   0  0  0  0  0  0  0  0  0  0  0  0
   37.1940   22.6820   33.4810 O   0  0  0  0  0  0  0  0  0  0  0  0
   36.6350   20.4230   30.6570 C   0  0  0  0  0  0  0  0  0  0  0  0
   35.7620   19.4830   31.2960 C   0  0  0  0  0  0  0  0  0  0  0  0
   35.4220   19.6800   32.6390 C   0  0  0  0  0  0  0  0  0  0  0  0
   35.9460   20.7660   33.2780 N   0  0  0  0  0  0  0  0  0  0  0  0
   36.7700   21.6410   32.6500 C   0  0  0  0  0  0  0  0  0  0  0  0
   37.1110   21.4680   31.3480 N   0  0  0  0  0  0  0  0  0  0  0  0
   36.8840   20.2630   29.6380 H   0  0  0  0  0  0  0  0  0  0  0  0
   35.3620   18.6270   30.7540 H   0  0  0  0  0  0  0  0  0  0  0  0
   34.7720   18.9990   33.1540 H   0  0  0  0  0  0  0  0  0  0  0  0
   39.0790   24.6450   34.2140 O   0  0  0  0  0  0  0  0  0  0  0  0
   38.9640   24.2580   35.5390 C   0  0  0  0  0  0  0  0  0  0  0  0
   38.0190   24.6850   36.4470 C   0  0  0  0  0  0  0  0  0  0  0  0
   37.3030   25.3860   36.0920 H   0  0  0  0  0  0  0  0  0  0  0  0
   38.0490   24.1940   37.7420 C   0  0  0  0  0  3  0  0  0  0  0  0
   38.9920   23.2830   38.1780 C   0  0  0  0  0  3  0  0  0  0  0  0
   39.9270   22.8730   37.2440 C   0  0  0  0  0  0  0  0  0  0  0  0
   40.8600   21.9610   37.7030 C   0  0  0  0  0  3  0  0  0  0  0  0
   41.8490   21.4840   36.8360 C   0  0  0  0  0  3  0  0  0  0  0  0
   41.8630   21.9480   35.5230 C   0  0  0  0  0  3  0  0  0  0  0  0
   40.9160   22.8590   35.0930 C   0  0  0  0  0  3  0  0  0  0  0  0
   39.9300   23.3450   35.9310 C   0  0  0  0  0  0  0  0  0  0  0  0
  2  1  2  6  0  0  0
  2  5  1  0  0  0  0
  2 15  1  0  0  0  0
  3  2  1  0  0  0  0
  4  3  1  0  0  0  0
  6  7  2  0  0  0  0
  6 11  1  0  0  0  0
  7  8  1  0  0  0  0
  8 14  1  0  0  0  0
  8  9  2  0  0  0  0
 10  9  1  0  0  0  0
 10  5  1  0  0  0  0
 11 10  2  0  0  0  0
 12  6  1  0  0  0  0
 13  7  1  0  0  0  0
 15 16  1  0  0  0  0
 16 26  2  0  0  0  0
 16 17  1  0  0  0  0
 17 19  2  0  0  0  0
 18 17  1  0  0  0  0
 19 20  1  0  0  0  0
 21 22  1  0  0  0  0
 21 20  2  0  0  0  0
 23 22  2  0  0  0  0
 24 23  1  0  0  0  0
 25 24  2  0  0  0  0
 25 26  1  0  0  0  0
 26 21  1  0  0  0  0
M  END
>  <minimizedAffinity>
-5.08625364

$$$$
