
 OpenBabel03262520363D

 44 47  0  0  0  0  0  0  0  0999 V2000
   37.8870   23.2770   32.0530 C   0  0  0  0  0  0  0  0  0  0  0  0
   36.6260   23.8850   31.9200 C   0  0  0  0  0  0  0  0  0  0  0  0
   35.5140   23.1860   31.5280 C   0  0  0  0  0  0  0  0  0  0  0  0
   35.6360   21.8480   31.2570 C   0  0  0  0  0  0  0  0  0  0  0  0
   36.8430   21.2380   31.3780 C   0  0  0  0  0  0  0  0  0  0  0  0
   37.9780   21.9010   31.7660 C   0  0  0  0  0  0  0  0  0  0  0  0
   34.5920   23.7370   31.4540 H   0  0  0  0  0  0  0  0  0  0  0  0
   34.7220   21.3570   30.9530 H   0  0  0  0  0  0  0  0  0  0  0  0
   36.8410   20.1770   31.1410 H   0  0  0  0  0  0  0  0  0  0  0  0
   38.8570   21.3110   31.8270 H   0  0  0  0  0  0  0  0  0  0  0  0
   39.3360   24.0960   32.5640 S   0  0  0  0  0  0  0  0  0  0  0  0
   40.4270   23.1070   32.8470 O   0  0  0  0  0  0  0  0  0  0  0  0
   39.7570   25.0560   31.4560 O   0  0  0  0  0  0  0  0  0  0  0  0
   39.0910   25.0390   33.9760 C   0  0  0  0  0  0  0  0  0  0  0  0
   39.3540   26.4000   34.0490 C   0  0  0  0  0  0  0  0  0  0  0  0
   39.7500   26.8860   33.1690 H   0  0  0  0  0  0  0  0  0  0  0  0
   39.1420   27.1520   35.1640 C   0  0  0  0  0  3  0  0  0  0  0  0
   38.6350   26.5130   36.2820 C   0  0  0  0  0  3  0  0  0  0  0  0
   38.3580   25.1530   36.2520 C   0  0  0  0  0  0  0  0  0  0  0  0
   37.8650   24.6510   37.4390 C   0  0  0  0  0  3  0  0  0  0  0  0
   37.5710   23.3080   37.4980 C   0  0  0  0  0  3  0  0  0  0  0  0
   37.7820   22.5320   36.3770 C   0  0  0  0  0  3  0  0  0  0  0  0
   38.2730   23.0440   35.2020 C   0  0  0  0  0  3  0  0  0  0  0  0
   38.5790   24.4040   35.1130 C   0  0  0  0  0  0  0  0  0  0  0  0
   36.6850   25.2270   32.2310 O   0  0  0  0  0  0  0  0  0  0  0  0
   37.4600   27.1850   30.6130 O   0  0  0  0  0  0  0  0  0  0  0  0
   36.2270   26.5150   31.2360 P   0  0  1  0  0  0  0  0  0  0  0  0
   35.1460   25.9920   30.0360 O   0  0  0  0  0  0  0  0  0  0  0  0
   34.5610   25.3150   30.4240 H   0  0  0  0  0  0  0  0  0  0  0  0
   35.4800   27.7620   32.1280 O   0  0  0  0  0  0  0  0  0  0  0  0
   36.3840   28.2070   33.1050 C   0  0  0  0  0  0  0  0  0  0  0  0
   37.1690   28.7830   32.6110 H   0  0  0  0  0  0  0  0  0  0  0  0
   36.8860   27.2920   33.5260 H   0  0  0  0  0  0  0  0  0  0  0  0
   35.4800   30.2600   34.1280 C   0  0  0  0  0  3  0  0  0  0  0  0
   35.7110   28.9740   34.1780 C   0  0  0  0  0  3  0  0  0  0  0  0
   34.7210   32.3450   37.0370 C   0  0  0  0  0  0  0  0  0  0  0  0
   33.3940   31.9750   37.3200 C   0  0  0  0  0  0  0  0  0  0  0  0
   32.7840   31.0170   36.5070 C   0  0  0  0  0  0  0  0  0  0  0  0
   33.5650   30.5240   35.4920 N   0  0  0  0  0  0  0  0  0  0  0  0
   34.8080   30.8890   35.2490 C   0  0  0  0  0  0  0  0  0  0  0  0
   35.3760   31.8020   36.0300 N   0  0  0  0  0  0  0  0  0  0  0  0
   35.2530   33.0930   37.6420 H   0  0  0  0  0  0  0  0  0  0  0  0
   32.8760   32.4330   38.1490 H   0  0  0  0  0  0  0  0  0  0  0  0
   31.7720   30.7040   36.6850 H   0  0  0  0  0  0  0  0  0  0  0  0
  1 11  1  0  0  0  0
  2  1  1  0  0  0  0
  2 25  1  0  0  0  0
  3  2  2  0  0  0  0
  4  5  2  0  0  0  0
  4  3  1  0  0  0  0
  5  6  1  0  0  0  0
  6 10  1  0  0  0  0
  6  1  2  0  0  0  0
  7  3  1  0  0  0  0
  8  4  1  0  0  0  0
  9  5  1  0  0  0  0
 11 12  2  0  0  0  0
 11 14  1  0  0  0  0
 13 11  2  0  0  0  0
 14 15  2  0  0  0  0
 14 24  1  0  0  0  0
 15 17  1  0  0  0  0
 16 15  1  0  0  0  0
 17 18  2  0  0  0  0
 19 18  1  0  0  0  0
 19 20  1  0  0  0  0
 20 21  2  0  0  0  0
 22 21  1  0  0  0  0
 23 22  2  0  0  0  0
 24 23  1  0  0  0  0
 24 19  2  0  0  0  0
 27 26  2  6  0  0  0
 27 30  1  0  0  0  0
 27 25  1  0  0  0  0
 28 29  1  0  0  0  0
 28 27  1  0  0  0  0
 30 31  1  0  0  0  0
 31 33  1  0  0  0  0
 31 35  1  0  0  0  0
 32 31  1  0  0  0  0
 34 35  2  0  0  0  0
 34 40  1  0  0  0  0
 36 37  1  0  0  0  0
 36 42  1  0  0  0  0
 37 43  1  0  0  0  0
 38 44  1  0  0  0  0
 38 37  2  0  0  0  0
 39 38  1  0  0  0  0
 40 39  2  0  0  0  0
 40 41  1  0  0  0  0
 41 36  2  0  0  0  0
M  END
>  <minimizedAffinity>
-6.90565729

$$$$

 OpenBabel03262520363D

 44 47  0  0  0  0  0  0  0  0999 V2000
   37.4420   24.5570   33.2110 C   0  0  0  0  0  0  0  0  0  0  0  0
   36.7070   25.0680   32.1250 C   0  0  0  0  0  0  0  0  0  0  0  0
   36.2070   24.2620   31.1360 C   0  0  0  0  0  0  0  0  0  0  0  0
   36.4290   22.9110   31.2080 C   0  0  0  0  0  0  0  0  0  0  0  0
   37.1350   22.3930   32.2460 C   0  0  0  0  0  0  0  0  0  0  0  0
   37.6520   23.1650   33.2550 C   0  0  0  0  0  0  0  0  0  0  0  0
   35.6580   24.7430   30.3460 H   0  0  0  0  0  0  0  0  0  0  0  0
   36.0070   22.3340   30.3970 H   0  0  0  0  0  0  0  0  0  0  0  0
   37.2600   21.3150   32.2170 H   0  0  0  0  0  0  0  0  0  0  0  0
   38.1790   22.6410   34.0100 H   0  0  0  0  0  0  0  0  0  0  0  0
   38.0890   25.5160   34.5110 S   0  0  0  0  0  0  0  0  0  0  0  0
   39.2840   26.2950   34.0450 O   0  0  0  0  0  0  0  0  0  0  0  0
   36.9940   26.4580   35.0000 O   0  0  0  0  0  0  0  0  0  0  0  0
   38.5660   24.5610   35.8540 C   0  0  0  0  0  0  0  0  0  0  0  0
   37.7600   24.3330   36.9610 C   0  0  0  0  0  0  0  0  0  0  0  0
   36.7840   24.7970   36.9810 H   0  0  0  0  0  0  0  0  0  0  0  0
   38.1300   23.5600   38.0190 C   0  0  0  0  0  3  0  0  0  0  0  0
   39.3830   22.9730   37.9770 C   0  0  0  0  0  3  0  0  0  0  0  0
   40.2210   23.1750   36.8890 C   0  0  0  0  0  0  0  0  0  0  0  0
   41.4400   22.5360   36.9880 C   0  0  0  0  0  3  0  0  0  0  0  0
   42.3340   22.6910   35.9540 C   0  0  0  0  0  3  0  0  0  0  0  0
   41.9740   23.4730   34.8760 C   0  0  0  0  0  3  0  0  0  0  0  0
   40.7580   24.1030   34.7900 C   0  0  0  0  0  3  0  0  0  0  0  0
   39.8300   23.9630   35.8240 C   0  0  0  0  0  0  0  0  0  0  0  0
   36.5790   26.4380   32.2120 O   0  0  0  0  0  0  0  0  0  0  0  0
   38.6970   27.3800   30.9160 O   0  0  0  0  0  0  0  0  0  0  0  0
   37.1880   27.5790   31.1240 P   0  0  1  0  0  0  0  0  0  0  0  0
   36.3540   27.5060   29.6470 O   0  0  0  0  0  0  0  0  0  0  0  0
   35.4160   27.3190   29.8330 H   0  0  0  0  0  0  0  0  0  0  0  0
   37.0580   29.1650   31.7390 O   0  0  0  0  0  0  0  0  0  0  0  0
   35.7580   29.6290   31.4850 C   0  0  0  0  0  0  0  0  0  0  0  0
   35.1770   28.8100   31.0590 H   0  0  0  0  0  0  0  0  0  0  0  0
   35.8410   30.4070   30.6770 H   0  0  0  0  0  0  0  0  0  0  0  0
   35.5040   29.9310   33.9190 C   0  0  0  0  0  3  0  0  0  0  0  0
   35.1260   30.2000   32.6960 C   0  0  0  0  0  3  0  0  0  0  0  0
   32.9220   30.9360   36.3100 C   0  0  0  0  0  0  0  0  0  0  0  0
   33.6240   31.8330   37.1330 C   0  0  0  0  0  0  0  0  0  0  0  0
   34.9700   32.0780   36.8530 C   0  0  0  0  0  0  0  0  0  0  0  0
   35.4790   31.3980   35.7750 N   0  0  0  0  0  0  0  0  0  0  0  0
   34.7980   30.5610   35.0180 C   0  0  0  0  0  0  0  0  0  0  0  0
   33.5170   30.3380   35.2970 N   0  0  0  0  0  0  0  0  0  0  0  0
   31.8610   30.7040   36.4810 H   0  0  0  0  0  0  0  0  0  0  0  0
   33.1170   32.3120   37.9580 H   0  0  0  0  0  0  0  0  0  0  0  0
   35.5460   32.7560   37.4560 H   0  0  0  0  0  0  0  0  0  0  0  0
  1  6  1  0  0  0  0
  1 11  1  0  0  0  0
  2 25  1  0  0  0  0
  2  1  2  0  0  0  0
  3  4  2  0  0  0  0
  3  2  1  0  0  0  0
  4  5  1  0  0  0  0
  5  6  2  0  0  0  0
  6 10  1  0  0  0  0
  7  3  1  0  0  0  0
  8  4  1  0  0  0  0
  9  5  1  0  0  0  0
 11 13  2  0  0  0  0
 11 14  1  0  0  0  0
 12 11  2  0  0  0  0
 14 15  1  0  0  0  0
 15 16  1  0  0  0  0
 15 17  2  0  0  0  0
 18 17  1  0  0  0  0
 19 20  1  0  0  0  0
 19 18  2  0  0  0  0
 21 20  2  0  0  0  0
 22 21  1  0  0  0  0
 23 22  2  0  0  0  0
 23 24  1  0  0  0  0
 24 14  2  0  0  0  0
 24 19  1  0  0  0  0
 27 26  2  6  0  0  0
 27 30  1  0  0  0  0
 27 25  1  0  0  0  0
 28 29  1  0  0  0  0
 28 27  1  0  0  0  0
 31 30  1  0  0  0  0
 31 35  1  0  0  0  0
 32 31  1  0  0  0  0
 33 31  1  0  0  0  0
 34 40  1  0  0  0  0
 35 34  2  0  0  0  0
 36 42  1  0  0  0  0
 36 37  1  0  0  0  0
 37 43  1  0  0  0  0
 38 37  2  0  0  0  0
 38 44  1  0  0  0  0
 39 38  1  0  0  0  0
 40 41  1  0  0  0  0
 40 39  2  0  0  0  0
 41 36  2  0  0  0  0
M  END
>  <minimizedAffinity>
-6.86544943

$$$$

 OpenBabel03262520363D

 44 47  0  0  0  0  0  0  0  0999 V2000
   39.6390   26.1080   33.7560 C   0  0  0  0  0  0  0  0  0  0  0  0
   39.8010   26.5310   32.4240 C   0  0  0  0  0  0  0  0  0  0  0  0
   40.9070   27.2230   32.0040 C   0  0  0  0  0  0  0  0  0  0  0  0
   41.8910   27.5120   32.9140 C   0  0  0  0  0  0  0  0  0  0  0  0
   41.7580   27.1160   34.2060 C   0  0  0  0  0  0  0  0  0  0  0  0
   40.6680   26.4230   34.6650 C   0  0  0  0  0  0  0  0  0  0  0  0
   40.9420   27.5040   30.9660 H   0  0  0  0  0  0  0  0  0  0  0  0
   42.7340   28.0600   32.5170 H   0  0  0  0  0  0  0  0  0  0  0  0
   42.5870   27.3910   34.8520 H   0  0  0  0  0  0  0  0  0  0  0  0
   40.6860   26.1660   35.6930 H   0  0  0  0  0  0  0  0  0  0  0  0
   38.2740   25.2110   34.3540 S   0  0  0  0  0  0  0  0  0  0  0  0
   37.0680   26.0970   34.4620 O   0  0  0  0  0  0  0  0  0  0  0  0
   38.0050   24.0560   33.3960 O   0  0  0  0  0  0  0  0  0  0  0  0
   38.5690   24.5230   35.8980 C   0  0  0  0  0  0  0  0  0  0  0  0
   37.8630   24.8680   37.0430 C   0  0  0  0  0  0  0  0  0  0  0  0
   37.0970   25.6250   36.9560 H   0  0  0  0  0  0  0  0  0  0  0  0
   38.0840   24.3080   38.2640 C   0  0  0  0  0  3  0  0  0  0  0  0
   39.0700   23.3400   38.3580 C   0  0  0  0  0  3  0  0  0  0  0  0
   39.7980   22.9650   37.2370 C   0  0  0  0  0  0  0  0  0  0  0  0
   40.7510   21.9970   37.4810 C   0  0  0  0  0  3  0  0  0  0  0  0
   41.5240   21.5730   36.4240 C   0  0  0  0  0  3  0  0  0  0  0  0
   41.3130   22.1320   35.1810 C   0  0  0  0  0  3  0  0  0  0  0  0
   40.3620   23.0950   34.9520 C   0  0  0  0  0  3  0  0  0  0  0  0
   39.5620   23.5430   36.0050 C   0  0  0  0  0  0  0  0  0  0  0  0
   38.7230   26.1560   31.6490 O   0  0  0  0  0  0  0  0  0  0  0  0
   38.2130   27.8310   29.6520 O   0  0  0  0  0  0  0  0  0  0  0  0
   37.6070   27.1860   30.9070 P   0  0  1  0  0  0  0  0  0  0  0  0
   36.1760   26.3520   30.5340 O   0  0  0  0  0  0  0  0  0  0  0  0
   35.9980   25.7140   31.2480 H   0  0  0  0  0  0  0  0  0  0  0  0
   37.2140   28.5110   31.9060 O   0  0  0  0  0  0  0  0  0  0  0  0
   35.8570   28.8170   31.7170 C   0  0  0  0  0  0  0  0  0  0  0  0
   35.3080   27.8830   31.5900 H   0  0  0  0  0  0  0  0  0  0  0  0
   35.7780   29.3620   30.7370 H   0  0  0  0  0  0  0  0  0  0  0  0
   35.6820   29.5350   34.0700 C   0  0  0  0  0  3  0  0  0  0  0  0
   35.3140   29.6440   32.8200 C   0  0  0  0  0  3  0  0  0  0  0  0
   35.1540   32.0330   36.6900 C   0  0  0  0  0  0  0  0  0  0  0  0
   33.7580   31.9910   36.8530 C   0  0  0  0  0  0  0  0  0  0  0  0
   33.0230   31.1060   36.0610 C   0  0  0  0  0  0  0  0  0  0  0  0
   33.7610   30.3510   35.1840 N   0  0  0  0  0  0  0  0  0  0  0  0
   35.0710   30.4100   35.0520 C   0  0  0  0  0  0  0  0  0  0  0  0
   35.7570   31.2570   35.8130 N   0  0  0  0  0  0  0  0  0  0  0  0
   35.7840   32.7080   37.2860 H   0  0  0  0  0  0  0  0  0  0  0  0
   33.2840   32.6360   37.5780 H   0  0  0  0  0  0  0  0  0  0  0  0
   31.9550   31.0410   36.1500 H   0  0  0  0  0  0  0  0  0  0  0  0
  1 11  1  0  0  0  0
  1  6  1  0  0  0  0
  2  1  2  0  0  0  0
  3  2  1  0  0  0  0
  3  4  2  0  0  0  0
  4  5  1  0  0  0  0
  5  6  2  0  0  0  0
  5  9  1  0  0  0  0
  6 10  1  0  0  0  0
  7  3  1  0  0  0  0
  8  4  1  0  0  0  0
 11 12  2  0  0  0  0
 11 14  1  0  0  0  0
 13 11  2  0  0  0  0
 14 24  2  0  0  0  0
 14 15  1  0  0  0  0
 15 17  2  0  0  0  0
 16 15  1  0  0  0  0
 17 18  1  0  0  0  0
 19 20  1  0  0  0  0
 19 18  2  0  0  0  0
 21 20  2  0  0  0  0
 22 21  1  0  0  0  0
 23 22  2  0  0  0  0
 23 24  1  0  0  0  0
 24 19  1  0  0  0  0
 25  2  1  0  0  0  0
 27 26  2  6  0  0  0
 27 25  1  0  0  0  0
 27 30  1  0  0  0  0
 28 27  1  0  0  0  0
 28 29  1  0  0  0  0
 31 30  1  0  0  0  0
 31 35  1  0  0  0  0
 32 31  1  0  0  0  0
 33 31  1  0  0  0  0
 34 40  1  0  0  0  0
 35 34  2  0  0  0  0
 36 37  1  0  0  0  0
 36 42  1  0  0  0  0
 37 43  1  0  0  0  0
 38 44  1  0  0  0  0
 38 37  2  0  0  0  0
 39 38  1  0  0  0  0
 40 39  2  0  0  0  0
 40 41  1  0  0  0  0
 41 36  2  0  0  0  0
M  END
>  <minimizedAffinity>
-6.85767794

$$$$

 OpenBabel03262520363D

 44 47  0  0  0  0  0  0  0  0999 V2000
   38.0780   23.5930   32.6920 C   0  0  0  0  0  0  0  0  0  0  0  0
   37.3040   24.2840   31.7420 C   0  0  0  0  0  0  0  0  0  0  0  0
   36.1070   23.7990   31.2800 C   0  0  0  0  0  0  0  0  0  0  0  0
   35.6500   22.6000   31.7620 C   0  0  0  0  0  0  0  0  0  0  0  0
   36.3790   21.9140   32.6790 C   0  0  0  0  0  0  0  0  0  0  0  0
   37.5790   22.3640   33.1650 C   0  0  0  0  0  0  0  0  0  0  0  0
   35.5860   24.3990   30.5540 H   0  0  0  0  0  0  0  0  0  0  0  0
   34.7010   22.2760   31.3570 H   0  0  0  0  0  0  0  0  0  0  0  0
   35.9360   20.9750   33.0000 H   0  0  0  0  0  0  0  0  0  0  0  0
   38.0490   21.7390   33.8810 H   0  0  0  0  0  0  0  0  0  0  0  0
   39.5940   24.1560   33.3360 S   0  0  0  0  0  0  0  0  0  0  0  0
   40.6900   23.9860   32.3270 O   0  0  0  0  0  0  0  0  0  0  0  0
   39.4360   25.6250   33.7130 O   0  0  0  0  0  0  0  0  0  0  0  0
   40.0490   23.3190   34.7640 C   0  0  0  0  0  0  0  0  0  0  0  0
   41.0630   22.3740   34.8120 C   0  0  0  0  0  0  0  0  0  0  0  0
   41.5830   22.1420   33.8930 H   0  0  0  0  0  0  0  0  0  0  0  0
   41.4380   21.7230   35.9480 C   0  0  0  0  0  3  0  0  0  0  0  0
   40.7620   22.0320   37.1160 C   0  0  0  0  0  3  0  0  0  0  0  0
   39.7410   22.9730   37.1120 C   0  0  0  0  0  0  0  0  0  0  0  0
   39.1520   23.1720   38.3450 C   0  0  0  0  0  3  0  0  0  0  0  0
   38.1250   24.0840   38.4270 C   0  0  0  0  0  3  0  0  0  0  0  0
   37.7330   24.7490   37.2840 C   0  0  0  0  0  3  0  0  0  0  0  0
   38.3270   24.5410   36.0640 C   0  0  0  0  0  3  0  0  0  0  0  0
   39.3730   23.6230   35.9510 C   0  0  0  0  0  0  0  0  0  0  0  0
   37.9100   25.4650   31.3700 O   0  0  0  0  0  0  0  0  0  0  0  0
   38.2530   28.0980   31.4360 O   0  0  0  0  0  0  0  0  0  0  0  0
   37.1920   26.9940   31.3150 P   0  0  1  0  0  0  0  0  0  0  0  0
   36.2800   27.1790   29.8950 O   0  0  0  0  0  0  0  0  0  0  0  0
   35.8560   26.3260   29.6890 H   0  0  0  0  0  0  0  0  0  0  0  0
   36.1650   27.2550   32.6520 O   0  0  0  0  0  0  0  0  0  0  0  0
   36.9530   27.6750   33.7350 C   0  0  0  0  0  0  0  0  0  0  0  0
   37.9190   28.0060   33.3510 H   0  0  0  0  0  0  0  0  0  0  0  0
   37.1610   26.7640   34.3610 H   0  0  0  0  0  0  0  0  0  0  0  0
   35.2550   29.4200   34.1270 C   0  0  0  0  0  3  0  0  0  0  0  0
   36.2790   28.7190   34.5410 C   0  0  0  0  0  3  0  0  0  0  0  0
   32.9150   31.5320   35.9840 C   0  0  0  0  0  0  0  0  0  0  0  0
   33.7870   32.3250   36.7510 C   0  0  0  0  0  0  0  0  0  0  0  0
   35.1620   32.1200   36.6170 C   0  0  0  0  0  0  0  0  0  0  0  0
   35.5260   31.1410   35.7270 N   0  0  0  0  0  0  0  0  0  0  0  0
   34.6870   30.4120   35.0190 C   0  0  0  0  0  0  0  0  0  0  0  0
   33.3810   30.6180   35.1570 N   0  0  0  0  0  0  0  0  0  0  0  0
   31.8240   31.6480   36.0460 H   0  0  0  0  0  0  0  0  0  0  0  0
   33.3830   33.0680   37.4230 H   0  0  0  0  0  0  0  0  0  0  0  0
   35.8650   32.7020   37.1840 H   0  0  0  0  0  0  0  0  0  0  0  0
  1  6  1  0  0  0  0
  1 11  1  0  0  0  0
  2  1  2  0  0  0  0
  3  2  1  0  0  0  0
  3  4  2  0  0  0  0
  4  5  1  0  0  0  0
  5  9  1  0  0  0  0
  5  6  2  0  0  0  0
  6 10  1  0  0  0  0
  7  3  1  0  0  0  0
  8  4  1  0  0  0  0
 11 13  2  0  0  0  0
 11 14  1  0  0  0  0
 12 11  2  0  0  0  0
 14 15  2  0  0  0  0
 14 24  1  0  0  0  0
 15 17  1  0  0  0  0
 16 15  1  0  0  0  0
 17 18  2  0  0  0  0
 19 18  1  0  0  0  0
 19 20  1  0  0  0  0
 20 21  2  0  0  0  0
 22 21  1  0  0  0  0
 23 22  2  0  0  0  0
 24 23  1  0  0  0  0
 24 19  2  0  0  0  0
 25  2  1  0  0  0  0
 27 25  1  0  0  0  0
 27 26  2  1  0  0  0
 27 30  1  0  0  0  0
 28 27  1  0  0  0  0
 29 28  1  0  0  0  0
 30 31  1  0  0  0  0
 31 33  1  0  0  0  0
 31 35  1  0  0  0  0
 32 31  1  0  0  0  0
 34 35  2  0  0  0  0
 34 40  1  0  0  0  0
 36 42  1  0  0  0  0
 36 37  1  0  0  0  0
 37 43  1  0  0  0  0
 38 37  2  0  0  0  0
 38 44  1  0  0  0  0
 39 38  1  0  0  0  0
 40 41  1  0  0  0  0
 40 39  2  0  0  0  0
 41 36  2  0  0  0  0
M  END
>  <minimizedAffinity>
-6.79093409

$$$$

 OpenBabel03262520363D

 44 47  0  0  0  0  0  0  0  0999 V2000
   38.0610   21.7380   32.3000 C   0  0  0  0  0  0  0  0  0  0  0  0
   36.8440   22.3190   31.9020 C   0  0  0  0  0  0  0  0  0  0  0  0
   35.9270   21.6480   31.1340 C   0  0  0  0  0  0  0  0  0  0  0  0
   36.2080   20.3650   30.7410 C   0  0  0  0  0  0  0  0  0  0  0  0
   37.3760   19.7810   31.1120 C   0  0  0  0  0  0  0  0  0  0  0  0
   38.3180   20.4190   31.8780 C   0  0  0  0  0  0  0  0  0  0  0  0
   35.0250   22.1760   30.8800 H   0  0  0  0  0  0  0  0  0  0  0  0
   35.4440   19.8940   30.1380 H   0  0  0  0  0  0  0  0  0  0  0  0
   37.5090   18.7650   30.7520 H   0  0  0  0  0  0  0  0  0  0  0  0
   39.1860   19.8530   32.1040 H   0  0  0  0  0  0  0  0  0  0  0  0
   39.2600   22.5210   33.2880 S   0  0  0  0  0  0  0  0  0  0  0  0
   40.3380   21.5520   33.6750 O   0  0  0  0  0  0  0  0  0  0  0  0
   39.8460   23.6850   32.4950 O   0  0  0  0  0  0  0  0  0  0  0  0
   38.5950   23.1800   34.7250 C   0  0  0  0  0  0  0  0  0  0  0  0
   37.9120   22.4300   35.6730 C   0  0  0  0  0  0  0  0  0  0  0  0
   37.7810   21.3740   35.4830 H   0  0  0  0  0  0  0  0  0  0  0  0
   37.4010   22.9490   36.8230 C   0  0  0  0  0  3  0  0  0  0  0  0
   37.5780   24.3030   37.0510 C   0  0  0  0  0  3  0  0  0  0  0  0
   38.2550   25.0900   36.1290 C   0  0  0  0  0  0  0  0  0  0  0  0
   38.3490   26.4200   36.4830 C   0  0  0  0  0  3  0  0  0  0  0  0
   38.9990   27.2720   35.6200 C   0  0  0  0  0  3  0  0  0  0  0  0
   39.5210   26.7620   34.4500 C   0  0  0  0  0  3  0  0  0  0  0  0
   39.4210   25.4360   34.1090 C   0  0  0  0  0  3  0  0  0  0  0  0
   38.7680   24.5480   34.9670 C   0  0  0  0  0  0  0  0  0  0  0  0
   36.7260   23.6060   32.3840 O   0  0  0  0  0  0  0  0  0  0  0  0
   37.8320   25.1510   30.5280 O   0  0  0  0  0  0  0  0  0  0  0  0
   36.6230   25.0220   31.4660 P   0  0  1  0  0  0  0  0  0  0  0  0
   35.1670   25.0670   30.5940 O   0  0  0  0  0  0  0  0  0  0  0  0
   34.4660   24.6760   31.1460 H   0  0  0  0  0  0  0  0  0  0  0  0
   36.7070   26.4140   32.4470 O   0  0  0  0  0  0  0  0  0  0  0  0
   35.9840   27.4400   31.8170 C   0  0  0  0  0  0  0  0  0  0  0  0
   34.9360   27.1400   31.7650 H   0  0  0  0  0  0  0  0  0  0  0  0
   36.3490   27.4910   30.7550 H   0  0  0  0  0  0  0  0  0  0  0  0
   35.2660   29.3040   33.2630 C   0  0  0  0  0  3  0  0  0  0  0  0
   36.1650   28.7440   32.4960 C   0  0  0  0  0  3  0  0  0  0  0  0
   35.9690   32.8570   33.7810 C   0  0  0  0  0  0  0  0  0  0  0  0
   36.1500   32.9160   35.1740 C   0  0  0  0  0  0  0  0  0  0  0  0
   36.0270   31.7360   35.9110 C   0  0  0  0  0  0  0  0  0  0  0  0
   35.7360   30.6130   35.1770 N   0  0  0  0  0  0  0  0  0  0  0  0
   35.5720   30.5860   33.8690 C   0  0  0  0  0  0  0  0  0  0  0  0
   35.6920   31.7170   33.1820 N   0  0  0  0  0  0  0  0  0  0  0  0
   36.0550   33.7530   33.1500 H   0  0  0  0  0  0  0  0  0  0  0  0
   36.3770   33.8610   35.6450 H   0  0  0  0  0  0  0  0  0  0  0  0
   36.1560   31.7340   36.9770 H   0  0  0  0  0  0  0  0  0  0  0  0
  1 11  1  0  0  0  0
  2  1  1  0  0  0  0
  2 25  1  0  0  0  0
  3  2  2  0  0  0  0
  4  5  2  0  0  0  0
  4  3  1  0  0  0  0
  5  6  1  0  0  0  0
  6 10  1  0  0  0  0
  6  1  2  0  0  0  0
  7  3  1  0  0  0  0
  8  4  1  0  0  0  0
  9  5  1  0  0  0  0
 11 12  2  0  0  0  0
 11 14  1  0  0  0  0
 13 11  2  0  0  0  0
 14 24  2  0  0  0  0
 14 15  1  0  0  0  0
 15 17  2  0  0  0  0
 16 15  1  0  0  0  0
 17 18  1  0  0  0  0
 19 20  1  0  0  0  0
 19 18  2  0  0  0  0
 21 20  2  0  0  0  0
 22 21  1  0  0  0  0
 23 22  2  0  0  0  0
 23 24  1  0  0  0  0
 24 19  1  0  0  0  0
 27 26  2  6  0  0  0
 27 25  1  0  0  0  0
 27 30  1  0  0  0  0
 28 29  1  0  0  0  0
 28 27  1  0  0  0  0
 31 30  1  0  0  0  0
 31 35  1  0  0  0  0
 32 31  1  0  0  0  0
 33 31  1  0  0  0  0
 34 40  1  0  0  0  0
 35 34  2  0  0  0  0
 36 37  1  0  0  0  0
 37 43  1  0  0  0  0
 37 38  2  0  0  0  0
 38 44  1  0  0  0  0
 39 38  1  0  0  0  0
 40 39  2  0  0  0  0
 41 36  2  0  0  0  0
 41 40  1  0  0  0  0
 42 36  1  0  0  0  0
M  END
>  <minimizedAffinity>
-6.42728662

$$$$

 OpenBabel03262520363D

 44 47  0  0  0  0  0  0  0  0999 V2000
   39.2480   23.4970   35.5330 C   0  0  0  0  0  0  0  0  0  0  0  0
   38.3690   24.4810   36.0230 C   0  0  0  0  0  0  0  0  0  0  0  0
   38.0000   24.5420   37.3420 C   0  0  0  0  0  0  0  0  0  0  0  0
   38.5050   23.6120   38.2140 C   0  0  0  0  0  0  0  0  0  0  0  0
   39.3550   22.6520   37.7650 C   0  0  0  0  0  0  0  0  0  0  0  0
   39.7480   22.5570   36.4550 C   0  0  0  0  0  0  0  0  0  0  0  0
   37.3240   25.3300   37.6230 H   0  0  0  0  0  0  0  0  0  0  0  0
   38.1740   23.7170   39.2370 H   0  0  0  0  0  0  0  0  0  0  0  0
   39.7020   21.9610   38.5290 H   0  0  0  0  0  0  0  0  0  0  0  0
   40.4180   21.7670   36.2330 H   0  0  0  0  0  0  0  0  0  0  0  0
   39.7740   23.3710   33.8800 S   0  0  0  0  0  0  0  0  0  0  0  0
   40.7710   24.4460   33.5610 O   0  0  0  0  0  0  0  0  0  0  0  0
   40.3930   21.9910   33.6800 O   0  0  0  0  0  0  0  0  0  0  0  0
   38.4750   23.5020   32.7670 C   0  0  0  0  0  0  0  0  0  0  0  0
   38.4350   24.4300   31.7350 C   0  0  0  0  0  0  0  0  0  0  0  0
   39.2630   25.1170   31.6410 H   0  0  0  0  0  0  0  0  0  0  0  0
   37.4130   24.5220   30.8400 C   0  0  0  0  0  3  0  0  0  0  0  0
   36.3590   23.6330   30.9760 C   0  0  0  0  0  3  0  0  0  0  0  0
   36.3600   22.6890   31.9940 C   0  0  0  0  0  0  0  0  0  0  0  0
   35.2440   21.8780   32.0110 C   0  0  0  0  0  3  0  0  0  0  0  0
   35.1610   20.9180   32.9940 C   0  0  0  0  0  3  0  0  0  0  0  0
   36.1870   20.8140   33.9090 C   0  0  0  0  0  3  0  0  0  0  0  0
   37.2930   21.6280   33.8810 C   0  0  0  0  0  3  0  0  0  0  0  0
   37.4040   22.6100   32.8940 C   0  0  0  0  0  0  0  0  0  0  0  0
   37.9610   25.3290   35.0160 O   0  0  0  0  0  0  0  0  0  0  0  0
   38.7220   27.5750   36.2110 O   0  0  0  0  0  0  0  0  0  0  0  0
   38.3580   26.9640   34.8510 P   0  0  1  0  0  0  0  0  0  0  0  0
   39.6230   27.1640   33.7350 O   0  0  0  0  0  0  0  0  0  0  0  0
   39.5050   26.5160   33.0170 H   0  0  0  0  0  0  0  0  0  0  0  0
   37.0240   27.8850   34.3230 O   0  0  0  0  0  0  0  0  0  0  0  0
   36.5960   27.3720   33.0890 C   0  0  0  0  0  0  0  0  0  0  0  0
   35.5090   27.2820   33.1110 H   0  0  0  0  0  0  0  0  0  0  0  0
   36.9960   26.3240   33.0140 H   0  0  0  0  0  0  0  0  0  0  0  0
   36.4960   28.2240   30.7770 C   0  0  0  0  0  3  0  0  0  0  0  0
   37.0700   28.1950   31.9510 C   0  0  0  0  0  3  0  0  0  0  0  0
   38.3740   29.4570   27.8890 C   0  0  0  0  0  0  0  0  0  0  0  0
   38.0360   30.8220   27.8850 C   0  0  0  0  0  0  0  0  0  0  0  0
   37.1700   31.2950   28.8740 C   0  0  0  0  0  0  0  0  0  0  0  0
   36.7290   30.3520   29.7680 N   0  0  0  0  0  0  0  0  0  0  0  0
   37.0630   29.0770   29.7490 C   0  0  0  0  0  0  0  0  0  0  0  0
   37.8870   28.6410   28.8020 N   0  0  0  0  0  0  0  0  0  0  0  0
   39.0510   29.0280   27.1360 H   0  0  0  0  0  0  0  0  0  0  0  0
   38.4460   31.4730   27.1270 H   0  0  0  0  0  0  0  0  0  0  0  0
   36.8850   32.3300   28.9090 H   0  0  0  0  0  0  0  0  0  0  0  0
  1  2  2  0  0  0  0
  1  6  1  0  0  0  0
  2  3  1  0  0  0  0
  3  7  1  0  0  0  0
  3  4  2  0  0  0  0
  4  8  1  0  0  0  0
  5  4  1  0  0  0  0
  5  9  1  0  0  0  0
  6  5  2  0  0  0  0
 10  6  1  0  0  0  0
 11  1  1  0  0  0  0
 12 11  2  0  0  0  0
 13 11  2  0  0  0  0
 14 24  1  0  0  0  0
 14 11  1  0  0  0  0
 15 14  2  0  0  0  0
 16 15  1  0  0  0  0
 17 18  2  0  0  0  0
 17 15  1  0  0  0  0
 18 19  1  0  0  0  0
 19 20  2  0  0  0  0
 19 24  1  0  0  0  0
 20 21  1  0  0  0  0
 21 22  2  0  0  0  0
 23 22  1  0  0  0  0
 24 23  2  0  0  0  0
 25  2  1  0  0  0  0
 27 25  1  0  0  0  0
 27 26  2  1  0  0  0
 28 27  1  0  0  0  0
 29 28  1  0  0  0  0
 30 27  1  0  0  0  0
 31 32  1  0  0  0  0
 31 30  1  0  0  0  0
 33 31  1  0  0  0  0
 34 35  2  0  0  0  0
 35 31  1  0  0  0  0
 36 41  1  0  0  0  0
 37 36  2  0  0  0  0
 37 38  1  0  0  0  0
 38 44  1  0  0  0  0
 38 39  2  0  0  0  0
 40 39  1  0  0  0  0
 40 34  1  0  0  0  0
 41 40  2  0  0  0  0
 42 36  1  0  0  0  0
 43 37  1  0  0  0  0
M  END
>  <minimizedAffinity>
-6.30303049

$$$$

 OpenBabel03262520363D

 44 47  0  0  0  0  0  0  0  0999 V2000
   39.8570   23.3030   36.0940 C   0  0  0  0  0  0  0  0  0  0  0  0
   38.8580   24.2780   35.9190 C   0  0  0  0  0  0  0  0  0  0  0  0
   38.0420   24.6810   36.9440 C   0  0  0  0  0  0  0  0  0  0  0  0
   38.2050   24.1150   38.1820 C   0  0  0  0  0  0  0  0  0  0  0  0
   39.1620   23.1720   38.3760 C   0  0  0  0  0  0  0  0  0  0  0  0
   39.9970   22.7410   37.3780 C   0  0  0  0  0  0  0  0  0  0  0  0
   37.3070   25.4330   36.7140 H   0  0  0  0  0  0  0  0  0  0  0  0
   37.5290   24.4780   38.9430 H   0  0  0  0  0  0  0  0  0  0  0  0
   39.2150   22.7810   39.3880 H   0  0  0  0  0  0  0  0  0  0  0  0
   40.7060   22.0040   37.6580 H   0  0  0  0  0  0  0  0  0  0  0  0
   40.9400   22.7560   34.8460 S   0  0  0  0  0  0  0  0  0  0  0  0
   41.7920   21.6270   35.3460 O   0  0  0  0  0  0  0  0  0  0  0  0
   40.1050   22.3080   33.6520 O   0  0  0  0  0  0  0  0  0  0  0  0
   41.9800   24.0030   34.2900 C   0  0  0  0  0  0  0  0  0  0  0  0
   41.8690   24.5980   33.0420 C   0  0  0  0  0  0  0  0  0  0  0  0
   41.0930   24.2430   32.3790 H   0  0  0  0  0  0  0  0  0  0  0  0
   42.6820   25.6010   32.6070 C   0  0  0  0  0  3  0  0  0  0  0  0
   43.6710   26.0440   33.4690 C   0  0  0  0  0  3  0  0  0  0  0  0
   43.8160   25.4750   34.7270 C   0  0  0  0  0  0  0  0  0  0  0  0
   44.8470   26.0100   35.4720 C   0  0  0  0  0  3  0  0  0  0  0  0
   45.0650   25.4980   36.7310 C   0  0  0  0  0  3  0  0  0  0  0  0
   44.2520   24.4810   37.1840 C   0  0  0  0  0  3  0  0  0  0  0  0
   43.2290   23.9570   36.4320 C   0  0  0  0  0  3  0  0  0  0  0  0
   42.9840   24.4590   35.1520 C   0  0  0  0  0  0  0  0  0  0  0  0
   38.8340   24.7380   34.6200 O   0  0  0  0  0  0  0  0  0  0  0  0
   39.1910   27.3310   35.0710 O   0  0  0  0  0  0  0  0  0  0  0  0
   38.5330   26.3230   34.1170 P   0  0  1  0  0  0  0  0  0  0  0  0
   39.0650   26.5580   32.5220 O   0  0  0  0  0  0  0  0  0  0  0  0
   38.8930   25.7420   32.0170 H   0  0  0  0  0  0  0  0  0  0  0  0
   36.8720   26.7020   34.1920 O   0  0  0  0  0  0  0  0  0  0  0  0
   36.6820   27.9640   33.6050 C   0  0  0  0  0  0  0  0  0  0  0  0
   36.0720   27.8390   32.7090 H   0  0  0  0  0  0  0  0  0  0  0  0
   37.6900   28.3150   33.2520 H   0  0  0  0  0  0  0  0  0  0  0  0
   35.0770   29.7090   34.2810 C   0  0  0  0  0  3  0  0  0  0  0  0
   36.0940   28.9360   34.5560 C   0  0  0  0  0  3  0  0  0  0  0  0
   34.8960   32.2700   36.8880 C   0  0  0  0  0  0  0  0  0  0  0  0
   33.5270   32.2610   37.2080 C   0  0  0  0  0  0  0  0  0  0  0  0
   32.6900   31.3770   36.5230 C   0  0  0  0  0  0  0  0  0  0  0  0
   33.3100   30.5880   35.5860 N   0  0  0  0  0  0  0  0  0  0  0  0
   34.5980   30.6170   35.3060 C   0  0  0  0  0  0  0  0  0  0  0  0
   35.3810   31.4640   35.9650 N   0  0  0  0  0  0  0  0  0  0  0  0
   35.6020   32.9440   37.3930 H   0  0  0  0  0  0  0  0  0  0  0  0
   33.1500   32.9310   37.9670 H   0  0  0  0  0  0  0  0  0  0  0  0
   31.6380   31.3360   36.7340 H   0  0  0  0  0  0  0  0  0  0  0  0
  1  6  1  0  0  0  0
  2  1  2  0  0  0  0
  2  3  1  0  0  0  0
  3  4  2  0  0  0  0
  4  5  1  0  0  0  0
  4  8  1  0  0  0  0
  5  9  1  0  0  0  0
  6 10  1  0  0  0  0
  6  5  2  0  0  0  0
  7  3  1  0  0  0  0
 11 12  2  0  0  0  0
 11  1  1  0  0  0  0
 13 11  2  0  0  0  0
 14 11  1  0  0  0  0
 14 24  1  0  0  0  0
 15 14  2  0  0  0  0
 16 15  1  0  0  0  0
 17 15  1  0  0  0  0
 17 18  2  0  0  0  0
 18 19  1  0  0  0  0
 19 24  2  0  0  0  0
 19 20  1  0  0  0  0
 20 21  2  0  0  0  0
 21 22  1  0  0  0  0
 23 22  2  0  0  0  0
 24 23  1  0  0  0  0
 25  2  1  0  0  0  0
 27 30  1  0  0  0  0
 27 25  1  0  0  0  0
 27 26  2  1  0  0  0
 28 27  1  0  0  0  0
 29 28  1  0  0  0  0
 31 30  1  0  0  0  0
 31 35  1  0  0  0  0
 32 31  1  0  0  0  0
 33 31  1  0  0  0  0
 34 35  2  0  0  0  0
 34 40  1  0  0  0  0
 36 37  1  0  0  0  0
 36 42  1  0  0  0  0
 37 43  1  0  0  0  0
 38 44  1  0  0  0  0
 38 37  2  0  0  0  0
 39 38  1  0  0  0  0
 40 39  2  0  0  0  0
 40 41  1  0  0  0  0
 41 36  2  0  0  0  0
M  END
>  <minimizedAffinity>
-6.28714371

$$$$

 OpenBabel03262520363D

 44 47  0  0  0  0  0  0  0  0999 V2000
   39.7660   26.4970   33.6720 C   0  0  0  0  0  0  0  0  0  0  0  0
   38.4540   26.5320   33.1680 C   0  0  0  0  0  0  0  0  0  0  0  0
   37.3850   26.9200   33.9330 C   0  0  0  0  0  0  0  0  0  0  0  0
   37.6030   27.2860   35.2360 C   0  0  0  0  0  0  0  0  0  0  0  0
   38.8610   27.2600   35.7470 C   0  0  0  0  0  0  0  0  0  0  0  0
   39.9550   26.8790   35.0150 C   0  0  0  0  0  0  0  0  0  0  0  0
   36.4180   26.9140   33.4600 H   0  0  0  0  0  0  0  0  0  0  0  0
   36.7180   27.5800   35.7830 H   0  0  0  0  0  0  0  0  0  0  0  0
   38.9340   27.5660   36.7870 H   0  0  0  0  0  0  0  0  0  0  0  0
   40.8830   26.9070   35.5270 H   0  0  0  0  0  0  0  0  0  0  0  0
   41.1710   26.0370   32.7550 S   0  0  0  0  0  0  0  0  0  0  0  0
   41.0440   24.6220   32.2720 O   0  0  0  0  0  0  0  0  0  0  0  0
   41.3060   26.9950   31.5760 O   0  0  0  0  0  0  0  0  0  0  0  0
   42.6190   26.1600   33.6680 C   0  0  0  0  0  0  0  0  0  0  0  0
   43.5110   27.2170   33.5580 C   0  0  0  0  0  0  0  0  0  0  0  0
   43.2860   27.9970   32.8440 H   0  0  0  0  0  0  0  0  0  0  0  0
   44.6500   27.3250   34.2960 C   0  0  0  0  0  3  0  0  0  0  0  0
   44.9240   26.3170   35.2050 C   0  0  0  0  0  3  0  0  0  0  0  0
   44.0570   25.2410   35.3460 C   0  0  0  0  0  0  0  0  0  0  0  0
   44.4610   24.3110   36.2830 C   0  0  0  0  0  3  0  0  0  0  0  0
   43.6620   23.2080   36.4800 C   0  0  0  0  0  3  0  0  0  0  0  0
   42.5060   23.0840   35.7390 C   0  0  0  0  0  3  0  0  0  0  0  0
   42.1150   24.0170   34.8100 C   0  0  0  0  0  3  0  0  0  0  0  0
   42.9060   25.1470   34.5900 C   0  0  0  0  0  0  0  0  0  0  0  0
   38.4180   26.1360   31.8480 O   0  0  0  0  0  0  0  0  0  0  0  0
   36.0360   25.6650   30.7700 O   0  0  0  0  0  0  0  0  0  0  0  0
   37.3650   25.0040   31.1620 P   0  0  1  0  0  0  0  0  0  0  0  0
   38.0860   24.2470   29.8250 O   0  0  0  0  0  0  0  0  0  0  0  0
   39.0340   24.1230   30.0160 H   0  0  0  0  0  0  0  0  0  0  0  0
   36.9170   23.8020   32.2860 O   0  0  0  0  0  0  0  0  0  0  0  0
   38.0360   22.9920   32.5330 C   0  0  0  0  0  0  0  0  0  0  0  0
   38.8400   23.3000   31.8610 H   0  0  0  0  0  0  0  0  0  0  0  0
   37.7570   21.9460   32.2280 H   0  0  0  0  0  0  0  0  0  0  0  0
   37.6800   23.4450   34.9300 C   0  0  0  0  0  3  0  0  0  0  0  0
   38.4460   23.0290   33.9560 C   0  0  0  0  0  3  0  0  0  0  0  0
   39.6860   22.7130   37.9020 C   0  0  0  0  0  0  0  0  0  0  0  0
   39.0660   23.5170   38.8750 C   0  0  0  0  0  0  0  0  0  0  0  0
   37.9710   24.2960   38.4930 C   0  0  0  0  0  0  0  0  0  0  0  0
   37.6060   24.1910   37.1740 N   0  0  0  0  0  0  0  0  0  0  0  0
   38.2050   23.4280   36.2830 C   0  0  0  0  0  0  0  0  0  0  0  0
   39.2460   22.6920   36.6590 N   0  0  0  0  0  0  0  0  0  0  0  0
   40.5500   22.0790   38.1430 H   0  0  0  0  0  0  0  0  0  0  0  0
   39.4430   23.5190   39.8870 H   0  0  0  0  0  0  0  0  0  0  0  0
   37.4670   24.9260   39.2030 H   0  0  0  0  0  0  0  0  0  0  0  0
  1  6  1  0  0  0  0
  2  1  2  0  0  0  0
  2  3  1  0  0  0  0
  3  4  2  0  0  0  0
  4  5  1  0  0  0  0
  4  8  1  0  0  0  0
  5  9  1  0  0  0  0
  6 10  1  0  0  0  0
  6  5  2  0  0  0  0
  7  3  1  0  0  0  0
 11 14  1  0  0  0  0
 11  1  1  0  0  0  0
 12 11  2  0  0  0  0
 13 11  2  0  0  0  0
 14 24  1  0  0  0  0
 15 14  2  0  0  0  0
 15 17  1  0  0  0  0
 16 15  1  0  0  0  0
 17 18  2  0  0  0  0
 18 19  1  0  0  0  0
 19 20  1  0  0  0  0
 20 21  2  0  0  0  0
 22 21  1  0  0  0  0
 23 22  2  0  0  0  0
 24 23  1  0  0  0  0
 24 19  2  0  0  0  0
 25  2  1  0  0  0  0
 27 26  2  6  0  0  0
 27 25  1  0  0  0  0
 27 30  1  0  0  0  0
 28 29  1  0  0  0  0
 28 27  1  0  0  0  0
 30 31  1  0  0  0  0
 31 35  1  0  0  0  0
 32 31  1  0  0  0  0
 33 31  1  0  0  0  0
 34 40  1  0  0  0  0
 35 34  2  0  0  0  0
 36 42  1  0  0  0  0
 36 37  1  0  0  0  0
 37 43  1  0  0  0  0
 38 37  2  0  0  0  0
 38 44  1  0  0  0  0
 39 38  1  0  0  0  0
 40 41  1  0  0  0  0
 40 39  2  0  0  0  0
 41 36  2  0  0  0  0
M  END
>  <minimizedAffinity>
-6.12081432

$$$$

 OpenBabel03262520363D

 44 47  0  0  0  0  0  0  0  0999 V2000
   40.9190   26.6230   31.8150 C   0  0  0  0  0  0  0  0  0  0  0  0
   40.0200   27.1850   30.8910 C   0  0  0  0  0  0  0  0  0  0  0  0
   40.3790   28.2030   30.0450 C   0  0  0  0  0  0  0  0  0  0  0  0
   41.6600   28.6890   30.1030 C   0  0  0  0  0  0  0  0  0  0  0  0
   42.5460   28.1630   30.9870 C   0  0  0  0  0  0  0  0  0  0  0  0
   42.2270   27.1460   31.8480 C   0  0  0  0  0  0  0  0  0  0  0  0
   39.6230   28.5680   29.3730 H   0  0  0  0  0  0  0  0  0  0  0  0
   41.8760   29.4900   29.4100 H   0  0  0  0  0  0  0  0  0  0  0  0
   43.5350   28.6140   30.9590 H   0  0  0  0  0  0  0  0  0  0  0  0
   43.0090   26.8200   32.4850 H   0  0  0  0  0  0  0  0  0  0  0  0
   40.5400   25.3190   32.9030 S   0  0  0  0  0  0  0  0  0  0  0  0
   39.7540   24.2550   32.1950 O   0  0  0  0  0  0  0  0  0  0  0  0
   41.8490   24.7500   33.4400 O   0  0  0  0  0  0  0  0  0  0  0  0
   39.6280   25.8420   34.2590 C   0  0  0  0  0  0  0  0  0  0  0  0
   39.2700   27.1640   34.4820 C   0  0  0  0  0  0  0  0  0  0  0  0
   39.5990   27.9050   33.7680 H   0  0  0  0  0  0  0  0  0  0  0  0
   38.5290   27.5770   35.5480 C   0  0  0  0  0  3  0  0  0  0  0  0
   38.1160   26.6140   36.4530 C   0  0  0  0  0  3  0  0  0  0  0  0
   38.4520   25.2800   36.2670 C   0  0  0  0  0  0  0  0  0  0  0  0
   37.9790   24.4360   37.2510 C   0  0  0  0  0  3  0  0  0  0  0  0
   38.2740   23.0960   37.1460 C   0  0  0  0  0  3  0  0  0  0  0  0
   39.0250   22.6630   36.0730 C   0  0  0  0  0  3  0  0  0  0  0  0
   39.4890   23.5130   35.1010 C   0  0  0  0  0  3  0  0  0  0  0  0
   39.2040   24.8780   35.1800 C   0  0  0  0  0  0  0  0  0  0  0  0
   38.7840   26.5790   30.9680 O   0  0  0  0  0  0  0  0  0  0  0  0
   37.3150   28.3800   29.6830 O   0  0  0  0  0  0  0  0  0  0  0  0
   37.2790   27.3310   30.8040 P   0  0  1  0  0  0  0  0  0  0  0  0
   36.0610   26.1820   30.5240 O   0  0  0  0  0  0  0  0  0  0  0  0
   36.2630   25.3870   31.0500 H   0  0  0  0  0  0  0  0  0  0  0  0
   36.8680   28.2250   32.1970 O   0  0  0  0  0  0  0  0  0  0  0  0
   36.2920   29.4370   31.7870 C   0  0  0  0  0  0  0  0  0  0  0  0
   35.5790   29.2270   30.9880 H   0  0  0  0  0  0  0  0  0  0  0  0
   37.1130   30.0480   31.3210 H   0  0  0  0  0  0  0  0  0  0  0  0
   35.6410   29.7280   34.1470 C   0  0  0  0  0  3  0  0  0  0  0  0
   35.6730   30.1680   32.9170 C   0  0  0  0  0  3  0  0  0  0  0  0
   35.0370   32.0990   36.8680 C   0  0  0  0  0  0  0  0  0  0  0  0
   33.6410   32.0180   37.0170 C   0  0  0  0  0  0  0  0  0  0  0  0
   32.9320   31.1520   36.1820 C   0  0  0  0  0  0  0  0  0  0  0  0
   33.6930   30.4520   35.2800 N   0  0  0  0  0  0  0  0  0  0  0  0
   35.0030   30.5460   35.1610 C   0  0  0  0  0  0  0  0  0  0  0  0
   35.6640   31.3750   35.9630 N   0  0  0  0  0  0  0  0  0  0  0  0
   35.6470   32.7620   37.4970 H   0  0  0  0  0  0  0  0  0  0  0  0
   33.1470   32.6210   37.7660 H   0  0  0  0  0  0  0  0  0  0  0  0
   31.8650   31.0590   36.2600 H   0  0  0  0  0  0  0  0  0  0  0  0
  1  6  1  0  0  0  0
  1 11  1  0  0  0  0
  2 25  1  0  0  0  0
  2  1  2  0  0  0  0
  3  4  2  0  0  0  0
  3  2  1  0  0  0  0
  4  5  1  0  0  0  0
  5  6  2  0  0  0  0
  6 10  1  0  0  0  0
  7  3  1  0  0  0  0
  8  4  1  0  0  0  0
  9  5  1  0  0  0  0
 11 13  2  0  0  0  0
 11 14  1  0  0  0  0
 12 11  2  0  0  0  0
 14 15  2  0  0  0  0
 14 24  1  0  0  0  0
 15 17  1  0  0  0  0
 16 15  1  0  0  0  0
 17 18  2  0  0  0  0
 19 18  1  0  0  0  0
 19 20  1  0  0  0  0
 21 20  2  0  0  0  0
 22 21  1  0  0  0  0
 23 24  1  0  0  0  0
 23 22  2  0  0  0  0
 24 19  2  0  0  0  0
 27 26  2  6  0  0  0
 27 25  1  0  0  0  0
 27 30  1  0  0  0  0
 28 27  1  0  0  0  0
 28 29  1  0  0  0  0
 31 30  1  0  0  0  0
 31 35  1  0  0  0  0
 32 31  1  0  0  0  0
 33 31  1  0  0  0  0
 34 40  1  0  0  0  0
 35 34  2  0  0  0  0
 36 37  1  0  0  0  0
 36 42  1  0  0  0  0
 37 43  1  0  0  0  0
 38 44  1  0  0  0  0
 38 37  2  0  0  0  0
 39 38  1  0  0  0  0
 40 39  2  0  0  0  0
 40 41  1  0  0  0  0
 41 36  2  0  0  0  0
M  END
>  <minimizedAffinity>
-6.11981678

$$$$
