
 OpenBabel03262520463D

 36 39  0  0  1  0  0  0  0  0999 V2000
   37.9620   32.3810   47.8900 C   0  0  1  0  0  0  0  0  0  0  0  0
   39.3660   32.7530   47.4360 C   0  0  0  0  0  0  0  0  0  0  0  0
   38.8890   31.3570   47.3440 C   0  0  2  0  0  0  0  0  0  0  0  0
   37.1700   32.8410   47.2690 H   0  0  0  0  0  0  0  0  0  0  0  0
   40.1350   32.9680   48.2350 H   0  0  0  0  0  0  0  0  0  0  0  0
   39.5110   33.3160   46.5050 H   0  0  0  0  0  0  0  0  0  0  0  0
   39.2390   30.6210   48.1270 H   0  0  0  0  0  0  0  0  0  0  0  0
   37.7510   32.4910   49.3800 C   0  0  0  0  0  0  0  0  0  0  0  0
   38.7320   32.5090   49.9110 H   0  0  0  0  0  0  0  0  0  0  0  0
   37.2460   33.4650   49.5620 H   0  0  0  0  0  0  0  0  0  0  0  0
   36.7660   29.5220   51.4390 C   0  0  0  0  0  0  0  0  0  0  0  0
   37.5250   30.6260   50.9170 C   0  0  0  0  0  0  0  0  0  0  0  0
   36.9540   31.3640   49.9000 C   0  0  0  0  0  0  0  0  0  0  0  0
   35.7310   31.0210   49.4490 N   0  0  0  0  0  0  0  0  0  0  0  0
   35.0380   29.9850   49.9510 C   0  0  0  0  0  0  0  0  0  0  0  0
   35.5610   29.2540   50.9310 N   0  0  0  0  0  0  0  0  0  0  0  0
   37.1850   28.9400   52.2210 H   0  0  0  0  0  0  0  0  0  0  0  0
   38.5020   30.8280   51.3420 H   0  0  0  0  0  0  0  0  0  0  0  0
   34.0860   29.9140   49.4250 H   0  0  0  0  0  0  0  0  0  0  0  0
   38.4750   30.7080   46.0610 C   0  0  0  0  0  0  0  0  0  0  0  0
   37.9000   29.8080   46.2580 H   0  0  0  0  0  0  0  0  0  0  0  0
   37.7590   31.3880   45.4970 H   0  0  0  0  0  0  0  0  0  0  0  0
   39.6240   30.4510   45.1170 C   0  0  0  0  0  0  0  0  0  0  0  0
   39.7170   29.3410   45.0240 H   0  0  0  0  0  0  0  0  0  0  0  0
   40.5770   30.7780   45.6240 H   0  0  0  0  0  0  0  0  0  0  0  0
   39.4690   31.1360   43.8130 C   0  0  0  0  0  0  0  0  0  0  0  0
   38.6110   32.2240   43.7710 C   0  0  0  0  0  0  0  0  0  0  0  0
   38.0580   32.6300   44.5930 H   0  0  0  0  0  0  0  0  0  0  0  0
   38.4090   32.8980   42.5630 C   0  0  0  0  0  0  0  0  0  0  0  0
   39.0690   32.4720   41.4200 C   0  0  0  0  0  0  0  0  0  0  0  0
   39.9240   31.3820   41.4740 C   0  0  0  0  0  0  0  0  0  0  0  0
   40.6060   30.9250   40.3670 C   0  0  0  0  0  0  0  0  0  0  0  0
   41.4780   29.8370   40.3820 C   0  0  0  0  0  0  0  0  0  0  0  0
   41.6580   29.1870   41.6000 C   0  0  0  0  0  0  0  0  0  0  0  0
   40.9740   29.6480   42.7040 C   0  0  0  0  0  0  0  0  0  0  0  0
   40.1250   30.7100   42.6790 C   0  0  0  0  0  0  0  0  0  0  0  0
  1  4  1  6  0  0  0
  1  8  1  0  0  0  0
  2  1  1  0  0  0  0
  2  5  1  0  0  0  0
  3  2  1  0  0  0  0
  3  1  1  0  0  0  0
  3  7  1  1  0  0  0
  6  2  1  0  0  0  0
  8 10  1  0  0  0  0
  8 13  1  0  0  0  0
  8  9  1  0  0  0  0
 11 17  1  0  0  0  0
 12 18  1  0  0  0  0
 12 11  2  0  0  0  0
 13 12  1  0  0  0  0
 14 13  2  0  0  0  0
 14 15  1  0  0  0  0
 15 16  2  0  0  0  0
 16 11  1  0  0  0  0
 19 15  1  0  0  0  0
 20 21  1  0  0  0  0
 20  3  1  0  0  0  0
 22 20  1  0  0  0  0
 23 25  1  0  0  0  0
 23 20  1  0  0  0  0
 24 23  1  0  0  0  0
 26 23  1  0  0  0  0
 27 26  1  0  0  0  0
 27 28  1  0  0  0  0
 29 27  2  0  0  0  0
 30 31  2  0  0  0  0
 30 29  1  0  0  0  0
 31 36  1  0  0  0  0
 32 33  2  0  0  0  0
 32 31  1  0  0  0  0
 33 34  1  0  0  0  0
 34 35  2  0  0  0  0
 36 35  1  0  0  0  0
 36 26  2  0  0  0  0
M  END
>  <minimizedAffinity>
-5.91474009

>  <minimizedRMSD>
2.52125525

$$$$
