
 OpenBabel03272503503D

 39 42  0  0  1  0  0  0  0  0999 V2000
   33.1710   27.3910   45.7040 C   0  0  1  0  0  0  0  0  0  0  0  0
   33.9810   27.4920   47.0150 C   0  0  2  0  0  0  0  0  0  0  0  0
   33.9180   26.2380   47.5330 O   0  0  0  0  0  0  0  0  0  0  0  0
   34.1920   25.4090   46.4560 C   0  0  0  0  0  0  0  0  0  0  0  0
   33.5930   26.0290   45.2110 C   0  0  2  0  0  0  0  0  0  0  0  0
   33.4800   28.2110   45.0280 H   0  0  0  0  0  0  0  0  0  0  0  0
   34.9910   27.8110   46.6700 H   0  0  0  0  0  0  0  0  0  0  0  0
   35.2620   25.1730   46.3400 H   0  0  0  0  0  0  0  0  0  0  0  0
   33.6580   24.4520   46.6320 H   0  0  0  0  0  0  0  0  0  0  0  0
   32.7000   25.4720   44.8710 H   0  0  0  0  0  0  0  0  0  0  0  0
   31.8210   27.5190   45.9630 O   0  0  0  0  0  0  0  0  0  0  0  0
   31.4110   28.2100   45.3810 H   0  0  0  0  0  0  0  0  0  0  0  0
   33.3550   28.4830   47.7260 O   0  0  0  0  0  0  0  0  0  0  0  0
   35.3680   29.8940   46.7540 O   0  0  0  0  0  0  0  0  0  0  0  0
   34.0920   29.9900   47.5860 P   0  0  1  0  0  0  0  0  0  0  0  0
   33.0890   31.0510   46.7280 O   0  0  0  0  0  0  0  0  0  0  0  0
   32.3420   31.2700   47.3670 H   0  0  0  0  0  0  0  0  0  0  0  0
   34.3570   30.5600   49.1730 O   0  0  0  0  0  0  0  0  0  0  0  0
   35.5990   30.4650   49.7840 C   0  0  0  0  0  0  0  0  0  0  0  0
   35.9640   29.4570   50.7080 C   0  0  0  0  0  0  0  0  0  0  0  0
   37.2470   29.4940   51.2360 C   0  0  0  0  0  0  0  0  0  0  0  0
   38.0920   30.5000   50.8400 N   0  0  0  0  0  0  0  0  0  0  0  0
   37.7140   31.4540   49.9520 C   0  0  0  0  0  0  0  0  0  0  0  0
   36.4630   31.4390   49.4200 N   0  0  0  0  0  0  0  0  0  0  0  0
   35.2240   28.7340   50.9340 H   0  0  0  0  0  0  0  0  0  0  0  0
   37.5180   28.7370   51.9280 H   0  0  0  0  0  0  0  0  0  0  0  0
   38.3910   32.2390   49.6500 H   0  0  0  0  0  0  0  0  0  0  0  0
   34.5430   26.1400   44.2320 O   0  0  0  0  0  0  0  0  0  0  0  0
   35.1870   25.0520   43.7030 C   0  0  0  0  0  0  0  0  0  0  0  0
   34.8490   23.7330   43.6290 C   0  0  0  0  0  0  0  0  0  0  0  0
   33.8990   23.4740   44.0620 H   0  0  0  0  0  0  0  0  0  0  0  0
   35.6380   22.7680   43.0490 C   0  0  0  0  0  0  0  0  0  0  0  0
   36.8570   23.0920   42.4910 C   0  0  0  0  0  0  0  0  0  0  0  0
   37.2300   24.4360   42.5520 C   0  0  0  0  0  0  0  0  0  0  0  0
   38.4580   24.7050   41.9810 C   0  0  0  0  0  0  0  0  0  0  0  0
   38.9160   26.0000   41.9890 C   0  0  0  0  0  0  0  0  0  0  0  0
   38.1520   26.9900   42.5610 C   0  0  0  0  0  0  0  0  0  0  0  0
   36.9300   26.6860   43.1230 C   0  0  0  0  0  0  0  0  0  0  0  0
   36.4200   25.4050   43.1440 C   0  0  0  0  0  0  0  0  0  0  0  0
  1  6  1  6  0  0  0
  1 11  1  0  0  0  0
  1  2  1  0  0  0  0
  2  7  1  6  0  0  0
  2  3  1  0  0  0  0
  2 13  1  0  0  0  0
  4  9  1  0  0  0  0
  4  3  1  0  0  0  0
  5 10  1  6  0  0  0
  5  1  1  0  0  0  0
  5  4  1  0  0  0  0
  8  4  1  0  0  0  0
 12 11  1  0  0  0  0
 15 14  2  6  0  0  0
 15 13  1  0  0  0  0
 15 18  1  0  0  0  0
 16 17  1  0  0  0  0
 16 15  1  0  0  0  0
 18 19  1  0  0  0  0
 19 20  1  0  0  0  0
 20 25  1  0  0  0  0
 20 21  2  0  0  0  0
 21 26  1  0  0  0  0
 22 21  1  0  0  0  0
 23 22  2  0  0  0  0
 24 19  2  0  0  0  0
 24 23  1  0  0  0  0
 27 23  1  0  0  0  0
 28  5  1  0  0  0  0
 29 28  1  0  0  0  0
 30 29  1  0  0  0  0
 30 31  1  0  0  0  0
 32 30  2  0  0  0  0
 33 34  2  0  0  0  0
 33 32  1  0  0  0  0
 34 39  1  0  0  0  0
 35 36  2  0  0  0  0
 35 34  1  0  0  0  0
 36 37  1  0  0  0  0
 37 38  2  0  0  0  0
 38 39  1  0  0  0  0
 39 29  2  0  0  0  0
M  END
>  <minimizedAffinity>
-4.45324516

>  <minimizedRMSD>
3.24066377

$$$$
