
 OpenBabel03272508513D

 31 34  0  0  1  0  0  0  0  0999 V2000
   39.6520   30.3310   42.9400 C   0  0  2  0  0  0  0  0  0  0  0  0
   39.6310   28.9040   43.2300 C   0  0  0  0  0  0  0  0  0  0  0  0
   38.6210   29.8760   43.8650 C   0  0  1  0  0  0  0  0  0  0  0  0
   40.4210   30.9980   43.4320 H   0  0  0  0  0  0  0  0  0  0  0  0
   40.3940   28.5150   43.9320 H   0  0  0  0  0  0  0  0  0  0  0  0
   39.2490   28.1910   42.4590 H   0  0  0  0  0  0  0  0  0  0  0  0
   37.5950   29.5680   43.6090 H   0  0  0  0  0  0  0  0  0  0  0  0
   39.7550   31.6470   39.4730 C   0  0  0  0  0  0  0  0  0  0  0  0
   38.3900   31.9620   39.2460 C   0  0  0  0  0  0  0  0  0  0  0  0
   37.4380   31.7160   40.2930 C   0  0  0  0  0  0  0  0  0  0  0  0
   37.9190   31.1900   41.4520 N   0  0  0  0  0  0  0  0  0  0  0  0
   39.2340   30.9030   41.6220 C   0  0  0  0  0  0  0  0  0  0  0  0
   40.1530   31.1210   40.6590 N   0  0  0  0  0  0  0  0  0  0  0  0
   40.4270   31.8550   38.6460 H   0  0  0  0  0  0  0  0  0  0  0  0
   38.0640   32.3850   38.2920 H   0  0  0  0  0  0  0  0  0  0  0  0
   36.4260   31.9630   40.0890 H   0  0  0  0  0  0  0  0  0  0  0  0
   38.0510   31.0780   45.9460 C   0  0  0  0  0  0  0  0  0  0  0  0
   37.1280   31.6640   45.3200 O   0  0  0  0  0  0  0  0  0  0  0  0
   38.8580   30.1060   45.2950 N   0  0  0  0  0  0  0  0  0  0  0  0
   39.5710   29.6280   45.9150 H   0  0  0  0  0  0  0  0  0  0  0  0
   38.1470   31.5200   47.3300 C   0  0  0  0  0  0  0  0  0  0  0  0
   38.9000   32.6940   47.4560 C   0  0  0  0  0  0  0  0  0  0  0  0
   39.3610   33.2250   46.6400 H   0  0  0  0  0  0  0  0  0  0  0  0
   39.1130   33.2820   48.6900 C   0  0  0  0  0  3  0  0  0  0  0  0
   38.5890   32.7280   49.8510 C   0  0  0  0  0  3  0  0  0  0  0  0
   37.8400   31.5560   49.7060 C   0  0  0  0  0  0  0  0  0  0  0  0
   37.2890   30.9450   50.7990 C   0  0  0  0  0  3  0  0  0  0  0  0
   36.5410   29.7720   50.6530 C   0  0  0  0  0  3  0  0  0  0  0  0
   36.3480   29.2100   49.3850 C   0  0  0  0  0  3  0  0  0  0  0  0
   36.9090   29.8270   48.2650 C   0  0  0  0  0  3  0  0  0  0  0  0
   37.6290   30.9730   48.4780 C   0  0  0  0  0  0  0  0  0  0  0  0
  1  2  1  0  0  0  0
  1  4  1  1  0  0  0
  1  3  1  0  0  0  0
  2  3  1  0  0  0  0
  2  5  1  0  0  0  0
  3  7  1  6  0  0  0
  3 19  1  0  0  0  0
  6  2  1  0  0  0  0
  8 13  1  0  0  0  0
  9  8  2  0  0  0  0
  9 10  1  0  0  0  0
 10 11  2  0  0  0  0
 11 12  1  0  0  0  0
 12  1  1  0  0  0  0
 13 12  2  0  0  0  0
 14  8  1  0  0  0  0
 15  9  1  0  0  0  0
 16 10  1  0  0  0  0
 17 21  1  0  0  0  0
 18 17  2  0  0  0  0
 19 20  1  0  0  0  0
 19 17  1  0  0  0  0
 21 22  2  0  0  0  0
 21 31  1  0  0  0  0
 22 24  1  0  0  0  0
 23 22  1  0  0  0  0
 24 25  2  0  0  0  0
 26 25  1  0  0  0  0
 26 27  1  0  0  0  0
 28 27  2  0  0  0  0
 29 28  1  0  0  0  0
 30 31  1  0  0  0  0
 30 29  2  0  0  0  0
 31 26  2  0  0  0  0
M  END
>  <minimizedAffinity>
-5.99250793

>  <minimizedRMSD>
5.04260111

$$$$
