
 OpenBabel03272508573D

 42 46  0  0  1  0  0  0  0  0999 V2000
   38.4100   31.7650   43.7770 C   0  0  0  0  0  0  0  0  0  0  0  0
   39.6050   31.0910   43.6100 C   0  0  0  0  0  0  0  0  0  0  0  0
   40.1890   31.1420   42.3590 C   0  0  0  0  0  0  0  0  0  0  0  0
   39.5690   31.8430   41.3630 C   0  0  0  0  0  0  0  0  0  0  0  0
   38.3560   32.5240   41.5370 C   0  0  0  0  0  0  0  0  0  0  0  0
   37.8180   32.4510   42.7700 N   0  0  0  0  0  0  0  0  0  0  0  0
   40.1030   30.5340   44.3930 H   0  0  0  0  0  0  0  0  0  0  0  0
   41.1180   30.6620   42.1030 H   0  0  0  0  0  0  0  0  0  0  0  0
   39.9890   31.9090   40.3740 H   0  0  0  0  0  0  0  0  0  0  0  0
   37.7640   31.7290   45.1040 C   0  0  0  0  0  0  0  0  0  0  0  0
   36.8040   30.9870   45.3360 O   0  0  0  0  0  0  0  0  0  0  0  0
   38.2970   32.5990   46.1320 N   0  0  0  0  0  0  0  0  0  0  0  0
   38.9580   33.3690   45.9400 H   0  0  0  0  0  0  0  0  0  0  0  0
   38.5410   31.3960   48.2980 C   0  0  2  0  0  0  0  0  0  0  0  0
   38.9080   32.8150   48.5480 C   0  0  0  0  0  0  0  0  0  0  0  0
   37.8720   32.3690   47.4960 C   0  0  1  0  0  0  0  0  0  0  0  0
   39.3500   30.7630   47.8760 H   0  0  0  0  0  0  0  0  0  0  0  0
   39.8750   33.1630   48.1940 H   0  0  0  0  0  0  0  0  0  0  0  0
   38.5420   33.2900   49.4770 H   0  0  0  0  0  0  0  0  0  0  0  0
   36.8430   32.6880   47.7630 H   0  0  0  0  0  0  0  0  0  0  0  0
   36.1130   29.0340   49.8290 C   0  0  0  0  0  0  0  0  0  0  0  0
   36.3800   29.2070   51.2140 C   0  0  0  0  0  0  0  0  0  0  0  0
   37.3990   30.1570   51.6100 C   0  0  0  0  0  0  0  0  0  0  0  0
   38.0660   30.8490   50.6380 N   0  0  0  0  0  0  0  0  0  0  0  0
   37.7530   30.6290   49.3330 C   0  0  0  0  0  0  0  0  0  0  0  0
   36.7870   29.7330   48.8890 N   0  0  0  0  0  0  0  0  0  0  0  0
   35.3530   28.3220   49.6060 H   0  0  0  0  0  0  0  0  0  0  0  0
   35.8770   28.6820   51.9850 H   0  0  0  0  0  0  0  0  0  0  0  0
   37.5990   30.2860   52.6560 H   0  0  0  0  0  0  0  0  0  0  0  0
   37.7220   33.2420   40.4460 C   0  0  0  0  0  0  0  0  0  0  0  0
   38.3770   34.1120   39.8230 O   0  0  0  0  0  0  0  0  0  0  0  0
   36.3750   33.1160   39.9190 C   0  0  0  0  0  0  0  0  0  0  0  0
   36.1330   32.1930   38.8960 C   0  0  0  0  0  0  0  0  0  0  0  0
   36.9950   31.6150   38.5340 H   0  0  0  0  0  0  0  0  0  0  0  0
   34.9110   31.9470   38.3070 C   0  0  0  0  0  0  0  0  0  0  0  0
   33.8290   32.6740   38.7610 C   0  0  0  0  0  0  0  0  0  0  0  0
   34.0090   33.5990   39.7690 C   0  0  0  0  0  0  0  0  0  0  0  0
   32.9330   34.3300   40.2220 C   0  0  0  0  0  0  0  0  0  0  0  0
   33.1000   35.2690   41.2330 C   0  0  0  0  0  0  0  0  0  0  0  0
   34.3650   35.4750   41.7910 C   0  0  0  0  0  0  0  0  0  0  0  0
   35.4160   34.7290   41.3150 C   0  0  0  0  0  0  0  0  0  0  0  0
   35.2530   33.8060   40.3230 C   0  0  0  0  0  0  0  0  0  0  0  0
  1 10  1  0  0  0  0
  2  1  1  0  0  0  0
  2  7  1  0  0  0  0
  3  2  2  0  0  0  0
  4  5  2  0  0  0  0
  4  3  1  0  0  0  0
  5  6  1  0  0  0  0
  6  1  2  0  0  0  0
  8  3  1  0  0  0  0
  9  4  1  0  0  0  0
 10 11  2  0  0  0  0
 10 12  1  0  0  0  0
 12 16  1  0  0  0  0
 13 12  1  0  0  0  0
 14 17  1  6  0  0  0
 14 15  1  0  0  0  0
 14 25  1  0  0  0  0
 15 19  1  0  0  0  0
 16 20  1  1  0  0  0
 16 14  1  0  0  0  0
 16 15  1  0  0  0  0
 18 15  1  0  0  0  0
 21 22  1  0  0  0  0
 22 23  2  0  0  0  0
 22 28  1  0  0  0  0
 23 29  1  0  0  0  0
 24 23  1  0  0  0  0
 25 24  2  0  0  0  0
 26 25  1  0  0  0  0
 26 21  2  0  0  0  0
 27 21  1  0  0  0  0
 30  5  1  0  0  0  0
 31 30  2  0  0  0  0
 32 42  1  0  0  0  0
 32 30  1  0  0  0  0
 33 32  2  0  0  0  0
 34 33  1  0  0  0  0
 35 36  2  0  0  0  0
 35 33  1  0  0  0  0
 36 37  1  0  0  0  0
 37 38  2  0  0  0  0
 37 42  1  0  0  0  0
 38 39  1  0  0  0  0
 39 40  2  0  0  0  0
 41 40  1  0  0  0  0
 42 41  2  0  0  0  0
M  END
>  <minimizedAffinity>
-5.91115713

>  <minimizedRMSD>
3.62479806

$$$$
