
 OpenBabel03262521153D

 21 23  0  0  0  0  0  0  0  0999 V2000
   35.5620   29.9710   47.8920 C   0  0  0  0  0  0  0  0  0  0  0  0
   36.1740   30.4920   46.7470 C   0  0  0  0  0  0  0  0  0  0  0  0
   35.7640   30.5050   45.7520 H   0  0  0  0  0  0  0  0  0  0  0  0
   37.4490   31.0630   46.8450 C   0  0  0  0  0  0  0  0  0  0  0  0
   38.1310   31.1310   48.0520 C   0  0  0  0  0  0  0  0  0  0  0  0
   37.4970   30.6090   49.1580 C   0  0  0  0  0  0  0  0  0  0  0  0
   38.0980   30.6350   50.4180 C   0  0  0  0  0  0  0  0  0  0  0  0
   37.4040   30.0940   51.5060 C   0  0  0  0  0  0  0  0  0  0  0  0
   36.1440   29.5320   51.3990 C   0  0  0  0  0  0  0  0  0  0  0  0
   35.5610   29.5140   50.1420 C   0  0  0  0  0  0  0  0  0  0  0  0
   36.2580   30.0500   49.0810 C   0  0  0  0  0  0  0  0  0  0  0  0
   34.3210   29.4540   47.5970 O   0  0  0  0  0  0  0  0  0  0  0  0
   34.0050   28.1740   47.2170 C   0  0  0  0  0  0  0  0  0  0  0  0
   33.6660   28.1130   45.8620 C   0  0  0  0  0  0  0  0  0  0  0  0
   33.3140   26.8890   45.3000 C   0  0  0  0  0  0  0  0  0  0  0  0
   33.3190   25.8000   46.1110 N   0  0  0  0  0  0  0  0  0  0  0  0
   33.6510   25.8830   47.4280 C   0  0  0  0  0  0  0  0  0  0  0  0
   33.9880   27.0420   47.9720 N   0  0  0  0  0  0  0  0  0  0  0  0
   33.6450   28.9340   45.1740 H   0  0  0  0  0  0  0  0  0  0  0  0
   33.0410   26.7630   44.2600 H   0  0  0  0  0  0  0  0  0  0  0  0
   33.6570   25.0180   48.0800 H   0  0  0  0  0  0  0  0  0  0  0  0
  1 11  1  0  0  0  0
  2  4  1  0  0  0  0
  2  1  2  0  0  0  0
  3  2  1  0  0  0  0
  4  5  2  0  0  0  0
  5  6  1  0  0  0  0
  6  7  1  0  0  0  0
  7  8  2  0  0  0  0
  9  8  1  0  0  0  0
 10  9  2  0  0  0  0
 11  6  2  0  0  0  0
 11 10  1  0  0  0  0
 12  1  1  0  0  0  0
 13 12  1  0  0  0  0
 13 18  1  0  0  0  0
 14 13  2  0  0  0  0
 15 14  1  0  0  0  0
 15 16  2  0  0  0  0
 16 17  1  0  0  0  0
 17 18  2  0  0  0  0
 17 21  1  0  0  0  0
 19 14  1  0  0  0  0
 20 15  1  0  0  0  0
M  END
>  <minimizedAffinity>
-5.62384462

>  <minimizedRMSD>
6.39153337

$$$$
