
 OpenBabel03272501303D

 22 24  0  0  0  0  0  0  0  0999 V2000
   37.8330   31.7600   48.1150 C   0  0  0  0  0  0  0  0  0  0  0  0
   38.2500   32.9330   48.3400 O   0  0  0  0  0  0  0  0  0  0  0  0
   37.7090   31.1970   46.7530 C   0  0  0  0  0  0  0  0  0  0  0  0
   36.4310   30.7450   46.4010 C   0  0  0  0  0  0  0  0  0  0  0  0
   35.6030   30.8290   47.1220 H   0  0  0  0  0  0  0  0  0  0  0  0
   36.1000   30.1870   45.1990 C   0  0  0  0  0  3  0  0  0  0  0  0
   37.0910   30.0540   44.2570 C   0  0  0  0  0  3  0  0  0  0  0  0
   38.3580   30.4910   44.5800 C   0  0  0  0  0  0  0  0  0  0  0  0
   39.4300   30.4020   43.6900 C   0  0  0  0  0  3  0  0  0  0  0  0
   40.7000   30.8390   44.0070 C   0  0  0  0  0  3  0  0  0  0  0  0
   40.9550   31.3960   45.2510 C   0  0  0  0  0  3  0  0  0  0  0  0
   39.9250   31.5050   46.1630 C   0  0  0  0  0  3  0  0  0  0  0  0
   38.6790   31.0530   45.7960 C   0  0  0  0  0  0  0  0  0  0  0  0
   37.4720   30.1370   51.4650 C   0  0  0  0  0  0  0  0  0  0  0  0
   37.8980   31.0550   50.4780 C   0  0  0  0  0  0  0  0  0  0  0  0
   37.4330   30.8500   49.1870 C   0  0  0  0  0  0  0  0  0  0  0  0
   36.6050   29.7840   48.9560 N   0  0  0  0  0  0  0  0  0  0  0  0
   36.2250   28.9370   49.9130 C   0  0  0  0  0  0  0  0  0  0  0  0
   36.6480   29.0990   51.1670 N   0  0  0  0  0  0  0  0  0  0  0  0
   37.8340   30.3050   52.4570 H   0  0  0  0  0  0  0  0  0  0  0  0
   38.5390   31.8770   50.6750 H   0  0  0  0  0  0  0  0  0  0  0  0
   35.5750   28.0950   49.7460 H   0  0  0  0  0  0  0  0  0  0  0  0
  1  2  2  0  0  0  0
  1 16  1  0  0  0  0
  3  1  1  0  0  0  0
  4  3  1  0  0  0  0
  4  5  1  0  0  0  0
  6  4  2  0  0  0  0
  7  8  2  0  0  0  0
  7  6  1  0  0  0  0
  8 13  1  0  0  0  0
  9 10  2  0  0  0  0
  9  8  1  0  0  0  0
 10 11  1  0  0  0  0
 11 12  2  0  0  0  0
 13 12  1  0  0  0  0
 13  3  2  0  0  0  0
 14 20  1  0  0  0  0
 15 21  1  0  0  0  0
 15 14  2  0  0  0  0
 16 15  1  0  0  0  0
 17 16  2  0  0  0  0
 17 18  1  0  0  0  0
 18 19  2  0  0  0  0
 19 14  1  0  0  0  0
 22 18  1  0  0  0  0
M  END
>  <minimizedAffinity>
-5.73657656

>  <minimizedRMSD>
1.09786296

$$$$
