
 OpenBabel03272503493D

 39 42  0  0  1  0  0  0  0  0999 V2000
   33.1980   27.2820   45.8830 C   0  0  1  0  0  0  0  0  0  0  0  0
   33.8730   27.4470   47.2630 C   0  0  2  0  0  0  0  0  0  0  0  0
   33.6730   26.2470   47.8670 O   0  0  0  0  0  0  0  0  0  0  0  0
   34.0020   25.3160   46.8950 C   0  0  0  0  0  0  0  0  0  0  0  0
   33.5790   25.8620   45.5470 C   0  0  2  0  0  0  0  0  0  0  0  0
   33.6300   28.0230   45.1830 H   0  0  0  0  0  0  0  0  0  0  0  0
   34.9310   27.6780   47.0070 H   0  0  0  0  0  0  0  0  0  0  0  0
   35.0620   25.0100   46.9150 H   0  0  0  0  0  0  0  0  0  0  0  0
   33.3920   24.4090   47.0850 H   0  0  0  0  0  0  0  0  0  0  0  0
   32.6920   25.3300   45.1550 H   0  0  0  0  0  0  0  0  0  0  0  0
   31.8400   27.5080   45.9820 O   0  0  0  0  0  0  0  0  0  0  0  0
   31.5400   28.1700   45.3070 H   0  0  0  0  0  0  0  0  0  0  0  0
   33.2420   28.5290   47.8220 O   0  0  0  0  0  0  0  0  0  0  0  0
   35.3320   29.7700   46.7830 O   0  0  0  0  0  0  0  0  0  0  0  0
   34.0680   29.9810   47.6130 P   0  0  1  0  0  0  0  0  0  0  0  0
   33.1270   31.0610   46.7110 O   0  0  0  0  0  0  0  0  0  0  0  0
   32.3980   31.3530   47.3420 H   0  0  0  0  0  0  0  0  0  0  0  0
   34.3750   30.6030   49.1730 O   0  0  0  0  0  0  0  0  0  0  0  0
   35.6210   30.4850   49.7720 C   0  0  0  0  0  0  0  0  0  0  0  0
   35.9810   29.4570   50.6770 C   0  0  0  0  0  0  0  0  0  0  0  0
   37.2680   29.4710   51.1970 C   0  0  0  0  0  0  0  0  0  0  0  0
   38.1220   30.4750   50.8100 N   0  0  0  0  0  0  0  0  0  0  0  0
   37.7480   31.4470   49.9420 C   0  0  0  0  0  0  0  0  0  0  0  0
   36.4930   31.4550   49.4190 N   0  0  0  0  0  0  0  0  0  0  0  0
   35.2340   28.7380   50.8970 H   0  0  0  0  0  0  0  0  0  0  0  0
   37.5350   28.7000   51.8740 H   0  0  0  0  0  0  0  0  0  0  0  0
   38.4310   32.2290   49.6480 H   0  0  0  0  0  0  0  0  0  0  0  0
   34.6310   25.8350   44.6720 O   0  0  0  0  0  0  0  0  0  0  0  0
   34.6460   25.0340   43.5600 C   0  0  0  0  0  0  0  0  0  0  0  0
   33.8300   24.9640   42.4700 C   0  0  0  0  0  0  0  0  0  0  0  0
   33.0110   25.6620   42.4590 H   0  0  0  0  0  0  0  0  0  0  0  0
   34.0050   24.0780   41.4340 C   0  0  0  0  0  3  0  0  0  0  0  0
   35.0520   23.1800   41.4400 C   0  0  0  0  0  3  0  0  0  0  0  0
   35.9040   23.2280   42.5450 C   0  0  0  0  0  0  0  0  0  0  0  0
   36.9340   22.3090   42.4990 C   0  0  0  0  0  3  0  0  0  0  0  0
   37.8300   22.2750   43.5400 C   0  0  0  0  0  3  0  0  0  0  0  0
   37.6840   23.1480   44.5940 C   0  0  0  0  0  3  0  0  0  0  0  0
   36.6440   24.0530   44.6060 C   0  0  0  0  0  3  0  0  0  0  0  0
   35.7160   24.1320   43.5880 C   0  0  0  0  0  0  0  0  0  0  0  0
  1  6  1  6  0  0  0
  1 11  1  0  0  0  0
  1  2  1  0  0  0  0
  2  7  1  6  0  0  0
  2 13  1  0  0  0  0
  2  3  1  0  0  0  0
  4  8  1  0  0  0  0
  4  9  1  0  0  0  0
  4  3  1  0  0  0  0
  5 10  1  6  0  0  0
  5  1  1  0  0  0  0
  5  4  1  0  0  0  0
 12 11  1  0  0  0  0
 15 14  2  6  0  0  0
 15 13  1  0  0  0  0
 15 18  1  0  0  0  0
 16 17  1  0  0  0  0
 16 15  1  0  0  0  0
 18 19  1  0  0  0  0
 19 20  1  0  0  0  0
 20 25  1  0  0  0  0
 20 21  2  0  0  0  0
 21 26  1  0  0  0  0
 22 21  1  0  0  0  0
 23 22  2  0  0  0  0
 24 19  2  0  0  0  0
 24 23  1  0  0  0  0
 27 23  1  0  0  0  0
 28  5  1  0  0  0  0
 29 39  1  0  0  0  0
 29 28  1  0  0  0  0
 30 29  2  0  0  0  0
 31 30  1  0  0  0  0
 32 33  2  0  0  0  0
 32 30  1  0  0  0  0
 33 34  1  0  0  0  0
 34 39  1  0  0  0  0
 35 34  2  0  0  0  0
 35 36  1  0  0  0  0
 36 37  2  0  0  0  0
 37 38  1  0  0  0  0
 39 38  2  0  0  0  0
M  END
>  <minimizedAffinity>
-4.34920788

>  <minimizedRMSD>
1.61083543

$$$$
