
 OpenBabel03262522283D

 48 52  0  0  0  0  0  0  0  0999 V2000
   35.2090   30.8250   49.7170 C   0  0  0  0  0  0  0  0  0  0  0  0
   34.6190   30.7950   50.6560 H   0  0  0  0  0  0  0  0  0  0  0  0
   35.2450   31.8840   49.4160 H   0  0  0  0  0  0  0  0  0  0  0  0
   33.6130   28.7000   50.4390 F   0  0  0  0  0  0  0  0  0  0  0  0
   33.7890   28.9840   49.1030 C   0  0  0  0  0  0  0  0  0  0  0  0
   34.5780   30.0300   48.6210 C   0  0  0  0  0  0  0  0  0  0  0  0
   34.7220   30.2520   47.2860 C   0  0  0  0  0  0  0  0  0  0  0  0
   34.0770   29.4350   46.3490 C   0  0  0  0  0  0  0  0  0  0  0  0
   33.2900   28.3940   46.8060 C   0  0  0  0  0  0  0  0  0  0  0  0
   33.1530   28.1790   48.1560 C   0  0  0  0  0  0  0  0  0  0  0  0
   35.3500   31.0810   47.0020 H   0  0  0  0  0  0  0  0  0  0  0  0
   34.1980   29.6210   45.3000 H   0  0  0  0  0  0  0  0  0  0  0  0
   32.7820   27.7490   46.0800 H   0  0  0  0  0  0  0  0  0  0  0  0
   32.3540   27.1230   48.5340 O   0  0  0  0  0  0  0  0  0  0  0  0
   31.0140   27.3630   48.7870 C   0  0  0  0  0  0  0  0  0  0  0  0
   30.3980   28.0950   49.7790 C   0  0  0  0  0  0  0  0  0  0  0  0
   31.0920   28.5580   50.4580 H   0  0  0  0  0  0  0  0  0  0  0  0
   29.0250   28.1980   49.8410 C   0  0  0  0  0  0  0  0  0  0  0  0
   28.2050   27.5780   48.9200 C   0  0  0  0  0  0  0  0  0  0  0  0
   28.8220   26.8420   47.9230 C   0  0  0  0  0  0  0  0  0  0  0  0
   27.9340   26.2500   47.0370 C   0  0  0  0  0  0  0  0  0  0  0  0
   28.4670   25.4930   46.0060 C   0  0  0  0  0  0  0  0  0  0  0  0
   29.8190   25.3590   45.8990 C   0  0  0  0  0  0  0  0  0  0  0  0
   30.6610   25.9530   46.7840 C   0  0  0  0  0  0  0  0  0  0  0  0
   30.1940   26.7290   47.8470 C   0  0  0  0  0  0  0  0  0  0  0  0
   36.8880   30.1770   49.9350 S   0  0  0  0  0  0  0  0  0  0  0  0
   39.1210   32.8570   47.9140 C   0  0  0  0  0  0  0  0  0  0  0  0
   39.3470   32.1740   46.7170 C   0  0  0  0  0  0  0  0  0  0  0  0
   38.7980   30.9210   46.5970 C   0  0  0  0  0  0  0  0  0  0  0  0
   38.0780   30.4230   47.6290 N   0  0  0  0  0  0  0  0  0  0  0  0
   37.8840   31.0900   48.7400 C   0  0  0  0  0  0  0  0  0  0  0  0
   38.4070   32.3500   48.9250 N   0  0  0  0  0  0  0  0  0  0  0  0
   39.5170   33.8560   48.0980 H   0  0  0  0  0  0  0  0  0  0  0  0
   38.9690   30.3870   45.6750 H   0  0  0  0  0  0  0  0  0  0  0  0
   40.0880   32.7860   45.7600 O   0  0  0  0  0  0  0  0  0  0  0  0
   40.0850   32.2850   44.4660 C   0  0  0  0  0  0  0  0  0  0  0  0
   40.6420   31.1020   44.0160 C   0  0  0  0  0  0  0  0  0  0  0  0
   40.5320   30.7880   42.7050 C   0  0  0  0  0  0  0  0  0  0  0  0
   39.8820   31.6360   41.8730 C   0  0  0  0  0  0  0  0  0  0  0  0
   39.3250   32.8220   42.3330 C   0  0  0  0  0  0  0  0  0  0  0  0
   39.4430   33.1260   43.6520 N   0  0  0  0  0  0  0  0  0  0  0  0
   41.1230   30.5390   44.8060 H   0  0  0  0  0  0  0  0  0  0  0  0
   40.9770   29.8600   42.3910 H   0  0  0  0  0  0  0  0  0  0  0  0
   39.7780   31.4110   40.8150 H   0  0  0  0  0  0  0  0  0  0  0  0
   38.5990   33.7650   41.3840 C   0  0  0  0  0  0  0  0  0  0  0  0
   39.0490   33.7060   40.3740 H   0  0  0  0  0  0  0  0  0  0  0  0
   37.5210   33.6020   41.4180 H   0  0  0  0  0  0  0  0  0  0  0  0
   38.7870   34.7890   41.8020 H   0  0  0  0  0  0  0  0  0  0  0  0
  1 26  1  0  0  0  0
  1  2  1  0  0  0  0
  3  1  1  0  0  0  0
  5  4  1  0  0  0  0
  6  5  1  0  0  0  0
  6  1  1  0  0  0  0
  7  6  2  0  0  0  0
  8  9  2  0  0  0  0
  8  7  1  0  0  0  0
  9 10  1  0  0  0  0
 10 14  1  0  0  0  0
 10  5  2  0  0  0  0
 11  7  1  0  0  0  0
 12  8  1  0  0  0  0
 13  9  1  0  0  0  0
 14 15  1  0  0  0  0
 15 16  1  0  0  0  0
 16 18  2  0  0  0  0
 16 17  1  0  0  0  0
 19 18  1  0  0  0  0
 20 19  2  0  0  0  0
 21 20  1  0  0  0  0
 22 21  2  0  0  0  0
 23 22  1  0  0  0  0
 23 24  2  0  0  0  0
 24 25  1  0  0  0  0
 25 20  1  0  0  0  0
 25 15  2  0  0  0  0
 27 33  1  0  0  0  0
 27 32  1  0  0  0  0
 28 27  2  0  0  0  0
 29 28  1  0  0  0  0
 29 30  2  0  0  0  0
 30 31  1  0  0  0  0
 31 32  2  0  0  0  0
 31 26  1  0  0  0  0
 34 29  1  0  0  0  0
 35 28  1  0  0  0  0
 36 35  1  0  0  0  0
 37 36  1  0  0  0  0
 37 42  1  0  0  0  0
 38 37  2  0  0  0  0
 39 40  2  0  0  0  0
 39 38  1  0  0  0  0
 40 41  1  0  0  0  0
 41 36  2  0  0  0  0
 43 38  1  0  0  0  0
 44 39  1  0  0  0  0
 45 47  1  0  0  0  0
 45 48  1  0  0  0  0
 45 40  1  0  0  0  0
 46 45  1  0  0  0  0
M  END
>  <minimizedAffinity>
-7.02540302

>  <minimizedRMSD>
1.73623931

$$$$
