
 OpenBabel03272501573D

 33 36  0  0  0  0  0  0  0  0999 V2000
   32.9340   27.2710   48.1870 C   0  0  0  0  0  0  0  0  0  0  0  0
   32.5070   26.0650   47.6550 C   0  0  0  0  0  0  0  0  0  0  0  0
   31.1210   26.0690   47.5580 C   0  0  0  0  0  0  0  0  0  0  0  0
   30.7450   27.2880   48.0370 N   0  0  0  0  0  0  0  0  0  0  0  0
   31.8220   27.9800   48.4010 N   0  0  0  0  0  0  0  0  0  0  0  0
   33.1960   25.2780   47.3780 H   0  0  0  0  0  0  0  0  0  0  0  0
   30.5360   25.2450   47.1730 H   0  0  0  0  0  0  0  0  0  0  0  0
   29.3520   27.5860   48.0600 C   0  0  0  0  0  0  0  0  0  0  0  0
   28.7060   27.9380   46.8760 C   0  0  0  0  0  0  0  0  0  0  0  0
   29.2530   27.9860   45.9440 H   0  0  0  0  0  0  0  0  0  0  0  0
   27.3690   28.2430   46.7990 C   0  0  0  0  0  3  0  0  0  0  0  0
   26.6000   28.2050   47.9490 C   0  0  0  0  0  3  0  0  0  0  0  0
   27.2090   27.8590   49.1440 C   0  0  0  0  0  0  0  0  0  0  0  0
   26.4630   27.8120   50.3090 C   0  0  0  0  0  3  0  0  0  0  0  0
   27.0130   27.4750   51.5260 C   0  0  0  0  0  3  0  0  0  0  0  0
   28.3670   27.1830   51.5200 C   0  0  0  0  0  3  0  0  0  0  0  0
   29.1280   27.2220   50.3700 C   0  0  0  0  0  3  0  0  0  0  0  0
   28.5530   27.5610   49.1730 C   0  0  0  0  0  0  0  0  0  0  0  0
   34.3380   27.6900   48.4620 C   0  0  0  0  0  0  0  0  0  0  0  0
   34.9820   26.8020   48.6610 H   0  0  0  0  0  0  0  0  0  0  0  0
   34.7200   28.2680   47.6150 H   0  0  0  0  0  0  0  0  0  0  0  0
   34.2780   28.5230   49.7220 C   0  0  0  0  0  0  0  0  0  0  0  0
   33.4600   29.2910   49.6670 H   0  0  0  0  0  0  0  0  0  0  0  0
   34.1370   27.8610   50.6100 H   0  0  0  0  0  0  0  0  0  0  0  0
   37.2390   30.0650   51.3130 C   0  0  0  0  0  0  0  0  0  0  0  0
   38.0040   30.4830   50.2070 C   0  0  0  0  0  0  0  0  0  0  0  0
   37.4760   30.2210   48.9190 C   0  0  0  0  0  0  0  0  0  0  0  0
   36.2820   29.5920   48.8120 N   0  0  0  0  0  0  0  0  0  0  0  0
   35.5870   29.2110   49.9100 C   0  0  0  0  0  0  0  0  0  0  0  0
   36.0790   29.4550   51.1180 N   0  0  0  0  0  0  0  0  0  0  0  0
   37.6590   30.2740   52.3000 H   0  0  0  0  0  0  0  0  0  0  0  0
   38.9590   30.9850   50.2880 H   0  0  0  0  0  0  0  0  0  0  0  0
   38.0220   30.5200   48.0190 H   0  0  0  0  0  0  0  0  0  0  0  0
  1  5  2  0  0  0  0
  1 19  1  0  0  0  0
  2  1  1  0  0  0  0
  3  2  2  0  0  0  0
  3  4  1  0  0  0  0
  4  8  1  0  0  0  0
  4  5  1  0  0  0  0
  6  2  1  0  0  0  0
  7  3  1  0  0  0  0
  8 18  1  0  0  0  0
  9  8  2  0  0  0  0
 10  9  1  0  0  0  0
 11  9  1  0  0  0  0
 11 12  2  0  0  0  0
 12 13  1  0  0  0  0
 13 18  2  0  0  0  0
 13 14  1  0  0  0  0
 14 15  2  0  0  0  0
 16 15  1  0  0  0  0
 17 16  2  0  0  0  0
 18 17  1  0  0  0  0
 19 20  1  0  0  0  0
 19 22  1  0  0  0  0
 21 19  1  0  0  0  0
 22 29  1  0  0  0  0
 22 24  1  0  0  0  0
 23 22  1  0  0  0  0
 25 31  1  0  0  0  0
 26 32  1  0  0  0  0
 26 25  2  0  0  0  0
 27 26  1  0  0  0  0
 28 27  2  0  0  0  0
 28 29  1  0  0  0  0
 29 30  2  0  0  0  0
 30 25  1  0  0  0  0
 33 27  1  0  0  0  0
M  END
>  <minimizedAffinity>
-6.84313059

>  <minimizedRMSD>
2.49385333

$$$$
