
 OpenBabel03272509263D

 27 29  0  0  0  0  0  0  0  0999 V2000
   35.6380   29.6660   45.7780 C   0  0  0  0  0  0  0  0  0  0  0  0
   36.2610   28.9890   45.1200 H   0  0  0  0  0  0  0  0  0  0  0  0
   36.1420   29.6230   46.7520 H   0  0  0  0  0  0  0  0  0  0  0  0
   34.2610   29.0620   45.7400 C   0  0  0  0  0  0  0  0  0  0  0  0
   33.6220   29.7880   45.1930 H   0  0  0  0  0  0  0  0  0  0  0  0
   34.2140   28.1320   45.1450 H   0  0  0  0  0  0  0  0  0  0  0  0
   33.7220   29.0710   49.4720 C   0  0  0  0  0  0  0  0  0  0  0  0
   34.3680   29.2500   48.2580 C   0  0  0  0  0  0  0  0  0  0  0  0
   33.7040   28.9250   47.1000 C   0  0  0  0  0  0  0  0  0  0  0  0
   32.4190   28.4380   47.2170 N   0  0  0  0  0  0  0  0  0  0  0  0
   31.8070   28.2700   48.4010 C   0  0  0  0  0  0  0  0  0  0  0  0
   32.4700   28.5910   49.5280 N   0  0  0  0  0  0  0  0  0  0  0  0
   34.2950   29.3440   50.3510 H   0  0  0  0  0  0  0  0  0  0  0  0
   35.3750   29.6340   48.1830 H   0  0  0  0  0  0  0  0  0  0  0  0
   30.7920   27.8780   48.3940 H   0  0  0  0  0  0  0  0  0  0  0  0
   35.6870   31.2860   44.9990 S   0  0  0  0  0  0  0  0  0  0  0  0
   37.3950   31.6620   44.5770 C   0  0  0  0  0  0  0  0  0  0  0  0
   37.8260   31.4790   43.2630 C   0  0  0  0  0  0  0  0  0  0  0  0
   37.1400   31.1140   42.5030 H   0  0  0  0  0  0  0  0  0  0  0  0
   39.1450   31.7670   42.9230 C   0  0  0  0  0  3  0  0  0  0  0  0
   40.0370   32.2330   43.8720 C   0  0  0  0  0  3  0  0  0  0  0  0
   39.6110   32.4100   45.1550 C   0  0  0  0  0  0  0  0  0  0  0  0
   40.4830   32.8770   46.1300 C   0  0  0  0  0  3  0  0  0  0  0  0
   40.0100   33.0440   47.4230 C   0  0  0  0  0  3  0  0  0  0  0  0
   38.6980   32.7640   47.7890 C   0  0  0  0  0  3  0  0  0  0  0  0
   37.8340   32.2980   46.8090 C   0  0  0  0  0  3  0  0  0  0  0  0
   38.3070   32.1290   45.5020 C   0  0  0  0  0  0  0  0  0  0  0  0
  1  3  1  0  0  0  0
  2  1  1  0  0  0  0
  4  1  1  0  0  0  0
  4  9  1  0  0  0  0
  5  4  1  0  0  0  0
  6  4  1  0  0  0  0
  7 12  1  0  0  0  0
  7 13  1  0  0  0  0
  8  7  2  0  0  0  0
  9 10  2  0  0  0  0
  9  8  1  0  0  0  0
 10 11  1  0  0  0  0
 11 12  2  0  0  0  0
 14  8  1  0  0  0  0
 15 11  1  0  0  0  0
 16  1  1  0  0  0  0
 17 16  1  0  0  0  0
 17 27  1  0  0  0  0
 18 17  2  0  0  0  0
 19 18  1  0  0  0  0
 20 18  1  0  0  0  0
 20 21  2  0  0  0  0
 21 22  1  0  0  0  0
 22 27  2  0  0  0  0
 22 23  1  0  0  0  0
 23 24  2  0  0  0  0
 24 25  1  0  0  0  0
 26 25  2  0  0  0  0
 27 26  1  0  0  0  0
M  END
>  <minimizedAffinity>
-1.92414916

>  <minimizedRMSD>
5.48550701

$$$$
