
 OpenBabel03272506433D

 34 37  0  0  1  0  0  0  0  0999 V2000
   31.9130   28.4580   47.3830 C   0  0  2  0  0  0  0  0  0  0  0  0
   33.1620   28.1980   48.2110 C   0  0  1  0  0  0  0  0  0  0  0  0
   33.4670   26.8750   48.1060 O   0  0  0  0  0  0  0  0  0  0  0  0
   32.6570   26.2970   47.1540 C   0  0  0  0  0  0  0  0  0  0  0  0
   32.1440   27.4460   46.2670 C   0  0  1  0  0  0  0  0  0  0  0  0
   31.0020   28.2160   47.9520 H   0  0  0  0  0  0  0  0  0  0  0  0
   32.9660   28.5510   49.2410 H   0  0  0  0  0  0  0  0  0  0  0  0
   33.2980   25.6460   46.5230 H   0  0  0  0  0  0  0  0  0  0  0  0
   31.8070   25.7550   47.6000 H   0  0  0  0  0  0  0  0  0  0  0  0
   32.9580   27.8330   45.6540 H   0  0  0  0  0  0  0  0  0  0  0  0
   31.8970   29.7620   46.8930 O   0  0  0  0  0  0  0  0  0  0  0  0
   31.4030   30.3390   47.5240 H   0  0  0  0  0  0  0  0  0  0  0  0
   34.5030   29.1530   47.4340 S   0  0  0  0  0  0  0  0  0  0  0  0
   36.8960   29.2510   50.5860 C   0  0  0  0  0  0  0  0  0  0  0  0
   37.3300   30.5670   50.6810 C   0  0  0  0  0  0  0  0  0  0  0  0
   36.8610   31.4720   49.7270 C   0  0  0  0  0  0  0  0  0  0  0  0
   36.0120   31.0240   48.7590 N   0  0  0  0  0  0  0  0  0  0  0  0
   35.6180   29.7260   48.7090 C   0  0  0  0  0  0  0  0  0  0  0  0
   36.0520   28.8360   49.6130 N   0  0  0  0  0  0  0  0  0  0  0  0
   37.2850   28.5910   51.3450 H   0  0  0  0  0  0  0  0  0  0  0  0
   38.0050   30.9190   51.4520 H   0  0  0  0  0  0  0  0  0  0  0  0
   37.1430   32.5260   49.7170 H   0  0  0  0  0  0  0  0  0  0  0  0
   30.9810   27.0720   45.6490 O   0  0  0  0  0  0  0  0  0  0  0  0
   29.7430   27.1610   46.2610 C   0  0  0  0  0  0  0  0  0  0  0  0
   29.2260   26.4820   47.3420 C   0  0  0  0  0  0  0  0  0  0  0  0
   29.9170   25.7690   47.7640 H   0  0  0  0  0  0  0  0  0  0  0  0
   27.9490   26.7310   47.7940 C   0  0  0  0  0  3  0  0  0  0  0  0
   27.1410   27.6540   47.1980 C   0  0  0  0  0  3  0  0  0  0  0  0
   27.6270   28.3610   46.1060 C   0  0  0  0  0  0  0  0  0  0  0  0
   26.7700   29.2690   45.5560 C   0  0  0  0  0  3  0  0  0  0  0  0
   27.2010   29.9990   44.4670 C   0  0  0  0  0  3  0  0  0  0  0  0
   28.4690   29.7960   43.9670 C   0  0  0  0  0  3  0  0  0  0  0  0
   29.2890   28.8650   44.5650 C   0  0  0  0  0  3  0  0  0  0  0  0
   28.9190   28.1090   45.6490 C   0  0  0  0  0  0  0  0  0  0  0  0
  1  6  1  1  0  0  0
  1  2  1  0  0  0  0
  2  7  1  1  0  0  0
  3  2  1  0  0  0  0
  4  9  1  0  0  0  0
  4  3  1  0  0  0  0
  5 10  1  6  0  0  0
  5  4  1  0  0  0  0
  5  1  1  0  0  0  0
  8  4  1  0  0  0  0
 11  1  1  0  0  0  0
 11 12  1  0  0  0  0
 13  2  1  0  0  0  0
 13 18  1  0  0  0  0
 14 15  1  0  0  0  0
 14 20  1  0  0  0  0
 15 21  1  0  0  0  0
 16 15  2  0  0  0  0
 17 16  1  0  0  0  0
 18 17  2  0  0  0  0
 18 19  1  0  0  0  0
 19 14  2  0  0  0  0
 22 16  1  0  0  0  0
 23 24  1  0  0  0  0
 23  5  1  0  0  0  0
 24 25  1  0  0  0  0
 25 26  1  0  0  0  0
 25 27  2  0  0  0  0
 28 27  1  0  0  0  0
 29 28  2  0  0  0  0
 30 29  1  0  0  0  0
 31 30  2  0  0  0  0
 32 31  1  0  0  0  0
 32 33  2  0  0  0  0
 33 34  1  0  0  0  0
 34 29  1  0  0  0  0
 34 24  2  0  0  0  0
M  END
>  <minimizedAffinity>
-4.88318014

>  <minimizedRMSD>
4.30401802

$$$$
