
 OpenBabel03272506433D

 34 37  0  0  1  0  0  0  0  0999 V2000
   32.2230   28.1620   47.6030 C   0  0  2  0  0  0  0  0  0  0  0  0
   33.5280   28.1160   48.3820 C   0  0  1  0  0  0  0  0  0  0  0  0
   34.0730   26.8790   48.2160 O   0  0  0  0  0  0  0  0  0  0  0  0
   33.3510   26.1890   47.2670 C   0  0  0  0  0  0  0  0  0  0  0  0
   32.6000   27.2480   46.4420 C   0  0  1  0  0  0  0  0  0  0  0  0
   31.3950   27.7320   48.1880 H   0  0  0  0  0  0  0  0  0  0  0  0
   33.3070   28.3910   49.4310 H   0  0  0  0  0  0  0  0  0  0  0  0
   34.0810   25.6930   46.5920 H   0  0  0  0  0  0  0  0  0  0  0  0
   32.6360   25.4810   47.7170 H   0  0  0  0  0  0  0  0  0  0  0  0
   33.3030   27.8030   45.8200 H   0  0  0  0  0  0  0  0  0  0  0  0
   31.9440   29.4540   47.1660 O   0  0  0  0  0  0  0  0  0  0  0  0
   31.3730   29.9050   47.8330 H   0  0  0  0  0  0  0  0  0  0  0  0
   34.6360   29.3330   47.6050 S   0  0  0  0  0  0  0  0  0  0  0  0
   37.2490   29.3140   50.5780 C   0  0  0  0  0  0  0  0  0  0  0  0
   37.7260   30.6160   50.6600 C   0  0  0  0  0  0  0  0  0  0  0  0
   37.2180   31.5480   49.7540 C   0  0  0  0  0  0  0  0  0  0  0  0
   36.2890   31.1390   48.8430 N   0  0  0  0  0  0  0  0  0  0  0  0
   35.8550   29.8540   48.8040 C   0  0  0  0  0  0  0  0  0  0  0  0
   36.3260   28.9380   49.6620 N   0  0  0  0  0  0  0  0  0  0  0  0
   37.6720   28.6320   51.2980 H   0  0  0  0  0  0  0  0  0  0  0  0
   38.4650   30.9360   51.3850 H   0  0  0  0  0  0  0  0  0  0  0  0
   37.5290   32.5940   49.7380 H   0  0  0  0  0  0  0  0  0  0  0  0
   31.5060   26.6820   45.8430 O   0  0  0  0  0  0  0  0  0  0  0  0
   30.5610   27.4210   45.1540 C   0  0  0  0  0  0  0  0  0  0  0  0
   29.3320   27.9000   45.5520 C   0  0  0  0  0  0  0  0  0  0  0  0
   29.0870   27.6440   46.5700 H   0  0  0  0  0  0  0  0  0  0  0  0
   28.5380   28.6270   44.6910 C   0  0  0  0  0  3  0  0  0  0  0  0
   28.9290   28.9050   43.4140 C   0  0  0  0  0  3  0  0  0  0  0  0
   30.1630   28.4400   42.9750 C   0  0  0  0  0  0  0  0  0  0  0  0
   30.4930   28.7520   41.6900 C   0  0  0  0  0  3  0  0  0  0  0  0
   31.7070   28.3160   41.2030 C   0  0  0  0  0  3  0  0  0  0  0  0
   32.5470   27.5830   42.0150 C   0  0  0  0  0  3  0  0  0  0  0  0
   32.1570   27.2990   43.3040 C   0  0  0  0  0  3  0  0  0  0  0  0
   30.9630   27.7050   43.8470 C   0  0  0  0  0  0  0  0  0  0  0  0
  1  6  1  1  0  0  0
  1  2  1  0  0  0  0
  2  7  1  1  0  0  0
  3  2  1  0  0  0  0
  4  9  1  0  0  0  0
  4  3  1  0  0  0  0
  5 10  1  6  0  0  0
  5  4  1  0  0  0  0
  5  1  1  0  0  0  0
  8  4  1  0  0  0  0
 11  1  1  0  0  0  0
 11 12  1  0  0  0  0
 13  2  1  0  0  0  0
 13 18  1  0  0  0  0
 14 15  1  0  0  0  0
 14 20  1  0  0  0  0
 15 21  1  0  0  0  0
 16 15  2  0  0  0  0
 17 16  1  0  0  0  0
 18 17  2  0  0  0  0
 18 19  1  0  0  0  0
 19 14  2  0  0  0  0
 22 16  1  0  0  0  0
 23  5  1  0  0  0  0
 24 25  1  0  0  0  0
 24 23  1  0  0  0  0
 25 26  1  0  0  0  0
 27 25  2  0  0  0  0
 28 27  1  0  0  0  0
 29 28  2  0  0  0  0
 29 34  1  0  0  0  0
 30 29  1  0  0  0  0
 31 30  2  0  0  0  0
 31 32  1  0  0  0  0
 32 33  2  0  0  0  0
 33 34  1  0  0  0  0
 34 24  2  0  0  0  0
M  END
>  <minimizedAffinity>
-3.93808937

>  <minimizedRMSD>
2.12330389

$$$$
