
 OpenBabel03272506433D

 34 37  0  0  1  0  0  0  0  0999 V2000
   32.2070   28.2160   47.6140 C   0  0  2  0  0  0  0  0  0  0  0  0
   33.5340   28.1040   48.3480 C   0  0  1  0  0  0  0  0  0  0  0  0
   33.9930   26.8310   48.1960 O   0  0  0  0  0  0  0  0  0  0  0  0
   33.1940   26.1670   47.2900 C   0  0  0  0  0  0  0  0  0  0  0  0
   32.4820   27.2520   46.4650 C   0  0  1  0  0  0  0  0  0  0  0  0
   31.3750   27.8560   48.2390 H   0  0  0  0  0  0  0  0  0  0  0  0
   33.3700   28.4190   49.3960 H   0  0  0  0  0  0  0  0  0  0  0  0
   33.8650   25.6090   46.6040 H   0  0  0  0  0  0  0  0  0  0  0  0
   32.4520   25.5180   47.7840 H   0  0  0  0  0  0  0  0  0  0  0  0
   33.1960   27.7450   45.8040 H   0  0  0  0  0  0  0  0  0  0  0  0
   31.9960   29.5130   47.1520 O   0  0  0  0  0  0  0  0  0  0  0  0
   31.4800   30.0170   47.8270 H   0  0  0  0  0  0  0  0  0  0  0  0
   34.6890   29.2280   47.5000 S   0  0  0  0  0  0  0  0  0  0  0  0
   37.2200   29.3880   50.5390 C   0  0  0  0  0  0  0  0  0  0  0  0
   37.7560   30.6690   50.5080 C   0  0  0  0  0  0  0  0  0  0  0  0
   37.3150   31.5290   49.5000 C   0  0  0  0  0  0  0  0  0  0  0  0
   36.3920   31.0740   48.6060 N   0  0  0  0  0  0  0  0  0  0  0  0
   35.9000   29.8110   48.6790 C   0  0  0  0  0  0  0  0  0  0  0  0
   36.3040   28.9640   49.6370 N   0  0  0  0  0  0  0  0  0  0  0  0
   37.5920   28.7630   51.3350 H   0  0  0  0  0  0  0  0  0  0  0  0
   38.4890   31.0270   51.2200 H   0  0  0  0  0  0  0  0  0  0  0  0
   37.6750   32.5540   49.3920 H   0  0  0  0  0  0  0  0  0  0  0  0
   31.3330   26.7440   45.9200 O   0  0  0  0  0  0  0  0  0  0  0  0
   30.5520   27.4500   45.0220 C   0  0  0  0  0  0  0  0  0  0  0  0
   30.8540   27.9660   43.7820 C   0  0  0  0  0  0  0  0  0  0  0  0
   31.8740   27.7760   43.4820 H   0  0  0  0  0  0  0  0  0  0  0  0
   29.9120   28.6470   43.0440 C   0  0  0  0  0  3  0  0  0  0  0  0
   28.6420   28.8420   43.5030 C   0  0  0  0  0  3  0  0  0  0  0  0
   28.2970   28.3350   44.7500 C   0  0  0  0  0  0  0  0  0  0  0  0
   27.0130   28.5640   45.1500 C   0  0  0  0  0  3  0  0  0  0  0  0
   26.6170   28.0840   46.3800 C   0  0  0  0  0  3  0  0  0  0  0  0
   27.5160   27.3940   47.1670 C   0  0  0  0  0  3  0  0  0  0  0  0
   28.7980   27.1950   46.7090 C   0  0  0  0  0  3  0  0  0  0  0  0
   29.2520   27.6480   45.4950 C   0  0  0  0  0  0  0  0  0  0  0  0
  1  6  1  1  0  0  0
  1  2  1  0  0  0  0
  2  7  1  1  0  0  0
  3  2  1  0  0  0  0
  4  9  1  0  0  0  0
  4  3  1  0  0  0  0
  5 10  1  6  0  0  0
  5  4  1  0  0  0  0
  5  1  1  0  0  0  0
  8  4  1  0  0  0  0
 11  1  1  0  0  0  0
 11 12  1  0  0  0  0
 13  2  1  0  0  0  0
 13 18  1  0  0  0  0
 14 20  1  0  0  0  0
 15 14  1  0  0  0  0
 15 21  1  0  0  0  0
 16 15  2  0  0  0  0
 17 18  2  0  0  0  0
 17 16  1  0  0  0  0
 18 19  1  0  0  0  0
 19 14  2  0  0  0  0
 22 16  1  0  0  0  0
 23  5  1  0  0  0  0
 24 34  1  0  0  0  0
 24 23  1  0  0  0  0
 25 24  2  0  0  0  0
 26 25  1  0  0  0  0
 27 28  2  0  0  0  0
 27 25  1  0  0  0  0
 28 29  1  0  0  0  0
 29 30  2  0  0  0  0
 29 34  1  0  0  0  0
 30 31  1  0  0  0  0
 31 32  2  0  0  0  0
 33 32  1  0  0  0  0
 34 33  2  0  0  0  0
M  END
>  <minimizedAffinity>
-4.72864294

>  <minimizedRMSD>
1.84267151

$$$$
