
 OpenBabel03272503503D

 39 42  0  0  1  0  0  0  0  0999 V2000
   33.1740   27.3610   45.8070 C   0  0  1  0  0  0  0  0  0  0  0  0
   33.9410   27.4700   47.1430 C   0  0  2  0  0  0  0  0  0  0  0  0
   33.8100   26.2350   47.6930 O   0  0  0  0  0  0  0  0  0  0  0  0
   34.0900   25.3660   46.6500 C   0  0  0  0  0  0  0  0  0  0  0  0
   33.5600   25.9720   45.3670 C   0  0  2  0  0  0  0  0  0  0  0  0
   33.5390   28.1500   45.1200 H   0  0  0  0  0  0  0  0  0  0  0  0
   34.9730   27.7410   46.8270 H   0  0  0  0  0  0  0  0  0  0  0  0
   35.1540   25.0860   46.5800 H   0  0  0  0  0  0  0  0  0  0  0  0
   33.5140   24.4340   46.8330 H   0  0  0  0  0  0  0  0  0  0  0  0
   32.6600   25.4390   45.0100 H   0  0  0  0  0  0  0  0  0  0  0  0
   31.8220   27.5480   46.0120 O   0  0  0  0  0  0  0  0  0  0  0  0
   31.4600   28.2370   45.3970 H   0  0  0  0  0  0  0  0  0  0  0  0
   33.3280   28.5040   47.8040 O   0  0  0  0  0  0  0  0  0  0  0  0
   35.3650   29.8340   46.7700 O   0  0  0  0  0  0  0  0  0  0  0  0
   34.0970   29.9890   47.6050 P   0  0  1  0  0  0  0  0  0  0  0  0
   33.1120   31.0390   46.7140 O   0  0  0  0  0  0  0  0  0  0  0  0
   32.3740   31.2980   47.3490 H   0  0  0  0  0  0  0  0  0  0  0  0
   34.3840   30.6100   49.1680 O   0  0  0  0  0  0  0  0  0  0  0  0
   35.6230   30.4930   49.7830 C   0  0  0  0  0  0  0  0  0  0  0  0
   35.9690   29.4740   50.7020 C   0  0  0  0  0  0  0  0  0  0  0  0
   37.2510   29.4890   51.2360 C   0  0  0  0  0  0  0  0  0  0  0  0
   38.1120   30.4850   50.8470 N   0  0  0  0  0  0  0  0  0  0  0  0
   37.7510   31.4490   49.9640 C   0  0  0  0  0  0  0  0  0  0  0  0
   36.5020   31.4560   49.4270 N   0  0  0  0  0  0  0  0  0  0  0  0
   35.2170   28.7610   50.9220 H   0  0  0  0  0  0  0  0  0  0  0  0
   37.5080   28.7240   51.9240 H   0  0  0  0  0  0  0  0  0  0  0  0
   38.4410   32.2250   49.6690 H   0  0  0  0  0  0  0  0  0  0  0  0
   34.5490   26.0180   44.4210 O   0  0  0  0  0  0  0  0  0  0  0  0
   34.2840   26.1710   43.0850 C   0  0  0  0  0  0  0  0  0  0  0  0
   33.1710   25.9250   42.3380 C   0  0  0  0  0  0  0  0  0  0  0  0
   32.3270   25.5360   42.8780 H   0  0  0  0  0  0  0  0  0  0  0  0
   33.0910   26.1440   40.9830 C   0  0  0  0  0  3  0  0  0  0  0  0
   34.1690   26.6430   40.2810 C   0  0  0  0  0  3  0  0  0  0  0  0
   35.3230   26.9040   41.0220 C   0  0  0  0  0  0  0  0  0  0  0  0
   36.3700   27.4020   40.2710 C   0  0  0  0  0  3  0  0  0  0  0  0
   37.5530   27.6920   40.9060 C   0  0  0  0  0  3  0  0  0  0  0  0
   37.6680   27.4840   42.2620 C   0  0  0  0  0  3  0  0  0  0  0  0
   36.6020   26.9870   42.9800 C   0  0  0  0  0  3  0  0  0  0  0  0
   35.3910   26.6770   42.3950 C   0  0  0  0  0  0  0  0  0  0  0  0
  1  6  1  6  0  0  0
  1 11  1  0  0  0  0
  1  2  1  0  0  0  0
  2  7  1  6  0  0  0
  2  3  1  0  0  0  0
  2 13  1  0  0  0  0
  4  9  1  0  0  0  0
  4  3  1  0  0  0  0
  5 10  1  6  0  0  0
  5  1  1  0  0  0  0
  5  4  1  0  0  0  0
  8  4  1  0  0  0  0
 12 11  1  0  0  0  0
 15 14  2  6  0  0  0
 15 13  1  0  0  0  0
 15 18  1  0  0  0  0
 16 17  1  0  0  0  0
 16 15  1  0  0  0  0
 18 19  1  0  0  0  0
 19 20  1  0  0  0  0
 20 25  1  0  0  0  0
 20 21  2  0  0  0  0
 21 26  1  0  0  0  0
 22 21  1  0  0  0  0
 23 22  2  0  0  0  0
 24 19  2  0  0  0  0
 24 23  1  0  0  0  0
 27 23  1  0  0  0  0
 28  5  1  0  0  0  0
 29 28  1  0  0  0  0
 30 31  1  0  0  0  0
 30 29  2  0  0  0  0
 32 30  1  0  0  0  0
 33 32  2  0  0  0  0
 33 34  1  0  0  0  0
 34 39  1  0  0  0  0
 35 36  1  0  0  0  0
 35 34  2  0  0  0  0
 36 37  2  0  0  0  0
 37 38  1  0  0  0  0
 39 38  2  0  0  0  0
 39 29  1  0  0  0  0
M  END
>  <minimizedAffinity>
-4.18939924

>  <minimizedRMSD>
0.915175796

$$$$
