
 OpenBabel03272508503D

 31 34  0  0  1  0  0  0  0  0999 V2000
   40.1430   31.5440   43.1060 C   0  0  2  0  0  0  0  0  0  0  0  0
   40.6720   30.1940   43.2370 C   0  0  0  0  0  0  0  0  0  0  0  0
   39.3160   30.5970   43.8430 C   0  0  1  0  0  0  0  0  0  0  0  0
   40.5460   32.3760   43.7580 H   0  0  0  0  0  0  0  0  0  0  0  0
   41.4750   30.0310   43.9810 H   0  0  0  0  0  0  0  0  0  0  0  0
   40.6620   29.5110   42.3530 H   0  0  0  0  0  0  0  0  0  0  0  0
   38.5190   29.9580   43.4310 H   0  0  0  0  0  0  0  0  0  0  0  0
   38.4700   33.7420   40.6290 C   0  0  0  0  0  0  0  0  0  0  0  0
   38.7070   33.0400   39.4180 C   0  0  0  0  0  0  0  0  0  0  0  0
   39.4470   31.8100   39.4630 C   0  0  0  0  0  0  0  0  0  0  0  0
   39.8770   31.3930   40.6850 N   0  0  0  0  0  0  0  0  0  0  0  0
   39.6260   32.0990   41.8160 C   0  0  0  0  0  0  0  0  0  0  0  0
   38.9360   33.2570   41.8090 N   0  0  0  0  0  0  0  0  0  0  0  0
   37.9060   34.6640   40.5320 H   0  0  0  0  0  0  0  0  0  0  0  0
   38.3350   33.4250   38.4650 H   0  0  0  0  0  0  0  0  0  0  0  0
   39.6060   31.3120   38.5400 H   0  0  0  0  0  0  0  0  0  0  0  0
   38.4860   31.6450   45.9200 C   0  0  0  0  0  0  0  0  0  0  0  0
   37.6980   32.3370   45.2210 O   0  0  0  0  0  0  0  0  0  0  0  0
   39.3400   30.6880   45.3080 N   0  0  0  0  0  0  0  0  0  0  0  0
   39.9260   30.1160   45.9790 H   0  0  0  0  0  0  0  0  0  0  0  0
   38.3870   31.9580   47.3380 C   0  0  0  0  0  0  0  0  0  0  0  0
   39.1110   33.1090   47.6730 C   0  0  0  0  0  0  0  0  0  0  0  0
   39.6810   33.7080   46.9820 H   0  0  0  0  0  0  0  0  0  0  0  0
   39.1490   33.5810   48.9730 C   0  0  0  0  0  0  0  0  0  0  0  0
   38.4700   32.9290   49.9950 C   0  0  0  0  0  0  0  0  0  0  0  0
   37.7520   31.7820   49.6420 C   0  0  0  0  0  0  0  0  0  0  0  0
   37.0560   31.0800   50.5870 C   0  0  0  0  0  0  0  0  0  0  0  0
   36.3390   29.9330   50.2320 C   0  0  0  0  0  0  0  0  0  0  0  0
   36.3270   29.4900   48.9040 C   0  0  0  0  0  0  0  0  0  0  0  0
   37.0360   30.2000   47.9340 C   0  0  0  0  0  0  0  0  0  0  0  0
   37.7160   31.3150   48.3480 C   0  0  0  0  0  0  0  0  0  0  0  0
  1  2  1  0  0  0  0
  1  4  1  1  0  0  0
  1  3  1  0  0  0  0
  2  3  1  0  0  0  0
  2  5  1  0  0  0  0
  3  7  1  6  0  0  0
  3 19  1  0  0  0  0
  6  2  1  0  0  0  0
  8 13  1  0  0  0  0
  9 10  1  0  0  0  0
  9  8  2  0  0  0  0
 10 11  2  0  0  0  0
 11 12  1  0  0  0  0
 12  1  1  0  0  0  0
 13 12  2  0  0  0  0
 14  8  1  0  0  0  0
 15  9  1  0  0  0  0
 16 10  1  0  0  0  0
 17 21  1  0  0  0  0
 18 17  2  0  0  0  0
 19 17  1  0  0  0  0
 19 20  1  0  0  0  0
 21 22  2  0  0  0  0
 21 31  1  0  0  0  0
 22 24  1  0  0  0  0
 23 22  1  0  0  0  0
 24 25  2  0  0  0  0
 26 25  1  0  0  0  0
 26 27  1  0  0  0  0
 28 27  2  0  0  0  0
 29 28  1  0  0  0  0
 30 31  1  0  0  0  0
 30 29  2  0  0  0  0
 31 26  2  0  0  0  0
M  END
>  <minimizedAffinity>
-6.49994946

>  <minimizedRMSD>
5.25423622

$$$$
