
 OpenBabel03272504223D

 41 44  0  0  1  0  0  0  0  0999 V2000
   35.9840   29.8520   48.4390 C   0  0  2  0  0  0  0  0  0  0  0  0
   34.9690   28.7190   48.3700 C   0  0  1  0  0  0  0  0  0  0  0  0
   34.9670   28.3420   49.8530 C   0  0  0  0  0  0  0  0  0  0  0  0
   34.7770   29.5680   50.4430 O   0  0  0  0  0  0  0  0  0  0  0  0
   35.5290   30.5000   49.7540 C   0  0  0  0  0  0  0  0  0  0  0  0
   37.0030   29.4740   48.6020 H   0  0  0  0  0  0  0  0  0  0  0  0
   35.2860   27.8880   47.7370 H   0  0  0  0  0  0  0  0  0  0  0  0
   34.0940   27.6940   50.0610 H   0  0  0  0  0  0  0  0  0  0  0  0
   35.9090   27.8330   50.0970 H   0  0  0  0  0  0  0  0  0  0  0  0
   34.9610   31.4350   49.5670 H   0  0  0  0  0  0  0  0  0  0  0  0
   36.3970   30.7780   50.3870 H   0  0  0  0  0  0  0  0  0  0  0  0
   33.7570   29.2740   48.0390 O   0  0  0  0  0  0  0  0  0  0  0  0
   31.7560   28.6200   46.5050 O   0  0  0  0  0  0  0  0  0  0  0  0
   32.6010   28.1210   47.6370 P   0  0  1  0  0  0  0  0  0  0  0  0
   33.3860   26.6790   47.1100 O   0  0  0  0  0  0  0  0  0  0  0  0
   33.5950   26.8460   46.1410 H   0  0  0  0  0  0  0  0  0  0  0  0
   31.6420   27.7590   48.9900 O   0  0  0  0  0  0  0  0  0  0  0  0
   30.6950   26.8340   48.5870 C   0  0  0  0  0  0  0  0  0  0  0  0
   30.9180   25.9050   49.1880 H   0  0  0  0  0  0  0  0  0  0  0  0
   30.7770   26.5950   47.5220 H   0  0  0  0  0  0  0  0  0  0  0  0
   29.3050   27.2320   48.9090 C   0  0  0  0  0  0  0  0  0  0  0  0
   29.1210   27.9860   50.0430 C   0  0  0  0  0  0  0  0  0  0  0  0
   27.8310   28.3910   50.3950 C   0  0  0  0  0  0  0  0  0  0  0  0
   26.8150   28.0030   49.5740 N   0  0  0  0  0  0  0  0  0  0  0  0
   27.0230   27.2630   48.4680 C   0  0  0  0  0  0  0  0  0  0  0  0
   28.2750   26.8700   48.1260 N   0  0  0  0  0  0  0  0  0  0  0  0
   29.8520   28.3330   50.7370 H   0  0  0  0  0  0  0  0  0  0  0  0
   27.5950   28.9830   51.2650 H   0  0  0  0  0  0  0  0  0  0  0  0
   26.1370   27.0320   47.9200 H   0  0  0  0  0  0  0  0  0  0  0  0
   35.7780   30.6680   47.3530 O   0  0  0  0  0  0  0  0  0  0  0  0
   36.4080   30.5730   46.1220 C   0  0  0  0  0  0  0  0  0  0  0  0
   35.9360   29.8940   45.0190 C   0  0  0  0  0  0  0  0  0  0  0  0
   34.9900   29.3910   45.1250 H   0  0  0  0  0  0  0  0  0  0  0  0
   36.6330   29.8540   43.8280 C   0  0  0  0  0  0  0  0  0  0  0  0
   37.8430   30.5320   43.7840 C   0  0  0  0  0  0  0  0  0  0  0  0
   38.3440   31.2230   44.8770 C   0  0  0  0  0  0  0  0  0  0  0  0
   39.5700   31.8870   44.7700 C   0  0  0  0  0  0  0  0  0  0  0  0
   40.0590   32.5720   45.8630 C   0  0  0  0  0  0  0  0  0  0  0  0
   39.3600   32.6120   47.0530 C   0  0  0  0  0  0  0  0  0  0  0  0
   38.1510   31.9520   47.1430 C   0  0  0  0  0  0  0  0  0  0  0  0
   37.6170   31.2480   46.0710 C   0  0  0  0  0  0  0  0  0  0  0  0
  1  6  1  1  0  0  0
  1  5  1  0  0  0  0
  2  7  1  6  0  0  0
  2  1  1  0  0  0  0
  2  3  1  0  0  0  0
  3  8  1  0  0  0  0
  3  9  1  0  0  0  0
  3  4  1  0  0  0  0
  5 11  1  0  0  0  0
  5  4  1  0  0  0  0
 10  5  1  0  0  0  0
 12  2  1  0  0  0  0
 14 13  2  6  0  0  0
 14 12  1  0  0  0  0
 14 17  1  0  0  0  0
 15 14  1  0  0  0  0
 16 15  1  0  0  0  0
 18 21  1  0  0  0  0
 18 17  1  0  0  0  0
 18 19  1  0  0  0  0
 20 18  1  0  0  0  0
 21 22  1  0  0  0  0
 22 23  2  0  0  0  0
 22 27  1  0  0  0  0
 23 28  1  0  0  0  0
 24 23  1  0  0  0  0
 25 24  2  0  0  0  0
 26 25  1  0  0  0  0
 26 21  2  0  0  0  0
 29 25  1  0  0  0  0
 30  1  1  0  0  0  0
 31 30  1  0  0  0  0
 32 33  1  0  0  0  0
 32 31  2  0  0  0  0
 34 32  1  0  0  0  0
 35 34  2  0  0  0  0
 35 36  1  0  0  0  0
 36 41  1  0  0  0  0
 37 36  2  0  0  0  0
 37 38  1  0  0  0  0
 38 39  2  0  0  0  0
 39 40  1  0  0  0  0
 41 31  1  0  0  0  0
 41 40  2  0  0  0  0
M  END
>  <minimizedAffinity>
-5.7444067

>  <minimizedRMSD>
4.09429359

$$$$
