
 OpenBabel03272507163D

 28 31  0  0  1  0  0  0  0  0999 V2000
   36.4000   31.0300   50.0480 C   0  0  1  0  0  0  0  0  0  0  0  0
   35.3570   30.0930   49.6820 C   0  0  2  0  0  0  0  0  0  0  0  0
   36.6380   29.5350   50.2720 C   0  0  0  0  0  0  0  0  0  0  0  0
   36.3110   31.5930   51.0120 H   0  0  0  0  0  0  0  0  0  0  0  0
   34.4370   30.0540   50.3210 H   0  0  0  0  0  0  0  0  0  0  0  0
   37.3350   28.9920   49.6120 H   0  0  0  0  0  0  0  0  0  0  0  0
   36.5300   29.1640   51.3060 H   0  0  0  0  0  0  0  0  0  0  0  0
   37.3340   31.5980   49.0010 C   0  0  0  0  0  0  0  0  0  0  0  0
   38.1890   32.6180   49.4190 C   0  0  0  0  0  0  0  0  0  0  0  0
   39.0210   33.1420   48.4450 C   0  0  0  0  0  0  0  0  0  0  0  0
   38.9700   32.6560   47.1610 N   0  0  0  0  0  0  0  0  0  0  0  0
   38.1240   31.6620   46.7920 C   0  0  0  0  0  0  0  0  0  0  0  0
   37.2990   31.1310   47.7270 N   0  0  0  0  0  0  0  0  0  0  0  0
   38.1670   32.9440   50.4500 H   0  0  0  0  0  0  0  0  0  0  0  0
   39.7040   33.9350   48.7150 H   0  0  0  0  0  0  0  0  0  0  0  0
   38.1330   31.3250   45.7650 H   0  0  0  0  0  0  0  0  0  0  0  0
   35.1450   29.7820   48.3500 O   0  0  0  0  0  0  0  0  0  0  0  0
   34.2540   28.8030   47.9740 C   0  0  0  0  0  0  0  0  0  0  0  0
   34.1550   27.4750   48.3050 C   0  0  0  0  0  0  0  0  0  0  0  0
   34.9010   27.1150   48.9820 H   0  0  0  0  0  0  0  0  0  0  0  0
   33.1860   26.6320   47.8270 C   0  0  0  0  0  3  0  0  0  0  0  0
   32.2310   27.0800   46.9640 C   0  0  0  0  0  3  0  0  0  0  0  0
   32.2790   28.4090   46.5950 C   0  0  0  0  0  0  0  0  0  0  0  0
   31.2990   28.8290   45.7200 C   0  0  0  0  0  3  0  0  0  0  0  0
   31.2820   30.1420   45.3040 C   0  0  0  0  0  3  0  0  0  0  0  0
   32.2420   31.0180   45.7640 C   0  0  0  0  0  3  0  0  0  0  0  0
   33.1940   30.5370   46.6360 C   0  0  0  0  0  3  0  0  0  0  0  0
   33.2620   29.2390   47.0870 C   0  0  0  0  0  0  0  0  0  0  0  0
  1  3  1  0  0  0  0
  1  4  1  1  0  0  0
  2  1  1  0  0  0  0
  2  3  1  0  0  0  0
  2  5  1  1  0  0  0
  3  7  1  0  0  0  0
  6  3  1  0  0  0  0
  8  9  1  0  0  0  0
  8  1  1  0  0  0  0
  9 14  1  0  0  0  0
 10 15  1  0  0  0  0
 10  9  2  0  0  0  0
 11 10  1  0  0  0  0
 12 11  2  0  0  0  0
 12 13  1  0  0  0  0
 13  8  2  0  0  0  0
 16 12  1  0  0  0  0
 17  2  1  0  0  0  0
 18 19  1  0  0  0  0
 18 17  1  0  0  0  0
 19 20  1  0  0  0  0
 21 19  2  0  0  0  0
 22 21  1  0  0  0  0
 23 22  2  0  0  0  0
 23 28  1  0  0  0  0
 24 23  1  0  0  0  0
 25 24  2  0  0  0  0
 25 26  1  0  0  0  0
 26 27  2  0  0  0  0
 27 28  1  0  0  0  0
 28 18  2  0  0  0  0
M  END
>  <minimizedAffinity>
-5.48730516

>  <minimizedRMSD>
1.76354301

$$$$
