
 OpenBabel03272508283D

 40 44  0  0  1  0  0  0  0  0999 V2000
   33.3340   28.6520   47.1400 C   0  0  2  0  0  0  0  0  0  0  0  0
   33.9890   27.9170   48.3010 C   0  0  2  0  0  0  0  0  0  0  0  0
   33.0640   27.9140   49.3010 O   0  0  0  0  0  0  0  0  0  0  0  0
   31.8080   28.0430   48.8010 C   0  0  0  0  0  0  0  0  0  0  0  0
   31.9080   28.1070   47.2900 C   0  0  1  0  0  0  0  0  0  0  0  0
   33.3190   29.7340   47.2730 H   0  0  0  0  0  0  0  0  0  0  0  0
   34.1860   26.8850   47.9880 H   0  0  0  0  0  0  0  0  0  0  0  0
   31.4290   29.0570   49.1130 H   0  0  0  0  0  0  0  0  0  0  0  0
   31.0770   27.3050   49.1450 H   0  0  0  0  0  0  0  0  0  0  0  0
   31.8970   27.0540   46.9250 H   0  0  0  0  0  0  0  0  0  0  0  0
   35.1970   30.0800   49.0580 C   0  0  1  0  0  0  0  0  0  0  0  0
   35.2170   28.6890   48.6710 C   0  0  1  0  0  0  0  0  0  0  0  0
   35.5420   28.9990   50.0950 C   0  0  0  0  0  0  0  0  0  0  0  0
   34.3160   30.6620   49.4290 H   0  0  0  0  0  0  0  0  0  0  0  0
   36.0930   28.3900   48.0250 H   0  0  0  0  0  0  0  0  0  0  0  0
   34.8170   28.7390   50.8760 H   0  0  0  0  0  0  0  0  0  0  0  0
   36.6070   28.8980   50.4150 H   0  0  0  0  0  0  0  0  0  0  0  0
   36.3860   30.9840   48.7730 C   0  0  0  0  0  0  0  0  0  0  0  0
   36.7830   31.8480   49.7970 C   0  0  0  0  0  0  0  0  0  0  0  0
   37.8570   32.6740   49.4780 C   0  0  0  0  0  0  0  0  0  0  0  0
   38.4510   32.6230   48.2630 N   0  0  0  0  0  0  0  0  0  0  0  0
   38.0290   31.7620   47.2950 C   0  0  0  0  0  0  0  0  0  0  0  0
   36.9840   30.9330   47.5530 N   0  0  0  0  0  0  0  0  0  0  0  0
   36.2680   31.8430   50.7470 H   0  0  0  0  0  0  0  0  0  0  0  0
   38.2000   33.3620   50.2430 H   0  0  0  0  0  0  0  0  0  0  0  0
   38.5330   31.7560   46.3420 H   0  0  0  0  0  0  0  0  0  0  0  0
   33.8630   28.3430   45.9070 O   0  0  0  0  0  0  0  0  0  0  0  0
   34.8170   28.0880   45.9180 H   0  0  0  0  0  0  0  0  0  0  0  0
   30.9850   28.9280   46.7010 O   0  0  0  0  0  0  0  0  0  0  0  0
   29.6300   28.7560   46.6680 C   0  0  0  0  0  0  0  0  0  0  0  0
   28.8830   27.7750   47.2790 C   0  0  0  0  0  0  0  0  0  0  0  0
   29.4430   27.0520   47.8570 H   0  0  0  0  0  0  0  0  0  0  0  0
   27.5100   27.6920   47.1800 C   0  0  0  0  0  3  0  0  0  0  0  0
   26.8400   28.6380   46.4310 C   0  0  0  0  0  3  0  0  0  0  0  0
   27.5340   29.6570   45.7860 C   0  0  0  0  0  0  0  0  0  0  0  0
   26.8510   30.5970   45.0400 C   0  0  0  0  0  3  0  0  0  0  0  0
   27.5570   31.5950   44.4110 C   0  0  0  0  0  3  0  0  0  0  0  0
   28.9260   31.6850   44.5040 C   0  0  0  0  0  3  0  0  0  0  0  0
   29.5600   30.7200   45.2640 C   0  0  0  0  0  3  0  0  0  0  0  0
   28.9050   29.6840   45.9240 C   0  0  0  0  0  0  0  0  0  0  0  0
  1  6  1  1  0  0  0
  1  5  1  0  0  0  0
  1  2  1  0  0  0  0
  2  7  1  6  0  0  0
  2 12  1  0  0  0  0
  2  3  1  0  0  0  0
  4  8  1  0  0  0  0
  4  9  1  0  0  0  0
  4  3  1  0  0  0  0
  5 10  1  6  0  0  0
  5  4  1  0  0  0  0
 11 14  1  1  0  0  0
 11 13  1  0  0  0  0
 12 15  1  6  0  0  0
 12 11  1  0  0  0  0
 12 13  1  0  0  0  0
 13 17  1  0  0  0  0
 13 16  1  0  0  0  0
 18 11  1  0  0  0  0
 18 19  1  0  0  0  0
 19 24  1  0  0  0  0
 20 19  2  0  0  0  0
 20 25  1  0  0  0  0
 21 20  1  0  0  0  0
 22 23  1  0  0  0  0
 22 21  2  0  0  0  0
 23 18  2  0  0  0  0
 26 22  1  0  0  0  0
 27 28  1  0  0  0  0
 27  1  1  0  0  0  0
 29  5  1  0  0  0  0
 30 29  1  0  0  0  0
 30 31  1  0  0  0  0
 31 32  1  0  0  0  0
 33 31  2  0  0  0  0
 34 33  1  0  0  0  0
 35 40  1  0  0  0  0
 35 34  2  0  0  0  0
 36 35  1  0  0  0  0
 37 38  1  0  0  0  0
 37 36  2  0  0  0  0
 38 39  2  0  0  0  0
 39 40  1  0  0  0  0
 40 30  2  0  0  0  0
M  END
>  <minimizedAffinity>
-5.89628649

>  <minimizedRMSD>
2.36087775

$$$$
