
 OpenBabel03272504393D

 44 47  0  0  0  0  0  0  0  0999 V2000
   34.3980   29.1640   48.7830 C   0  0  0  0  0  0  0  0  0  0  0  0
   35.2720   29.1240   49.4650 H   0  0  0  0  0  0  0  0  0  0  0  0
   33.7720   30.0030   49.2100 H   0  0  0  0  0  0  0  0  0  0  0  0
   37.1240   30.2940   48.7170 Cl  0  0  0  0  0  0  0  0  0  0  0  0
   36.0950   30.1490   47.2900 C   0  0  0  0  0  0  0  0  0  0  0  0
   36.5630   30.5780   46.0840 C   0  0  0  0  0  0  0  0  0  0  0  0
   35.7760   30.4700   44.9710 C   0  0  0  0  0  0  0  0  0  0  0  0
   34.5140   29.9260   45.0980 C   0  0  0  0  0  0  0  0  0  0  0  0
   34.0800   29.5010   46.3570 C   0  0  0  0  0  0  0  0  0  0  0  0
   34.8460   29.5970   47.4810 C   0  0  0  0  0  0  0  0  0  0  0  0
   36.1880   30.8250   44.0260 H   0  0  0  0  0  0  0  0  0  0  0  0
   33.9700   29.8840   44.1630 H   0  0  0  0  0  0  0  0  0  0  0  0
   33.1250   29.1270   46.2530 H   0  0  0  0  0  0  0  0  0  0  0  0
   39.5420   32.7100   46.5210 C   0  0  0  0  0  0  0  0  0  0  0  0
   40.4620   32.0800   45.6110 C   0  0  0  0  0  0  0  0  0  0  0  0
   40.0130   30.9720   44.9080 C   0  0  0  0  0  0  0  0  0  0  0  0
   38.7430   30.5330   45.1030 N   0  0  0  0  0  0  0  0  0  0  0  0
   37.9000   31.1480   45.9670 C   0  0  0  0  0  0  0  0  0  0  0  0
   38.3070   32.2160   46.6570 N   0  0  0  0  0  0  0  0  0  0  0  0
   39.9210   33.5770   47.0610 H   0  0  0  0  0  0  0  0  0  0  0  0
   41.4530   32.4760   45.5030 H   0  0  0  0  0  0  0  0  0  0  0  0
   40.9380   30.3810   44.0280 N   0  0  0  0  0  0  0  0  0  0  0  0
   41.2130   29.3630   44.0860 H   0  0  0  0  0  0  0  0  0  0  0  0
   41.3990   30.9330   43.2690 H   0  0  0  0  0  0  0  0  0  0  0  0
   33.6460   27.9250   48.9000 C   0  0  0  0  0  0  0  0  0  0  0  0
   33.6610   27.3440   47.9520 H   0  0  0  0  0  0  0  0  0  0  0  0
   34.0830   27.2240   49.6560 H   0  0  0  0  0  0  0  0  0  0  0  0
   32.3420   28.1300   49.2830 O   0  0  0  0  0  0  0  0  0  0  0  0
   31.9500   26.6260   47.1620 O   0  0  0  0  0  0  0  0  0  0  0  0
   31.2730   27.5850   48.0740 P   0  0  2  0  0  0  0  0  0  0  0  0
   30.7670   29.0220   47.2840 O   0  0  0  0  0  0  0  0  0  0  0  0
   30.0470   29.4200   47.8370 H   0  0  0  0  0  0  0  0  0  0  0  0
   29.9370   26.8730   48.7310 O   0  0  0  0  0  0  0  0  0  0  0  0
   28.8530   27.2500   49.3460 C   0  0  0  0  0  0  0  0  0  0  0  0
   29.0870   26.8680   50.6900 C   0  0  0  0  0  0  0  0  0  0  0  0
   29.9210   26.3800   51.1960 H   0  0  0  0  0  0  0  0  0  0  0  0
   28.1510   27.0920   51.7200 C   0  0  0  0  0  0  0  0  0  0  0  0
   26.9640   27.7100   51.3760 C   0  0  0  0  0  0  0  0  0  0  0  0
   26.6560   28.1110   50.0990 C   0  0  0  0  0  0  0  0  0  0  0  0
   25.5060   28.7310   49.6650 C   0  0  0  0  0  0  0  0  0  0  0  0
   25.2960   29.0970   48.3510 C   0  0  0  0  0  0  0  0  0  0  0  0
   26.3070   28.8170   47.4260 C   0  0  0  0  0  0  0  0  0  0  0  0
   27.4490   28.1990   47.8680 C   0  0  0  0  0  0  0  0  0  0  0  0
   27.6340   27.8480   49.1750 C   0  0  0  0  0  0  0  0  0  0  0  0
  1 25  1  0  0  0  0
  1  3  1  0  0  0  0
  1  2  1  0  0  0  0
  5 10  1  0  0  0  0
  5  4  1  0  0  0  0
  6  5  2  0  0  0  0
  7  8  2  0  0  0  0
  7  6  1  0  0  0  0
  8  9  1  0  0  0  0
  9 10  2  0  0  0  0
 10  1  1  0  0  0  0
 11  7  1  0  0  0  0
 12  8  1  0  0  0  0
 13  9  1  0  0  0  0
 14 19  1  0  0  0  0
 14 20  1  0  0  0  0
 15 14  2  0  0  0  0
 16 17  2  0  0  0  0
 16 15  1  0  0  0  0
 17 18  1  0  0  0  0
 18  6  1  0  0  0  0
 18 19  2  0  0  0  0
 21 15  1  0  0  0  0
 22 23  1  0  0  0  0
 22 16  1  0  0  0  0
 24 22  1  0  0  0  0
 25 28  1  0  0  0  0
 25 27  1  0  0  0  0
 26 25  1  0  0  0  0
 30 29  2  6  0  0  0
 30 33  1  0  0  0  0
 30 28  1  0  0  0  0
 31 32  1  0  0  0  0
 31 30  1  0  0  0  0
 33 34  1  0  0  0  0
 34 35  1  0  0  0  0
 35 36  1  0  0  0  0
 35 37  2  0  0  0  0
 38 37  1  0  0  0  0
 39 38  2  0  0  0  0
 40 39  1  0  0  0  0
 41 40  2  0  0  0  0
 42 43  2  0  0  0  0
 42 41  1  0  0  0  0
 43 44  1  0  0  0  0
 44 34  2  0  0  0  0
 44 39  1  0  0  0  0
M  END
>  <minimizedAffinity>
-7.55351305

>  <minimizedRMSD>
2.82268286

$$$$
