
 OpenBabel03272506443D

 34 37  0  0  1  0  0  0  0  0999 V2000
   32.4200   28.3330   47.3800 C   0  0  2  0  0  0  0  0  0  0  0  0
   33.4150   28.5660   48.5070 C   0  0  1  0  0  0  0  0  0  0  0  0
   34.1400   27.4250   48.6700 O   0  0  0  0  0  0  0  0  0  0  0  0
   33.8440   26.5500   47.6480 C   0  0  0  0  0  0  0  0  0  0  0  0
   33.2530   27.3990   46.5090 C   0  0  1  0  0  0  0  0  0  0  0  0
   31.5150   27.8250   47.7480 H   0  0  0  0  0  0  0  0  0  0  0  0
   32.8460   28.8880   49.3990 H   0  0  0  0  0  0  0  0  0  0  0  0
   34.8040   26.1250   47.2860 H   0  0  0  0  0  0  0  0  0  0  0  0
   33.1230   25.7750   47.9560 H   0  0  0  0  0  0  0  0  0  0  0  0
   34.0360   28.0070   46.0540 H   0  0  0  0  0  0  0  0  0  0  0  0
   32.1250   29.5200   46.7170 O   0  0  0  0  0  0  0  0  0  0  0  0
   31.3220   29.9270   47.1230 H   0  0  0  0  0  0  0  0  0  0  0  0
   34.5400   29.8780   47.9370 S   0  0  0  0  0  0  0  0  0  0  0  0
   37.3550   29.1590   50.6260 C   0  0  0  0  0  0  0  0  0  0  0  0
   37.8100   30.4080   51.0290 C   0  0  0  0  0  0  0  0  0  0  0  0
   37.2200   31.5290   50.4440 C   0  0  0  0  0  0  0  0  0  0  0  0
   36.2380   31.3460   49.5160 N   0  0  0  0  0  0  0  0  0  0  0  0
   35.8300   30.1030   49.1560 C   0  0  0  0  0  0  0  0  0  0  0  0
   36.3780   29.0080   49.7020 N   0  0  0  0  0  0  0  0  0  0  0  0
   37.8410   28.3250   51.1070 H   0  0  0  0  0  0  0  0  0  0  0  0
   38.5900   30.5490   51.7670 H   0  0  0  0  0  0  0  0  0  0  0  0
   37.5080   32.5520   50.6940 H   0  0  0  0  0  0  0  0  0  0  0  0
   32.4810   26.6140   45.6950 O   0  0  0  0  0  0  0  0  0  0  0  0
   32.9220   25.4080   45.1790 C   0  0  0  0  0  0  0  0  0  0  0  0
   32.5460   24.1150   45.4700 C   0  0  0  0  0  0  0  0  0  0  0  0
   31.7840   24.0580   46.2310 H   0  0  0  0  0  0  0  0  0  0  0  0
   33.1240   23.0430   44.8260 C   0  0  0  0  0  3  0  0  0  0  0  0
   34.0850   23.2090   43.8740 C   0  0  0  0  0  3  0  0  0  0  0  0
   34.4910   24.4970   43.5500 C   0  0  0  0  0  0  0  0  0  0  0  0
   35.4560   24.5940   42.5910 C   0  0  0  0  0  3  0  0  0  0  0  0
   35.8950   25.8500   42.2300 C   0  0  0  0  0  3  0  0  0  0  0  0
   35.3570   26.9640   42.8390 C   0  0  0  0  0  3  0  0  0  0  0  0
   34.3860   26.8030   43.8020 C   0  0  0  0  0  3  0  0  0  0  0  0
   33.9070   25.5800   44.2030 C   0  0  0  0  0  0  0  0  0  0  0  0
  1  6  1  1  0  0  0
  1  2  1  0  0  0  0
  2  3  1  0  0  0  0
  2  7  1  1  0  0  0
  4  9  1  0  0  0  0
  4  3  1  0  0  0  0
  5 10  1  6  0  0  0
  5  1  1  0  0  0  0
  5  4  1  0  0  0  0
  8  4  1  0  0  0  0
 11 12  1  0  0  0  0
 11  1  1  0  0  0  0
 13  2  1  0  0  0  0
 13 18  1  0  0  0  0
 14 15  1  0  0  0  0
 14 20  1  0  0  0  0
 15 21  1  0  0  0  0
 16 22  1  0  0  0  0
 16 15  2  0  0  0  0
 17 16  1  0  0  0  0
 18 17  2  0  0  0  0
 18 19  1  0  0  0  0
 19 14  2  0  0  0  0
 23  5  1  0  0  0  0
 24 25  1  0  0  0  0
 24 23  1  0  0  0  0
 25 26  1  0  0  0  0
 27 25  2  0  0  0  0
 28 27  1  0  0  0  0
 29 28  2  0  0  0  0
 29 34  1  0  0  0  0
 30 29  1  0  0  0  0
 31 30  2  0  0  0  0
 31 32  1  0  0  0  0
 32 33  2  0  0  0  0
 33 34  1  0  0  0  0
 34 24  2  0  0  0  0
M  END
>  <minimizedAffinity>
-3.99552274

>  <minimizedRMSD>
2.36235309

$$$$
