
 OpenBabel03272508573D

 42 46  0  0  1  0  0  0  0  0999 V2000
   39.1770   31.4640   43.3420 C   0  0  0  0  0  0  0  0  0  0  0  0
   40.1960   30.5350   43.4330 C   0  0  0  0  0  0  0  0  0  0  0  0
   40.8660   30.2140   42.2690 C   0  0  0  0  0  0  0  0  0  0  0  0
   40.4960   30.8200   41.1000 C   0  0  0  0  0  0  0  0  0  0  0  0
   39.4620   31.7630   41.0120 C   0  0  0  0  0  0  0  0  0  0  0  0
   38.8330   32.0490   42.1690 N   0  0  0  0  0  0  0  0  0  0  0  0
   40.4940   30.0500   44.3540 H   0  0  0  0  0  0  0  0  0  0  0  0
   41.6760   29.5080   42.2090 H   0  0  0  0  0  0  0  0  0  0  0  0
   40.9910   30.6010   40.1700 H   0  0  0  0  0  0  0  0  0  0  0  0
   38.4450   31.8270   44.5710 C   0  0  0  0  0  0  0  0  0  0  0  0
   37.3590   32.4130   44.5280 O   0  0  0  0  0  0  0  0  0  0  0  0
   39.0490   31.4720   45.8390 N   0  0  0  0  0  0  0  0  0  0  0  0
   40.0300   31.1650   45.9360 H   0  0  0  0  0  0  0  0  0  0  0  0
   38.7370   31.1260   48.2850 C   0  0  2  0  0  0  0  0  0  0  0  0
   38.7220   32.5950   48.0510 C   0  0  0  0  0  0  0  0  0  0  0  0
   38.2240   31.5560   47.0250 C   0  0  1  0  0  0  0  0  0  0  0  0
   39.7460   30.6690   48.3670 H   0  0  0  0  0  0  0  0  0  0  0  0
   39.6690   33.0910   47.8530 H   0  0  0  0  0  0  0  0  0  0  0  0
   37.9720   33.1990   48.5940 H   0  0  0  0  0  0  0  0  0  0  0  0
   37.1260   31.6170   46.8710 H   0  0  0  0  0  0  0  0  0  0  0  0
   35.9130   29.1950   49.7390 C   0  0  0  0  0  0  0  0  0  0  0  0
   36.1340   29.3700   51.1320 C   0  0  0  0  0  0  0  0  0  0  0  0
   37.2630   30.1710   51.5600 C   0  0  0  0  0  0  0  0  0  0  0  0
   38.0720   30.7270   50.6090 N   0  0  0  0  0  0  0  0  0  0  0  0
   37.7950   30.5150   49.2940 C   0  0  0  0  0  0  0  0  0  0  0  0
   36.7300   29.7580   48.8200 N   0  0  0  0  0  0  0  0  0  0  0  0
   35.0680   28.5960   49.4930 H   0  0  0  0  0  0  0  0  0  0  0  0
   35.5230   28.9480   51.8870 H   0  0  0  0  0  0  0  0  0  0  0  0
   37.4270   30.3010   52.6110 H   0  0  0  0  0  0  0  0  0  0  0  0
   39.0900   32.3700   39.7470 C   0  0  0  0  0  0  0  0  0  0  0  0
   38.8660   33.6030   39.7010 O   0  0  0  0  0  0  0  0  0  0  0  0
   38.9250   31.7540   38.4420 C   0  0  0  0  0  0  0  0  0  0  0  0
   37.6750   31.2290   38.0950 C   0  0  0  0  0  0  0  0  0  0  0  0
   36.8800   31.3020   38.8490 H   0  0  0  0  0  0  0  0  0  0  0  0
   37.3600   30.6320   36.8920 C   0  0  0  0  0  3  0  0  0  0  0  0
   38.3600   30.5410   35.9460 C   0  0  0  0  0  3  0  0  0  0  0  0
   39.6120   31.0410   36.2340 C   0  0  0  0  0  0  0  0  0  0  0  0
   40.6160   30.9490   35.2940 C   0  0  0  0  0  3  0  0  0  0  0  0
   41.8830   31.4450   35.5720 C   0  0  0  0  0  3  0  0  0  0  0  0
   42.1450   32.0390   36.8100 C   0  0  0  0  0  3  0  0  0  0  0  0
   41.1210   32.1140   37.7240 C   0  0  0  0  0  3  0  0  0  0  0  0
   39.8750   31.6290   37.4530 C   0  0  0  0  0  0  0  0  0  0  0  0
  1  2  1  0  0  0  0
  1 10  1  0  0  0  0
  2  7  1  0  0  0  0
  3  2  2  0  0  0  0
  4  3  1  0  0  0  0
  5  4  2  0  0  0  0
  5  6  1  0  0  0  0
  6  1  2  0  0  0  0
  8  3  1  0  0  0  0
  9  4  1  0  0  0  0
 10 12  1  0  0  0  0
 11 10  2  0  0  0  0
 12 13  1  0  0  0  0
 12 16  1  0  0  0  0
 14 17  1  6  0  0  0
 14 25  1  0  0  0  0
 15 14  1  0  0  0  0
 15 19  1  0  0  0  0
 16 20  1  6  0  0  0
 16 15  1  0  0  0  0
 16 14  1  0  0  0  0
 18 15  1  0  0  0  0
 21 22  1  0  0  0  0
 22 23  2  0  0  0  0
 22 28  1  0  0  0  0
 23 29  1  0  0  0  0
 24 23  1  0  0  0  0
 25 24  2  0  0  0  0
 26 25  1  0  0  0  0
 26 21  2  0  0  0  0
 27 21  1  0  0  0  0
 30  5  1  0  0  0  0
 31 30  2  0  0  0  0
 32 30  1  0  0  0  0
 33 32  1  0  0  0  0
 33 34  1  0  0  0  0
 35 33  2  0  0  0  0
 36 37  2  0  0  0  0
 36 35  1  0  0  0  0
 37 42  1  0  0  0  0
 38 39  2  0  0  0  0
 38 37  1  0  0  0  0
 39 40  1  0  0  0  0
 40 41  2  0  0  0  0
 42 41  1  0  0  0  0
 42 32  2  0  0  0  0
M  END
>  <minimizedAffinity>
-5.14126301

>  <minimizedRMSD>
1.376858

$$$$
