
 OpenBabel03272508573D

 42 46  0  0  1  0  0  0  0  0999 V2000
   39.1630   31.4500   43.3580 C   0  0  0  0  0  0  0  0  0  0  0  0
   40.1640   30.5120   43.5240 C   0  0  0  0  0  0  0  0  0  0  0  0
   40.8790   30.1450   42.4020 C   0  0  0  0  0  0  0  0  0  0  0  0
   40.5690   30.7160   41.1990 C   0  0  0  0  0  0  0  0  0  0  0  0
   39.5520   31.6670   41.0340 C   0  0  0  0  0  0  0  0  0  0  0  0
   38.8770   31.9990   42.1530 N   0  0  0  0  0  0  0  0  0  0  0  0
   40.4150   30.0550   44.4730 H   0  0  0  0  0  0  0  0  0  0  0  0
   41.6820   29.4280   42.4010 H   0  0  0  0  0  0  0  0  0  0  0  0
   41.1010   30.4590   40.2990 H   0  0  0  0  0  0  0  0  0  0  0  0
   38.3830   31.8620   44.5420 C   0  0  0  0  0  0  0  0  0  0  0  0
   37.3030   32.4510   44.4310 O   0  0  0  0  0  0  0  0  0  0  0  0
   38.9310   31.5520   45.8460 N   0  0  0  0  0  0  0  0  0  0  0  0
   39.9050   31.2440   45.9950 H   0  0  0  0  0  0  0  0  0  0  0  0
   38.4180   31.0880   48.2380 C   0  0  2  0  0  0  0  0  0  0  0  0
   38.6500   32.5520   48.1220 C   0  0  0  0  0  0  0  0  0  0  0  0
   38.0580   31.6850   46.9930 C   0  0  1  0  0  0  0  0  0  0  0  0
   39.3340   30.4680   48.3320 H   0  0  0  0  0  0  0  0  0  0  0  0
   39.6750   32.9010   48.0120 H   0  0  0  0  0  0  0  0  0  0  0  0
   37.9740   33.2310   48.6740 H   0  0  0  0  0  0  0  0  0  0  0  0
   36.9950   31.9340   46.7890 H   0  0  0  0  0  0  0  0  0  0  0  0
   35.0520   30.2020   49.5420 C   0  0  0  0  0  0  0  0  0  0  0  0
   35.3790   29.5720   50.7730 C   0  0  0  0  0  0  0  0  0  0  0  0
   36.7730   29.4680   51.1500 C   0  0  0  0  0  0  0  0  0  0  0  0
   37.7210   29.9790   50.3080 N   0  0  0  0  0  0  0  0  0  0  0  0
   37.3300   30.5680   49.1460 C   0  0  0  0  0  0  0  0  0  0  0  0
   36.0100   30.6990   48.7290 N   0  0  0  0  0  0  0  0  0  0  0  0
   34.0100   30.2460   49.3260 H   0  0  0  0  0  0  0  0  0  0  0  0
   34.6630   29.1680   51.4420 H   0  0  0  0  0  0  0  0  0  0  0  0
   37.0180   28.9920   52.0790 H   0  0  0  0  0  0  0  0  0  0  0  0
   39.2440   32.2350   39.7350 C   0  0  0  0  0  0  0  0  0  0  0  0
   38.5850   33.3010   39.6730 O   0  0  0  0  0  0  0  0  0  0  0  0
   39.5920   31.7510   38.4110 C   0  0  0  0  0  0  0  0  0  0  0  0
   40.6480   32.3600   37.7230 C   0  0  0  0  0  0  0  0  0  0  0  0
   41.1540   33.1930   38.2280 H   0  0  0  0  0  0  0  0  0  0  0  0
   41.1050   32.0020   36.4720 C   0  0  0  0  0  3  0  0  0  0  0  0
   40.4690   30.9540   35.8380 C   0  0  0  0  0  3  0  0  0  0  0  0
   39.4210   30.3160   36.4680 C   0  0  0  0  0  0  0  0  0  0  0  0
   38.7790   29.2720   35.8390 C   0  0  0  0  0  3  0  0  0  0  0  0
   37.7180   28.6250   36.4600 C   0  0  0  0  0  3  0  0  0  0  0  0
   37.2990   29.0330   37.7300 C   0  0  0  0  0  3  0  0  0  0  0  0
   37.9600   30.0770   38.3300 C   0  0  0  0  0  3  0  0  0  0  0  0
   39.0030   30.7140   37.7210 C   0  0  0  0  0  0  0  0  0  0  0  0
  1  2  1  0  0  0  0
  1 10  1  0  0  0  0
  2  7  1  0  0  0  0
  3  2  2  0  0  0  0
  4  3  1  0  0  0  0
  5  4  2  0  0  0  0
  5  6  1  0  0  0  0
  6  1  2  0  0  0  0
  8  3  1  0  0  0  0
  9  4  1  0  0  0  0
 10 12  1  0  0  0  0
 11 10  2  0  0  0  0
 12 13  1  0  0  0  0
 12 16  1  0  0  0  0
 14 17  1  6  0  0  0
 14 25  1  0  0  0  0
 15 14  1  0  0  0  0
 15 19  1  0  0  0  0
 16 20  1  6  0  0  0
 16 15  1  0  0  0  0
 16 14  1  0  0  0  0
 18 15  1  0  0  0  0
 21 22  1  0  0  0  0
 22 23  2  0  0  0  0
 22 28  1  0  0  0  0
 23 29  1  0  0  0  0
 24 23  1  0  0  0  0
 25 24  2  0  0  0  0
 26 25  1  0  0  0  0
 26 21  2  0  0  0  0
 27 21  1  0  0  0  0
 30  5  1  0  0  0  0
 31 30  2  0  0  0  0
 32 30  1  0  0  0  0
 33 34  1  0  0  0  0
 33 32  1  0  0  0  0
 35 33  2  0  0  0  0
 36 37  2  0  0  0  0
 36 35  1  0  0  0  0
 37 42  1  0  0  0  0
 38 39  2  0  0  0  0
 38 37  1  0  0  0  0
 39 40  1  0  0  0  0
 40 41  2  0  0  0  0
 42 41  1  0  0  0  0
 42 32  2  0  0  0  0
M  END
>  <minimizedAffinity>
-4.9670639

>  <minimizedRMSD>
0.562249422

$$$$
