
 OpenBabel03272502263D

 32 35  0  0  0  0  0  0  0  0999 V2000
   36.6280   26.2280   32.2320 C   0  0  0  0  0  0  0  0  0  0  0  0
   36.4770   24.9600   31.6520 C   0  0  0  0  0  0  0  0  0  0  0  0
   37.1570   23.9010   32.2450 C   0  0  0  0  0  0  0  0  0  0  0  0
   37.8970   24.1860   33.3190 N   0  0  0  0  0  0  0  0  0  0  0  0
   38.0430   25.3950   33.8740 C   0  0  0  0  0  0  0  0  0  0  0  0
   37.3940   26.4260   33.3160 N   0  0  0  0  0  0  0  0  0  0  0  0
   36.0960   27.0670   31.7710 H   0  0  0  0  0  0  0  0  0  0  0  0
   35.8680   24.7660   30.7790 H   0  0  0  0  0  0  0  0  0  0  0  0
   37.0940   22.5400   31.7580 C   0  0  0  0  0  0  0  0  0  0  0  0
   37.9770   22.0850   30.7880 C   0  0  0  0  0  0  0  0  0  0  0  0
   37.9490   20.7920   30.2980 C   0  0  0  0  0  0  0  0  0  0  0  0
   37.0230   19.9250   30.7800 N   0  0  0  0  0  0  0  0  0  0  0  0
   36.1820   20.3900   31.7170 C   0  0  0  0  0  0  0  0  0  0  0  0
   36.1910   21.6400   32.2060 N   0  0  0  0  0  0  0  0  0  0  0  0
   38.7020   22.8050   30.4260 H   0  0  0  0  0  0  0  0  0  0  0  0
   38.6710   20.5130   29.5420 H   0  0  0  0  0  0  0  0  0  0  0  0
   35.1540   19.4580   32.2650 C   0  0  0  0  0  0  0  0  0  0  0  0
   35.3060   19.4340   33.6610 F   0  0  0  0  0  0  0  0  0  0  0  0
   33.8880   19.8540   31.9120 F   0  0  0  0  0  0  0  0  0  0  0  0
   35.3610   18.1650   31.8420 F   0  0  0  0  0  0  0  0  0  0  0  0
   38.8460   25.5200   34.9860 O   0  0  0  0  0  0  0  0  0  0  0  0
   38.9830   24.6770   36.0400 C   0  0  0  0  0  0  0  0  0  0  0  0
   38.0000   24.9210   37.0080 C   0  0  0  0  0  0  0  0  0  0  0  0
   37.2090   25.6860   36.9580 H   0  0  0  0  0  0  0  0  0  0  0  0
   37.9340   24.1750   38.1910 C   0  0  0  0  0  3  0  0  0  0  0  0
   38.8820   23.1900   38.3520 C   0  0  0  0  0  3  0  0  0  0  0  0
   39.8570   22.9150   37.4400 C   0  0  0  0  0  0  0  0  0  0  0  0
   40.8310   21.9450   37.5630 C   0  0  0  0  0  3  0  0  0  0  0  0
   41.7980   21.7460   36.5700 C   0  0  0  0  0  3  0  0  0  0  0  0
   41.7910   22.5330   35.4290 C   0  0  0  0  0  3  0  0  0  0  0  0
   40.8130   23.5040   35.3090 C   0  0  0  0  0  3  0  0  0  0  0  0
   39.8850   23.6660   36.3020 C   0  0  0  0  0  0  0  0  0  0  0  0
  1  6  1  0  0  0  0
  2  1  2  0  0  0  0
  2  3  1  0  0  0  0
  3  4  2  0  0  0  0
  4  5  1  0  0  0  0
  5 21  1  0  0  0  0
  6  5  2  0  0  0  0
  7  1  1  0  0  0  0
  8  2  1  0  0  0  0
  9 14  1  0  0  0  0
  9  3  1  0  0  0  0
 10  9  2  0  0  0  0
 11 12  2  0  0  0  0
 11 10  1  0  0  0  0
 12 13  1  0  0  0  0
 13 14  2  0  0  0  0
 13 17  1  0  0  0  0
 15 10  1  0  0  0  0
 16 11  1  0  0  0  0
 17 18  1  0  0  0  0
 19 17  1  0  0  0  0
 20 17  1  0  0  0  0
 21 22  1  0  0  0  0
 22 32  2  0  0  0  0
 22 23  1  0  0  0  0
 23 25  2  0  0  0  0
 24 23  1  0  0  0  0
 25 26  1  0  0  0  0
 27 28  1  0  0  0  0
 27 26  2  0  0  0  0
 29 28  2  0  0  0  0
 30 29  1  0  0  0  0
 31 30  2  0  0  0  0
 31 32  1  0  0  0  0
 32 27  1  0  0  0  0
M  END
>  <minimizedAffinity>
-6.81115484

$$$$

 OpenBabel03272502263D

 32 35  0  0  0  0  0  0  0  0999 V2000
   36.4310   25.7960   31.7990 C   0  0  0  0  0  0  0  0  0  0  0  0
   36.0010   24.5130   31.4310 C   0  0  0  0  0  0  0  0  0  0  0  0
   36.5860   23.4320   32.0820 C   0  0  0  0  0  0  0  0  0  0  0  0
   37.5090   23.7120   33.0050 N   0  0  0  0  0  0  0  0  0  0  0  0
   37.9200   24.9360   33.3590 C   0  0  0  0  0  0  0  0  0  0  0  0
   37.3670   25.9890   32.7410 N   0  0  0  0  0  0  0  0  0  0  0  0
   35.9750   26.6530   31.2900 H   0  0  0  0  0  0  0  0  0  0  0  0
   35.2490   24.3230   30.6750 H   0  0  0  0  0  0  0  0  0  0  0  0
   36.2420   22.0540   31.8080 C   0  0  0  0  0  0  0  0  0  0  0  0
   35.2280   21.4160   32.5110 C   0  0  0  0  0  0  0  0  0  0  0  0
   34.8680   20.1010   32.2780 C   0  0  0  0  0  0  0  0  0  0  0  0
   35.5310   19.3970   31.3250 N   0  0  0  0  0  0  0  0  0  0  0  0
   36.5060   20.0360   30.6600 C   0  0  0  0  0  0  0  0  0  0  0  0
   36.8710   21.3100   30.8710 N   0  0  0  0  0  0  0  0  0  0  0  0
   34.7220   22.0090   33.2630 H   0  0  0  0  0  0  0  0  0  0  0  0
   34.0680   19.6750   32.8660 H   0  0  0  0  0  0  0  0  0  0  0  0
   37.2490   19.2860   29.6080 C   0  0  0  0  0  0  0  0  0  0  0  0
   36.3110   18.8460   28.6600 F   0  0  0  0  0  0  0  0  0  0  0  0
   38.2110   20.0720   29.0240 F   0  0  0  0  0  0  0  0  0  0  0  0
   37.8360   18.1470   30.1120 F   0  0  0  0  0  0  0  0  0  0  0  0
   38.8850   25.0540   34.3340 O   0  0  0  0  0  0  0  0  0  0  0  0
   38.9850   24.4010   35.5190 C   0  0  0  0  0  0  0  0  0  0  0  0
   37.9620   24.7910   36.3940 C   0  0  0  0  0  0  0  0  0  0  0  0
   37.1680   25.5260   36.1840 H   0  0  0  0  0  0  0  0  0  0  0  0
   37.8530   24.2540   37.6820 C   0  0  0  0  0  3  0  0  0  0  0  0
   38.8010   23.3240   38.0440 C   0  0  0  0  0  3  0  0  0  0  0  0
   39.8140   22.9130   37.2300 C   0  0  0  0  0  0  0  0  0  0  0  0
   40.7890   21.9910   37.5530 C   0  0  0  0  0  3  0  0  0  0  0  0
   41.7970   21.6410   36.6460 C   0  0  0  0  0  3  0  0  0  0  0  0
   41.8310   22.2250   35.3890 C   0  0  0  0  0  3  0  0  0  0  0  0
   40.8520   23.1480   35.0690 C   0  0  0  0  0  3  0  0  0  0  0  0
   39.8830   23.4620   35.9830 C   0  0  0  0  0  0  0  0  0  0  0  0
  1  6  1  0  0  0  0
  2  1  2  0  0  0  0
  2  3  1  0  0  0  0
  3  4  2  0  0  0  0
  4  5  1  0  0  0  0
  5 21  1  0  0  0  0
  6  5  2  0  0  0  0
  7  1  1  0  0  0  0
  8  2  1  0  0  0  0
  9  3  1  0  0  0  0
  9 10  1  0  0  0  0
 10 15  1  0  0  0  0
 11 10  2  0  0  0  0
 11 16  1  0  0  0  0
 12 11  1  0  0  0  0
 13 14  1  0  0  0  0
 13 12  2  0  0  0  0
 14  9  2  0  0  0  0
 17 20  1  0  0  0  0
 17 13  1  0  0  0  0
 18 17  1  0  0  0  0
 19 17  1  0  0  0  0
 21 22  1  0  0  0  0
 22 32  2  0  0  0  0
 22 23  1  0  0  0  0
 23 25  2  0  0  0  0
 24 23  1  0  0  0  0
 25 26  1  0  0  0  0
 27 28  1  0  0  0  0
 27 26  2  0  0  0  0
 29 28  2  0  0  0  0
 30 29  1  0  0  0  0
 31 30  2  0  0  0  0
 31 32  1  0  0  0  0
 32 27  1  0  0  0  0
M  END
>  <minimizedAffinity>
-6.66145658

$$$$

 OpenBabel03272502263D

 32 35  0  0  0  0  0  0  0  0999 V2000
   37.2870   27.4980   33.9670 C   0  0  0  0  0  0  0  0  0  0  0  0
   37.7890   26.8110   35.0820 C   0  0  0  0  0  0  0  0  0  0  0  0
   37.9070   25.4280   34.9800 C   0  0  0  0  0  0  0  0  0  0  0  0
   37.5310   24.8740   33.8260 N   0  0  0  0  0  0  0  0  0  0  0  0
   37.0520   25.5270   32.7600 C   0  0  0  0  0  0  0  0  0  0  0  0
   36.9320   26.8600   32.8410 N   0  0  0  0  0  0  0  0  0  0  0  0
   37.1900   28.5870   34.0390 H   0  0  0  0  0  0  0  0  0  0  0  0
   38.0840   27.2940   36.0040 H   0  0  0  0  0  0  0  0  0  0  0  0
   38.4100   24.5900   36.0480 C   0  0  0  0  0  0  0  0  0  0  0  0
   37.7520   24.5140   37.2680 C   0  0  0  0  0  0  0  0  0  0  0  0
   38.2000   23.7250   38.3110 C   0  0  0  0  0  0  0  0  0  0  0  0
   39.3300   22.9910   38.1440 N   0  0  0  0  0  0  0  0  0  0  0  0
   39.9470   23.0830   36.9550 C   0  0  0  0  0  0  0  0  0  0  0  0
   39.5300   23.8420   35.9300 N   0  0  0  0  0  0  0  0  0  0  0  0
   36.8550   25.1130   37.3660 H   0  0  0  0  0  0  0  0  0  0  0  0
   37.6330   23.7180   39.2320 H   0  0  0  0  0  0  0  0  0  0  0  0
   41.1900   22.2870   36.7430 C   0  0  0  0  0  0  0  0  0  0  0  0
   41.3340   21.4270   37.8440 F   0  0  0  0  0  0  0  0  0  0  0  0
   41.1330   21.5820   35.5670 F   0  0  0  0  0  0  0  0  0  0  0  0
   42.3110   23.0850   36.7420 F   0  0  0  0  0  0  0  0  0  0  0  0
   36.7090   24.8040   31.6400 O   0  0  0  0  0  0  0  0  0  0  0  0
   37.2100   23.6230   31.1990 C   0  0  0  0  0  0  0  0  0  0  0  0
   38.4290   23.8130   30.5360 C   0  0  0  0  0  0  0  0  0  0  0  0
   38.9420   24.7750   30.3730 H   0  0  0  0  0  0  0  0  0  0  0  0
   39.1440   22.7400   29.9900 C   0  0  0  0  0  3  0  0  0  0  0  0
   38.5870   21.4900   30.1400 C   0  0  0  0  0  3  0  0  0  0  0  0
   37.4040   21.2540   30.7770 C   0  0  0  0  0  0  0  0  0  0  0  0
   36.8060   20.0220   30.9430 C   0  0  0  0  0  3  0  0  0  0  0  0
   35.5810   19.8850   31.6060 C   0  0  0  0  0  3  0  0  0  0  0  0
   34.9400   21.0050   32.1150 C   0  0  0  0  0  3  0  0  0  0  0  0
   35.5420   22.2380   31.9460 C   0  0  0  0  0  3  0  0  0  0  0  0
   36.7420   22.3290   31.2930 C   0  0  0  0  0  0  0  0  0  0  0  0
  1  7  1  0  0  0  0
  1  2  1  0  0  0  0
  2  8  1  0  0  0  0
  3  2  2  0  0  0  0
  3  9  1  0  0  0  0
  4  3  1  0  0  0  0
  5  6  1  0  0  0  0
  5  4  2  0  0  0  0
  6  1  2  0  0  0  0
  9 10  1  0  0  0  0
 10 15  1  0  0  0  0
 10 11  2  0  0  0  0
 11 16  1  0  0  0  0
 12 11  1  0  0  0  0
 13 12  2  0  0  0  0
 14  9  2  0  0  0  0
 14 13  1  0  0  0  0
 17 13  1  0  0  0  0
 17 18  1  0  0  0  0
 19 17  1  0  0  0  0
 20 17  1  0  0  0  0
 21  5  1  0  0  0  0
 22 32  1  0  0  0  0
 22 21  1  0  0  0  0
 23 22  2  0  0  0  0
 24 23  1  0  0  0  0
 25 26  2  0  0  0  0
 25 23  1  0  0  0  0
 26 27  1  0  0  0  0
 27 28  2  0  0  0  0
 27 32  1  0  0  0  0
 28 29  1  0  0  0  0
 29 30  2  0  0  0  0
 31 30  1  0  0  0  0
 32 31  2  0  0  0  0
M  END
>  <minimizedAffinity>
-6.63531971

$$$$

 OpenBabel03272502263D

 32 35  0  0  0  0  0  0  0  0999 V2000
   35.8870   25.8500   31.3260 C   0  0  0  0  0  0  0  0  0  0  0  0
   35.5760   24.5080   31.0600 C   0  0  0  0  0  0  0  0  0  0  0  0
   36.2210   23.5390   31.8210 C   0  0  0  0  0  0  0  0  0  0  0  0
   37.0840   23.9720   32.7430 N   0  0  0  0  0  0  0  0  0  0  0  0
   37.3830   25.2520   33.0000 C   0  0  0  0  0  0  0  0  0  0  0  0
   36.7700   26.1980   32.2760 N   0  0  0  0  0  0  0  0  0  0  0  0
   35.3840   26.6190   30.7310 H   0  0  0  0  0  0  0  0  0  0  0  0
   34.8700   24.1940   30.3020 H   0  0  0  0  0  0  0  0  0  0  0  0
   35.9990   22.1190   31.6590 C   0  0  0  0  0  0  0  0  0  0  0  0
   35.0680   21.4470   32.4390 C   0  0  0  0  0  0  0  0  0  0  0  0
   34.8250   20.0910   32.3140 C   0  0  0  0  0  0  0  0  0  0  0  0
   35.5230   19.3800   31.3920 N   0  0  0  0  0  0  0  0  0  0  0  0
   36.4170   20.0530   30.6500 C   0  0  0  0  0  0  0  0  0  0  0  0
   36.6680   21.3670   30.7560 N   0  0  0  0  0  0  0  0  0  0  0  0
   34.5300   22.0460   33.1640 H   0  0  0  0  0  0  0  0  0  0  0  0
   34.0840   19.6390   32.9590 H   0  0  0  0  0  0  0  0  0  0  0  0
   37.1970   19.2970   29.6300 C   0  0  0  0  0  0  0  0  0  0  0  0
   36.3030   18.8970   28.6240 F   0  0  0  0  0  0  0  0  0  0  0  0
   38.2130   20.0630   29.1140 F   0  0  0  0  0  0  0  0  0  0  0  0
   37.7220   18.1350   30.1480 F   0  0  0  0  0  0  0  0  0  0  0  0
   38.2980   25.5310   33.9890 O   0  0  0  0  0  0  0  0  0  0  0  0
   39.1320   24.6860   34.6450 C   0  0  0  0  0  0  0  0  0  0  0  0
   40.2070   24.3090   33.8290 C   0  0  0  0  0  0  0  0  0  0  0  0
   40.3840   24.6330   32.7910 H   0  0  0  0  0  0  0  0  0  0  0  0
   41.2050   23.4390   34.2850 C   0  0  0  0  0  3  0  0  0  0  0  0
   41.0750   22.9750   35.5750 C   0  0  0  0  0  3  0  0  0  0  0  0
   40.0490   23.3120   36.4060 C   0  0  0  0  0  0  0  0  0  0  0  0
   39.8750   22.8660   37.7000 C   0  0  0  0  0  3  0  0  0  0  0  0
   38.7780   23.2650   38.4720 C   0  0  0  0  0  3  0  0  0  0  0  0
   37.8330   24.1290   37.9400 C   0  0  0  0  0  3  0  0  0  0  0  0
   38.0110   24.5740   36.6430 C   0  0  0  0  0  3  0  0  0  0  0  0
   39.0990   24.1620   35.9210 C   0  0  0  0  0  0  0  0  0  0  0  0
  1  6  1  0  0  0  0
  2  1  2  0  0  0  0
  2  3  1  0  0  0  0
  3  4  2  0  0  0  0
  4  5  1  0  0  0  0
  5 21  1  0  0  0  0
  6  5  2  0  0  0  0
  7  1  1  0  0  0  0
  8  2  1  0  0  0  0
  9  3  1  0  0  0  0
  9 10  1  0  0  0  0
 10 15  1  0  0  0  0
 11 10  2  0  0  0  0
 11 16  1  0  0  0  0
 12 11  1  0  0  0  0
 13 14  1  0  0  0  0
 13 12  2  0  0  0  0
 14  9  2  0  0  0  0
 17 20  1  0  0  0  0
 17 13  1  0  0  0  0
 18 17  1  0  0  0  0
 19 17  1  0  0  0  0
 21 22  1  0  0  0  0
 22 32  1  0  0  0  0
 23 25  1  0  0  0  0
 23 22  2  0  0  0  0
 24 23  1  0  0  0  0
 25 26  2  0  0  0  0
 26 27  1  0  0  0  0
 27 28  1  0  0  0  0
 28 29  2  0  0  0  0
 30 29  1  0  0  0  0
 31 30  2  0  0  0  0
 32 27  2  0  0  0  0
 32 31  1  0  0  0  0
M  END
>  <minimizedAffinity>
-6.59344769

$$$$

 OpenBabel03272502263D

 32 35  0  0  0  0  0  0  0  0999 V2000
   35.8850   25.8500   31.1240 C   0  0  0  0  0  0  0  0  0  0  0  0
   36.7970   25.2150   31.9800 C   0  0  0  0  0  0  0  0  0  0  0  0
   37.2720   25.9460   33.0630 C   0  0  0  0  0  0  0  0  0  0  0  0
   36.8160   27.1930   33.1960 N   0  0  0  0  0  0  0  0  0  0  0  0
   35.9450   27.8020   32.3810 C   0  0  0  0  0  0  0  0  0  0  0  0
   35.4770   27.1120   31.3320 N   0  0  0  0  0  0  0  0  0  0  0  0
   35.5060   25.2810   30.2680 H   0  0  0  0  0  0  0  0  0  0  0  0
   37.1460   24.2000   31.8400 H   0  0  0  0  0  0  0  0  0  0  0  0
   38.2140   25.4210   34.0290 C   0  0  0  0  0  0  0  0  0  0  0  0
   39.5730   25.3760   33.7500 C   0  0  0  0  0  0  0  0  0  0  0  0
   40.5040   24.8830   34.6470 C   0  0  0  0  0  0  0  0  0  0  0  0
   40.0790   24.4210   35.8500 N   0  0  0  0  0  0  0  0  0  0  0  0
   38.7600   24.4760   36.0940 C   0  0  0  0  0  0  0  0  0  0  0  0
   37.8400   24.9490   35.2390 N   0  0  0  0  0  0  0  0  0  0  0  0
   39.8750   25.7530   32.7810 H   0  0  0  0  0  0  0  0  0  0  0  0
   41.5460   24.8810   34.3570 H   0  0  0  0  0  0  0  0  0  0  0  0
   38.2660   23.9750   37.4080 C   0  0  0  0  0  0  0  0  0  0  0  0
   36.9950   23.4150   37.1970 F   0  0  0  0  0  0  0  0  0  0  0  0
   39.1300   23.0530   37.9450 F   0  0  0  0  0  0  0  0  0  0  0  0
   38.0800   25.0000   38.3070 F   0  0  0  0  0  0  0  0  0  0  0  0
   35.5740   29.0990   32.6590 O   0  0  0  0  0  0  0  0  0  0  0  0
   34.5420   29.5480   33.4170 C   0  0  0  0  0  0  0  0  0  0  0  0
   33.3160   29.0980   32.9100 C   0  0  0  0  0  0  0  0  0  0  0  0
   33.1690   28.4650   32.0190 H   0  0  0  0  0  0  0  0  0  0  0  0
   32.1010   29.4300   33.5230 C   0  0  0  0  0  3  0  0  0  0  0  0
   32.1760   30.2200   34.6480 C   0  0  0  0  0  3  0  0  0  0  0  0
   33.3430   30.6820   35.1780 C   0  0  0  0  0  0  0  0  0  0  0  0
   33.4640   31.4820   36.2970 C   0  0  0  0  0  3  0  0  0  0  0  0
   34.7130   31.9130   36.7580 C   0  0  0  0  0  3  0  0  0  0  0  0
   35.8670   31.5380   36.0880 C   0  0  0  0  0  3  0  0  0  0  0  0
   35.7420   30.7370   34.9680 C   0  0  0  0  0  3  0  0  0  0  0  0
   34.5020   30.3340   34.5490 C   0  0  0  0  0  0  0  0  0  0  0  0
  1  6  2  0  0  0  0
  1  2  1  0  0  0  0
  2  3  2  0  0  0  0
  3  4  1  0  0  0  0
  3  9  1  0  0  0  0
  5 21  1  0  0  0  0
  5  4  2  0  0  0  0
  6  5  1  0  0  0  0
  7  1  1  0  0  0  0
  8  2  1  0  0  0  0
  9 14  1  0  0  0  0
 10  9  2  0  0  0  0
 10 11  1  0  0  0  0
 11 12  2  0  0  0  0
 12 13  1  0  0  0  0
 13 17  1  0  0  0  0
 14 13  2  0  0  0  0
 15 10  1  0  0  0  0
 16 11  1  0  0  0  0
 17 19  1  0  0  0  0
 17 20  1  0  0  0  0
 18 17  1  0  0  0  0
 21 22  1  0  0  0  0
 22 32  1  0  0  0  0
 23 22  2  0  0  0  0
 23 25  1  0  0  0  0
 24 23  1  0  0  0  0
 25 26  2  0  0  0  0
 26 27  1  0  0  0  0
 27 28  1  0  0  0  0
 28 29  2  0  0  0  0
 30 29  1  0  0  0  0
 31 30  2  0  0  0  0
 32 31  1  0  0  0  0
 32 27  2  0  0  0  0
M  END
>  <minimizedAffinity>
-6.58717918

$$$$

 OpenBabel03272502263D

 32 35  0  0  0  0  0  0  0  0999 V2000
   36.8090   24.9510   31.9740 C   0  0  0  0  0  0  0  0  0  0  0  0
   36.2040   26.2140   31.9010 C   0  0  0  0  0  0  0  0  0  0  0  0
   36.6610   27.1930   32.7770 C   0  0  0  0  0  0  0  0  0  0  0  0
   37.6400   26.8430   33.6140 N   0  0  0  0  0  0  0  0  0  0  0  0
   38.2200   25.6390   33.6850 C   0  0  0  0  0  0  0  0  0  0  0  0
   37.7920   24.6840   32.8480 N   0  0  0  0  0  0  0  0  0  0  0  0
   36.4550   24.1740   31.2870 H   0  0  0  0  0  0  0  0  0  0  0  0
   35.4090   26.4610   31.2080 H   0  0  0  0  0  0  0  0  0  0  0  0
   36.1320   28.5390   32.8140 C   0  0  0  0  0  0  0  0  0  0  0  0
   35.7380   29.1860   31.6510 C   0  0  0  0  0  0  0  0  0  0  0  0
   35.2270   30.4710   31.6450 C   0  0  0  0  0  0  0  0  0  0  0  0
   35.1050   31.1360   32.8220 N   0  0  0  0  0  0  0  0  0  0  0  0
   35.4930   30.4890   33.9320 C   0  0  0  0  0  0  0  0  0  0  0  0
   35.9910   29.2430   33.9600 N   0  0  0  0  0  0  0  0  0  0  0  0
   35.8500   28.6250   30.7310 H   0  0  0  0  0  0  0  0  0  0  0  0
   34.9410   30.9070   30.6980 H   0  0  0  0  0  0  0  0  0  0  0  0
   35.3690   31.1960   35.2390 C   0  0  0  0  0  0  0  0  0  0  0  0
   35.4410   32.5750   34.9830 F   0  0  0  0  0  0  0  0  0  0  0  0
   34.1940   30.8700   35.8700 F   0  0  0  0  0  0  0  0  0  0  0  0
   36.4270   30.9140   36.0730 F   0  0  0  0  0  0  0  0  0  0  0  0
   39.2220   25.4410   34.6080 O   0  0  0  0  0  0  0  0  0  0  0  0
   39.2290   24.6390   35.7030 C   0  0  0  0  0  0  0  0  0  0  0  0
   38.1580   24.9440   36.5530 C   0  0  0  0  0  0  0  0  0  0  0  0
   37.3940   25.7210   36.3900 H   0  0  0  0  0  0  0  0  0  0  0  0
   37.9510   24.2490   37.7510 C   0  0  0  0  0  3  0  0  0  0  0  0
   38.8530   23.2530   38.0490 C   0  0  0  0  0  3  0  0  0  0  0  0
   39.9100   22.9200   37.2550 C   0  0  0  0  0  0  0  0  0  0  0  0
   40.8420   21.9370   37.5170 C   0  0  0  0  0  3  0  0  0  0  0  0
   41.9010   21.6770   36.6390 C   0  0  0  0  0  3  0  0  0  0  0  0
   42.0320   22.4160   35.4730 C   0  0  0  0  0  3  0  0  0  0  0  0
   41.0960   23.4010   35.2140 C   0  0  0  0  0  3  0  0  0  0  0  0
   40.0740   23.6230   36.0970 C   0  0  0  0  0  0  0  0  0  0  0  0
  1  6  1  0  0  0  0
  2  1  2  0  0  0  0
  2  3  1  0  0  0  0
  3  9  1  0  0  0  0
  3  4  2  0  0  0  0
  4  5  1  0  0  0  0
  5 21  1  0  0  0  0
  6  5  2  0  0  0  0
  7  1  1  0  0  0  0
  8  2  1  0  0  0  0
  9 14  1  0  0  0  0
 10  9  2  0  0  0  0
 11 10  1  0  0  0  0
 11 12  2  0  0  0  0
 12 13  1  0  0  0  0
 13 14  2  0  0  0  0
 13 17  1  0  0  0  0
 15 10  1  0  0  0  0
 16 11  1  0  0  0  0
 17 19  1  0  0  0  0
 17 20  1  0  0  0  0
 18 17  1  0  0  0  0
 21 22  1  0  0  0  0
 22 32  2  0  0  0  0
 22 23  1  0  0  0  0
 23 25  2  0  0  0  0
 24 23  1  0  0  0  0
 25 26  1  0  0  0  0
 27 28  1  0  0  0  0
 27 26  2  0  0  0  0
 29 28  2  0  0  0  0
 30 29  1  0  0  0  0
 31 30  2  0  0  0  0
 31 32  1  0  0  0  0
 32 27  1  0  0  0  0
M  END
>  <minimizedAffinity>
-6.54897165

$$$$

 OpenBabel03272502263D

 32 35  0  0  0  0  0  0  0  0999 V2000
   36.8370   23.5230   31.9490 C   0  0  0  0  0  0  0  0  0  0  0  0
   36.3160   24.8120   31.7700 C   0  0  0  0  0  0  0  0  0  0  0  0
   37.0190   25.8700   32.3370 C   0  0  0  0  0  0  0  0  0  0  0  0
   38.1330   25.5640   33.0050 N   0  0  0  0  0  0  0  0  0  0  0  0
   38.6330   24.3340   33.1780 C   0  0  0  0  0  0  0  0  0  0  0  0
   37.9690   23.3040   32.6380 N   0  0  0  0  0  0  0  0  0  0  0  0
   36.2890   22.6840   31.5060 H   0  0  0  0  0  0  0  0  0  0  0  0
   35.4070   25.0230   31.2210 H   0  0  0  0  0  0  0  0  0  0  0  0
   36.6030   27.2520   32.2320 C   0  0  0  0  0  0  0  0  0  0  0  0
   36.5480   27.8910   31.0010 C   0  0  0  0  0  0  0  0  0  0  0  0
   36.1550   29.2100   30.8590 C   0  0  0  0  0  0  0  0  0  0  0  0
   35.8080   29.9150   31.9650 N   0  0  0  0  0  0  0  0  0  0  0  0
   35.8690   29.2750   33.1430 C   0  0  0  0  0  0  0  0  0  0  0  0
   36.2480   27.9970   33.3030 N   0  0  0  0  0  0  0  0  0  0  0  0
   36.8330   27.2970   30.1410 H   0  0  0  0  0  0  0  0  0  0  0  0
   36.1380   29.6370   29.8660 H   0  0  0  0  0  0  0  0  0  0  0  0
   35.4930   30.0260   34.3740 C   0  0  0  0  0  0  0  0  0  0  0  0
   35.4670   31.3920   34.0450 F   0  0  0  0  0  0  0  0  0  0  0  0
   34.2770   29.6100   34.8570 F   0  0  0  0  0  0  0  0  0  0  0  0
   36.4430   29.8960   35.3610 F   0  0  0  0  0  0  0  0  0  0  0  0
   39.7990   24.1890   33.8970 O   0  0  0  0  0  0  0  0  0  0  0  0
   40.0020   23.5450   35.0730 C   0  0  0  0  0  0  0  0  0  0  0  0
   41.0010   22.5710   34.9450 C   0  0  0  0  0  0  0  0  0  0  0  0
   41.5660   22.3310   34.0300 H   0  0  0  0  0  0  0  0  0  0  0  0
   41.3910   21.7720   36.0270 C   0  0  0  0  0  3  0  0  0  0  0  0
   40.7430   21.9940   37.2210 C   0  0  0  0  0  3  0  0  0  0  0  0
   39.7660   22.9280   37.3950 C   0  0  0  0  0  0  0  0  0  0  0  0
   39.0850   23.1790   38.5690 C   0  0  0  0  0  3  0  0  0  0  0  0
   38.0870   24.1570   38.6440 C   0  0  0  0  0  3  0  0  0  0  0  0
   37.7620   24.9020   37.5210 C   0  0  0  0  0  3  0  0  0  0  0  0
   38.4460   24.6480   36.3460 C   0  0  0  0  0  3  0  0  0  0  0  0
   39.4170   23.6840   36.3140 C   0  0  0  0  0  0  0  0  0  0  0  0
  1  6  1  0  0  0  0
  2  1  2  0  0  0  0
  2  3  1  0  0  0  0
  3  4  2  0  0  0  0
  4  5  1  0  0  0  0
  5 21  1  0  0  0  0
  6  5  2  0  0  0  0
  7  1  1  0  0  0  0
  8  2  1  0  0  0  0
  9  3  1  0  0  0  0
  9 14  1  0  0  0  0
 10  9  2  0  0  0  0
 11 10  1  0  0  0  0
 11 12  2  0  0  0  0
 12 13  1  0  0  0  0
 13 14  2  0  0  0  0
 13 17  1  0  0  0  0
 15 10  1  0  0  0  0
 16 11  1  0  0  0  0
 17 19  1  0  0  0  0
 17 20  1  0  0  0  0
 18 17  1  0  0  0  0
 21 22  1  0  0  0  0
 22 32  1  0  0  0  0
 23 22  2  0  0  0  0
 23 25  1  0  0  0  0
 24 23  1  0  0  0  0
 25 26  2  0  0  0  0
 26 27  1  0  0  0  0
 27 28  1  0  0  0  0
 28 29  2  0  0  0  0
 30 29  1  0  0  0  0
 31 30  2  0  0  0  0
 32 31  1  0  0  0  0
 32 27  2  0  0  0  0
M  END
>  <minimizedAffinity>
-6.42978954

$$$$

 OpenBabel03272502263D

 32 35  0  0  0  0  0  0  0  0999 V2000
   37.0320   27.1530   33.8100 C   0  0  0  0  0  0  0  0  0  0  0  0
   37.5330   26.5470   34.9720 C   0  0  0  0  0  0  0  0  0  0  0  0
   37.8770   25.2010   34.8920 C   0  0  0  0  0  0  0  0  0  0  0  0
   37.7000   24.6020   33.7120 N   0  0  0  0  0  0  0  0  0  0  0  0
   37.2230   25.1790   32.6020 C   0  0  0  0  0  0  0  0  0  0  0  0
   36.8870   26.4750   32.6610 N   0  0  0  0  0  0  0  0  0  0  0  0
   36.7590   28.2130   33.8640 H   0  0  0  0  0  0  0  0  0  0  0  0
   37.6620   27.0650   35.9130 H   0  0  0  0  0  0  0  0  0  0  0  0
   38.4070   24.4460   36.0070 C   0  0  0  0  0  0  0  0  0  0  0  0
   37.7740   24.4550   37.2420 C   0  0  0  0  0  0  0  0  0  0  0  0
   38.2480   23.7460   38.3310 C   0  0  0  0  0  0  0  0  0  0  0  0
   39.3800   23.0100   38.1950 N   0  0  0  0  0  0  0  0  0  0  0  0
   39.9730   23.0180   36.9900 C   0  0  0  0  0  0  0  0  0  0  0  0
   39.5300   23.6980   35.9210 N   0  0  0  0  0  0  0  0  0  0  0  0
   36.8740   25.0540   37.3140 H   0  0  0  0  0  0  0  0  0  0  0  0
   37.6990   23.8030   39.2610 H   0  0  0  0  0  0  0  0  0  0  0  0
   41.2180   22.2170   36.8120 C   0  0  0  0  0  0  0  0  0  0  0  0
   41.3300   21.3580   37.9180 F   0  0  0  0  0  0  0  0  0  0  0  0
   41.1880   21.5090   35.6370 F   0  0  0  0  0  0  0  0  0  0  0  0
   42.3420   23.0100   36.8380 F   0  0  0  0  0  0  0  0  0  0  0  0
   37.1020   24.4180   31.4610 O   0  0  0  0  0  0  0  0  0  0  0  0
   36.8640   23.0880   31.3430 C   0  0  0  0  0  0  0  0  0  0  0  0
   35.6180   22.7520   31.8890 C   0  0  0  0  0  0  0  0  0  0  0  0
   34.9020   23.4450   32.3600 H   0  0  0  0  0  0  0  0  0  0  0  0
   35.1460   21.4330   31.8850 C   0  0  0  0  0  3  0  0  0  0  0  0
   35.9690   20.4870   31.3170 C   0  0  0  0  0  3  0  0  0  0  0  0
   37.1880   20.7640   30.7740 C   0  0  0  0  0  0  0  0  0  0  0  0
   38.0470   19.8480   30.2030 C   0  0  0  0  0  3  0  0  0  0  0  0
   39.2870   20.2330   29.6790 C   0  0  0  0  0  3  0  0  0  0  0  0
   39.6770   21.5620   29.7270 C   0  0  0  0  0  3  0  0  0  0  0  0
   38.8130   22.4780   30.3000 C   0  0  0  0  0  3  0  0  0  0  0  0
   37.6080   22.0620   30.7990 C   0  0  0  0  0  0  0  0  0  0  0  0
  1  7  1  0  0  0  0
  1  2  1  0  0  0  0
  2  8  1  0  0  0  0
  3  2  2  0  0  0  0
  3  9  1  0  0  0  0
  4  3  1  0  0  0  0
  5  6  1  0  0  0  0
  5  4  2  0  0  0  0
  6  1  2  0  0  0  0
  9 10  1  0  0  0  0
 10 15  1  0  0  0  0
 10 11  2  0  0  0  0
 11 16  1  0  0  0  0
 12 11  1  0  0  0  0
 13 12  2  0  0  0  0
 14  9  2  0  0  0  0
 14 13  1  0  0  0  0
 17 20  1  0  0  0  0
 17 13  1  0  0  0  0
 17 18  1  0  0  0  0
 19 17  1  0  0  0  0
 21  5  1  0  0  0  0
 22 21  1  0  0  0  0
 22 23  1  0  0  0  0
 23 24  1  0  0  0  0
 25 23  2  0  0  0  0
 26 25  1  0  0  0  0
 27 32  1  0  0  0  0
 27 26  2  0  0  0  0
 28 27  1  0  0  0  0
 29 30  1  0  0  0  0
 29 28  2  0  0  0  0
 30 31  2  0  0  0  0
 31 32  1  0  0  0  0
 32 22  2  0  0  0  0
M  END
>  <minimizedAffinity>
-6.39443779

$$$$

 OpenBabel03272502263D

 32 35  0  0  0  0  0  0  0  0999 V2000
   37.8790   23.7440   37.1910 C   0  0  0  0  0  0  0  0  0  0  0  0
   37.7710   22.6600   36.3070 C   0  0  0  0  0  0  0  0  0  0  0  0
   37.9710   22.9180   34.9550 C   0  0  0  0  0  0  0  0  0  0  0  0
   38.2510   24.1770   34.6150 N   0  0  0  0  0  0  0  0  0  0  0  0
   38.3560   25.2130   35.4570 C   0  0  0  0  0  0  0  0  0  0  0  0
   38.1660   24.9830   36.7640 N   0  0  0  0  0  0  0  0  0  0  0  0
   37.7230   23.5500   38.2580 H   0  0  0  0  0  0  0  0  0  0  0  0
   37.5410   21.6500   36.6190 H   0  0  0  0  0  0  0  0  0  0  0  0
   37.8930   21.9000   33.9290 C   0  0  0  0  0  0  0  0  0  0  0  0
   39.0210   21.5120   33.2180 C   0  0  0  0  0  0  0  0  0  0  0  0
   38.9870   20.5420   32.2320 C   0  0  0  0  0  0  0  0  0  0  0  0
   37.8050   19.9420   31.9400 N   0  0  0  0  0  0  0  0  0  0  0  0
   36.7310   20.3340   32.6410 C   0  0  0  0  0  0  0  0  0  0  0  0
   36.7410   21.2720   33.6010 N   0  0  0  0  0  0  0  0  0  0  0  0
   39.9450   22.0130   33.4780 H   0  0  0  0  0  0  0  0  0  0  0  0
   39.9080   20.2950   31.7230 H   0  0  0  0  0  0  0  0  0  0  0  0
   35.4200   19.6900   32.3410 C   0  0  0  0  0  0  0  0  0  0  0  0
   35.4620   19.2460   31.0100 F   0  0  0  0  0  0  0  0  0  0  0  0
   35.1700   18.6510   33.2020 F   0  0  0  0  0  0  0  0  0  0  0  0
   34.3830   20.5920   32.4030 F   0  0  0  0  0  0  0  0  0  0  0  0
   38.6520   26.4560   34.9440 O   0  0  0  0  0  0  0  0  0  0  0  0
   37.9570   27.1970   34.0450 C   0  0  0  0  0  0  0  0  0  0  0  0
   36.8510   27.8090   34.6490 C   0  0  0  0  0  0  0  0  0  0  0  0
   36.5530   27.7220   35.7060 H   0  0  0  0  0  0  0  0  0  0  0  0
   35.9780   28.6280   33.9230 C   0  0  0  0  0  3  0  0  0  0  0  0
   36.2640   28.8010   32.5870 C   0  0  0  0  0  3  0  0  0  0  0  0
   37.3260   28.2270   31.9550 C   0  0  0  0  0  0  0  0  0  0  0  0
   37.6460   28.3660   30.6200 C   0  0  0  0  0  3  0  0  0  0  0  0
   38.7580   27.7260   30.0610 C   0  0  0  0  0  3  0  0  0  0  0  0
   39.5690   26.9290   30.8540 C   0  0  0  0  0  3  0  0  0  0  0  0
   39.2460   26.7920   32.1920 C   0  0  0  0  0  3  0  0  0  0  0  0
   38.1510   27.4370   32.7000 C   0  0  0  0  0  0  0  0  0  0  0  0
  1  7  1  0  0  0  0
  2  8  1  0  0  0  0
  2  1  2  0  0  0  0
  3  2  1  0  0  0  0
  4  3  2  0  0  0  0
  4  5  1  0  0  0  0
  5  6  2  0  0  0  0
  6  1  1  0  0  0  0
  9  3  1  0  0  0  0
 10 15  1  0  0  0  0
 10  9  2  0  0  0  0
 11 10  1  0  0  0  0
 12 11  2  0  0  0  0
 12 13  1  0  0  0  0
 13 14  2  0  0  0  0
 14  9  1  0  0  0  0
 16 11  1  0  0  0  0
 17 20  1  0  0  0  0
 17 13  1  0  0  0  0
 17 19  1  0  0  0  0
 18 17  1  0  0  0  0
 21  5  1  0  0  0  0
 22 23  1  0  0  0  0
 22 21  1  0  0  0  0
 23 24  1  0  0  0  0
 25 23  2  0  0  0  0
 26 25  1  0  0  0  0
 27 26  2  0  0  0  0
 27 32  1  0  0  0  0
 28 27  1  0  0  0  0
 29 28  2  0  0  0  0
 29 30  1  0  0  0  0
 30 31  2  0  0  0  0
 31 32  1  0  0  0  0
 32 22  2  0  0  0  0
M  END
>  <minimizedAffinity>
-6.35492277

$$$$
