
 OpenBabel03272505443D

 26 28  0  0  0  0  0  0  0  0999 V2000
   32.5480   29.5950   46.7630 O   0  0  0  0  0  0  0  0  0  0  0  0
   34.0150   29.2260   46.9900 P   0  0  2  0  0  0  0  0  0  0  0  0
   34.2600   27.7410   46.2480 O   0  0  0  0  0  0  0  0  0  0  0  0
   33.6170   27.5480   45.5200 H   0  0  0  0  0  0  0  0  0  0  0  0
   34.2870   29.1810   48.6540 O   0  0  0  0  0  0  0  0  0  0  0  0
   36.6110   31.5710   50.1620 C   0  0  0  0  0  0  0  0  0  0  0  0
   37.6340   30.6560   50.5710 C   0  0  0  0  0  0  0  0  0  0  0  0
   37.4680   29.2920   50.3070 C   0  0  0  0  0  0  0  0  0  0  0  0
   36.3270   28.8990   49.6690 N   0  0  0  0  0  0  0  0  0  0  0  0
   35.3730   29.7870   49.2920 C   0  0  0  0  0  0  0  0  0  0  0  0
   35.5170   31.1130   49.5390 N   0  0  0  0  0  0  0  0  0  0  0  0
   36.7500   32.6030   50.3670 H   0  0  0  0  0  0  0  0  0  0  0  0
   38.5330   31.0050   51.0780 H   0  0  0  0  0  0  0  0  0  0  0  0
   38.2100   28.5740   50.5970 H   0  0  0  0  0  0  0  0  0  0  0  0
   34.9340   30.3970   46.1950 O   0  0  0  0  0  0  0  0  0  0  0  0
   35.8160   30.1000   45.1690 C   0  0  0  0  0  0  0  0  0  0  0  0
   35.5060   29.5380   43.9490 C   0  0  0  0  0  0  0  0  0  0  0  0
   34.4830   29.3070   43.7790 H   0  0  0  0  0  0  0  0  0  0  0  0
   36.5170   29.3060   43.0310 C   0  0  0  0  0  0  0  0  0  0  0  0
   37.8420   29.6150   43.2780 C   0  0  0  0  0  0  0  0  0  0  0  0
   38.1210   30.1780   44.5110 C   0  0  0  0  0  0  0  0  0  0  0  0
   39.4520   30.4790   44.7350 C   0  0  0  0  0  0  0  0  0  0  0  0
   39.8380   31.0510   45.9510 C   0  0  0  0  0  0  0  0  0  0  0  0
   38.8590   31.3030   46.9090 C   0  0  0  0  0  0  0  0  0  0  0  0
   37.5360   30.9930   46.6560 C   0  0  0  0  0  0  0  0  0  0  0  0
   37.1300   30.4260   45.4620 C   0  0  0  0  0  0  0  0  0  0  0  0
  2  1  2  6  0  0  0
  2  5  1  0  0  0  0
  3  2  1  0  0  0  0
  4  3  1  0  0  0  0
  5 10  1  0  0  0  0
  6 12  1  0  0  0  0
  6  7  1  0  0  0  0
  7 13  1  0  0  0  0
  8  7  2  0  0  0  0
  8 14  1  0  0  0  0
  9  8  1  0  0  0  0
 10 11  1  0  0  0  0
 10  9  2  0  0  0  0
 11  6  2  0  0  0  0
 15  2  1  0  0  0  0
 16 26  1  0  0  0  0
 16 15  1  0  0  0  0
 17 16  2  0  0  0  0
 18 17  1  0  0  0  0
 19 20  2  0  0  0  0
 19 17  1  0  0  0  0
 20 21  1  0  0  0  0
 21 22  2  0  0  0  0
 21 26  1  0  0  0  0
 22 23  1  0  0  0  0
 23 24  2  0  0  0  0
 25 24  1  0  0  0  0
 26 25  2  0  0  0  0
M  END
>  <minimizedAffinity>
-4.93554163

>  <minimizedRMSD>
4.95697117

$$$$
