
 OpenBabel03262521393D

 31 34  0  0  0  0  0  0  0  0999 V2000
   33.6710   29.1000   48.5370 F   0  0  0  0  0  0  0  0  0  0  0  0
   34.0470   29.4720   47.2600 C   0  0  0  0  0  0  0  0  0  0  0  0
   33.1390   29.4810   46.2060 C   0  0  0  0  0  0  0  0  0  0  0  0
   33.5620   29.8610   44.9420 C   0  0  0  0  0  0  0  0  0  0  0  0
   34.8880   30.2300   44.7320 C   0  0  0  0  0  0  0  0  0  0  0  0
   35.7540   30.2040   45.8130 C   0  0  0  0  0  0  0  0  0  0  0  0
   35.3610   29.8330   47.0690 C   0  0  0  0  0  0  0  0  0  0  0  0
   32.8560   29.8660   44.1320 H   0  0  0  0  0  0  0  0  0  0  0  0
   35.2450   30.5310   43.7530 H   0  0  0  0  0  0  0  0  0  0  0  0
   36.7990   30.4850   45.6930 H   0  0  0  0  0  0  0  0  0  0  0  0
   31.6760   27.8800   47.1710 C   0  0  0  0  0  0  0  0  0  0  0  0
   31.8040   29.0870   46.5180 C   0  0  0  0  0  0  0  0  0  0  0  0
   30.6180   29.7880   46.2350 C   0  0  0  0  0  0  0  0  0  0  0  0
   29.4380   29.2220   46.6260 N   0  0  0  0  0  0  0  0  0  0  0  0
   29.3670   28.0500   47.2560 C   0  0  0  0  0  0  0  0  0  0  0  0
   30.4830   27.3580   47.5400 N   0  0  0  0  0  0  0  0  0  0  0  0
   32.5320   27.2600   47.4350 H   0  0  0  0  0  0  0  0  0  0  0  0
   30.7500   30.7120   45.7320 H   0  0  0  0  0  0  0  0  0  0  0  0
   28.4230   27.6170   47.5590 H   0  0  0  0  0  0  0  0  0  0  0  0
   36.5060   29.8090   48.4520 S   0  0  0  0  0  0  0  0  0  0  0  0
   37.5220   31.2740   48.4080 C   0  0  0  0  0  0  0  0  0  0  0  0
   37.2780   32.1870   49.4350 C   0  0  0  0  0  0  0  0  0  0  0  0
   36.5300   32.0210   50.2000 H   0  0  0  0  0  0  0  0  0  0  0  0
   37.9720   33.3740   49.5560 C   0  0  0  0  0  0  0  0  0  0  0  0
   38.9420   33.6570   48.6160 C   0  0  0  0  0  0  0  0  0  0  0  0
   39.1790   32.7550   47.6050 C   0  0  0  0  0  0  0  0  0  0  0  0
   40.1480   33.0030   46.6390 C   0  0  0  0  0  0  0  0  0  0  0  0
   40.3720   32.0720   45.6210 C   0  0  0  0  0  0  0  0  0  0  0  0
   39.6500   30.8920   45.5400 C   0  0  0  0  0  0  0  0  0  0  0  0
   38.6810   30.6290   46.4950 C   0  0  0  0  0  0  0  0  0  0  0  0
   38.4970   31.5670   47.4700 C   0  0  0  0  0  0  0  0  0  0  0  0
  2  1  1  0  0  0  0
  3 12  1  0  0  0  0
  3  2  2  0  0  0  0
  4  3  1  0  0  0  0
  5  4  2  0  0  0  0
  5  6  1  0  0  0  0
  6  7  2  0  0  0  0
  7  2  1  0  0  0  0
  7 20  1  0  0  0  0
  8  4  1  0  0  0  0
  9  5  1  0  0  0  0
 10  6  1  0  0  0  0
 11 17  1  0  0  0  0
 11 16  1  0  0  0  0
 12 11  2  0  0  0  0
 13 12  1  0  0  0  0
 13 14  2  0  0  0  0
 14 15  1  0  0  0  0
 15 16  2  0  0  0  0
 15 19  1  0  0  0  0
 18 13  1  0  0  0  0
 21 20  1  0  0  0  0
 21 22  1  0  0  0  0
 22 24  2  0  0  0  0
 22 23  1  0  0  0  0
 25 24  1  0  0  0  0
 26 25  2  0  0  0  0
 27 26  1  0  0  0  0
 28 27  2  0  0  0  0
 29 28  1  0  0  0  0
 29 30  2  0  0  0  0
 30 31  1  0  0  0  0
 31 26  1  0  0  0  0
 31 21  2  0  0  0  0
M  END
>  <minimizedAffinity>
-6.08703995

>  <minimizedRMSD>
5.40345383

$$$$
