
 OpenBabel03272501313D

 22 24  0  0  0  0  0  0  0  0999 V2000
   39.0310   25.3330   34.5070 C   0  0  0  0  0  0  0  0  0  0  0  0
   39.7960   26.3180   34.2950 O   0  0  0  0  0  0  0  0  0  0  0  0
   39.0660   24.5410   35.7560 C   0  0  0  0  0  0  0  0  0  0  0  0
   38.0480   24.8190   36.6750 C   0  0  0  0  0  0  0  0  0  0  0  0
   37.2900   25.5830   36.4390 H   0  0  0  0  0  0  0  0  0  0  0  0
   37.8980   24.2100   37.8880 C   0  0  0  0  0  3  0  0  0  0  0  0
   38.8140   23.2480   38.2420 C   0  0  0  0  0  3  0  0  0  0  0  0
   39.8260   22.9560   37.3530 C   0  0  0  0  0  0  0  0  0  0  0  0
   40.8020   21.9940   37.6200 C   0  0  0  0  0  3  0  0  0  0  0  0
   41.8160   21.6960   36.7340 C   0  0  0  0  0  3  0  0  0  0  0  0
   41.8990   22.3600   35.5200 C   0  0  0  0  0  3  0  0  0  0  0  0
   40.9550   23.3200   35.2130 C   0  0  0  0  0  3  0  0  0  0  0  0
   39.9650   23.5780   36.1320 C   0  0  0  0  0  0  0  0  0  0  0  0
   36.9320   23.1720   32.2920 C   0  0  0  0  0  0  0  0  0  0  0  0
   37.9100   23.5340   33.2450 C   0  0  0  0  0  0  0  0  0  0  0  0
   38.0390   24.8850   33.5320 C   0  0  0  0  0  0  0  0  0  0  0  0
   37.2200   25.7680   32.8790 N   0  0  0  0  0  0  0  0  0  0  0  0
   36.3070   25.3890   31.9840 C   0  0  0  0  0  0  0  0  0  0  0  0
   36.1510   24.1000   31.6810 N   0  0  0  0  0  0  0  0  0  0  0  0
   36.8400   22.1280   32.0800 H   0  0  0  0  0  0  0  0  0  0  0  0
   38.5360   22.8360   33.7420 H   0  0  0  0  0  0  0  0  0  0  0  0
   35.6570   26.0730   31.4650 H   0  0  0  0  0  0  0  0  0  0  0  0
  1  3  1  0  0  0  0
  2  1  2  0  0  0  0
  3 13  2  0  0  0  0
  3  4  1  0  0  0  0
  4  6  2  0  0  0  0
  5  4  1  0  0  0  0
  6  7  1  0  0  0  0
  8  9  1  0  0  0  0
  8  7  2  0  0  0  0
 10  9  2  0  0  0  0
 11 10  1  0  0  0  0
 12 11  2  0  0  0  0
 12 13  1  0  0  0  0
 13  8  1  0  0  0  0
 14 15  1  0  0  0  0
 15 16  2  0  0  0  0
 15 21  1  0  0  0  0
 16  1  1  0  0  0  0
 17 16  1  0  0  0  0
 18 17  2  0  0  0  0
 19 18  1  0  0  0  0
 19 14  2  0  0  0  0
 20 14  1  0  0  0  0
 22 18  1  0  0  0  0
M  END
>  <minimizedAffinity>
-5.20170641

$$$$

 OpenBabel03272501313D

 22 24  0  0  0  0  0  0  0  0999 V2000
   35.0990   29.9240   33.1650 C   0  0  0  0  0  0  0  0  0  0  0  0
   34.6170   30.2960   32.0560 O   0  0  0  0  0  0  0  0  0  0  0  0
   34.9580   30.7120   34.4090 C   0  0  0  0  0  0  0  0  0  0  0  0
   35.9880   31.6250   34.6660 C   0  0  0  0  0  0  0  0  0  0  0  0
   36.8260   31.7190   33.9570 H   0  0  0  0  0  0  0  0  0  0  0  0
   36.0560   32.4440   35.7560 C   0  0  0  0  0  3  0  0  0  0  0  0
   35.0410   32.3740   36.6790 C   0  0  0  0  0  3  0  0  0  0  0  0
   34.0150   31.4830   36.4480 C   0  0  0  0  0  0  0  0  0  0  0  0
   32.9370   31.3390   37.3250 C   0  0  0  0  0  3  0  0  0  0  0  0
   31.9060   30.4510   37.0990 C   0  0  0  0  0  3  0  0  0  0  0  0
   31.9100   29.6520   35.9650 C   0  0  0  0  0  3  0  0  0  0  0  0
   32.9550   29.7600   35.0700 C   0  0  0  0  0  3  0  0  0  0  0  0
   33.9570   30.6620   35.3440 C   0  0  0  0  0  0  0  0  0  0  0  0
   37.0820   27.1130   34.6320 C   0  0  0  0  0  0  0  0  0  0  0  0
   36.3730   28.3340   34.5550 C   0  0  0  0  0  0  0  0  0  0  0  0
   35.8430   28.6760   33.3190 C   0  0  0  0  0  0  0  0  0  0  0  0
   36.0410   27.8200   32.2680 N   0  0  0  0  0  0  0  0  0  0  0  0
   36.7160   26.6760   32.3790 C   0  0  0  0  0  0  0  0  0  0  0  0
   37.2410   26.3090   33.5480 N   0  0  0  0  0  0  0  0  0  0  0  0
   37.4850   26.8580   35.5890 H   0  0  0  0  0  0  0  0  0  0  0  0
   36.2290   28.9850   35.3810 H   0  0  0  0  0  0  0  0  0  0  0  0
   36.8790   25.9940   31.5610 H   0  0  0  0  0  0  0  0  0  0  0  0
  1 16  1  0  0  0  0
  1  3  1  0  0  0  0
  2  1  2  0  0  0  0
  3  4  2  0  0  0  0
  3 13  1  0  0  0  0
  4  6  1  0  0  0  0
  5  4  1  0  0  0  0
  6  7  2  0  0  0  0
  8  7  1  0  0  0  0
  8  9  1  0  0  0  0
 10  9  2  0  0  0  0
 11 10  1  0  0  0  0
 12 13  1  0  0  0  0
 12 11  2  0  0  0  0
 13  8  2  0  0  0  0
 14 20  1  0  0  0  0
 15 14  1  0  0  0  0
 15 21  1  0  0  0  0
 16 15  2  0  0  0  0
 17 18  2  0  0  0  0
 17 16  1  0  0  0  0
 18 19  1  0  0  0  0
 19 14  2  0  0  0  0
 22 18  1  0  0  0  0
M  END
>  <minimizedAffinity>
-5.15376091

$$$$

 OpenBabel03272501313D

 22 24  0  0  0  0  0  0  0  0999 V2000
   38.5690   22.3890   34.0660 C   0  0  0  0  0  0  0  0  0  0  0  0
   39.7070   21.9670   33.7080 O   0  0  0  0  0  0  0  0  0  0  0  0
   38.3730   23.3020   35.2130 C   0  0  0  0  0  0  0  0  0  0  0  0
   38.0360   22.6850   36.4240 C   0  0  0  0  0  0  0  0  0  0  0  0
   37.9380   21.5890   36.4720 H   0  0  0  0  0  0  0  0  0  0  0  0
   37.8050   23.3400   37.6000 C   0  0  0  0  0  3  0  0  0  0  0  0
   37.9100   24.7100   37.6050 C   0  0  0  0  0  3  0  0  0  0  0  0
   38.2420   25.3400   36.4250 C   0  0  0  0  0  0  0  0  0  0  0  0
   38.3750   26.7270   36.3290 C   0  0  0  0  0  3  0  0  0  0  0  0
   38.7080   27.3640   35.1510 C   0  0  0  0  0  3  0  0  0  0  0  0
   38.9260   26.6260   33.9980 C   0  0  0  0  0  3  0  0  0  0  0  0
   38.8070   25.2520   34.0450 C   0  0  0  0  0  3  0  0  0  0  0  0
   38.4720   24.6680   35.2450 C   0  0  0  0  0  0  0  0  0  0  0  0
   35.7490   22.2750   31.6130 C   0  0  0  0  0  0  0  0  0  0  0  0
   36.9500   22.6920   32.2300 C   0  0  0  0  0  0  0  0  0  0  0  0
   37.3380   22.0110   33.3740 C   0  0  0  0  0  0  0  0  0  0  0  0
   36.5420   20.9920   33.8260 N   0  0  0  0  0  0  0  0  0  0  0  0
   35.4130   20.6270   33.2160 C   0  0  0  0  0  0  0  0  0  0  0  0
   35.0050   21.2540   32.1130 N   0  0  0  0  0  0  0  0  0  0  0  0
   35.4600   22.8060   30.7310 H   0  0  0  0  0  0  0  0  0  0  0  0
   37.5560   23.4840   31.8660 H   0  0  0  0  0  0  0  0  0  0  0  0
   34.7780   19.8280   33.5600 H   0  0  0  0  0  0  0  0  0  0  0  0
  1  3  1  0  0  0  0
  2  1  2  0  0  0  0
  3 13  2  0  0  0  0
  3  4  1  0  0  0  0
  4  5  1  0  0  0  0
  4  6  2  0  0  0  0
  6  7  1  0  0  0  0
  8  7  2  0  0  0  0
  9  8  1  0  0  0  0
 10  9  2  0  0  0  0
 11 12  2  0  0  0  0
 11 10  1  0  0  0  0
 12 13  1  0  0  0  0
 13  8  1  0  0  0  0
 14 19  2  0  0  0  0
 14 15  1  0  0  0  0
 15 16  2  0  0  0  0
 16 17  1  0  0  0  0
 16  1  1  0  0  0  0
 18 22  1  0  0  0  0
 18 17  2  0  0  0  0
 19 18  1  0  0  0  0
 20 14  1  0  0  0  0
 21 15  1  0  0  0  0
M  END
>  <minimizedAffinity>
-5.07588387

$$$$

 OpenBabel03272501313D

 22 24  0  0  0  0  0  0  0  0999 V2000
   38.9870   22.9340   36.1470 C   0  0  0  0  0  0  0  0  0  0  0  0
   39.7050   22.3550   37.0130 O   0  0  0  0  0  0  0  0  0  0  0  0
   39.1290   24.3680   35.8120 C   0  0  0  0  0  0  0  0  0  0  0  0
   38.0910   25.1970   36.2530 C   0  0  0  0  0  0  0  0  0  0  0  0
   37.2460   24.7650   36.8130 H   0  0  0  0  0  0  0  0  0  0  0  0
   38.0210   26.5450   36.0460 C   0  0  0  0  0  3  0  0  0  0  0  0
   39.0450   27.1430   35.3520 C   0  0  0  0  0  3  0  0  0  0  0  0
   40.0790   26.3480   34.9080 C   0  0  0  0  0  0  0  0  0  0  0  0
   41.1660   26.8620   34.1960 C   0  0  0  0  0  3  0  0  0  0  0  0
   42.2050   26.0720   33.7500 C   0  0  0  0  0  3  0  0  0  0  0  0
   42.2020   24.7080   34.0010 C   0  0  0  0  0  3  0  0  0  0  0  0
   41.1480   24.1560   34.7010 C   0  0  0  0  0  3  0  0  0  0  0  0
   40.1380   24.9890   35.1230 C   0  0  0  0  0  0  0  0  0  0  0  0
   36.9830   21.4710   33.3490 C   0  0  0  0  0  0  0  0  0  0  0  0
   38.0240   22.1600   34.0120 C   0  0  0  0  0  0  0  0  0  0  0  0
   37.9460   22.2360   35.3950 C   0  0  0  0  0  0  0  0  0  0  0  0
   36.8780   21.6470   36.0190 N   0  0  0  0  0  0  0  0  0  0  0  0
   35.9140   21.0050   35.3590 C   0  0  0  0  0  0  0  0  0  0  0  0
   35.9510   20.9080   34.0300 N   0  0  0  0  0  0  0  0  0  0  0  0
   37.0540   21.4170   32.2840 H   0  0  0  0  0  0  0  0  0  0  0  0
   38.8450   22.6100   33.5120 H   0  0  0  0  0  0  0  0  0  0  0  0
   35.0700   20.5370   35.8370 H   0  0  0  0  0  0  0  0  0  0  0  0
  1  2  2  0  0  0  0
  3  1  1  0  0  0  0
  3  4  1  0  0  0  0
  4  5  1  0  0  0  0
  6  4  2  0  0  0  0
  7  6  1  0  0  0  0
  8 13  1  0  0  0  0
  8  7  2  0  0  0  0
  9  8  1  0  0  0  0
 10 11  1  0  0  0  0
 10  9  2  0  0  0  0
 11 12  2  0  0  0  0
 12 13  1  0  0  0  0
 13  3  2  0  0  0  0
 14 15  2  0  0  0  0
 14 19  1  0  0  0  0
 15 16  1  0  0  0  0
 16 17  2  0  0  0  0
 16  1  1  0  0  0  0
 18 22  1  0  0  0  0
 18 17  1  0  0  0  0
 19 18  2  0  0  0  0
 20 14  1  0  0  0  0
 21 15  1  0  0  0  0
M  END
>  <minimizedAffinity>
-5.02067375

$$$$

 OpenBabel03272501313D

 22 24  0  0  0  0  0  0  0  0999 V2000
   35.1220   29.5300   34.2100 C   0  0  0  0  0  0  0  0  0  0  0  0
   34.0210   29.1360   34.6920 O   0  0  0  0  0  0  0  0  0  0  0  0
   36.0290   28.6460   33.4440 C   0  0  0  0  0  0  0  0  0  0  0  0
   35.7540   28.5410   32.0750 C   0  0  0  0  0  0  0  0  0  0  0  0
   34.9110   29.1010   31.6410 H   0  0  0  0  0  0  0  0  0  0  0  0
   36.4600   27.7770   31.1900 C   0  0  0  0  0  3  0  0  0  0  0  0
   37.5240   27.0530   31.6710 C   0  0  0  0  0  3  0  0  0  0  0  0
   37.8140   27.1400   33.0160 C   0  0  0  0  0  0  0  0  0  0  0  0
   38.8760   26.4450   33.5990 C   0  0  0  0  0  3  0  0  0  0  0  0
   39.1730   26.5290   34.9440 C   0  0  0  0  0  3  0  0  0  0  0  0
   38.4060   27.3290   35.7780 C   0  0  0  0  0  3  0  0  0  0  0  0
   37.3470   28.0350   35.2460 C   0  0  0  0  0  3  0  0  0  0  0  0
   37.0940   27.9150   33.8980 C   0  0  0  0  0  0  0  0  0  0  0  0
   36.3550   32.7260   35.7100 C   0  0  0  0  0  0  0  0  0  0  0  0
   35.8970   31.3910   35.6310 C   0  0  0  0  0  0  0  0  0  0  0  0
   35.6020   30.9010   34.3670 C   0  0  0  0  0  0  0  0  0  0  0  0
   35.7710   31.7340   33.2920 N   0  0  0  0  0  0  0  0  0  0  0  0
   36.2050   32.9890   33.4060 C   0  0  0  0  0  0  0  0  0  0  0  0
   36.5010   33.4980   34.6020 N   0  0  0  0  0  0  0  0  0  0  0  0
   36.5800   33.0930   36.6890 H   0  0  0  0  0  0  0  0  0  0  0  0
   35.7720   30.7600   36.4750 H   0  0  0  0  0  0  0  0  0  0  0  0
   36.3430   33.6540   32.5690 H   0  0  0  0  0  0  0  0  0  0  0  0
  1 16  1  0  0  0  0
  1  2  2  0  0  0  0
  3 13  1  0  0  0  0
  3  1  1  0  0  0  0
  4  3  2  0  0  0  0
  5  4  1  0  0  0  0
  6  7  2  0  0  0  0
  6  4  1  0  0  0  0
  7  8  1  0  0  0  0
  8  9  2  0  0  0  0
  8 13  1  0  0  0  0
  9 10  1  0  0  0  0
 10 11  2  0  0  0  0
 12 11  1  0  0  0  0
 13 12  2  0  0  0  0
 14 20  1  0  0  0  0
 15 14  1  0  0  0  0
 15 21  1  0  0  0  0
 16 15  2  0  0  0  0
 17 18  2  0  0  0  0
 17 16  1  0  0  0  0
 18 19  1  0  0  0  0
 19 14  2  0  0  0  0
 22 18  1  0  0  0  0
M  END
>  <minimizedAffinity>
-4.9492054

$$$$

 OpenBabel03272501313D

 22 24  0  0  0  0  0  0  0  0999 V2000
   37.9820   27.0780   34.7610 C   0  0  0  0  0  0  0  0  0  0  0  0
   37.6280   27.8840   35.6700 O   0  0  0  0  0  0  0  0  0  0  0  0
   39.2040   26.2500   34.8520 C   0  0  0  0  0  0  0  0  0  0  0  0
   40.3290   26.7600   34.1930 C   0  0  0  0  0  0  0  0  0  0  0  0
   40.2630   27.7210   33.6600 H   0  0  0  0  0  0  0  0  0  0  0  0
   41.5520   26.1540   34.1470 C   0  0  0  0  0  3  0  0  0  0  0  0
   41.7000   24.9500   34.7930 C   0  0  0  0  0  3  0  0  0  0  0  0
   40.6060   24.4280   35.4490 C   0  0  0  0  0  0  0  0  0  0  0  0
   40.6560   23.2130   36.1360 C   0  0  0  0  0  3  0  0  0  0  0  0
   39.5650   22.6850   36.7960 C   0  0  0  0  0  3  0  0  0  0  0  0
   38.3560   23.3630   36.7970 C   0  0  0  0  0  3  0  0  0  0  0  0
   38.2600   24.5680   36.1310 C   0  0  0  0  0  3  0  0  0  0  0  0
   39.3770   25.0490   35.4890 C   0  0  0  0  0  0  0  0  0  0  0  0
   35.9170   27.7350   31.7140 C   0  0  0  0  0  0  0  0  0  0  0  0
   36.6490   27.9890   32.8970 C   0  0  0  0  0  0  0  0  0  0  0  0
   37.2130   26.8920   33.5330 C   0  0  0  0  0  0  0  0  0  0  0  0
   37.0240   25.6530   32.9820 N   0  0  0  0  0  0  0  0  0  0  0  0
   36.3260   25.4520   31.8640 C   0  0  0  0  0  0  0  0  0  0  0  0
   35.7680   26.4790   31.2200 N   0  0  0  0  0  0  0  0  0  0  0  0
   35.4880   28.5870   31.2310 H   0  0  0  0  0  0  0  0  0  0  0  0
   36.7860   28.9560   33.3100 H   0  0  0  0  0  0  0  0  0  0  0  0
   36.1700   24.4840   31.4190 H   0  0  0  0  0  0  0  0  0  0  0  0
  1  3  1  0  0  0  0
  1  2  2  0  0  0  0
  3 13  1  0  0  0  0
  4  3  2  0  0  0  0
  5  4  1  0  0  0  0
  6  4  1  0  0  0  0
  6  7  2  0  0  0  0
  7  8  1  0  0  0  0
  8 13  2  0  0  0  0
  8  9  1  0  0  0  0
  9 10  2  0  0  0  0
 10 11  1  0  0  0  0
 12 11  2  0  0  0  0
 13 12  1  0  0  0  0
 14 15  1  0  0  0  0
 15 21  1  0  0  0  0
 15 16  2  0  0  0  0
 16  1  1  0  0  0  0
 17 16  1  0  0  0  0
 18 17  2  0  0  0  0
 19 14  2  0  0  0  0
 19 18  1  0  0  0  0
 20 14  1  0  0  0  0
 22 18  1  0  0  0  0
M  END
>  <minimizedAffinity>
-4.93319035

$$$$

 OpenBabel03272501313D

 22 24  0  0  0  0  0  0  0  0999 V2000
   36.3760   27.2690   32.2130 C   0  0  0  0  0  0  0  0  0  0  0  0
   35.9700   26.2510   31.5810 O   0  0  0  0  0  0  0  0  0  0  0  0
   37.4660   27.2140   33.2120 C   0  0  0  0  0  0  0  0  0  0  0  0
   37.0580   27.2160   34.5510 C   0  0  0  0  0  0  0  0  0  0  0  0
   35.9850   27.2520   34.7960 H   0  0  0  0  0  0  0  0  0  0  0  0
   37.8980   27.1770   35.6260 C   0  0  0  0  0  3  0  0  0  0  0  0
   39.2500   27.1320   35.3860 C   0  0  0  0  0  3  0  0  0  0  0  0
   39.6770   27.1290   34.0760 C   0  0  0  0  0  0  0  0  0  0  0  0
   41.0290   27.0830   33.7280 C   0  0  0  0  0  3  0  0  0  0  0  0
   41.4620   27.0780   32.4190 C   0  0  0  0  0  3  0  0  0  0  0  0
   40.5440   27.1190   31.3800 C   0  0  0  0  0  3  0  0  0  0  0  0
   39.1970   27.1660   31.6760 C   0  0  0  0  0  3  0  0  0  0  0  0
   38.8190   27.1690   32.9990 C   0  0  0  0  0  0  0  0  0  0  0  0
   35.8960   30.8210   31.1470 C   0  0  0  0  0  0  0  0  0  0  0  0
   36.5100   29.5570   31.3010 C   0  0  0  0  0  0  0  0  0  0  0  0
   35.8030   28.5990   32.0130 C   0  0  0  0  0  0  0  0  0  0  0  0
   34.5740   28.9360   32.5130 N   0  0  0  0  0  0  0  0  0  0  0  0
   34.0260   30.1410   32.3480 C   0  0  0  0  0  0  0  0  0  0  0  0
   34.6710   31.0900   31.6690 N   0  0  0  0  0  0  0  0  0  0  0  0
   36.4490   31.5520   30.5960 H   0  0  0  0  0  0  0  0  0  0  0  0
   37.4640   29.3130   30.9060 H   0  0  0  0  0  0  0  0  0  0  0  0
   33.0610   30.4190   32.7350 H   0  0  0  0  0  0  0  0  0  0  0  0
  1  3  1  0  0  0  0
  2  1  2  0  0  0  0
  3  4  1  0  0  0  0
  4  5  1  0  0  0  0
  4  6  2  0  0  0  0
  7  6  1  0  0  0  0
  8  7  2  0  0  0  0
  9  8  1  0  0  0  0
 10  9  2  0  0  0  0
 11 12  2  0  0  0  0
 11 10  1  0  0  0  0
 12 13  1  0  0  0  0
 13  3  2  0  0  0  0
 13  8  1  0  0  0  0
 14 15  2  0  0  0  0
 14 19  1  0  0  0  0
 15 16  1  0  0  0  0
 16  1  1  0  0  0  0
 16 17  2  0  0  0  0
 18 17  1  0  0  0  0
 18 22  1  0  0  0  0
 19 18  2  0  0  0  0
 20 14  1  0  0  0  0
 21 15  1  0  0  0  0
M  END
>  <minimizedAffinity>
-4.92720795

$$$$

 OpenBabel03272501313D

 22 24  0  0  0  0  0  0  0  0999 V2000
   39.1860   26.3560   34.8200 C   0  0  0  0  0  0  0  0  0  0  0  0
   40.3530   26.7760   35.0690 O   0  0  0  0  0  0  0  0  0  0  0  0
   38.1860   27.1510   34.0740 C   0  0  0  0  0  0  0  0  0  0  0  0
   37.1550   27.7000   34.8460 C   0  0  0  0  0  0  0  0  0  0  0  0
   37.1340   27.5290   35.9340 H   0  0  0  0  0  0  0  0  0  0  0  0
   36.1300   28.4600   34.3580 C   0  0  0  0  0  3  0  0  0  0  0  0
   36.0990   28.7080   33.0080 C   0  0  0  0  0  3  0  0  0  0  0  0
   37.1040   28.1780   32.2270 C   0  0  0  0  0  0  0  0  0  0  0  0
   37.1620   28.3760   30.8450 C   0  0  0  0  0  3  0  0  0  0  0  0
   38.1650   27.8500   30.0580 C   0  0  0  0  0  3  0  0  0  0  0  0
   39.1730   27.0880   30.6310 C   0  0  0  0  0  3  0  0  0  0  0  0
   39.1570   26.8660   31.9930 C   0  0  0  0  0  3  0  0  0  0  0  0
   38.1330   27.4140   32.7310 C   0  0  0  0  0  0  0  0  0  0  0  0
   38.1120   22.7740   34.8050 C   0  0  0  0  0  0  0  0  0  0  0  0
   38.5710   24.0200   34.3200 C   0  0  0  0  0  0  0  0  0  0  0  0
   38.7170   25.0400   35.2500 C   0  0  0  0  0  0  0  0  0  0  0  0
   38.4100   24.7760   36.5580 N   0  0  0  0  0  0  0  0  0  0  0  0
   37.9790   23.5860   36.9780 C   0  0  0  0  0  0  0  0  0  0  0  0
   37.8260   22.5790   36.1180 N   0  0  0  0  0  0  0  0  0  0  0  0
   38.0040   21.9950   34.0810 H   0  0  0  0  0  0  0  0  0  0  0  0
   38.8040   24.2070   33.3020 H   0  0  0  0  0  0  0  0  0  0  0  0
   37.7350   23.3650   38.0040 H   0  0  0  0  0  0  0  0  0  0  0  0
  1  2  2  0  0  0  0
  1 16  1  0  0  0  0
  3  1  1  0  0  0  0
  3  4  1  0  0  0  0
  4  5  1  0  0  0  0
  6  4  2  0  0  0  0
  7  6  1  0  0  0  0
  8 13  1  0  0  0  0
  8  7  2  0  0  0  0
  9  8  1  0  0  0  0
 10 11  1  0  0  0  0
 10  9  2  0  0  0  0
 11 12  2  0  0  0  0
 12 13  1  0  0  0  0
 13  3  2  0  0  0  0
 14 19  1  0  0  0  0
 15 14  2  0  0  0  0
 15 16  1  0  0  0  0
 16 17  2  0  0  0  0
 17 18  1  0  0  0  0
 18 22  1  0  0  0  0
 19 18  2  0  0  0  0
 20 14  1  0  0  0  0
 21 15  1  0  0  0  0
M  END
>  <minimizedAffinity>
-4.92701912

$$$$

 OpenBabel03272501313D

 22 24  0  0  0  0  0  0  0  0999 V2000
   38.6120   26.6430   35.3120 C   0  0  0  0  0  0  0  0  0  0  0  0
   38.0310   27.5960   35.9070 O   0  0  0  0  0  0  0  0  0  0  0  0
   39.6150   26.8510   34.2440 C   0  0  0  0  0  0  0  0  0  0  0  0
   40.9520   26.7350   34.6420 C   0  0  0  0  0  0  0  0  0  0  0  0
   41.1930   26.4980   35.6900 H   0  0  0  0  0  0  0  0  0  0  0  0
   42.0310   26.8950   33.8210 C   0  0  0  0  0  3  0  0  0  0  0  0
   41.7970   27.1940   32.5000 C   0  0  0  0  0  3  0  0  0  0  0  0
   40.4880   27.3130   32.0850 C   0  0  0  0  0  0  0  0  0  0  0  0
   40.1460   27.6120   30.7640 C   0  0  0  0  0  3  0  0  0  0  0  0
   38.8390   27.7310   30.3410 C   0  0  0  0  0  3  0  0  0  0  0  0
   37.7970   27.5530   31.2380 C   0  0  0  0  0  3  0  0  0  0  0  0
   38.0860   27.2570   32.5550 C   0  0  0  0  0  3  0  0  0  0  0  0
   39.4080   27.1490   32.9230 C   0  0  0  0  0  0  0  0  0  0  0  0
   37.8120   23.4940   37.1630 C   0  0  0  0  0  0  0  0  0  0  0  0
   38.0610   24.8660   36.9310 C   0  0  0  0  0  0  0  0  0  0  0  0
   38.3430   25.2410   35.6250 C   0  0  0  0  0  0  0  0  0  0  0  0
   38.3620   24.2690   34.6600 N   0  0  0  0  0  0  0  0  0  0  0  0
   38.1220   22.9830   34.9170 C   0  0  0  0  0  0  0  0  0  0  0  0
   37.8460   22.5810   36.1580 N   0  0  0  0  0  0  0  0  0  0  0  0
   37.5940   23.2160   38.1730 H   0  0  0  0  0  0  0  0  0  0  0  0
   38.0420   25.6050   37.6920 H   0  0  0  0  0  0  0  0  0  0  0  0
   38.1330   22.2100   34.1680 H   0  0  0  0  0  0  0  0  0  0  0  0
  1 16  1  0  0  0  0
  1  2  2  0  0  0  0
  3  4  1  0  0  0  0
  3  1  1  0  0  0  0
  4  5  1  0  0  0  0
  6  4  2  0  0  0  0
  7  6  1  0  0  0  0
  8  7  2  0  0  0  0
  8 13  1  0  0  0  0
  9  8  1  0  0  0  0
 10  9  2  0  0  0  0
 10 11  1  0  0  0  0
 11 12  2  0  0  0  0
 12 13  1  0  0  0  0
 13  3  2  0  0  0  0
 14 20  1  0  0  0  0
 15 14  1  0  0  0  0
 15 21  1  0  0  0  0
 16 15  2  0  0  0  0
 17 18  2  0  0  0  0
 17 16  1  0  0  0  0
 18 19  1  0  0  0  0
 19 14  2  0  0  0  0
 22 18  1  0  0  0  0
M  END
>  <minimizedAffinity>
-4.9204421

$$$$
