
 OpenBabel03272506253D

 34 37  0  0  0  0  0  0  0  0999 V2000
   33.9540   28.4200   45.3780 C   0  0  0  0  0  0  0  0  0  0  0  0
   34.0290   27.8550   44.1210 C   0  0  0  0  0  0  0  0  0  0  0  0
   34.9070   28.2320   43.1250 C   0  0  0  0  0  0  0  0  0  0  0  0
   35.8030   29.2800   43.4110 C   0  0  0  0  0  0  0  0  0  0  0  0
   35.7420   29.8630   44.6740 C   0  0  0  0  0  0  0  0  0  0  0  0
   34.8490   29.4540   45.6370 C   0  0  0  0  0  0  0  0  0  0  0  0
   33.3600   27.0400   43.8440 H   0  0  0  0  0  0  0  0  0  0  0  0
   34.9150   27.7460   42.1560 H   0  0  0  0  0  0  0  0  0  0  0  0
   36.5150   29.6170   42.6640 H   0  0  0  0  0  0  0  0  0  0  0  0
   36.4090   30.6620   44.9240 H   0  0  0  0  0  0  0  0  0  0  0  0
   33.3080   26.7100   46.9780 C   0  0  0  0  0  0  0  0  0  0  0  0
   32.9710   27.8900   46.2810 C   0  0  0  0  0  0  0  0  0  0  0  0
   31.7130   28.4410   46.5260 C   0  0  0  0  0  0  0  0  0  0  0  0
   30.8780   27.8320   47.4120 N   0  0  0  0  0  0  0  0  0  0  0  0
   31.2440   26.6840   48.0710 C   0  0  0  0  0  0  0  0  0  0  0  0
   32.4690   26.1260   47.8460 N   0  0  0  0  0  0  0  0  0  0  0  0
   34.2780   26.2580   46.8080 H   0  0  0  0  0  0  0  0  0  0  0  0
   30.4710   26.3150   48.7440 H   0  0  0  0  0  0  0  0  0  0  0  0
   31.2200   29.6880   45.8610 C   0  0  0  0  0  0  0  0  0  0  0  0
   29.8810   29.9070   46.2270 F   0  0  0  0  0  0  0  0  0  0  0  0
   31.9320   30.8110   46.0880 F   0  0  0  0  0  0  0  0  0  0  0  0
   31.1330   29.4630   44.4830 F   0  0  0  0  0  0  0  0  0  0  0  0
   34.7410   30.1710   47.2590 S   0  0  0  0  0  0  0  0  0  0  0  0
   36.3160   30.6900   47.8820 C   0  0  0  0  0  0  0  0  0  0  0  0
   37.2630   31.3660   47.1400 C   0  0  0  0  0  0  0  0  0  0  0  0
   37.0360   31.5980   46.1090 H   0  0  0  0  0  0  0  0  0  0  0  0
   38.4570   31.7070   47.7710 C   0  0  0  0  0  0  0  0  0  0  0  0
   38.7100   31.3920   49.0920 C   0  0  0  0  0  0  0  0  0  0  0  0
   37.7520   30.7130   49.8320 C   0  0  0  0  0  0  0  0  0  0  0  0
   38.0000   30.3960   51.1530 C   0  0  0  0  0  0  0  0  0  0  0  0
   37.0830   29.7300   51.9060 C   0  0  0  0  0  0  0  0  0  0  0  0
   35.8700   29.3660   51.3180 C   0  0  0  0  0  0  0  0  0  0  0  0
   35.6510   29.6960   49.9960 C   0  0  0  0  0  0  0  0  0  0  0  0
   36.5570   30.3700   49.2040 C   0  0  0  0  0  0  0  0  0  0  0  0
  1  6  1  0  0  0  0
  1 12  1  0  0  0  0
  2  1  2  0  0  0  0
  3  4  2  0  0  0  0
  3  2  1  0  0  0  0
  4  5  1  0  0  0  0
  5 10  1  0  0  0  0
  5  6  2  0  0  0  0
  6 23  1  0  0  0  0
  7  2  1  0  0  0  0
  8  3  1  0  0  0  0
  9  4  1  0  0  0  0
 11 16  1  0  0  0  0
 12 13  1  0  0  0  0
 12 11  2  0  0  0  0
 13 14  2  0  0  0  0
 14 15  1  0  0  0  0
 15 18  1  0  0  0  0
 16 15  2  0  0  0  0
 17 11  1  0  0  0  0
 19 21  1  0  0  0  0
 19 20  1  0  0  0  0
 19 13  1  0  0  0  0
 22 19  1  0  0  0  0
 23 24  1  0  0  0  0
 24 34  1  0  0  0  0
 25 27  1  0  0  0  0
 25 24  2  0  0  0  0
 26 25  1  0  0  0  0
 27 28  2  0  0  0  0
 28 29  1  0  0  0  0
 29 30  1  0  0  0  0
 30 31  2  0  0  0  0
 32 31  1  0  0  0  0
 33 32  2  0  0  0  0
 34 29  2  0  0  0  0
 34 33  1  0  0  0  0
M  END
>  <minimizedAffinity>
-6.14778566

>  <minimizedRMSD>
5.83632946

$$$$
