
 OpenBabel03272500053D

 31 34  0  0  0  0  0  0  0  0999 V2000
   36.1300   29.2010   49.2610 C   0  0  0  0  0  0  0  0  0  0  0  0
   35.9270   30.3670   48.5010 C   0  0  0  0  0  0  0  0  0  0  0  0
   34.7450   30.4490   47.7950 C   0  0  0  0  0  0  0  0  0  0  0  0
   33.8380   29.4520   47.8400 N   0  0  0  0  0  0  0  0  0  0  0  0
   34.0470   28.3420   48.5710 C   0  0  0  0  0  0  0  0  0  0  0  0
   35.2020   28.2100   49.2900 N   0  0  0  0  0  0  0  0  0  0  0  0
   37.0380   29.0840   49.8340 H   0  0  0  0  0  0  0  0  0  0  0  0
   34.5670   31.3260   47.2100 H   0  0  0  0  0  0  0  0  0  0  0  0
   36.9340   31.3580   48.5170 N   0  0  0  0  0  0  0  0  0  0  0  0
   37.1930   32.0870   49.6180 C   0  0  0  0  0  0  0  0  0  0  0  0
   38.2040   33.0550   49.5660 C   0  0  0  0  0  0  0  0  0  0  0  0
   38.8470   33.1650   48.3680 C   0  0  0  0  0  0  0  0  0  0  0  0
   39.7650   34.0430   48.3210 O   0  0  0  0  0  0  0  0  0  0  0  0
   38.6100   32.4550   47.2610 N   0  0  0  0  0  0  0  0  0  0  0  0
   37.6200   31.5270   47.3530 C   0  0  0  0  0  0  0  0  0  0  0  0
   37.3810   30.8420   46.3110 O   0  0  0  0  0  0  0  0  0  0  0  0
   36.6490   31.9490   50.5300 H   0  0  0  0  0  0  0  0  0  0  0  0
   38.4630   33.6730   50.4140 H   0  0  0  0  0  0  0  0  0  0  0  0
   39.1400   32.5920   46.3750 H   0  0  0  0  0  0  0  0  0  0  0  0
   33.1840   27.2620   48.6860 O   0  0  0  0  0  0  0  0  0  0  0  0
   32.0370   27.0860   47.9500 C   0  0  0  0  0  0  0  0  0  0  0  0
   32.3430   26.6390   46.6600 C   0  0  0  0  0  0  0  0  0  0  0  0
   33.3070   26.4470   46.2550 H   0  0  0  0  0  0  0  0  0  0  0  0
   31.3270   26.3900   45.7310 C   0  0  0  0  0  3  0  0  0  0  0  0
   29.9910   26.5900   46.0910 C   0  0  0  0  0  3  0  0  0  0  0  0
   29.7040   27.0300   47.3630 C   0  0  0  0  0  0  0  0  0  0  0  0
   28.4180   27.2600   47.7990 C   0  0  0  0  0  3  0  0  0  0  0  0
   28.1930   27.7130   49.0990 C   0  0  0  0  0  3  0  0  0  0  0  0
   29.2350   27.9530   50.0040 C   0  0  0  0  0  3  0  0  0  0  0  0
   30.5220   27.7210   49.5570 C   0  0  0  0  0  3  0  0  0  0  0  0
   30.7090   27.2720   48.2680 C   0  0  0  0  0  0  0  0  0  0  0  0
  1  6  1  0  0  0  0
  1  7  1  0  0  0  0
  2  9  1  0  0  0  0
  2  1  2  0  0  0  0
  3  4  2  0  0  0  0
  3  2  1  0  0  0  0
  4  5  1  0  0  0  0
  5 20  1  0  0  0  0
  5  6  2  0  0  0  0
  8  3  1  0  0  0  0
  9 10  1  0  0  0  0
 10 17  1  0  0  0  0
 11 10  2  0  0  0  0
 11 18  1  0  0  0  0
 12 11  1  0  0  0  0
 13 12  2  0  0  0  0
 14 15  1  0  0  0  0
 14 12  1  0  0  0  0
 15  9  1  0  0  0  0
 16 15  2  0  0  0  0
 19 14  1  0  0  0  0
 21 31  1  0  0  0  0
 21 20  1  0  0  0  0
 22 21  2  0  0  0  0
 23 22  1  0  0  0  0
 24 25  2  0  0  0  0
 24 22  1  0  0  0  0
 25 26  1  0  0  0  0
 26 27  2  0  0  0  0
 26 31  1  0  0  0  0
 27 28  1  0  0  0  0
 28 29  2  0  0  0  0
 30 29  1  0  0  0  0
 31 30  2  0  0  0  0
M  END
>  <minimizedAffinity>
-6.36006737

>  <minimizedRMSD>
0.395942777

$$$$
