
 OpenBabel03272501053D

 32 35  0  0  1  0  0  0  0  0999 V2000
   39.1310   32.4920   47.6440 C   0  0  2  0  0  0  0  0  0  0  0  0
   38.0370   32.6950   48.7280 C   0  0  2  0  0  0  0  0  0  0  0  0
   38.8010   33.4610   49.7250 C   0  0  0  0  0  0  0  0  0  0  0  0
   39.6130   34.3370   49.0170 O   0  0  0  0  0  0  0  0  0  0  0  0
   39.7570   33.8850   47.7320 C   0  0  0  0  0  0  0  0  0  0  0  0
   39.8450   31.7220   47.9310 H   0  0  0  0  0  0  0  0  0  0  0  0
   37.2660   33.2850   48.1550 H   0  0  0  0  0  0  0  0  0  0  0  0
   39.4810   32.7610   50.2490 H   0  0  0  0  0  0  0  0  0  0  0  0
   38.1790   33.9800   50.4940 H   0  0  0  0  0  0  0  0  0  0  0  0
   40.8080   33.8870   47.4430 H   0  0  0  0  0  0  0  0  0  0  0  0
   39.1630   34.5170   47.0180 H   0  0  0  0  0  0  0  0  0  0  0  0
   37.4340   29.4270   50.5330 C   0  0  0  0  0  0  0  0  0  0  0  0
   38.0580   30.6500   50.1710 C   0  0  0  0  0  0  0  0  0  0  0  0
   37.4560   31.4460   49.1610 C   0  0  0  0  0  0  0  0  0  0  0  0
   36.2930   30.9820   48.5840 N   0  0  0  0  0  0  0  0  0  0  0  0
   35.7370   29.8180   48.9580 C   0  0  0  0  0  0  0  0  0  0  0  0
   36.2930   29.0370   49.9220 N   0  0  0  0  0  0  0  0  0  0  0  0
   37.9780   28.9060   51.3080 H   0  0  0  0  0  0  0  0  0  0  0  0
   38.9800   30.9850   50.6490 H   0  0  0  0  0  0  0  0  0  0  0  0
   34.8240   29.4590   48.5010 H   0  0  0  0  0  0  0  0  0  0  0  0
   38.5190   32.3110   46.4040 O   0  0  0  0  0  0  0  0  0  0  0  0
   38.9510   31.6010   45.3290 C   0  0  0  0  0  0  0  0  0  0  0  0
   40.2310   31.6120   44.7790 C   0  0  0  0  0  0  0  0  0  0  0  0
   40.9510   32.2570   45.2640 H   0  0  0  0  0  0  0  0  0  0  0  0
   40.5750   30.8550   43.6820 C   0  0  0  0  0  0  0  0  0  0  0  0
   39.6490   30.0440   43.0810 C   0  0  0  0  0  0  0  0  0  0  0  0
   38.3690   30.0130   43.6090 C   0  0  0  0  0  0  0  0  0  0  0  0
   37.4770   29.1790   42.9660 C   0  0  0  0  0  0  0  0  0  0  0  0
   36.1950   29.1130   43.4480 C   0  0  0  0  0  0  0  0  0  0  0  0
   35.7940   29.8480   44.5420 C   0  0  0  0  0  0  0  0  0  0  0  0
   36.7360   30.6710   45.1510 C   0  0  0  0  0  0  0  0  0  0  0  0
   38.0300   30.7740   44.7070 C   0  0  0  0  0  0  0  0  0  0  0  0
  1  5  1  0  0  0  0
  1  6  1  1  0  0  0
  1  2  1  0  0  0  0
  2  7  1  6  0  0  0
  2 14  1  0  0  0  0
  2  3  1  0  0  0  0
  3  8  1  0  0  0  0
  3  9  1  0  0  0  0
  4  3  1  0  0  0  0
  5  4  1  0  0  0  0
 10  5  1  0  0  0  0
 11  5  1  0  0  0  0
 12 18  1  0  0  0  0
 13 12  1  0  0  0  0
 13 19  1  0  0  0  0
 14 13  2  0  0  0  0
 15 16  2  0  0  0  0
 15 14  1  0  0  0  0
 16 17  1  0  0  0  0
 17 12  2  0  0  0  0
 20 16  1  0  0  0  0
 21  1  1  0  0  0  0
 22 21  1  0  0  0  0
 23 24  1  0  0  0  0
 23 22  1  0  0  0  0
 25 23  2  0  0  0  0
 26 27  2  0  0  0  0
 26 25  1  0  0  0  0
 27 32  1  0  0  0  0
 28 29  2  0  0  0  0
 28 27  1  0  0  0  0
 29 30  1  0  0  0  0
 30 31  2  0  0  0  0
 32 31  1  0  0  0  0
 32 22  2  0  0  0  0
M  END
>  <minimizedAffinity>
-5.98206043

>  <minimizedRMSD>
3.60280156

$$$$
