
 OpenBabel03272508573D

 42 46  0  0  1  0  0  0  0  0999 V2000
   39.1630   31.4500   43.3600 C   0  0  0  0  0  0  0  0  0  0  0  0
   40.1630   30.5120   43.5270 C   0  0  0  0  0  0  0  0  0  0  0  0
   40.8790   30.1450   42.4040 C   0  0  0  0  0  0  0  0  0  0  0  0
   40.5690   30.7150   41.2020 C   0  0  0  0  0  0  0  0  0  0  0  0
   39.5530   31.6660   41.0370 C   0  0  0  0  0  0  0  0  0  0  0  0
   38.8770   31.9980   42.1550 N   0  0  0  0  0  0  0  0  0  0  0  0
   40.4150   30.0550   44.4760 H   0  0  0  0  0  0  0  0  0  0  0  0
   41.6820   29.4270   42.4040 H   0  0  0  0  0  0  0  0  0  0  0  0
   41.1020   30.4590   40.3020 H   0  0  0  0  0  0  0  0  0  0  0  0
   38.3820   31.8620   44.5440 C   0  0  0  0  0  0  0  0  0  0  0  0
   37.3020   32.4500   44.4330 O   0  0  0  0  0  0  0  0  0  0  0  0
   38.9310   31.5530   45.8480 N   0  0  0  0  0  0  0  0  0  0  0  0
   39.9060   31.2460   45.9980 H   0  0  0  0  0  0  0  0  0  0  0  0
   38.4180   31.0890   48.2400 C   0  0  2  0  0  0  0  0  0  0  0  0
   38.6510   32.5530   48.1250 C   0  0  0  0  0  0  0  0  0  0  0  0
   38.0580   31.6860   46.9950 C   0  0  1  0  0  0  0  0  0  0  0  0
   39.3330   30.4680   48.3340 H   0  0  0  0  0  0  0  0  0  0  0  0
   39.6750   32.9010   48.0150 H   0  0  0  0  0  0  0  0  0  0  0  0
   37.9740   33.2310   48.6770 H   0  0  0  0  0  0  0  0  0  0  0  0
   36.9950   31.9360   46.7920 H   0  0  0  0  0  0  0  0  0  0  0  0
   35.0510   30.2000   49.5420 C   0  0  0  0  0  0  0  0  0  0  0  0
   35.3780   29.5730   50.7750 C   0  0  0  0  0  0  0  0  0  0  0  0
   36.7720   29.4710   51.1530 C   0  0  0  0  0  0  0  0  0  0  0  0
   37.7200   29.9820   50.3110 N   0  0  0  0  0  0  0  0  0  0  0  0
   37.3290   30.5690   49.1480 C   0  0  0  0  0  0  0  0  0  0  0  0
   36.0100   30.6970   48.7290 N   0  0  0  0  0  0  0  0  0  0  0  0
   34.0100   30.2420   49.3250 H   0  0  0  0  0  0  0  0  0  0  0  0
   34.6610   29.1690   51.4430 H   0  0  0  0  0  0  0  0  0  0  0  0
   37.0160   28.9980   52.0840 H   0  0  0  0  0  0  0  0  0  0  0  0
   39.2450   32.2350   39.7370 C   0  0  0  0  0  0  0  0  0  0  0  0
   38.5870   33.3020   39.6750 O   0  0  0  0  0  0  0  0  0  0  0  0
   39.5920   31.7500   38.4130 C   0  0  0  0  0  0  0  0  0  0  0  0
   40.6470   32.3580   37.7240 C   0  0  0  0  0  0  0  0  0  0  0  0
   41.1530   33.1940   38.2280 H   0  0  0  0  0  0  0  0  0  0  0  0
   41.1020   32.0000   36.4730 C   0  0  0  0  0  3  0  0  0  0  0  0
   40.4670   30.9520   35.8410 C   0  0  0  0  0  3  0  0  0  0  0  0
   39.4200   30.3140   36.4720 C   0  0  0  0  0  0  0  0  0  0  0  0
   38.7780   29.2690   35.8440 C   0  0  0  0  0  3  0  0  0  0  0  0
   37.7190   28.6210   36.4670 C   0  0  0  0  0  3  0  0  0  0  0  0
   37.3000   29.0300   37.7360 C   0  0  0  0  0  3  0  0  0  0  0  0
   37.9610   30.0750   38.3340 C   0  0  0  0  0  3  0  0  0  0  0  0
   39.0030   30.7130   37.7250 C   0  0  0  0  0  0  0  0  0  0  0  0
  1  2  1  0  0  0  0
  1 10  1  0  0  0  0
  2  7  1  0  0  0  0
  3  2  2  0  0  0  0
  4  3  1  0  0  0  0
  5  4  2  0  0  0  0
  5  6  1  0  0  0  0
  6  1  2  0  0  0  0
  8  3  1  0  0  0  0
  9  4  1  0  0  0  0
 10 12  1  0  0  0  0
 11 10  2  0  0  0  0
 12 13  1  0  0  0  0
 12 16  1  0  0  0  0
 14 17  1  6  0  0  0
 14 25  1  0  0  0  0
 15 14  1  0  0  0  0
 15 19  1  0  0  0  0
 16 20  1  6  0  0  0
 16 15  1  0  0  0  0
 16 14  1  0  0  0  0
 18 15  1  0  0  0  0
 21 22  1  0  0  0  0
 22 23  2  0  0  0  0
 22 28  1  0  0  0  0
 23 29  1  0  0  0  0
 24 23  1  0  0  0  0
 25 24  2  0  0  0  0
 26 25  1  0  0  0  0
 26 21  2  0  0  0  0
 27 21  1  0  0  0  0
 30  5  1  0  0  0  0
 31 30  2  0  0  0  0
 32 30  1  0  0  0  0
 33 34  1  0  0  0  0
 33 32  2  0  0  0  0
 35 33  1  0  0  0  0
 36 37  1  0  0  0  0
 36 35  2  0  0  0  0
 37 42  1  0  0  0  0
 38 39  1  0  0  0  0
 38 37  2  0  0  0  0
 39 40  2  0  0  0  0
 40 41  1  0  0  0  0
 42 41  2  0  0  0  0
 42 32  1  0  0  0  0
M  END
>  <minimizedAffinity>
-4.96640635

>  <minimizedRMSD>
0.506802499

$$$$
