
 OpenBabel03262522083D

 22 24  0  0  0  0  0  0  0  0999 V2000
   36.7360   30.7750   47.5060 C   0  0  0  0  0  0  0  0  0  0  0  0
   35.9690   30.3530   46.6130 O   0  0  0  0  0  0  0  0  0  0  0  0
   37.8740   31.7030   47.4280 C   0  0  0  0  0  0  0  0  0  0  0  0
   37.9690   32.6060   48.4750 C   0  0  0  0  0  0  0  0  0  0  0  0
   37.3030   32.7050   49.3390 H   0  0  0  0  0  0  0  0  0  0  0  0
   39.0110   33.5350   48.5050 C   0  0  0  0  0  0  0  0  0  0  0  0
   39.9510   33.5470   47.4800 C   0  0  0  0  0  0  0  0  0  0  0  0
   39.8480   32.6450   46.4420 C   0  0  0  0  0  0  0  0  0  0  0  0
   40.7530   32.6010   45.3840 C   0  0  0  0  0  0  0  0  0  0  0  0
   40.6090   31.6710   44.3560 C   0  0  0  0  0  0  0  0  0  0  0  0
   39.5720   30.7640   44.3480 C   0  0  0  0  0  0  0  0  0  0  0  0
   38.6720   30.8090   45.4030 C   0  0  0  0  0  0  0  0  0  0  0  0
   38.8150   31.7300   46.4200 C   0  0  0  0  0  0  0  0  0  0  0  0
   37.5400   29.7460   49.6110 C   0  0  0  0  0  0  0  0  0  0  0  0
   36.4330   30.2420   48.8580 C   0  0  0  0  0  0  0  0  0  0  0  0
   35.1730   30.1900   49.4410 C   0  0  0  0  0  0  0  0  0  0  0  0
   35.0570   29.6760   50.6830 N   0  0  0  0  0  0  0  0  0  0  0  0
   36.1090   29.2150   51.3740 C   0  0  0  0  0  0  0  0  0  0  0  0
   37.3500   29.2390   50.8650 N   0  0  0  0  0  0  0  0  0  0  0  0
   38.5530   29.7500   49.2340 H   0  0  0  0  0  0  0  0  0  0  0  0
   34.3690   30.5700   48.8480 H   0  0  0  0  0  0  0  0  0  0  0  0
   36.0380   28.7990   52.3700 H   0  0  0  0  0  0  0  0  0  0  0  0
  1 15  1  0  0  0  0
  2  1  2  0  0  0  0
  3  1  1  0  0  0  0
  3  4  1  0  0  0  0
  4  6  2  0  0  0  0
  4  5  1  0  0  0  0
  7  6  1  0  0  0  0
  8  7  2  0  0  0  0
  9  8  1  0  0  0  0
 10  9  2  0  0  0  0
 11 10  1  0  0  0  0
 11 12  2  0  0  0  0
 12 13  1  0  0  0  0
 13  8  1  0  0  0  0
 13  3  2  0  0  0  0
 14 19  1  0  0  0  0
 15 16  1  0  0  0  0
 15 14  2  0  0  0  0
 16 17  2  0  0  0  0
 17 18  1  0  0  0  0
 18 22  1  0  0  0  0
 19 18  2  0  0  0  0
 20 14  1  0  0  0  0
 21 16  1  0  0  0  0
M  END
>  <minimizedAffinity>
-5.82912493

>  <minimizedRMSD>
5.19966459

$$$$
