
 OpenBabel03272501063D

 32 35  0  0  1  0  0  0  0  0999 V2000
   38.1640   25.8910   34.4480 C   0  0  2  0  0  0  0  0  0  0  0  0
   38.4080   25.8050   32.9160 C   0  0  2  0  0  0  0  0  0  0  0  0
   39.0690   27.1000   32.6870 C   0  0  0  0  0  0  0  0  0  0  0  0
   39.9070   27.3150   33.7730 O   0  0  0  0  0  0  0  0  0  0  0  0
   39.4990   26.5370   34.8240 C   0  0  0  0  0  0  0  0  0  0  0  0
   37.3300   26.5470   34.6880 H   0  0  0  0  0  0  0  0  0  0  0  0
   39.0800   24.9030   32.8500 H   0  0  0  0  0  0  0  0  0  0  0  0
   38.2960   27.8920   32.7280 H   0  0  0  0  0  0  0  0  0  0  0  0
   39.6020   27.1860   31.7090 H   0  0  0  0  0  0  0  0  0  0  0  0
   39.4300   27.1320   35.7340 H   0  0  0  0  0  0  0  0  0  0  0  0
   40.2050   25.6780   34.9810 H   0  0  0  0  0  0  0  0  0  0  0  0
   35.5850   24.0620   31.1010 C   0  0  0  0  0  0  0  0  0  0  0  0
   36.7880   24.2320   31.8350 C   0  0  0  0  0  0  0  0  0  0  0  0
   37.1910   25.5490   32.1820 C   0  0  0  0  0  0  0  0  0  0  0  0
   36.3860   26.5940   31.7810 N   0  0  0  0  0  0  0  0  0  0  0  0
   35.2560   26.3860   31.0860 C   0  0  0  0  0  0  0  0  0  0  0  0
   34.8480   25.1360   30.7420 N   0  0  0  0  0  0  0  0  0  0  0  0
   35.3780   23.0210   30.8940 H   0  0  0  0  0  0  0  0  0  0  0  0
   37.4010   23.3800   32.1360 H   0  0  0  0  0  0  0  0  0  0  0  0
   34.6280   27.2110   30.7740 H   0  0  0  0  0  0  0  0  0  0  0  0
   38.0840   24.6010   34.9710 O   0  0  0  0  0  0  0  0  0  0  0  0
   38.4190   24.1550   36.2100 C   0  0  0  0  0  0  0  0  0  0  0  0
   37.7960   24.4790   37.4130 C   0  0  0  0  0  0  0  0  0  0  0  0
   36.9570   25.1590   37.3460 H   0  0  0  0  0  0  0  0  0  0  0  0
   38.2100   23.9740   38.6250 C   0  0  0  0  0  3  0  0  0  0  0  0
   39.2740   23.1150   38.6910 C   0  0  0  0  0  3  0  0  0  0  0  0
   39.9120   22.7750   37.5090 C   0  0  0  0  0  0  0  0  0  0  0  0
   40.9770   21.9050   37.6330 C   0  0  0  0  0  3  0  0  0  0  0  0
   41.6440   21.5370   36.4930 C   0  0  0  0  0  3  0  0  0  0  0  0
   41.2740   22.0110   35.2530 C   0  0  0  0  0  3  0  0  0  0  0  0
   40.1930   22.8840   35.1880 C   0  0  0  0  0  3  0  0  0  0  0  0
   39.4930   23.2830   36.2980 C   0  0  0  0  0  0  0  0  0  0  0  0
  1  6  1  1  0  0  0
  1  5  1  0  0  0  0
  1 21  1  0  0  0  0
  2  7  1  6  0  0  0
  2  1  1  0  0  0  0
  3  8  1  0  0  0  0
  3  2  1  0  0  0  0
  3  4  1  0  0  0  0
  4  5  1  0  0  0  0
  5 11  1  0  0  0  0
  5 10  1  0  0  0  0
  9  3  1  0  0  0  0
 12 13  1  0  0  0  0
 13 19  1  0  0  0  0
 13 14  2  0  0  0  0
 14  2  1  0  0  0  0
 15 14  1  0  0  0  0
 16 15  2  0  0  0  0
 17 16  1  0  0  0  0
 17 12  2  0  0  0  0
 18 12  1  0  0  0  0
 20 16  1  0  0  0  0
 21 22  1  0  0  0  0
 22 32  2  0  0  0  0
 22 23  1  0  0  0  0
 23 25  2  0  0  0  0
 24 23  1  0  0  0  0
 25 26  1  0  0  0  0
 27 28  1  0  0  0  0
 27 26  2  0  0  0  0
 29 28  2  0  0  0  0
 30 29  1  0  0  0  0
 31 30  2  0  0  0  0
 31 32  1  0  0  0  0
 32 27  1  0  0  0  0
M  END
>  <minimizedAffinity>
-5.84063721

$$$$

 OpenBabel03272501063D

 32 35  0  0  1  0  0  0  0  0999 V2000
   37.4860   25.5920   33.9680 C   0  0  2  0  0  0  0  0  0  0  0  0
   37.6510   25.3710   32.4390 C   0  0  2  0  0  0  0  0  0  0  0  0
   36.8140   26.4680   31.9290 C   0  0  0  0  0  0  0  0  0  0  0  0
   37.0340   27.5570   32.7620 O   0  0  0  0  0  0  0  0  0  0  0  0
   37.5470   27.1210   33.9550 C   0  0  0  0  0  0  0  0  0  0  0  0
   36.5190   25.2410   34.3250 H   0  0  0  0  0  0  0  0  0  0  0  0
   38.7620   25.5150   32.3150 H   0  0  0  0  0  0  0  0  0  0  0  0
   35.7530   26.1820   32.0640 H   0  0  0  0  0  0  0  0  0  0  0  0
   36.9710   26.7150   30.8510 H   0  0  0  0  0  0  0  0  0  0  0  0
   37.0040   27.5650   34.7880 H   0  0  0  0  0  0  0  0  0  0  0  0
   38.6390   27.3690   34.0330 H   0  0  0  0  0  0  0  0  0  0  0  0
   35.7100   22.3580   31.2330 C   0  0  0  0  0  0  0  0  0  0  0  0
   35.9860   23.7020   31.5980 C   0  0  0  0  0  0  0  0  0  0  0  0
   37.2950   24.0310   32.0380 C   0  0  0  0  0  0  0  0  0  0  0  0
   38.2300   23.0180   32.0880 N   0  0  0  0  0  0  0  0  0  0  0  0
   37.9240   21.7590   31.7340 C   0  0  0  0  0  0  0  0  0  0  0  0
   36.6790   21.4190   31.3090 N   0  0  0  0  0  0  0  0  0  0  0  0
   34.6860   22.2250   30.9150 H   0  0  0  0  0  0  0  0  0  0  0  0
   35.2200   24.4780   31.5460 H   0  0  0  0  0  0  0  0  0  0  0  0
   38.6620   20.9680   31.7760 H   0  0  0  0  0  0  0  0  0  0  0  0
   38.5960   25.0670   34.6290 O   0  0  0  0  0  0  0  0  0  0  0  0
   38.6740   24.5050   35.8640 C   0  0  0  0  0  0  0  0  0  0  0  0
   37.8540   24.7740   36.9580 C   0  0  0  0  0  0  0  0  0  0  0  0
   37.0750   25.5080   36.8000 H   0  0  0  0  0  0  0  0  0  0  0  0
   38.0110   24.1510   38.1750 C   0  0  0  0  0  3  0  0  0  0  0  0
   39.0030   23.2230   38.3570 C   0  0  0  0  0  3  0  0  0  0  0  0
   39.8320   22.9370   37.2850 C   0  0  0  0  0  0  0  0  0  0  0  0
   40.8130   21.9960   37.5220 C   0  0  0  0  0  3  0  0  0  0  0  0
   41.6620   21.6770   36.4940 C   0  0  0  0  0  3  0  0  0  0  0  0
   41.5520   22.2680   35.2540 C   0  0  0  0  0  3  0  0  0  0  0  0
   40.5440   23.2100   35.0720 C   0  0  0  0  0  3  0  0  0  0  0  0
   39.6700   23.5640   36.0680 C   0  0  0  0  0  0  0  0  0  0  0  0
  1  6  1  1  0  0  0
  1 21  1  0  0  0  0
  2  7  1  6  0  0  0
  2  1  1  0  0  0  0
  3  8  1  0  0  0  0
  3  2  1  0  0  0  0
  3  4  1  0  0  0  0
  4  5  1  0  0  0  0
  5  1  1  0  0  0  0
  5 11  1  0  0  0  0
  5 10  1  0  0  0  0
  9  3  1  0  0  0  0
 12 17  2  0  0  0  0
 12 13  1  0  0  0  0
 13 14  2  0  0  0  0
 14 15  1  0  0  0  0
 14  2  1  0  0  0  0
 16 20  1  0  0  0  0
 16 15  2  0  0  0  0
 17 16  1  0  0  0  0
 18 12  1  0  0  0  0
 19 13  1  0  0  0  0
 21 22  1  0  0  0  0
 22 32  2  0  0  0  0
 22 23  1  0  0  0  0
 23 25  2  0  0  0  0
 24 23  1  0  0  0  0
 25 26  1  0  0  0  0
 27 28  1  0  0  0  0
 27 26  2  0  0  0  0
 29 28  2  0  0  0  0
 30 29  1  0  0  0  0
 31 30  2  0  0  0  0
 31 32  1  0  0  0  0
 32 27  1  0  0  0  0
M  END
>  <minimizedAffinity>
-5.71614075

$$$$

 OpenBabel03272501063D

 32 35  0  0  1  0  0  0  0  0999 V2000
   34.7250   29.1590   32.4300 C   0  0  2  0  0  0  0  0  0  0  0  0
   36.1490   28.7300   31.9830 C   0  0  2  0  0  0  0  0  0  0  0  0
   36.1910   29.3330   30.6410 C   0  0  0  0  0  0  0  0  0  0  0  0
   35.5550   30.5640   30.7390 O   0  0  0  0  0  0  0  0  0  0  0  0
   34.7540   30.5750   31.8500 C   0  0  0  0  0  0  0  0  0  0  0  0
   33.9530   28.5570   31.9540 H   0  0  0  0  0  0  0  0  0  0  0  0
   36.7870   29.2400   32.7600 H   0  0  0  0  0  0  0  0  0  0  0  0
   35.5690   28.7130   29.9670 H   0  0  0  0  0  0  0  0  0  0  0  0
   37.2120   29.4120   30.1950 H   0  0  0  0  0  0  0  0  0  0  0  0
   33.7590   30.9410   31.5980 H   0  0  0  0  0  0  0  0  0  0  0  0
   35.2040   31.2120   32.6580 H   0  0  0  0  0  0  0  0  0  0  0  0
   35.8870   25.0070   31.3700 C   0  0  0  0  0  0  0  0  0  0  0  0
   35.6530   26.3990   31.2160 C   0  0  0  0  0  0  0  0  0  0  0  0
   36.3430   27.3020   32.0680 C   0  0  0  0  0  0  0  0  0  0  0  0
   37.2040   26.7710   33.0050 N   0  0  0  0  0  0  0  0  0  0  0  0
   37.3940   25.4460   33.1170 C   0  0  0  0  0  0  0  0  0  0  0  0
   36.7470   24.5610   32.3130 N   0  0  0  0  0  0  0  0  0  0  0  0
   35.3110   24.4180   30.6710 H   0  0  0  0  0  0  0  0  0  0  0  0
   34.9630   26.7840   30.4630 H   0  0  0  0  0  0  0  0  0  0  0  0
   38.0710   25.0350   33.8540 H   0  0  0  0  0  0  0  0  0  0  0  0
   34.6770   29.2050   33.8220 O   0  0  0  0  0  0  0  0  0  0  0  0
   33.6860   29.6610   34.6330 C   0  0  0  0  0  0  0  0  0  0  0  0
   32.3790   29.1830   34.7060 C   0  0  0  0  0  0  0  0  0  0  0  0
   32.1350   28.3620   34.0450 H   0  0  0  0  0  0  0  0  0  0  0  0
   31.4410   29.7120   35.5630 C   0  0  0  0  0  3  0  0  0  0  0  0
   31.7680   30.7520   36.3930 C   0  0  0  0  0  3  0  0  0  0  0  0
   33.0610   31.2460   36.3410 C   0  0  0  0  0  0  0  0  0  0  0  0
   33.3360   32.2920   37.1980 C   0  0  0  0  0  3  0  0  0  0  0  0
   34.6020   32.8190   37.1850 C   0  0  0  0  0  3  0  0  0  0  0  0
   35.5820   32.3290   36.3490 C   0  0  0  0  0  3  0  0  0  0  0  0
   35.2470   31.2740   35.5070 C   0  0  0  0  0  3  0  0  0  0  0  0
   33.9960   30.7120   35.4810 C   0  0  0  0  0  0  0  0  0  0  0  0
  1  6  1  6  0  0  0
  1 21  1  0  0  0  0
  2 14  1  0  0  0  0
  2  1  1  0  0  0  0
  2  7  1  1  0  0  0
  3  4  1  0  0  0  0
  3  2  1  0  0  0  0
  4  5  1  0  0  0  0
  5  1  1  0  0  0  0
  5 11  1  0  0  0  0
  8  3  1  0  0  0  0
  9  3  1  0  0  0  0
 10  5  1  0  0  0  0
 12 17  1  0  0  0  0
 13 12  2  0  0  0  0
 13 14  1  0  0  0  0
 14 15  2  0  0  0  0
 15 16  1  0  0  0  0
 16 20  1  0  0  0  0
 17 16  2  0  0  0  0
 18 12  1  0  0  0  0
 19 13  1  0  0  0  0
 21 22  1  0  0  0  0
 22 23  2  0  0  0  0
 22 32  1  0  0  0  0
 23 25  1  0  0  0  0
 24 23  1  0  0  0  0
 25 26  2  0  0  0  0
 27 26  1  0  0  0  0
 27 28  1  0  0  0  0
 29 28  2  0  0  0  0
 30 29  1  0  0  0  0
 31 30  2  0  0  0  0
 32 31  1  0  0  0  0
 32 27  2  0  0  0  0
M  END
>  <minimizedAffinity>
-5.60721016

$$$$

 OpenBabel03272501063D

 32 35  0  0  1  0  0  0  0  0999 V2000
   34.2430   29.8350   34.3140 C   0  0  2  0  0  0  0  0  0  0  0  0
   34.4890   31.0230   35.2850 C   0  0  2  0  0  0  0  0  0  0  0  0
   33.1100   31.5070   35.4540 C   0  0  0  0  0  0  0  0  0  0  0  0
   32.2980   30.3820   35.5130 O   0  0  0  0  0  0  0  0  0  0  0  0
   32.9570   29.3160   34.9580 C   0  0  0  0  0  0  0  0  0  0  0  0
   34.0630   30.1760   33.2960 H   0  0  0  0  0  0  0  0  0  0  0  0
   34.9260   30.4910   36.1780 H   0  0  0  0  0  0  0  0  0  0  0  0
   32.8220   32.0510   34.5330 H   0  0  0  0  0  0  0  0  0  0  0  0
   32.9580   32.1920   36.3230 H   0  0  0  0  0  0  0  0  0  0  0  0
   32.3140   28.8020   34.2450 H   0  0  0  0  0  0  0  0  0  0  0  0
   33.2970   28.6000   35.7540 H   0  0  0  0  0  0  0  0  0  0  0  0
   36.6140   33.0970   32.9430 C   0  0  0  0  0  0  0  0  0  0  0  0
   35.6320   32.1670   33.3740 C   0  0  0  0  0  0  0  0  0  0  0  0
   35.4580   31.9610   34.7680 C   0  0  0  0  0  0  0  0  0  0  0  0
   36.2600   32.6790   35.6290 N   0  0  0  0  0  0  0  0  0  0  0  0
   37.1780   33.5490   35.1760 C   0  0  0  0  0  0  0  0  0  0  0  0
   37.3640   33.7650   33.8470 N   0  0  0  0  0  0  0  0  0  0  0  0
   36.6580   33.1720   31.8660 H   0  0  0  0  0  0  0  0  0  0  0  0
   35.0150   31.6150   32.6620 H   0  0  0  0  0  0  0  0  0  0  0  0
   37.8050   34.1100   35.8570 H   0  0  0  0  0  0  0  0  0  0  0  0
   35.2700   28.9030   34.4610 O   0  0  0  0  0  0  0  0  0  0  0  0
   36.1600   28.4530   33.5380 C   0  0  0  0  0  0  0  0  0  0  0  0
   36.0270   28.5080   32.1520 C   0  0  0  0  0  0  0  0  0  0  0  0
   35.1170   28.9580   31.7790 H   0  0  0  0  0  0  0  0  0  0  0  0
   36.9870   28.0230   31.2930 C   0  0  0  0  0  3  0  0  0  0  0  0
   38.1330   27.4550   31.7840 C   0  0  0  0  0  3  0  0  0  0  0  0
   38.2910   27.3890   33.1580 C   0  0  0  0  0  0  0  0  0  0  0  0
   39.4640   26.8080   33.5980 C   0  0  0  0  0  3  0  0  0  0  0  0
   39.6690   26.7160   34.9510 C   0  0  0  0  0  3  0  0  0  0  0  0
   38.7440   27.1860   35.8570 C   0  0  0  0  0  3  0  0  0  0  0  0
   37.5800   27.7610   35.3570 C   0  0  0  0  0  3  0  0  0  0  0  0
   37.3260   27.8760   34.0140 C   0  0  0  0  0  0  0  0  0  0  0  0
  1  6  1  6  0  0  0
  1 21  1  0  0  0  0
  1  5  1  0  0  0  0
  1  2  1  0  0  0  0
  2  3  1  0  0  0  0
  2  7  1  1  0  0  0
  3  4  1  0  0  0  0
  3  9  1  0  0  0  0
  5  4  1  0  0  0  0
  5 11  1  0  0  0  0
  8  3  1  0  0  0  0
 10  5  1  0  0  0  0
 12 13  2  0  0  0  0
 12 17  1  0  0  0  0
 13 14  1  0  0  0  0
 14  2  1  0  0  0  0
 14 15  2  0  0  0  0
 16 15  1  0  0  0  0
 16 20  1  0  0  0  0
 17 16  2  0  0  0  0
 18 12  1  0  0  0  0
 19 13  1  0  0  0  0
 22 32  1  0  0  0  0
 22 21  1  0  0  0  0
 23 22  2  0  0  0  0
 24 23  1  0  0  0  0
 25 26  2  0  0  0  0
 25 23  1  0  0  0  0
 26 27  1  0  0  0  0
 27 28  2  0  0  0  0
 27 32  1  0  0  0  0
 28 29  1  0  0  0  0
 29 30  2  0  0  0  0
 31 30  1  0  0  0  0
 32 31  2  0  0  0  0
M  END
>  <minimizedAffinity>
-5.49530697

$$$$

 OpenBabel03272501063D

 32 35  0  0  1  0  0  0  0  0999 V2000
   39.0530   25.9010   34.1050 C   0  0  2  0  0  0  0  0  0  0  0  0
   38.2240   25.5760   35.3790 C   0  0  2  0  0  0  0  0  0  0  0  0
   38.1280   26.9180   35.9730 C   0  0  0  0  0  0  0  0  0  0  0  0
   37.9470   27.8070   34.9220 O   0  0  0  0  0  0  0  0  0  0  0  0
   38.3670   27.2230   33.7550 C   0  0  0  0  0  0  0  0  0  0  0  0
   40.1050   26.0550   34.3360 H   0  0  0  0  0  0  0  0  0  0  0  0
   37.2710   25.1800   34.9260 H   0  0  0  0  0  0  0  0  0  0  0  0
   39.1090   27.1650   36.4240 H   0  0  0  0  0  0  0  0  0  0  0  0
   37.3470   27.0250   36.7640 H   0  0  0  0  0  0  0  0  0  0  0  0
   39.0220   27.8990   33.2060 H   0  0  0  0  0  0  0  0  0  0  0  0
   37.4890   26.9360   33.1160 H   0  0  0  0  0  0  0  0  0  0  0  0
   38.9450   23.1100   38.1540 C   0  0  0  0  0  0  0  0  0  0  0  0
   38.2770   24.1230   37.4160 C   0  0  0  0  0  0  0  0  0  0  0  0
   38.8360   24.5430   36.1800 C   0  0  0  0  0  0  0  0  0  0  0  0
   40.0050   23.9400   35.7650 N   0  0  0  0  0  0  0  0  0  0  0  0
   40.6040   22.9860   36.4970 C   0  0  0  0  0  0  0  0  0  0  0  0
   40.0890   22.5660   37.6830 N   0  0  0  0  0  0  0  0  0  0  0  0
   38.4320   22.8710   39.0740 H   0  0  0  0  0  0  0  0  0  0  0  0
   37.3530   24.5780   37.7770 H   0  0  0  0  0  0  0  0  0  0  0  0
   41.5210   22.5160   36.1660 H   0  0  0  0  0  0  0  0  0  0  0  0
   38.7860   24.9420   33.1280 O   0  0  0  0  0  0  0  0  0  0  0  0
   37.6330   24.7040   32.4520 C   0  0  0  0  0  0  0  0  0  0  0  0
   36.9380   25.5990   31.6410 C   0  0  0  0  0  0  0  0  0  0  0  0
   37.3690   26.5870   31.5460 H   0  0  0  0  0  0  0  0  0  0  0  0
   35.7710   25.2630   30.9930 C   0  0  0  0  0  3  0  0  0  0  0  0
   35.2400   24.0070   31.1260 C   0  0  0  0  0  3  0  0  0  0  0  0
   35.9110   23.0970   31.9250 C   0  0  0  0  0  0  0  0  0  0  0  0
   35.3340   21.8480   32.0240 C   0  0  0  0  0  3  0  0  0  0  0  0
   35.9580   20.9090   32.8050 C   0  0  0  0  0  3  0  0  0  0  0  0
   37.1290   21.1880   33.4760 C   0  0  0  0  0  3  0  0  0  0  0  0
   37.6650   22.4650   33.3400 C   0  0  0  0  0  3  0  0  0  0  0  0
   37.0800   23.4390   32.5720 C   0  0  0  0  0  0  0  0  0  0  0  0
  1  6  1  1  0  0  0
  1  2  1  0  0  0  0
  2  7  1  6  0  0  0
  2  3  1  0  0  0  0
  2 14  1  0  0  0  0
  3  8  1  0  0  0  0
  3  9  1  0  0  0  0
  4  3  1  0  0  0  0
  5  1  1  0  0  0  0
  5  4  1  0  0  0  0
 10  5  1  0  0  0  0
 11  5  1  0  0  0  0
 12 18  1  0  0  0  0
 13 19  1  0  0  0  0
 13 12  2  0  0  0  0
 14 13  1  0  0  0  0
 15 14  2  0  0  0  0
 15 16  1  0  0  0  0
 16 17  2  0  0  0  0
 17 12  1  0  0  0  0
 20 16  1  0  0  0  0
 21  1  1  0  0  0  0
 22 32  1  0  0  0  0
 22 21  1  0  0  0  0
 23 22  2  0  0  0  0
 24 23  1  0  0  0  0
 25 26  2  0  0  0  0
 25 23  1  0  0  0  0
 26 27  1  0  0  0  0
 27 28  2  0  0  0  0
 27 32  1  0  0  0  0
 28 29  1  0  0  0  0
 29 30  2  0  0  0  0
 31 30  1  0  0  0  0
 32 31  2  0  0  0  0
M  END
>  <minimizedAffinity>
-5.46707487

$$$$

 OpenBabel03272501063D

 32 35  0  0  1  0  0  0  0  0999 V2000
   38.4460   24.2730   32.8920 C   0  0  2  0  0  0  0  0  0  0  0  0
   37.0890   25.0050   32.7010 C   0  0  2  0  0  0  0  0  0  0  0  0
   36.3660   24.0040   31.9020 C   0  0  0  0  0  0  0  0  0  0  0  0
   36.7130   22.7600   32.4150 O   0  0  0  0  0  0  0  0  0  0  0  0
   37.8830   22.8690   33.1190 C   0  0  0  0  0  0  0  0  0  0  0  0
   39.0550   24.3100   31.9910 H   0  0  0  0  0  0  0  0  0  0  0  0
   36.7440   25.1110   33.7690 H   0  0  0  0  0  0  0  0  0  0  0  0
   36.7640   24.0360   30.8690 H   0  0  0  0  0  0  0  0  0  0  0  0
   35.2600   24.1540   31.8520 H   0  0  0  0  0  0  0  0  0  0  0  0
   38.5810   22.0880   32.8190 H   0  0  0  0  0  0  0  0  0  0  0  0
   37.6900   22.8070   34.2240 H   0  0  0  0  0  0  0  0  0  0  0  0
   36.7860   28.7110   32.0100 C   0  0  0  0  0  0  0  0  0  0  0  0
   36.5850   27.4570   32.6440 C   0  0  0  0  0  0  0  0  0  0  0  0
   37.2520   26.3170   32.1210 C   0  0  0  0  0  0  0  0  0  0  0  0
   38.0600   26.4950   31.0180 N   0  0  0  0  0  0  0  0  0  0  0  0
   38.2210   27.7020   30.4490 C   0  0  0  0  0  0  0  0  0  0  0  0
   37.5940   28.8080   30.9310 N   0  0  0  0  0  0  0  0  0  0  0  0
   36.2320   29.5040   32.4920 H   0  0  0  0  0  0  0  0  0  0  0  0
   35.9370   27.3540   33.5160 H   0  0  0  0  0  0  0  0  0  0  0  0
   38.8560   27.8350   29.5840 H   0  0  0  0  0  0  0  0  0  0  0  0
   39.0610   24.7430   34.0510 O   0  0  0  0  0  0  0  0  0  0  0  0
   38.9090   24.3230   35.3350 C   0  0  0  0  0  0  0  0  0  0  0  0
   37.8730   24.6530   36.2050 C   0  0  0  0  0  0  0  0  0  0  0  0
   37.1120   25.3140   35.8110 H   0  0  0  0  0  0  0  0  0  0  0  0
   37.8050   24.1760   37.4950 C   0  0  0  0  0  3  0  0  0  0  0  0
   38.7770   23.3400   37.9770 C   0  0  0  0  0  3  0  0  0  0  0  0
   39.8190   22.9960   37.1320 C   0  0  0  0  0  0  0  0  0  0  0  0
   40.7700   22.1510   37.6680 C   0  0  0  0  0  3  0  0  0  0  0  0
   41.8240   21.7800   36.8730 C   0  0  0  0  0  3  0  0  0  0  0  0
   41.9430   22.2270   35.5750 C   0  0  0  0  0  3  0  0  0  0  0  0
   40.9550   23.0760   35.0870 C   0  0  0  0  0  3  0  0  0  0  0  0
   39.8820   23.4770   35.8410 C   0  0  0  0  0  0  0  0  0  0  0  0
  1  6  1  6  0  0  0
  1  5  1  0  0  0  0
  1 21  1  0  0  0  0
  2  1  1  0  0  0  0
  2  7  1  1  0  0  0
  3  4  1  0  0  0  0
  3  2  1  0  0  0  0
  4  5  1  0  0  0  0
  5 11  1  0  0  0  0
  8  3  1  0  0  0  0
  9  3  1  0  0  0  0
 10  5  1  0  0  0  0
 12 18  1  0  0  0  0
 12 13  1  0  0  0  0
 13 19  1  0  0  0  0
 14 13  2  0  0  0  0
 14  2  1  0  0  0  0
 15 14  1  0  0  0  0
 16 17  1  0  0  0  0
 16 15  2  0  0  0  0
 17 12  2  0  0  0  0
 20 16  1  0  0  0  0
 21 22  1  0  0  0  0
 22 32  2  0  0  0  0
 22 23  1  0  0  0  0
 23 25  2  0  0  0  0
 24 23  1  0  0  0  0
 25 26  1  0  0  0  0
 27 28  1  0  0  0  0
 27 26  2  0  0  0  0
 29 28  2  0  0  0  0
 30 29  1  0  0  0  0
 31 30  2  0  0  0  0
 31 32  1  0  0  0  0
 32 27  1  0  0  0  0
M  END
>  <minimizedAffinity>
-5.40796566

$$$$

 OpenBabel03272501063D

 32 35  0  0  1  0  0  0  0  0999 V2000
   39.0240   23.5020   32.8540 C   0  0  2  0  0  0  0  0  0  0  0  0
   37.6360   24.2000   32.8650 C   0  0  2  0  0  0  0  0  0  0  0  0
   36.8390   23.2020   32.1330 C   0  0  0  0  0  0  0  0  0  0  0  0
   37.2800   21.9550   32.5560 O   0  0  0  0  0  0  0  0  0  0  0  0
   38.5290   22.0760   33.1050 C   0  0  0  0  0  0  0  0  0  0  0  0
   39.5090   23.5830   31.8830 H   0  0  0  0  0  0  0  0  0  0  0  0
   37.4300   24.2630   33.9720 H   0  0  0  0  0  0  0  0  0  0  0  0
   37.0980   23.2770   31.0600 H   0  0  0  0  0  0  0  0  0  0  0  0
   35.7330   23.3220   32.2330 H   0  0  0  0  0  0  0  0  0  0  0  0
   39.2010   21.3250   32.6910 H   0  0  0  0  0  0  0  0  0  0  0  0
   38.4840   21.9760   34.2230 H   0  0  0  0  0  0  0  0  0  0  0  0
   37.2110   27.9260   32.3760 C   0  0  0  0  0  0  0  0  0  0  0  0
   37.1300   26.6480   32.9910 C   0  0  0  0  0  0  0  0  0  0  0  0
   37.6890   25.5330   32.3130 C   0  0  0  0  0  0  0  0  0  0  0  0
   38.2810   25.7550   31.0870 N   0  0  0  0  0  0  0  0  0  0  0  0
   38.3340   26.9820   30.5430 C   0  0  0  0  0  0  0  0  0  0  0  0
   37.8070   28.0660   31.1720 N   0  0  0  0  0  0  0  0  0  0  0  0
   36.7540   28.6970   32.9800 H   0  0  0  0  0  0  0  0  0  0  0  0
   36.6530   26.5100   33.9630 H   0  0  0  0  0  0  0  0  0  0  0  0
   38.7990   27.1510   29.5810 H   0  0  0  0  0  0  0  0  0  0  0  0
   39.7730   23.9550   33.9390 O   0  0  0  0  0  0  0  0  0  0  0  0
   40.1650   23.2820   35.0520 C   0  0  0  0  0  0  0  0  0  0  0  0
   41.1850   22.3370   35.1420 C   0  0  0  0  0  0  0  0  0  0  0  0
   41.7160   22.1220   34.2240 H   0  0  0  0  0  0  0  0  0  0  0  0
   41.5120   21.7050   36.3210 C   0  0  0  0  0  3  0  0  0  0  0  0
   40.8280   21.9900   37.4730 C   0  0  0  0  0  3  0  0  0  0  0  0
   39.8090   22.9260   37.4110 C   0  0  0  0  0  0  0  0  0  0  0  0
   39.1530   23.1760   38.6000 C   0  0  0  0  0  3  0  0  0  0  0  0
   38.1350   24.0940   38.5940 C   0  0  0  0  0  3  0  0  0  0  0  0
   37.7660   24.7580   37.4440 C   0  0  0  0  0  3  0  0  0  0  0  0
   38.4610   24.4660   36.2750 C   0  0  0  0  0  3  0  0  0  0  0  0
   39.4870   23.5570   36.2280 C   0  0  0  0  0  0  0  0  0  0  0  0
  1  6  1  6  0  0  0
  1  2  1  0  0  0  0
  1  5  1  0  0  0  0
  1 21  1  0  0  0  0
  2  7  1  1  0  0  0
  3  9  1  0  0  0  0
  3  4  1  0  0  0  0
  3  2  1  0  0  0  0
  4  5  1  0  0  0  0
  5 11  1  0  0  0  0
  8  3  1  0  0  0  0
 10  5  1  0  0  0  0
 12 18  1  0  0  0  0
 12 13  1  0  0  0  0
 13 19  1  0  0  0  0
 14  2  1  0  0  0  0
 14 13  2  0  0  0  0
 15 14  1  0  0  0  0
 16 15  2  0  0  0  0
 16 17  1  0  0  0  0
 17 12  2  0  0  0  0
 20 16  1  0  0  0  0
 21 22  1  0  0  0  0
 22 23  2  0  0  0  0
 22 32  1  0  0  0  0
 23 25  1  0  0  0  0
 24 23  1  0  0  0  0
 25 26  2  0  0  0  0
 27 26  1  0  0  0  0
 27 28  1  0  0  0  0
 29 28  2  0  0  0  0
 30 29  1  0  0  0  0
 31 30  2  0  0  0  0
 32 31  1  0  0  0  0
 32 27  2  0  0  0  0
M  END
>  <minimizedAffinity>
-5.35413551

$$$$

 OpenBabel03272501063D

 32 35  0  0  1  0  0  0  0  0999 V2000
   39.8110   24.5670   33.0660 C   0  0  2  0  0  0  0  0  0  0  0  0
   39.3350   24.4620   31.5910 C   0  0  2  0  0  0  0  0  0  0  0  0
   40.2080   25.4690   30.9670 C   0  0  0  0  0  0  0  0  0  0  0  0
   41.4500   25.3510   31.5770 O   0  0  0  0  0  0  0  0  0  0  0  0
   41.3070   24.7140   32.7820 C   0  0  0  0  0  0  0  0  0  0  0  0
   39.4150   25.4540   33.5570 H   0  0  0  0  0  0  0  0  0  0  0  0
   39.5890   23.3900   31.3530 H   0  0  0  0  0  0  0  0  0  0  0  0
   39.8230   26.4710   31.2370 H   0  0  0  0  0  0  0  0  0  0  0  0
   40.2700   25.4090   29.8530 H   0  0  0  0  0  0  0  0  0  0  0  0
   41.8260   25.2640   33.5660 H   0  0  0  0  0  0  0  0  0  0  0  0
   41.6980   23.6630   32.7260 H   0  0  0  0  0  0  0  0  0  0  0  0
   35.6320   23.8350   31.1500 C   0  0  0  0  0  0  0  0  0  0  0  0
   37.0190   23.5640   31.2840 C   0  0  0  0  0  0  0  0  0  0  0  0
   37.9100   24.6550   31.4610 C   0  0  0  0  0  0  0  0  0  0  0  0
   37.3740   25.9250   31.4900 N   0  0  0  0  0  0  0  0  0  0  0  0
   36.0540   26.1350   31.3580 C   0  0  0  0  0  0  0  0  0  0  0  0
   35.1800   25.1080   31.1890 N   0  0  0  0  0  0  0  0  0  0  0  0
   35.0510   22.9330   31.0210 H   0  0  0  0  0  0  0  0  0  0  0  0
   37.4080   22.5440   31.2550 H   0  0  0  0  0  0  0  0  0  0  0  0
   35.6380   27.1340   31.3820 H   0  0  0  0  0  0  0  0  0  0  0  0
   39.5570   23.3590   33.7160 O   0  0  0  0  0  0  0  0  0  0  0  0
   40.0390   22.9040   34.9020 C   0  0  0  0  0  0  0  0  0  0  0  0
   41.1470   22.0820   35.0940 C   0  0  0  0  0  0  0  0  0  0  0  0
   41.6750   21.7790   34.1990 H   0  0  0  0  0  0  0  0  0  0  0  0
   41.5610   21.6710   36.3410 C   0  0  0  0  0  3  0  0  0  0  0  0
   40.8800   22.0650   37.4620 C   0  0  0  0  0  3  0  0  0  0  0  0
   39.7750   22.8830   37.3000 C   0  0  0  0  0  0  0  0  0  0  0  0
   39.1260   23.2510   38.4610 C   0  0  0  0  0  3  0  0  0  0  0  0
   38.0240   24.0590   38.3560 C   0  0  0  0  0  3  0  0  0  0  0  0
   37.5650   24.5020   37.1350 C   0  0  0  0  0  3  0  0  0  0  0  0
   38.2580   24.1000   35.9970 C   0  0  0  0  0  3  0  0  0  0  0  0
   39.3650   23.2920   36.0480 C   0  0  0  0  0  0  0  0  0  0  0  0
  1  6  1  1  0  0  0
  1 21  1  0  0  0  0
  2  7  1  6  0  0  0
  2  1  1  0  0  0  0
  3  8  1  0  0  0  0
  3  4  1  0  0  0  0
  3  2  1  0  0  0  0
  4  5  1  0  0  0  0
  5  1  1  0  0  0  0
  5 10  1  0  0  0  0
  9  3  1  0  0  0  0
 11  5  1  0  0  0  0
 12 17  2  0  0  0  0
 12 13  1  0  0  0  0
 13 14  2  0  0  0  0
 14 15  1  0  0  0  0
 14  2  1  0  0  0  0
 16 20  1  0  0  0  0
 16 15  2  0  0  0  0
 17 16  1  0  0  0  0
 18 12  1  0  0  0  0
 19 13  1  0  0  0  0
 21 22  1  0  0  0  0
 22 23  2  0  0  0  0
 22 32  1  0  0  0  0
 23 25  1  0  0  0  0
 24 23  1  0  0  0  0
 25 26  2  0  0  0  0
 27 26  1  0  0  0  0
 27 28  1  0  0  0  0
 29 28  2  0  0  0  0
 30 29  1  0  0  0  0
 31 32  1  0  0  0  0
 31 30  2  0  0  0  0
 32 27  2  0  0  0  0
M  END
>  <minimizedAffinity>
-5.3520093

$$$$

 OpenBabel03272501063D

 32 35  0  0  1  0  0  0  0  0999 V2000
   37.3040   26.6040   34.0060 C   0  0  2  0  0  0  0  0  0  0  0  0
   37.5030   27.1130   32.5520 C   0  0  2  0  0  0  0  0  0  0  0  0
   36.2150   27.7920   32.3380 C   0  0  0  0  0  0  0  0  0  0  0  0
   35.8960   28.4240   33.5330 O   0  0  0  0  0  0  0  0  0  0  0  0
   36.6000   27.8450   34.5560 C   0  0  0  0  0  0  0  0  0  0  0  0
   36.6520   25.7340   34.0430 H   0  0  0  0  0  0  0  0  0  0  0  0
   38.3920   27.7950   32.6770 H   0  0  0  0  0  0  0  0  0  0  0  0
   35.4410   27.0160   32.1800 H   0  0  0  0  0  0  0  0  0  0  0  0
   36.1920   28.4880   31.4650 H   0  0  0  0  0  0  0  0  0  0  0  0
   35.9370   27.6120   35.3890 H   0  0  0  0  0  0  0  0  0  0  0  0
   37.4270   28.5210   34.9020 H   0  0  0  0  0  0  0  0  0  0  0  0
   39.2120   25.0600   29.8750 C   0  0  0  0  0  0  0  0  0  0  0  0
   38.9480   26.1460   30.7510 C   0  0  0  0  0  0  0  0  0  0  0  0
   37.8450   26.0470   31.6400 C   0  0  0  0  0  0  0  0  0  0  0  0
   37.0870   24.8960   31.6000 N   0  0  0  0  0  0  0  0  0  0  0  0
   37.3740   23.8930   30.7540 C   0  0  0  0  0  0  0  0  0  0  0  0
   38.4230   23.9620   29.8930 N   0  0  0  0  0  0  0  0  0  0  0  0
   40.0710   25.2440   29.2460 H   0  0  0  0  0  0  0  0  0  0  0  0
   39.5700   27.0420   30.7540 H   0  0  0  0  0  0  0  0  0  0  0  0
   36.7750   22.9920   30.7270 H   0  0  0  0  0  0  0  0  0  0  0  0
   38.5510   26.4450   34.6100 O   0  0  0  0  0  0  0  0  0  0  0  0
   39.2620   25.3070   34.8270 C   0  0  0  0  0  0  0  0  0  0  0  0
   40.1820   24.7190   33.9630 C   0  0  0  0  0  0  0  0  0  0  0  0
   40.3430   25.2270   33.0210 H   0  0  0  0  0  0  0  0  0  0  0  0
   40.8560   23.5590   34.2720 C   0  0  0  0  0  3  0  0  0  0  0  0
   40.6400   22.9290   35.4690 C   0  0  0  0  0  3  0  0  0  0  0  0
   39.7300   23.4940   36.3470 C   0  0  0  0  0  0  0  0  0  0  0  0
   39.5500   22.8190   37.5380 C   0  0  0  0  0  3  0  0  0  0  0  0
   38.6590   23.3360   38.4430 C   0  0  0  0  0  3  0  0  0  0  0  0
   37.9560   24.4940   38.1880 C   0  0  0  0  0  3  0  0  0  0  0  0
   38.1780   25.1310   36.9710 C   0  0  0  0  0  3  0  0  0  0  0  0
   39.0580   24.6560   36.0320 C   0  0  0  0  0  0  0  0  0  0  0  0
  1  6  1  1  0  0  0
  1  5  1  0  0  0  0
  1 21  1  0  0  0  0
  2  7  1  6  0  0  0
  2  1  1  0  0  0  0
  3  2  1  0  0  0  0
  3  4  1  0  0  0  0
  4  5  1  0  0  0  0
  5 11  1  0  0  0  0
  5 10  1  0  0  0  0
  8  3  1  0  0  0  0
  9  3  1  0  0  0  0
 12 17  2  0  0  0  0
 12 13  1  0  0  0  0
 13 19  1  0  0  0  0
 13 14  2  0  0  0  0
 14  2  1  0  0  0  0
 15 14  1  0  0  0  0
 16 15  2  0  0  0  0
 17 16  1  0  0  0  0
 18 12  1  0  0  0  0
 20 16  1  0  0  0  0
 21 22  1  0  0  0  0
 22 32  1  0  0  0  0
 23 25  1  0  0  0  0
 23 22  2  0  0  0  0
 24 23  1  0  0  0  0
 25 26  2  0  0  0  0
 26 27  1  0  0  0  0
 27 28  1  0  0  0  0
 28 29  2  0  0  0  0
 30 29  1  0  0  0  0
 31 30  2  0  0  0  0
 32 27  2  0  0  0  0
 32 31  1  0  0  0  0
M  END
>  <minimizedAffinity>
-5.27694035

$$$$
