
 OpenBabel03272507163D

 28 31  0  0  1  0  0  0  0  0999 V2000
   36.5350   30.5950   50.2660 C   0  0  1  0  0  0  0  0  0  0  0  0
   35.6660   29.4680   49.9940 C   0  0  2  0  0  0  0  0  0  0  0  0
   36.9690   29.2010   50.7260 C   0  0  0  0  0  0  0  0  0  0  0  0
   36.2970   31.2690   51.1290 H   0  0  0  0  0  0  0  0  0  0  0  0
   34.7180   29.3790   50.5850 H   0  0  0  0  0  0  0  0  0  0  0  0
   37.7810   28.6830   50.1910 H   0  0  0  0  0  0  0  0  0  0  0  0
   36.8400   28.9680   51.7960 H   0  0  0  0  0  0  0  0  0  0  0  0
   37.4520   31.1450   49.1940 C   0  0  0  0  0  0  0  0  0  0  0  0
   37.9470   32.4320   49.4010 C   0  0  0  0  0  0  0  0  0  0  0  0
   38.7650   32.9290   48.4010 C   0  0  0  0  0  0  0  0  0  0  0  0
   39.0420   32.1650   47.2940 N   0  0  0  0  0  0  0  0  0  0  0  0
   38.5410   30.9150   47.1290 C   0  0  0  0  0  0  0  0  0  0  0  0
   37.7370   30.4050   48.0930 N   0  0  0  0  0  0  0  0  0  0  0  0
   37.6800   32.9680   50.3010 H   0  0  0  0  0  0  0  0  0  0  0  0
   39.1760   33.9230   48.5110 H   0  0  0  0  0  0  0  0  0  0  0  0
   38.7970   30.3650   46.2340 H   0  0  0  0  0  0  0  0  0  0  0  0
   35.5980   28.9430   48.7150 O   0  0  0  0  0  0  0  0  0  0  0  0
   34.5550   29.2460   47.8700 C   0  0  0  0  0  0  0  0  0  0  0  0
   34.1280   30.4270   47.3200 C   0  0  0  0  0  0  0  0  0  0  0  0
   34.7040   31.2890   47.5880 H   0  0  0  0  0  0  0  0  0  0  0  0
   33.0500   30.5440   46.4830 C   0  0  0  0  0  3  0  0  0  0  0  0
   32.3120   29.4530   46.1370 C   0  0  0  0  0  3  0  0  0  0  0  0
   32.6920   28.2340   46.6580 C   0  0  0  0  0  0  0  0  0  0  0  0
   31.9230   27.1510   46.2880 C   0  0  0  0  0  3  0  0  0  0  0  0
   32.2390   25.8990   46.7700 C   0  0  0  0  0  3  0  0  0  0  0  0
   33.3180   25.7450   47.6140 C   0  0  0  0  0  3  0  0  0  0  0  0
   34.0480   26.8650   47.9460 C   0  0  0  0  0  3  0  0  0  0  0  0
   33.7800   28.1400   47.4970 C   0  0  0  0  0  0  0  0  0  0  0  0
  1  3  1  0  0  0  0
  1  4  1  1  0  0  0
  2  1  1  0  0  0  0
  2  5  1  1  0  0  0
  2  3  1  0  0  0  0
  3  7  1  0  0  0  0
  6  3  1  0  0  0  0
  8  9  1  0  0  0  0
  8  1  1  0  0  0  0
  9 14  1  0  0  0  0
 10 15  1  0  0  0  0
 10  9  2  0  0  0  0
 11 10  1  0  0  0  0
 12 11  2  0  0  0  0
 12 13  1  0  0  0  0
 13  8  2  0  0  0  0
 16 12  1  0  0  0  0
 17  2  1  0  0  0  0
 18 17  1  0  0  0  0
 19 20  1  0  0  0  0
 19 18  2  0  0  0  0
 21 19  1  0  0  0  0
 22 21  2  0  0  0  0
 22 23  1  0  0  0  0
 23 28  1  0  0  0  0
 24 23  2  0  0  0  0
 24 25  1  0  0  0  0
 25 26  2  0  0  0  0
 26 27  1  0  0  0  0
 28 18  1  0  0  0  0
 28 27  2  0  0  0  0
M  END
>  <minimizedAffinity>
-5.53599453

>  <minimizedRMSD>
3.29966712

$$$$
