
 OpenBabel03272506433D

 34 37  0  0  1  0  0  0  0  0999 V2000
   31.9120   28.4590   47.3830 C   0  0  2  0  0  0  0  0  0  0  0  0
   33.1610   28.1980   48.2110 C   0  0  1  0  0  0  0  0  0  0  0  0
   33.4650   26.8750   48.1070 O   0  0  0  0  0  0  0  0  0  0  0  0
   32.6540   26.2970   47.1550 C   0  0  0  0  0  0  0  0  0  0  0  0
   32.1430   27.4450   46.2680 C   0  0  1  0  0  0  0  0  0  0  0  0
   31.0000   28.2170   47.9520 H   0  0  0  0  0  0  0  0  0  0  0  0
   32.9650   28.5520   49.2410 H   0  0  0  0  0  0  0  0  0  0  0  0
   33.2960   25.6460   46.5240 H   0  0  0  0  0  0  0  0  0  0  0  0
   31.8050   25.7550   47.6020 H   0  0  0  0  0  0  0  0  0  0  0  0
   32.9570   27.8320   45.6540 H   0  0  0  0  0  0  0  0  0  0  0  0
   31.8970   29.7620   46.8930 O   0  0  0  0  0  0  0  0  0  0  0  0
   31.4030   30.3390   47.5230 H   0  0  0  0  0  0  0  0  0  0  0  0
   34.5020   29.1520   47.4340 S   0  0  0  0  0  0  0  0  0  0  0  0
   36.8950   29.2510   50.5860 C   0  0  0  0  0  0  0  0  0  0  0  0
   37.3290   30.5670   50.6810 C   0  0  0  0  0  0  0  0  0  0  0  0
   36.8610   31.4710   49.7270 C   0  0  0  0  0  0  0  0  0  0  0  0
   36.0110   31.0230   48.7590 N   0  0  0  0  0  0  0  0  0  0  0  0
   35.6180   29.7260   48.7090 C   0  0  0  0  0  0  0  0  0  0  0  0
   36.0510   28.8350   49.6130 N   0  0  0  0  0  0  0  0  0  0  0  0
   37.2850   28.5910   51.3450 H   0  0  0  0  0  0  0  0  0  0  0  0
   38.0040   30.9180   51.4520 H   0  0  0  0  0  0  0  0  0  0  0  0
   37.1420   32.5260   49.7170 H   0  0  0  0  0  0  0  0  0  0  0  0
   30.9790   27.0720   45.6490 O   0  0  0  0  0  0  0  0  0  0  0  0
   29.7420   27.1610   46.2610 C   0  0  0  0  0  0  0  0  0  0  0  0
   29.2240   26.4820   47.3430 C   0  0  0  0  0  0  0  0  0  0  0  0
   29.9140   25.7690   47.7640 H   0  0  0  0  0  0  0  0  0  0  0  0
   27.9470   26.7310   47.7950 C   0  0  0  0  0  3  0  0  0  0  0  0
   27.1400   27.6550   47.1990 C   0  0  0  0  0  3  0  0  0  0  0  0
   27.6260   28.3620   46.1050 C   0  0  0  0  0  0  0  0  0  0  0  0
   26.7690   29.2700   45.5560 C   0  0  0  0  0  3  0  0  0  0  0  0
   27.2000   29.9990   44.4670 C   0  0  0  0  0  3  0  0  0  0  0  0
   28.4690   29.7950   43.9670 C   0  0  0  0  0  3  0  0  0  0  0  0
   29.2880   28.8650   44.5650 C   0  0  0  0  0  3  0  0  0  0  0  0
   28.9170   28.1090   45.6490 C   0  0  0  0  0  0  0  0  0  0  0  0
  1  6  1  1  0  0  0
  1  2  1  0  0  0  0
  2  7  1  1  0  0  0
  3  2  1  0  0  0  0
  4  9  1  0  0  0  0
  4  3  1  0  0  0  0
  5 10  1  6  0  0  0
  5  4  1  0  0  0  0
  5  1  1  0  0  0  0
  8  4  1  0  0  0  0
 11  1  1  0  0  0  0
 11 12  1  0  0  0  0
 13  2  1  0  0  0  0
 13 18  1  0  0  0  0
 14 15  1  0  0  0  0
 14 20  1  0  0  0  0
 15 21  1  0  0  0  0
 16 15  2  0  0  0  0
 17 16  1  0  0  0  0
 18 17  2  0  0  0  0
 18 19  1  0  0  0  0
 19 14  2  0  0  0  0
 22 16  1  0  0  0  0
 23 24  1  0  0  0  0
 23  5  1  0  0  0  0
 24 25  1  0  0  0  0
 25 26  1  0  0  0  0
 25 27  2  0  0  0  0
 28 27  1  0  0  0  0
 29 28  2  0  0  0  0
 30 29  1  0  0  0  0
 31 30  2  0  0  0  0
 32 31  1  0  0  0  0
 32 33  2  0  0  0  0
 33 34  1  0  0  0  0
 34 29  1  0  0  0  0
 34 24  2  0  0  0  0
M  END
>  <minimizedAffinity>
-4.88283777

>  <minimizedRMSD>
4.07585478

$$$$
