
 OpenBabel03272508273D

 40 44  0  0  1  0  0  0  0  0999 V2000
   32.9330   28.8530   46.9880 C   0  0  2  0  0  0  0  0  0  0  0  0
   33.7060   27.8670   47.8520 C   0  0  2  0  0  0  0  0  0  0  0  0
   32.8770   27.5620   48.8890 O   0  0  0  0  0  0  0  0  0  0  0  0
   31.5780   27.7650   48.5500 C   0  0  0  0  0  0  0  0  0  0  0  0
   31.5370   28.2280   47.1080 C   0  0  1  0  0  0  0  0  0  0  0  0
   32.9100   29.8600   47.4040 H   0  0  0  0  0  0  0  0  0  0  0  0
   33.8910   26.9630   47.2610 H   0  0  0  0  0  0  0  0  0  0  0  0
   31.2120   28.6440   49.1520 H   0  0  0  0  0  0  0  0  0  0  0  0
   30.8970   26.9320   48.7460 H   0  0  0  0  0  0  0  0  0  0  0  0
   31.5110   27.3080   46.4790 H   0  0  0  0  0  0  0  0  0  0  0  0
   34.9580   29.9080   48.8400 C   0  0  1  0  0  0  0  0  0  0  0  0
   34.9490   28.5650   48.3080 C   0  0  1  0  0  0  0  0  0  0  0  0
   35.2700   28.7160   49.7580 C   0  0  0  0  0  0  0  0  0  0  0  0
   34.0880   30.4690   49.2650 H   0  0  0  0  0  0  0  0  0  0  0  0
   35.8220   28.3150   47.6390 H   0  0  0  0  0  0  0  0  0  0  0  0
   34.5320   28.3920   50.5040 H   0  0  0  0  0  0  0  0  0  0  0  0
   36.3290   28.5550   50.0720 H   0  0  0  0  0  0  0  0  0  0  0  0
   36.1700   30.8080   48.6580 C   0  0  0  0  0  0  0  0  0  0  0  0
   36.5460   31.5900   49.7530 C   0  0  0  0  0  0  0  0  0  0  0  0
   37.6440   32.4170   49.5280 C   0  0  0  0  0  0  0  0  0  0  0  0
   38.2780   32.4400   48.3330 N   0  0  0  0  0  0  0  0  0  0  0  0
   37.8750   31.6580   47.2930 C   0  0  0  0  0  0  0  0  0  0  0  0
   36.8080   30.8320   47.4580 N   0  0  0  0  0  0  0  0  0  0  0  0
   35.9990   31.5280   50.6830 H   0  0  0  0  0  0  0  0  0  0  0  0
   37.9710   33.0430   50.3510 H   0  0  0  0  0  0  0  0  0  0  0  0
   38.4100   31.7100   46.3590 H   0  0  0  0  0  0  0  0  0  0  0  0
   33.3500   28.9020   45.6770 O   0  0  0  0  0  0  0  0  0  0  0  0
   34.3060   28.6940   45.5380 H   0  0  0  0  0  0  0  0  0  0  0  0
   30.5480   29.1360   46.8390 O   0  0  0  0  0  0  0  0  0  0  0  0
   29.2320   28.8700   46.5830 C   0  0  0  0  0  0  0  0  0  0  0  0
   28.4540   27.8580   47.0970 C   0  0  0  0  0  0  0  0  0  0  0  0
   28.9510   27.1920   47.7890 H   0  0  0  0  0  0  0  0  0  0  0  0
   27.1260   27.6790   46.7710 C   0  0  0  0  0  3  0  0  0  0  0  0
   26.5370   28.5550   45.8820 C   0  0  0  0  0  3  0  0  0  0  0  0
   27.2660   29.6010   45.3250 C   0  0  0  0  0  0  0  0  0  0  0  0
   26.6650   30.4700   44.4380 C   0  0  0  0  0  3  0  0  0  0  0  0
   27.4030   31.4970   43.8980 C   0  0  0  0  0  3  0  0  0  0  0  0
   28.7280   31.6830   44.2190 C   0  0  0  0  0  3  0  0  0  0  0  0
   29.2810   30.7840   45.1120 C   0  0  0  0  0  3  0  0  0  0  0  0
   28.5890   29.7260   45.6920 C   0  0  0  0  0  0  0  0  0  0  0  0
  1  5  1  0  0  0  0
  1  6  1  1  0  0  0
  1  2  1  0  0  0  0
  2  7  1  6  0  0  0
  2 12  1  0  0  0  0
  2  3  1  0  0  0  0
  4  9  1  0  0  0  0
  4  3  1  0  0  0  0
  4  8  1  0  0  0  0
  5 10  1  6  0  0  0
  5  4  1  0  0  0  0
 11 14  1  1  0  0  0
 11 13  1  0  0  0  0
 12 15  1  6  0  0  0
 12 11  1  0  0  0  0
 12 13  1  0  0  0  0
 13 17  1  0  0  0  0
 13 16  1  0  0  0  0
 18 11  1  0  0  0  0
 18 19  1  0  0  0  0
 19 24  1  0  0  0  0
 20 19  2  0  0  0  0
 20 25  1  0  0  0  0
 21 20  1  0  0  0  0
 22 23  1  0  0  0  0
 22 21  2  0  0  0  0
 23 18  2  0  0  0  0
 26 22  1  0  0  0  0
 27  1  1  0  0  0  0
 28 27  1  0  0  0  0
 29  5  1  0  0  0  0
 30 29  1  0  0  0  0
 30 31  1  0  0  0  0
 31 32  1  0  0  0  0
 33 31  2  0  0  0  0
 34 33  1  0  0  0  0
 35 40  1  0  0  0  0
 35 34  2  0  0  0  0
 36 35  1  0  0  0  0
 37 38  1  0  0  0  0
 37 36  2  0  0  0  0
 38 39  2  0  0  0  0
 39 40  1  0  0  0  0
 40 30  2  0  0  0  0
M  END
>  <minimizedAffinity>
-5.87036133

>  <minimizedRMSD>
1.56695712

$$$$
