
 OpenBabel03272501593D

 33 36  0  0  0  0  0  0  0  0999 V2000
   37.4170   24.3410   32.3970 C   0  0  0  0  0  0  0  0  0  0  0  0
   37.7150   25.6240   32.8280 C   0  0  0  0  0  0  0  0  0  0  0  0
   38.1400   25.5800   34.1490 C   0  0  0  0  0  0  0  0  0  0  0  0
   38.0870   24.2600   34.4850 N   0  0  0  0  0  0  0  0  0  0  0  0
   37.6610   23.5480   33.4440 N   0  0  0  0  0  0  0  0  0  0  0  0
   37.6120   26.4890   32.1860 H   0  0  0  0  0  0  0  0  0  0  0  0
   38.4330   26.4480   34.7230 H   0  0  0  0  0  0  0  0  0  0  0  0
   38.4750   23.9000   35.8080 C   0  0  0  0  0  0  0  0  0  0  0  0
   37.7200   24.3500   36.8900 C   0  0  0  0  0  0  0  0  0  0  0  0
   36.8470   24.9690   36.7330 H   0  0  0  0  0  0  0  0  0  0  0  0
   38.0150   24.0540   38.1990 C   0  0  0  0  0  3  0  0  0  0  0  0
   39.1160   23.2680   38.4840 C   0  0  0  0  0  3  0  0  0  0  0  0
   39.8880   22.8030   37.4320 C   0  0  0  0  0  0  0  0  0  0  0  0
   40.9970   22.0130   37.6880 C   0  0  0  0  0  3  0  0  0  0  0  0
   41.8020   21.5210   36.6850 C   0  0  0  0  0  3  0  0  0  0  0  0
   41.4390   21.8620   35.3930 C   0  0  0  0  0  3  0  0  0  0  0  0
   40.3390   22.6480   35.1160 C   0  0  0  0  0  3  0  0  0  0  0  0
   39.5550   23.1230   36.1350 C   0  0  0  0  0  0  0  0  0  0  0  0
   36.9280   23.9310   31.0500 C   0  0  0  0  0  0  0  0  0  0  0  0
   36.8010   24.8210   30.3890 H   0  0  0  0  0  0  0  0  0  0  0  0
   37.6270   23.2140   30.6100 H   0  0  0  0  0  0  0  0  0  0  0  0
   35.5670   23.3140   31.2780 C   0  0  0  0  0  0  0  0  0  0  0  0
   35.1100   23.6710   32.2400 H   0  0  0  0  0  0  0  0  0  0  0  0
   34.8960   23.5430   30.4150 H   0  0  0  0  0  0  0  0  0  0  0  0
   36.8100   19.8850   30.6650 C   0  0  0  0  0  0  0  0  0  0  0  0
   35.9340   19.0950   31.4340 C   0  0  0  0  0  0  0  0  0  0  0  0
   34.9200   19.7690   32.1570 C   0  0  0  0  0  0  0  0  0  0  0  0
   34.8410   21.1180   32.0770 N   0  0  0  0  0  0  0  0  0  0  0  0
   35.7100   21.8300   31.3220 C   0  0  0  0  0  0  0  0  0  0  0  0
   36.6610   21.2020   30.6430 N   0  0  0  0  0  0  0  0  0  0  0  0
   37.5870   19.3510   30.1120 H   0  0  0  0  0  0  0  0  0  0  0  0
   35.9940   18.0170   31.5000 H   0  0  0  0  0  0  0  0  0  0  0  0
   34.2080   19.2130   32.7740 H   0  0  0  0  0  0  0  0  0  0  0  0
  1  2  1  0  0  0  0
  1  5  2  0  0  0  0
  2  3  2  0  0  0  0
  3  4  1  0  0  0  0
  3  7  1  0  0  0  0
  4  8  1  0  0  0  0
  5  4  1  0  0  0  0
  6  2  1  0  0  0  0
  8 18  2  0  0  0  0
  8  9  1  0  0  0  0
  9 11  2  0  0  0  0
 10  9  1  0  0  0  0
 11 12  1  0  0  0  0
 13 14  1  0  0  0  0
 13 12  2  0  0  0  0
 15 14  2  0  0  0  0
 16 15  1  0  0  0  0
 17 16  2  0  0  0  0
 17 18  1  0  0  0  0
 18 13  1  0  0  0  0
 19 22  1  0  0  0  0
 19  1  1  0  0  0  0
 20 19  1  0  0  0  0
 21 19  1  0  0  0  0
 22 29  1  0  0  0  0
 22 23  1  0  0  0  0
 24 22  1  0  0  0  0
 25 26  1  0  0  0  0
 26 32  1  0  0  0  0
 26 27  2  0  0  0  0
 27 33  1  0  0  0  0
 28 27  1  0  0  0  0
 29 28  2  0  0  0  0
 30 25  2  0  0  0  0
 30 29  1  0  0  0  0
 31 25  1  0  0  0  0
M  END
>  <minimizedAffinity>
-6.02940273

$$$$

 OpenBabel03272501593D

 33 36  0  0  0  0  0  0  0  0999 V2000
   38.1790   25.8980   32.6980 C   0  0  0  0  0  0  0  0  0  0  0  0
   38.9930   26.8360   33.3120 C   0  0  0  0  0  0  0  0  0  0  0  0
   39.3110   26.4030   34.5930 C   0  0  0  0  0  0  0  0  0  0  0  0
   38.6750   25.2040   34.7190 N   0  0  0  0  0  0  0  0  0  0  0  0
   38.0160   24.9240   33.5970 N   0  0  0  0  0  0  0  0  0  0  0  0
   39.3010   27.7490   32.8170 H   0  0  0  0  0  0  0  0  0  0  0  0
   39.9350   26.9530   35.2830 H   0  0  0  0  0  0  0  0  0  0  0  0
   38.8200   24.5070   35.9530 C   0  0  0  0  0  0  0  0  0  0  0  0
   37.9500   24.7870   37.0060 C   0  0  0  0  0  0  0  0  0  0  0  0
   37.1700   25.5280   36.8930 H   0  0  0  0  0  0  0  0  0  0  0  0
   38.0130   24.1680   38.2310 C   0  0  0  0  0  3  0  0  0  0  0  0
   38.9830   23.2090   38.4560 C   0  0  0  0  0  3  0  0  0  0  0  0
   39.8650   22.9050   37.4300 C   0  0  0  0  0  0  0  0  0  0  0  0
   40.8470   21.9490   37.6270 C   0  0  0  0  0  3  0  0  0  0  0  0
   41.7500   21.6040   36.6470 C   0  0  0  0  0  3  0  0  0  0  0  0
   41.6230   22.2730   35.4410 C   0  0  0  0  0  3  0  0  0  0  0  0
   40.6520   23.2290   35.2240 C   0  0  0  0  0  3  0  0  0  0  0  0
   39.7650   23.5510   36.2180 C   0  0  0  0  0  0  0  0  0  0  0  0
   37.6060   25.9620   31.3230 C   0  0  0  0  0  0  0  0  0  0  0  0
   38.0860   26.7780   30.7330 H   0  0  0  0  0  0  0  0  0  0  0  0
   37.7350   24.9940   30.8280 H   0  0  0  0  0  0  0  0  0  0  0  0
   36.1450   26.3040   31.5030 C   0  0  0  0  0  0  0  0  0  0  0  0
   35.5050   25.7880   30.7370 H   0  0  0  0  0  0  0  0  0  0  0  0
   35.8150   26.0370   32.5350 H   0  0  0  0  0  0  0  0  0  0  0  0
   36.4830   29.7860   30.3030 C   0  0  0  0  0  0  0  0  0  0  0  0
   35.6290   30.4970   31.1680 C   0  0  0  0  0  0  0  0  0  0  0  0
   34.9460   29.7520   32.1600 C   0  0  0  0  0  0  0  0  0  0  0  0
   35.1420   28.4140   32.2290 N   0  0  0  0  0  0  0  0  0  0  0  0
   35.9740   27.7800   31.3710 C   0  0  0  0  0  0  0  0  0  0  0  0
   36.6160   28.4750   30.4400 N   0  0  0  0  0  0  0  0  0  0  0  0
   37.0030   30.3740   29.5420 H   0  0  0  0  0  0  0  0  0  0  0  0
   35.4700   31.5660   31.1150 H   0  0  0  0  0  0  0  0  0  0  0  0
   34.2690   30.2460   32.8630 H   0  0  0  0  0  0  0  0  0  0  0  0
  1  2  1  0  0  0  0
  1  5  2  0  0  0  0
  2  3  2  0  0  0  0
  3  4  1  0  0  0  0
  3  7  1  0  0  0  0
  4  8  1  0  0  0  0
  5  4  1  0  0  0  0
  6  2  1  0  0  0  0
  8 18  2  0  0  0  0
  8  9  1  0  0  0  0
  9 11  2  0  0  0  0
 10  9  1  0  0  0  0
 11 12  1  0  0  0  0
 13 14  1  0  0  0  0
 13 12  2  0  0  0  0
 15 14  2  0  0  0  0
 16 15  1  0  0  0  0
 17 16  2  0  0  0  0
 17 18  1  0  0  0  0
 18 13  1  0  0  0  0
 19 22  1  0  0  0  0
 19  1  1  0  0  0  0
 20 19  1  0  0  0  0
 21 19  1  0  0  0  0
 22 24  1  0  0  0  0
 23 22  1  0  0  0  0
 25 30  2  0  0  0  0
 25 26  1  0  0  0  0
 26 27  2  0  0  0  0
 27 28  1  0  0  0  0
 27 33  1  0  0  0  0
 29 22  1  0  0  0  0
 29 28  2  0  0  0  0
 30 29  1  0  0  0  0
 31 25  1  0  0  0  0
 32 26  1  0  0  0  0
M  END
>  <minimizedAffinity>
-5.81830454

$$$$

 OpenBabel03272501593D

 33 36  0  0  0  0  0  0  0  0999 V2000
   37.3780   24.6750   32.7050 C   0  0  0  0  0  0  0  0  0  0  0  0
   36.2710   24.5190   31.8860 C   0  0  0  0  0  0  0  0  0  0  0  0
   35.9230   25.7500   31.3430 C   0  0  0  0  0  0  0  0  0  0  0  0
   36.8370   26.6230   31.8530 N   0  0  0  0  0  0  0  0  0  0  0  0
   37.6830   25.9740   32.6490 N   0  0  0  0  0  0  0  0  0  0  0  0
   35.7940   23.5600   31.7330 H   0  0  0  0  0  0  0  0  0  0  0  0
   35.0920   25.9030   30.6690 H   0  0  0  0  0  0  0  0  0  0  0  0
   36.7300   27.9900   31.4640 C   0  0  0  0  0  0  0  0  0  0  0  0
   37.0790   28.3640   30.1670 C   0  0  0  0  0  0  0  0  0  0  0  0
   37.4300   27.6260   29.4580 H   0  0  0  0  0  0  0  0  0  0  0  0
   37.0090   29.6550   29.7030 C   0  0  0  0  0  3  0  0  0  0  0  0
   36.5710   30.6560   30.5490 C   0  0  0  0  0  3  0  0  0  0  0  0
   36.2150   30.3190   31.8450 C   0  0  0  0  0  0  0  0  0  0  0  0
   35.7720   31.3030   32.7150 C   0  0  0  0  0  3  0  0  0  0  0  0
   35.4050   31.0300   34.0130 C   0  0  0  0  0  3  0  0  0  0  0  0
   35.5030   29.7050   34.4070 C   0  0  0  0  0  3  0  0  0  0  0  0
   35.9420   28.7110   33.5560 C   0  0  0  0  0  3  0  0  0  0  0  0
   36.3000   29.0120   32.2690 C   0  0  0  0  0  0  0  0  0  0  0  0
   38.0820   23.6160   33.4840 C   0  0  0  0  0  0  0  0  0  0  0  0
   37.3840   23.1280   34.2040 H   0  0  0  0  0  0  0  0  0  0  0  0
   38.5110   22.8810   32.7970 H   0  0  0  0  0  0  0  0  0  0  0  0
   39.1530   24.3320   34.2750 C   0  0  0  0  0  0  0  0  0  0  0  0
   40.1810   24.0340   33.9350 H   0  0  0  0  0  0  0  0  0  0  0  0
   39.0150   25.4370   34.1890 H   0  0  0  0  0  0  0  0  0  0  0  0
   37.8310   24.1970   37.7250 C   0  0  0  0  0  0  0  0  0  0  0  0
   38.7450   23.3470   38.3760 C   0  0  0  0  0  0  0  0  0  0  0  0
   39.8130   22.8310   37.6010 C   0  0  0  0  0  0  0  0  0  0  0  0
   39.9030   23.1730   36.2940 N   0  0  0  0  0  0  0  0  0  0  0  0
   38.9950   23.9950   35.7180 C   0  0  0  0  0  0  0  0  0  0  0  0
   37.9940   24.4800   36.4410 N   0  0  0  0  0  0  0  0  0  0  0  0
   37.0120   24.5880   38.3360 H   0  0  0  0  0  0  0  0  0  0  0  0
   38.6760   23.0710   39.4200 H   0  0  0  0  0  0  0  0  0  0  0  0
   40.5570   22.1640   38.0470 H   0  0  0  0  0  0  0  0  0  0  0  0
  1 19  1  0  0  0  0
  2  1  1  0  0  0  0
  3  4  1  0  0  0  0
  3  2  2  0  0  0  0
  4  5  1  0  0  0  0
  5  1  2  0  0  0  0
  6  2  1  0  0  0  0
  7  3  1  0  0  0  0
  8  4  1  0  0  0  0
  8 18  1  0  0  0  0
  9  8  2  0  0  0  0
 10  9  1  0  0  0  0
 11  9  1  0  0  0  0
 11 12  2  0  0  0  0
 12 13  1  0  0  0  0
 13 18  2  0  0  0  0
 13 14  1  0  0  0  0
 14 15  2  0  0  0  0
 15 16  1  0  0  0  0
 17 16  2  0  0  0  0
 18 17  1  0  0  0  0
 19 20  1  0  0  0  0
 19 22  1  0  0  0  0
 21 19  1  0  0  0  0
 22 29  1  0  0  0  0
 23 22  1  0  0  0  0
 24 22  1  0  0  0  0
 25 31  1  0  0  0  0
 25 26  1  0  0  0  0
 26 32  1  0  0  0  0
 27 33  1  0  0  0  0
 27 26  2  0  0  0  0
 28 27  1  0  0  0  0
 29 28  2  0  0  0  0
 29 30  1  0  0  0  0
 30 25  2  0  0  0  0
M  END
>  <minimizedAffinity>
-5.74573088

$$$$

 OpenBabel03272501593D

 33 36  0  0  0  0  0  0  0  0999 V2000
   36.5880   27.9270   33.1240 C   0  0  0  0  0  0  0  0  0  0  0  0
   36.2340   28.8890   32.1920 C   0  0  0  0  0  0  0  0  0  0  0  0
   35.6430   29.9650   32.8430 C   0  0  0  0  0  0  0  0  0  0  0  0
   35.6570   29.6200   34.1610 N   0  0  0  0  0  0  0  0  0  0  0  0
   36.2150   28.4210   34.3070 N   0  0  0  0  0  0  0  0  0  0  0  0
   36.4160   28.7640   31.1330 H   0  0  0  0  0  0  0  0  0  0  0  0
   35.2770   30.8510   32.3430 H   0  0  0  0  0  0  0  0  0  0  0  0
   35.1050   30.5490   35.0910 C   0  0  0  0  0  0  0  0  0  0  0  0
   35.8930   31.5990   35.5610 C   0  0  0  0  0  0  0  0  0  0  0  0
   36.9160   31.7110   35.2280 H   0  0  0  0  0  0  0  0  0  0  0  0
   35.4500   32.5420   36.4560 C   0  0  0  0  0  3  0  0  0  0  0  0
   34.1530   32.4670   36.9310 C   0  0  0  0  0  3  0  0  0  0  0  0
   33.3420   31.4370   36.4840 C   0  0  0  0  0  0  0  0  0  0  0  0
   32.0380   31.3380   36.9430 C   0  0  0  0  0  3  0  0  0  0  0  0
   31.1850   30.3380   36.5340 C   0  0  0  0  0  3  0  0  0  0  0  0
   31.7060   29.4260   35.6310 C   0  0  0  0  0  3  0  0  0  0  0  0
   33.0010   29.5070   35.1620 C   0  0  0  0  0  3  0  0  0  0  0  0
   33.8280   30.5140   35.5850 C   0  0  0  0  0  0  0  0  0  0  0  0
   37.2460   26.6150   32.8620 C   0  0  0  0  0  0  0  0  0  0  0  0
   36.5490   25.7730   33.0840 H   0  0  0  0  0  0  0  0  0  0  0  0
   37.5860   26.5770   31.8230 H   0  0  0  0  0  0  0  0  0  0  0  0
   38.4050   26.5370   33.8300 C   0  0  0  0  0  0  0  0  0  0  0  0
   39.3870   26.4630   33.2890 H   0  0  0  0  0  0  0  0  0  0  0  0
   38.3960   27.4240   34.5070 H   0  0  0  0  0  0  0  0  0  0  0  0
   38.1180   23.0250   34.9530 C   0  0  0  0  0  0  0  0  0  0  0  0
   37.9020   23.1590   36.3380 C   0  0  0  0  0  0  0  0  0  0  0  0
   37.8600   24.4730   36.8630 C   0  0  0  0  0  0  0  0  0  0  0  0
   38.0260   25.5220   36.0240 N   0  0  0  0  0  0  0  0  0  0  0  0
   38.2310   25.3380   34.6990 C   0  0  0  0  0  0  0  0  0  0  0  0
   38.2710   24.1070   34.2030 N   0  0  0  0  0  0  0  0  0  0  0  0
   38.1480   22.0050   34.5620 H   0  0  0  0  0  0  0  0  0  0  0  0
   37.7700   22.3230   37.0120 H   0  0  0  0  0  0  0  0  0  0  0  0
   37.6960   24.6450   37.9310 H   0  0  0  0  0  0  0  0  0  0  0  0
  1  5  2  0  0  0  0
  2  3  2  0  0  0  0
  2  1  1  0  0  0  0
  3  4  1  0  0  0  0
  4  5  1  0  0  0  0
  4  8  1  0  0  0  0
  6  2  1  0  0  0  0
  7  3  1  0  0  0  0
  8  9  2  0  0  0  0
  8 18  1  0  0  0  0
  9 11  1  0  0  0  0
 10  9  1  0  0  0  0
 11 12  2  0  0  0  0
 13 12  1  0  0  0  0
 13 14  1  0  0  0  0
 15 14  2  0  0  0  0
 16 15  1  0  0  0  0
 17 18  1  0  0  0  0
 17 16  2  0  0  0  0
 18 13  2  0  0  0  0
 19 20  1  0  0  0  0
 19  1  1  0  0  0  0
 19 22  1  0  0  0  0
 21 19  1  0  0  0  0
 22 24  1  0  0  0  0
 22 29  1  0  0  0  0
 23 22  1  0  0  0  0
 25 26  1  0  0  0  0
 26 27  2  0  0  0  0
 26 32  1  0  0  0  0
 27 33  1  0  0  0  0
 28 27  1  0  0  0  0
 29 28  2  0  0  0  0
 30 29  1  0  0  0  0
 30 25  2  0  0  0  0
 31 25  1  0  0  0  0
M  END
>  <minimizedAffinity>
-5.74309349

$$$$

 OpenBabel03272501593D

 33 36  0  0  0  0  0  0  0  0999 V2000
   38.3750   26.2760   32.8820 C   0  0  0  0  0  0  0  0  0  0  0  0
   39.2750   27.1010   33.5380 C   0  0  0  0  0  0  0  0  0  0  0  0
   39.5690   26.5630   34.7850 C   0  0  0  0  0  0  0  0  0  0  0  0
   38.8320   25.4180   34.8490 N   0  0  0  0  0  0  0  0  0  0  0  0
   38.1380   25.2660   33.7230 N   0  0  0  0  0  0  0  0  0  0  0  0
   39.6550   28.0110   33.0940 H   0  0  0  0  0  0  0  0  0  0  0  0
   40.2460   27.0140   35.4970 H   0  0  0  0  0  0  0  0  0  0  0  0
   38.9310   24.6370   36.0360 C   0  0  0  0  0  0  0  0  0  0  0  0
   38.0390   24.8640   37.0840 C   0  0  0  0  0  0  0  0  0  0  0  0
   37.2770   25.6280   37.0020 H   0  0  0  0  0  0  0  0  0  0  0  0
   38.0570   24.1620   38.2640 C   0  0  0  0  0  3  0  0  0  0  0  0
   39.0010   23.1690   38.4480 C   0  0  0  0  0  3  0  0  0  0  0  0
   39.9030   22.9160   37.4260 C   0  0  0  0  0  0  0  0  0  0  0  0
   40.8600   21.9260   37.5820 C   0  0  0  0  0  3  0  0  0  0  0  0
   41.7810   21.6290   36.6040 C   0  0  0  0  0  3  0  0  0  0  0  0
   41.6990   22.3800   35.4430 C   0  0  0  0  0  3  0  0  0  0  0  0
   40.7540   23.3700   35.2680 C   0  0  0  0  0  3  0  0  0  0  0  0
   39.8490   23.6440   36.2590 C   0  0  0  0  0  0  0  0  0  0  0  0
   37.7940   26.4730   31.5240 C   0  0  0  0  0  0  0  0  0  0  0  0
   36.6900   26.3160   31.5410 H   0  0  0  0  0  0  0  0  0  0  0  0
   38.0400   27.4760   31.1620 H   0  0  0  0  0  0  0  0  0  0  0  0
   38.4100   25.4010   30.6540 C   0  0  0  0  0  0  0  0  0  0  0  0
   38.4090   25.7010   29.5720 H   0  0  0  0  0  0  0  0  0  0  0  0
   39.4480   25.1790   31.0000 H   0  0  0  0  0  0  0  0  0  0  0  0
   37.5530   21.8170   30.9610 C   0  0  0  0  0  0  0  0  0  0  0  0
   36.1540   21.8430   31.1140 C   0  0  0  0  0  0  0  0  0  0  0  0
   35.5270   23.1130   31.1080 C   0  0  0  0  0  0  0  0  0  0  0  0
   36.2870   24.2220   30.9580 N   0  0  0  0  0  0  0  0  0  0  0  0
   37.6310   24.1400   30.8150 C   0  0  0  0  0  0  0  0  0  0  0  0
   38.2220   22.9520   30.8200 N   0  0  0  0  0  0  0  0  0  0  0  0
   38.0230   20.8300   30.9680 H   0  0  0  0  0  0  0  0  0  0  0  0
   35.5420   20.9590   31.2350 H   0  0  0  0  0  0  0  0  0  0  0  0
   34.4420   23.2020   31.2230 H   0  0  0  0  0  0  0  0  0  0  0  0
  1  2  1  0  0  0  0
  1  5  2  0  0  0  0
  2  3  2  0  0  0  0
  3  4  1  0  0  0  0
  3  7  1  0  0  0  0
  4  8  1  0  0  0  0
  5  4  1  0  0  0  0
  6  2  1  0  0  0  0
  8 18  2  0  0  0  0
  8  9  1  0  0  0  0
  9 11  2  0  0  0  0
 10  9  1  0  0  0  0
 11 12  1  0  0  0  0
 13 14  1  0  0  0  0
 13 12  2  0  0  0  0
 15 14  2  0  0  0  0
 16 15  1  0  0  0  0
 17 16  2  0  0  0  0
 17 18  1  0  0  0  0
 18 13  1  0  0  0  0
 19 20  1  0  0  0  0
 19  1  1  0  0  0  0
 21 19  1  0  0  0  0
 22 29  1  0  0  0  0
 22 24  1  0  0  0  0
 22 19  1  0  0  0  0
 23 22  1  0  0  0  0
 25 31  1  0  0  0  0
 25 26  1  0  0  0  0
 26 32  1  0  0  0  0
 27 26  2  0  0  0  0
 27 33  1  0  0  0  0
 28 27  1  0  0  0  0
 29 30  1  0  0  0  0
 29 28  2  0  0  0  0
 30 25  2  0  0  0  0
M  END
>  <minimizedAffinity>
-5.70697498

$$$$

 OpenBabel03272501593D

 33 36  0  0  0  0  0  0  0  0999 V2000
   36.3410   28.4000   32.7910 C   0  0  0  0  0  0  0  0  0  0  0  0
   35.5400   29.1110   31.9130 C   0  0  0  0  0  0  0  0  0  0  0  0
   34.5290   29.7470   32.6230 C   0  0  0  0  0  0  0  0  0  0  0  0
   34.7490   29.3990   33.9230 N   0  0  0  0  0  0  0  0  0  0  0  0
   35.8170   28.6080   34.0020 N   0  0  0  0  0  0  0  0  0  0  0  0
   35.7240   29.1300   30.8470 H   0  0  0  0  0  0  0  0  0  0  0  0
   33.7680   30.3680   32.1730 H   0  0  0  0  0  0  0  0  0  0  0  0
   33.8530   29.9130   34.9040 C   0  0  0  0  0  0  0  0  0  0  0  0
   32.6410   29.2630   35.1340 C   0  0  0  0  0  0  0  0  0  0  0  0
   32.3780   28.3760   34.5740 H   0  0  0  0  0  0  0  0  0  0  0  0
   31.7160   29.6830   36.0580 C   0  0  0  0  0  3  0  0  0  0  0  0
   31.9770   30.8110   36.8140 C   0  0  0  0  0  3  0  0  0  0  0  0
   33.1730   31.4810   36.6120 C   0  0  0  0  0  0  0  0  0  0  0  0
   33.4620   32.6140   37.3550 C   0  0  0  0  0  3  0  0  0  0  0  0
   34.6320   33.3220   37.1990 C   0  0  0  0  0  3  0  0  0  0  0  0
   35.5150   32.8350   36.2490 C   0  0  0  0  0  3  0  0  0  0  0  0
   35.2460   31.7090   35.4980 C   0  0  0  0  0  3  0  0  0  0  0  0
   34.0730   31.0250   35.6750 C   0  0  0  0  0  0  0  0  0  0  0  0
   37.5370   27.5740   32.4570 C   0  0  0  0  0  0  0  0  0  0  0  0
   37.4540   27.1610   31.4240 H   0  0  0  0  0  0  0  0  0  0  0  0
   38.4410   28.1810   32.5630 H   0  0  0  0  0  0  0  0  0  0  0  0
   37.5230   26.4180   33.4300 C   0  0  0  0  0  0  0  0  0  0  0  0
   38.5380   26.2490   33.8800 H   0  0  0  0  0  0  0  0  0  0  0  0
   36.7650   26.6020   34.2290 H   0  0  0  0  0  0  0  0  0  0  0  0
   37.3190   22.9050   32.2950 C   0  0  0  0  0  0  0  0  0  0  0  0
   36.2640   22.9400   31.3630 C   0  0  0  0  0  0  0  0  0  0  0  0
   35.6370   24.1910   31.1430 C   0  0  0  0  0  0  0  0  0  0  0  0
   36.0730   25.2750   31.8260 N   0  0  0  0  0  0  0  0  0  0  0  0
   37.0920   25.1850   32.7110 C   0  0  0  0  0  0  0  0  0  0  0  0
   37.6820   24.0150   32.9210 N   0  0  0  0  0  0  0  0  0  0  0  0
   37.7930   21.9330   32.4550 H   0  0  0  0  0  0  0  0  0  0  0  0
   35.9120   22.0760   30.8150 H   0  0  0  0  0  0  0  0  0  0  0  0
   34.8110   24.2850   30.4310 H   0  0  0  0  0  0  0  0  0  0  0  0
  1  5  2  0  0  0  0
  2  3  2  0  0  0  0
  2  1  1  0  0  0  0
  3  4  1  0  0  0  0
  4  5  1  0  0  0  0
  4  8  1  0  0  0  0
  6  2  1  0  0  0  0
  7  3  1  0  0  0  0
  8  9  2  0  0  0  0
  8 18  1  0  0  0  0
  9 11  1  0  0  0  0
 10  9  1  0  0  0  0
 11 12  2  0  0  0  0
 13 12  1  0  0  0  0
 13 14  1  0  0  0  0
 15 14  2  0  0  0  0
 16 15  1  0  0  0  0
 17 18  1  0  0  0  0
 17 16  2  0  0  0  0
 18 13  2  0  0  0  0
 19 21  1  0  0  0  0
 19  1  1  0  0  0  0
 19 22  1  0  0  0  0
 20 19  1  0  0  0  0
 22 23  1  0  0  0  0
 22 24  1  0  0  0  0
 25 31  1  0  0  0  0
 25 30  1  0  0  0  0
 26 25  2  0  0  0  0
 27 26  1  0  0  0  0
 27 28  2  0  0  0  0
 28 29  1  0  0  0  0
 29 30  2  0  0  0  0
 29 22  1  0  0  0  0
 32 26  1  0  0  0  0
 33 27  1  0  0  0  0
M  END
>  <minimizedAffinity>
-5.70426702

$$$$

 OpenBabel03272501593D

 33 36  0  0  0  0  0  0  0  0999 V2000
   36.4770   28.5980   32.4300 C   0  0  0  0  0  0  0  0  0  0  0  0
   36.2140   29.7930   31.7800 C   0  0  0  0  0  0  0  0  0  0  0  0
   35.5950   30.6700   32.6610 C   0  0  0  0  0  0  0  0  0  0  0  0
   35.4990   29.9750   33.8300 N   0  0  0  0  0  0  0  0  0  0  0  0
   36.0230   28.7610   33.6750 N   0  0  0  0  0  0  0  0  0  0  0  0
   36.4750   29.9590   30.7430 H   0  0  0  0  0  0  0  0  0  0  0  0
   35.2830   31.6720   32.4030 H   0  0  0  0  0  0  0  0  0  0  0  0
   34.8950   30.6310   34.9400 C   0  0  0  0  0  0  0  0  0  0  0  0
   35.6450   31.5300   35.6980 C   0  0  0  0  0  0  0  0  0  0  0  0
   36.6780   31.7300   35.4490 H   0  0  0  0  0  0  0  0  0  0  0  0
   35.1490   32.2100   36.7830 C   0  0  0  0  0  3  0  0  0  0  0  0
   33.8350   32.0090   37.1660 C   0  0  0  0  0  3  0  0  0  0  0  0
   33.0610   31.1230   36.4340 C   0  0  0  0  0  0  0  0  0  0  0  0
   31.7410   30.9020   36.7950 C   0  0  0  0  0  3  0  0  0  0  0  0
   30.9230   30.0350   36.1070 C   0  0  0  0  0  3  0  0  0  0  0  0
   31.4950   29.3880   35.0250 C   0  0  0  0  0  3  0  0  0  0  0  0
   32.8080   29.5930   34.6500 C   0  0  0  0  0  3  0  0  0  0  0  0
   33.5980   30.4630   35.3530 C   0  0  0  0  0  0  0  0  0  0  0  0
   37.1310   27.3850   31.8600 C   0  0  0  0  0  0  0  0  0  0  0  0
   37.8250   27.6630   31.0330 H   0  0  0  0  0  0  0  0  0  0  0  0
   37.6620   26.8490   32.6520 H   0  0  0  0  0  0  0  0  0  0  0  0
   36.0120   26.5510   31.2770 C   0  0  0  0  0  0  0  0  0  0  0  0
   35.0120   26.8750   31.6720 H   0  0  0  0  0  0  0  0  0  0  0  0
   36.0330   26.6120   30.1620 H   0  0  0  0  0  0  0  0  0  0  0  0
   37.4980   23.4790   32.7010 C   0  0  0  0  0  0  0  0  0  0  0  0
   36.6230   22.4730   32.2510 C   0  0  0  0  0  0  0  0  0  0  0  0
   35.5240   22.8800   31.4560 C   0  0  0  0  0  0  0  0  0  0  0  0
   35.3690   24.1930   31.1700 N   0  0  0  0  0  0  0  0  0  0  0  0
   36.2410   25.1210   31.6290 C   0  0  0  0  0  0  0  0  0  0  0  0
   37.2720   24.7440   32.3750 N   0  0  0  0  0  0  0  0  0  0  0  0
   38.3420   23.1510   33.3140 H   0  0  0  0  0  0  0  0  0  0  0  0
   36.7430   21.4220   32.4780 H   0  0  0  0  0  0  0  0  0  0  0  0
   34.8070   22.1460   31.0750 H   0  0  0  0  0  0  0  0  0  0  0  0
  1  5  2  0  0  0  0
  2  1  1  0  0  0  0
  2  3  2  0  0  0  0
  3  4  1  0  0  0  0
  4  8  1  0  0  0  0
  5  4  1  0  0  0  0
  6  2  1  0  0  0  0
  7  3  1  0  0  0  0
  8 18  2  0  0  0  0
  8  9  1  0  0  0  0
  9 11  2  0  0  0  0
 10  9  1  0  0  0  0
 11 12  1  0  0  0  0
 13 14  1  0  0  0  0
 13 12  2  0  0  0  0
 15 14  2  0  0  0  0
 16 15  1  0  0  0  0
 17 16  2  0  0  0  0
 17 18  1  0  0  0  0
 18 13  1  0  0  0  0
 19  1  1  0  0  0  0
 19 21  1  0  0  0  0
 20 19  1  0  0  0  0
 22 29  1  0  0  0  0
 22 23  1  0  0  0  0
 22 19  1  0  0  0  0
 24 22  1  0  0  0  0
 25 31  1  0  0  0  0
 26 32  1  0  0  0  0
 26 25  2  0  0  0  0
 27 26  1  0  0  0  0
 28 27  2  0  0  0  0
 28 29  1  0  0  0  0
 29 30  2  0  0  0  0
 30 25  1  0  0  0  0
 33 27  1  0  0  0  0
M  END
>  <minimizedAffinity>
-5.70357847

$$$$

 OpenBabel03272501593D

 33 36  0  0  0  0  0  0  0  0999 V2000
   36.6820   28.0750   33.3960 C   0  0  0  0  0  0  0  0  0  0  0  0
   36.0030   28.6210   32.3190 C   0  0  0  0  0  0  0  0  0  0  0  0
   34.8950   29.3210   32.7810 C   0  0  0  0  0  0  0  0  0  0  0  0
   34.9360   29.1760   34.1350 N   0  0  0  0  0  0  0  0  0  0  0  0
   35.9920   28.4430   34.4780 N   0  0  0  0  0  0  0  0  0  0  0  0
   36.3340   28.4890   31.2970 H   0  0  0  0  0  0  0  0  0  0  0  0
   34.1960   29.8430   32.1420 H   0  0  0  0  0  0  0  0  0  0  0  0
   33.9040   29.8000   34.8960 C   0  0  0  0  0  0  0  0  0  0  0  0
   32.6220   29.2510   34.8920 C   0  0  0  0  0  0  0  0  0  0  0  0
   32.4060   28.3610   34.3170 H   0  0  0  0  0  0  0  0  0  0  0  0
   31.5660   29.7810   35.5940 C   0  0  0  0  0  3  0  0  0  0  0  0
   31.7600   30.9200   36.3530 C   0  0  0  0  0  3  0  0  0  0  0  0
   33.0230   31.4900   36.3800 C   0  0  0  0  0  0  0  0  0  0  0  0
   33.2460   32.6320   37.1330 C   0  0  0  0  0  3  0  0  0  0  0  0
   34.4780   33.2440   37.1990 C   0  0  0  0  0  3  0  0  0  0  0  0
   35.4910   32.6510   36.4650 C   0  0  0  0  0  3  0  0  0  0  0  0
   35.2890   31.5140   35.7090 C   0  0  0  0  0  3  0  0  0  0  0  0
   34.0530   30.9260   35.6620 C   0  0  0  0  0  0  0  0  0  0  0  0
   37.9240   27.2500   33.3560 C   0  0  0  0  0  0  0  0  0  0  0  0
   37.7020   26.2230   32.9820 H   0  0  0  0  0  0  0  0  0  0  0  0
   38.6700   27.7420   32.7250 H   0  0  0  0  0  0  0  0  0  0  0  0
   38.3910   27.1410   34.7900 C   0  0  0  0  0  0  0  0  0  0  0  0
   39.4570   27.4740   34.9000 H   0  0  0  0  0  0  0  0  0  0  0  0
   37.7210   27.7380   35.4540 H   0  0  0  0  0  0  0  0  0  0  0  0
   37.9970   24.1490   36.9270 C   0  0  0  0  0  0  0  0  0  0  0  0
   38.0550   23.0930   35.9970 C   0  0  0  0  0  0  0  0  0  0  0  0
   38.2300   23.4390   34.6350 C   0  0  0  0  0  0  0  0  0  0  0  0
   38.3330   24.7450   34.2960 N   0  0  0  0  0  0  0  0  0  0  0  0
   38.2700   25.7220   35.2310 C   0  0  0  0  0  0  0  0  0  0  0  0
   38.1060   25.4020   36.5080 N   0  0  0  0  0  0  0  0  0  0  0  0
   37.8620   23.8660   37.9740 H   0  0  0  0  0  0  0  0  0  0  0  0
   37.9730   22.0480   36.2640 H   0  0  0  0  0  0  0  0  0  0  0  0
   38.2820   22.6650   33.8630 H   0  0  0  0  0  0  0  0  0  0  0  0
  1  5  2  0  0  0  0
  2  3  2  0  0  0  0
  2  1  1  0  0  0  0
  3  4  1  0  0  0  0
  4  5  1  0  0  0  0
  4  8  1  0  0  0  0
  6  2  1  0  0  0  0
  7  3  1  0  0  0  0
  8 18  1  0  0  0  0
  9  8  2  0  0  0  0
  9 11  1  0  0  0  0
 10  9  1  0  0  0  0
 11 12  2  0  0  0  0
 12 13  1  0  0  0  0
 13 14  1  0  0  0  0
 14 15  2  0  0  0  0
 16 15  1  0  0  0  0
 17 16  2  0  0  0  0
 18 17  1  0  0  0  0
 18 13  2  0  0  0  0
 19  1  1  0  0  0  0
 19 22  1  0  0  0  0
 20 19  1  0  0  0  0
 21 19  1  0  0  0  0
 22 23  1  0  0  0  0
 22 29  1  0  0  0  0
 22 24  1  0  0  0  0
 25 31  1  0  0  0  0
 26 32  1  0  0  0  0
 26 25  2  0  0  0  0
 27 26  1  0  0  0  0
 28 27  2  0  0  0  0
 28 29  1  0  0  0  0
 29 30  2  0  0  0  0
 30 25  1  0  0  0  0
 33 27  1  0  0  0  0
M  END
>  <minimizedAffinity>
-5.68373299

$$$$

 OpenBabel03272501593D

 33 36  0  0  0  0  0  0  0  0999 V2000
   36.2230   25.1600   31.2680 C   0  0  0  0  0  0  0  0  0  0  0  0
   37.5910   25.3800   31.2610 C   0  0  0  0  0  0  0  0  0  0  0  0
   37.8360   26.7470   31.2080 C   0  0  0  0  0  0  0  0  0  0  0  0
   36.6000   27.3190   31.1850 N   0  0  0  0  0  0  0  0  0  0  0  0
   35.6650   26.3720   31.2210 N   0  0  0  0  0  0  0  0  0  0  0  0
   38.3080   24.5710   31.2930 H   0  0  0  0  0  0  0  0  0  0  0  0
   38.8240   27.1870   31.1920 H   0  0  0  0  0  0  0  0  0  0  0  0
   36.5330   28.7410   31.1310 C   0  0  0  0  0  0  0  0  0  0  0  0
   36.8500   29.3990   29.9430 C   0  0  0  0  0  0  0  0  0  0  0  0
   37.1470   28.8380   29.0670 H   0  0  0  0  0  0  0  0  0  0  0  0
   36.8140   30.7640   29.7950 C   0  0  0  0  0  3  0  0  0  0  0  0
   36.4440   31.5520   30.8700 C   0  0  0  0  0  3  0  0  0  0  0  0
   36.1210   30.9310   32.0660 C   0  0  0  0  0  0  0  0  0  0  0  0
   35.7470   31.6960   33.1590 C   0  0  0  0  0  3  0  0  0  0  0  0
   35.4150   31.1370   34.3730 C   0  0  0  0  0  3  0  0  0  0  0  0
   35.4750   29.7550   34.4420 C   0  0  0  0  0  3  0  0  0  0  0  0
   35.8460   28.9760   33.3650 C   0  0  0  0  0  3  0  0  0  0  0  0
   36.1710   29.5590   32.1690 C   0  0  0  0  0  0  0  0  0  0  0  0
   35.5200   23.8460   31.3180 C   0  0  0  0  0  0  0  0  0  0  0  0
   35.0960   23.6640   32.3330 H   0  0  0  0  0  0  0  0  0  0  0  0
   34.7350   23.8210   30.5570 H   0  0  0  0  0  0  0  0  0  0  0  0
   36.5820   22.8020   31.0560 C   0  0  0  0  0  0  0  0  0  0  0  0
   36.7210   22.6250   29.9560 H   0  0  0  0  0  0  0  0  0  0  0  0
   37.5450   23.1110   31.5290 H   0  0  0  0  0  0  0  0  0  0  0  0
   35.5610   20.3410   33.6200 C   0  0  0  0  0  0  0  0  0  0  0  0
   35.4390   19.1510   32.8780 C   0  0  0  0  0  0  0  0  0  0  0  0
   35.7140   19.2230   31.4900 C   0  0  0  0  0  0  0  0  0  0  0  0
   36.0760   20.4100   30.9520 N   0  0  0  0  0  0  0  0  0  0  0  0
   36.1790   21.5250   31.7120 C   0  0  0  0  0  0  0  0  0  0  0  0
   35.9210   21.4620   33.0130 N   0  0  0  0  0  0  0  0  0  0  0  0
   35.3450   20.2700   34.6900 H   0  0  0  0  0  0  0  0  0  0  0  0
   35.1490   18.2000   33.3050 H   0  0  0  0  0  0  0  0  0  0  0  0
   35.6370   18.3330   30.8580 H   0  0  0  0  0  0  0  0  0  0  0  0
  1 19  1  0  0  0  0
  2  1  1  0  0  0  0
  2  6  1  0  0  0  0
  3  2  2  0  0  0  0
  4  3  1  0  0  0  0
  4  5  1  0  0  0  0
  5  1  2  0  0  0  0
  7  3  1  0  0  0  0
  8  4  1  0  0  0  0
  8 18  1  0  0  0  0
  9  8  2  0  0  0  0
 10  9  1  0  0  0  0
 11  9  1  0  0  0  0
 11 12  2  0  0  0  0
 12 13  1  0  0  0  0
 13 18  2  0  0  0  0
 13 14  1  0  0  0  0
 14 15  2  0  0  0  0
 15 16  1  0  0  0  0
 17 16  2  0  0  0  0
 18 17  1  0  0  0  0
 19 20  1  0  0  0  0
 21 19  1  0  0  0  0
 22 19  1  0  0  0  0
 22 24  1  0  0  0  0
 22 29  1  0  0  0  0
 23 22  1  0  0  0  0
 25 31  1  0  0  0  0
 26 32  1  0  0  0  0
 26 25  2  0  0  0  0
 27 26  1  0  0  0  0
 28 27  2  0  0  0  0
 28 29  1  0  0  0  0
 29 30  2  0  0  0  0
 30 25  1  0  0  0  0
 33 27  1  0  0  0  0
M  END
>  <minimizedAffinity>
-5.650846

$$$$
