
 OpenBabel03272503243D

 34 37  0  0  1  0  0  0  0  0999 V2000
   36.4900   29.6440   49.7470 N   0  0  0  0  0  0  0  0  0  0  0  0
   36.6790   30.7970   50.5440 C   0  0  1  0  0  0  0  0  0  0  0  0
   37.5200   30.3250   51.7240 C   0  0  0  0  0  0  0  0  0  0  0  0
   37.7640   28.8280   51.4300 C   0  0  0  0  0  0  0  0  0  0  0  0
   37.6890   28.8650   49.9190 C   0  0  0  0  0  0  0  0  0  0  0  0
   35.6370   30.9160   51.0620 H   0  0  0  0  0  0  0  0  0  0  0  0
   37.0700   30.4950   52.6980 H   0  0  0  0  0  0  0  0  0  0  0  0
   38.5220   30.7970   51.5960 H   0  0  0  0  0  0  0  0  0  0  0  0
   38.7270   28.4890   51.8140 H   0  0  0  0  0  0  0  0  0  0  0  0
   36.8830   28.3160   51.8610 H   0  0  0  0  0  0  0  0  0  0  0  0
   37.6050   27.8350   49.5790 H   0  0  0  0  0  0  0  0  0  0  0  0
   38.5930   29.3860   49.5410 H   0  0  0  0  0  0  0  0  0  0  0  0
   35.3440   29.3380   48.9580 C   0  0  0  0  0  0  0  0  0  0  0  0
   34.6200   28.1970   49.2330 C   0  0  0  0  0  0  0  0  0  0  0  0
   33.4680   27.9090   48.4970 C   0  0  0  0  0  0  0  0  0  0  0  0
   33.1300   28.8220   47.5120 N   0  0  0  0  0  0  0  0  0  0  0  0
   33.8600   29.9260   47.2690 C   0  0  0  0  0  0  0  0  0  0  0  0
   34.9780   30.1920   47.9960 N   0  0  0  0  0  0  0  0  0  0  0  0
   34.8790   27.4840   49.9970 H   0  0  0  0  0  0  0  0  0  0  0  0
   32.8830   27.0230   48.6910 H   0  0  0  0  0  0  0  0  0  0  0  0
   33.5130   30.5750   46.4820 H   0  0  0  0  0  0  0  0  0  0  0  0
   37.0360   32.0300   49.9140 C   0  0  0  0  0  0  0  0  0  0  0  0
   36.1500   32.9020   49.9740 O   0  0  0  0  0  0  0  0  0  0  0  0
   38.1440   32.6170   49.1720 C   0  0  0  0  0  0  0  0  0  0  0  0
   38.8290   33.7300   49.6050 C   0  0  0  0  0  0  0  0  0  0  0  0
   38.6720   34.2390   50.5370 H   0  0  0  0  0  0  0  0  0  0  0  0
   39.8070   34.4290   48.9340 C   0  0  0  0  0  0  0  0  0  0  0  0
   40.1480   33.9740   47.6840 C   0  0  0  0  0  0  0  0  0  0  0  0
   39.5150   32.8680   47.1750 C   0  0  0  0  0  0  0  0  0  0  0  0
   39.8890   32.4140   45.9320 C   0  0  0  0  0  0  0  0  0  0  0  0
   39.3370   31.3020   45.3390 C   0  0  0  0  0  0  0  0  0  0  0  0
   38.3580   30.6480   46.0880 C   0  0  0  0  0  0  0  0  0  0  0  0
   38.0060   31.1270   47.3290 C   0  0  0  0  0  0  0  0  0  0  0  0
   38.5520   32.2380   47.9230 C   0  0  0  0  0  0  0  0  0  0  0  0
  1  5  1  0  0  0  0
  1  2  1  0  0  0  0
  2  6  1  1  0  0  0
  2  3  1  0  0  0  0
  3  7  1  0  0  0  0
  4  3  1  0  0  0  0
  4  9  1  0  0  0  0
  4 10  1  0  0  0  0
  5  4  1  0  0  0  0
  8  3  1  0  0  0  0
 11  5  1  0  0  0  0
 12  5  1  0  0  0  0
 13 14  1  0  0  0  0
 13  1  1  0  0  0  0
 14 19  1  0  0  0  0
 15 20  1  0  0  0  0
 15 14  2  0  0  0  0
 16 15  1  0  0  0  0
 17 16  2  0  0  0  0
 17 18  1  0  0  0  0
 18 13  2  0  0  0  0
 21 17  1  0  0  0  0
 22 23  2  0  0  0  0
 22  2  1  0  0  0  0
 24 25  1  0  0  0  0
 24 22  1  0  0  0  0
 25 26  1  0  0  0  0
 27 25  2  0  0  0  0
 28 27  1  0  0  0  0
 29 28  2  0  0  0  0
 29 34  1  0  0  0  0
 30 29  1  0  0  0  0
 31 30  2  0  0  0  0
 31 32  1  0  0  0  0
 32 33  2  0  0  0  0
 33 34  1  0  0  0  0
 34 24  2  0  0  0  0
M  END
>  <minimizedAffinity>
-6.36359358

>  <minimizedRMSD>
3.91450667

$$$$
