
 OpenBabel03272503503D

 39 42  0  0  1  0  0  0  0  0999 V2000
   33.1920   27.3420   45.7620 C   0  0  1  0  0  0  0  0  0  0  0  0
   33.9590   27.4450   47.0980 C   0  0  2  0  0  0  0  0  0  0  0  0
   33.8410   26.2040   47.6370 O   0  0  0  0  0  0  0  0  0  0  0  0
   34.1270   25.3470   46.5860 C   0  0  0  0  0  0  0  0  0  0  0  0
   33.5900   25.9600   45.3090 C   0  0  2  0  0  0  0  0  0  0  0  0
   33.5490   28.1400   45.0820 H   0  0  0  0  0  0  0  0  0  0  0  0
   34.9890   27.7280   46.7830 H   0  0  0  0  0  0  0  0  0  0  0  0
   35.1930   25.0770   46.5120 H   0  0  0  0  0  0  0  0  0  0  0  0
   33.5590   24.4090   46.7610 H   0  0  0  0  0  0  0  0  0  0  0  0
   32.6940   25.4220   44.9480 H   0  0  0  0  0  0  0  0  0  0  0  0
   31.8380   27.5140   45.9700 O   0  0  0  0  0  0  0  0  0  0  0  0
   31.4690   28.2060   45.3620 H   0  0  0  0  0  0  0  0  0  0  0  0
   33.3380   28.4680   47.7690 O   0  0  0  0  0  0  0  0  0  0  0  0
   35.3810   29.8180   46.7740 O   0  0  0  0  0  0  0  0  0  0  0  0
   34.1030   29.9570   47.5970 P   0  0  1  0  0  0  0  0  0  0  0  0
   33.1240   31.0150   46.7070 O   0  0  0  0  0  0  0  0  0  0  0  0
   32.3780   31.2630   47.3370 H   0  0  0  0  0  0  0  0  0  0  0  0
   34.3700   30.5610   49.1710 O   0  0  0  0  0  0  0  0  0  0  0  0
   35.6100   30.4660   49.7870 C   0  0  0  0  0  0  0  0  0  0  0  0
   35.9700   29.4600   50.7150 C   0  0  0  0  0  0  0  0  0  0  0  0
   37.2500   29.4980   51.2490 C   0  0  0  0  0  0  0  0  0  0  0  0
   38.0990   30.5020   50.8530 N   0  0  0  0  0  0  0  0  0  0  0  0
   37.7250   31.4530   49.9610 C   0  0  0  0  0  0  0  0  0  0  0  0
   36.4760   31.4380   49.4240 N   0  0  0  0  0  0  0  0  0  0  0  0
   35.2270   28.7390   50.9410 H   0  0  0  0  0  0  0  0  0  0  0  0
   37.5180   28.7420   51.9450 H   0  0  0  0  0  0  0  0  0  0  0  0
   38.4040   32.2360   49.6600 H   0  0  0  0  0  0  0  0  0  0  0  0
   34.5770   26.0230   44.3630 O   0  0  0  0  0  0  0  0  0  0  0  0
   34.6040   25.1970   43.2700 C   0  0  0  0  0  0  0  0  0  0  0  0
   33.6150   24.6500   42.5090 C   0  0  0  0  0  0  0  0  0  0  0  0
   32.6110   24.9020   42.8050 H   0  0  0  0  0  0  0  0  0  0  0  0
   33.8380   23.8290   41.4300 C   0  0  0  0  0  3  0  0  0  0  0  0
   35.1210   23.5000   41.0440 C   0  0  0  0  0  3  0  0  0  0  0  0
   36.1560   24.0450   41.8060 C   0  0  0  0  0  0  0  0  0  0  0  0
   37.4180   23.6850   41.3770 C   0  0  0  0  0  3  0  0  0  0  0  0
   38.5070   24.1710   42.0600 C   0  0  0  0  0  3  0  0  0  0  0  0
   38.3190   24.9950   43.1450 C   0  0  0  0  0  3  0  0  0  0  0  0
   37.0440   25.3350   43.5450 C   0  0  0  0  0  3  0  0  0  0  0  0
   35.9160   24.8770   42.8980 C   0  0  0  0  0  0  0  0  0  0  0  0
  1  6  1  6  0  0  0
  1 11  1  0  0  0  0
  1  2  1  0  0  0  0
  2  7  1  6  0  0  0
  2  3  1  0  0  0  0
  2 13  1  0  0  0  0
  4  9  1  0  0  0  0
  4  3  1  0  0  0  0
  5 10  1  6  0  0  0
  5  1  1  0  0  0  0
  5  4  1  0  0  0  0
  8  4  1  0  0  0  0
 12 11  1  0  0  0  0
 15 14  2  6  0  0  0
 15 13  1  0  0  0  0
 15 18  1  0  0  0  0
 16 17  1  0  0  0  0
 16 15  1  0  0  0  0
 18 19  1  0  0  0  0
 19 20  1  0  0  0  0
 20 25  1  0  0  0  0
 20 21  2  0  0  0  0
 21 26  1  0  0  0  0
 22 21  1  0  0  0  0
 23 22  2  0  0  0  0
 24 19  2  0  0  0  0
 24 23  1  0  0  0  0
 27 23  1  0  0  0  0
 28  5  1  0  0  0  0
 29 28  1  0  0  0  0
 30 31  1  0  0  0  0
 30 29  2  0  0  0  0
 32 30  1  0  0  0  0
 33 32  2  0  0  0  0
 33 34  1  0  0  0  0
 34 39  1  0  0  0  0
 35 34  2  0  0  0  0
 35 36  1  0  0  0  0
 36 37  2  0  0  0  0
 37 38  1  0  0  0  0
 39 29  1  0  0  0  0
 39 38  2  0  0  0  0
M  END
>  <minimizedAffinity>
-4.25081253

>  <minimizedRMSD>
0.687974751

$$$$
