
 OpenBabel03272503313D

 36 39  0  0  1  0  0  0  0  0999 V2000
   37.3980   26.0150   33.4160 C   0  0  0  0  0  0  0  0  0  0  0  0
   36.9340   25.0740   32.4830 C   0  0  0  0  0  0  0  0  0  0  0  0
   36.0470   25.5100   31.5070 C   0  0  0  0  0  0  0  0  0  0  0  0
   35.6910   26.8320   31.5280 N   0  0  0  0  0  0  0  0  0  0  0  0
   36.1500   27.7020   32.4290 C   0  0  0  0  0  0  0  0  0  0  0  0
   37.0060   27.3030   33.3800 N   0  0  0  0  0  0  0  0  0  0  0  0
   37.2310   24.0350   32.4860 H   0  0  0  0  0  0  0  0  0  0  0  0
   35.6440   24.8550   30.7540 H   0  0  0  0  0  0  0  0  0  0  0  0
   38.3130   25.5490   34.4170 N   0  0  0  0  0  0  0  0  0  0  0  0
   38.2750   25.8380   35.8250 C   0  0  0  0  0  0  0  0  0  0  0  0
   38.9280   24.5880   36.4300 C   0  0  2  0  0  0  0  0  0  0  0  0
   39.1790   23.6490   35.2740 C   0  0  0  0  0  0  0  0  0  0  0  0
   39.4530   24.6940   34.1920 C   0  0  0  0  0  0  0  0  0  0  0  0
   37.2790   26.0110   36.2350 H   0  0  0  0  0  0  0  0  0  0  0  0
   38.9440   26.7270   35.9800 H   0  0  0  0  0  0  0  0  0  0  0  0
   39.9110   24.8630   36.8340 H   0  0  0  0  0  0  0  0  0  0  0  0
   38.2740   23.0860   34.9760 H   0  0  0  0  0  0  0  0  0  0  0  0
   40.0720   23.0370   35.3850 H   0  0  0  0  0  0  0  0  0  0  0  0
   40.4270   25.1860   34.3310 H   0  0  0  0  0  0  0  0  0  0  0  0
   39.3240   24.1770   33.2360 H   0  0  0  0  0  0  0  0  0  0  0  0
   38.0920   23.9770   37.5120 C   0  0  0  0  0  0  0  0  0  0  0  0
   37.9570   24.9510   38.4840 F   0  0  0  0  0  0  0  0  0  0  0  0
   38.8160   22.9610   38.0830 F   0  0  0  0  0  0  0  0  0  0  0  0
   36.8890   23.5120   37.0780 F   0  0  0  0  0  0  0  0  0  0  0  0
   35.6420   29.4120   32.4050 S   0  0  0  0  0  0  0  0  0  0  0  0
   34.1820   29.6730   33.4010 C   0  0  0  0  0  0  0  0  0  0  0  0
   32.9130   29.1970   33.1230 C   0  0  0  0  0  0  0  0  0  0  0  0
   32.8190   28.6200   32.2190 H   0  0  0  0  0  0  0  0  0  0  0  0
   31.8740   29.4890   34.0050 C   0  0  0  0  0  3  0  0  0  0  0  0
   32.0880   30.2390   35.1430 C   0  0  0  0  0  3  0  0  0  0  0  0
   33.3600   30.7110   35.4160 C   0  0  0  0  0  0  0  0  0  0  0  0
   33.5670   31.4680   36.5670 C   0  0  0  0  0  3  0  0  0  0  0  0
   34.8250   31.9540   36.8680 C   0  0  0  0  0  3  0  0  0  0  0  0
   35.8650   31.6840   36.0220 C   0  0  0  0  0  3  0  0  0  0  0  0
   35.6140   30.9390   34.9050 C   0  0  0  0  0  3  0  0  0  0  0  0
   34.3940   30.4250   34.5440 C   0  0  0  0  0  0  0  0  0  0  0  0
  1  9  1  0  0  0  0
  2  7  1  0  0  0  0
  2  1  2  0  0  0  0
  3  4  2  0  0  0  0
  3  2  1  0  0  0  0
  4  5  1  0  0  0  0
  5  6  2  0  0  0  0
  6  1  1  0  0  0  0
  8  3  1  0  0  0  0
  9 10  1  0  0  0  0
 10 15  1  0  0  0  0
 10 14  1  0  0  0  0
 10 11  1  0  0  0  0
 11 16  1  1  0  0  0
 11 21  1  0  0  0  0
 12 18  1  0  0  0  0
 12 11  1  0  0  0  0
 13 19  1  0  0  0  0
 13  9  1  0  0  0  0
 13 12  1  0  0  0  0
 17 12  1  0  0  0  0
 20 13  1  0  0  0  0
 21 23  1  0  0  0  0
 21 22  1  0  0  0  0
 24 21  1  0  0  0  0
 25  5  1  0  0  0  0
 25 26  1  0  0  0  0
 26 36  1  0  0  0  0
 27 26  2  0  0  0  0
 27 29  1  0  0  0  0
 28 27  1  0  0  0  0
 29 30  2  0  0  0  0
 30 31  1  0  0  0  0
 31 32  1  0  0  0  0
 32 33  2  0  0  0  0
 34 33  1  0  0  0  0
 35 34  2  0  0  0  0
 36 35  1  0  0  0  0
 36 31  2  0  0  0  0
M  END
>  <minimizedAffinity>
-6.69534349

$$$$

 OpenBabel03272503313D

 36 39  0  0  1  0  0  0  0  0999 V2000
   37.5000   23.3690   32.0200 C   0  0  0  0  0  0  0  0  0  0  0  0
   36.8500   24.2110   31.1030 C   0  0  0  0  0  0  0  0  0  0  0  0
   36.9530   25.5830   31.2950 C   0  0  0  0  0  0  0  0  0  0  0  0
   37.6850   26.0140   32.3700 N   0  0  0  0  0  0  0  0  0  0  0  0
   38.2910   25.1870   33.2230 C   0  0  0  0  0  0  0  0  0  0  0  0
   38.2040   23.8600   33.0580 N   0  0  0  0  0  0  0  0  0  0  0  0
   36.2780   23.8470   30.2620 H   0  0  0  0  0  0  0  0  0  0  0  0
   36.4880   26.2980   30.6400 H   0  0  0  0  0  0  0  0  0  0  0  0
   37.3830   21.9560   31.8080 N   0  0  0  0  0  0  0  0  0  0  0  0
   37.2490   20.9390   32.8150 C   0  0  0  0  0  0  0  0  0  0  0  0
   36.4590   19.8520   32.0750 C   0  0  2  0  0  0  0  0  0  0  0  0
   36.1290   20.4290   30.7190 C   0  0  0  0  0  0  0  0  0  0  0  0
   37.3790   21.2870   30.5300 C   0  0  0  0  0  0  0  0  0  0  0  0
   36.7400   21.2550   33.7270 H   0  0  0  0  0  0  0  0  0  0  0  0
   38.2880   20.5710   33.0300 H   0  0  0  0  0  0  0  0  0  0  0  0
   37.1180   18.9910   31.9010 H   0  0  0  0  0  0  0  0  0  0  0  0
   35.2550   21.1080   30.7440 H   0  0  0  0  0  0  0  0  0  0  0  0
   36.1010   19.6930   29.9170 H   0  0  0  0  0  0  0  0  0  0  0  0
   38.2730   20.6770   30.3310 H   0  0  0  0  0  0  0  0  0  0  0  0
   37.1290   22.0150   29.7510 H   0  0  0  0  0  0  0  0  0  0  0  0
   35.2470   19.4110   32.8360 C   0  0  0  0  0  0  0  0  0  0  0  0
   34.1760   19.5880   31.9800 F   0  0  0  0  0  0  0  0  0  0  0  0
   35.0580   20.2850   33.8760 F   0  0  0  0  0  0  0  0  0  0  0  0
   35.3280   18.1340   33.3020 F   0  0  0  0  0  0  0  0  0  0  0  0
   39.2270   25.8120   34.6080 S   0  0  0  0  0  0  0  0  0  0  0  0
   38.9890   24.8030   36.0630 C   0  0  0  0  0  0  0  0  0  0  0  0
   37.9420   24.9060   36.9610 C   0  0  0  0  0  0  0  0  0  0  0  0
   37.2160   25.6690   36.7460 H   0  0  0  0  0  0  0  0  0  0  0  0
   37.9010   24.0390   38.0530 C   0  0  0  0  0  3  0  0  0  0  0  0
   38.8800   23.0870   38.2510 C   0  0  0  0  0  3  0  0  0  0  0  0
   39.9250   22.9890   37.3490 C   0  0  0  0  0  0  0  0  0  0  0  0
   40.9090   22.0260   37.5570 C   0  0  0  0  0  3  0  0  0  0  0  0
   41.9640   21.9020   36.6740 C   0  0  0  0  0  3  0  0  0  0  0  0
   42.0330   22.7380   35.5940 C   0  0  0  0  0  3  0  0  0  0  0  0
   41.0460   23.6670   35.4310 C   0  0  0  0  0  3  0  0  0  0  0  0
   39.9700   23.8460   36.2650 C   0  0  0  0  0  0  0  0  0  0  0  0
  1  6  1  0  0  0  0
  2  3  1  0  0  0  0
  2  1  2  0  0  0  0
  3  4  2  0  0  0  0
  4  5  1  0  0  0  0
  5 25  1  0  0  0  0
  6  5  2  0  0  0  0
  7  2  1  0  0  0  0
  8  3  1  0  0  0  0
  9  1  1  0  0  0  0
  9 10  1  0  0  0  0
 10 15  1  0  0  0  0
 10 14  1  0  0  0  0
 11 16  1  6  0  0  0
 11 10  1  0  0  0  0
 11 21  1  0  0  0  0
 12 17  1  0  0  0  0
 12 11  1  0  0  0  0
 13 12  1  0  0  0  0
 13  9  1  0  0  0  0
 18 12  1  0  0  0  0
 19 13  1  0  0  0  0
 20 13  1  0  0  0  0
 21 24  1  0  0  0  0
 21 23  1  0  0  0  0
 22 21  1  0  0  0  0
 25 26  1  0  0  0  0
 26 36  2  0  0  0  0
 26 27  1  0  0  0  0
 27 29  2  0  0  0  0
 28 27  1  0  0  0  0
 29 30  1  0  0  0  0
 31 32  1  0  0  0  0
 31 30  2  0  0  0  0
 33 32  2  0  0  0  0
 34 33  1  0  0  0  0
 35 34  2  0  0  0  0
 35 36  1  0  0  0  0
 36 31  1  0  0  0  0
M  END
>  <minimizedAffinity>
-6.48107147

$$$$

 OpenBabel03272503313D

 36 39  0  0  1  0  0  0  0  0999 V2000
   36.4530   27.7600   32.6830 C   0  0  0  0  0  0  0  0  0  0  0  0
   36.0330   27.0350   31.5560 C   0  0  0  0  0  0  0  0  0  0  0  0
   36.7480   25.8950   31.2140 C   0  0  0  0  0  0  0  0  0  0  0  0
   37.8150   25.5620   32.0060 N   0  0  0  0  0  0  0  0  0  0  0  0
   38.1890   26.2720   33.0700 C   0  0  0  0  0  0  0  0  0  0  0  0
   37.5140   27.3760   33.4190 N   0  0  0  0  0  0  0  0  0  0  0  0
   35.1860   27.3180   30.9470 H   0  0  0  0  0  0  0  0  0  0  0  0
   36.4940   25.2820   30.3670 H   0  0  0  0  0  0  0  0  0  0  0  0
   35.7040   28.9350   33.0230 N   0  0  0  0  0  0  0  0  0  0  0  0
   35.1540   29.2680   34.3090 C   0  0  0  0  0  0  0  0  0  0  0  0
   35.1620   30.8020   34.2770 C   0  0  2  0  0  0  0  0  0  0  0  0
   35.8330   31.1880   32.9800 C   0  0  0  0  0  0  0  0  0  0  0  0
   35.3610   30.0120   32.1250 C   0  0  0  0  0  0  0  0  0  0  0  0
   35.7090   28.8800   35.1640 H   0  0  0  0  0  0  0  0  0  0  0  0
   34.0950   28.8950   34.3020 H   0  0  0  0  0  0  0  0  0  0  0  0
   34.1260   31.1600   34.2170 H   0  0  0  0  0  0  0  0  0  0  0  0
   36.9370   31.1400   33.0390 H   0  0  0  0  0  0  0  0  0  0  0  0
   35.4470   32.1030   32.5360 H   0  0  0  0  0  0  0  0  0  0  0  0
   34.2910   30.0800   31.8830 H   0  0  0  0  0  0  0  0  0  0  0  0
   36.0340   29.9800   31.2620 H   0  0  0  0  0  0  0  0  0  0  0  0
   35.8280   31.3920   35.4810 C   0  0  0  0  0  0  0  0  0  0  0  0
   36.6920   30.4200   35.9530 F   0  0  0  0  0  0  0  0  0  0  0  0
   34.8750   31.5630   36.4520 F   0  0  0  0  0  0  0  0  0  0  0  0
   36.4650   32.5700   35.2330 F   0  0  0  0  0  0  0  0  0  0  0  0
   39.5930   25.7870   34.0590 S   0  0  0  0  0  0  0  0  0  0  0  0
   39.0860   24.8600   35.5000 C   0  0  0  0  0  0  0  0  0  0  0  0
   37.8890   25.0020   36.1780 C   0  0  0  0  0  0  0  0  0  0  0  0
   37.2160   25.7450   35.7870 H   0  0  0  0  0  0  0  0  0  0  0  0
   37.6440   24.1980   37.2910 C   0  0  0  0  0  3  0  0  0  0  0  0
   38.5670   23.2690   37.7230 C   0  0  0  0  0  3  0  0  0  0  0  0
   39.7630   23.1310   37.0390 C   0  0  0  0  0  0  0  0  0  0  0  0
   40.6900   22.1920   37.4830 C   0  0  0  0  0  3  0  0  0  0  0  0
   41.8920   22.0300   36.8230 C   0  0  0  0  0  3  0  0  0  0  0  0
   42.1630   22.8030   35.7280 C   0  0  0  0  0  3  0  0  0  0  0  0
   41.2240   23.7120   35.3300 C   0  0  0  0  0  3  0  0  0  0  0  0
   40.0110   23.9260   35.9360 C   0  0  0  0  0  0  0  0  0  0  0  0
  1  9  1  0  0  0  0
  1  6  1  0  0  0  0
  2  1  2  0  0  0  0
  3  2  1  0  0  0  0
  3  4  2  0  0  0  0
  4  5  1  0  0  0  0
  5  6  2  0  0  0  0
  5 25  1  0  0  0  0
  7  2  1  0  0  0  0
  8  3  1  0  0  0  0
  9 10  1  0  0  0  0
 10 14  1  0  0  0  0
 11 16  1  6  0  0  0
 11 10  1  0  0  0  0
 11 21  1  0  0  0  0
 12 17  1  0  0  0  0
 12 11  1  0  0  0  0
 13 12  1  0  0  0  0
 13  9  1  0  0  0  0
 15 10  1  0  0  0  0
 18 12  1  0  0  0  0
 19 13  1  0  0  0  0
 20 13  1  0  0  0  0
 21 22  1  0  0  0  0
 21 23  1  0  0  0  0
 24 21  1  0  0  0  0
 25 26  1  0  0  0  0
 26 36  2  0  0  0  0
 26 27  1  0  0  0  0
 27 29  2  0  0  0  0
 28 27  1  0  0  0  0
 29 30  1  0  0  0  0
 31 32  1  0  0  0  0
 31 30  2  0  0  0  0
 33 32  2  0  0  0  0
 34 33  1  0  0  0  0
 35 34  2  0  0  0  0
 35 36  1  0  0  0  0
 36 31  1  0  0  0  0
M  END
>  <minimizedAffinity>
-6.46040773

$$$$

 OpenBabel03272503313D

 36 39  0  0  1  0  0  0  0  0999 V2000
   37.0770   26.0330   33.3820 C   0  0  0  0  0  0  0  0  0  0  0  0
   37.8180   25.9530   34.5730 C   0  0  0  0  0  0  0  0  0  0  0  0
   37.8300   27.0640   35.4060 C   0  0  0  0  0  0  0  0  0  0  0  0
   37.1160   28.1610   35.0010 N   0  0  0  0  0  0  0  0  0  0  0  0
   36.4230   28.2060   33.8630 C   0  0  0  0  0  0  0  0  0  0  0  0
   36.3960   27.1460   33.0440 N   0  0  0  0  0  0  0  0  0  0  0  0
   38.3730   25.0750   34.8710 H   0  0  0  0  0  0  0  0  0  0  0  0
   38.3710   27.0870   36.3360 H   0  0  0  0  0  0  0  0  0  0  0  0
   37.0740   24.8780   32.5330 N   0  0  0  0  0  0  0  0  0  0  0  0
   37.6690   23.5990   32.8100 C   0  0  0  0  0  0  0  0  0  0  0  0
   36.7730   22.6440   32.0110 C   0  0  2  0  0  0  0  0  0  0  0  0
   35.6690   23.4970   31.4320 C   0  0  0  0  0  0  0  0  0  0  0  0
   36.4650   24.7860   31.2280 C   0  0  0  0  0  0  0  0  0  0  0  0
   37.7070   23.3260   33.8660 H   0  0  0  0  0  0  0  0  0  0  0  0
   38.6950   23.6260   32.3550 H   0  0  0  0  0  0  0  0  0  0  0  0
   37.3460   22.2480   31.1630 H   0  0  0  0  0  0  0  0  0  0  0  0
   34.8650   23.7090   32.1630 H   0  0  0  0  0  0  0  0  0  0  0  0
   35.3140   23.1630   30.4590 H   0  0  0  0  0  0  0  0  0  0  0  0
   37.1790   24.7030   30.3960 H   0  0  0  0  0  0  0  0  0  0  0  0
   35.7220   25.5840   31.1270 H   0  0  0  0  0  0  0  0  0  0  0  0
   36.2630   21.5100   32.8450 C   0  0  0  0  0  0  0  0  0  0  0  0
   36.7340   21.7380   34.1260 F   0  0  0  0  0  0  0  0  0  0  0  0
   36.8700   20.3590   32.4120 F   0  0  0  0  0  0  0  0  0  0  0  0
   34.9090   21.3710   32.8120 F   0  0  0  0  0  0  0  0  0  0  0  0
   35.5160   29.6680   33.3900 S   0  0  0  0  0  0  0  0  0  0  0  0
   35.1200   30.6770   34.8110 C   0  0  0  0  0  0  0  0  0  0  0  0
   35.9390   31.6350   35.3810 C   0  0  0  0  0  0  0  0  0  0  0  0
   36.8970   31.7680   34.9120 H   0  0  0  0  0  0  0  0  0  0  0  0
   35.4790   32.3400   36.4930 C   0  0  0  0  0  3  0  0  0  0  0  0
   34.2310   32.1010   37.0290 C   0  0  0  0  0  3  0  0  0  0  0  0
   33.4170   31.1420   36.4540 C   0  0  0  0  0  0  0  0  0  0  0  0
   32.1580   30.9070   37.0020 C   0  0  0  0  0  3  0  0  0  0  0  0
   31.3220   29.9560   36.4510 C   0  0  0  0  0  3  0  0  0  0  0  0
   31.7430   29.2470   35.3600 C   0  0  0  0  0  3  0  0  0  0  0  0
   32.9840   29.5110   34.8570 C   0  0  0  0  0  3  0  0  0  0  0  0
   33.8670   30.4390   35.3520 C   0  0  0  0  0  0  0  0  0  0  0  0
  1  2  1  0  0  0  0
  2  7  1  0  0  0  0
  2  3  2  0  0  0  0
  3  8  1  0  0  0  0
  4  3  1  0  0  0  0
  5  4  2  0  0  0  0
  6  1  2  0  0  0  0
  6  5  1  0  0  0  0
  9 10  1  0  0  0  0
  9  1  1  0  0  0  0
 10 14  1  0  0  0  0
 11 16  1  6  0  0  0
 11 10  1  0  0  0  0
 11 21  1  0  0  0  0
 12 11  1  0  0  0  0
 12 17  1  0  0  0  0
 13 12  1  0  0  0  0
 13  9  1  0  0  0  0
 15 10  1  0  0  0  0
 18 12  1  0  0  0  0
 19 13  1  0  0  0  0
 20 13  1  0  0  0  0
 21 22  1  0  0  0  0
 23 21  1  0  0  0  0
 24 21  1  0  0  0  0
 25  5  1  0  0  0  0
 25 26  1  0  0  0  0
 26 36  2  0  0  0  0
 26 27  1  0  0  0  0
 27 29  2  0  0  0  0
 28 27  1  0  0  0  0
 29 30  1  0  0  0  0
 31 32  1  0  0  0  0
 31 30  2  0  0  0  0
 33 32  2  0  0  0  0
 34 33  1  0  0  0  0
 35 36  1  0  0  0  0
 35 34  2  0  0  0  0
 36 31  1  0  0  0  0
M  END
>  <minimizedAffinity>
-6.44168997

$$$$

 OpenBabel03272503313D

 36 39  0  0  1  0  0  0  0  0999 V2000
   36.4130   29.2770   31.7430 C   0  0  0  0  0  0  0  0  0  0  0  0
   36.4390   29.5770   30.3720 C   0  0  0  0  0  0  0  0  0  0  0  0
   37.1780   28.7460   29.5390 C   0  0  0  0  0  0  0  0  0  0  0  0
   37.8290   27.6910   30.1220 N   0  0  0  0  0  0  0  0  0  0  0  0
   37.7840   27.4340   31.4300 C   0  0  0  0  0  0  0  0  0  0  0  0
   37.0780   28.2220   32.2520 N   0  0  0  0  0  0  0  0  0  0  0  0
   35.9160   30.4160   29.9350 H   0  0  0  0  0  0  0  0  0  0  0  0
   37.2500   28.9030   28.4770 H   0  0  0  0  0  0  0  0  0  0  0  0
   35.6460   30.1450   32.5890 N   0  0  0  0  0  0  0  0  0  0  0  0
   35.2860   29.9170   33.9620 C   0  0  0  0  0  0  0  0  0  0  0  0
   35.1790   31.3460   34.5100 C   0  0  2  0  0  0  0  0  0  0  0  0
   35.6030   32.2570   33.3820 C   0  0  0  0  0  0  0  0  0  0  0  0
   35.0870   31.4210   32.2120 C   0  0  0  0  0  0  0  0  0  0  0  0
   35.9990   29.3200   34.5340 H   0  0  0  0  0  0  0  0  0  0  0  0
   34.2700   29.4410   33.9460 H   0  0  0  0  0  0  0  0  0  0  0  0
   34.1240   31.5680   34.7160 H   0  0  0  0  0  0  0  0  0  0  0  0
   36.7040   32.3310   33.2830 H   0  0  0  0  0  0  0  0  0  0  0  0
   35.0870   33.2150   33.3660 H   0  0  0  0  0  0  0  0  0  0  0  0
   33.9890   31.4360   32.1460 H   0  0  0  0  0  0  0  0  0  0  0  0
   35.6120   31.7880   31.3250 H   0  0  0  0  0  0  0  0  0  0  0  0
   35.9860   31.5410   35.7570 C   0  0  0  0  0  0  0  0  0  0  0  0
   36.6820   30.3610   35.9470 F   0  0  0  0  0  0  0  0  0  0  0  0
   35.1160   31.6490   36.8120 F   0  0  0  0  0  0  0  0  0  0  0  0
   36.8100   32.6230   35.7120 F   0  0  0  0  0  0  0  0  0  0  0  0
   38.6600   26.0450   32.1280 S   0  0  0  0  0  0  0  0  0  0  0  0
   38.5170   26.0130   33.9090 C   0  0  0  0  0  0  0  0  0  0  0  0
   38.6260   27.1040   34.7530 C   0  0  0  0  0  0  0  0  0  0  0  0
   38.8150   28.0480   34.2730 H   0  0  0  0  0  0  0  0  0  0  0  0
   38.4890   26.9110   36.1270 C   0  0  0  0  0  3  0  0  0  0  0  0
   38.2470   25.6600   36.6550 C   0  0  0  0  0  3  0  0  0  0  0  0
   38.1380   24.5730   35.8060 C   0  0  0  0  0  0  0  0  0  0  0  0
   37.8950   23.3140   36.3490 C   0  0  0  0  0  3  0  0  0  0  0  0
   37.7810   22.2080   35.5280 C   0  0  0  0  0  3  0  0  0  0  0  0
   37.9110   22.3650   34.1760 C   0  0  0  0  0  3  0  0  0  0  0  0
   38.1500   23.6180   33.6890 C   0  0  0  0  0  3  0  0  0  0  0  0
   38.2740   24.7590   34.4430 C   0  0  0  0  0  0  0  0  0  0  0  0
  1  6  1  0  0  0  0
  1  9  1  0  0  0  0
  2  1  2  0  0  0  0
  3  4  2  0  0  0  0
  3  2  1  0  0  0  0
  4  5  1  0  0  0  0
  5 25  1  0  0  0  0
  5  6  2  0  0  0  0
  7  2  1  0  0  0  0
  8  3  1  0  0  0  0
  9 10  1  0  0  0  0
 10 11  1  0  0  0  0
 10 14  1  0  0  0  0
 11 16  1  1  0  0  0
 11 21  1  0  0  0  0
 12 11  1  0  0  0  0
 13  9  1  0  0  0  0
 13 12  1  0  0  0  0
 15 10  1  0  0  0  0
 17 12  1  0  0  0  0
 18 12  1  0  0  0  0
 19 13  1  0  0  0  0
 20 13  1  0  0  0  0
 21 22  1  0  0  0  0
 21 23  1  0  0  0  0
 24 21  1  0  0  0  0
 25 26  1  0  0  0  0
 26 36  2  0  0  0  0
 26 27  1  0  0  0  0
 27 29  2  0  0  0  0
 28 27  1  0  0  0  0
 29 30  1  0  0  0  0
 31 32  1  0  0  0  0
 31 30  2  0  0  0  0
 33 32  2  0  0  0  0
 34 33  1  0  0  0  0
 35 34  2  0  0  0  0
 35 36  1  0  0  0  0
 36 31  1  0  0  0  0
M  END
>  <minimizedAffinity>
-6.36544228

$$$$

 OpenBabel03272503313D

 36 39  0  0  1  0  0  0  0  0999 V2000
   37.9070   22.7930   34.0120 C   0  0  0  0  0  0  0  0  0  0  0  0
   38.0900   22.0090   35.1630 C   0  0  0  0  0  0  0  0  0  0  0  0
   38.6100   22.6260   36.2930 C   0  0  0  0  0  0  0  0  0  0  0  0
   38.9070   23.9600   36.2000 N   0  0  0  0  0  0  0  0  0  0  0  0
   38.7230   24.6770   35.0910 C   0  0  0  0  0  0  0  0  0  0  0  0
   38.2230   24.1030   33.9880 N   0  0  0  0  0  0  0  0  0  0  0  0
   37.8460   20.9580   35.2130 H   0  0  0  0  0  0  0  0  0  0  0  0
   38.7800   22.1000   37.2160 H   0  0  0  0  0  0  0  0  0  0  0  0
   37.3690   22.1410   32.8540 N   0  0  0  0  0  0  0  0  0  0  0  0
   37.3060   20.7260   32.6090 C   0  0  0  0  0  0  0  0  0  0  0  0
   36.0690   20.6070   31.7090 C   0  0  2  0  0  0  0  0  0  0  0  0
   35.4840   21.9970   31.6220 C   0  0  0  0  0  0  0  0  0  0  0  0
   36.7850   22.7940   31.7070 C   0  0  0  0  0  0  0  0  0  0  0  0
   37.2150   20.1060   33.5020 H   0  0  0  0  0  0  0  0  0  0  0  0
   38.2280   20.4680   32.0220 H   0  0  0  0  0  0  0  0  0  0  0  0
   36.3930   20.3360   30.6960 H   0  0  0  0  0  0  0  0  0  0  0  0
   34.8700   22.2580   32.5050 H   0  0  0  0  0  0  0  0  0  0  0  0
   35.0140   22.2220   30.6670 H   0  0  0  0  0  0  0  0  0  0  0  0
   37.3800   22.7150   30.7860 H   0  0  0  0  0  0  0  0  0  0  0  0
   36.4960   23.8110   31.9900 H   0  0  0  0  0  0  0  0  0  0  0  0
   35.0930   19.5900   32.2140 C   0  0  0  0  0  0  0  0  0  0  0  0
   35.3200   19.4880   33.5740 F   0  0  0  0  0  0  0  0  0  0  0  0
   35.4320   18.3750   31.6750 F   0  0  0  0  0  0  0  0  0  0  0  0
   33.7960   19.8870   31.9290 F   0  0  0  0  0  0  0  0  0  0  0  0
   39.1360   26.4120   35.0320 S   0  0  0  0  0  0  0  0  0  0  0  0
   37.9420   27.3340   34.0750 C   0  0  0  0  0  0  0  0  0  0  0  0
   36.7670   27.8840   34.5530 C   0  0  0  0  0  0  0  0  0  0  0  0
   36.5720   27.7300   35.6000 H   0  0  0  0  0  0  0  0  0  0  0  0
   35.9390   28.5780   33.6730 C   0  0  0  0  0  3  0  0  0  0  0  0
   36.2690   28.7260   32.3420 C   0  0  0  0  0  3  0  0  0  0  0  0
   37.4470   28.1740   31.8690 C   0  0  0  0  0  0  0  0  0  0  0  0
   37.7730   28.3280   30.5240 C   0  0  0  0  0  3  0  0  0  0  0  0
   38.9410   27.7890   30.0210 C   0  0  0  0  0  3  0  0  0  0  0  0
   39.7750   27.1020   30.8590 C   0  0  0  0  0  3  0  0  0  0  0  0
   39.4140   26.9760   32.1700 C   0  0  0  0  0  3  0  0  0  0  0  0
   38.2710   27.4840   32.7380 C   0  0  0  0  0  0  0  0  0  0  0  0
  1  2  1  0  0  0  0
  2  7  1  0  0  0  0
  2  3  2  0  0  0  0
  3  8  1  0  0  0  0
  4  3  1  0  0  0  0
  5  4  2  0  0  0  0
  6  1  2  0  0  0  0
  6  5  1  0  0  0  0
  9  1  1  0  0  0  0
 10  9  1  0  0  0  0
 10 14  1  0  0  0  0
 11 16  1  6  0  0  0
 11 21  1  0  0  0  0
 11 10  1  0  0  0  0
 12 13  1  0  0  0  0
 12 11  1  0  0  0  0
 12 17  1  0  0  0  0
 13 20  1  0  0  0  0
 13  9  1  0  0  0  0
 15 10  1  0  0  0  0
 18 12  1  0  0  0  0
 19 13  1  0  0  0  0
 21 22  1  0  0  0  0
 23 21  1  0  0  0  0
 24 21  1  0  0  0  0
 25  5  1  0  0  0  0
 26 27  1  0  0  0  0
 26 25  1  0  0  0  0
 27 28  1  0  0  0  0
 29 27  2  0  0  0  0
 30 29  1  0  0  0  0
 31 30  2  0  0  0  0
 31 36  1  0  0  0  0
 32 31  1  0  0  0  0
 33 32  2  0  0  0  0
 33 34  1  0  0  0  0
 34 35  2  0  0  0  0
 35 36  1  0  0  0  0
 36 26  2  0  0  0  0
M  END
>  <minimizedAffinity>
-6.35983133

$$$$

 OpenBabel03272503313D

 36 39  0  0  1  0  0  0  0  0999 V2000
   37.8450   22.9570   35.2150 C   0  0  0  0  0  0  0  0  0  0  0  0
   37.5040   22.6690   36.5470 C   0  0  0  0  0  0  0  0  0  0  0  0
   37.6790   23.6700   37.4930 C   0  0  0  0  0  0  0  0  0  0  0  0
   38.1740   24.8700   37.0550 N   0  0  0  0  0  0  0  0  0  0  0  0
   38.4890   25.1120   35.7820 C   0  0  0  0  0  0  0  0  0  0  0  0
   38.3290   24.1610   34.8520 N   0  0  0  0  0  0  0  0  0  0  0  0
   37.1140   21.7140   36.8680 H   0  0  0  0  0  0  0  0  0  0  0  0
   37.4420   23.5330   38.5340 H   0  0  0  0  0  0  0  0  0  0  0  0
   37.6580   21.9130   34.2500 N   0  0  0  0  0  0  0  0  0  0  0  0
   36.4880   21.0970   34.0740 C   0  0  0  0  0  0  0  0  0  0  0  0
   36.5510   20.7580   32.5790 C   0  0  2  0  0  0  0  0  0  0  0  0
   37.7290   21.5270   32.0280 C   0  0  0  0  0  0  0  0  0  0  0  0
   38.6230   21.4850   33.2660 C   0  0  0  0  0  0  0  0  0  0  0  0
   35.5450   21.5790   34.3380 H   0  0  0  0  0  0  0  0  0  0  0  0
   36.6590   20.1680   34.6810 H   0  0  0  0  0  0  0  0  0  0  0  0
   36.7880   19.6920   32.4680 H   0  0  0  0  0  0  0  0  0  0  0  0
   37.4880   22.5880   31.8220 H   0  0  0  0  0  0  0  0  0  0  0  0
   38.2500   21.0200   31.2180 H   0  0  0  0  0  0  0  0  0  0  0  0
   39.0390   20.4820   33.4420 H   0  0  0  0  0  0  0  0  0  0  0  0
   39.3630   22.2800   33.1280 H   0  0  0  0  0  0  0  0  0  0  0  0
   35.2670   21.0640   31.8720 C   0  0  0  0  0  0  0  0  0  0  0  0
   34.7190   22.1490   32.5300 F   0  0  0  0  0  0  0  0  0  0  0  0
   34.4080   20.0140   32.0790 F   0  0  0  0  0  0  0  0  0  0  0  0
   35.4180   21.2930   30.5380 F   0  0  0  0  0  0  0  0  0  0  0  0
   39.1350   26.6960   35.2750 S   0  0  0  0  0  0  0  0  0  0  0  0
   38.7580   27.0360   33.5620 C   0  0  0  0  0  0  0  0  0  0  0  0
   39.5270   26.6670   32.4720 C   0  0  0  0  0  0  0  0  0  0  0  0
   40.4300   26.1290   32.6990 H   0  0  0  0  0  0  0  0  0  0  0  0
   39.0920   27.0100   31.1930 C   0  0  0  0  0  3  0  0  0  0  0  0
   37.9170   27.7040   30.9960 C   0  0  0  0  0  3  0  0  0  0  0  0
   37.1520   28.0700   32.0900 C   0  0  0  0  0  0  0  0  0  0  0  0
   35.9670   28.7710   31.8820 C   0  0  0  0  0  3  0  0  0  0  0  0
   35.1810   29.1500   32.9530 C   0  0  0  0  0  3  0  0  0  0  0  0
   35.5800   28.8290   34.2200 C   0  0  0  0  0  3  0  0  0  0  0  0
   36.7490   28.1410   34.3760 C   0  0  0  0  0  3  0  0  0  0  0  0
   37.5790   27.7330   33.3610 C   0  0  0  0  0  0  0  0  0  0  0  0
  1  2  1  0  0  0  0
  2  7  1  0  0  0  0
  2  3  2  0  0  0  0
  3  8  1  0  0  0  0
  4  3  1  0  0  0  0
  5  4  2  0  0  0  0
  6  1  2  0  0  0  0
  6  5  1  0  0  0  0
  9  1  1  0  0  0  0
 10  9  1  0  0  0  0
 10 14  1  0  0  0  0
 10 15  1  0  0  0  0
 11 16  1  6  0  0  0
 11 10  1  0  0  0  0
 12 11  1  0  0  0  0
 12 13  1  0  0  0  0
 13 19  1  0  0  0  0
 13  9  1  0  0  0  0
 17 12  1  0  0  0  0
 18 12  1  0  0  0  0
 20 13  1  0  0  0  0
 21 23  1  0  0  0  0
 21 22  1  0  0  0  0
 21 11  1  0  0  0  0
 24 21  1  0  0  0  0
 25  5  1  0  0  0  0
 26 25  1  0  0  0  0
 27 28  1  0  0  0  0
 27 26  2  0  0  0  0
 29 27  1  0  0  0  0
 30 29  2  0  0  0  0
 30 31  1  0  0  0  0
 31 36  1  0  0  0  0
 32 31  2  0  0  0  0
 32 33  1  0  0  0  0
 33 34  2  0  0  0  0
 34 35  1  0  0  0  0
 36 26  1  0  0  0  0
 36 35  2  0  0  0  0
M  END
>  <minimizedAffinity>
-6.26235294

$$$$

 OpenBabel03272503313D

 36 39  0  0  1  0  0  0  0  0999 V2000
   36.1460   30.6670   31.4060 C   0  0  0  0  0  0  0  0  0  0  0  0
   36.3050   31.4600   30.2580 C   0  0  0  0  0  0  0  0  0  0  0  0
   37.0240   30.9270   29.1960 C   0  0  0  0  0  0  0  0  0  0  0  0
   37.5270   29.6630   29.3490 N   0  0  0  0  0  0  0  0  0  0  0  0
   37.3590   28.9350   30.4540 C   0  0  0  0  0  0  0  0  0  0  0  0
   36.6690   29.4280   31.4910 N   0  0  0  0  0  0  0  0  0  0  0  0
   35.8980   32.4560   30.1610 H   0  0  0  0  0  0  0  0  0  0  0  0
   37.1920   31.4660   28.2800 H   0  0  0  0  0  0  0  0  0  0  0  0
   35.4010   31.2310   32.4940 N   0  0  0  0  0  0  0  0  0  0  0  0
   35.1770   30.6420   33.7860 C   0  0  0  0  0  0  0  0  0  0  0  0
   35.0270   31.8770   34.6840 C   0  0  2  0  0  0  0  0  0  0  0  0
   35.2930   33.0700   33.7970 C   0  0  0  0  0  0  0  0  0  0  0  0
   34.7320   32.5090   32.4910 C   0  0  0  0  0  0  0  0  0  0  0  0
   35.9730   29.9830   34.1380 H   0  0  0  0  0  0  0  0  0  0  0  0
   34.1960   30.1010   33.7180 H   0  0  0  0  0  0  0  0  0  0  0  0
   33.9820   31.9520   35.0100 H   0  0  0  0  0  0  0  0  0  0  0  0
   36.3740   33.2580   33.6460 H   0  0  0  0  0  0  0  0  0  0  0  0
   34.7170   33.9560   34.0590 H   0  0  0  0  0  0  0  0  0  0  0  0
   33.6340   32.4490   32.5060 H   0  0  0  0  0  0  0  0  0  0  0  0
   35.1540   33.1280   31.6930 H   0  0  0  0  0  0  0  0  0  0  0  0
   35.9240   31.8230   35.8810 C   0  0  0  0  0  0  0  0  0  0  0  0
   36.5150   30.5720   35.8580 F   0  0  0  0  0  0  0  0  0  0  0  0
   35.1360   31.8550   37.0030 F   0  0  0  0  0  0  0  0  0  0  0  0
   36.8440   32.8260   35.9230 F   0  0  0  0  0  0  0  0  0  0  0  0
   38.0450   27.2940   30.5930 S   0  0  0  0  0  0  0  0  0  0  0  0
   39.3660   27.2390   31.7940 C   0  0  0  0  0  0  0  0  0  0  0  0
   40.7190   27.3190   31.5180 C   0  0  0  0  0  0  0  0  0  0  0  0
   40.9780   27.4220   30.4790 H   0  0  0  0  0  0  0  0  0  0  0  0
   41.6280   27.2600   32.5730 C   0  0  0  0  0  3  0  0  0  0  0  0
   41.2040   27.1250   33.8790 C   0  0  0  0  0  3  0  0  0  0  0  0
   39.8490   27.0460   34.1490 C   0  0  0  0  0  0  0  0  0  0  0  0
   39.4300   26.9100   35.4700 C   0  0  0  0  0  3  0  0  0  0  0  0
   38.0850   26.8290   35.7720 C   0  0  0  0  0  3  0  0  0  0  0  0
   37.1680   26.8830   34.7590 C   0  0  0  0  0  3  0  0  0  0  0  0
   37.6250   27.0170   33.4790 C   0  0  0  0  0  3  0  0  0  0  0  0
   38.9440   27.1040   33.1060 C   0  0  0  0  0  0  0  0  0  0  0  0
  1  6  1  0  0  0  0
  1  9  1  0  0  0  0
  2  1  2  0  0  0  0
  3  4  2  0  0  0  0
  3  2  1  0  0  0  0
  4  5  1  0  0  0  0
  5 25  1  0  0  0  0
  5  6  2  0  0  0  0
  7  2  1  0  0  0  0
  8  3  1  0  0  0  0
  9 10  1  0  0  0  0
 10 14  1  0  0  0  0
 10 11  1  0  0  0  0
 11 16  1  1  0  0  0
 11 21  1  0  0  0  0
 12 18  1  0  0  0  0
 12 11  1  0  0  0  0
 13  9  1  0  0  0  0
 13 19  1  0  0  0  0
 13 12  1  0  0  0  0
 15 10  1  0  0  0  0
 17 12  1  0  0  0  0
 20 13  1  0  0  0  0
 21 24  1  0  0  0  0
 21 23  1  0  0  0  0
 22 21  1  0  0  0  0
 25 26  1  0  0  0  0
 26 36  1  0  0  0  0
 27 26  2  0  0  0  0
 27 29  1  0  0  0  0
 28 27  1  0  0  0  0
 29 30  2  0  0  0  0
 30 31  1  0  0  0  0
 31 32  1  0  0  0  0
 32 33  2  0  0  0  0
 34 33  1  0  0  0  0
 35 34  2  0  0  0  0
 36 35  1  0  0  0  0
 36 31  2  0  0  0  0
M  END
>  <minimizedAffinity>
-6.25969172

$$$$

 OpenBabel03272503313D

 36 39  0  0  1  0  0  0  0  0999 V2000
   37.0530   28.5730   31.6060 C   0  0  0  0  0  0  0  0  0  0  0  0
   37.5940   28.9540   30.3670 C   0  0  0  0  0  0  0  0  0  0  0  0
   37.0730   30.0850   29.7510 C   0  0  0  0  0  0  0  0  0  0  0  0
   36.0640   30.7460   30.4010 N   0  0  0  0  0  0  0  0  0  0  0  0
   35.5720   30.3580   31.5770 C   0  0  0  0  0  0  0  0  0  0  0  0
   36.0590   29.2700   32.1900 N   0  0  0  0  0  0  0  0  0  0  0  0
   38.3910   28.4160   29.8740 H   0  0  0  0  0  0  0  0  0  0  0  0
   37.4300   30.4460   28.8020 H   0  0  0  0  0  0  0  0  0  0  0  0
   37.6020   27.4040   32.2290 N   0  0  0  0  0  0  0  0  0  0  0  0
   38.9720   27.1890   32.6070 C   0  0  0  0  0  0  0  0  0  0  0  0
   38.8330   26.2310   33.7980 C   0  0  2  0  0  0  0  0  0  0  0  0
   37.3490   26.0830   34.0410 C   0  0  0  0  0  0  0  0  0  0  0  0
   36.8710   26.2160   32.5960 C   0  0  0  0  0  0  0  0  0  0  0  0
   39.5240   28.0900   32.8790 H   0  0  0  0  0  0  0  0  0  0  0  0
   39.4550   26.6550   31.7460 H   0  0  0  0  0  0  0  0  0  0  0  0
   39.2050   25.2420   33.5020 H   0  0  0  0  0  0  0  0  0  0  0  0
   36.9240   26.9290   34.6150 H   0  0  0  0  0  0  0  0  0  0  0  0
   37.0550   25.1010   34.4040 H   0  0  0  0  0  0  0  0  0  0  0  0
   37.1160   25.3270   31.9960 H   0  0  0  0  0  0  0  0  0  0  0  0
   35.8050   26.4600   32.6530 H   0  0  0  0  0  0  0  0  0  0  0  0
   39.5810   26.7090   35.0040 C   0  0  0  0  0  0  0  0  0  0  0  0
   39.5720   25.6550   35.8990 F   0  0  0  0  0  0  0  0  0  0  0  0
   38.8490   27.7130   35.5860 F   0  0  0  0  0  0  0  0  0  0  0  0
   40.8420   27.1420   34.7300 F   0  0  0  0  0  0  0  0  0  0  0  0
   34.2530   31.2610   32.3710 S   0  0  0  0  0  0  0  0  0  0  0  0
   34.6390   31.6110   34.0800 C   0  0  0  0  0  0  0  0  0  0  0  0
   35.8110   32.1750   34.5490 C   0  0  0  0  0  0  0  0  0  0  0  0
   36.5450   32.4170   33.8010 H   0  0  0  0  0  0  0  0  0  0  0  0
   35.9580   32.3840   35.9200 C   0  0  0  0  0  3  0  0  0  0  0  0
   34.9620   32.0410   36.8090 C   0  0  0  0  0  3  0  0  0  0  0  0
   33.7910   31.4780   36.3330 C   0  0  0  0  0  0  0  0  0  0  0  0
   32.7900   31.1340   37.2390 C   0  0  0  0  0  3  0  0  0  0  0  0
   31.6090   30.5700   36.7950 C   0  0  0  0  0  3  0  0  0  0  0  0
   31.4350   30.3520   35.4570 C   0  0  0  0  0  3  0  0  0  0  0  0
   32.4430   30.7040   34.6070 C   0  0  0  0  0  3  0  0  0  0  0  0
   33.6400   31.2680   34.9760 C   0  0  0  0  0  0  0  0  0  0  0  0
  1  6  1  0  0  0  0
  1  9  1  0  0  0  0
  2  1  2  0  0  0  0
  3  2  1  0  0  0  0
  3  4  2  0  0  0  0
  4  5  1  0  0  0  0
  5  6  2  0  0  0  0
  5 25  1  0  0  0  0
  7  2  1  0  0  0  0
  8  3  1  0  0  0  0
  9 13  1  0  0  0  0
  9 10  1  0  0  0  0
 10 14  1  0  0  0  0
 10 11  1  0  0  0  0
 11 16  1  6  0  0  0
 11 12  1  0  0  0  0
 11 21  1  0  0  0  0
 12 18  1  0  0  0  0
 12 17  1  0  0  0  0
 13 20  1  0  0  0  0
 13 12  1  0  0  0  0
 15 10  1  0  0  0  0
 19 13  1  0  0  0  0
 21 23  1  0  0  0  0
 21 22  1  0  0  0  0
 24 21  1  0  0  0  0
 25 26  1  0  0  0  0
 26 27  2  0  0  0  0
 26 36  1  0  0  0  0
 27 29  1  0  0  0  0
 28 27  1  0  0  0  0
 29 30  2  0  0  0  0
 31 30  1  0  0  0  0
 31 32  1  0  0  0  0
 33 32  2  0  0  0  0
 34 33  1  0  0  0  0
 35 36  1  0  0  0  0
 35 34  2  0  0  0  0
 36 31  2  0  0  0  0
M  END
>  <minimizedAffinity>
-6.17699909

$$$$
