
 OpenBabel03272501303D

 22 24  0  0  0  0  0  0  0  0999 V2000
   38.2840   31.5290   46.0360 C   0  0  0  0  0  0  0  0  0  0  0  0
   38.9350   32.5840   46.2880 O   0  0  0  0  0  0  0  0  0  0  0  0
   38.3110   30.8620   44.7160 C   0  0  0  0  0  0  0  0  0  0  0  0
   39.0520   29.6750   44.6550 C   0  0  0  0  0  0  0  0  0  0  0  0
   39.5580   29.2980   45.5570 H   0  0  0  0  0  0  0  0  0  0  0  0
   39.2110   28.9080   43.5360 C   0  0  0  0  0  3  0  0  0  0  0  0
   38.6030   29.3240   42.3770 C   0  0  0  0  0  3  0  0  0  0  0  0
   37.8680   30.4900   42.4120 C   0  0  0  0  0  0  0  0  0  0  0  0
   37.2120   30.9960   41.2880 C   0  0  0  0  0  3  0  0  0  0  0  0
   36.4740   32.1610   41.3160 C   0  0  0  0  0  3  0  0  0  0  0  0
   36.3600   32.8840   42.4940 C   0  0  0  0  0  3  0  0  0  0  0  0
   36.9910   32.4230   43.6310 C   0  0  0  0  0  3  0  0  0  0  0  0
   37.7150   31.2550   43.5460 C   0  0  0  0  0  0  0  0  0  0  0  0
   37.0850   29.9410   49.2020 C   0  0  0  0  0  0  0  0  0  0  0  0
   37.9540   30.5800   48.2890 C   0  0  0  0  0  0  0  0  0  0  0  0
   37.4420   30.8690   47.0320 C   0  0  0  0  0  0  0  0  0  0  0  0
   36.1460   30.5190   46.7620 N   0  0  0  0  0  0  0  0  0  0  0  0
   35.3550   29.9160   47.6500 C   0  0  0  0  0  0  0  0  0  0  0  0
   35.8070   29.6210   48.8690 N   0  0  0  0  0  0  0  0  0  0  0  0
   37.4890   29.7240   50.1680 H   0  0  0  0  0  0  0  0  0  0  0  0
   38.9560   30.8450   48.5150 H   0  0  0  0  0  0  0  0  0  0  0  0
   34.3350   29.6350   47.4510 H   0  0  0  0  0  0  0  0  0  0  0  0
  1  2  2  0  0  0  0
  1 16  1  0  0  0  0
  3  1  1  0  0  0  0
  4  3  1  0  0  0  0
  4  5  1  0  0  0  0
  6  4  2  0  0  0  0
  7  8  2  0  0  0  0
  7  6  1  0  0  0  0
  8 13  1  0  0  0  0
  9 10  2  0  0  0  0
  9  8  1  0  0  0  0
 10 11  1  0  0  0  0
 11 12  2  0  0  0  0
 13 12  1  0  0  0  0
 13  3  2  0  0  0  0
 14 20  1  0  0  0  0
 15 21  1  0  0  0  0
 15 14  2  0  0  0  0
 16 15  1  0  0  0  0
 17 16  2  0  0  0  0
 17 18  1  0  0  0  0
 18 19  2  0  0  0  0
 19 14  1  0  0  0  0
 22 18  1  0  0  0  0
M  END
>  <minimizedAffinity>
-4.26631165

>  <minimizedRMSD>
2.24180436

$$$$
