
 OpenBabel03262521353D

 39 43  0  0  1  0  0  0  0  0999 V2000
   38.3550   31.7330   45.3820 C   0  0  1  0  0  0  0  0  0  0  0  0
   38.8790   32.6150   46.4680 C   0  0  2  0  0  0  0  0  0  0  0  0
   40.3210   32.8730   46.0440 C   0  0  0  0  0  0  0  0  0  0  0  0
   40.7050   31.6340   45.6190 O   0  0  0  0  0  0  0  0  0  0  0  0
   39.6700   31.0160   44.9720 C   0  0  0  0  0  0  0  0  0  0  0  0
   38.1630   32.3850   44.5110 H   0  0  0  0  0  0  0  0  0  0  0  0
   38.3660   33.5980   46.3880 H   0  0  0  0  0  0  0  0  0  0  0  0
   40.8790   33.1570   46.9510 H   0  0  0  0  0  0  0  0  0  0  0  0
   40.3330   33.6490   45.2570 H   0  0  0  0  0  0  0  0  0  0  0  0
   39.5630   29.9550   45.2730 H   0  0  0  0  0  0  0  0  0  0  0  0
   39.8490   31.0610   43.9000 H   0  0  0  0  0  0  0  0  0  0  0  0
   37.6570   32.4920   48.7590 C   0  0  1  0  0  0  0  0  0  0  0  0
   38.9190   33.1730   48.9230 C   0  0  0  0  0  0  0  0  0  0  0  0
   38.8180   32.0570   47.8630 C   0  0  2  0  0  0  0  0  0  0  0  0
   36.8260   32.9530   48.1650 H   0  0  0  0  0  0  0  0  0  0  0  0
   39.0660   34.2060   48.6110 H   0  0  0  0  0  0  0  0  0  0  0  0
   39.5400   32.9060   49.8190 H   0  0  0  0  0  0  0  0  0  0  0  0
   39.3620   31.1340   48.0850 H   0  0  0  0  0  0  0  0  0  0  0  0
   35.5110   29.9180   50.4150 C   0  0  0  0  0  0  0  0  0  0  0  0
   35.9230   30.9230   49.5500 C   0  0  0  0  0  0  0  0  0  0  0  0
   37.2040   31.4250   49.6620 C   0  0  0  0  0  0  0  0  0  0  0  0
   38.0110   30.8910   50.6440 N   0  0  0  0  0  0  0  0  0  0  0  0
   37.6020   29.9130   51.4820 C   0  0  0  0  0  0  0  0  0  0  0  0
   36.3290   29.4120   51.3720 N   0  0  0  0  0  0  0  0  0  0  0  0
   34.5190   29.4750   50.3830 H   0  0  0  0  0  0  0  0  0  0  0  0
   35.1860   31.2630   48.8650 H   0  0  0  0  0  0  0  0  0  0  0  0
   38.3340   29.5770   52.2180 H   0  0  0  0  0  0  0  0  0  0  0  0
   37.4400   30.8150   45.7610 O   0  0  0  0  0  0  0  0  0  0  0  0
   36.4140   30.2320   45.1450 C   0  0  0  0  0  0  0  0  0  0  0  0
   36.7990   30.0370   43.8080 C   0  0  0  0  0  0  0  0  0  0  0  0
   37.7370   30.2860   43.3040 H   0  0  0  0  0  0  0  0  0  0  0  0
   35.9830   29.4490   42.8380 C   0  0  0  0  0  0  0  0  0  0  0  0
   34.7100   29.0220   43.1910 C   0  0  0  0  0  0  0  0  0  0  0  0
   34.2820   29.1870   44.4900 C   0  0  0  0  0  0  0  0  0  0  0  0
   33.0550   28.7830   44.9670 C   0  0  0  0  0  0  0  0  0  0  0  0
   32.6540   28.9340   46.2870 C   0  0  0  0  0  0  0  0  0  0  0  0
   33.5650   29.5300   47.1510 C   0  0  0  0  0  0  0  0  0  0  0  0
   34.7910   29.9370   46.6820 C   0  0  0  0  0  0  0  0  0  0  0  0
   35.1460   29.7730   45.3810 C   0  0  0  0  0  0  0  0  0  0  0  0
  1  6  1  6  0  0  0
  1 28  1  0  0  0  0
  1  2  1  0  0  0  0
  2  7  1  6  0  0  0
  2 14  1  0  0  0  0
  3  2  1  0  0  0  0
  3  8  1  0  0  0  0
  4  3  1  0  0  0  0
  5 10  1  0  0  0  0
  5  1  1  0  0  0  0
  5  4  1  0  0  0  0
  9  3  1  0  0  0  0
 11  5  1  0  0  0  0
 12 15  1  6  0  0  0
 12 13  1  0  0  0  0
 12 21  1  0  0  0  0
 13 17  1  0  0  0  0
 14 18  1  1  0  0  0
 14 12  1  0  0  0  0
 14 13  1  0  0  0  0
 16 13  1  0  0  0  0
 19 24  1  0  0  0  0
 20 21  1  0  0  0  0
 20 19  2  0  0  0  0
 21 22  2  0  0  0  0
 22 23  1  0  0  0  0
 23 27  1  0  0  0  0
 24 23  2  0  0  0  0
 25 19  1  0  0  0  0
 26 20  1  0  0  0  0
 29 39  1  0  0  0  0
 29 28  1  0  0  0  0
 30 29  2  0  0  0  0
 31 30  1  0  0  0  0
 32 33  2  0  0  0  0
 32 30  1  0  0  0  0
 33 34  1  0  0  0  0
 34 35  2  0  0  0  0
 34 39  1  0  0  0  0
 35 36  1  0  0  0  0
 36 37  2  0  0  0  0
 38 37  1  0  0  0  0
 39 38  2  0  0  0  0
M  END
>  <minimizedAffinity>
-6.1657958

>  <minimizedRMSD>
2.10993075

$$$$
