
 OpenBabel03272509513D

 35 38  0  0  0  0  0  0  0  0999 V2000
   36.2250   29.2570   31.4040 C   0  0  0  0  0  0  0  0  0  0  0  0
   35.6960   30.1230   32.3650 C   0  0  0  0  0  0  0  0  0  0  0  0
   35.5930   29.7220   33.6770 C   0  0  0  0  0  0  0  0  0  0  0  0
   36.0390   28.4450   33.9290 N   0  0  0  0  0  0  0  0  0  0  0  0
   36.5400   27.6190   33.0250 C   0  0  0  0  0  0  0  0  0  0  0  0
   36.6240   28.0520   31.7620 N   0  0  0  0  0  0  0  0  0  0  0  0
   36.3100   29.5660   30.3750 H   0  0  0  0  0  0  0  0  0  0  0  0
   35.3550   31.0590   31.9860 H   0  0  0  0  0  0  0  0  0  0  0  0
   35.0100   30.4420   34.7880 C   0  0  0  0  0  0  0  0  0  0  0  0
   35.8510   31.3950   35.3830 C   0  0  0  0  0  0  0  0  0  0  0  0
   36.8770   31.5530   35.0150 H   0  0  0  0  0  0  0  0  0  0  0  0
   35.4900   32.1920   36.4420 C   0  0  0  0  0  3  0  0  0  0  0  0
   34.2450   32.0880   36.9820 C   0  0  0  0  0  3  0  0  0  0  0  0
   33.3820   31.1790   36.4420 C   0  0  0  0  0  0  0  0  0  0  0  0
   32.1030   31.0540   36.9220 C   0  0  0  0  0  3  0  0  0  0  0  0
   31.1820   30.1760   36.3860 C   0  0  0  0  0  3  0  0  0  0  0  0
   31.6080   29.4000   35.3090 C   0  0  0  0  0  3  0  0  0  0  0  0
   32.8860   29.5420   34.8480 C   0  0  0  0  0  3  0  0  0  0  0  0
   33.7880   30.4130   35.3920 C   0  0  0  0  0  0  0  0  0  0  0  0
   36.9140   26.3980   33.5310 O   0  0  0  0  0  0  0  0  0  0  0  0
   37.5110   26.3590   34.8140 C   0  0  0  0  0  0  0  0  0  0  0  0
   37.8280   27.4140   35.0290 H   0  0  0  0  0  0  0  0  0  0  0  0
   36.7790   26.0570   35.5960 H   0  0  0  0  0  0  0  0  0  0  0  0
   38.7450   25.5170   34.8220 C   0  0  0  0  0  0  0  0  0  0  0  0
   38.7020   24.8570   33.9220 H   0  0  0  0  0  0  0  0  0  0  0  0
   39.6560   26.1350   34.7210 H   0  0  0  0  0  0  0  0  0  0  0  0
   38.8400   24.6520   36.0340 C   0  0  0  0  0  0  0  0  0  0  0  0
   37.9690   24.9220   37.0850 C   0  0  0  0  0  0  0  0  0  0  0  0
   37.9710   24.1900   38.2410 C   0  0  0  0  0  0  0  0  0  0  0  0
   38.8420   23.1770   38.3710 N   0  0  0  0  0  0  0  0  0  0  0  0
   39.6930   22.9170   37.3370 C   0  0  0  0  0  0  0  0  0  0  0  0
   39.7020   23.6320   36.1870 N   0  0  0  0  0  0  0  0  0  0  0  0
   37.2410   25.7230   37.0510 H   0  0  0  0  0  0  0  0  0  0  0  0
   37.2950   24.4010   39.0560 H   0  0  0  0  0  0  0  0  0  0  0  0
   40.4330   22.1220   37.3420 H   0  0  0  0  0  0  0  0  0  0  0  0
  1  6  2  0  0  0  0
  1  2  1  0  0  0  0
  2  3  2  0  0  0  0
  3  4  1  0  0  0  0
  3  9  1  0  0  0  0
  5 20  1  0  0  0  0
  5  4  2  0  0  0  0
  6  5  1  0  0  0  0
  7  1  1  0  0  0  0
  8  2  1  0  0  0  0
  9 10  2  0  0  0  0
  9 19  1  0  0  0  0
 10 12  1  0  0  0  0
 11 10  1  0  0  0  0
 12 13  2  0  0  0  0
 14 15  1  0  0  0  0
 14 13  1  0  0  0  0
 16 15  2  0  0  0  0
 17 16  1  0  0  0  0
 18 17  2  0  0  0  0
 18 19  1  0  0  0  0
 19 14  2  0  0  0  0
 20 21  1  0  0  0  0
 21 24  1  0  0  0  0
 21 22  1  0  0  0  0
 21 23  1  0  0  0  0
 24 27  1  0  0  0  0
 25 24  1  0  0  0  0
 26 24  1  0  0  0  0
 27 32  2  0  0  0  0
 27 28  1  0  0  0  0
 28 29  2  0  0  0  0
 29 30  1  0  0  0  0
 29 34  1  0  0  0  0
 31 35  1  0  0  0  0
 31 30  2  0  0  0  0
 32 31  1  0  0  0  0
 33 28  1  0  0  0  0
M  END
>  <minimizedAffinity>
-6.35554695

$$$$

 OpenBabel03272509513D

 35 38  0  0  0  0  0  0  0  0999 V2000
   38.4630   27.1860   33.1820 C   0  0  0  0  0  0  0  0  0  0  0  0
   38.9030   26.5670   34.3550 C   0  0  0  0  0  0  0  0  0  0  0  0
   38.4750   25.2980   34.6720 C   0  0  0  0  0  0  0  0  0  0  0  0
   37.6120   24.7340   33.7610 N   0  0  0  0  0  0  0  0  0  0  0  0
   37.1900   25.3140   32.6490 C   0  0  0  0  0  0  0  0  0  0  0  0
   37.6340   26.5460   32.3800 N   0  0  0  0  0  0  0  0  0  0  0  0
   38.7960   28.1790   32.9270 H   0  0  0  0  0  0  0  0  0  0  0  0
   39.5330   27.1680   34.9700 H   0  0  0  0  0  0  0  0  0  0  0  0
   38.7590   24.5320   35.8650 C   0  0  0  0  0  0  0  0  0  0  0  0
   37.8970   24.7750   36.9450 C   0  0  0  0  0  0  0  0  0  0  0  0
   37.0800   25.5090   36.8630 H   0  0  0  0  0  0  0  0  0  0  0  0
   37.9860   24.1470   38.1630 C   0  0  0  0  0  3  0  0  0  0  0  0
   38.9560   23.2180   38.3840 C   0  0  0  0  0  3  0  0  0  0  0  0
   39.8230   22.9370   37.3680 C   0  0  0  0  0  0  0  0  0  0  0  0
   40.7990   21.9860   37.5200 C   0  0  0  0  0  3  0  0  0  0  0  0
   41.6760   21.6400   36.5110 C   0  0  0  0  0  3  0  0  0  0  0  0
   41.5300   22.3100   35.2970 C   0  0  0  0  0  3  0  0  0  0  0  0
   40.5500   23.2550   35.1680 C   0  0  0  0  0  3  0  0  0  0  0  0
   39.6920   23.5880   36.1780 C   0  0  0  0  0  0  0  0  0  0  0  0
   36.3310   24.5390   31.9080 O   0  0  0  0  0  0  0  0  0  0  0  0
   36.6260   23.1620   31.7620 C   0  0  0  0  0  0  0  0  0  0  0  0
   36.9110   23.0310   30.6830 H   0  0  0  0  0  0  0  0  0  0  0  0
   37.4980   22.8620   32.3840 H   0  0  0  0  0  0  0  0  0  0  0  0
   35.4220   22.3110   32.0070 C   0  0  0  0  0  0  0  0  0  0  0  0
   35.1290   22.4530   33.0760 H   0  0  0  0  0  0  0  0  0  0  0  0
   34.5640   22.6420   31.3940 H   0  0  0  0  0  0  0  0  0  0  0  0
   35.6910   20.8610   31.7820 C   0  0  0  0  0  0  0  0  0  0  0  0
   35.2620   19.9700   32.7600 C   0  0  0  0  0  0  0  0  0  0  0  0
   35.4580   18.6200   32.6530 C   0  0  0  0  0  0  0  0  0  0  0  0
   36.0840   18.1350   31.5690 N   0  0  0  0  0  0  0  0  0  0  0  0
   36.5020   19.0130   30.6140 C   0  0  0  0  0  0  0  0  0  0  0  0
   36.3150   20.3520   30.7060 N   0  0  0  0  0  0  0  0  0  0  0  0
   34.7510   20.2890   33.6600 H   0  0  0  0  0  0  0  0  0  0  0  0
   35.1250   17.9290   33.4130 H   0  0  0  0  0  0  0  0  0  0  0  0
   37.0160   18.7240   29.7030 H   0  0  0  0  0  0  0  0  0  0  0  0
  1  2  1  0  0  0  0
  2  3  2  0  0  0  0
  2  8  1  0  0  0  0
  3  9  1  0  0  0  0
  4  3  1  0  0  0  0
  5  4  2  0  0  0  0
  6  5  1  0  0  0  0
  6  1  2  0  0  0  0
  7  1  1  0  0  0  0
  9 19  2  0  0  0  0
  9 10  1  0  0  0  0
 10 12  2  0  0  0  0
 11 10  1  0  0  0  0
 12 13  1  0  0  0  0
 14 15  1  0  0  0  0
 14 13  2  0  0  0  0
 16 15  2  0  0  0  0
 17 16  1  0  0  0  0
 18 17  2  0  0  0  0
 18 19  1  0  0  0  0
 19 14  1  0  0  0  0
 20  5  1  0  0  0  0
 21 20  1  0  0  0  0
 21 24  1  0  0  0  0
 21 23  1  0  0  0  0
 22 21  1  0  0  0  0
 24 25  1  0  0  0  0
 26 24  1  0  0  0  0
 27 24  1  0  0  0  0
 27 28  1  0  0  0  0
 28 33  1  0  0  0  0
 29 28  2  0  0  0  0
 29 34  1  0  0  0  0
 30 29  1  0  0  0  0
 31 32  1  0  0  0  0
 31 30  2  0  0  0  0
 32 27  2  0  0  0  0
 35 31  1  0  0  0  0
M  END
>  <minimizedAffinity>
-6.26349878

$$$$

 OpenBabel03272509513D

 35 38  0  0  0  0  0  0  0  0999 V2000
   37.3170   28.7870   30.8240 C   0  0  0  0  0  0  0  0  0  0  0  0
   36.2660   29.4670   31.4430 C   0  0  0  0  0  0  0  0  0  0  0  0
   35.7680   29.0260   32.6470 C   0  0  0  0  0  0  0  0  0  0  0  0
   36.3800   27.9000   33.1480 N   0  0  0  0  0  0  0  0  0  0  0  0
   37.3750   27.2500   32.5680 C   0  0  0  0  0  0  0  0  0  0  0  0
   37.8290   27.7160   31.4000 N   0  0  0  0  0  0  0  0  0  0  0  0
   37.7130   29.1290   29.8810 H   0  0  0  0  0  0  0  0  0  0  0  0
   35.8790   30.2930   30.8910 H   0  0  0  0  0  0  0  0  0  0  0  0
   34.6470   29.5490   33.3960 C   0  0  0  0  0  0  0  0  0  0  0  0
   33.3850   29.1340   32.9420 C   0  0  0  0  0  0  0  0  0  0  0  0
   33.2880   28.4670   32.0720 H   0  0  0  0  0  0  0  0  0  0  0  0
   32.1950   29.5070   33.5180 C   0  0  0  0  0  3  0  0  0  0  0  0
   32.1880   30.3290   34.6030 C   0  0  0  0  0  3  0  0  0  0  0  0
   33.3860   30.7620   35.0910 C   0  0  0  0  0  0  0  0  0  0  0  0
   33.4440   31.5640   36.2020 C   0  0  0  0  0  3  0  0  0  0  0  0
   34.6320   31.9980   36.7550 C   0  0  0  0  0  3  0  0  0  0  0  0
   35.8050   31.5810   36.1290 C   0  0  0  0  0  3  0  0  0  0  0  0
   35.7240   30.7830   35.0220 C   0  0  0  0  0  3  0  0  0  0  0  0
   34.5390   30.3640   34.4840 C   0  0  0  0  0  0  0  0  0  0  0  0
   37.8120   26.1540   33.2740 O   0  0  0  0  0  0  0  0  0  0  0  0
   38.4220   26.3670   34.5320 C   0  0  0  0  0  0  0  0  0  0  0  0
   39.4160   25.8470   34.4740 H   0  0  0  0  0  0  0  0  0  0  0  0
   38.6140   27.4480   34.7170 H   0  0  0  0  0  0  0  0  0  0  0  0
   37.6490   25.7210   35.6370 C   0  0  0  0  0  0  0  0  0  0  0  0
   37.3870   26.5240   36.3690 H   0  0  0  0  0  0  0  0  0  0  0  0
   36.6960   25.3010   35.2680 H   0  0  0  0  0  0  0  0  0  0  0  0
   38.4360   24.6740   36.3490 C   0  0  0  0  0  0  0  0  0  0  0  0
   38.0380   24.3400   37.6400 C   0  0  0  0  0  0  0  0  0  0  0  0
   38.6900   23.3920   38.3820 C   0  0  0  0  0  0  0  0  0  0  0  0
   39.7500   22.7620   37.8510 N   0  0  0  0  0  0  0  0  0  0  0  0
   40.1350   23.0940   36.5850 C   0  0  0  0  0  0  0  0  0  0  0  0
   39.5000   24.0290   35.8390 N   0  0  0  0  0  0  0  0  0  0  0  0
   37.1940   24.8070   38.1320 H   0  0  0  0  0  0  0  0  0  0  0  0
   38.3810   23.1340   39.3840 H   0  0  0  0  0  0  0  0  0  0  0  0
   40.9750   22.6440   36.0670 H   0  0  0  0  0  0  0  0  0  0  0  0
  1  6  2  0  0  0  0
  1  2  1  0  0  0  0
  2  3  2  0  0  0  0
  3  4  1  0  0  0  0
  3  9  1  0  0  0  0
  5  4  2  0  0  0  0
  5 20  1  0  0  0  0
  6  5  1  0  0  0  0
  7  1  1  0  0  0  0
  8  2  1  0  0  0  0
  9 19  1  0  0  0  0
 10  9  2  0  0  0  0
 10 12  1  0  0  0  0
 11 10  1  0  0  0  0
 12 13  2  0  0  0  0
 13 14  1  0  0  0  0
 14 15  1  0  0  0  0
 15 16  2  0  0  0  0
 17 16  1  0  0  0  0
 18 17  2  0  0  0  0
 19 18  1  0  0  0  0
 19 14  2  0  0  0  0
 20 21  1  0  0  0  0
 21 23  1  0  0  0  0
 21 24  1  0  0  0  0
 22 21  1  0  0  0  0
 24 27  1  0  0  0  0
 24 25  1  0  0  0  0
 26 24  1  0  0  0  0
 27 28  1  0  0  0  0
 28 33  1  0  0  0  0
 28 29  2  0  0  0  0
 29 34  1  0  0  0  0
 30 29  1  0  0  0  0
 31 30  2  0  0  0  0
 32 27  2  0  0  0  0
 32 31  1  0  0  0  0
 35 31  1  0  0  0  0
M  END
>  <minimizedAffinity>
-6.14727926

$$$$

 OpenBabel03272509513D

 35 38  0  0  0  0  0  0  0  0999 V2000
   43.5830   26.5910   33.9110 C   0  0  0  0  0  0  0  0  0  0  0  0
   42.2980   27.1240   33.7790 C   0  0  0  0  0  0  0  0  0  0  0  0
   41.2260   26.5070   34.3810 C   0  0  0  0  0  0  0  0  0  0  0  0
   41.5360   25.3670   35.0860 N   0  0  0  0  0  0  0  0  0  0  0  0
   42.7500   24.8550   35.2150 C   0  0  0  0  0  0  0  0  0  0  0  0
   43.7620   25.4910   34.6150 N   0  0  0  0  0  0  0  0  0  0  0  0
   44.4270   27.0720   33.4430 H   0  0  0  0  0  0  0  0  0  0  0  0
   42.2310   27.9870   33.1570 H   0  0  0  0  0  0  0  0  0  0  0  0
   39.8270   26.8630   34.2980 C   0  0  0  0  0  0  0  0  0  0  0  0
   39.2010   27.1010   35.5320 C   0  0  0  0  0  0  0  0  0  0  0  0
   39.7580   27.0050   36.4760 H   0  0  0  0  0  0  0  0  0  0  0  0
   37.8830   27.4600   35.6740 C   0  0  0  0  0  3  0  0  0  0  0  0
   37.0930   27.6110   34.5760 C   0  0  0  0  0  3  0  0  0  0  0  0
   37.6480   27.3960   33.3480 C   0  0  0  0  0  0  0  0  0  0  0  0
   36.9110   27.5670   32.2040 C   0  0  0  0  0  3  0  0  0  0  0  0
   37.4370   27.3970   30.9380 C   0  0  0  0  0  3  0  0  0  0  0  0
   38.7810   27.0380   30.8610 C   0  0  0  0  0  3  0  0  0  0  0  0
   39.4960   26.8730   32.0140 C   0  0  0  0  0  3  0  0  0  0  0  0
   38.9610   27.0410   33.2600 C   0  0  0  0  0  0  0  0  0  0  0  0
   42.7940   23.7090   35.9720 O   0  0  0  0  0  0  0  0  0  0  0  0
   41.9800   22.6190   35.5850 C   0  0  0  0  0  0  0  0  0  0  0  0
   41.2150   23.0500   34.8850 H   0  0  0  0  0  0  0  0  0  0  0  0
   42.5600   21.8520   35.0260 H   0  0  0  0  0  0  0  0  0  0  0  0
   41.2380   22.0450   36.7490 C   0  0  0  0  0  0  0  0  0  0  0  0
   41.0270   20.9740   36.5110 H   0  0  0  0  0  0  0  0  0  0  0  0
   41.8580   22.0510   37.6650 H   0  0  0  0  0  0  0  0  0  0  0  0
   39.9400   22.7360   36.9980 C   0  0  0  0  0  0  0  0  0  0  0  0
   39.1720   23.0760   35.8890 C   0  0  0  0  0  0  0  0  0  0  0  0
   37.9650   23.7120   36.0050 C   0  0  0  0  0  0  0  0  0  0  0  0
   37.5040   24.0200   37.2270 N   0  0  0  0  0  0  0  0  0  0  0  0
   38.2620   23.6840   38.3110 C   0  0  0  0  0  0  0  0  0  0  0  0
   39.4570   23.0550   38.2120 N   0  0  0  0  0  0  0  0  0  0  0  0
   39.4800   22.8590   34.8740 H   0  0  0  0  0  0  0  0  0  0  0  0
   37.3700   23.9760   35.1440 H   0  0  0  0  0  0  0  0  0  0  0  0
   37.9800   23.8880   39.3380 H   0  0  0  0  0  0  0  0  0  0  0  0
  1  6  1  0  0  0  0
  2  1  2  0  0  0  0
  2  3  1  0  0  0  0
  3  4  2  0  0  0  0
  4  5  1  0  0  0  0
  5 20  1  0  0  0  0
  6  5  2  0  0  0  0
  7  1  1  0  0  0  0
  8  2  1  0  0  0  0
  9  3  1  0  0  0  0
  9 10  1  0  0  0  0
 10 12  2  0  0  0  0
 10 11  1  0  0  0  0
 13 12  1  0  0  0  0
 14 13  2  0  0  0  0
 15 14  1  0  0  0  0
 16 15  2  0  0  0  0
 17 16  1  0  0  0  0
 17 18  2  0  0  0  0
 18 19  1  0  0  0  0
 19 14  1  0  0  0  0
 19  9  2  0  0  0  0
 21 20  1  0  0  0  0
 21 24  1  0  0  0  0
 22 21  1  0  0  0  0
 23 21  1  0  0  0  0
 24 27  1  0  0  0  0
 24 26  1  0  0  0  0
 25 24  1  0  0  0  0
 27 32  1  0  0  0  0
 28 29  1  0  0  0  0
 28 27  2  0  0  0  0
 29 30  2  0  0  0  0
 30 31  1  0  0  0  0
 31 35  1  0  0  0  0
 32 31  2  0  0  0  0
 33 28  1  0  0  0  0
 34 29  1  0  0  0  0
M  END
>  <minimizedAffinity>
-6.13550234

$$$$

 OpenBabel03272509513D

 35 38  0  0  0  0  0  0  0  0999 V2000
   37.5740   25.4260   32.5640 C   0  0  0  0  0  0  0  0  0  0  0  0
   38.0240   24.6000   33.5970 C   0  0  0  0  0  0  0  0  0  0  0  0
   37.9690   25.0310   34.9030 C   0  0  0  0  0  0  0  0  0  0  0  0
   37.4550   26.2950   35.0740 N   0  0  0  0  0  0  0  0  0  0  0  0
   37.0270   27.0840   34.1010 C   0  0  0  0  0  0  0  0  0  0  0  0
   37.0970   26.6220   32.8480 N   0  0  0  0  0  0  0  0  0  0  0  0
   37.6120   25.0930   31.5400 H   0  0  0  0  0  0  0  0  0  0  0  0
   38.4370   23.6700   33.2810 H   0  0  0  0  0  0  0  0  0  0  0  0
   38.4510   24.3550   36.0870 C   0  0  0  0  0  0  0  0  0  0  0  0
   37.7240   24.6210   37.2590 C   0  0  0  0  0  0  0  0  0  0  0  0
   36.8610   25.3050   37.2460 H   0  0  0  0  0  0  0  0  0  0  0  0
   38.0080   24.0750   38.4860 C   0  0  0  0  0  3  0  0  0  0  0  0
   39.0520   23.2120   38.6260 C   0  0  0  0  0  3  0  0  0  0  0  0
   39.7940   22.9140   37.5200 C   0  0  0  0  0  0  0  0  0  0  0  0
   40.8360   22.0250   37.5920 C   0  0  0  0  0  3  0  0  0  0  0  0
   41.5920   21.6630   36.4950 C   0  0  0  0  0  3  0  0  0  0  0  0
   41.2500   22.2470   35.2770 C   0  0  0  0  0  3  0  0  0  0  0  0
   40.2080   23.1310   35.2290 C   0  0  0  0  0  3  0  0  0  0  0  0
   39.4710   23.4820   36.3240 C   0  0  0  0  0  0  0  0  0  0  0  0
   36.5590   28.3000   34.5340 O   0  0  0  0  0  0  0  0  0  0  0  0
   35.6110   28.9790   33.7320 C   0  0  0  0  0  0  0  0  0  0  0  0
   36.2140   29.6420   33.0550 H   0  0  0  0  0  0  0  0  0  0  0  0
   35.0360   28.2730   33.0930 H   0  0  0  0  0  0  0  0  0  0  0  0
   34.7300   29.8660   34.5500 C   0  0  0  0  0  0  0  0  0  0  0  0
   34.6660   29.4180   35.5710 H   0  0  0  0  0  0  0  0  0  0  0  0
   35.1720   30.8720   34.6700 H   0  0  0  0  0  0  0  0  0  0  0  0
   33.3490   29.9700   33.9950 C   0  0  0  0  0  0  0  0  0  0  0  0
   32.3320   29.3110   34.6790 C   0  0  0  0  0  0  0  0  0  0  0  0
   31.0310   29.3420   34.2570 C   0  0  0  0  0  0  0  0  0  0  0  0
   30.7200   30.0290   33.1460 N   0  0  0  0  0  0  0  0  0  0  0  0
   31.7220   30.6720   32.4800 C   0  0  0  0  0  0  0  0  0  0  0  0
   33.0140   30.6510   32.8860 N   0  0  0  0  0  0  0  0  0  0  0  0
   32.5080   28.7390   35.5810 H   0  0  0  0  0  0  0  0  0  0  0  0
   30.2420   28.8300   34.7880 H   0  0  0  0  0  0  0  0  0  0  0  0
   31.5760   31.2520   31.5750 H   0  0  0  0  0  0  0  0  0  0  0  0
  1  6  2  0  0  0  0
  1  2  1  0  0  0  0
  2  3  2  0  0  0  0
  3  4  1  0  0  0  0
  3  9  1  0  0  0  0
  5 20  1  0  0  0  0
  5  4  2  0  0  0  0
  6  5  1  0  0  0  0
  7  1  1  0  0  0  0
  8  2  1  0  0  0  0
  9 19  2  0  0  0  0
  9 10  1  0  0  0  0
 10 12  2  0  0  0  0
 11 10  1  0  0  0  0
 12 13  1  0  0  0  0
 14 15  1  0  0  0  0
 14 13  2  0  0  0  0
 16 15  2  0  0  0  0
 17 16  1  0  0  0  0
 18 17  2  0  0  0  0
 18 19  1  0  0  0  0
 19 14  1  0  0  0  0
 21 20  1  0  0  0  0
 21 24  1  0  0  0  0
 22 21  1  0  0  0  0
 23 21  1  0  0  0  0
 24 26  1  0  0  0  0
 24 25  1  0  0  0  0
 27 24  1  0  0  0  0
 27 28  1  0  0  0  0
 28 33  1  0  0  0  0
 29 28  2  0  0  0  0
 29 34  1  0  0  0  0
 30 29  1  0  0  0  0
 31 32  1  0  0  0  0
 31 30  2  0  0  0  0
 32 27  2  0  0  0  0
 35 31  1  0  0  0  0
M  END
>  <minimizedAffinity>
-5.98000097

$$$$

 OpenBabel03272509513D

 35 38  0  0  0  0  0  0  0  0999 V2000
   36.8960   27.8960   33.9700 C   0  0  0  0  0  0  0  0  0  0  0  0
   37.8160   27.1210   34.6810 C   0  0  0  0  0  0  0  0  0  0  0  0
   38.1710   25.8730   34.2240 C   0  0  0  0  0  0  0  0  0  0  0  0
   37.5530   25.4870   33.0570 N   0  0  0  0  0  0  0  0  0  0  0  0
   36.6810   26.2140   32.3780 C   0  0  0  0  0  0  0  0  0  0  0  0
   36.3680   27.4220   32.8570 N   0  0  0  0  0  0  0  0  0  0  0  0
   36.6160   28.8760   34.3210 H   0  0  0  0  0  0  0  0  0  0  0  0
   38.1600   27.5560   35.5910 H   0  0  0  0  0  0  0  0  0  0  0  0
   39.0400   24.9040   34.8550 C   0  0  0  0  0  0  0  0  0  0  0  0
   40.1390   24.5010   34.0810 C   0  0  0  0  0  0  0  0  0  0  0  0
   40.2950   24.9020   33.0680 H   0  0  0  0  0  0  0  0  0  0  0  0
   41.0890   23.6000   34.4960 C   0  0  0  0  0  3  0  0  0  0  0  0
   41.0020   23.0360   35.7320 C   0  0  0  0  0  3  0  0  0  0  0  0
   39.9560   23.3940   36.5320 C   0  0  0  0  0  0  0  0  0  0  0  0
   39.8360   22.8860   37.8000 C   0  0  0  0  0  3  0  0  0  0  0  0
   38.8160   23.2440   38.6600 C   0  0  0  0  0  3  0  0  0  0  0  0
   37.8880   24.1670   38.1810 C   0  0  0  0  0  3  0  0  0  0  0  0
   38.0270   24.6590   36.9140 C   0  0  0  0  0  3  0  0  0  0  0  0
   39.0400   24.2920   36.0730 C   0  0  0  0  0  0  0  0  0  0  0  0
   36.2090   25.6010   31.2420 O   0  0  0  0  0  0  0  0  0  0  0  0
   36.5520   24.2470   31.0190 C   0  0  0  0  0  0  0  0  0  0  0  0
   36.9220   24.2030   29.9600 H   0  0  0  0  0  0  0  0  0  0  0  0
   37.3820   23.9200   31.6840 H   0  0  0  0  0  0  0  0  0  0  0  0
   35.3560   23.3540   31.1060 C   0  0  0  0  0  0  0  0  0  0  0  0
   34.6410   23.8280   31.8220 H   0  0  0  0  0  0  0  0  0  0  0  0
   34.8350   23.2820   30.1340 H   0  0  0  0  0  0  0  0  0  0  0  0
   35.6950   21.9920   31.6140 C   0  0  0  0  0  0  0  0  0  0  0  0
   36.6200   21.2490   30.8870 C   0  0  0  0  0  0  0  0  0  0  0  0
   37.0010   19.9900   31.2640 C   0  0  0  0  0  0  0  0  0  0  0  0
   36.4670   19.4500   32.3710 N   0  0  0  0  0  0  0  0  0  0  0  0
   35.5610   20.1840   33.0790 C   0  0  0  0  0  0  0  0  0  0  0  0
   35.1750   21.4310   32.7190 N   0  0  0  0  0  0  0  0  0  0  0  0
   37.0910   21.6200   29.9850 H   0  0  0  0  0  0  0  0  0  0  0  0
   37.7190   19.4130   30.7000 H   0  0  0  0  0  0  0  0  0  0  0  0
   35.0740   19.8390   33.9850 H   0  0  0  0  0  0  0  0  0  0  0  0
  1  7  1  0  0  0  0
  1  2  1  0  0  0  0
  2  8  1  0  0  0  0
  3  2  2  0  0  0  0
  3  9  1  0  0  0  0
  4  3  1  0  0  0  0
  5  6  1  0  0  0  0
  5  4  2  0  0  0  0
  6  1  2  0  0  0  0
  9 19  1  0  0  0  0
 10 12  1  0  0  0  0
 10  9  2  0  0  0  0
 11 10  1  0  0  0  0
 12 13  2  0  0  0  0
 13 14  1  0  0  0  0
 14 15  1  0  0  0  0
 15 16  2  0  0  0  0
 17 16  1  0  0  0  0
 18 17  2  0  0  0  0
 19 14  2  0  0  0  0
 19 18  1  0  0  0  0
 20  5  1  0  0  0  0
 21 24  1  0  0  0  0
 21 20  1  0  0  0  0
 21 23  1  0  0  0  0
 22 21  1  0  0  0  0
 24 27  1  0  0  0  0
 24 25  1  0  0  0  0
 26 24  1  0  0  0  0
 27 32  1  0  0  0  0
 28 29  1  0  0  0  0
 28 27  2  0  0  0  0
 29 30  2  0  0  0  0
 30 31  1  0  0  0  0
 31 35  1  0  0  0  0
 32 31  2  0  0  0  0
 33 28  1  0  0  0  0
 34 29  1  0  0  0  0
M  END
>  <minimizedAffinity>
-5.96883774

$$$$

 OpenBabel03272509513D

 35 38  0  0  0  0  0  0  0  0999 V2000
   37.8910   24.9830   32.1220 C   0  0  0  0  0  0  0  0  0  0  0  0
   38.2980   24.2500   33.2400 C   0  0  0  0  0  0  0  0  0  0  0  0
   38.1180   24.7590   34.5060 C   0  0  0  0  0  0  0  0  0  0  0  0
   37.5290   26.0020   34.5510 N   0  0  0  0  0  0  0  0  0  0  0  0
   37.1420   26.7020   33.4970 C   0  0  0  0  0  0  0  0  0  0  0  0
   37.3340   26.1670   32.2870 N   0  0  0  0  0  0  0  0  0  0  0  0
   38.0280   24.5880   31.1280 H   0  0  0  0  0  0  0  0  0  0  0  0
   38.7810   23.3260   33.0200 H   0  0  0  0  0  0  0  0  0  0  0  0
   38.5360   24.1880   35.7660 C   0  0  0  0  0  0  0  0  0  0  0  0
   37.7240   24.5150   36.8640 C   0  0  0  0  0  0  0  0  0  0  0  0
   36.8460   25.1680   36.7440 H   0  0  0  0  0  0  0  0  0  0  0  0
   37.9390   24.0690   38.1450 C   0  0  0  0  0  3  0  0  0  0  0  0
   38.9950   23.2530   38.4170 C   0  0  0  0  0  3  0  0  0  0  0  0
   39.8170   22.8990   37.3880 C   0  0  0  0  0  0  0  0  0  0  0  0
   40.8760   22.0510   37.5940 C   0  0  0  0  0  3  0  0  0  0  0  0
   41.7150   21.6350   36.5790 C   0  0  0  0  0  3  0  0  0  0  0  0
   41.4400   22.1180   35.3010 C   0  0  0  0  0  3  0  0  0  0  0  0
   40.3800   22.9610   35.1190 C   0  0  0  0  0  3  0  0  0  0  0  0
   39.5610   23.3670   36.1340 C   0  0  0  0  0  0  0  0  0  0  0  0
   36.5790   27.9160   33.8100 O   0  0  0  0  0  0  0  0  0  0  0  0
   36.1030   28.7270   32.7530 C   0  0  0  0  0  0  0  0  0  0  0  0
   36.9660   29.3880   32.4700 H   0  0  0  0  0  0  0  0  0  0  0  0
   35.8320   28.1200   31.8610 H   0  0  0  0  0  0  0  0  0  0  0  0
   34.9920   29.6210   33.2010 C   0  0  0  0  0  0  0  0  0  0  0  0
   34.4810   29.9990   32.2820 H   0  0  0  0  0  0  0  0  0  0  0  0
   34.2340   29.0620   33.7810 H   0  0  0  0  0  0  0  0  0  0  0  0
   35.4810   30.7930   33.9840 C   0  0  0  0  0  0  0  0  0  0  0  0
   35.8290   31.9380   33.2730 C   0  0  0  0  0  0  0  0  0  0  0  0
   36.2880   33.0690   33.8920 C   0  0  0  0  0  0  0  0  0  0  0  0
   36.4090   33.0780   35.2290 N   0  0  0  0  0  0  0  0  0  0  0  0
   36.0660   31.9530   35.9200 C   0  0  0  0  0  0  0  0  0  0  0  0
   35.6090   30.8270   35.3210 N   0  0  0  0  0  0  0  0  0  0  0  0
   35.7570   32.0030   32.1940 H   0  0  0  0  0  0  0  0  0  0  0  0
   36.5580   33.9570   33.3410 H   0  0  0  0  0  0  0  0  0  0  0  0
   36.1270   31.8590   36.9990 H   0  0  0  0  0  0  0  0  0  0  0  0
  1  6  2  0  0  0  0
  1  2  1  0  0  0  0
  2  3  2  0  0  0  0
  3  4  1  0  0  0  0
  3  9  1  0  0  0  0
  5 20  1  0  0  0  0
  5  4  2  0  0  0  0
  6  5  1  0  0  0  0
  7  1  1  0  0  0  0
  8  2  1  0  0  0  0
  9 19  2  0  0  0  0
  9 10  1  0  0  0  0
 10 12  2  0  0  0  0
 11 10  1  0  0  0  0
 12 13  1  0  0  0  0
 14 15  1  0  0  0  0
 14 13  2  0  0  0  0
 16 15  2  0  0  0  0
 17 16  1  0  0  0  0
 18 17  2  0  0  0  0
 18 19  1  0  0  0  0
 19 14  1  0  0  0  0
 21 24  1  0  0  0  0
 21 20  1  0  0  0  0
 22 21  1  0  0  0  0
 23 21  1  0  0  0  0
 24 26  1  0  0  0  0
 24 27  1  0  0  0  0
 25 24  1  0  0  0  0
 27 32  1  0  0  0  0
 28 29  1  0  0  0  0
 28 27  2  0  0  0  0
 29 30  2  0  0  0  0
 30 31  1  0  0  0  0
 31 35  1  0  0  0  0
 32 31  2  0  0  0  0
 33 28  1  0  0  0  0
 34 29  1  0  0  0  0
M  END
>  <minimizedAffinity>
-5.9442234

$$$$

 OpenBabel03272509513D

 35 38  0  0  0  0  0  0  0  0999 V2000
   36.2530   29.2120   31.6240 C   0  0  0  0  0  0  0  0  0  0  0  0
   35.6410   30.0820   32.5290 C   0  0  0  0  0  0  0  0  0  0  0  0
   35.6100   29.7770   33.8710 C   0  0  0  0  0  0  0  0  0  0  0  0
   36.2110   28.5860   34.2070 N   0  0  0  0  0  0  0  0  0  0  0  0
   36.7920   27.7570   33.3560 C   0  0  0  0  0  0  0  0  0  0  0  0
   36.8010   28.0950   32.0620 N   0  0  0  0  0  0  0  0  0  0  0  0
   36.2820   29.4460   30.5720 H   0  0  0  0  0  0  0  0  0  0  0  0
   35.1820   30.9380   32.0890 H   0  0  0  0  0  0  0  0  0  0  0  0
   34.9640   30.5080   34.9380 C   0  0  0  0  0  0  0  0  0  0  0  0
   35.7510   31.5080   35.5320 C   0  0  0  0  0  0  0  0  0  0  0  0
   36.7820   31.6910   35.1950 H   0  0  0  0  0  0  0  0  0  0  0  0
   35.3260   32.3220   36.5530 C   0  0  0  0  0  3  0  0  0  0  0  0
   34.0670   32.1910   37.0540 C   0  0  0  0  0  3  0  0  0  0  0  0
   33.2540   31.2370   36.5130 C   0  0  0  0  0  0  0  0  0  0  0  0
   31.9640   31.0810   36.9520 C   0  0  0  0  0  3  0  0  0  0  0  0
   31.0930   30.1550   36.4130 C   0  0  0  0  0  3  0  0  0  0  0  0
   31.5830   29.3630   35.3750 C   0  0  0  0  0  3  0  0  0  0  0  0
   32.8720   29.5360   34.9540 C   0  0  0  0  0  3  0  0  0  0  0  0
   33.7230   30.4540   35.5010 C   0  0  0  0  0  0  0  0  0  0  0  0
   37.3200   26.6330   33.9450 O   0  0  0  0  0  0  0  0  0  0  0  0
   37.5420   26.6490   35.3420 C   0  0  0  0  0  0  0  0  0  0  0  0
   36.8120   27.3970   35.7520 H   0  0  0  0  0  0  0  0  0  0  0  0
   37.3150   25.6630   35.8040 H   0  0  0  0  0  0  0  0  0  0  0  0
   38.9130   27.1420   35.6760 C   0  0  0  0  0  0  0  0  0  0  0  0
   38.9640   28.2140   35.3640 H   0  0  0  0  0  0  0  0  0  0  0  0
   39.0950   27.1190   36.7660 H   0  0  0  0  0  0  0  0  0  0  0  0
   39.9820   26.3910   34.9570 C   0  0  0  0  0  0  0  0  0  0  0  0
   40.7980   27.1110   34.0890 C   0  0  0  0  0  0  0  0  0  0  0  0
   41.8080   26.5200   33.3800 C   0  0  0  0  0  0  0  0  0  0  0  0
   42.0230   25.2020   33.5230 N   0  0  0  0  0  0  0  0  0  0  0  0
   41.2210   24.5030   34.3760 C   0  0  0  0  0  0  0  0  0  0  0  0
   40.2170   25.0740   35.0850 N   0  0  0  0  0  0  0  0  0  0  0  0
   40.6820   28.1750   33.9230 H   0  0  0  0  0  0  0  0  0  0  0  0
   42.4410   27.0780   32.7060 H   0  0  0  0  0  0  0  0  0  0  0  0
   41.3120   23.4380   34.5630 H   0  0  0  0  0  0  0  0  0  0  0  0
  1  6  2  0  0  0  0
  1  2  1  0  0  0  0
  2  3  2  0  0  0  0
  3  4  1  0  0  0  0
  3  9  1  0  0  0  0
  5 20  1  0  0  0  0
  5  4  2  0  0  0  0
  6  5  1  0  0  0  0
  7  1  1  0  0  0  0
  8  2  1  0  0  0  0
  9 19  2  0  0  0  0
  9 10  1  0  0  0  0
 10 12  2  0  0  0  0
 11 10  1  0  0  0  0
 12 13  1  0  0  0  0
 14 15  1  0  0  0  0
 14 13  2  0  0  0  0
 16 15  2  0  0  0  0
 17 16  1  0  0  0  0
 18 17  2  0  0  0  0
 18 19  1  0  0  0  0
 19 14  1  0  0  0  0
 20 21  1  0  0  0  0
 21 24  1  0  0  0  0
 21 22  1  0  0  0  0
 21 23  1  0  0  0  0
 24 26  1  0  0  0  0
 25 24  1  0  0  0  0
 27 32  1  0  0  0  0
 27 24  1  0  0  0  0
 28 27  2  0  0  0  0
 29 30  2  0  0  0  0
 29 28  1  0  0  0  0
 30 31  1  0  0  0  0
 31 35  1  0  0  0  0
 31 32  2  0  0  0  0
 33 28  1  0  0  0  0
 34 29  1  0  0  0  0
M  END
>  <minimizedAffinity>
-5.93778992

$$$$

 OpenBabel03272509513D

 35 38  0  0  0  0  0  0  0  0999 V2000
   35.1200   26.1120   31.1110 C   0  0  0  0  0  0  0  0  0  0  0  0
   35.3960   24.7720   30.8270 C   0  0  0  0  0  0  0  0  0  0  0  0
   36.4830   24.1510   31.3980 C   0  0  0  0  0  0  0  0  0  0  0  0
   37.2310   24.9490   32.2320 N   0  0  0  0  0  0  0  0  0  0  0  0
   36.9780   26.2180   32.5060 C   0  0  0  0  0  0  0  0  0  0  0  0
   35.9090   26.7800   31.9300 N   0  0  0  0  0  0  0  0  0  0  0  0
   34.2690   26.6030   30.6680 H   0  0  0  0  0  0  0  0  0  0  0  0
   34.7380   24.3190   30.1210 H   0  0  0  0  0  0  0  0  0  0  0  0
   36.9660   22.8080   31.1700 C   0  0  0  0  0  0  0  0  0  0  0  0
   38.2540   22.7280   30.6150 C   0  0  0  0  0  0  0  0  0  0  0  0
   38.8230   23.6380   30.3730 H   0  0  0  0  0  0  0  0  0  0  0  0
   38.9010   21.5510   30.3300 C   0  0  0  0  0  3  0  0  0  0  0  0
   38.2970   20.3580   30.5870 C   0  0  0  0  0  3  0  0  0  0  0  0
   37.0450   20.3740   31.1300 C   0  0  0  0  0  0  0  0  0  0  0  0
   36.4000   19.2040   31.4430 C   0  0  0  0  0  3  0  0  0  0  0  0
   35.1490   19.1680   32.0260 C   0  0  0  0  0  3  0  0  0  0  0  0
   34.5470   20.3970   32.2960 C   0  0  0  0  0  3  0  0  0  0  0  0
   35.2080   21.5490   31.9750 C   0  0  0  0  0  3  0  0  0  0  0  0
   36.4450   21.5680   31.3950 C   0  0  0  0  0  0  0  0  0  0  0  0
   37.8780   26.7930   33.3700 O   0  0  0  0  0  0  0  0  0  0  0  0
   37.4390   27.1200   34.6750 C   0  0  0  0  0  0  0  0  0  0  0  0
   37.3050   28.2350   34.6750 H   0  0  0  0  0  0  0  0  0  0  0  0
   36.4530   26.6580   34.9030 H   0  0  0  0  0  0  0  0  0  0  0  0
   38.4770   26.8010   35.7020 C   0  0  0  0  0  0  0  0  0  0  0  0
   39.4630   27.1280   35.2890 H   0  0  0  0  0  0  0  0  0  0  0  0
   38.3150   27.3760   36.6320 H   0  0  0  0  0  0  0  0  0  0  0  0
   38.5550   25.3420   36.0030 C   0  0  0  0  0  0  0  0  0  0  0  0
   39.5840   24.6180   35.4090 C   0  0  0  0  0  0  0  0  0  0  0  0
   39.7460   23.2750   35.6180 C   0  0  0  0  0  0  0  0  0  0  0  0
   38.8850   22.6310   36.4230 N   0  0  0  0  0  0  0  0  0  0  0  0
   37.8790   23.3460   37.0020 C   0  0  0  0  0  0  0  0  0  0  0  0
   37.7060   24.6750   36.8050 N   0  0  0  0  0  0  0  0  0  0  0  0
   40.3140   25.0710   34.7500 H   0  0  0  0  0  0  0  0  0  0  0  0
   40.5440   22.7140   35.1570 H   0  0  0  0  0  0  0  0  0  0  0  0
   37.1340   22.9210   37.6660 H   0  0  0  0  0  0  0  0  0  0  0  0
  1  6  1  0  0  0  0
  2  1  2  0  0  0  0
  2  3  1  0  0  0  0
  3  4  2  0  0  0  0
  4  5  1  0  0  0  0
  5 20  1  0  0  0  0
  6  5  2  0  0  0  0
  7  1  1  0  0  0  0
  8  2  1  0  0  0  0
  9 19  1  0  0  0  0
  9  3  1  0  0  0  0
 10  9  2  0  0  0  0
 11 10  1  0  0  0  0
 12 13  2  0  0  0  0
 12 10  1  0  0  0  0
 13 14  1  0  0  0  0
 14 19  2  0  0  0  0
 14 15  1  0  0  0  0
 15 16  2  0  0  0  0
 16 17  1  0  0  0  0
 18 17  2  0  0  0  0
 19 18  1  0  0  0  0
 20 21  1  0  0  0  0
 21 22  1  0  0  0  0
 21 23  1  0  0  0  0
 21 24  1  0  0  0  0
 24 27  1  0  0  0  0
 24 26  1  0  0  0  0
 25 24  1  0  0  0  0
 27 32  1  0  0  0  0
 28 29  1  0  0  0  0
 28 27  2  0  0  0  0
 29 30  2  0  0  0  0
 30 31  1  0  0  0  0
 31 35  1  0  0  0  0
 32 31  2  0  0  0  0
 33 28  1  0  0  0  0
 34 29  1  0  0  0  0
M  END
>  <minimizedAffinity>
-5.84655476

$$$$
