
 OpenBabel03272509473D

 27 29  0  0  0  0  0  0  0  0999 V2000
   33.0250   27.6310   48.2020 C   0  0  0  0  0  0  0  0  0  0  0  0
   33.4820   27.6550   47.2000 H   0  0  0  0  0  0  0  0  0  0  0  0
   33.2070   26.5780   48.5660 H   0  0  0  0  0  0  0  0  0  0  0  0
   31.5730   27.8940   48.1590 C   0  0  0  0  0  0  0  0  0  0  0  0
   30.7890   27.3470   49.1670 C   0  0  0  0  0  0  0  0  0  0  0  0
   31.2600   26.7670   49.9540 H   0  0  0  0  0  0  0  0  0  0  0  0
   29.4240   27.4650   49.2860 C   0  0  0  0  0  3  0  0  0  0  0  0
   28.7890   28.2080   48.2850 C   0  0  0  0  0  3  0  0  0  0  0  0
   29.5280   28.7700   47.2610 C   0  0  0  0  0  0  0  0  0  0  0  0
   28.9550   29.5160   46.2510 C   0  0  0  0  0  3  0  0  0  0  0  0
   29.6660   30.0950   45.2190 C   0  0  0  0  0  3  0  0  0  0  0  0
   31.0210   29.9040   45.2180 C   0  0  0  0  0  3  0  0  0  0  0  0
   31.6510   29.1750   46.1900 C   0  0  0  0  0  3  0  0  0  0  0  0
   30.9040   28.6170   47.1970 C   0  0  0  0  0  0  0  0  0  0  0  0
   33.7020   28.5540   49.1580 C   0  0  0  0  0  0  0  0  0  0  0  0
   33.0840   28.7760   50.0230 H   0  0  0  0  0  0  0  0  0  0  0  0
   33.8290   29.5340   48.6210 H   0  0  0  0  0  0  0  0  0  0  0  0
   34.9700   28.0530   49.5330 O   0  0  0  0  0  0  0  0  0  0  0  0
   37.2150   30.2700   51.3410 C   0  0  0  0  0  0  0  0  0  0  0  0
   37.9360   30.8040   50.2770 C   0  0  0  0  0  0  0  0  0  0  0  0
   37.6270   30.3860   48.9840 C   0  0  0  0  0  0  0  0  0  0  0  0
   36.6160   29.4630   48.8700 N   0  0  0  0  0  0  0  0  0  0  0  0
   35.9430   28.9690   49.9080 C   0  0  0  0  0  0  0  0  0  0  0  0
   36.2470   29.3780   51.1490 N   0  0  0  0  0  0  0  0  0  0  0  0
   37.4940   30.6270   52.3140 H   0  0  0  0  0  0  0  0  0  0  0  0
   38.7400   31.5320   50.3190 H   0  0  0  0  0  0  0  0  0  0  0  0
   38.1250   30.7350   48.0760 H   0  0  0  0  0  0  0  0  0  0  0  0
  1  3  1  0  0  0  0
  1 15  1  0  0  0  0
  2  1  1  0  0  0  0
  4  1  1  0  0  0  0
  4  5  1  0  0  0  0
  5  7  2  0  0  0  0
  5  6  1  0  0  0  0
  8  7  1  0  0  0  0
  9  8  2  0  0  0  0
 10  9  1  0  0  0  0
 11 10  2  0  0  0  0
 12 11  1  0  0  0  0
 12 13  2  0  0  0  0
 13 14  1  0  0  0  0
 14  9  1  0  0  0  0
 14  4  2  0  0  0  0
 15 18  1  0  0  0  0
 15 16  1  0  0  0  0
 17 15  1  0  0  0  0
 18 23  1  0  0  0  0
 19 25  1  0  0  0  0
 20 26  1  0  0  0  0
 20 19  2  0  0  0  0
 21 20  1  0  0  0  0
 22 21  2  0  0  0  0
 22 23  1  0  0  0  0
 23 24  2  0  0  0  0
 24 19  1  0  0  0  0
 27 21  1  0  0  0  0
M  END
>  <minimizedAffinity>
-4.85669851

>  <minimizedRMSD>
3.33054113

$$$$
