
 OpenBabel03272501503D

 22 24  0  0  0  0  0  0  0  0999 V2000
   36.7530   29.5030   51.5600 C   0  0  0  0  0  0  0  0  0  0  0  0
   37.6520   30.0490   50.6480 C   0  0  0  0  0  0  0  0  0  0  0  0
   37.2050   30.4400   49.3840 C   0  0  0  0  0  0  0  0  0  0  0  0
   35.8710   30.2410   49.1650 N   0  0  0  0  0  0  0  0  0  0  0  0
   35.0140   29.7200   50.0420 C   0  0  0  0  0  0  0  0  0  0  0  0
   35.4630   29.3470   51.2500 N   0  0  0  0  0  0  0  0  0  0  0  0
   33.6680   29.6030   49.6030 N   0  0  0  0  0  0  0  0  0  0  0  0
   37.1010   29.2000   52.5390 H   0  0  0  0  0  0  0  0  0  0  0  0
   38.6320   30.1780   50.9840 H   0  0  0  0  0  0  0  0  0  0  0  0
   33.3830   28.7040   49.1610 H   0  0  0  0  0  0  0  0  0  0  0  0
   33.1590   30.4980   49.8100 H   0  0  0  0  0  0  0  0  0  0  0  0
   37.9500   31.0870   48.3310 C   0  0  0  0  0  0  0  0  0  0  0  0
   37.9920   30.3800   47.1170 C   0  0  0  0  0  0  0  0  0  0  0  0
   37.4820   29.4140   47.0060 H   0  0  0  0  0  0  0  0  0  0  0  0
   38.6560   30.8170   45.9930 C   0  0  0  0  0  3  0  0  0  0  0  0
   39.3300   32.0070   46.0160 C   0  0  0  0  0  3  0  0  0  0  0  0
   39.3200   32.7320   47.1790 C   0  0  0  0  0  0  0  0  0  0  0  0
   40.0170   33.9180   47.2450 C   0  0  0  0  0  3  0  0  0  0  0  0
   40.0740   34.6780   48.4020 C   0  0  0  0  0  3  0  0  0  0  0  0
   39.3800   34.1650   49.5050 C   0  0  0  0  0  3  0  0  0  0  0  0
   38.7000   32.9890   49.4050 C   0  0  0  0  0  3  0  0  0  0  0  0
   38.6430   32.2490   48.2680 C   0  0  0  0  0  0  0  0  0  0  0  0
  1  8  1  0  0  0  0
  2  9  1  0  0  0  0
  2  1  2  0  0  0  0
  3  2  1  0  0  0  0
  4  3  2  0  0  0  0
  4  5  1  0  0  0  0
  5  6  2  0  0  0  0
  6  1  1  0  0  0  0
  7 11  1  0  0  0  0
  7  5  1  0  0  0  0
 10  7  1  0  0  0  0
 12  3  1  0  0  0  0
 13 12  2  0  0  0  0
 14 13  1  0  0  0  0
 15 16  2  0  0  0  0
 15 13  1  0  0  0  0
 16 17  1  0  0  0  0
 17 18  2  0  0  0  0
 17 22  1  0  0  0  0
 18 19  1  0  0  0  0
 19 20  2  0  0  0  0
 21 20  1  0  0  0  0
 22 12  1  0  0  0  0
 22 21  2  0  0  0  0
M  END
>  <minimizedAffinity>
-6.65366888

>  <minimizedRMSD>
1.13667893

$$$$
