
 OpenBabel03272509473D

 27 29  0  0  0  0  0  0  0  0999 V2000
   32.9780   27.5060   48.4140 C   0  0  0  0  0  0  0  0  0  0  0  0
   33.6100   26.6470   48.1430 H   0  0  0  0  0  0  0  0  0  0  0  0
   32.2900   27.1040   49.2140 H   0  0  0  0  0  0  0  0  0  0  0  0
   32.1760   27.9920   47.2730 C   0  0  0  0  0  0  0  0  0  0  0  0
   32.8470   28.6410   46.2440 C   0  0  0  0  0  0  0  0  0  0  0  0
   33.9240   28.7550   46.2980 H   0  0  0  0  0  0  0  0  0  0  0  0
   32.2730   29.1780   45.1160 C   0  0  0  0  0  3  0  0  0  0  0  0
   30.8840   29.0450   45.0170 C   0  0  0  0  0  3  0  0  0  0  0  0
   30.1750   28.4070   46.0180 C   0  0  0  0  0  0  0  0  0  0  0  0
   28.8050   28.2430   45.9720 C   0  0  0  0  0  3  0  0  0  0  0  0
   28.0680   27.6070   46.9510 C   0  0  0  0  0  3  0  0  0  0  0  0
   28.7620   27.1150   48.0240 C   0  0  0  0  0  3  0  0  0  0  0  0
   30.1200   27.2430   48.1310 C   0  0  0  0  0  3  0  0  0  0  0  0
   30.8110   27.8850   47.1330 C   0  0  0  0  0  0  0  0  0  0  0  0
   33.7620   28.6200   49.0230 C   0  0  0  0  0  0  0  0  0  0  0  0
   33.1420   29.2790   49.6230 H   0  0  0  0  0  0  0  0  0  0  0  0
   34.1330   29.2520   48.1700 H   0  0  0  0  0  0  0  0  0  0  0  0
   34.8640   28.1210   49.7560 O   0  0  0  0  0  0  0  0  0  0  0  0
   37.3180   30.2740   51.3560 C   0  0  0  0  0  0  0  0  0  0  0  0
   37.9960   30.7430   50.2350 C   0  0  0  0  0  0  0  0  0  0  0  0
   37.5880   30.3050   48.9770 C   0  0  0  0  0  0  0  0  0  0  0  0
   36.5300   29.4300   48.9520 N   0  0  0  0  0  0  0  0  0  0  0  0
   35.8990   28.9980   50.0440 C   0  0  0  0  0  0  0  0  0  0  0  0
   36.2990   29.4250   51.2510 N   0  0  0  0  0  0  0  0  0  0  0  0
   37.6740   30.6420   52.3000 H   0  0  0  0  0  0  0  0  0  0  0  0
   38.8350   31.4310   50.2070 H   0  0  0  0  0  0  0  0  0  0  0  0
   38.0440   30.6050   48.0300 H   0  0  0  0  0  0  0  0  0  0  0  0
  1 15  1  0  0  0  0
  1  3  1  0  0  0  0
  2  1  1  0  0  0  0
  4  1  1  0  0  0  0
  5  6  1  0  0  0  0
  5  4  2  0  0  0  0
  7  5  1  0  0  0  0
  8  7  2  0  0  0  0
  8  9  1  0  0  0  0
  9 14  1  0  0  0  0
 10  9  2  0  0  0  0
 10 11  1  0  0  0  0
 11 12  2  0  0  0  0
 12 13  1  0  0  0  0
 14  4  1  0  0  0  0
 14 13  2  0  0  0  0
 15 16  1  0  0  0  0
 15 18  1  0  0  0  0
 17 15  1  0  0  0  0
 18 23  1  0  0  0  0
 19 25  1  0  0  0  0
 20 19  2  0  0  0  0
 21 20  1  0  0  0  0
 22 21  2  0  0  0  0
 22 23  1  0  0  0  0
 23 24  2  0  0  0  0
 24 19  1  0  0  0  0
 26 20  1  0  0  0  0
 27 21  1  0  0  0  0
M  END
>  <minimizedAffinity>
-4.53702307

>  <minimizedRMSD>
2.80370903

$$$$
