
 OpenBabel03272504293D

 44 48  0  0  0  0  0  0  0  0999 V2000
   38.1290   25.7180   33.6360 C   0  0  0  0  0  0  0  0  0  0  0  0
   38.0670   26.8880   34.2900 C   0  0  0  0  0  0  0  0  0  0  0  0
   39.0210   27.2530   35.1540 C   0  0  0  0  0  0  0  0  0  0  0  0
   40.0640   26.4100   35.3630 N   0  0  0  0  0  0  0  0  0  0  0  0
   40.1200   25.2550   34.7140 C   0  0  0  0  0  0  0  0  0  0  0  0
   39.1660   24.8880   33.8470 N   0  0  0  0  0  0  0  0  0  0  0  0
   37.2360   27.5620   34.1250 H   0  0  0  0  0  0  0  0  0  0  0  0
   38.9590   28.2050   35.6790 H   0  0  0  0  0  0  0  0  0  0  0  0
   41.2250   23.4540   35.9700 C   0  0  0  0  0  0  0  0  0  0  0  0
   41.2860   24.4570   34.9980 C   0  0  0  0  0  0  0  0  0  0  0  0
   42.4280   24.7710   34.2810 C   0  0  0  0  0  0  0  0  0  0  0  0
   43.5860   24.0620   34.5270 C   0  0  0  0  0  0  0  0  0  0  0  0
   43.6170   23.0570   35.4680 C   0  0  0  0  0  0  0  0  0  0  0  0
   42.4490   22.8190   36.1220 C   0  0  0  0  0  0  0  0  0  0  0  0
   42.4270   25.5560   33.5380 H   0  0  0  0  0  0  0  0  0  0  0  0
   44.4900   24.2970   33.9710 H   0  0  0  0  0  0  0  0  0  0  0  0
   44.5060   22.4950   35.6740 H   0  0  0  0  0  0  0  0  0  0  0  0
   42.4800   22.0190   36.8690 H   0  0  0  0  0  0  0  0  0  0  0  0
   39.8600   23.0370   36.8300 S   0  0  0  0  0  0  0  0  0  0  0  0
   40.5890   22.2010   37.9330 O   0  0  0  0  0  0  0  0  0  0  0  0
   39.0610   22.0910   35.9700 O   0  0  0  0  0  0  0  0  0  0  0  0
   38.7100   23.3340   37.8950 C   0  0  0  0  0  0  0  0  0  0  0  0
   37.3830   22.8570   37.8100 F   0  0  0  0  0  0  0  0  0  0  0  0
   38.2180   24.7110   37.7320 F   0  0  0  0  0  0  0  0  0  0  0  0
   39.0120   23.6960   39.2400 F   0  0  0  0  0  0  0  0  0  0  0  0
   35.4640   25.7220   31.1100 C   0  0  0  0  0  0  0  0  0  0  0  0
   35.2410   24.3600   30.8980 C   0  0  0  0  0  0  0  0  0  0  0  0
   35.9980   23.4520   31.6230 C   0  0  0  0  0  0  0  0  0  0  0  0
   36.9130   23.9780   32.4930 N   0  0  0  0  0  0  0  0  0  0  0  0
   37.1100   25.2940   32.6780 C   0  0  0  0  0  0  0  0  0  0  0  0
   36.3740   26.1510   31.9770 N   0  0  0  0  0  0  0  0  0  0  0  0
   34.8750   26.4330   30.5470 H   0  0  0  0  0  0  0  0  0  0  0  0
   34.5420   24.0860   30.1710 H   0  0  0  0  0  0  0  0  0  0  0  0
   36.0100   22.0110   31.5400 C   0  0  0  0  0  0  0  0  0  0  0  0
   34.9140   21.3400   32.1060 C   0  0  0  0  0  0  0  0  0  0  0  0
   34.1180   21.9150   32.5850 H   0  0  0  0  0  0  0  0  0  0  0  0
   34.7520   19.9730   32.1110 C   0  0  0  0  0  3  0  0  0  0  0  0
   35.7100   19.1750   31.5280 C   0  0  0  0  0  3  0  0  0  0  0  0
   36.8070   19.7730   30.9520 C   0  0  0  0  0  0  0  0  0  0  0  0
   37.7660   19.0030   30.3300 C   0  0  0  0  0  3  0  0  0  0  0  0
   38.8830   19.5570   29.6940 C   0  0  0  0  0  3  0  0  0  0  0  0
   38.9490   20.9480   29.7410 C   0  0  0  0  0  3  0  0  0  0  0  0
   37.9810   21.6920   30.3690 C   0  0  0  0  0  3  0  0  0  0  0  0
   36.9050   21.1400   30.9830 C   0  0  0  0  0  0  0  0  0  0  0  0
  1  6  2  0  0  0  0
  1  2  1  0  0  0  0
  2  3  2  0  0  0  0
  3  4  1  0  0  0  0
  3  8  1  0  0  0  0
  5 10  1  0  0  0  0
  5  4  2  0  0  0  0
  6  5  1  0  0  0  0
  7  2  1  0  0  0  0
  9 14  1  0  0  0  0
  9 19  1  0  0  0  0
 10  9  2  0  0  0  0
 11 12  2  0  0  0  0
 11 10  1  0  0  0  0
 12 13  1  0  0  0  0
 13 17  1  0  0  0  0
 13 14  2  0  0  0  0
 14 18  1  0  0  0  0
 15 11  1  0  0  0  0
 16 12  1  0  0  0  0
 19 22  1  0  0  0  0
 19 20  2  0  0  0  0
 21 19  2  0  0  0  0
 22 25  1  0  0  0  0
 23 22  1  0  0  0  0
 24 22  1  0  0  0  0
 26 31  1  0  0  0  0
 27 26  2  0  0  0  0
 27 28  1  0  0  0  0
 28 29  2  0  0  0  0
 29 30  1  0  0  0  0
 30  1  1  0  0  0  0
 31 30  2  0  0  0  0
 32 26  1  0  0  0  0
 33 27  1  0  0  0  0
 34 28  1  0  0  0  0
 34 35  1  0  0  0  0
 35 37  2  0  0  0  0
 35 36  1  0  0  0  0
 38 37  1  0  0  0  0
 39 44  1  0  0  0  0
 39 38  2  0  0  0  0
 40 39  1  0  0  0  0
 41 42  1  0  0  0  0
 41 40  2  0  0  0  0
 42 43  2  0  0  0  0
 43 44  1  0  0  0  0
 44 34  2  0  0  0  0
M  END
>  <minimizedAffinity>
-7.92908001

$$$$

 OpenBabel03272504293D

 44 48  0  0  0  0  0  0  0  0999 V2000
   39.7910   25.6770   33.6590 C   0  0  0  0  0  0  0  0  0  0  0  0
   40.7110   26.6540   33.6560 C   0  0  0  0  0  0  0  0  0  0  0  0
   41.8670   26.5230   34.3180 C   0  0  0  0  0  0  0  0  0  0  0  0
   42.0970   25.3720   35.0000 N   0  0  0  0  0  0  0  0  0  0  0  0
   41.1840   24.4100   34.9990 C   0  0  0  0  0  0  0  0  0  0  0  0
   40.0260   24.5390   34.3370 N   0  0  0  0  0  0  0  0  0  0  0  0
   40.5290   27.5720   33.1130 H   0  0  0  0  0  0  0  0  0  0  0  0
   42.6050   27.3230   34.3080 H   0  0  0  0  0  0  0  0  0  0  0  0
   40.6980   22.7300   36.7260 C   0  0  0  0  0  0  0  0  0  0  0  0
   41.5510   23.2270   35.7360 C   0  0  0  0  0  0  0  0  0  0  0  0
   42.7750   22.6660   35.4160 C   0  0  0  0  0  0  0  0  0  0  0  0
   43.1980   21.5470   36.1060 C   0  0  0  0  0  0  0  0  0  0  0  0
   42.4220   20.9910   37.0980 C   0  0  0  0  0  0  0  0  0  0  0  0
   41.2360   21.6090   37.3420 C   0  0  0  0  0  0  0  0  0  0  0  0
   43.4020   23.0860   34.6420 H   0  0  0  0  0  0  0  0  0  0  0  0
   44.1570   21.0960   35.8660 H   0  0  0  0  0  0  0  0  0  0  0  0
   42.7310   20.1230   37.6460 H   0  0  0  0  0  0  0  0  0  0  0  0
   40.6240   21.1620   38.1320 H   0  0  0  0  0  0  0  0  0  0  0  0
   39.2090   23.3680   37.1140 S   0  0  0  0  0  0  0  0  0  0  0  0
   39.2370   22.9830   38.6310 O   0  0  0  0  0  0  0  0  0  0  0  0
   38.1670   22.5190   36.4310 O   0  0  0  0  0  0  0  0  0  0  0  0
   38.2410   24.5770   37.4980 C   0  0  0  0  0  0  0  0  0  0  0  0
   37.7360   24.8320   38.7930 F   0  0  0  0  0  0  0  0  0  0  0  0
   36.8760   24.2960   37.0280 F   0  0  0  0  0  0  0  0  0  0  0  0
   38.1750   25.7610   36.7080 F   0  0  0  0  0  0  0  0  0  0  0  0
   36.6090   24.8770   32.0100 C   0  0  0  0  0  0  0  0  0  0  0  0
   36.1570   26.1300   31.5940 C   0  0  0  0  0  0  0  0  0  0  0  0
   36.9430   27.2370   31.8740 C   0  0  0  0  0  0  0  0  0  0  0  0
   38.1100   27.0010   32.5470 N   0  0  0  0  0  0  0  0  0  0  0  0
   38.5240   25.7830   32.9390 C   0  0  0  0  0  0  0  0  0  0  0  0
   37.7590   24.7330   32.6600 N   0  0  0  0  0  0  0  0  0  0  0  0
   35.9990   24.0110   31.7920 H   0  0  0  0  0  0  0  0  0  0  0  0
   35.2240   26.1820   31.1260 H   0  0  0  0  0  0  0  0  0  0  0  0
   36.6710   28.6310   31.6180 C   0  0  0  0  0  0  0  0  0  0  0  0
   36.9590   29.0990   30.3250 C   0  0  0  0  0  0  0  0  0  0  0  0
   37.3750   28.4140   29.5840 H   0  0  0  0  0  0  0  0  0  0  0  0
   36.7550   30.3920   29.8990 C   0  0  0  0  0  3  0  0  0  0  0  0
   36.2330   31.3190   30.7730 C   0  0  0  0  0  3  0  0  0  0  0  0
   35.9260   30.9210   32.0540 C   0  0  0  0  0  0  0  0  0  0  0  0
   35.3700   31.8170   32.9400 C   0  0  0  0  0  3  0  0  0  0  0  0
   35.0030   31.4600   34.2430 C   0  0  0  0  0  3  0  0  0  0  0  0
   35.2450   30.1280   34.5710 C   0  0  0  0  0  3  0  0  0  0  0  0
   35.8020   29.2560   33.6700 C   0  0  0  0  0  3  0  0  0  0  0  0
   36.1550   29.6180   32.4110 C   0  0  0  0  0  0  0  0  0  0  0  0
  1  6  1  0  0  0  0
  2  1  2  0  0  0  0
  2  3  1  0  0  0  0
  3  4  2  0  0  0  0
  5  4  1  0  0  0  0
  5 10  1  0  0  0  0
  6  5  2  0  0  0  0
  7  2  1  0  0  0  0
  8  3  1  0  0  0  0
  9 19  1  0  0  0  0
  9 14  1  0  0  0  0
 10  9  2  0  0  0  0
 11 10  1  0  0  0  0
 11 12  2  0  0  0  0
 12 13  1  0  0  0  0
 13 14  2  0  0  0  0
 13 17  1  0  0  0  0
 14 18  1  0  0  0  0
 15 11  1  0  0  0  0
 16 12  1  0  0  0  0
 19 22  1  0  0  0  0
 19 20  2  0  0  0  0
 21 19  2  0  0  0  0
 22 23  1  0  0  0  0
 24 22  1  0  0  0  0
 25 22  1  0  0  0  0
 26 31  1  0  0  0  0
 27 28  1  0  0  0  0
 27 26  2  0  0  0  0
 28 29  2  0  0  0  0
 29 30  1  0  0  0  0
 30  1  1  0  0  0  0
 31 30  2  0  0  0  0
 32 26  1  0  0  0  0
 33 27  1  0  0  0  0
 34 28  1  0  0  0  0
 34 44  1  0  0  0  0
 35 34  2  0  0  0  0
 36 35  1  0  0  0  0
 37 35  1  0  0  0  0
 37 38  2  0  0  0  0
 38 39  1  0  0  0  0
 39 44  2  0  0  0  0
 39 40  1  0  0  0  0
 40 41  2  0  0  0  0
 41 42  1  0  0  0  0
 43 42  2  0  0  0  0
 44 43  1  0  0  0  0
M  END
>  <minimizedAffinity>
-7.67681503

$$$$

 OpenBabel03272504293D

 44 48  0  0  0  0  0  0  0  0999 V2000
   37.7490   27.3290   32.7610 C   0  0  0  0  0  0  0  0  0  0  0  0
   38.8390   27.1010   32.0130 C   0  0  0  0  0  0  0  0  0  0  0  0
   39.6890   26.1100   32.3070 C   0  0  0  0  0  0  0  0  0  0  0  0
   39.4280   25.3310   33.3870 N   0  0  0  0  0  0  0  0  0  0  0  0
   38.3490   25.5610   34.1220 C   0  0  0  0  0  0  0  0  0  0  0  0
   37.4960   26.5520   33.8300 N   0  0  0  0  0  0  0  0  0  0  0  0
   39.0490   27.7210   31.1510 H   0  0  0  0  0  0  0  0  0  0  0  0
   40.5700   25.9350   31.6920 H   0  0  0  0  0  0  0  0  0  0  0  0
   37.8700   23.3080   34.9820 C   0  0  0  0  0  0  0  0  0  0  0  0
   38.1650   24.6530   35.2260 C   0  0  0  0  0  0  0  0  0  0  0  0
   38.2710   25.2030   36.4920 C   0  0  0  0  0  0  0  0  0  0  0  0
   38.0780   24.3920   37.5920 C   0  0  0  0  0  0  0  0  0  0  0  0
   37.7830   23.0550   37.4440 C   0  0  0  0  0  0  0  0  0  0  0  0
   37.6990   22.6030   36.1650 C   0  0  0  0  0  0  0  0  0  0  0  0
   38.5020   26.2500   36.6320 H   0  0  0  0  0  0  0  0  0  0  0  0
   38.1590   24.8110   38.5910 H   0  0  0  0  0  0  0  0  0  0  0  0
   37.6290   22.4080   38.2840 H   0  0  0  0  0  0  0  0  0  0  0  0
   37.4640   21.5390   36.0540 H   0  0  0  0  0  0  0  0  0  0  0  0
   37.7610   22.6120   33.4720 S   0  0  0  0  0  0  0  0  0  0  0  0
   36.7470   21.4870   33.8640 O   0  0  0  0  0  0  0  0  0  0  0  0
   39.0920   21.9670   33.1800 O   0  0  0  0  0  0  0  0  0  0  0  0
   37.1860   22.5330   31.9860 C   0  0  0  0  0  0  0  0  0  0  0  0
   37.9060   22.0700   30.8620 F   0  0  0  0  0  0  0  0  0  0  0  0
   37.1400   23.8790   31.3930 F   0  0  0  0  0  0  0  0  0  0  0  0
   35.7860   22.4680   31.7280 F   0  0  0  0  0  0  0  0  0  0  0  0
   35.5140   29.6520   31.0030 C   0  0  0  0  0  0  0  0  0  0  0  0
   34.9840   30.4150   32.0440 C   0  0  0  0  0  0  0  0  0  0  0  0
   35.3980   30.1340   33.3380 C   0  0  0  0  0  0  0  0  0  0  0  0
   36.3000   29.1170   33.4820 N   0  0  0  0  0  0  0  0  0  0  0  0
   36.7950   28.3950   32.4620 C   0  0  0  0  0  0  0  0  0  0  0  0
   36.3900   28.6790   31.2280 N   0  0  0  0  0  0  0  0  0  0  0  0
   35.1950   29.8690   29.9920 H   0  0  0  0  0  0  0  0  0  0  0  0
   34.2670   31.1370   31.8060 H   0  0  0  0  0  0  0  0  0  0  0  0
   34.9550   30.7220   34.5790 C   0  0  0  0  0  0  0  0  0  0  0  0
   35.7940   31.6930   35.1490 C   0  0  0  0  0  0  0  0  0  0  0  0
   36.7310   31.9550   34.6520 H   0  0  0  0  0  0  0  0  0  0  0  0
   35.5280   32.3650   36.3210 C   0  0  0  0  0  3  0  0  0  0  0  0
   34.3680   32.0940   37.0100 C   0  0  0  0  0  3  0  0  0  0  0  0
   33.5020   31.1530   36.5010 C   0  0  0  0  0  0  0  0  0  0  0  0
   32.3160   30.8850   37.1490 C   0  0  0  0  0  3  0  0  0  0  0  0
   31.3790   29.9680   36.6590 C   0  0  0  0  0  3  0  0  0  0  0  0
   31.7410   29.3490   35.4650 C   0  0  0  0  0  3  0  0  0  0  0  0
   32.9290   29.6320   34.8400 C   0  0  0  0  0  3  0  0  0  0  0  0
   33.8290   30.5220   35.3290 C   0  0  0  0  0  0  0  0  0  0  0  0
  1  6  1  0  0  0  0
  2  3  1  0  0  0  0
  2  1  2  0  0  0  0
  3  4  2  0  0  0  0
  4  5  1  0  0  0  0
  5 10  1  0  0  0  0
  6  5  2  0  0  0  0
  7  2  1  0  0  0  0
  8  3  1  0  0  0  0
  9 10  2  0  0  0  0
  9 14  1  0  0  0  0
 10 11  1  0  0  0  0
 11 15  1  0  0  0  0
 11 12  2  0  0  0  0
 12 16  1  0  0  0  0
 13 12  1  0  0  0  0
 13 17  1  0  0  0  0
 14 13  2  0  0  0  0
 18 14  1  0  0  0  0
 19 20  2  0  0  0  0
 19  9  1  0  0  0  0
 21 19  2  0  0  0  0
 22 19  1  0  0  0  0
 23 22  1  0  0  0  0
 24 22  1  0  0  0  0
 25 22  1  0  0  0  0
 26 31  2  0  0  0  0
 26 27  1  0  0  0  0
 27 28  2  0  0  0  0
 28 29  1  0  0  0  0
 28 34  1  0  0  0  0
 30  1  1  0  0  0  0
 30 29  2  0  0  0  0
 31 30  1  0  0  0  0
 32 26  1  0  0  0  0
 33 27  1  0  0  0  0
 34 35  2  0  0  0  0
 34 44  1  0  0  0  0
 35 37  1  0  0  0  0
 36 35  1  0  0  0  0
 37 38  2  0  0  0  0
 39 38  1  0  0  0  0
 39 40  1  0  0  0  0
 41 40  2  0  0  0  0
 42 41  1  0  0  0  0
 43 44  1  0  0  0  0
 43 42  2  0  0  0  0
 44 39  2  0  0  0  0
M  END
>  <minimizedAffinity>
-7.47351694

$$$$

 OpenBabel03272504293D

 44 48  0  0  0  0  0  0  0  0999 V2000
   37.8490   27.2170   32.7390 C   0  0  0  0  0  0  0  0  0  0  0  0
   38.9900   26.9890   32.0700 C   0  0  0  0  0  0  0  0  0  0  0  0
   39.8430   26.0340   32.4580 C   0  0  0  0  0  0  0  0  0  0  0  0
   39.5330   25.2910   33.5500 N   0  0  0  0  0  0  0  0  0  0  0  0
   38.4030   25.5200   34.2060 C   0  0  0  0  0  0  0  0  0  0  0  0
   37.5480   26.4760   33.8200 N   0  0  0  0  0  0  0  0  0  0  0  0
   39.2390   27.5810   31.1990 H   0  0  0  0  0  0  0  0  0  0  0  0
   40.7660   25.8590   31.9070 H   0  0  0  0  0  0  0  0  0  0  0  0
   37.8560   23.3060   35.1220 C   0  0  0  0  0  0  0  0  0  0  0  0
   38.1710   24.6520   35.3320 C   0  0  0  0  0  0  0  0  0  0  0  0
   38.2540   25.2400   36.5820 C   0  0  0  0  0  0  0  0  0  0  0  0
   38.0150   24.4680   37.7010 C   0  0  0  0  0  0  0  0  0  0  0  0
   37.6970   23.1330   37.5870 C   0  0  0  0  0  0  0  0  0  0  0  0
   37.6390   22.6420   36.3210 C   0  0  0  0  0  0  0  0  0  0  0  0
   38.5020   26.2860   36.6960 H   0  0  0  0  0  0  0  0  0  0  0  0
   38.0770   24.9170   38.6890 H   0  0  0  0  0  0  0  0  0  0  0  0
   37.5070   22.5160   38.4430 H   0  0  0  0  0  0  0  0  0  0  0  0
   37.3850   21.5800   36.2370 H   0  0  0  0  0  0  0  0  0  0  0  0
   37.7740   22.5640   33.6320 S   0  0  0  0  0  0  0  0  0  0  0  0
   36.7460   21.4570   34.0370 O   0  0  0  0  0  0  0  0  0  0  0  0
   39.1070   21.9040   33.3870 O   0  0  0  0  0  0  0  0  0  0  0  0
   37.2290   22.4430   32.1370 C   0  0  0  0  0  0  0  0  0  0  0  0
   37.8690   21.7340   31.0960 F   0  0  0  0  0  0  0  0  0  0  0  0
   37.4630   23.7030   31.4140 F   0  0  0  0  0  0  0  0  0  0  0  0
   35.8500   22.6240   31.8270 F   0  0  0  0  0  0  0  0  0  0  0  0
   35.9420   29.6690   30.7810 C   0  0  0  0  0  0  0  0  0  0  0  0
   35.0280   30.1620   31.7140 C   0  0  0  0  0  0  0  0  0  0  0  0
   35.0730   29.6580   33.0050 C   0  0  0  0  0  0  0  0  0  0  0  0
   36.0220   28.7050   33.2540 N   0  0  0  0  0  0  0  0  0  0  0  0
   36.8910   28.2450   32.3370 C   0  0  0  0  0  0  0  0  0  0  0  0
   36.8350   28.7410   31.1050 N   0  0  0  0  0  0  0  0  0  0  0  0
   35.9100   30.0610   29.7730 H   0  0  0  0  0  0  0  0  0  0  0  0
   34.3220   30.8590   31.3860 H   0  0  0  0  0  0  0  0  0  0  0  0
   34.2050   29.9450   34.1220 C   0  0  0  0  0  0  0  0  0  0  0  0
   33.0460   29.1600   34.2330 C   0  0  0  0  0  0  0  0  0  0  0  0
   32.8420   28.3890   33.4870 H   0  0  0  0  0  0  0  0  0  0  0  0
   32.1120   29.2850   35.2370 C   0  0  0  0  0  3  0  0  0  0  0  0
   32.2930   30.2330   36.2180 C   0  0  0  0  0  3  0  0  0  0  0  0
   33.4130   31.0310   36.1660 C   0  0  0  0  0  0  0  0  0  0  0  0
   33.6410   31.9660   37.1530 C   0  0  0  0  0  3  0  0  0  0  0  0
   34.7800   32.7790   37.1740 C   0  0  0  0  0  3  0  0  0  0  0  0
   35.6640   32.5680   36.1190 C   0  0  0  0  0  3  0  0  0  0  0  0
   35.4130   31.6320   35.1470 C   0  0  0  0  0  3  0  0  0  0  0  0
   34.3030   30.8530   35.1390 C   0  0  0  0  0  0  0  0  0  0  0  0
  1  6  1  0  0  0  0
  2  3  1  0  0  0  0
  2  1  2  0  0  0  0
  3  4  2  0  0  0  0
  4  5  1  0  0  0  0
  5 10  1  0  0  0  0
  6  5  2  0  0  0  0
  7  2  1  0  0  0  0
  8  3  1  0  0  0  0
  9 10  2  0  0  0  0
  9 14  1  0  0  0  0
 10 11  1  0  0  0  0
 11 15  1  0  0  0  0
 11 12  2  0  0  0  0
 12 16  1  0  0  0  0
 13 12  1  0  0  0  0
 13 17  1  0  0  0  0
 14 13  2  0  0  0  0
 18 14  1  0  0  0  0
 19 20  2  0  0  0  0
 19  9  1  0  0  0  0
 21 19  2  0  0  0  0
 22 19  1  0  0  0  0
 23 22  1  0  0  0  0
 24 22  1  0  0  0  0
 25 22  1  0  0  0  0
 26 31  2  0  0  0  0
 26 27  1  0  0  0  0
 27 28  2  0  0  0  0
 28 29  1  0  0  0  0
 28 34  1  0  0  0  0
 30  1  1  0  0  0  0
 30 29  2  0  0  0  0
 31 30  1  0  0  0  0
 32 26  1  0  0  0  0
 33 27  1  0  0  0  0
 34 35  2  0  0  0  0
 34 44  1  0  0  0  0
 35 37  1  0  0  0  0
 36 35  1  0  0  0  0
 37 38  2  0  0  0  0
 39 38  1  0  0  0  0
 39 40  1  0  0  0  0
 40 41  2  0  0  0  0
 42 41  1  0  0  0  0
 43 42  2  0  0  0  0
 44 43  1  0  0  0  0
 44 39  2  0  0  0  0
M  END
>  <minimizedAffinity>
-7.4622612

$$$$

 OpenBabel03272504293D

 44 48  0  0  0  0  0  0  0  0999 V2000
   36.4650   27.7220   33.6050 C   0  0  0  0  0  0  0  0  0  0  0  0
   36.3050   28.0190   32.3060 C   0  0  0  0  0  0  0  0  0  0  0  0
   35.7220   29.1600   31.9200 C   0  0  0  0  0  0  0  0  0  0  0  0
   35.2870   30.0220   32.8740 N   0  0  0  0  0  0  0  0  0  0  0  0
   35.4490   29.7230   34.1560 C   0  0  0  0  0  0  0  0  0  0  0  0
   36.0330   28.5820   34.5450 N   0  0  0  0  0  0  0  0  0  0  0  0
   36.6500   27.3330   31.5430 H   0  0  0  0  0  0  0  0  0  0  0  0
   35.5980   29.3890   30.8630 H   0  0  0  0  0  0  0  0  0  0  0  0
   33.6150   30.7780   35.4080 C   0  0  0  0  0  0  0  0  0  0  0  0
   34.9720   30.7260   35.0750 C   0  0  0  0  0  0  0  0  0  0  0  0
   35.9210   31.6100   35.5580 C   0  0  0  0  0  0  0  0  0  0  0  0
   35.5240   32.6120   36.4200 C   0  0  0  0  0  0  0  0  0  0  0  0
   34.2060   32.7380   36.8010 C   0  0  0  0  0  0  0  0  0  0  0  0
   33.3460   31.8250   36.2780 C   0  0  0  0  0  0  0  0  0  0  0  0
   36.9610   31.5300   35.2730 H   0  0  0  0  0  0  0  0  0  0  0  0
   36.2580   33.3130   36.8070 H   0  0  0  0  0  0  0  0  0  0  0  0
   33.8760   33.5090   37.4690 H   0  0  0  0  0  0  0  0  0  0  0  0
   32.3000   31.9310   36.5840 H   0  0  0  0  0  0  0  0  0  0  0  0
   32.4550   29.7130   34.8640 S   0  0  0  0  0  0  0  0  0  0  0  0
   31.2230   30.6480   35.1040 O   0  0  0  0  0  0  0  0  0  0  0  0
   32.3890   28.5790   35.8550 O   0  0  0  0  0  0  0  0  0  0  0  0
   31.6160   29.0000   33.7100 C   0  0  0  0  0  0  0  0  0  0  0  0
   31.0240   27.7200   33.8100 F   0  0  0  0  0  0  0  0  0  0  0  0
   32.5240   28.4900   32.6700 F   0  0  0  0  0  0  0  0  0  0  0  0
   30.9880   29.7460   32.6700 F   0  0  0  0  0  0  0  0  0  0  0  0
   38.0590   25.1560   35.6910 C   0  0  0  0  0  0  0  0  0  0  0  0
   38.2870   24.1210   34.7830 C   0  0  0  0  0  0  0  0  0  0  0  0
   37.9010   24.3090   33.4640 C   0  0  0  0  0  0  0  0  0  0  0  0
   37.3170   25.5100   33.1660 N   0  0  0  0  0  0  0  0  0  0  0  0
   37.1070   26.4910   34.0600 C   0  0  0  0  0  0  0  0  0  0  0  0
   37.4850   26.2950   35.3190 N   0  0  0  0  0  0  0  0  0  0  0  0
   38.3600   25.0130   36.7200 H   0  0  0  0  0  0  0  0  0  0  0  0
   38.7020   23.2330   35.1460 H   0  0  0  0  0  0  0  0  0  0  0  0
   37.9610   23.3820   32.3600 C   0  0  0  0  0  0  0  0  0  0  0  0
   39.0320   23.5400   31.4660 C   0  0  0  0  0  0  0  0  0  0  0  0
   39.7560   24.3410   31.6270 H   0  0  0  0  0  0  0  0  0  0  0  0
   39.2550   22.7430   30.3650 C   0  0  0  0  0  3  0  0  0  0  0  0
   38.3890   21.7090   30.0900 C   0  0  0  0  0  3  0  0  0  0  0  0
   37.3200   21.5010   30.9320 C   0  0  0  0  0  0  0  0  0  0  0  0
   36.4560   20.4530   30.7030 C   0  0  0  0  0  3  0  0  0  0  0  0
   35.3750   20.1690   31.5460 C   0  0  0  0  0  3  0  0  0  0  0  0
   35.2430   21.0290   32.6330 C   0  0  0  0  0  3  0  0  0  0  0  0
   36.1160   22.0670   32.8370 C   0  0  0  0  0  3  0  0  0  0  0  0
   37.1580   22.3320   32.0100 C   0  0  0  0  0  0  0  0  0  0  0  0
  1 30  1  0  0  0  0
  1  6  1  0  0  0  0
  2  1  2  0  0  0  0
  3  2  1  0  0  0  0
  3  4  2  0  0  0  0
  4  5  1  0  0  0  0
  5  6  2  0  0  0  0
  5 10  1  0  0  0  0
  7  2  1  0  0  0  0
  8  3  1  0  0  0  0
  9 14  1  0  0  0  0
 10  9  2  0  0  0  0
 10 11  1  0  0  0  0
 11 12  2  0  0  0  0
 12 13  1  0  0  0  0
 12 16  1  0  0  0  0
 13 17  1  0  0  0  0
 14 18  1  0  0  0  0
 14 13  2  0  0  0  0
 15 11  1  0  0  0  0
 19 20  2  0  0  0  0
 19  9  1  0  0  0  0
 19 21  2  0  0  0  0
 22 23  1  0  0  0  0
 22 19  1  0  0  0  0
 24 22  1  0  0  0  0
 25 22  1  0  0  0  0
 26 32  1  0  0  0  0
 27 33  1  0  0  0  0
 27 26  2  0  0  0  0
 28 27  1  0  0  0  0
 29 28  2  0  0  0  0
 29 30  1  0  0  0  0
 30 31  2  0  0  0  0
 31 26  1  0  0  0  0
 34 28  1  0  0  0  0
 35 36  1  0  0  0  0
 35 34  2  0  0  0  0
 37 35  1  0  0  0  0
 38 37  2  0  0  0  0
 38 39  1  0  0  0  0
 39 44  1  0  0  0  0
 40 39  2  0  0  0  0
 40 41  1  0  0  0  0
 41 42  2  0  0  0  0
 42 43  1  0  0  0  0
 44 34  1  0  0  0  0
 44 43  2  0  0  0  0
M  END
>  <minimizedAffinity>
-7.37346411

$$$$

 OpenBabel03272504293D

 44 48  0  0  0  0  0  0  0  0999 V2000
   36.5360   26.0300   31.5890 C   0  0  0  0  0  0  0  0  0  0  0  0
   35.6300   25.0620   31.3810 C   0  0  0  0  0  0  0  0  0  0  0  0
   35.9400   23.7720   31.5530 C   0  0  0  0  0  0  0  0  0  0  0  0
   37.2000   23.4540   31.9440 N   0  0  0  0  0  0  0  0  0  0  0  0
   38.0900   24.4150   32.1490 C   0  0  0  0  0  0  0  0  0  0  0  0
   37.7820   25.7080   31.9780 N   0  0  0  0  0  0  0  0  0  0  0  0
   34.6250   25.3140   31.0680 H   0  0  0  0  0  0  0  0  0  0  0  0
   35.1960   22.9960   31.3800 H   0  0  0  0  0  0  0  0  0  0  0  0
   39.8810   24.3570   33.8320 C   0  0  0  0  0  0  0  0  0  0  0  0
   39.3850   23.9570   32.5870 C   0  0  0  0  0  0  0  0  0  0  0  0
   40.0760   23.1470   31.7030 C   0  0  0  0  0  0  0  0  0  0  0  0
   41.3330   22.6980   32.0510 C   0  0  0  0  0  0  0  0  0  0  0  0
   41.9010   23.0430   33.2580 C   0  0  0  0  0  0  0  0  0  0  0  0
   41.1490   23.8410   34.0620 C   0  0  0  0  0  0  0  0  0  0  0  0
   39.6500   22.8630   30.7500 H   0  0  0  0  0  0  0  0  0  0  0  0
   41.8870   22.0620   31.3660 H   0  0  0  0  0  0  0  0  0  0  0  0
   42.8760   22.7050   33.5470 H   0  0  0  0  0  0  0  0  0  0  0  0
   41.6060   24.1120   35.0190 H   0  0  0  0  0  0  0  0  0  0  0  0
   39.0630   25.3080   34.9280 S   0  0  0  0  0  0  0  0  0  0  0  0
   40.2170   26.3360   35.1730 O   0  0  0  0  0  0  0  0  0  0  0  0
   38.8830   24.4920   36.1820 O   0  0  0  0  0  0  0  0  0  0  0  0
   38.0310   26.4630   35.3080 C   0  0  0  0  0  0  0  0  0  0  0  0
   36.6510   26.4510   35.0030 F   0  0  0  0  0  0  0  0  0  0  0  0
   38.2120   27.6150   34.4100 F   0  0  0  0  0  0  0  0  0  0  0  0
   38.2840   27.3710   36.3780 F   0  0  0  0  0  0  0  0  0  0  0  0
   36.3730   29.4590   30.2860 C   0  0  0  0  0  0  0  0  0  0  0  0
   35.5560   30.1030   31.2170 C   0  0  0  0  0  0  0  0  0  0  0  0
   35.0720   29.3620   32.2850 C   0  0  0  0  0  0  0  0  0  0  0  0
   35.4400   28.0460   32.3310 N   0  0  0  0  0  0  0  0  0  0  0  0
   36.2280   27.4490   31.4210 C   0  0  0  0  0  0  0  0  0  0  0  0
   36.6850   28.1740   30.4040 N   0  0  0  0  0  0  0  0  0  0  0  0
   36.7540   30.0340   29.4520 H   0  0  0  0  0  0  0  0  0  0  0  0
   35.3120   31.1040   31.0450 H   0  0  0  0  0  0  0  0  0  0  0  0
   34.1650   29.7670   33.3320 C   0  0  0  0  0  0  0  0  0  0  0  0
   32.8290   29.3530   33.2000 C   0  0  0  0  0  0  0  0  0  0  0  0
   32.5310   28.7640   32.3300 H   0  0  0  0  0  0  0  0  0  0  0  0
   31.8300   29.6350   34.1040 C   0  0  0  0  0  3  0  0  0  0  0  0
   32.1230   30.3730   35.2290 C   0  0  0  0  0  3  0  0  0  0  0  0
   33.4160   30.8060   35.4170 C   0  0  0  0  0  0  0  0  0  0  0  0
   33.7470   31.5160   36.5500 C   0  0  0  0  0  3  0  0  0  0  0  0
   35.0510   31.9490   36.8150 C   0  0  0  0  0  3  0  0  0  0  0  0
   35.9870   31.6060   35.8420 C   0  0  0  0  0  3  0  0  0  0  0  0
   35.6310   30.8990   34.7210 C   0  0  0  0  0  3  0  0  0  0  0  0
   34.3610   30.4880   34.4770 C   0  0  0  0  0  0  0  0  0  0  0  0
  1  6  1  0  0  0  0
  2  3  1  0  0  0  0
  2  1  2  0  0  0  0
  3  4  2  0  0  0  0
  4  5  1  0  0  0  0
  5 10  1  0  0  0  0
  6  5  2  0  0  0  0
  7  2  1  0  0  0  0
  8  3  1  0  0  0  0
  9 14  1  0  0  0  0
  9 19  1  0  0  0  0
 10  9  2  0  0  0  0
 11 12  2  0  0  0  0
 11 10  1  0  0  0  0
 12 13  1  0  0  0  0
 13 17  1  0  0  0  0
 13 14  2  0  0  0  0
 14 18  1  0  0  0  0
 15 11  1  0  0  0  0
 16 12  1  0  0  0  0
 19 20  2  0  0  0  0
 19 22  1  0  0  0  0
 19 21  2  0  0  0  0
 22 25  1  0  0  0  0
 23 22  1  0  0  0  0
 24 22  1  0  0  0  0
 26 31  2  0  0  0  0
 26 27  1  0  0  0  0
 27 28  2  0  0  0  0
 28 29  1  0  0  0  0
 28 34  1  0  0  0  0
 30  1  1  0  0  0  0
 30 29  2  0  0  0  0
 31 30  1  0  0  0  0
 32 26  1  0  0  0  0
 33 27  1  0  0  0  0
 34 44  1  0  0  0  0
 35 34  2  0  0  0  0
 35 37  1  0  0  0  0
 36 35  1  0  0  0  0
 37 38  2  0  0  0  0
 38 39  1  0  0  0  0
 39 40  1  0  0  0  0
 40 41  2  0  0  0  0
 42 41  1  0  0  0  0
 43 42  2  0  0  0  0
 44 43  1  0  0  0  0
 44 39  2  0  0  0  0
M  END
>  <minimizedAffinity>
-7.30973053

$$$$

 OpenBabel03272504293D

 44 48  0  0  0  0  0  0  0  0999 V2000
   38.3310   27.3700   31.7180 C   0  0  0  0  0  0  0  0  0  0  0  0
   39.6580   27.4470   31.5290 C   0  0  0  0  0  0  0  0  0  0  0  0
   40.4620   26.4170   31.8170 C   0  0  0  0  0  0  0  0  0  0  0  0
   39.9080   25.2800   32.3110 N   0  0  0  0  0  0  0  0  0  0  0  0
   38.5970   25.2100   32.4940 C   0  0  0  0  0  0  0  0  0  0  0  0
   37.7900   26.2400   32.2060 N   0  0  0  0  0  0  0  0  0  0  0  0
   40.1010   28.3540   31.1360 H   0  0  0  0  0  0  0  0  0  0  0  0
   41.5360   26.4930   31.6600 H   0  0  0  0  0  0  0  0  0  0  0  0
   37.9930   23.7480   34.3760 C   0  0  0  0  0  0  0  0  0  0  0  0
   38.1230   23.9460   32.9970 C   0  0  0  0  0  0  0  0  0  0  0  0
   37.8470   22.9770   32.0480 C   0  0  0  0  0  0  0  0  0  0  0  0
   37.4170   21.7340   32.4670 C   0  0  0  0  0  0  0  0  0  0  0  0
   37.2610   21.4520   33.8060 C   0  0  0  0  0  0  0  0  0  0  0  0
   37.5550   22.4630   34.6650 C   0  0  0  0  0  0  0  0  0  0  0  0
   37.9620   23.1760   30.9920 H   0  0  0  0  0  0  0  0  0  0  0  0
   37.1960   20.9640   31.7320 H   0  0  0  0  0  0  0  0  0  0  0  0
   36.9290   20.4940   34.1520 H   0  0  0  0  0  0  0  0  0  0  0  0
   37.4300   22.2320   35.7280 H   0  0  0  0  0  0  0  0  0  0  0  0
   38.2930   24.9020   35.5400 S   0  0  0  0  0  0  0  0  0  0  0  0
   39.8170   24.5930   35.7120 O   0  0  0  0  0  0  0  0  0  0  0  0
   37.5780   24.4670   36.7940 O   0  0  0  0  0  0  0  0  0  0  0  0
   38.6000   26.3950   36.0090 C   0  0  0  0  0  0  0  0  0  0  0  0
   38.2210   26.9490   37.2530 F   0  0  0  0  0  0  0  0  0  0  0  0
   37.6960   27.3330   35.3240 F   0  0  0  0  0  0  0  0  0  0  0  0
   39.6680   27.1520   35.4450 F   0  0  0  0  0  0  0  0  0  0  0  0
   36.6450   30.1590   30.0260 C   0  0  0  0  0  0  0  0  0  0  0  0
   35.6440   30.5080   30.9340 C   0  0  0  0  0  0  0  0  0  0  0  0
   35.5560   29.7930   32.1190 C   0  0  0  0  0  0  0  0  0  0  0  0
   36.4700   28.7900   32.2950 N   0  0  0  0  0  0  0  0  0  0  0  0
   37.4240   28.4720   31.4040 C   0  0  0  0  0  0  0  0  0  0  0  0
   37.4960   29.1700   30.2740 N   0  0  0  0  0  0  0  0  0  0  0  0
   36.7180   30.7160   29.1010 H   0  0  0  0  0  0  0  0  0  0  0  0
   34.9790   31.2660   30.6610 H   0  0  0  0  0  0  0  0  0  0  0  0
   34.5810   29.9070   33.1770 C   0  0  0  0  0  0  0  0  0  0  0  0
   33.3740   29.2130   32.9950 C   0  0  0  0  0  0  0  0  0  0  0  0
   33.2150   28.6350   32.0820 H   0  0  0  0  0  0  0  0  0  0  0  0
   32.3370   29.1980   33.9020 C   0  0  0  0  0  3  0  0  0  0  0  0
   32.4560   29.9000   35.0790 C   0  0  0  0  0  3  0  0  0  0  0  0
   33.6180   30.5990   35.3180 C   0  0  0  0  0  0  0  0  0  0  0  0
   33.7810   31.2820   36.5020 C   0  0  0  0  0  3  0  0  0  0  0  0
   34.9540   31.9780   36.8160 C   0  0  0  0  0  3  0  0  0  0  0  0
   35.9430   31.9240   35.8370 C   0  0  0  0  0  3  0  0  0  0  0  0
   35.7540   31.2370   34.6640 C   0  0  0  0  0  3  0  0  0  0  0  0
   34.6100   30.5700   34.3720 C   0  0  0  0  0  0  0  0  0  0  0  0
  1  6  1  0  0  0  0
  2  1  2  0  0  0  0
  2  3  1  0  0  0  0
  3  4  2  0  0  0  0
  4  5  1  0  0  0  0
  5 10  1  0  0  0  0
  6  5  2  0  0  0  0
  7  2  1  0  0  0  0
  8  3  1  0  0  0  0
  9 14  1  0  0  0  0
  9 19  1  0  0  0  0
 10  9  2  0  0  0  0
 11 12  2  0  0  0  0
 11 10  1  0  0  0  0
 12 13  1  0  0  0  0
 13 17  1  0  0  0  0
 13 14  2  0  0  0  0
 14 18  1  0  0  0  0
 15 11  1  0  0  0  0
 16 12  1  0  0  0  0
 19 20  2  0  0  0  0
 19 22  1  0  0  0  0
 19 21  2  0  0  0  0
 22 23  1  0  0  0  0
 24 22  1  0  0  0  0
 25 22  1  0  0  0  0
 26 31  2  0  0  0  0
 26 27  1  0  0  0  0
 27 28  2  0  0  0  0
 28 29  1  0  0  0  0
 28 34  1  0  0  0  0
 30  1  1  0  0  0  0
 30 29  2  0  0  0  0
 31 30  1  0  0  0  0
 32 26  1  0  0  0  0
 33 27  1  0  0  0  0
 34 44  1  0  0  0  0
 35 34  2  0  0  0  0
 35 37  1  0  0  0  0
 36 35  1  0  0  0  0
 37 38  2  0  0  0  0
 38 39  1  0  0  0  0
 39 40  1  0  0  0  0
 40 41  2  0  0  0  0
 42 41  1  0  0  0  0
 43 42  2  0  0  0  0
 44 43  1  0  0  0  0
 44 39  2  0  0  0  0
M  END
>  <minimizedAffinity>
-7.30159283

$$$$

 OpenBabel03272504293D

 44 48  0  0  0  0  0  0  0  0999 V2000
   37.4910   26.4940   34.0470 C   0  0  0  0  0  0  0  0  0  0  0  0
   37.3950   26.1890   35.3510 C   0  0  0  0  0  0  0  0  0  0  0  0
   38.0140   25.1190   35.8620 C   0  0  0  0  0  0  0  0  0  0  0  0
   38.7490   24.3360   35.0310 N   0  0  0  0  0  0  0  0  0  0  0  0
   38.8410   24.6430   33.7440 C   0  0  0  0  0  0  0  0  0  0  0  0
   38.2220   25.7150   33.2310 N   0  0  0  0  0  0  0  0  0  0  0  0
   36.8080   26.8120   36.0140 H   0  0  0  0  0  0  0  0  0  0  0  0
   37.9270   24.8830   36.9210 H   0  0  0  0  0  0  0  0  0  0  0  0
   39.0950   22.9600   31.9720 C   0  0  0  0  0  0  0  0  0  0  0  0
   39.6690   23.7550   32.9690 C   0  0  0  0  0  0  0  0  0  0  0  0
   41.0130   23.7330   33.2960 C   0  0  0  0  0  0  0  0  0  0  0  0
   41.8550   22.8830   32.6090 C   0  0  0  0  0  0  0  0  0  0  0  0
   41.3750   22.0630   31.6120 C   0  0  0  0  0  0  0  0  0  0  0  0
   40.0430   22.1520   31.3590 C   0  0  0  0  0  0  0  0  0  0  0  0
   41.4120   24.3680   34.0760 H   0  0  0  0  0  0  0  0  0  0  0  0
   42.9130   22.8550   32.8560 H   0  0  0  0  0  0  0  0  0  0  0  0
   42.0120   21.3950   31.0660 H   0  0  0  0  0  0  0  0  0  0  0  0
   39.6680   21.4980   30.5650 H   0  0  0  0  0  0  0  0  0  0  0  0
   37.4870   22.9820   31.5380 S   0  0  0  0  0  0  0  0  0  0  0  0
   37.4470   21.5470   30.9160 O   0  0  0  0  0  0  0  0  0  0  0  0
   37.3380   23.9840   30.4220 O   0  0  0  0  0  0  0  0  0  0  0  0
   35.9310   22.8260   31.8550 C   0  0  0  0  0  0  0  0  0  0  0  0
   35.3680   21.8260   32.6800 F   0  0  0  0  0  0  0  0  0  0  0  0
   35.2370   22.2480   30.6930 F   0  0  0  0  0  0  0  0  0  0  0  0
   35.0290   23.9230   31.7370 F   0  0  0  0  0  0  0  0  0  0  0  0
   36.1610   28.9420   31.6560 C   0  0  0  0  0  0  0  0  0  0  0  0
   35.5610   29.8890   32.4880 C   0  0  0  0  0  0  0  0  0  0  0  0
   35.6190   29.6860   33.8580 C   0  0  0  0  0  0  0  0  0  0  0  0
   36.2670   28.5590   34.2810 N   0  0  0  0  0  0  0  0  0  0  0  0
   36.8370   27.6610   33.4590 C   0  0  0  0  0  0  0  0  0  0  0  0
   36.7740   27.8710   32.1480 N   0  0  0  0  0  0  0  0  0  0  0  0
   36.1190   29.0970   30.5860 H   0  0  0  0  0  0  0  0  0  0  0  0
   35.0570   30.6860   32.0380 H   0  0  0  0  0  0  0  0  0  0  0  0
   35.0250   30.4680   34.9170 C   0  0  0  0  0  0  0  0  0  0  0  0
   35.8290   31.4710   35.4820 C   0  0  0  0  0  0  0  0  0  0  0  0
   36.8490   31.6150   35.1190 H   0  0  0  0  0  0  0  0  0  0  0  0
   35.4270   32.3180   36.4910 C   0  0  0  0  0  3  0  0  0  0  0  0
   34.1550   32.2040   37.0050 C   0  0  0  0  0  3  0  0  0  0  0  0
   33.3180   31.2410   36.4900 C   0  0  0  0  0  0  0  0  0  0  0  0
   32.0280   31.1250   36.9600 C   0  0  0  0  0  3  0  0  0  0  0  0
   31.1200   30.1910   36.4480 C   0  0  0  0  0  3  0  0  0  0  0  0
   31.6230   29.3890   35.4270 C   0  0  0  0  0  3  0  0  0  0  0  0
   32.9130   29.5230   34.9780 C   0  0  0  0  0  3  0  0  0  0  0  0
   33.7830   30.4320   35.4860 C   0  0  0  0  0  0  0  0  0  0  0  0
  1  2  1  0  0  0  0
  2  3  2  0  0  0  0
  2  7  1  0  0  0  0
  3  8  1  0  0  0  0
  4  3  1  0  0  0  0
  5  4  2  0  0  0  0
  6  5  1  0  0  0  0
  6  1  2  0  0  0  0
  9 10  1  0  0  0  0
 10 11  2  0  0  0  0
 10  5  1  0  0  0  0
 11 15  1  0  0  0  0
 12 16  1  0  0  0  0
 12 11  1  0  0  0  0
 13 12  2  0  0  0  0
 14 13  1  0  0  0  0
 14  9  2  0  0  0  0
 17 13  1  0  0  0  0
 18 14  1  0  0  0  0
 19 22  1  0  0  0  0
 19  9  1  0  0  0  0
 20 19  2  0  0  0  0
 21 19  2  0  0  0  0
 22 23  1  0  0  0  0
 24 22  1  0  0  0  0
 25 22  1  0  0  0  0
 26 31  2  0  0  0  0
 26 27  1  0  0  0  0
 27 28  2  0  0  0  0
 28 29  1  0  0  0  0
 28 34  1  0  0  0  0
 30  1  1  0  0  0  0
 30 29  2  0  0  0  0
 31 30  1  0  0  0  0
 32 26  1  0  0  0  0
 33 27  1  0  0  0  0
 34 35  2  0  0  0  0
 34 44  1  0  0  0  0
 35 37  1  0  0  0  0
 36 35  1  0  0  0  0
 37 38  2  0  0  0  0
 39 40  1  0  0  0  0
 39 38  1  0  0  0  0
 41 40  2  0  0  0  0
 42 41  1  0  0  0  0
 43 42  2  0  0  0  0
 43 44  1  0  0  0  0
 44 39  2  0  0  0  0
M  END
>  <minimizedAffinity>
-7.28766584

$$$$

 OpenBabel03272504293D

 44 48  0  0  0  0  0  0  0  0999 V2000
   35.2450   29.7860   31.9850 C   0  0  0  0  0  0  0  0  0  0  0  0
   34.9050   30.7150   31.0780 C   0  0  0  0  0  0  0  0  0  0  0  0
   33.8030   31.4600   31.2260 C   0  0  0  0  0  0  0  0  0  0  0  0
   33.0250   31.2580   32.3190 N   0  0  0  0  0  0  0  0  0  0  0  0
   33.3670   30.3390   33.2120 C   0  0  0  0  0  0  0  0  0  0  0  0
   34.4700   29.5920   33.0670 N   0  0  0  0  0  0  0  0  0  0  0  0
   35.5240   30.8770   30.2050 H   0  0  0  0  0  0  0  0  0  0  0  0
   33.5380   32.2100   30.4820 H   0  0  0  0  0  0  0  0  0  0  0  0
   32.7860   30.8950   35.5350 C   0  0  0  0  0  0  0  0  0  0  0  0
   32.4780   30.2340   34.3420 C   0  0  0  0  0  0  0  0  0  0  0  0
   31.3600   29.4380   34.1660 C   0  0  0  0  0  0  0  0  0  0  0  0
   30.4830   29.2740   35.2190 C   0  0  0  0  0  0  0  0  0  0  0  0
   30.7090   29.8880   36.4310 C   0  0  0  0  0  0  0  0  0  0  0  0
   31.8320   30.6500   36.5120 C   0  0  0  0  0  0  0  0  0  0  0  0
   31.1620   28.9470   33.2230 H   0  0  0  0  0  0  0  0  0  0  0  0
   29.6010   28.6520   35.0950 H   0  0  0  0  0  0  0  0  0  0  0  0
   30.0420   29.7740   37.2620 H   0  0  0  0  0  0  0  0  0  0  0  0
   32.0050   31.1350   37.4780 H   0  0  0  0  0  0  0  0  0  0  0  0
   34.1100   31.8790   35.7690 S   0  0  0  0  0  0  0  0  0  0  0  0
   34.1710   31.7340   37.3260 O   0  0  0  0  0  0  0  0  0  0  0  0
   33.6840   33.2880   35.4430 O   0  0  0  0  0  0  0  0  0  0  0  0
   35.6800   32.1610   35.7910 C   0  0  0  0  0  0  0  0  0  0  0  0
   36.2740   33.4240   36.0150 F   0  0  0  0  0  0  0  0  0  0  0  0
   36.2090   32.1640   34.4180 F   0  0  0  0  0  0  0  0  0  0  0  0
   36.6230   31.1260   36.0570 F   0  0  0  0  0  0  0  0  0  0  0  0
   38.3460   28.2630   30.7410 C   0  0  0  0  0  0  0  0  0  0  0  0
   38.6800   27.3720   31.7620 C   0  0  0  0  0  0  0  0  0  0  0  0
   37.8420   27.2940   32.8640 C   0  0  0  0  0  0  0  0  0  0  0  0
   36.7460   28.1120   32.8550 N   0  0  0  0  0  0  0  0  0  0  0  0
   36.4460   28.9640   31.8600 C   0  0  0  0  0  0  0  0  0  0  0  0
   37.2590   29.0240   30.8100 N   0  0  0  0  0  0  0  0  0  0  0  0
   38.9970   28.3260   29.8790 H   0  0  0  0  0  0  0  0  0  0  0  0
   39.5710   26.8330   31.6690 H   0  0  0  0  0  0  0  0  0  0  0  0
   37.9980   26.5140   34.0690 C   0  0  0  0  0  0  0  0  0  0  0  0
   38.1640   27.2340   35.2640 C   0  0  0  0  0  0  0  0  0  0  0  0
   38.1780   28.3260   35.2390 H   0  0  0  0  0  0  0  0  0  0  0  0
   38.3160   26.6600   36.5060 C   0  0  0  0  0  3  0  0  0  0  0  0
   38.3090   25.2890   36.6250 C   0  0  0  0  0  3  0  0  0  0  0  0
   38.1470   24.5280   35.4900 C   0  0  0  0  0  0  0  0  0  0  0  0
   38.1010   23.1540   35.5810 C   0  0  0  0  0  3  0  0  0  0  0  0
   37.9000   22.3300   34.4680 C   0  0  0  0  0  3  0  0  0  0  0  0
   37.7500   23.0090   33.2610 C   0  0  0  0  0  3  0  0  0  0  0  0
   37.8030   24.3790   33.1960 C   0  0  0  0  0  3  0  0  0  0  0  0
   38.0010   25.1640   34.2850 C   0  0  0  0  0  0  0  0  0  0  0  0
  1  6  1  0  0  0  0
  2  3  1  0  0  0  0
  2  1  2  0  0  0  0
  3  4  2  0  0  0  0
  4  5  1  0  0  0  0
  5 10  1  0  0  0  0
  6  5  2  0  0  0  0
  7  2  1  0  0  0  0
  8  3  1  0  0  0  0
  9 19  1  0  0  0  0
  9 14  1  0  0  0  0
 10  9  2  0  0  0  0
 11 10  1  0  0  0  0
 11 12  2  0  0  0  0
 12 13  1  0  0  0  0
 13 14  2  0  0  0  0
 13 17  1  0  0  0  0
 14 18  1  0  0  0  0
 15 11  1  0  0  0  0
 16 12  1  0  0  0  0
 19 22  1  0  0  0  0
 19 20  2  0  0  0  0
 21 19  2  0  0  0  0
 22 23  1  0  0  0  0
 22 25  1  0  0  0  0
 24 22  1  0  0  0  0
 26 31  2  0  0  0  0
 26 27  1  0  0  0  0
 27 28  2  0  0  0  0
 28 34  1  0  0  0  0
 29 28  1  0  0  0  0
 30  1  1  0  0  0  0
 30 29  2  0  0  0  0
 31 30  1  0  0  0  0
 32 26  1  0  0  0  0
 33 27  1  0  0  0  0
 34 44  2  0  0  0  0
 34 35  1  0  0  0  0
 35 37  2  0  0  0  0
 36 35  1  0  0  0  0
 37 38  1  0  0  0  0
 39 40  1  0  0  0  0
 39 38  2  0  0  0  0
 41 40  2  0  0  0  0
 42 41  1  0  0  0  0
 43 42  2  0  0  0  0
 43 44  1  0  0  0  0
 44 39  1  0  0  0  0
M  END
>  <minimizedAffinity>
-7.20850515

$$$$
