
 OpenBabel03272502383D

 32 35  0  0  1  0  0  0  0  0999 V2000
   36.4720   27.7890   32.6820 N   0  0  0  0  0  0  0  0  0  0  0  0
   36.6910   28.9440   31.8170 C   0  0  0  0  0  0  0  0  0  0  0  0
   35.8490   30.0160   32.4730 C   0  0  0  0  0  0  0  0  0  0  0  0
   35.1730   29.3710   33.6640 C   0  0  1  0  0  0  0  0  0  0  0  0
   36.2150   28.3230   34.0200 C   0  0  0  0  0  0  0  0  0  0  0  0
   36.4270   28.7660   30.7780 H   0  0  0  0  0  0  0  0  0  0  0  0
   37.7700   29.2040   31.9680 H   0  0  0  0  0  0  0  0  0  0  0  0
   36.4500   30.9000   32.7620 H   0  0  0  0  0  0  0  0  0  0  0  0
   35.1330   30.3940   31.7100 H   0  0  0  0  0  0  0  0  0  0  0  0
   34.2430   28.9230   33.2960 H   0  0  0  0  0  0  0  0  0  0  0  0
   35.8970   27.5850   34.7450 H   0  0  0  0  0  0  0  0  0  0  0  0
   37.1400   28.9020   34.3060 H   0  0  0  0  0  0  0  0  0  0  0  0
   35.0400   30.3670   34.7070 C   0  0  0  0  0  0  0  0  0  0  0  0
   35.9820   31.2650   35.1520 C   0  0  0  0  0  0  0  0  0  0  0  0
   36.9430   31.2770   34.7070 H   0  0  0  0  0  0  0  0  0  0  0  0
   35.8050   32.1900   36.1590 C   0  0  0  0  0  3  0  0  0  0  0  0
   34.5850   32.2480   36.8000 C   0  0  0  0  0  3  0  0  0  0  0  0
   33.5960   31.3740   36.4030 C   0  0  0  0  0  0  0  0  0  0  0  0
   32.4100   31.4910   37.0850 C   0  0  0  0  0  3  0  0  0  0  0  0
   31.3660   30.6650   36.7590 C   0  0  0  0  0  3  0  0  0  0  0  0
   31.5290   29.7390   35.7570 C   0  0  0  0  0  3  0  0  0  0  0  0
   32.7330   29.6730   35.1160 C   0  0  0  0  0  3  0  0  0  0  0  0
   33.8240   30.4700   35.3920 C   0  0  0  0  0  0  0  0  0  0  0  0
   36.5090   26.4300   32.3050 C   0  0  0  0  0  0  0  0  0  0  0  0
   35.5910   26.0080   31.3500 C   0  0  0  0  0  0  0  0  0  0  0  0
   35.5940   24.6700   30.9390 C   0  0  0  0  0  0  0  0  0  0  0  0
   36.5320   23.8450   31.5260 N   0  0  0  0  0  0  0  0  0  0  0  0
   37.4120   24.2990   32.4570 C   0  0  0  0  0  0  0  0  0  0  0  0
   37.3970   25.6100   32.8500 N   0  0  0  0  0  0  0  0  0  0  0  0
   34.8490   26.5940   30.8640 H   0  0  0  0  0  0  0  0  0  0  0  0
   34.9230   24.2500   30.2050 H   0  0  0  0  0  0  0  0  0  0  0  0
   38.1240   23.5720   32.8710 H   0  0  0  0  0  0  0  0  0  0  0  0
  1  5  1  0  0  0  0
  2  7  1  0  0  0  0
  2  3  1  0  0  0  0
  2  1  1  0  0  0  0
  3  8  1  0  0  0  0
  3  4  1  0  0  0  0
  4 10  1  6  0  0  0
  4  5  1  0  0  0  0
  4 13  1  0  0  0  0
  5 12  1  0  0  0  0
  5 11  1  0  0  0  0
  6  2  1  0  0  0  0
  9  3  1  0  0  0  0
 13 14  2  0  0  0  0
 13 23  1  0  0  0  0
 14 16  1  0  0  0  0
 15 14  1  0  0  0  0
 16 17  2  0  0  0  0
 18 17  1  0  0  0  0
 18 19  1  0  0  0  0
 20 19  2  0  0  0  0
 21 20  1  0  0  0  0
 22 23  1  0  0  0  0
 22 21  2  0  0  0  0
 23 18  2  0  0  0  0
 24  1  1  0  0  0  0
 24 29  1  0  0  0  0
 25 24  2  0  0  0  0
 26 25  1  0  0  0  0
 26 27  2  0  0  0  0
 27 28  1  0  0  0  0
 28 29  2  0  0  0  0
 28 32  1  0  0  0  0
 30 25  1  0  0  0  0
 31 26  1  0  0  0  0
M  END
>  <minimizedAffinity>
-5.97052574

$$$$

 OpenBabel03272502383D

 32 35  0  0  1  0  0  0  0  0999 V2000
   38.3490   24.5820   34.4620 N   0  0  0  0  0  0  0  0  0  0  0  0
   37.9030   23.7910   33.3200 C   0  0  0  0  0  0  0  0  0  0  0  0
   37.0930   24.7870   32.5190 C   0  0  0  0  0  0  0  0  0  0  0  0
   37.1090   26.0860   33.2970 C   0  0  1  0  0  0  0  0  0  0  0  0
   38.4580   25.9610   33.9860 C   0  0  0  0  0  0  0  0  0  0  0  0
   37.3390   22.9040   33.5980 H   0  0  0  0  0  0  0  0  0  0  0  0
   38.8430   23.5660   32.7540 H   0  0  0  0  0  0  0  0  0  0  0  0
   37.4840   24.9120   31.4910 H   0  0  0  0  0  0  0  0  0  0  0  0
   36.0730   24.3620   32.3890 H   0  0  0  0  0  0  0  0  0  0  0  0
   36.2750   26.0390   34.0070 H   0  0  0  0  0  0  0  0  0  0  0  0
   38.6470   26.6910   34.7630 H   0  0  0  0  0  0  0  0  0  0  0  0
   39.2210   25.9420   33.1550 H   0  0  0  0  0  0  0  0  0  0  0  0
   37.0920   27.1820   32.3520 C   0  0  0  0  0  0  0  0  0  0  0  0
   37.5760   27.2050   31.0650 C   0  0  0  0  0  0  0  0  0  0  0  0
   38.0240   26.3350   30.6600 H   0  0  0  0  0  0  0  0  0  0  0  0
   37.5410   28.2840   30.2070 C   0  0  0  0  0  3  0  0  0  0  0  0
   36.9780   29.4640   30.6470 C   0  0  0  0  0  3  0  0  0  0  0  0
   36.4740   29.5100   31.9290 C   0  0  0  0  0  0  0  0  0  0  0  0
   35.9290   30.7160   32.2950 C   0  0  0  0  0  3  0  0  0  0  0  0
   35.4000   30.8570   33.5520 C   0  0  0  0  0  3  0  0  0  0  0  0
   35.4270   29.7890   34.4170 C   0  0  0  0  0  3  0  0  0  0  0  0
   35.9840   28.6160   33.9920 C   0  0  0  0  0  3  0  0  0  0  0  0
   36.5330   28.4040   32.7450 C   0  0  0  0  0  0  0  0  0  0  0  0
   38.6250   24.1100   35.7630 C   0  0  0  0  0  0  0  0  0  0  0  0
   37.8030   24.5560   36.7910 C   0  0  0  0  0  0  0  0  0  0  0  0
   38.0330   24.1090   38.0980 C   0  0  0  0  0  0  0  0  0  0  0  0
   39.0870   23.2350   38.2750 N   0  0  0  0  0  0  0  0  0  0  0  0
   39.8660   22.8240   37.2400 C   0  0  0  0  0  0  0  0  0  0  0  0
   39.6300   23.2700   35.9690 N   0  0  0  0  0  0  0  0  0  0  0  0
   36.9800   25.2250   36.7170 H   0  0  0  0  0  0  0  0  0  0  0  0
   37.4510   24.3980   38.9590 H   0  0  0  0  0  0  0  0  0  0  0  0
   40.6830   22.1270   37.4740 H   0  0  0  0  0  0  0  0  0  0  0  0
  1 24  1  0  0  0  0
  2  6  1  0  0  0  0
  2  1  1  0  0  0  0
  3  4  1  0  0  0  0
  3  2  1  0  0  0  0
  4  5  1  0  0  0  0
  4 10  1  1  0  0  0
  5  1  1  0  0  0  0
  5 11  1  0  0  0  0
  7  2  1  0  0  0  0
  8  3  1  0  0  0  0
  9  3  1  0  0  0  0
 12  5  1  0  0  0  0
 13 23  1  0  0  0  0
 13  4  1  0  0  0  0
 14 13  2  0  0  0  0
 15 14  1  0  0  0  0
 16 17  2  0  0  0  0
 16 14  1  0  0  0  0
 17 18  1  0  0  0  0
 18 19  2  0  0  0  0
 18 23  1  0  0  0  0
 19 20  1  0  0  0  0
 20 21  2  0  0  0  0
 22 21  1  0  0  0  0
 23 22  2  0  0  0  0
 24 29  2  0  0  0  0
 24 25  1  0  0  0  0
 25 26  2  0  0  0  0
 26 27  1  0  0  0  0
 26 31  1  0  0  0  0
 28 32  1  0  0  0  0
 28 27  2  0  0  0  0
 29 28  1  0  0  0  0
 30 25  1  0  0  0  0
M  END
>  <minimizedAffinity>
-5.84717131

$$$$

 OpenBabel03272502383D

 32 35  0  0  1  0  0  0  0  0999 V2000
   37.2080   26.2800   33.0500 N   0  0  0  0  0  0  0  0  0  0  0  0
   37.0450   24.9120   32.5680 C   0  0  0  0  0  0  0  0  0  0  0  0
   37.8720   24.1120   33.5500 C   0  0  0  0  0  0  0  0  0  0  0  0
   38.4850   25.1050   34.5140 C   0  0  1  0  0  0  0  0  0  0  0  0
   37.4140   26.1830   34.4950 C   0  0  0  0  0  0  0  0  0  0  0  0
   37.3520   24.7740   31.5350 H   0  0  0  0  0  0  0  0  0  0  0  0
   35.9640   24.6810   32.7500 H   0  0  0  0  0  0  0  0  0  0  0  0
   37.2720   23.3410   34.0700 H   0  0  0  0  0  0  0  0  0  0  0  0
   38.6270   23.5410   32.9650 H   0  0  0  0  0  0  0  0  0  0  0  0
   39.4240   25.4460   34.0630 H   0  0  0  0  0  0  0  0  0  0  0  0
   37.6880   27.1140   34.9740 H   0  0  0  0  0  0  0  0  0  0  0  0
   36.4840   25.6920   34.9080 H   0  0  0  0  0  0  0  0  0  0  0  0
   38.5850   24.4750   35.8140 C   0  0  0  0  0  0  0  0  0  0  0  0
   37.7240   24.5830   36.8810 C   0  0  0  0  0  0  0  0  0  0  0  0
   36.8580   25.1860   36.7950 H   0  0  0  0  0  0  0  0  0  0  0  0
   37.8730   23.9650   38.1050 C   0  0  0  0  0  3  0  0  0  0  0  0
   38.9730   23.1600   38.3130 C   0  0  0  0  0  3  0  0  0  0  0  0
   39.8780   23.0090   37.2840 C   0  0  0  0  0  0  0  0  0  0  0  0
   40.9450   22.1930   37.5640 C   0  0  0  0  0  3  0  0  0  0  0  0
   41.8970   21.9810   36.6000 C   0  0  0  0  0  3  0  0  0  0  0  0
   41.7610   22.5910   35.3750 C   0  0  0  0  0  3  0  0  0  0  0  0
   40.6750   23.3910   35.1590 C   0  0  0  0  0  3  0  0  0  0  0  0
   39.6820   23.6480   36.0810 C   0  0  0  0  0  0  0  0  0  0  0  0
   37.1690   27.4600   32.2770 C   0  0  0  0  0  0  0  0  0  0  0  0
   37.9970   27.5210   31.1630 C   0  0  0  0  0  0  0  0  0  0  0  0
   37.9880   28.6690   30.3610 C   0  0  0  0  0  0  0  0  0  0  0  0
   37.1340   29.6830   30.7450 N   0  0  0  0  0  0  0  0  0  0  0  0
   36.3400   29.5820   31.8430 C   0  0  0  0  0  0  0  0  0  0  0  0
   36.3600   28.4540   32.6180 N   0  0  0  0  0  0  0  0  0  0  0  0
   38.6730   26.7750   30.8180 H   0  0  0  0  0  0  0  0  0  0  0  0
   38.5930   28.8080   29.4790 H   0  0  0  0  0  0  0  0  0  0  0  0
   35.6910   30.4390   32.0730 H   0  0  0  0  0  0  0  0  0  0  0  0
  1  5  1  0  0  0  0
  2  7  1  0  0  0  0
  2  1  1  0  0  0  0
  2  3  1  0  0  0  0
  3  8  1  0  0  0  0
  3  4  1  0  0  0  0
  4 10  1  6  0  0  0
  4 13  1  0  0  0  0
  5  4  1  0  0  0  0
  5 12  1  0  0  0  0
  5 11  1  0  0  0  0
  6  2  1  0  0  0  0
  9  3  1  0  0  0  0
 13 23  2  0  0  0  0
 13 14  1  0  0  0  0
 14 16  2  0  0  0  0
 15 14  1  0  0  0  0
 16 17  1  0  0  0  0
 18 19  1  0  0  0  0
 18 17  2  0  0  0  0
 20 19  2  0  0  0  0
 21 20  1  0  0  0  0
 22 21  2  0  0  0  0
 22 23  1  0  0  0  0
 23 18  1  0  0  0  0
 24 29  1  0  0  0  0
 24  1  1  0  0  0  0
 25 24  2  0  0  0  0
 26 27  2  0  0  0  0
 26 25  1  0  0  0  0
 27 28  1  0  0  0  0
 28 32  1  0  0  0  0
 28 29  2  0  0  0  0
 30 25  1  0  0  0  0
 31 26  1  0  0  0  0
M  END
>  <minimizedAffinity>
-5.80931902

$$$$

 OpenBabel03272502383D

 32 35  0  0  1  0  0  0  0  0999 V2000
   36.0590   29.0580   31.7360 N   0  0  0  0  0  0  0  0  0  0  0  0
   36.5300   28.0450   32.6750 C   0  0  0  0  0  0  0  0  0  0  0  0
   36.0630   28.5850   34.0100 C   0  0  0  0  0  0  0  0  0  0  0  0
   35.3790   29.9060   33.7300 C   0  0  1  0  0  0  0  0  0  0  0  0
   34.8530   29.6360   32.3300 C   0  0  0  0  0  0  0  0  0  0  0  0
   37.6030   27.8760   32.6320 H   0  0  0  0  0  0  0  0  0  0  0  0
   35.9220   27.1370   32.4320 H   0  0  0  0  0  0  0  0  0  0  0  0
   35.3990   27.8740   34.5370 H   0  0  0  0  0  0  0  0  0  0  0  0
   36.9580   28.6800   34.6640 H   0  0  0  0  0  0  0  0  0  0  0  0
   36.1610   30.6750   33.7380 H   0  0  0  0  0  0  0  0  0  0  0  0
   34.4660   30.5030   31.8080 H   0  0  0  0  0  0  0  0  0  0  0  0
   34.1230   28.7830   32.4410 H   0  0  0  0  0  0  0  0  0  0  0  0
   34.3020   30.0720   34.6820 C   0  0  0  0  0  0  0  0  0  0  0  0
   33.1940   29.2770   34.8610 C   0  0  0  0  0  0  0  0  0  0  0  0
   33.0640   28.4180   34.2550 H   0  0  0  0  0  0  0  0  0  0  0  0
   32.1890   29.4860   35.7820 C   0  0  0  0  0  3  0  0  0  0  0  0
   32.2700   30.5820   36.6150 C   0  0  0  0  0  3  0  0  0  0  0  0
   33.3560   31.4220   36.4880 C   0  0  0  0  0  0  0  0  0  0  0  0
   33.3680   32.4890   37.3510 C   0  0  0  0  0  3  0  0  0  0  0  0
   34.4100   33.3780   37.3010 C   0  0  0  0  0  3  0  0  0  0  0  0
   35.4190   33.1820   36.3880 C   0  0  0  0  0  3  0  0  0  0  0  0
   35.3480   32.1000   35.5570 C   0  0  0  0  0  3  0  0  0  0  0  0
   34.3310   31.1670   35.5520 C   0  0  0  0  0  0  0  0  0  0  0  0
   36.6450   29.4050   30.5010 C   0  0  0  0  0  0  0  0  0  0  0  0
   36.6230   30.7460   30.1380 C   0  0  0  0  0  0  0  0  0  0  0  0
   37.1990   31.1400   28.9240 C   0  0  0  0  0  0  0  0  0  0  0  0
   37.7630   30.1420   28.1560 N   0  0  0  0  0  0  0  0  0  0  0  0
   37.7630   28.8410   28.5480 C   0  0  0  0  0  0  0  0  0  0  0  0
   37.1950   28.4710   29.7370 N   0  0  0  0  0  0  0  0  0  0  0  0
   36.2060   31.5570   30.6860 H   0  0  0  0  0  0  0  0  0  0  0  0
   37.2310   32.1550   28.5590 H   0  0  0  0  0  0  0  0  0  0  0  0
   38.2350   28.1140   27.8730 H   0  0  0  0  0  0  0  0  0  0  0  0
  1  5  1  0  0  0  0
  1  2  1  0  0  0  0
  2  3  1  0  0  0  0
  3  8  1  0  0  0  0
  3  9  1  0  0  0  0
  4 10  1  1  0  0  0
  4  3  1  0  0  0  0
  4 13  1  0  0  0  0
  5 12  1  0  0  0  0
  5  4  1  0  0  0  0
  6  2  1  0  0  0  0
  7  2  1  0  0  0  0
 11  5  1  0  0  0  0
 13 14  2  0  0  0  0
 13 23  1  0  0  0  0
 14 16  1  0  0  0  0
 15 14  1  0  0  0  0
 16 17  2  0  0  0  0
 18 17  1  0  0  0  0
 18 19  1  0  0  0  0
 20 19  2  0  0  0  0
 21 20  1  0  0  0  0
 22 21  2  0  0  0  0
 23 22  1  0  0  0  0
 23 18  2  0  0  0  0
 24  1  1  0  0  0  0
 25 24  1  0  0  0  0
 25 30  1  0  0  0  0
 26 25  2  0  0  0  0
 27 28  2  0  0  0  0
 27 26  1  0  0  0  0
 28 29  1  0  0  0  0
 29 24  2  0  0  0  0
 31 26  1  0  0  0  0
 32 28  1  0  0  0  0
M  END
>  <minimizedAffinity>
-5.69899845

$$$$

 OpenBabel03272502383D

 32 35  0  0  1  0  0  0  0  0999 V2000
   37.9200   24.7520   33.7160 N   0  0  0  0  0  0  0  0  0  0  0  0
   37.2920   24.1160   32.5640 C   0  0  0  0  0  0  0  0  0  0  0  0
   36.4810   25.2430   31.9610 C   0  0  0  0  0  0  0  0  0  0  0  0
   36.6840   26.4500   32.8530 C   0  0  1  0  0  0  0  0  0  0  0  0
   38.0860   26.1630   33.3650 C   0  0  0  0  0  0  0  0  0  0  0  0
   36.6930   23.2450   32.8190 H   0  0  0  0  0  0  0  0  0  0  0  0
   38.1430   23.8890   31.8730 H   0  0  0  0  0  0  0  0  0  0  0  0
   36.7660   25.4460   30.9120 H   0  0  0  0  0  0  0  0  0  0  0  0
   35.4220   24.9040   31.9110 H   0  0  0  0  0  0  0  0  0  0  0  0
   35.9320   26.3870   33.6470 H   0  0  0  0  0  0  0  0  0  0  0  0
   38.4160   26.7940   34.1800 H   0  0  0  0  0  0  0  0  0  0  0  0
   38.7500   26.1790   32.4520 H   0  0  0  0  0  0  0  0  0  0  0  0
   36.6510   27.6370   32.0250 C   0  0  0  0  0  0  0  0  0  0  0  0
   36.9750   27.7570   30.6940 C   0  0  0  0  0  0  0  0  0  0  0  0
   37.2910   26.9020   30.1540 H   0  0  0  0  0  0  0  0  0  0  0  0
   36.9330   28.9190   29.9530 C   0  0  0  0  0  3  0  0  0  0  0  0
   36.5360   30.0870   30.5710 C   0  0  0  0  0  3  0  0  0  0  0  0
   36.1980   30.0370   31.9070 C   0  0  0  0  0  0  0  0  0  0  0  0
   35.8120   31.2360   32.4520 C   0  0  0  0  0  3  0  0  0  0  0  0
   35.4540   31.2850   33.7750 C   0  0  0  0  0  3  0  0  0  0  0  0
   35.4910   30.1340   34.5250 C   0  0  0  0  0  3  0  0  0  0  0  0
   35.8840   28.9730   33.9220 C   0  0  0  0  0  3  0  0  0  0  0  0
   36.2560   28.8500   32.6000 C   0  0  0  0  0  0  0  0  0  0  0  0
   38.2990   24.1310   34.9250 C   0  0  0  0  0  0  0  0  0  0  0  0
   39.0300   22.9520   34.8350 C   0  0  0  0  0  0  0  0  0  0  0  0
   39.4340   22.3030   36.0080 C   0  0  0  0  0  0  0  0  0  0  0  0
   39.0690   22.8960   37.2000 N   0  0  0  0  0  0  0  0  0  0  0  0
   38.3540   24.0500   37.2420 C   0  0  0  0  0  0  0  0  0  0  0  0
   37.9650   24.6740   36.0880 N   0  0  0  0  0  0  0  0  0  0  0  0
   39.3390   22.4490   33.9510 H   0  0  0  0  0  0  0  0  0  0  0  0
   40.0030   21.3860   36.0400 H   0  0  0  0  0  0  0  0  0  0  0  0
   38.1080   24.4520   38.2360 H   0  0  0  0  0  0  0  0  0  0  0  0
  1 24  1  0  0  0  0
  2  6  1  0  0  0  0
  2  1  1  0  0  0  0
  3  2  1  0  0  0  0
  3  4  1  0  0  0  0
  4  5  1  0  0  0  0
  4 10  1  1  0  0  0
  5  1  1  0  0  0  0
  5 11  1  0  0  0  0
  7  2  1  0  0  0  0
  8  3  1  0  0  0  0
  9  3  1  0  0  0  0
 12  5  1  0  0  0  0
 13 23  1  0  0  0  0
 13  4  1  0  0  0  0
 14 13  2  0  0  0  0
 15 14  1  0  0  0  0
 16 17  2  0  0  0  0
 16 14  1  0  0  0  0
 17 18  1  0  0  0  0
 18 19  2  0  0  0  0
 18 23  1  0  0  0  0
 19 20  1  0  0  0  0
 20 21  2  0  0  0  0
 22 21  1  0  0  0  0
 23 22  2  0  0  0  0
 24 29  1  0  0  0  0
 25 24  2  0  0  0  0
 25 26  1  0  0  0  0
 26 31  1  0  0  0  0
 26 27  2  0  0  0  0
 27 28  1  0  0  0  0
 28 32  1  0  0  0  0
 29 28  2  0  0  0  0
 30 25  1  0  0  0  0
M  END
>  <minimizedAffinity>
-5.51037121

$$$$

 OpenBabel03272502383D

 32 35  0  0  1  0  0  0  0  0999 V2000
   38.8340   26.9800   33.4660 N   0  0  0  0  0  0  0  0  0  0  0  0
   37.4930   27.2710   33.9630 C   0  0  0  0  0  0  0  0  0  0  0  0
   37.2150   26.0990   34.8790 C   0  0  0  0  0  0  0  0  0  0  0  0
   38.4260   25.1930   34.8060 C   0  0  1  0  0  0  0  0  0  0  0  0
   39.5060   26.2230   34.5230 C   0  0  0  0  0  0  0  0  0  0  0  0
   36.7530   27.3870   33.1770 H   0  0  0  0  0  0  0  0  0  0  0  0
   37.6240   28.1860   34.5950 H   0  0  0  0  0  0  0  0  0  0  0  0
   36.9960   26.4210   35.9150 H   0  0  0  0  0  0  0  0  0  0  0  0
   36.2780   25.6130   34.5260 H   0  0  0  0  0  0  0  0  0  0  0  0
   38.2640   24.5170   33.9580 H   0  0  0  0  0  0  0  0  0  0  0  0
   40.4690   25.8150   34.2410 H   0  0  0  0  0  0  0  0  0  0  0  0
   39.5230   26.8990   35.4260 H   0  0  0  0  0  0  0  0  0  0  0  0
   38.6070   24.5710   36.1010 C   0  0  0  0  0  0  0  0  0  0  0  0
   37.9320   24.8270   37.2710 C   0  0  0  0  0  0  0  0  0  0  0  0
   37.1670   25.5600   37.2830 H   0  0  0  0  0  0  0  0  0  0  0  0
   38.1510   24.2090   38.4830 C   0  0  0  0  0  3  0  0  0  0  0  0
   39.1310   23.2410   38.5670 C   0  0  0  0  0  3  0  0  0  0  0  0
   39.8470   22.9350   37.4300 C   0  0  0  0  0  0  0  0  0  0  0  0
   40.8020   21.9620   37.5900 C   0  0  0  0  0  3  0  0  0  0  0  0
   41.5640   21.5890   36.5130 C   0  0  0  0  0  3  0  0  0  0  0  0
   41.3550   22.1970   35.2980 C   0  0  0  0  0  3  0  0  0  0  0  0
   40.3890   23.1580   35.2050 C   0  0  0  0  0  3  0  0  0  0  0  0
   39.5870   23.5820   36.2440 C   0  0  0  0  0  0  0  0  0  0  0  0
   39.3750   27.3580   32.2200 C   0  0  0  0  0  0  0  0  0  0  0  0
   38.4870   27.7880   31.2410 C   0  0  0  0  0  0  0  0  0  0  0  0
   38.9780   28.1800   29.9900 C   0  0  0  0  0  0  0  0  0  0  0  0
   40.3460   28.1110   29.8150 N   0  0  0  0  0  0  0  0  0  0  0  0
   41.1790   27.6850   30.7990 C   0  0  0  0  0  0  0  0  0  0  0  0
   40.6850   27.3030   32.0160 N   0  0  0  0  0  0  0  0  0  0  0  0
   37.4280   27.8620   31.3180 H   0  0  0  0  0  0  0  0  0  0  0  0
   38.3680   28.5280   29.1710 H   0  0  0  0  0  0  0  0  0  0  0  0
   42.2540   27.6630   30.5710 H   0  0  0  0  0  0  0  0  0  0  0  0
  1  2  1  0  0  0  0
  1  5  1  0  0  0  0
  2  7  1  0  0  0  0
  2  3  1  0  0  0  0
  3  8  1  0  0  0  0
  4 10  1  6  0  0  0
  4  3  1  0  0  0  0
  4 13  1  0  0  0  0
  5  4  1  0  0  0  0
  5 12  1  0  0  0  0
  6  2  1  0  0  0  0
  9  3  1  0  0  0  0
 11  5  1  0  0  0  0
 13 23  2  0  0  0  0
 13 14  1  0  0  0  0
 14 15  1  0  0  0  0
 14 16  2  0  0  0  0
 16 17  1  0  0  0  0
 18 19  1  0  0  0  0
 18 17  2  0  0  0  0
 20 19  2  0  0  0  0
 21 20  1  0  0  0  0
 22 21  2  0  0  0  0
 22 23  1  0  0  0  0
 23 18  1  0  0  0  0
 24  1  1  0  0  0  0
 25 30  1  0  0  0  0
 25 24  2  0  0  0  0
 26 25  1  0  0  0  0
 27 26  2  0  0  0  0
 27 28  1  0  0  0  0
 28 29  2  0  0  0  0
 29 24  1  0  0  0  0
 31 26  1  0  0  0  0
 32 28  1  0  0  0  0
M  END
>  <minimizedAffinity>
-5.48805857

$$$$

 OpenBabel03272502383D

 32 35  0  0  1  0  0  0  0  0999 V2000
   38.7920   25.8490   35.6130 N   0  0  0  0  0  0  0  0  0  0  0  0
   39.9130   26.5220   34.9660 C   0  0  0  0  0  0  0  0  0  0  0  0
   39.2820   27.1000   33.7180 C   0  0  0  0  0  0  0  0  0  0  0  0
   37.8280   26.6760   33.7300 C   0  0  1  0  0  0  0  0  0  0  0  0
   37.5920   26.5940   35.2290 C   0  0  0  0  0  0  0  0  0  0  0  0
   40.7540   25.8650   34.7570 H   0  0  0  0  0  0  0  0  0  0  0  0
   40.1650   27.3670   35.6560 H   0  0  0  0  0  0  0  0  0  0  0  0
   39.3950   28.1990   33.6640 H   0  0  0  0  0  0  0  0  0  0  0  0
   39.8490   26.7090   32.8440 H   0  0  0  0  0  0  0  0  0  0  0  0
   37.7820   25.6910   33.2490 H   0  0  0  0  0  0  0  0  0  0  0  0
   36.6600   26.1290   35.5230 H   0  0  0  0  0  0  0  0  0  0  0  0
   37.7420   27.6440   35.6160 H   0  0  0  0  0  0  0  0  0  0  0  0
   37.0420   27.7280   33.1220 C   0  0  0  0  0  0  0  0  0  0  0  0
   36.0550   28.4940   33.6970 C   0  0  0  0  0  0  0  0  0  0  0  0
   35.7990   28.3390   34.7130 H   0  0  0  0  0  0  0  0  0  0  0  0
   35.3280   29.4820   33.0670 C   0  0  0  0  0  3  0  0  0  0  0  0
   35.5890   29.7540   31.7400 C   0  0  0  0  0  3  0  0  0  0  0  0
   36.5670   29.0220   31.1020 C   0  0  0  0  0  0  0  0  0  0  0  0
   36.7710   29.3490   29.7840 C   0  0  0  0  0  3  0  0  0  0  0  0
   37.7260   28.6760   29.0680 C   0  0  0  0  0  3  0  0  0  0  0  0
   38.4580   27.6880   29.6830 C   0  0  0  0  0  3  0  0  0  0  0  0
   38.2070   27.4110   30.9970 C   0  0  0  0  0  3  0  0  0  0  0  0
   37.2630   28.0460   31.7770 C   0  0  0  0  0  0  0  0  0  0  0  0
   38.8520   24.7130   36.4460 C   0  0  0  0  0  0  0  0  0  0  0  0
   39.7460   23.7090   36.0930 C   0  0  0  0  0  0  0  0  0  0  0  0
   39.8470   22.5650   36.8940 C   0  0  0  0  0  0  0  0  0  0  0  0
   39.0310   22.5160   38.0070 N   0  0  0  0  0  0  0  0  0  0  0  0
   38.1700   23.5210   38.3150 C   0  0  0  0  0  0  0  0  0  0  0  0
   38.0810   24.6320   37.5230 N   0  0  0  0  0  0  0  0  0  0  0  0
   40.3980   23.6900   35.2530 H   0  0  0  0  0  0  0  0  0  0  0  0
   40.5100   21.7360   36.7020 H   0  0  0  0  0  0  0  0  0  0  0  0
   37.5590   23.3960   39.2200 H   0  0  0  0  0  0  0  0  0  0  0  0
  1 24  1  0  0  0  0
  2  1  1  0  0  0  0
  2  7  1  0  0  0  0
  3  4  1  0  0  0  0
  3  2  1  0  0  0  0
  4 10  1  6  0  0  0
  4  5  1  0  0  0  0
  5 11  1  0  0  0  0
  5  1  1  0  0  0  0
  5 12  1  0  0  0  0
  6  2  1  0  0  0  0
  8  3  1  0  0  0  0
  9  3  1  0  0  0  0
 13 14  1  0  0  0  0
 13  4  1  0  0  0  0
 14 15  1  0  0  0  0
 16 14  2  0  0  0  0
 17 16  1  0  0  0  0
 18 17  2  0  0  0  0
 18 23  1  0  0  0  0
 19 18  1  0  0  0  0
 20 21  1  0  0  0  0
 20 19  2  0  0  0  0
 21 22  2  0  0  0  0
 22 23  1  0  0  0  0
 23 13  2  0  0  0  0
 24 29  1  0  0  0  0
 25 24  2  0  0  0  0
 25 26  1  0  0  0  0
 26 27  2  0  0  0  0
 27 28  1  0  0  0  0
 28 32  1  0  0  0  0
 29 28  2  0  0  0  0
 30 25  1  0  0  0  0
 31 26  1  0  0  0  0
M  END
>  <minimizedAffinity>
-5.43456316

$$$$

 OpenBabel03272502383D

 32 35  0  0  1  0  0  0  0  0999 V2000
   36.9960   28.2290   31.5670 N   0  0  0  0  0  0  0  0  0  0  0  0
   37.2240   27.3960   32.7420 C   0  0  0  0  0  0  0  0  0  0  0  0
   36.4610   28.1280   33.8240 C   0  0  0  0  0  0  0  0  0  0  0  0
   35.8730   29.3660   33.1800 C   0  0  1  0  0  0  0  0  0  0  0  0
   35.6890   28.8590   31.7600 C   0  0  0  0  0  0  0  0  0  0  0  0
   38.2750   27.2540   32.9790 H   0  0  0  0  0  0  0  0  0  0  0  0
   36.6830   26.4420   32.5160 H   0  0  0  0  0  0  0  0  0  0  0  0
   35.6850   27.4920   34.2910 H   0  0  0  0  0  0  0  0  0  0  0  0
   37.1770   28.3550   34.6450 H   0  0  0  0  0  0  0  0  0  0  0  0
   36.6380   30.1490   33.2450 H   0  0  0  0  0  0  0  0  0  0  0  0
   35.4430   29.6180   31.0280 H   0  0  0  0  0  0  0  0  0  0  0  0
   34.9460   28.0130   31.8350 H   0  0  0  0  0  0  0  0  0  0  0  0
   34.6030   29.6500   33.8140 C   0  0  0  0  0  0  0  0  0  0  0  0
   33.3640   29.1380   33.5060 C   0  0  0  0  0  0  0  0  0  0  0  0
   33.2700   28.4390   32.7160 H   0  0  0  0  0  0  0  0  0  0  0  0
   32.1800   29.4500   34.1400 C   0  0  0  0  0  3  0  0  0  0  0  0
   32.2030   30.3550   35.1810 C   0  0  0  0  0  3  0  0  0  0  0  0
   33.4140   30.9070   35.5410 C   0  0  0  0  0  0  0  0  0  0  0  0
   33.3580   31.7970   36.5850 C   0  0  0  0  0  3  0  0  0  0  0  0
   34.5130   32.3960   37.0160 C   0  0  0  0  0  3  0  0  0  0  0  0
   35.7010   32.0940   36.3930 C   0  0  0  0  0  3  0  0  0  0  0  0
   35.6890   31.2000   35.3610 C   0  0  0  0  0  3  0  0  0  0  0  0
   34.5670   30.5610   34.8760 C   0  0  0  0  0  0  0  0  0  0  0  0
   37.8590   28.3910   30.4630 C   0  0  0  0  0  0  0  0  0  0  0  0
   37.3260   28.9600   29.3130 C   0  0  0  0  0  0  0  0  0  0  0  0
   38.1460   29.1480   28.1940 C   0  0  0  0  0  0  0  0  0  0  0  0
   39.4600   28.7440   28.3170 N   0  0  0  0  0  0  0  0  0  0  0  0
   39.9410   28.1910   29.4610 C   0  0  0  0  0  0  0  0  0  0  0  0
   39.1280   28.0130   30.5460 N   0  0  0  0  0  0  0  0  0  0  0  0
   36.3260   29.2900   29.1590 H   0  0  0  0  0  0  0  0  0  0  0  0
   37.8230   29.5810   27.2600 H   0  0  0  0  0  0  0  0  0  0  0  0
   41.0010   27.8990   29.4690 H   0  0  0  0  0  0  0  0  0  0  0  0
  1  5  1  0  0  0  0
  1  2  1  0  0  0  0
  2  6  1  0  0  0  0
  2  3  1  0  0  0  0
  3  8  1  0  0  0  0
  3  9  1  0  0  0  0
  4 10  1  1  0  0  0
  4 13  1  0  0  0  0
  4  3  1  0  0  0  0
  5 12  1  0  0  0  0
  5  4  1  0  0  0  0
  7  2  1  0  0  0  0
 11  5  1  0  0  0  0
 13 23  1  0  0  0  0
 14 13  2  0  0  0  0
 14 16  1  0  0  0  0
 15 14  1  0  0  0  0
 16 17  2  0  0  0  0
 17 18  1  0  0  0  0
 18 19  1  0  0  0  0
 19 20  2  0  0  0  0
 21 20  1  0  0  0  0
 22 21  2  0  0  0  0
 23 22  1  0  0  0  0
 23 18  2  0  0  0  0
 24 29  1  0  0  0  0
 24  1  1  0  0  0  0
 25 24  2  0  0  0  0
 26 27  2  0  0  0  0
 26 25  1  0  0  0  0
 27 28  1  0  0  0  0
 28 32  1  0  0  0  0
 28 29  2  0  0  0  0
 30 25  1  0  0  0  0
 31 26  1  0  0  0  0
M  END
>  <minimizedAffinity>
-5.3910265

$$$$

 OpenBabel03272502383D

 32 35  0  0  1  0  0  0  0  0999 V2000
   34.3760   30.9970   34.3240 N   0  0  0  0  0  0  0  0  0  0  0  0
   34.7350   31.4110   32.9720 C   0  0  0  0  0  0  0  0  0  0  0  0
   35.7890   30.3970   32.5820 C   0  0  0  0  0  0  0  0  0  0  0  0
   35.9800   29.4870   33.7770 C   0  0  1  0  0  0  0  0  0  0  0  0
   34.5870   29.5500   34.3800 C   0  0  0  0  0  0  0  0  0  0  0  0
   35.0830   32.4380   32.9080 H   0  0  0  0  0  0  0  0  0  0  0  0
   33.8150   31.2100   32.3670 H   0  0  0  0  0  0  0  0  0  0  0  0
   35.5100   29.8350   31.6700 H   0  0  0  0  0  0  0  0  0  0  0  0
   36.7080   30.9590   32.3030 H   0  0  0  0  0  0  0  0  0  0  0  0
   36.7310   29.9610   34.4190 H   0  0  0  0  0  0  0  0  0  0  0  0
   34.4920   29.1190   35.3680 H   0  0  0  0  0  0  0  0  0  0  0  0
   33.9000   29.1080   33.6010 H   0  0  0  0  0  0  0  0  0  0  0  0
   36.2920   28.1590   33.2920 C   0  0  0  0  0  0  0  0  0  0  0  0
   35.8840   27.5620   32.1220 C   0  0  0  0  0  0  0  0  0  0  0  0
   35.2670   28.0990   31.4490 H   0  0  0  0  0  0  0  0  0  0  0  0
   36.2050   26.2860   31.7110 C   0  0  0  0  0  3  0  0  0  0  0  0
   37.0050   25.5080   32.5230 C   0  0  0  0  0  3  0  0  0  0  0  0
   37.4470   26.0450   33.7120 C   0  0  0  0  0  0  0  0  0  0  0  0
   38.2380   25.2140   34.4660 C   0  0  0  0  0  3  0  0  0  0  0  0
   38.7280   25.6620   35.6650 C   0  0  0  0  0  3  0  0  0  0  0  0
   38.4170   26.9330   36.0870 C   0  0  0  0  0  3  0  0  0  0  0  0
   37.6250   27.7100   35.2900 C   0  0  0  0  0  3  0  0  0  0  0  0
   37.0980   27.3250   34.0750 C   0  0  0  0  0  0  0  0  0  0  0  0
   33.9120   31.8260   35.3680 C   0  0  0  0  0  0  0  0  0  0  0  0
   34.8490   32.2760   36.2900 C   0  0  0  0  0  0  0  0  0  0  0  0
   34.4380   33.1070   37.3390 C   0  0  0  0  0  0  0  0  0  0  0  0
   33.0960   33.4290   37.3820 N   0  0  0  0  0  0  0  0  0  0  0  0
   32.2130   32.9660   36.4590 C   0  0  0  0  0  0  0  0  0  0  0  0
   32.6290   32.1550   35.4400 N   0  0  0  0  0  0  0  0  0  0  0  0
   35.8910   32.0630   36.3090 H   0  0  0  0  0  0  0  0  0  0  0  0
   35.0900   33.5060   38.1010 H   0  0  0  0  0  0  0  0  0  0  0  0
   31.1630   33.2740   36.5710 H   0  0  0  0  0  0  0  0  0  0  0  0
  1  5  1  0  0  0  0
  1 24  1  0  0  0  0
  2  1  1  0  0  0  0
  3  2  1  0  0  0  0
  3  4  1  0  0  0  0
  4  5  1  0  0  0  0
  4 10  1  1  0  0  0
  5 11  1  0  0  0  0
  6  2  1  0  0  0  0
  7  2  1  0  0  0  0
  8  3  1  0  0  0  0
  9  3  1  0  0  0  0
 12  5  1  0  0  0  0
 13  4  1  0  0  0  0
 13 23  1  0  0  0  0
 14 13  2  0  0  0  0
 15 14  1  0  0  0  0
 16 14  1  0  0  0  0
 16 17  2  0  0  0  0
 17 18  1  0  0  0  0
 18 23  2  0  0  0  0
 18 19  1  0  0  0  0
 19 20  2  0  0  0  0
 20 21  1  0  0  0  0
 22 21  2  0  0  0  0
 23 22  1  0  0  0  0
 24 29  2  0  0  0  0
 24 25  1  0  0  0  0
 25 30  1  0  0  0  0
 25 26  2  0  0  0  0
 26 27  1  0  0  0  0
 26 31  1  0  0  0  0
 28 32  1  0  0  0  0
 28 27  2  0  0  0  0
 29 28  1  0  0  0  0
M  END
>  <minimizedAffinity>
-5.39059114

$$$$
