
 OpenBabel03262521493D

 34 37  0  0  1  0  0  0  0  0999 V2000
   38.1920   31.7240   50.0080 C   0  0  0  0  0  0  0  0  0  0  0  0
   38.8500   32.8460   49.5110 C   0  0  0  0  0  0  0  0  0  0  0  0
   38.6760   33.1290   48.1560 C   0  0  0  0  0  0  0  0  0  0  0  0
   37.8870   32.2950   47.4460 N   0  0  0  0  0  0  0  0  0  0  0  0
   37.2650   31.2250   47.9400 C   0  0  0  0  0  0  0  0  0  0  0  0
   37.4190   30.9350   49.2370 N   0  0  0  0  0  0  0  0  0  0  0  0
   36.4750   30.4290   47.1060 N   0  0  0  0  0  0  0  0  0  0  0  0
   35.3210   29.6820   47.6450 C   0  0  0  0  0  0  0  0  0  0  0  0
   34.1090   29.9980   46.8690 C   0  0  0  0  0  0  0  0  0  0  0  0
   34.2670   30.6380   45.6410 N   0  0  0  0  0  0  0  0  0  0  0  0
   35.4700   30.5870   44.9310 C   0  0  0  0  0  0  0  0  0  0  0  0
   36.7130   30.2580   45.7080 C   0  0  1  0  0  0  0  0  0  0  0  0
   38.3130   31.4800   51.0690 H   0  0  0  0  0  0  0  0  0  0  0  0
   39.4760   33.4930   50.1110 H   0  0  0  0  0  0  0  0  0  0  0  0
   39.1460   33.9840   47.6610 H   0  0  0  0  0  0  0  0  0  0  0  0
   35.2610   29.8100   48.7340 H   0  0  0  0  0  0  0  0  0  0  0  0
   35.6230   28.6050   47.4840 H   0  0  0  0  0  0  0  0  0  0  0  0
   33.4080   30.5730   47.5310 H   0  0  0  0  0  0  0  0  0  0  0  0
   33.5530   29.0290   46.7000 H   0  0  0  0  0  0  0  0  0  0  0  0
   33.4550   30.3840   45.0060 H   0  0  0  0  0  0  0  0  0  0  0  0
   35.6180   31.6020   44.4640 H   0  0  0  0  0  0  0  0  0  0  0  0
   35.3720   29.9220   44.0500 H   0  0  0  0  0  0  0  0  0  0  0  0
   36.7390   29.1140   45.6110 H   0  0  0  0  0  0  0  0  0  0  0  0
   37.9410   30.7420   45.1270 C   0  0  0  0  0  0  0  0  0  0  0  0
   39.1500   30.3400   45.7180 C   0  0  0  0  0  0  0  0  0  0  0  0
   39.2640   29.6700   46.5580 H   0  0  0  0  0  0  0  0  0  0  0  0
   40.3790   30.7660   45.2940 C   0  0  0  0  0  0  0  0  0  0  0  0
   40.4850   31.6490   44.2200 C   0  0  0  0  0  0  0  0  0  0  0  0
   39.3410   32.0820   43.5950 C   0  0  0  0  0  0  0  0  0  0  0  0
   39.3920   32.9500   42.5240 C   0  0  0  0  0  0  0  0  0  0  0  0
   38.2520   33.3940   41.8750 C   0  0  0  0  0  0  0  0  0  0  0  0
   37.0500   32.9130   42.3660 C   0  0  0  0  0  0  0  0  0  0  0  0
   37.0030   32.0470   43.4360 C   0  0  0  0  0  0  0  0  0  0  0  0
   38.1410   31.6100   44.0770 C   0  0  0  0  0  0  0  0  0  0  0  0
  1 13  1  0  0  0  0
  2  1  1  0  0  0  0
  2 14  1  0  0  0  0
  3  2  2  0  0  0  0
  4  5  2  0  0  0  0
  4  3  1  0  0  0  0
  5  6  1  0  0  0  0
  6  1  2  0  0  0  0
  7  8  1  0  0  0  0
  7  5  1  0  0  0  0
  8 16  1  0  0  0  0
  9 18  1  0  0  0  0
  9  8  1  0  0  0  0
 10  9  1  0  0  0  0
 11 10  1  0  0  0  0
 11 12  1  0  0  0  0
 12 23  1  6  0  0  0
 12  7  1  0  0  0  0
 15  3  1  0  0  0  0
 17  8  1  0  0  0  0
 19  9  1  0  0  0  0
 20 10  1  0  0  0  0
 21 11  1  0  0  0  0
 22 11  1  0  0  0  0
 24 12  1  0  0  0  0
 24 25  1  0  0  0  0
 25 26  1  0  0  0  0
 27 25  2  0  0  0  0
 28 27  1  0  0  0  0
 29 34  1  0  0  0  0
 29 28  2  0  0  0  0
 30 29  1  0  0  0  0
 31 32  1  0  0  0  0
 31 30  2  0  0  0  0
 32 33  2  0  0  0  0
 33 34  1  0  0  0  0
 34 24  2  0  0  0  0
M  END
>  <minimizedAffinity>
-5.61862183

>  <minimizedRMSD>
3.03823233

$$$$
