
 OpenBabel03272501493D

 22 24  0  0  0  0  0  0  0  0999 V2000
   37.3500   30.2140   51.3690 C   0  0  0  0  0  0  0  0  0  0  0  0
   37.9350   30.8270   50.2660 C   0  0  0  0  0  0  0  0  0  0  0  0
   37.4200   30.5940   48.9880 C   0  0  0  0  0  0  0  0  0  0  0  0
   36.3440   29.7520   48.9540 N   0  0  0  0  0  0  0  0  0  0  0  0
   35.7860   29.1690   50.0130 C   0  0  0  0  0  0  0  0  0  0  0  0
   36.2970   29.4040   51.2320 N   0  0  0  0  0  0  0  0  0  0  0  0
   34.6720   28.3280   49.7470 N   0  0  0  0  0  0  0  0  0  0  0  0
   37.7500   30.3950   52.3580 H   0  0  0  0  0  0  0  0  0  0  0  0
   38.7260   31.4810   50.4630 H   0  0  0  0  0  0  0  0  0  0  0  0
   34.8590   27.3160   49.5950 H   0  0  0  0  0  0  0  0  0  0  0  0
   33.7960   28.9080   49.7470 H   0  0  0  0  0  0  0  0  0  0  0  0
   37.8300   31.1820   47.7360 C   0  0  0  0  0  0  0  0  0  0  0  0
   38.9440   32.0350   47.8210 C   0  0  0  0  0  0  0  0  0  0  0  0
   39.4490   32.2140   48.7790 H   0  0  0  0  0  0  0  0  0  0  0  0
   39.4880   32.7000   46.7450 C   0  0  0  0  0  3  0  0  0  0  0  0
   38.9400   32.5530   45.5000 C   0  0  0  0  0  3  0  0  0  0  0  0
   37.8510   31.7330   45.3680 C   0  0  0  0  0  0  0  0  0  0  0  0
   37.2550   31.5900   44.1350 C   0  0  0  0  0  3  0  0  0  0  0  0
   36.1300   30.8050   43.9440 C   0  0  0  0  0  3  0  0  0  0  0  0
   35.6300   30.1640   45.0850 C   0  0  0  0  0  3  0  0  0  0  0  0
   36.2440   30.3270   46.2900 C   0  0  0  0  0  3  0  0  0  0  0  0
   37.3500   31.0950   46.4720 C   0  0  0  0  0  0  0  0  0  0  0  0
  1  8  1  0  0  0  0
  2  9  1  0  0  0  0
  2  1  2  0  0  0  0
  3  2  1  0  0  0  0
  4  3  2  0  0  0  0
  4  5  1  0  0  0  0
  5  6  2  0  0  0  0
  6  1  1  0  0  0  0
  7  5  1  0  0  0  0
 10  7  1  0  0  0  0
 11  7  1  0  0  0  0
 12 13  1  0  0  0  0
 12  3  1  0  0  0  0
 13 14  1  0  0  0  0
 15 13  2  0  0  0  0
 16 15  1  0  0  0  0
 17 16  2  0  0  0  0
 17 22  1  0  0  0  0
 18 17  1  0  0  0  0
 19 18  2  0  0  0  0
 19 20  1  0  0  0  0
 20 21  2  0  0  0  0
 21 22  1  0  0  0  0
 22 12  2  0  0  0  0
M  END
>  <minimizedAffinity>
-5.99644136

>  <minimizedRMSD>
0.661772311

$$$$
