
 OpenBabel03272502083D

 41 45  0  0  0  0  0  0  0  0999 V2000
   36.7320   28.7220   35.7140 F   0  0  0  0  0  0  0  0  0  0  0  0
   36.3890   28.7780   34.3850 C   0  0  0  0  0  0  0  0  0  0  0  0
   36.8500   27.8520   33.4600 C   0  0  0  0  0  0  0  0  0  0  0  0
   36.4550   27.9600   32.1520 C   0  0  0  0  0  0  0  0  0  0  0  0
   35.5960   28.9920   31.7510 C   0  0  0  0  0  0  0  0  0  0  0  0
   35.1700   29.8860   32.7200 C   0  0  0  0  0  0  0  0  0  0  0  0
   35.5370   29.8110   34.0120 C   0  0  0  0  0  0  0  0  0  0  0  0
   36.8450   27.2170   31.4910 H   0  0  0  0  0  0  0  0  0  0  0  0
   35.3100   29.0390   30.7100 H   0  0  0  0  0  0  0  0  0  0  0  0
   34.5110   30.6480   32.3250 H   0  0  0  0  0  0  0  0  0  0  0  0
   32.6920   29.3740   35.2570 Br  0  0  0  0  0  0  0  0  0  0  0  0
   33.8820   30.8020   35.6760 C   0  0  0  0  0  0  0  0  0  0  0  0
   35.0630   30.7880   34.9700 C   0  0  0  0  0  0  0  0  0  0  0  0
   35.9750   31.8350   35.1960 C   0  0  0  0  0  0  0  0  0  0  0  0
   35.6990   32.8210   36.0780 C   0  0  0  0  0  0  0  0  0  0  0  0
   34.4920   32.7820   36.7650 C   0  0  0  0  0  0  0  0  0  0  0  0
   33.5610   31.7580   36.5670 C   0  0  0  0  0  0  0  0  0  0  0  0
   36.9250   31.9050   34.6840 H   0  0  0  0  0  0  0  0  0  0  0  0
   36.3820   33.6370   36.2700 H   0  0  0  0  0  0  0  0  0  0  0  0
   34.2310   33.5490   37.4820 H   0  0  0  0  0  0  0  0  0  0  0  0
   32.3610   31.6390   37.1950 O   0  0  0  0  0  0  0  0  0  0  0  0
   31.5160   31.5710   36.6540 H   0  0  0  0  0  0  0  0  0  0  0  0
   38.5010   26.1330   33.1080 C   0  0  0  0  0  0  0  0  0  0  0  0
   37.7250   26.8440   33.9980 C   0  0  0  0  0  0  0  0  0  0  0  0
   37.8580   26.5410   35.3400 C   0  0  0  0  0  0  0  0  0  0  0  0
   38.7390   25.5690   35.7190 N   0  0  0  0  0  0  0  0  0  0  0  0
   39.4710   24.9080   34.8410 C   0  0  0  0  0  0  0  0  0  0  0  0
   39.3480   25.1860   33.5750 N   0  0  0  0  0  0  0  0  0  0  0  0
   38.4720   26.2920   32.0280 H   0  0  0  0  0  0  0  0  0  0  0  0
   37.2450   27.1070   36.0070 H   0  0  0  0  0  0  0  0  0  0  0  0
   40.3210   23.9320   35.5260 C   0  0  0  0  0  0  0  0  0  0  0  0
   39.8330   22.7920   36.1280 C   0  0  0  0  0  0  0  0  0  0  0  0
   38.7530   22.5720   36.1100 H   0  0  0  0  0  0  0  0  0  0  0  0
   40.5630   21.8450   36.7800 C   0  0  0  0  0  3  0  0  0  0  0  0
   41.9260   22.0070   36.8700 C   0  0  0  0  0  3  0  0  0  0  0  0
   42.4950   23.1210   36.2950 C   0  0  0  0  0  0  0  0  0  0  0  0
   43.8620   23.2530   36.4020 C   0  0  0  0  0  3  0  0  0  0  0  0
   44.5000   24.3430   35.8510 C   0  0  0  0  0  3  0  0  0  0  0  0
   43.7180   25.2750   35.2010 C   0  0  0  0  0  3  0  0  0  0  0  0
   42.3560   25.0900   35.1240 C   0  0  0  0  0  3  0  0  0  0  0  0
   41.6760   24.0220   35.6570 C   0  0  0  0  0  0  0  0  0  0  0  0
  2  1  1  0  0  0  0
  3 24  1  0  0  0  0
  3  2  2  0  0  0  0
  4  3  1  0  0  0  0
  5  4  2  0  0  0  0
  5  6  1  0  0  0  0
  6  7  2  0  0  0  0
  7  2  1  0  0  0  0
  7 13  1  0  0  0  0
  8  4  1  0  0  0  0
  9  5  1  0  0  0  0
 10  6  1  0  0  0  0
 11 12  1  0  0  0  0
 12 17  1  0  0  0  0
 13 14  1  0  0  0  0
 13 12  2  0  0  0  0
 14 15  2  0  0  0  0
 15 19  1  0  0  0  0
 15 16  1  0  0  0  0
 16 20  1  0  0  0  0
 17 16  2  0  0  0  0
 17 21  1  0  0  0  0
 18 14  1  0  0  0  0
 22 21  1  0  0  0  0
 23 28  2  0  0  0  0
 23 24  1  0  0  0  0
 24 25  2  0  0  0  0
 25 26  1  0  0  0  0
 25 30  1  0  0  0  0
 27 31  1  0  0  0  0
 27 26  2  0  0  0  0
 28 27  1  0  0  0  0
 29 23  1  0  0  0  0
 31 41  2  0  0  0  0
 31 32  1  0  0  0  0
 32 34  2  0  0  0  0
 33 32  1  0  0  0  0
 34 35  1  0  0  0  0
 36 37  1  0  0  0  0
 36 35  2  0  0  0  0
 38 37  2  0  0  0  0
 39 38  1  0  0  0  0
 40 39  2  0  0  0  0
 40 41  1  0  0  0  0
 41 36  1  0  0  0  0
M  END
>  <minimizedAffinity>
-7.54144382

$$$$

 OpenBabel03272502083D

 41 45  0  0  0  0  0  0  0  0999 V2000
   35.6030   28.1420   33.6290 F   0  0  0  0  0  0  0  0  0  0  0  0
   35.8610   29.0530   32.6350 C   0  0  0  0  0  0  0  0  0  0  0  0
   36.4140   28.6840   31.4160 C   0  0  0  0  0  0  0  0  0  0  0  0
   36.6300   29.6460   30.4630 C   0  0  0  0  0  0  0  0  0  0  0  0
   36.3000   30.9850   30.7130 C   0  0  0  0  0  0  0  0  0  0  0  0
   35.7530   31.2900   31.9490 C   0  0  0  0  0  0  0  0  0  0  0  0
   35.5260   30.3740   32.9070 C   0  0  0  0  0  0  0  0  0  0  0  0
   37.0580   29.2980   29.5480 H   0  0  0  0  0  0  0  0  0  0  0  0
   36.4880   31.7090   29.9330 H   0  0  0  0  0  0  0  0  0  0  0  0
   35.5280   32.3430   32.0570 H   0  0  0  0  0  0  0  0  0  0  0  0
   32.4810   29.8020   33.3950 Br  0  0  0  0  0  0  0  0  0  0  0  0
   33.6790   30.5940   34.6480 C   0  0  0  0  0  0  0  0  0  0  0  0
   34.9610   30.7670   34.1820 C   0  0  0  0  0  0  0  0  0  0  0  0
   35.8930   31.3840   35.0370 C   0  0  0  0  0  0  0  0  0  0  0  0
   35.5370   31.7920   36.2760 C   0  0  0  0  0  0  0  0  0  0  0  0
   34.2280   31.5890   36.6940 C   0  0  0  0  0  0  0  0  0  0  0  0
   33.2750   30.9800   35.8730 C   0  0  0  0  0  0  0  0  0  0  0  0
   36.9210   31.5610   34.7540 H   0  0  0  0  0  0  0  0  0  0  0  0
   36.2330   32.2690   36.9520 H   0  0  0  0  0  0  0  0  0  0  0  0
   33.9000   31.8990   37.6770 H   0  0  0  0  0  0  0  0  0  0  0  0
   31.9770   30.7400   36.1990 O   0  0  0  0  0  0  0  0  0  0  0  0
   31.2390   31.0980   35.6170 H   0  0  0  0  0  0  0  0  0  0  0  0
   35.6500   26.4280   31.0570 C   0  0  0  0  0  0  0  0  0  0  0  0
   36.7080   27.2830   31.2840 C   0  0  0  0  0  0  0  0  0  0  0  0
   37.9720   26.7260   31.3510 C   0  0  0  0  0  0  0  0  0  0  0  0
   38.1140   25.3770   31.1930 N   0  0  0  0  0  0  0  0  0  0  0  0
   37.0800   24.5860   30.9750 C   0  0  0  0  0  0  0  0  0  0  0  0
   35.8870   25.1030   30.9120 N   0  0  0  0  0  0  0  0  0  0  0  0
   34.6130   26.7640   30.9870 H   0  0  0  0  0  0  0  0  0  0  0  0
   38.7720   27.4110   31.5280 H   0  0  0  0  0  0  0  0  0  0  0  0
   37.5260   23.1970   30.8430 C   0  0  0  0  0  0  0  0  0  0  0  0
   38.7120   22.8360   30.2390 C   0  0  0  0  0  0  0  0  0  0  0  0
   39.3810   23.6080   29.8230 H   0  0  0  0  0  0  0  0  0  0  0  0
   39.1880   21.5710   30.0820 C   0  0  0  0  0  3  0  0  0  0  0  0
   38.4410   20.5190   30.5600 C   0  0  0  0  0  3  0  0  0  0  0  0
   37.2420   20.7930   31.1780 C   0  0  0  0  0  0  0  0  0  0  0  0
   36.5180   19.7180   31.6460 C   0  0  0  0  0  3  0  0  0  0  0  0
   35.3080   19.9160   32.2750 C   0  0  0  0  0  3  0  0  0  0  0  0
   34.8680   21.2160   32.4110 C   0  0  0  0  0  3  0  0  0  0  0  0
   35.6340   22.2510   31.9240 C   0  0  0  0  0  3  0  0  0  0  0  0
   36.8440   22.1040   31.2900 C   0  0  0  0  0  0  0  0  0  0  0  0
  2  7  1  0  0  0  0
  2  1  1  0  0  0  0
  3  2  2  0  0  0  0
  4  5  2  0  0  0  0
  4  3  1  0  0  0  0
  5  6  1  0  0  0  0
  6 10  1  0  0  0  0
  6  7  2  0  0  0  0
  7 13  1  0  0  0  0
  8  4  1  0  0  0  0
  9  5  1  0  0  0  0
 11 12  1  0  0  0  0
 12 17  1  0  0  0  0
 13 12  2  0  0  0  0
 13 14  1  0  0  0  0
 14 15  2  0  0  0  0
 15 16  1  0  0  0  0
 15 19  1  0  0  0  0
 16 20  1  0  0  0  0
 17 21  1  0  0  0  0
 17 16  2  0  0  0  0
 18 14  1  0  0  0  0
 22 21  1  0  0  0  0
 23 24  1  0  0  0  0
 24 25  2  0  0  0  0
 24  3  1  0  0  0  0
 25 30  1  0  0  0  0
 26 25  1  0  0  0  0
 27 26  2  0  0  0  0
 28 27  1  0  0  0  0
 28 23  2  0  0  0  0
 29 23  1  0  0  0  0
 31 27  1  0  0  0  0
 31 41  1  0  0  0  0
 32 31  2  0  0  0  0
 33 32  1  0  0  0  0
 34 32  1  0  0  0  0
 34 35  2  0  0  0  0
 35 36  1  0  0  0  0
 36 41  2  0  0  0  0
 36 37  1  0  0  0  0
 37 38  2  0  0  0  0
 38 39  1  0  0  0  0
 40 39  2  0  0  0  0
 41 40  1  0  0  0  0
M  END
>  <minimizedAffinity>
-7.39758635

$$$$

 OpenBabel03272502083D

 41 45  0  0  0  0  0  0  0  0999 V2000
   35.9660   28.0800   35.1040 F   0  0  0  0  0  0  0  0  0  0  0  0
   35.8900   28.6910   33.8770 C   0  0  0  0  0  0  0  0  0  0  0  0
   36.6450   28.2690   32.7910 C   0  0  0  0  0  0  0  0  0  0  0  0
   36.5080   28.9160   31.5900 C   0  0  0  0  0  0  0  0  0  0  0  0
   35.6180   29.9900   31.4580 C   0  0  0  0  0  0  0  0  0  0  0  0
   34.8940   30.3650   32.5770 C   0  0  0  0  0  0  0  0  0  0  0  0
   35.0020   29.7550   33.7700 C   0  0  0  0  0  0  0  0  0  0  0  0
   37.1170   28.5430   30.7950 H   0  0  0  0  0  0  0  0  0  0  0  0
   35.5430   30.4710   30.4930 H   0  0  0  0  0  0  0  0  0  0  0  0
   34.2330   31.2010   32.3870 H   0  0  0  0  0  0  0  0  0  0  0  0
   36.2160   32.0200   35.5700 Br  0  0  0  0  0  0  0  0  0  0  0  0
   34.5120   31.2010   35.8100 C   0  0  0  0  0  0  0  0  0  0  0  0
   34.2210   30.2080   34.9030 C   0  0  0  0  0  0  0  0  0  0  0  0
   32.9970   29.5290   35.0430 C   0  0  0  0  0  0  0  0  0  0  0  0
   32.1360   29.8440   36.0360 C   0  0  0  0  0  0  0  0  0  0  0  0
   32.4810   30.8570   36.9210 C   0  0  0  0  0  0  0  0  0  0  0  0
   33.6880   31.5540   36.8140 C   0  0  0  0  0  0  0  0  0  0  0  0
   32.6880   28.7350   34.3780 H   0  0  0  0  0  0  0  0  0  0  0  0
   31.1890   29.3370   36.1660 H   0  0  0  0  0  0  0  0  0  0  0  0
   31.8210   31.1430   37.7300 H   0  0  0  0  0  0  0  0  0  0  0  0
   34.1050   32.5570   37.6310 O   0  0  0  0  0  0  0  0  0  0  0  0
   34.9880   32.4830   38.1070 H   0  0  0  0  0  0  0  0  0  0  0  0
   36.9960   25.8890   32.9260 C   0  0  0  0  0  0  0  0  0  0  0  0
   37.5200   27.1580   33.0570 C   0  0  0  0  0  0  0  0  0  0  0  0
   38.8500   27.2620   33.4200 C   0  0  0  0  0  0  0  0  0  0  0  0
   39.5740   26.1240   33.6280 N   0  0  0  0  0  0  0  0  0  0  0  0
   39.0430   24.9220   33.4930 C   0  0  0  0  0  0  0  0  0  0  0  0
   37.7900   24.8170   33.1530 N   0  0  0  0  0  0  0  0  0  0  0  0
   35.9590   25.6950   32.6460 H   0  0  0  0  0  0  0  0  0  0  0  0
   39.2290   28.2560   33.5140 H   0  0  0  0  0  0  0  0  0  0  0  0
   40.0460   23.8930   33.7750 C   0  0  0  0  0  0  0  0  0  0  0  0
   40.9110   23.3970   32.8220 C   0  0  0  0  0  0  0  0  0  0  0  0
   40.8720   23.7730   31.7860 H   0  0  0  0  0  0  0  0  0  0  0  0
   41.8640   22.4430   33.0130 C   0  0  0  0  0  3  0  0  0  0  0  0
   42.0090   21.8950   34.2660 C   0  0  0  0  0  3  0  0  0  0  0  0
   41.1840   22.3360   35.2760 C   0  0  0  0  0  0  0  0  0  0  0  0
   41.3550   21.7680   36.5190 C   0  0  0  0  0  3  0  0  0  0  0  0
   40.5650   22.1590   37.5770 C   0  0  0  0  0  3  0  0  0  0  0  0
   39.6140   23.1280   37.3340 C   0  0  0  0  0  3  0  0  0  0  0  0
   39.4870   23.6610   36.0710 C   0  0  0  0  0  3  0  0  0  0  0  0
   40.2500   23.3030   34.9870 C   0  0  0  0  0  0  0  0  0  0  0  0
  2  1  1  0  0  0  0
  3 24  1  0  0  0  0
  3  2  2  0  0  0  0
  4  3  1  0  0  0  0
  5  4  2  0  0  0  0
  5  6  1  0  0  0  0
  6  7  2  0  0  0  0
  7  2  1  0  0  0  0
  7 13  1  0  0  0  0
  8  4  1  0  0  0  0
  9  5  1  0  0  0  0
 10  6  1  0  0  0  0
 11 12  1  0  0  0  0
 12 17  1  0  0  0  0
 13 14  1  0  0  0  0
 13 12  2  0  0  0  0
 14 15  2  0  0  0  0
 15 19  1  0  0  0  0
 15 16  1  0  0  0  0
 16 20  1  0  0  0  0
 17 16  2  0  0  0  0
 17 21  1  0  0  0  0
 18 14  1  0  0  0  0
 21 22  1  0  0  0  0
 23 24  2  0  0  0  0
 23 28  1  0  0  0  0
 24 25  1  0  0  0  0
 25 30  1  0  0  0  0
 25 26  2  0  0  0  0
 27 26  1  0  0  0  0
 27 31  1  0  0  0  0
 28 27  2  0  0  0  0
 29 23  1  0  0  0  0
 31 41  1  0  0  0  0
 32 34  1  0  0  0  0
 32 31  2  0  0  0  0
 33 32  1  0  0  0  0
 34 35  2  0  0  0  0
 35 36  1  0  0  0  0
 36 37  1  0  0  0  0
 37 38  2  0  0  0  0
 39 38  1  0  0  0  0
 40 39  2  0  0  0  0
 41 36  2  0  0  0  0
 41 40  1  0  0  0  0
M  END
>  <minimizedAffinity>
-7.25653934

$$$$

 OpenBabel03272502083D

 41 45  0  0  0  0  0  0  0  0999 V2000
   36.5380   28.4950   35.0460 F   0  0  0  0  0  0  0  0  0  0  0  0
   36.2650   28.9060   33.7650 C   0  0  0  0  0  0  0  0  0  0  0  0
   36.7450   28.2310   32.6510 C   0  0  0  0  0  0  0  0  0  0  0  0
   36.4190   28.6890   31.4010 C   0  0  0  0  0  0  0  0  0  0  0  0
   35.6120   29.8250   31.2460 C   0  0  0  0  0  0  0  0  0  0  0  0
   35.1650   30.4550   32.3950 C   0  0  0  0  0  0  0  0  0  0  0  0
   35.4630   30.0350   33.6370 C   0  0  0  0  0  0  0  0  0  0  0  0
   36.8200   28.1260   30.5860 H   0  0  0  0  0  0  0  0  0  0  0  0
   35.3800   30.1500   30.2420 H   0  0  0  0  0  0  0  0  0  0  0  0
   34.5490   31.3200   32.1850 H   0  0  0  0  0  0  0  0  0  0  0  0
   32.5830   29.3400   34.6670 Br  0  0  0  0  0  0  0  0  0  0  0  0
   33.7720   30.6050   35.4550 C   0  0  0  0  0  0  0  0  0  0  0  0
   34.9700   30.7510   34.7960 C   0  0  0  0  0  0  0  0  0  0  0  0
   35.8830   31.6980   35.2960 C   0  0  0  0  0  0  0  0  0  0  0  0
   35.5900   32.4390   36.3880 C   0  0  0  0  0  0  0  0  0  0  0  0
   34.3650   32.2460   37.0150 C   0  0  0  0  0  0  0  0  0  0  0  0
   33.4340   31.3160   36.5470 C   0  0  0  0  0  0  0  0  0  0  0  0
   36.8470   31.8800   34.8410 H   0  0  0  0  0  0  0  0  0  0  0  0
   36.2730   33.1730   36.7920 H   0  0  0  0  0  0  0  0  0  0  0  0
   34.0900   32.8160   37.8920 H   0  0  0  0  0  0  0  0  0  0  0  0
   32.2160   31.0600   37.0970 O   0  0  0  0  0  0  0  0  0  0  0  0
   31.3860   31.1390   36.5360 H   0  0  0  0  0  0  0  0  0  0  0  0
   36.9560   25.8450   32.9090 C   0  0  0  0  0  0  0  0  0  0  0  0
   37.5610   27.0840   32.9450 C   0  0  0  0  0  0  0  0  0  0  0  0
   38.9100   27.1230   33.2450 C   0  0  0  0  0  0  0  0  0  0  0  0
   39.5730   25.9550   33.4890 N   0  0  0  0  0  0  0  0  0  0  0  0
   38.9640   24.7840   33.4450 C   0  0  0  0  0  0  0  0  0  0  0  0
   37.6930   24.7390   33.1640 N   0  0  0  0  0  0  0  0  0  0  0  0
   35.8970   25.7020   32.6830 H   0  0  0  0  0  0  0  0  0  0  0  0
   39.3520   28.0950   33.2660 H   0  0  0  0  0  0  0  0  0  0  0  0
   39.9140   23.7100   33.7440 C   0  0  0  0  0  0  0  0  0  0  0  0
   40.6850   23.0910   32.7820 C   0  0  0  0  0  0  0  0  0  0  0  0
   40.6070   23.3960   31.7250 H   0  0  0  0  0  0  0  0  0  0  0  0
   41.5840   22.0900   32.9880 C   0  0  0  0  0  3  0  0  0  0  0  0
   41.7710   21.6210   34.2670 C   0  0  0  0  0  3  0  0  0  0  0  0
   41.0400   22.1860   35.2870 C   0  0  0  0  0  0  0  0  0  0  0  0
   41.2510   21.6950   36.5570 C   0  0  0  0  0  3  0  0  0  0  0  0
   40.5540   22.2120   37.6270 C   0  0  0  0  0  3  0  0  0  0  0  0
   39.6540   23.2240   37.3680 C   0  0  0  0  0  3  0  0  0  0  0  0
   39.4840   23.6760   36.0790 C   0  0  0  0  0  3  0  0  0  0  0  0
   40.1540   23.1930   34.9820 C   0  0  0  0  0  0  0  0  0  0  0  0
  2  1  1  0  0  0  0
  3 24  1  0  0  0  0
  3  2  2  0  0  0  0
  4  3  1  0  0  0  0
  5  4  2  0  0  0  0
  5  6  1  0  0  0  0
  6  7  2  0  0  0  0
  7  2  1  0  0  0  0
  7 13  1  0  0  0  0
  8  4  1  0  0  0  0
  9  5  1  0  0  0  0
 10  6  1  0  0  0  0
 11 12  1  0  0  0  0
 12 17  1  0  0  0  0
 13 14  1  0  0  0  0
 13 12  2  0  0  0  0
 14 15  2  0  0  0  0
 15 19  1  0  0  0  0
 15 16  1  0  0  0  0
 16 20  1  0  0  0  0
 17 16  2  0  0  0  0
 17 21  1  0  0  0  0
 18 14  1  0  0  0  0
 22 21  1  0  0  0  0
 23 24  2  0  0  0  0
 23 28  1  0  0  0  0
 24 25  1  0  0  0  0
 25 30  1  0  0  0  0
 25 26  2  0  0  0  0
 27 26  1  0  0  0  0
 27 31  1  0  0  0  0
 28 27  2  0  0  0  0
 29 23  1  0  0  0  0
 31 41  1  0  0  0  0
 32 34  1  0  0  0  0
 32 31  2  0  0  0  0
 33 32  1  0  0  0  0
 34 35  2  0  0  0  0
 35 36  1  0  0  0  0
 36 37  1  0  0  0  0
 37 38  2  0  0  0  0
 39 38  1  0  0  0  0
 40 39  2  0  0  0  0
 41 36  2  0  0  0  0
 41 40  1  0  0  0  0
M  END
>  <minimizedAffinity>
-7.24838495

$$$$

 OpenBabel03272502083D

 41 45  0  0  0  0  0  0  0  0999 V2000
   36.3790   23.6770   31.9740 F   0  0  0  0  0  0  0  0  0  0  0  0
   37.4630   23.4590   32.7880 C   0  0  0  0  0  0  0  0  0  0  0  0
   38.0550   24.4770   33.5230 C   0  0  0  0  0  0  0  0  0  0  0  0
   39.1260   24.1840   34.3270 C   0  0  0  0  0  0  0  0  0  0  0  0
   39.6190   22.8750   34.4080 C   0  0  0  0  0  0  0  0  0  0  0  0
   38.9870   21.9030   33.6500 C   0  0  0  0  0  0  0  0  0  0  0  0
   37.9350   22.1530   32.8500 C   0  0  0  0  0  0  0  0  0  0  0  0
   39.5360   25.0110   34.8650 H   0  0  0  0  0  0  0  0  0  0  0  0
   40.4650   22.6900   35.0540 H   0  0  0  0  0  0  0  0  0  0  0  0
   39.4300   20.9230   33.7720 H   0  0  0  0  0  0  0  0  0  0  0  0
   35.5520   20.5770   34.1450 Br  0  0  0  0  0  0  0  0  0  0  0  0
   36.2610   20.2860   32.4000 C   0  0  0  0  0  0  0  0  0  0  0  0
   37.3290   21.0890   32.0760 C   0  0  0  0  0  0  0  0  0  0  0  0
   37.9320   20.9030   30.8180 C   0  0  0  0  0  0  0  0  0  0  0  0
   37.4750   19.9650   29.9580 C   0  0  0  0  0  0  0  0  0  0  0  0
   36.3910   19.1840   30.3390 C   0  0  0  0  0  0  0  0  0  0  0  0
   35.7660   19.3400   31.5790 C   0  0  0  0  0  0  0  0  0  0  0  0
   38.7770   21.4880   30.4810 H   0  0  0  0  0  0  0  0  0  0  0  0
   37.9200   19.8020   28.9870 H   0  0  0  0  0  0  0  0  0  0  0  0
   35.9910   18.4230   29.6820 H   0  0  0  0  0  0  0  0  0  0  0  0
   34.7030   18.6240   32.0330 O   0  0  0  0  0  0  0  0  0  0  0  0
   34.7670   18.1260   32.9040 H   0  0  0  0  0  0  0  0  0  0  0  0
   37.1760   26.5000   34.4890 C   0  0  0  0  0  0  0  0  0  0  0  0
   37.4560   25.7740   33.3520 C   0  0  0  0  0  0  0  0  0  0  0  0
   37.1530   26.3560   32.1350 C   0  0  0  0  0  0  0  0  0  0  0  0
   36.5990   27.6030   32.1130 N   0  0  0  0  0  0  0  0  0  0  0  0
   36.3440   28.2740   33.2220 C   0  0  0  0  0  0  0  0  0  0  0  0
   36.6260   27.7320   34.3710 N   0  0  0  0  0  0  0  0  0  0  0  0
   37.3740   26.1340   35.4990 H   0  0  0  0  0  0  0  0  0  0  0  0
   37.3810   25.7700   31.2710 H   0  0  0  0  0  0  0  0  0  0  0  0
   35.7570   29.5760   32.8990 C   0  0  0  0  0  0  0  0  0  0  0  0
   35.3080   29.9140   31.6390 C   0  0  0  0  0  0  0  0  0  0  0  0
   35.3790   29.1890   30.8110 H   0  0  0  0  0  0  0  0  0  0  0  0
   34.7530   31.1010   31.2690 C   0  0  0  0  0  3  0  0  0  0  0  0
   34.6100   32.0880   32.2160 C   0  0  0  0  0  3  0  0  0  0  0  0
   35.0340   31.8320   33.5000 C   0  0  0  0  0  0  0  0  0  0  0  0
   34.8770   32.8410   34.4250 C   0  0  0  0  0  3  0  0  0  0  0  0
   35.2780   32.6570   35.7300 C   0  0  0  0  0  3  0  0  0  0  0  0
   35.8340   31.4380   36.0570 C   0  0  0  0  0  3  0  0  0  0  0  0
   35.9670   30.4660   35.0910 C   0  0  0  0  0  3  0  0  0  0  0  0
   35.5820   30.6030   33.7800 C   0  0  0  0  0  0  0  0  0  0  0  0
  1  2  1  0  0  0  0
  2  7  2  0  0  0  0
  2  3  1  0  0  0  0
  3  4  2  0  0  0  0
  4  5  1  0  0  0  0
  4  8  1  0  0  0  0
  5  9  1  0  0  0  0
  6 10  1  0  0  0  0
  6  5  2  0  0  0  0
  7  6  1  0  0  0  0
 12 11  1  0  0  0  0
 13 12  1  0  0  0  0
 13  7  1  0  0  0  0
 14 13  2  0  0  0  0
 15 16  2  0  0  0  0
 15 14  1  0  0  0  0
 16 17  1  0  0  0  0
 17 21  1  0  0  0  0
 17 12  2  0  0  0  0
 18 14  1  0  0  0  0
 19 15  1  0  0  0  0
 20 16  1  0  0  0  0
 21 22  1  0  0  0  0
 23 29  1  0  0  0  0
 24  3  1  0  0  0  0
 24 23  2  0  0  0  0
 25 24  1  0  0  0  0
 26 25  2  0  0  0  0
 26 27  1  0  0  0  0
 27 28  2  0  0  0  0
 28 23  1  0  0  0  0
 30 25  1  0  0  0  0
 31 27  1  0  0  0  0
 31 41  1  0  0  0  0
 32 31  2  0  0  0  0
 33 32  1  0  0  0  0
 34 32  1  0  0  0  0
 34 35  2  0  0  0  0
 35 36  1  0  0  0  0
 36 41  2  0  0  0  0
 36 37  1  0  0  0  0
 37 38  2  0  0  0  0
 38 39  1  0  0  0  0
 40 39  2  0  0  0  0
 41 40  1  0  0  0  0
M  END
>  <minimizedAffinity>
-7.22205353

$$$$

 OpenBabel03272502083D

 41 45  0  0  0  0  0  0  0  0999 V2000
   35.0960   28.2700   34.0560 F   0  0  0  0  0  0  0  0  0  0  0  0
   35.6110   29.0970   33.0890 C   0  0  0  0  0  0  0  0  0  0  0  0
   36.2090   28.6070   31.9360 C   0  0  0  0  0  0  0  0  0  0  0  0
   36.6880   29.4920   31.0050 C   0  0  0  0  0  0  0  0  0  0  0  0
   36.5780   30.8740   31.2120 C   0  0  0  0  0  0  0  0  0  0  0  0
   35.9720   31.3010   32.3820 C   0  0  0  0  0  0  0  0  0  0  0  0
   35.4910   30.4630   33.3180 C   0  0  0  0  0  0  0  0  0  0  0  0
   37.1370   29.0520   30.1410 H   0  0  0  0  0  0  0  0  0  0  0  0
   36.9690   31.5350   30.4510 H   0  0  0  0  0  0  0  0  0  0  0  0
   35.9280   32.3790   32.4610 H   0  0  0  0  0  0  0  0  0  0  0  0
   32.3600   30.4280   33.5010 Br  0  0  0  0  0  0  0  0  0  0  0  0
   33.5470   31.0390   34.8600 C   0  0  0  0  0  0  0  0  0  0  0  0
   34.8800   30.9800   34.5250 C   0  0  0  0  0  0  0  0  0  0  0  0
   35.8150   31.4530   35.4640 C   0  0  0  0  0  0  0  0  0  0  0  0
   35.4150   31.9490   36.6560 C   0  0  0  0  0  0  0  0  0  0  0  0
   34.0560   31.9820   36.9420 C   0  0  0  0  0  0  0  0  0  0  0  0
   33.0980   31.5210   36.0340 C   0  0  0  0  0  0  0  0  0  0  0  0
   36.8810   31.4460   35.2840 H   0  0  0  0  0  0  0  0  0  0  0  0
   36.1120   32.3190   37.3950 H   0  0  0  0  0  0  0  0  0  0  0  0
   33.6910   32.3690   37.8840 H   0  0  0  0  0  0  0  0  0  0  0  0
   31.7520   31.5130   36.2300 O   0  0  0  0  0  0  0  0  0  0  0  0
   31.1470   31.9750   35.5740 H   0  0  0  0  0  0  0  0  0  0  0  0
   37.1540   26.5130   32.6600 C   0  0  0  0  0  0  0  0  0  0  0  0
   36.2600   27.1730   31.8430 C   0  0  0  0  0  0  0  0  0  0  0  0
   35.4720   26.4010   31.0090 C   0  0  0  0  0  0  0  0  0  0  0  0
   35.6100   25.0430   31.0300 N   0  0  0  0  0  0  0  0  0  0  0  0
   36.4760   24.4420   31.8270 C   0  0  0  0  0  0  0  0  0  0  0  0
   37.2220   25.1620   32.6130 N   0  0  0  0  0  0  0  0  0  0  0  0
   37.8230   27.0260   33.3540 H   0  0  0  0  0  0  0  0  0  0  0  0
   34.7890   26.9390   30.3880 H   0  0  0  0  0  0  0  0  0  0  0  0
   36.4070   22.9910   31.6400 C   0  0  0  0  0  0  0  0  0  0  0  0
   35.3870   22.2100   32.1420 C   0  0  0  0  0  0  0  0  0  0  0  0
   34.5660   22.6690   32.7170 H   0  0  0  0  0  0  0  0  0  0  0  0
   35.2600   20.8610   32.0080 C   0  0  0  0  0  3  0  0  0  0  0  0
   36.2250   20.1720   31.3100 C   0  0  0  0  0  3  0  0  0  0  0  0
   37.2790   20.8770   30.7760 C   0  0  0  0  0  0  0  0  0  0  0  0
   38.2280   20.1580   30.0820 C   0  0  0  0  0  3  0  0  0  0  0  0
   39.3110   20.7980   29.5200 C   0  0  0  0  0  3  0  0  0  0  0  0
   39.3960   22.1650   29.6830 C   0  0  0  0  0  3  0  0  0  0  0  0
   38.4180   22.8310   30.3860 C   0  0  0  0  0  3  0  0  0  0  0  0
   37.3220   22.2390   30.9630 C   0  0  0  0  0  0  0  0  0  0  0  0
  2  7  1  0  0  0  0
  2  1  1  0  0  0  0
  3  2  2  0  0  0  0
  4  5  2  0  0  0  0
  4  3  1  0  0  0  0
  5  6  1  0  0  0  0
  6 10  1  0  0  0  0
  6  7  2  0  0  0  0
  7 13  1  0  0  0  0
  8  4  1  0  0  0  0
  9  5  1  0  0  0  0
 11 12  1  0  0  0  0
 12 17  1  0  0  0  0
 13 12  2  0  0  0  0
 13 14  1  0  0  0  0
 14 15  2  0  0  0  0
 15 16  1  0  0  0  0
 15 19  1  0  0  0  0
 16 20  1  0  0  0  0
 17 21  1  0  0  0  0
 17 16  2  0  0  0  0
 18 14  1  0  0  0  0
 22 21  1  0  0  0  0
 23 29  1  0  0  0  0
 24  3  1  0  0  0  0
 24 23  2  0  0  0  0
 25 26  2  0  0  0  0
 25 24  1  0  0  0  0
 26 27  1  0  0  0  0
 27 28  2  0  0  0  0
 28 23  1  0  0  0  0
 30 25  1  0  0  0  0
 31 27  1  0  0  0  0
 31 32  1  0  0  0  0
 32 33  1  0  0  0  0
 34 32  2  0  0  0  0
 35 34  1  0  0  0  0
 36 41  1  0  0  0  0
 36 35  2  0  0  0  0
 37 36  1  0  0  0  0
 38 39  1  0  0  0  0
 38 37  2  0  0  0  0
 39 40  2  0  0  0  0
 40 41  1  0  0  0  0
 41 31  2  0  0  0  0
M  END
>  <minimizedAffinity>
-7.207623

$$$$

 OpenBabel03272502083D

 41 45  0  0  0  0  0  0  0  0999 V2000
   35.3550   29.2770   34.7290 F   0  0  0  0  0  0  0  0  0  0  0  0
   35.6930   29.3770   33.4020 C   0  0  0  0  0  0  0  0  0  0  0  0
   36.5750   28.4930   32.7930 C   0  0  0  0  0  0  0  0  0  0  0  0
   36.8550   28.6430   31.4600 C   0  0  0  0  0  0  0  0  0  0  0  0
   36.2610   29.6720   30.7180 C   0  0  0  0  0  0  0  0  0  0  0  0
   35.3910   30.5220   31.3810 C   0  0  0  0  0  0  0  0  0  0  0  0
   35.0920   30.4060   32.6870 C   0  0  0  0  0  0  0  0  0  0  0  0
   37.5410   27.9320   31.0520 H   0  0  0  0  0  0  0  0  0  0  0  0
   36.5120   29.7530   29.6690 H   0  0  0  0  0  0  0  0  0  0  0  0
   34.9790   31.2860   30.7350 H   0  0  0  0  0  0  0  0  0  0  0  0
   32.0940   29.5390   32.9950 Br  0  0  0  0  0  0  0  0  0  0  0  0
   32.8450   31.1820   33.6020 C   0  0  0  0  0  0  0  0  0  0  0  0
   34.1820   31.3390   33.3200 C   0  0  0  0  0  0  0  0  0  0  0  0
   34.7960   32.5460   33.7010 C   0  0  0  0  0  0  0  0  0  0  0  0
   34.0940   33.5180   34.3250 C   0  0  0  0  0  0  0  0  0  0  0  0
   32.7470   33.3030   34.5870 C   0  0  0  0  0  0  0  0  0  0  0  0
   32.1030   32.1180   34.2240 C   0  0  0  0  0  0  0  0  0  0  0  0
   35.8410   32.7550   33.5170 H   0  0  0  0  0  0  0  0  0  0  0  0
   34.5420   34.4540   34.6280 H   0  0  0  0  0  0  0  0  0  0  0  0
   32.1470   34.0530   35.0860 H   0  0  0  0  0  0  0  0  0  0  0  0
   30.7930   31.8220   34.4420 O   0  0  0  0  0  0  0  0  0  0  0  0
   30.2010   31.5690   33.6700 H   0  0  0  0  0  0  0  0  0  0  0  0
   37.0540   26.1740   33.2340 C   0  0  0  0  0  0  0  0  0  0  0  0
   37.1150   27.4830   33.6620 C   0  0  0  0  0  0  0  0  0  0  0  0
   37.7060   27.7230   34.8900 C   0  0  0  0  0  0  0  0  0  0  0  0
   38.1950   26.6710   35.6100 N   0  0  0  0  0  0  0  0  0  0  0  0
   38.1220   25.4280   35.1700 C   0  0  0  0  0  0  0  0  0  0  0  0
   37.5650   25.1950   34.0160 N   0  0  0  0  0  0  0  0  0  0  0  0
   36.6080   25.8760   32.2830 H   0  0  0  0  0  0  0  0  0  0  0  0
   37.7390   28.7450   35.1970 H   0  0  0  0  0  0  0  0  0  0  0  0
   38.7230   24.5130   36.1420 C   0  0  0  0  0  0  0  0  0  0  0  0
   38.1430   24.2090   37.3560 C   0  0  0  0  0  0  0  0  0  0  0  0
   37.1780   24.6610   37.6400 H   0  0  0  0  0  0  0  0  0  0  0  0
   38.6440   23.3710   38.3050 C   0  0  0  0  0  3  0  0  0  0  0  0
   39.8460   22.7450   38.0660 C   0  0  0  0  0  3  0  0  0  0  0  0
   40.4920   22.9940   36.8760 C   0  0  0  0  0  0  0  0  0  0  0  0
   41.6920   22.3520   36.6680 C   0  0  0  0  0  3  0  0  0  0  0  0
   42.3950   22.5530   35.5000 C   0  0  0  0  0  3  0  0  0  0  0  0
   41.8470   23.4110   34.5700 C   0  0  0  0  0  3  0  0  0  0  0  0
   40.6430   24.0250   34.8320 C   0  0  0  0  0  3  0  0  0  0  0  0
   39.9070   23.8560   35.9790 C   0  0  0  0  0  0  0  0  0  0  0  0
  2  1  1  0  0  0  0
  3  2  1  0  0  0  0
  3 24  1  0  0  0  0
  4  3  2  0  0  0  0
  5  6  2  0  0  0  0
  5  4  1  0  0  0  0
  6  7  1  0  0  0  0
  7 13  1  0  0  0  0
  7  2  2  0  0  0  0
  8  4  1  0  0  0  0
  9  5  1  0  0  0  0
 10  6  1  0  0  0  0
 11 12  1  0  0  0  0
 12 17  1  0  0  0  0
 13 12  2  0  0  0  0
 13 14  1  0  0  0  0
 14 15  2  0  0  0  0
 15 16  1  0  0  0  0
 15 19  1  0  0  0  0
 16 20  1  0  0  0  0
 17 21  1  0  0  0  0
 17 16  2  0  0  0  0
 18 14  1  0  0  0  0
 22 21  1  0  0  0  0
 23 24  2  0  0  0  0
 23 28  1  0  0  0  0
 24 25  1  0  0  0  0
 25 30  1  0  0  0  0
 25 26  2  0  0  0  0
 27 26  1  0  0  0  0
 27 31  1  0  0  0  0
 28 27  2  0  0  0  0
 29 23  1  0  0  0  0
 31 32  1  0  0  0  0
 32 33  1  0  0  0  0
 32 34  2  0  0  0  0
 35 34  1  0  0  0  0
 36 35  2  0  0  0  0
 37 36  1  0  0  0  0
 38 37  2  0  0  0  0
 39 40  2  0  0  0  0
 39 38  1  0  0  0  0
 40 41  1  0  0  0  0
 41 31  2  0  0  0  0
 41 36  1  0  0  0  0
M  END
>  <minimizedAffinity>
-7.06235266

$$$$

 OpenBabel03272502083D

 41 45  0  0  0  0  0  0  0  0999 V2000
   35.1790   28.6070   34.5070 F   0  0  0  0  0  0  0  0  0  0  0  0
   35.6730   28.8920   33.2580 C   0  0  0  0  0  0  0  0  0  0  0  0
   36.7660   28.2240   32.7230 C   0  0  0  0  0  0  0  0  0  0  0  0
   37.1970   28.5500   31.4630 C   0  0  0  0  0  0  0  0  0  0  0  0
   36.5440   29.5440   30.7220 C   0  0  0  0  0  0  0  0  0  0  0  0
   35.4610   30.1760   31.3110 C   0  0  0  0  0  0  0  0  0  0  0  0
   35.0110   29.8830   32.5440 C   0  0  0  0  0  0  0  0  0  0  0  0
   38.0420   28.0000   31.1090 H   0  0  0  0  0  0  0  0  0  0  0  0
   36.9180   29.7690   29.7330 H   0  0  0  0  0  0  0  0  0  0  0  0
   35.0170   30.9280   30.6710 H   0  0  0  0  0  0  0  0  0  0  0  0
   35.5980   32.2970   34.4590 Br  0  0  0  0  0  0  0  0  0  0  0  0
   33.8700   31.6930   33.9260 C   0  0  0  0  0  0  0  0  0  0  0  0
   33.8780   30.5920   33.1020 C   0  0  0  0  0  0  0  0  0  0  0  0
   32.6370   30.0640   32.7010 C   0  0  0  0  0  0  0  0  0  0  0  0
   31.4760   30.6210   33.1130 C   0  0  0  0  0  0  0  0  0  0  0  0
   31.5290   31.7340   33.9430 C   0  0  0  0  0  0  0  0  0  0  0  0
   32.7430   32.2860   34.3630 C   0  0  0  0  0  0  0  0  0  0  0  0
   32.5490   29.2010   32.0550 H   0  0  0  0  0  0  0  0  0  0  0  0
   30.5100   30.2350   32.8190 H   0  0  0  0  0  0  0  0  0  0  0  0
   30.6260   32.2130   34.2960 H   0  0  0  0  0  0  0  0  0  0  0  0
   32.8890   33.3710   35.1700 O   0  0  0  0  0  0  0  0  0  0  0  0
   33.4230   33.2960   36.0190 H   0  0  0  0  0  0  0  0  0  0  0  0
   37.2240   25.9080   33.2010 C   0  0  0  0  0  0  0  0  0  0  0  0
   37.3460   27.2270   33.5830 C   0  0  0  0  0  0  0  0  0  0  0  0
   38.0310   27.4890   34.7550 C   0  0  0  0  0  0  0  0  0  0  0  0
   38.5470   26.4480   35.4720 N   0  0  0  0  0  0  0  0  0  0  0  0
   38.4140   25.1940   35.0770 C   0  0  0  0  0  0  0  0  0  0  0  0
   37.7690   24.9400   33.9750 N   0  0  0  0  0  0  0  0  0  0  0  0
   36.7030   25.5920   32.2950 H   0  0  0  0  0  0  0  0  0  0  0  0
   38.1090   28.5190   35.0270 H   0  0  0  0  0  0  0  0  0  0  0  0
   39.0640   24.2940   36.0320 C   0  0  0  0  0  0  0  0  0  0  0  0
   38.4910   23.9150   37.2280 C   0  0  0  0  0  0  0  0  0  0  0  0
   37.4930   24.2910   37.5100 H   0  0  0  0  0  0  0  0  0  0  0  0
   39.0360   23.0850   38.1600 C   0  0  0  0  0  3  0  0  0  0  0  0
   40.2810   22.5510   37.9220 C   0  0  0  0  0  3  0  0  0  0  0  0
   40.9240   22.8790   36.7500 C   0  0  0  0  0  0  0  0  0  0  0  0
   42.1680   22.3270   36.5420 C   0  0  0  0  0  3  0  0  0  0  0  0
   42.8710   22.6100   35.3910 C   0  0  0  0  0  3  0  0  0  0  0  0
   42.2770   23.4560   34.4770 C   0  0  0  0  0  3  0  0  0  0  0  0
   41.0300   23.9780   34.7380 C   0  0  0  0  0  3  0  0  0  0  0  0
   40.2930   23.7250   35.8690 C   0  0  0  0  0  0  0  0  0  0  0  0
  2  1  1  0  0  0  0
  3  2  1  0  0  0  0
  3 24  1  0  0  0  0
  4  3  2  0  0  0  0
  5  6  2  0  0  0  0
  5  4  1  0  0  0  0
  6  7  1  0  0  0  0
  7 13  1  0  0  0  0
  7  2  2  0  0  0  0
  8  4  1  0  0  0  0
  9  5  1  0  0  0  0
 10  6  1  0  0  0  0
 12 17  1  0  0  0  0
 12 11  1  0  0  0  0
 13 12  2  0  0  0  0
 14 13  1  0  0  0  0
 14 15  2  0  0  0  0
 15 16  1  0  0  0  0
 16 20  1  0  0  0  0
 16 17  2  0  0  0  0
 17 21  1  0  0  0  0
 18 14  1  0  0  0  0
 19 15  1  0  0  0  0
 21 22  1  0  0  0  0
 23 24  2  0  0  0  0
 23 28  1  0  0  0  0
 24 25  1  0  0  0  0
 25 30  1  0  0  0  0
 25 26  2  0  0  0  0
 27 26  1  0  0  0  0
 27 31  1  0  0  0  0
 28 27  2  0  0  0  0
 29 23  1  0  0  0  0
 31 32  1  0  0  0  0
 32 33  1  0  0  0  0
 32 34  2  0  0  0  0
 35 34  1  0  0  0  0
 36 35  2  0  0  0  0
 37 36  1  0  0  0  0
 38 37  2  0  0  0  0
 39 40  2  0  0  0  0
 39 38  1  0  0  0  0
 40 41  1  0  0  0  0
 41 31  2  0  0  0  0
 41 36  1  0  0  0  0
M  END
>  <minimizedAffinity>
-7.06217003

$$$$

 OpenBabel03272502083D

 41 45  0  0  0  0  0  0  0  0999 V2000
   36.5360   25.4100   32.8970 F   0  0  0  0  0  0  0  0  0  0  0  0
   37.3830   25.8500   31.9100 C   0  0  0  0  0  0  0  0  0  0  0  0
   37.6520   27.1970   31.7100 C   0  0  0  0  0  0  0  0  0  0  0  0
   38.5200   27.5640   30.7140 C   0  0  0  0  0  0  0  0  0  0  0  0
   39.1290   26.5940   29.9060 C   0  0  0  0  0  0  0  0  0  0  0  0
   38.8190   25.2670   30.1540 C   0  0  0  0  0  0  0  0  0  0  0  0
   37.9730   24.8700   31.1210 C   0  0  0  0  0  0  0  0  0  0  0  0
   38.6840   28.6150   30.6120 H   0  0  0  0  0  0  0  0  0  0  0  0
   39.8060   26.9290   29.1330 H   0  0  0  0  0  0  0  0  0  0  0  0
   39.3320   24.5860   29.4870 H   0  0  0  0  0  0  0  0  0  0  0  0
   40.2870   23.0410   32.1910 Br  0  0  0  0  0  0  0  0  0  0  0  0
   38.5080   22.4750   31.8050 C   0  0  0  0  0  0  0  0  0  0  0  0
   37.6860   23.4630   31.3170 C   0  0  0  0  0  0  0  0  0  0  0  0
   36.3690   23.1100   30.9700 C   0  0  0  0  0  0  0  0  0  0  0  0
   35.9280   21.8400   31.1120 C   0  0  0  0  0  0  0  0  0  0  0  0
   36.8020   20.8840   31.6120 C   0  0  0  0  0  0  0  0  0  0  0  0
   38.1170   21.1970   31.9680 C   0  0  0  0  0  0  0  0  0  0  0  0
   35.6560   23.8220   30.5770 H   0  0  0  0  0  0  0  0  0  0  0  0
   34.9220   21.5430   30.8520 H   0  0  0  0  0  0  0  0  0  0  0  0
   36.4910   19.8560   31.7440 H   0  0  0  0  0  0  0  0  0  0  0  0
   39.0370   20.3280   32.4660 O   0  0  0  0  0  0  0  0  0  0  0  0
   39.9220   20.2140   32.0020 H   0  0  0  0  0  0  0  0  0  0  0  0
   36.2880   29.1540   32.0460 C   0  0  0  0  0  0  0  0  0  0  0  0
   36.9650   28.0910   32.6040 C   0  0  0  0  0  0  0  0  0  0  0  0
   36.9180   27.9580   33.9790 C   0  0  0  0  0  0  0  0  0  0  0  0
   36.2140   28.8700   34.7120 N   0  0  0  0  0  0  0  0  0  0  0  0
   35.5740   29.8780   34.1460 C   0  0  0  0  0  0  0  0  0  0  0  0
   35.6160   30.0090   32.8510 N   0  0  0  0  0  0  0  0  0  0  0  0
   36.2610   29.3500   30.9720 H   0  0  0  0  0  0  0  0  0  0  0  0
   37.4510   27.1270   34.3840 H   0  0  0  0  0  0  0  0  0  0  0  0
   34.9090   30.6900   35.1670 C   0  0  0  0  0  0  0  0  0  0  0  0
   35.5550   31.6600   35.9040 C   0  0  0  0  0  0  0  0  0  0  0  0
   36.6270   31.8610   35.7390 H   0  0  0  0  0  0  0  0  0  0  0  0
   35.0020   32.4490   36.8650 C   0  0  0  0  0  3  0  0  0  0  0  0
   33.6680   32.2930   37.1610 C   0  0  0  0  0  3  0  0  0  0  0  0
   32.9480   31.3440   36.4710 C   0  0  0  0  0  0  0  0  0  0  0  0
   31.6150   31.2130   36.7910 C   0  0  0  0  0  3  0  0  0  0  0  0
   30.8320   30.2840   36.1420 C   0  0  0  0  0  3  0  0  0  0  0  0
   31.4380   29.5080   35.1750 C   0  0  0  0  0  3  0  0  0  0  0  0
   32.7750   29.6830   34.8970 C   0  0  0  0  0  3  0  0  0  0  0  0
   33.5940   30.5950   35.5170 C   0  0  0  0  0  0  0  0  0  0  0  0
  2  1  1  0  0  0  0
  3  2  1  0  0  0  0
  3 24  1  0  0  0  0
  4  3  2  0  0  0  0
  5  6  2  0  0  0  0
  5  4  1  0  0  0  0
  6  7  1  0  0  0  0
  7 13  1  0  0  0  0
  7  2  2  0  0  0  0
  8  4  1  0  0  0  0
  9  5  1  0  0  0  0
 10  6  1  0  0  0  0
 12 17  1  0  0  0  0
 12 11  1  0  0  0  0
 13 12  2  0  0  0  0
 14 15  2  0  0  0  0
 14 13  1  0  0  0  0
 15 16  1  0  0  0  0
 16 20  1  0  0  0  0
 16 17  2  0  0  0  0
 17 21  1  0  0  0  0
 18 14  1  0  0  0  0
 19 15  1  0  0  0  0
 22 21  1  0  0  0  0
 23 24  2  0  0  0  0
 23 28  1  0  0  0  0
 24 25  1  0  0  0  0
 25 30  1  0  0  0  0
 25 26  2  0  0  0  0
 27 26  1  0  0  0  0
 27 31  1  0  0  0  0
 28 27  2  0  0  0  0
 29 23  1  0  0  0  0
 31 41  2  0  0  0  0
 31 32  1  0  0  0  0
 32 34  2  0  0  0  0
 33 32  1  0  0  0  0
 34 35  1  0  0  0  0
 36 37  1  0  0  0  0
 36 35  2  0  0  0  0
 38 37  2  0  0  0  0
 39 38  1  0  0  0  0
 40 39  2  0  0  0  0
 40 41  1  0  0  0  0
 41 36  1  0  0  0  0
M  END
>  <minimizedAffinity>
-7.05553722

$$$$
