
 OpenBabel03272508063D

 37 41  0  0  0  0  0  0  0  0999 V2000
   38.8490   31.0060   45.7750 C   0  0  0  0  0  0  0  0  0  0  0  0
   39.9730   31.7980   45.9720 C   0  0  0  0  0  0  0  0  0  0  0  0
   40.8150   31.7480   44.8630 C   0  0  0  0  0  0  0  0  0  0  0  0
   40.1440   30.9090   44.0290 N   0  0  0  0  0  0  0  0  0  0  0  0
   39.0130   30.4780   44.5460 N   0  0  0  0  0  0  0  0  0  0  0  0
   40.1830   32.3800   46.8590 H   0  0  0  0  0  0  0  0  0  0  0  0
   41.7470   32.2200   44.6710 H   0  0  0  0  0  0  0  0  0  0  0  0
   37.7460   30.8050   46.6950 C   0  0  0  0  0  0  0  0  0  0  0  0
   37.9800   31.0230   48.0810 C   0  0  0  0  0  0  0  0  0  0  0  0
   36.9030   30.8230   48.9440 C   0  0  0  0  0  0  0  0  0  0  0  0
   35.7110   30.4380   48.4240 N   0  0  0  0  0  0  0  0  0  0  0  0
   35.5200   30.2390   47.1010 C   0  0  0  0  0  0  0  0  0  0  0  0
   36.5470   30.4260   46.2480 N   0  0  0  0  0  0  0  0  0  0  0  0
   38.9540   31.3300   48.4410 H   0  0  0  0  0  0  0  0  0  0  0  0
   34.5540   29.9320   46.7220 H   0  0  0  0  0  0  0  0  0  0  0  0
   37.1280   31.0470   50.4060 C   0  0  0  0  0  0  0  0  0  0  0  0
   36.6070   32.2880   50.6710 F   0  0  0  0  0  0  0  0  0  0  0  0
   36.4710   30.0970   51.1900 F   0  0  0  0  0  0  0  0  0  0  0  0
   38.4780   31.0530   50.7290 F   0  0  0  0  0  0  0  0  0  0  0  0
   40.5450   30.4870   42.6930 C   0  0  0  0  0  0  0  0  0  0  0  0
   40.1570   31.1840   41.5450 C   0  0  0  0  0  0  0  0  0  0  0  0
   40.5670   30.7520   40.3210 C   0  0  0  0  0  0  0  0  0  0  0  0
   41.3760   29.6060   40.2050 C   0  0  0  0  0  0  0  0  0  0  0  0
   41.5380   29.1520   41.9900 S   0  0  0  0  0  0  0  0  0  0  0  0
   39.5200   32.0790   41.6480 H   0  0  0  0  0  0  0  0  0  0  0  0
   40.3040   31.3070   39.4490 H   0  0  0  0  0  0  0  0  0  0  0  0
   42.0600   28.8340   39.2860 C   0  0  0  0  0  0  0  0  0  0  0  0
   43.1890   29.3810   38.6540 C   0  0  0  0  0  0  0  0  0  0  0  0
   43.5740   30.3920   38.8220 H   0  0  0  0  0  0  0  0  0  0  0  0
   43.9560   28.7060   37.7290 C   0  0  0  0  0  3  0  0  0  0  0  0
   43.6140   27.4260   37.3980 C   0  0  0  0  0  3  0  0  0  0  0  0
   42.5320   26.7980   37.9590 C   0  0  0  0  0  0  0  0  0  0  0  0
   42.2450   25.4980   37.6160 C   0  0  0  0  0  3  0  0  0  0  0  0
   41.1760   24.8560   38.2090 C   0  0  0  0  0  3  0  0  0  0  0  0
   40.4550   25.5920   39.1320 C   0  0  0  0  0  3  0  0  0  0  0  0
   40.7830   26.8900   39.4400 C   0  0  0  0  0  3  0  0  0  0  0  0
   41.8330   27.5470   38.8640 C   0  0  0  0  0  0  0  0  0  0  0  0
  1  2  1  0  0  0  0
  1  8  1  0  0  0  0
  2  6  1  0  0  0  0
  3  2  2  0  0  0  0
  4  5  1  0  0  0  0
  4  3  1  0  0  0  0
  5  1  2  0  0  0  0
  7  3  1  0  0  0  0
  8  9  1  0  0  0  0
  9 14  1  0  0  0  0
  9 10  2  0  0  0  0
 10 16  1  0  0  0  0
 11 10  1  0  0  0  0
 12 11  2  0  0  0  0
 13  8  2  0  0  0  0
 13 12  1  0  0  0  0
 15 12  1  0  0  0  0
 16 17  1  0  0  0  0
 16 19  1  0  0  0  0
 16 18  1  0  0  0  0
 20  4  1  0  0  0  0
 21 25  1  0  0  0  0
 21 20  2  0  0  0  0
 22 21  1  0  0  0  0
 23 22  2  0  0  0  0
 23 24  1  0  0  0  0
 24 20  1  0  0  0  0
 26 22  1  0  0  0  0
 27 23  1  0  0  0  0
 28 29  1  0  0  0  0
 28 27  2  0  0  0  0
 30 28  1  0  0  0  0
 31 30  2  0  0  0  0
 31 32  1  0  0  0  0
 32 37  1  0  0  0  0
 33 32  2  0  0  0  0
 33 34  1  0  0  0  0
 34 35  2  0  0  0  0
 35 36  1  0  0  0  0
 37 27  1  0  0  0  0
 37 36  2  0  0  0  0
M  END
>  <minimizedAffinity>
-6.77286243

>  <minimizedRMSD>
0.983327806

$$$$
