
 OpenBabel03262521383D

 30 33  0  0  0  0  0  0  0  0999 V2000
   36.4770   28.5050   34.8600 F   0  0  0  0  0  0  0  0  0  0  0  0
   36.2210   28.9700   33.5910 C   0  0  0  0  0  0  0  0  0  0  0  0
   36.6700   28.3040   32.4660 C   0  0  0  0  0  0  0  0  0  0  0  0
   36.3880   28.8100   31.2120 C   0  0  0  0  0  0  0  0  0  0  0  0
   35.6550   29.9870   31.0700 C   0  0  0  0  0  0  0  0  0  0  0  0
   35.2310   30.6130   32.2270 C   0  0  0  0  0  0  0  0  0  0  0  0
   35.4930   30.1390   33.4810 C   0  0  0  0  0  0  0  0  0  0  0  0
   36.7560   28.2610   30.3550 H   0  0  0  0  0  0  0  0  0  0  0  0
   35.4580   30.3470   30.0910 H   0  0  0  0  0  0  0  0  0  0  0  0
   34.6630   31.5250   32.1080 H   0  0  0  0  0  0  0  0  0  0  0  0
   35.0320   30.8190   34.7090 C   0  0  0  0  0  0  0  0  0  0  0  0
   35.8690   31.8040   35.2080 C   0  0  0  0  0  0  0  0  0  0  0  0
   36.7930   32.0520   34.7260 H   0  0  0  0  0  0  0  0  0  0  0  0
   35.5350   32.5130   36.3610 C   0  0  0  0  0  3  0  0  0  0  0  0
   34.3450   32.1940   36.9820 C   0  0  0  0  0  3  0  0  0  0  0  0
   33.5130   31.2140   36.4880 C   0  0  0  0  0  0  0  0  0  0  0  0
   32.3110   30.8890   37.1100 C   0  0  0  0  0  3  0  0  0  0  0  0
   31.5340   29.8950   36.5490 C   0  0  0  0  0  3  0  0  0  0  0  0
   31.8680   29.1970   35.4070 C   0  0  0  0  0  3  0  0  0  0  0  0
   33.0740   29.5160   34.7750 C   0  0  0  0  0  3  0  0  0  0  0  0
   33.8380   30.5120   35.3480 C   0  0  0  0  0  0  0  0  0  0  0  0
   36.6890   25.9090   32.4840 C   0  0  0  0  0  0  0  0  0  0  0  0
   37.4210   27.0940   32.6920 C   0  0  0  0  0  0  0  0  0  0  0  0
   38.7470   26.9830   33.0820 C   0  0  0  0  0  0  0  0  0  0  0  0
   39.2790   25.7340   33.2450 N   0  0  0  0  0  0  0  0  0  0  0  0
   38.5580   24.6160   33.0390 C   0  0  0  0  0  0  0  0  0  0  0  0
   37.2680   24.7030   32.6610 N   0  0  0  0  0  0  0  0  0  0  0  0
   35.6530   25.8550   32.1810 H   0  0  0  0  0  0  0  0  0  0  0  0
   39.2600   27.9070   33.2270 H   0  0  0  0  0  0  0  0  0  0  0  0
   39.1040   23.7140   33.2050 H   0  0  0  0  0  0  0  0  0  0  0  0
  2  1  1  0  0  0  0
  3 23  1  0  0  0  0
  3  2  2  0  0  0  0
  4  3  1  0  0  0  0
  5  4  2  0  0  0  0
  5  6  1  0  0  0  0
  6  7  2  0  0  0  0
  7  2  1  0  0  0  0
  7 11  1  0  0  0  0
  8  4  1  0  0  0  0
  9  5  1  0  0  0  0
 10  6  1  0  0  0  0
 11 12  2  0  0  0  0
 11 21  1  0  0  0  0
 12 14  1  0  0  0  0
 13 12  1  0  0  0  0
 14 15  2  0  0  0  0
 16 15  1  0  0  0  0
 16 17  1  0  0  0  0
 18 17  2  0  0  0  0
 19 18  1  0  0  0  0
 20 21  1  0  0  0  0
 20 19  2  0  0  0  0
 21 16  2  0  0  0  0
 22 27  2  0  0  0  0
 22 23  1  0  0  0  0
 23 24  2  0  0  0  0
 24 29  1  0  0  0  0
 24 25  1  0  0  0  0
 26 30  1  0  0  0  0
 26 25  2  0  0  0  0
 27 26  1  0  0  0  0
 28 22  1  0  0  0  0
M  END
>  <minimizedAffinity>
-6.3493309

$$$$

 OpenBabel03262521383D

 30 33  0  0  0  0  0  0  0  0999 V2000
   35.9180   28.1980   34.7440 F   0  0  0  0  0  0  0  0  0  0  0  0
   36.0380   28.9870   33.6230 C   0  0  0  0  0  0  0  0  0  0  0  0
   35.4880   30.2540   33.5610 C   0  0  0  0  0  0  0  0  0  0  0  0
   35.6350   31.0080   32.4130 C   0  0  0  0  0  0  0  0  0  0  0  0
   36.3320   30.5050   31.3160 C   0  0  0  0  0  0  0  0  0  0  0  0
   36.8610   29.2330   31.4320 C   0  0  0  0  0  0  0  0  0  0  0  0
   36.7340   28.4620   32.5520 C   0  0  0  0  0  0  0  0  0  0  0  0
   35.1910   31.9960   32.4010 H   0  0  0  0  0  0  0  0  0  0  0  0
   36.4250   31.1120   30.4500 H   0  0  0  0  0  0  0  0  0  0  0  0
   37.4010   28.8500   30.5770 H   0  0  0  0  0  0  0  0  0  0  0  0
   37.3050   27.1030   32.6600 C   0  0  0  0  0  0  0  0  0  0  0  0
   38.5060   27.0020   33.3450 C   0  0  0  0  0  0  0  0  0  0  0  0
   38.9850   27.8630   33.7670 H   0  0  0  0  0  0  0  0  0  0  0  0
   39.1360   25.7710   33.5100 C   0  0  0  0  0  3  0  0  0  0  0  0
   38.5200   24.6610   32.9670 C   0  0  0  0  0  3  0  0  0  0  0  0
   37.3270   24.7600   32.2860 C   0  0  0  0  0  0  0  0  0  0  0  0
   36.7010   23.6460   31.7360 C   0  0  0  0  0  3  0  0  0  0  0  0
   35.5060   23.8310   31.0690 C   0  0  0  0  0  3  0  0  0  0  0  0
   34.8850   25.0520   30.9090 C   0  0  0  0  0  3  0  0  0  0  0  0
   35.5070   26.1790   31.4570 C   0  0  0  0  0  3  0  0  0  0  0  0
   36.7000   25.9760   32.1200 C   0  0  0  0  0  0  0  0  0  0  0  0
   35.5760   31.4240   35.6480 C   0  0  0  0  0  0  0  0  0  0  0  0
   34.7820   30.7060   34.7330 C   0  0  0  0  0  0  0  0  0  0  0  0
   33.4440   30.5120   35.0410 C   0  0  0  0  0  0  0  0  0  0  0  0
   32.9610   31.0250   36.2140 N   0  0  0  0  0  0  0  0  0  0  0  0
   33.7410   31.7080   37.0720 C   0  0  0  0  0  0  0  0  0  0  0  0
   35.0440   31.9070   36.7900 N   0  0  0  0  0  0  0  0  0  0  0  0
   36.6280   31.6450   35.5300 H   0  0  0  0  0  0  0  0  0  0  0  0
   32.8830   29.9640   34.3180 H   0  0  0  0  0  0  0  0  0  0  0  0
   33.2290   32.0470   37.9440 H   0  0  0  0  0  0  0  0  0  0  0  0
  2  1  1  0  0  0  0
  3  2  1  0  0  0  0
  3 23  1  0  0  0  0
  4  3  2  0  0  0  0
  5  6  2  0  0  0  0
  5  4  1  0  0  0  0
  6  7  1  0  0  0  0
  7 11  1  0  0  0  0
  7  2  2  0  0  0  0
  8  4  1  0  0  0  0
  9  5  1  0  0  0  0
 10  6  1  0  0  0  0
 11 12  1  0  0  0  0
 12 14  2  0  0  0  0
 12 13  1  0  0  0  0
 15 14  1  0  0  0  0
 16 15  2  0  0  0  0
 17 16  1  0  0  0  0
 18 17  2  0  0  0  0
 19 18  1  0  0  0  0
 19 20  2  0  0  0  0
 20 21  1  0  0  0  0
 21 16  1  0  0  0  0
 21 11  2  0  0  0  0
 22 27  1  0  0  0  0
 23 24  1  0  0  0  0
 23 22  2  0  0  0  0
 24 25  2  0  0  0  0
 25 26  1  0  0  0  0
 26 30  1  0  0  0  0
 27 26  2  0  0  0  0
 28 22  1  0  0  0  0
 29 24  1  0  0  0  0
M  END
>  <minimizedAffinity>
-6.24318981

$$$$

 OpenBabel03262521383D

 30 33  0  0  0  0  0  0  0  0999 V2000
   37.7240   23.3240   33.2600 F   0  0  0  0  0  0  0  0  0  0  0  0
   36.8730   24.0550   32.4640 C   0  0  0  0  0  0  0  0  0  0  0  0
   36.0020   23.4510   31.5770 C   0  0  0  0  0  0  0  0  0  0  0  0
   35.1670   24.2280   30.8000 C   0  0  0  0  0  0  0  0  0  0  0  0
   35.1920   25.6180   30.9010 C   0  0  0  0  0  0  0  0  0  0  0  0
   36.0800   26.1710   31.8040 C   0  0  0  0  0  0  0  0  0  0  0  0
   36.9200   25.4300   32.5860 C   0  0  0  0  0  0  0  0  0  0  0  0
   34.4990   23.7190   30.1160 H   0  0  0  0  0  0  0  0  0  0  0  0
   34.5360   26.1840   30.2880 H   0  0  0  0  0  0  0  0  0  0  0  0
   36.0940   27.2500   31.8770 H   0  0  0  0  0  0  0  0  0  0  0  0
   37.8650   26.0360   33.5480 C   0  0  0  0  0  0  0  0  0  0  0  0
   37.3860   26.2260   34.8340 C   0  0  0  0  0  0  0  0  0  0  0  0
   36.3870   25.9480   35.1070 H   0  0  0  0  0  0  0  0  0  0  0  0
   38.1890   26.7890   35.8230 C   0  0  0  0  0  3  0  0  0  0  0  0
   39.4750   27.1470   35.4730 C   0  0  0  0  0  3  0  0  0  0  0  0
   39.9530   26.9600   34.1950 C   0  0  0  0  0  0  0  0  0  0  0  0
   41.2480   27.3200   33.8360 C   0  0  0  0  0  3  0  0  0  0  0  0
   41.6490   27.0970   32.5330 C   0  0  0  0  0  3  0  0  0  0  0  0
   40.8510   26.5390   31.5570 C   0  0  0  0  0  3  0  0  0  0  0  0
   39.5470   26.1750   31.9080 C   0  0  0  0  0  3  0  0  0  0  0  0
   39.1620   26.4040   33.2130 C   0  0  0  0  0  0  0  0  0  0  0  0
   35.0240   21.3820   32.2820 C   0  0  0  0  0  0  0  0  0  0  0  0
   36.0330   22.0100   31.5280 C   0  0  0  0  0  0  0  0  0  0  0  0
   36.9280   21.2070   30.8360 C   0  0  0  0  0  0  0  0  0  0  0  0
   36.7880   19.8490   30.9180 N   0  0  0  0  0  0  0  0  0  0  0  0
   35.8130   19.2730   31.6470 C   0  0  0  0  0  0  0  0  0  0  0  0
   34.9350   20.0360   32.3260 N   0  0  0  0  0  0  0  0  0  0  0  0
   34.2670   21.8880   32.8650 H   0  0  0  0  0  0  0  0  0  0  0  0
   37.6740   21.7280   30.2790 H   0  0  0  0  0  0  0  0  0  0  0  0
   35.8270   18.2060   31.6180 H   0  0  0  0  0  0  0  0  0  0  0  0
  2  7  1  0  0  0  0
  2  1  1  0  0  0  0
  3  2  2  0  0  0  0
  4  5  2  0  0  0  0
  4  3  1  0  0  0  0
  5  6  1  0  0  0  0
  6 10  1  0  0  0  0
  6  7  2  0  0  0  0
  7 11  1  0  0  0  0
  8  4  1  0  0  0  0
  9  5  1  0  0  0  0
 11 12  1  0  0  0  0
 12 13  1  0  0  0  0
 12 14  2  0  0  0  0
 15 14  1  0  0  0  0
 16 15  2  0  0  0  0
 17 16  1  0  0  0  0
 18 17  2  0  0  0  0
 19 20  2  0  0  0  0
 19 18  1  0  0  0  0
 20 21  1  0  0  0  0
 21 11  2  0  0  0  0
 21 16  1  0  0  0  0
 22 27  1  0  0  0  0
 22 28  1  0  0  0  0
 23  3  1  0  0  0  0
 23 22  2  0  0  0  0
 24 25  2  0  0  0  0
 24 23  1  0  0  0  0
 25 26  1  0  0  0  0
 26 27  2  0  0  0  0
 29 24  1  0  0  0  0
 30 26  1  0  0  0  0
M  END
>  <minimizedAffinity>
-6.1420536

$$$$

 OpenBabel03262521383D

 30 33  0  0  0  0  0  0  0  0999 V2000
   36.0270   27.8060   34.8060 F   0  0  0  0  0  0  0  0  0  0  0  0
   36.1660   28.3490   33.5500 C   0  0  0  0  0  0  0  0  0  0  0  0
   37.1470   27.9230   32.6750 C   0  0  0  0  0  0  0  0  0  0  0  0
   37.2470   28.4990   31.4240 C   0  0  0  0  0  0  0  0  0  0  0  0
   36.3670   29.5060   31.0340 C   0  0  0  0  0  0  0  0  0  0  0  0
   35.4050   29.8950   31.9460 C   0  0  0  0  0  0  0  0  0  0  0  0
   35.2800   29.3460   33.1910 C   0  0  0  0  0  0  0  0  0  0  0  0
   38.0280   28.1390   30.7660 H   0  0  0  0  0  0  0  0  0  0  0  0
   36.4720   29.9270   30.0640 H   0  0  0  0  0  0  0  0  0  0  0  0
   34.7250   30.6770   31.6370 H   0  0  0  0  0  0  0  0  0  0  0  0
   34.2450   29.7720   34.1560 C   0  0  0  0  0  0  0  0  0  0  0  0
   33.0160   29.1400   34.0490 C   0  0  0  0  0  0  0  0  0  0  0  0
   32.8350   28.3890   33.3060 H   0  0  0  0  0  0  0  0  0  0  0  0
   31.9670   29.4610   34.9070 C   0  0  0  0  0  3  0  0  0  0  0  0
   32.1990   30.4280   35.8640 C   0  0  0  0  0  3  0  0  0  0  0  0
   33.4190   31.0570   35.9720 C   0  0  0  0  0  0  0  0  0  0  0  0
   33.6590   32.0330   36.9340 C   0  0  0  0  0  3  0  0  0  0  0  0
   34.9120   32.6140   36.9760 C   0  0  0  0  0  3  0  0  0  0  0  0
   35.9480   32.2930   36.1250 C   0  0  0  0  0  3  0  0  0  0  0  0
   35.7160   31.3140   35.1530 C   0  0  0  0  0  3  0  0  0  0  0  0
   34.4600   30.7430   35.1260 C   0  0  0  0  0  0  0  0  0  0  0  0
   37.5730   25.5740   32.8600 C   0  0  0  0  0  0  0  0  0  0  0  0
   38.0200   26.8770   33.1480 C   0  0  0  0  0  0  0  0  0  0  0  0
   39.2160   27.0210   33.8360 C   0  0  0  0  0  0  0  0  0  0  0  0
   39.9010   25.8950   34.2010 N   0  0  0  0  0  0  0  0  0  0  0  0
   39.4520   24.6590   33.9130 C   0  0  0  0  0  0  0  0  0  0  0  0
   38.2930   24.4990   33.2460 N   0  0  0  0  0  0  0  0  0  0  0  0
   36.6630   25.3220   32.3340 H   0  0  0  0  0  0  0  0  0  0  0  0
   39.5130   28.0270   34.0300 H   0  0  0  0  0  0  0  0  0  0  0  0
   40.0900   23.8770   34.2600 H   0  0  0  0  0  0  0  0  0  0  0  0
  2  1  1  0  0  0  0
  3 23  1  0  0  0  0
  3  2  2  0  0  0  0
  4  3  1  0  0  0  0
  5  4  2  0  0  0  0
  5  6  1  0  0  0  0
  6  7  2  0  0  0  0
  7  2  1  0  0  0  0
  7 11  1  0  0  0  0
  8  4  1  0  0  0  0
  9  5  1  0  0  0  0
 10  6  1  0  0  0  0
 11 21  1  0  0  0  0
 12 11  2  0  0  0  0
 12 14  1  0  0  0  0
 13 12  1  0  0  0  0
 14 15  2  0  0  0  0
 15 16  1  0  0  0  0
 16 17  1  0  0  0  0
 17 18  2  0  0  0  0
 19 18  1  0  0  0  0
 20 19  2  0  0  0  0
 21 20  1  0  0  0  0
 21 16  2  0  0  0  0
 22 23  2  0  0  0  0
 22 27  1  0  0  0  0
 23 24  1  0  0  0  0
 24 29  1  0  0  0  0
 24 25  2  0  0  0  0
 26 25  1  0  0  0  0
 26 30  1  0  0  0  0
 27 26  2  0  0  0  0
 28 22  1  0  0  0  0
M  END
>  <minimizedAffinity>
-6.09417295

$$$$

 OpenBabel03262521383D

 30 33  0  0  0  0  0  0  0  0999 V2000
   35.8780   27.8750   34.7090 F   0  0  0  0  0  0  0  0  0  0  0  0
   36.1100   28.6180   33.5750 C   0  0  0  0  0  0  0  0  0  0  0  0
   35.7010   29.9340   33.4690 C   0  0  0  0  0  0  0  0  0  0  0  0
   35.9570   30.6400   32.3090 C   0  0  0  0  0  0  0  0  0  0  0  0
   36.6260   30.0370   31.2450 C   0  0  0  0  0  0  0  0  0  0  0  0
   37.0130   28.7200   31.4040 C   0  0  0  0  0  0  0  0  0  0  0  0
   36.7750   27.9950   32.5370 C   0  0  0  0  0  0  0  0  0  0  0  0
   35.6220   31.6680   32.2630 H   0  0  0  0  0  0  0  0  0  0  0  0
   36.8060   30.6090   30.3690 H   0  0  0  0  0  0  0  0  0  0  0  0
   37.5310   28.2600   30.5740 H   0  0  0  0  0  0  0  0  0  0  0  0
   37.1950   26.5870   32.6920 C   0  0  0  0  0  0  0  0  0  0  0  0
   36.3980   25.6420   32.0680 C   0  0  0  0  0  0  0  0  0  0  0  0
   35.5290   25.9230   31.5070 H   0  0  0  0  0  0  0  0  0  0  0  0
   36.6990   24.2840   32.1470 C   0  0  0  0  0  3  0  0  0  0  0  0
   37.8180   23.9200   32.8680 C   0  0  0  0  0  3  0  0  0  0  0  0
   38.6110   24.8580   33.4900 C   0  0  0  0  0  0  0  0  0  0  0  0
   39.7400   24.4970   34.2190 C   0  0  0  0  0  3  0  0  0  0  0  0
   40.4820   25.5000   34.8110 C   0  0  0  0  0  3  0  0  0  0  0  0
   40.1810   26.8440   34.7300 C   0  0  0  0  0  3  0  0  0  0  0  0
   39.0470   27.2160   34.0000 C   0  0  0  0  0  3  0  0  0  0  0  0
   38.3180   26.2020   33.4150 C   0  0  0  0  0  0  0  0  0  0  0  0
   35.8410   31.2280   35.4780 C   0  0  0  0  0  0  0  0  0  0  0  0
   35.0160   30.4880   34.6090 C   0  0  0  0  0  0  0  0  0  0  0  0
   33.6710   30.3700   34.9280 C   0  0  0  0  0  0  0  0  0  0  0  0
   33.2120   30.9750   36.0660 N   0  0  0  0  0  0  0  0  0  0  0  0
   34.0220   31.6770   36.8800 C   0  0  0  0  0  0  0  0  0  0  0  0
   35.3310   31.8030   36.5880 N   0  0  0  0  0  0  0  0  0  0  0  0
   36.9000   31.3970   35.3480 H   0  0  0  0  0  0  0  0  0  0  0  0
   33.0870   29.8010   34.2400 H   0  0  0  0  0  0  0  0  0  0  0  0
   33.5250   32.0910   37.7290 H   0  0  0  0  0  0  0  0  0  0  0  0
  2  1  1  0  0  0  0
  3  2  1  0  0  0  0
  3 23  1  0  0  0  0
  4  3  2  0  0  0  0
  5  6  2  0  0  0  0
  5  4  1  0  0  0  0
  6  7  1  0  0  0  0
  7 11  1  0  0  0  0
  7  2  2  0  0  0  0
  8  4  1  0  0  0  0
  9  5  1  0  0  0  0
 10  6  1  0  0  0  0
 11 21  1  0  0  0  0
 12 14  1  0  0  0  0
 12 11  2  0  0  0  0
 13 12  1  0  0  0  0
 14 15  2  0  0  0  0
 15 16  1  0  0  0  0
 16 17  1  0  0  0  0
 17 18  2  0  0  0  0
 19 18  1  0  0  0  0
 20 19  2  0  0  0  0
 21 16  2  0  0  0  0
 21 20  1  0  0  0  0
 22 27  1  0  0  0  0
 23 24  1  0  0  0  0
 23 22  2  0  0  0  0
 24 25  2  0  0  0  0
 25 26  1  0  0  0  0
 26 30  1  0  0  0  0
 27 26  2  0  0  0  0
 28 22  1  0  0  0  0
 29 24  1  0  0  0  0
M  END
>  <minimizedAffinity>
-5.94469976

$$$$

 OpenBabel03262521383D

 30 33  0  0  0  0  0  0  0  0999 V2000
   37.2810   28.0330   35.7090 F   0  0  0  0  0  0  0  0  0  0  0  0
   36.8770   27.9100   34.4000 C   0  0  0  0  0  0  0  0  0  0  0  0
   35.9550   28.7730   33.8360 C   0  0  0  0  0  0  0  0  0  0  0  0
   35.5810   28.6090   32.5170 C   0  0  0  0  0  0  0  0  0  0  0  0
   36.1240   27.5820   31.7470 C   0  0  0  0  0  0  0  0  0  0  0  0
   37.0410   26.7480   32.3600 C   0  0  0  0  0  0  0  0  0  0  0  0
   37.4310   26.8830   33.6620 C   0  0  0  0  0  0  0  0  0  0  0  0
   34.8580   29.3040   32.1110 H   0  0  0  0  0  0  0  0  0  0  0  0
   35.8140   27.4850   30.7370 H   0  0  0  0  0  0  0  0  0  0  0  0
   37.4570   25.9540   31.7560 H   0  0  0  0  0  0  0  0  0  0  0  0
   38.4130   25.9830   34.3030 C   0  0  0  0  0  0  0  0  0  0  0  0
   37.8870   24.9150   35.0120 C   0  0  0  0  0  0  0  0  0  0  0  0
   36.8290   24.7580   35.0850 H   0  0  0  0  0  0  0  0  0  0  0  0
   38.7190   24.0020   35.6560 C   0  0  0  0  0  3  0  0  0  0  0  0
   40.0810   24.2030   35.5620 C   0  0  0  0  0  3  0  0  0  0  0  0
   40.6050   25.2650   34.8580 C   0  0  0  0  0  0  0  0  0  0  0  0
   41.9780   25.4730   34.7590 C   0  0  0  0  0  3  0  0  0  0  0  0
   42.4220   26.5620   34.0340 C   0  0  0  0  0  3  0  0  0  0  0  0
   41.5950   27.4630   33.3970 C   0  0  0  0  0  3  0  0  0  0  0  0
   40.2140   27.2620   33.4910 C   0  0  0  0  0  3  0  0  0  0  0  0
   39.7870   26.1710   34.2190 C   0  0  0  0  0  0  0  0  0  0  0  0
   34.0380   29.7990   34.8390 C   0  0  0  0  0  0  0  0  0  0  0  0
   35.4390   29.8100   34.6940 C   0  0  0  0  0  0  0  0  0  0  0  0
   36.1570   30.7850   35.3690 C   0  0  0  0  0  0  0  0  0  0  0  0
   35.4750   31.6870   36.1380 N   0  0  0  0  0  0  0  0  0  0  0  0
   34.1350   31.6550   36.2610 C   0  0  0  0  0  0  0  0  0  0  0  0
   33.4190   30.7150   35.6130 N   0  0  0  0  0  0  0  0  0  0  0  0
   33.3630   29.0970   34.3700 H   0  0  0  0  0  0  0  0  0  0  0  0
   37.2150   30.7530   35.2290 H   0  0  0  0  0  0  0  0  0  0  0  0
   33.7420   32.4190   36.8930 H   0  0  0  0  0  0  0  0  0  0  0  0
  2  1  1  0  0  0  0
  3  2  1  0  0  0  0
  3 23  1  0  0  0  0
  4  3  2  0  0  0  0
  5  6  2  0  0  0  0
  5  4  1  0  0  0  0
  6  7  1  0  0  0  0
  7 11  1  0  0  0  0
  7  2  2  0  0  0  0
  8  4  1  0  0  0  0
  9  5  1  0  0  0  0
 10  6  1  0  0  0  0
 11 12  1  0  0  0  0
 12 13  1  0  0  0  0
 12 14  2  0  0  0  0
 15 14  1  0  0  0  0
 16 15  2  0  0  0  0
 17 16  1  0  0  0  0
 18 17  2  0  0  0  0
 19 20  2  0  0  0  0
 19 18  1  0  0  0  0
 20 21  1  0  0  0  0
 21 11  2  0  0  0  0
 21 16  1  0  0  0  0
 22 27  1  0  0  0  0
 23 22  2  0  0  0  0
 23 24  1  0  0  0  0
 24 25  2  0  0  0  0
 25 26  1  0  0  0  0
 26 30  1  0  0  0  0
 27 26  2  0  0  0  0
 28 22  1  0  0  0  0
 29 24  1  0  0  0  0
M  END
>  <minimizedAffinity>
-5.88143253

$$$$

 OpenBabel03262521383D

 30 33  0  0  0  0  0  0  0  0999 V2000
   33.4750   28.7790   34.0950 F   0  0  0  0  0  0  0  0  0  0  0  0
   34.0670   29.8640   34.6980 C   0  0  0  0  0  0  0  0  0  0  0  0
   33.4700   30.5280   35.7530 C   0  0  0  0  0  0  0  0  0  0  0  0
   34.1030   31.6140   36.3260 C   0  0  0  0  0  0  0  0  0  0  0  0
   35.3390   32.0470   35.8500 C   0  0  0  0  0  0  0  0  0  0  0  0
   35.8910   31.3480   34.7930 C   0  0  0  0  0  0  0  0  0  0  0  0
   35.2910   30.2720   34.2050 C   0  0  0  0  0  0  0  0  0  0  0  0
   33.6050   32.1080   37.1500 H   0  0  0  0  0  0  0  0  0  0  0  0
   35.7970   32.8850   36.3140 H   0  0  0  0  0  0  0  0  0  0  0  0
   36.8510   31.6900   34.4300 H   0  0  0  0  0  0  0  0  0  0  0  0
   35.8940   29.5330   33.0750 C   0  0  0  0  0  0  0  0  0  0  0  0
   35.7660   30.1210   31.8270 C   0  0  0  0  0  0  0  0  0  0  0  0
   35.2590   31.0560   31.6980 H   0  0  0  0  0  0  0  0  0  0  0  0
   36.2970   29.5160   30.6910 C   0  0  0  0  0  3  0  0  0  0  0  0
   36.9520   28.3120   30.8570 C   0  0  0  0  0  3  0  0  0  0  0  0
   37.0790   27.7260   32.0970 C   0  0  0  0  0  0  0  0  0  0  0  0
   37.7380   26.5130   32.2700 C   0  0  0  0  0  3  0  0  0  0  0  0
   37.8230   25.9930   33.5480 C   0  0  0  0  0  3  0  0  0  0  0  0
   37.2970   26.5970   34.6700 C   0  0  0  0  0  3  0  0  0  0  0  0
   36.6320   27.8170   34.5050 C   0  0  0  0  0  3  0  0  0  0  0  0
   36.5570   28.3210   33.2240 C   0  0  0  0  0  0  0  0  0  0  0  0
   32.1620   28.6310   36.4040 C   0  0  0  0  0  0  0  0  0  0  0  0
   32.1930   30.0220   36.1900 C   0  0  0  0  0  0  0  0  0  0  0  0
   31.0290   30.7440   36.4130 C   0  0  0  0  0  0  0  0  0  0  0  0
   29.9120   30.0730   36.8290 N   0  0  0  0  0  0  0  0  0  0  0  0
   29.9090   28.7410   37.0270 C   0  0  0  0  0  0  0  0  0  0  0  0
   31.0290   28.0230   36.8150 N   0  0  0  0  0  0  0  0  0  0  0  0
   32.9940   27.9550   36.2680 H   0  0  0  0  0  0  0  0  0  0  0  0
   31.1020   31.7940   36.2390 H   0  0  0  0  0  0  0  0  0  0  0  0
   28.9670   28.3560   37.3500 H   0  0  0  0  0  0  0  0  0  0  0  0
  1  2  1  0  0  0  0
  2  3  1  0  0  0  0
  3 23  1  0  0  0  0
  3  4  2  0  0  0  0
  4  8  1  0  0  0  0
  5  9  1  0  0  0  0
  5  4  1  0  0  0  0
  6  5  2  0  0  0  0
  7  2  2  0  0  0  0
  7  6  1  0  0  0  0
 10  6  1  0  0  0  0
 11 21  1  0  0  0  0
 11  7  1  0  0  0  0
 12 11  2  0  0  0  0
 13 12  1  0  0  0  0
 14 15  2  0  0  0  0
 14 12  1  0  0  0  0
 15 16  1  0  0  0  0
 16 17  2  0  0  0  0
 16 21  1  0  0  0  0
 17 18  1  0  0  0  0
 18 19  2  0  0  0  0
 20 19  1  0  0  0  0
 21 20  2  0  0  0  0
 22 27  1  0  0  0  0
 23 22  2  0  0  0  0
 23 24  1  0  0  0  0
 24 25  2  0  0  0  0
 25 26  1  0  0  0  0
 26 30  1  0  0  0  0
 27 26  2  0  0  0  0
 28 22  1  0  0  0  0
 29 24  1  0  0  0  0
M  END
>  <minimizedAffinity>
-5.76693058

$$$$

 OpenBabel03262521383D

 30 33  0  0  0  0  0  0  0  0999 V2000
   38.6710   25.8990   33.7570 F   0  0  0  0  0  0  0  0  0  0  0  0
   37.8440   24.9940   33.1340 C   0  0  0  0  0  0  0  0  0  0  0  0
   36.8220   25.3970   32.2940 C   0  0  0  0  0  0  0  0  0  0  0  0
   36.0170   24.4500   31.6910 C   0  0  0  0  0  0  0  0  0  0  0  0
   36.2260   23.0910   31.9200 C   0  0  0  0  0  0  0  0  0  0  0  0
   37.2610   22.7430   32.7670 C   0  0  0  0  0  0  0  0  0  0  0  0
   38.0740   23.6540   33.3790 C   0  0  0  0  0  0  0  0  0  0  0  0
   35.2280   24.8040   31.0400 H   0  0  0  0  0  0  0  0  0  0  0  0
   35.5880   22.3910   31.4400 H   0  0  0  0  0  0  0  0  0  0  0  0
   37.4160   21.6870   32.9400 H   0  0  0  0  0  0  0  0  0  0  0  0
   39.1770   23.2670   34.2830 C   0  0  0  0  0  0  0  0  0  0  0  0
   40.3630   22.8960   33.6700 C   0  0  0  0  0  0  0  0  0  0  0  0
   40.4660   22.8930   32.6030 H   0  0  0  0  0  0  0  0  0  0  0  0
   41.4710   22.5120   34.4230 C   0  0  0  0  0  3  0  0  0  0  0  0
   41.3400   22.5160   35.7970 C   0  0  0  0  0  3  0  0  0  0  0  0
   40.1610   22.8840   36.4080 C   0  0  0  0  0  0  0  0  0  0  0  0
   40.0230   22.8900   37.7920 C   0  0  0  0  0  3  0  0  0  0  0  0
   38.8080   23.2740   38.3250 C   0  0  0  0  0  3  0  0  0  0  0  0
   37.7140   23.6530   37.5760 C   0  0  0  0  0  3  0  0  0  0  0  0
   37.8440   23.6500   36.1830 C   0  0  0  0  0  3  0  0  0  0  0  0
   39.0630   23.2650   35.6680 C   0  0  0  0  0  0  0  0  0  0  0  0
   36.8400   27.2490   30.7760 C   0  0  0  0  0  0  0  0  0  0  0  0
   36.6680   26.8180   32.1060 C   0  0  0  0  0  0  0  0  0  0  0  0
   36.3780   27.7720   33.0690 C   0  0  0  0  0  0  0  0  0  0  0  0
   36.2730   29.0800   32.6850 N   0  0  0  0  0  0  0  0  0  0  0  0
   36.4420   29.4670   31.4070 C   0  0  0  0  0  0  0  0  0  0  0  0
   36.7250   28.5550   30.4560 N   0  0  0  0  0  0  0  0  0  0  0  0
   37.0680   26.6120   29.9330 H   0  0  0  0  0  0  0  0  0  0  0  0
   36.2560   27.3970   34.0610 H   0  0  0  0  0  0  0  0  0  0  0  0
   36.3310   30.5180   31.2560 H   0  0  0  0  0  0  0  0  0  0  0  0
  2  7  1  0  0  0  0
  2  1  1  0  0  0  0
  3  2  2  0  0  0  0
  4  5  2  0  0  0  0
  4  3  1  0  0  0  0
  5  6  1  0  0  0  0
  6 10  1  0  0  0  0
  6  7  2  0  0  0  0
  7 11  1  0  0  0  0
  8  4  1  0  0  0  0
  9  5  1  0  0  0  0
 11 21  1  0  0  0  0
 12 11  2  0  0  0  0
 12 14  1  0  0  0  0
 13 12  1  0  0  0  0
 14 15  2  0  0  0  0
 15 16  1  0  0  0  0
 16 17  1  0  0  0  0
 17 18  2  0  0  0  0
 19 18  1  0  0  0  0
 20 19  2  0  0  0  0
 21 20  1  0  0  0  0
 21 16  2  0  0  0  0
 22 23  1  0  0  0  0
 23  3  1  0  0  0  0
 23 24  2  0  0  0  0
 24 29  1  0  0  0  0
 25 24  1  0  0  0  0
 26 25  2  0  0  0  0
 27 22  2  0  0  0  0
 27 26  1  0  0  0  0
 28 22  1  0  0  0  0
 30 26  1  0  0  0  0
M  END
>  <minimizedAffinity>
-5.73398924

$$$$

 OpenBabel03262521383D

 30 33  0  0  0  0  0  0  0  0999 V2000
   38.4060   25.2190   34.1260 F   0  0  0  0  0  0  0  0  0  0  0  0
   37.8450   24.1040   33.5470 C   0  0  0  0  0  0  0  0  0  0  0  0
   37.2940   24.1390   32.2790 C   0  0  0  0  0  0  0  0  0  0  0  0
   36.7430   22.9940   31.7400 C   0  0  0  0  0  0  0  0  0  0  0  0
   36.7360   21.8010   32.4610 C   0  0  0  0  0  0  0  0  0  0  0  0
   37.2990   21.8220   33.7230 C   0  0  0  0  0  0  0  0  0  0  0  0
   37.8520   22.9370   34.2850 C   0  0  0  0  0  0  0  0  0  0  0  0
   36.3210   23.0600   30.7450 H   0  0  0  0  0  0  0  0  0  0  0  0
   36.3030   20.9400   32.0160 H   0  0  0  0  0  0  0  0  0  0  0  0
   37.2900   20.8930   34.2770 H   0  0  0  0  0  0  0  0  0  0  0  0
   38.4510   22.9430   35.6360 C   0  0  0  0  0  0  0  0  0  0  0  0
   37.6390   23.4060   36.6590 C   0  0  0  0  0  0  0  0  0  0  0  0
   36.6370   23.7380   36.4730 H   0  0  0  0  0  0  0  0  0  0  0  0
   38.0980   23.4560   37.9740 C   0  0  0  0  0  3  0  0  0  0  0  0
   39.3880   23.0280   38.2140 C   0  0  0  0  0  3  0  0  0  0  0  0
   40.1970   22.5680   37.1990 C   0  0  0  0  0  0  0  0  0  0  0  0
   41.4980   22.1360   37.4360 C   0  0  0  0  0  3  0  0  0  0  0  0
   42.2420   21.6890   36.3610 C   0  0  0  0  0  3  0  0  0  0  0  0
   41.7830   21.6410   35.0620 C   0  0  0  0  0  3  0  0  0  0  0  0
   40.4760   22.0740   34.8140 C   0  0  0  0  0  3  0  0  0  0  0  0
   39.7470   22.5170   35.8970 C   0  0  0  0  0  0  0  0  0  0  0  0
   36.1520   26.1580   31.6870 C   0  0  0  0  0  0  0  0  0  0  0  0
   37.3390   25.4070   31.5940 C   0  0  0  0  0  0  0  0  0  0  0  0
   38.3970   25.9440   30.8770 C   0  0  0  0  0  0  0  0  0  0  0  0
   38.2390   27.1720   30.2960 N   0  0  0  0  0  0  0  0  0  0  0  0
   37.0930   27.8700   30.4000 C   0  0  0  0  0  0  0  0  0  0  0  0
   36.0530   27.3660   31.0920 N   0  0  0  0  0  0  0  0  0  0  0  0
   35.2560   25.8580   32.2120 H   0  0  0  0  0  0  0  0  0  0  0  0
   39.2750   25.3380   30.8360 H   0  0  0  0  0  0  0  0  0  0  0  0
   37.1150   28.8110   29.8950 H   0  0  0  0  0  0  0  0  0  0  0  0
  2  1  1  0  0  0  0
  2  7  1  0  0  0  0
  3  2  2  0  0  0  0
  4  3  1  0  0  0  0
  4  5  2  0  0  0  0
  5  6  1  0  0  0  0
  6 10  1  0  0  0  0
  6  7  2  0  0  0  0
  7 11  1  0  0  0  0
  8  4  1  0  0  0  0
  9  5  1  0  0  0  0
 11 21  2  0  0  0  0
 11 12  1  0  0  0  0
 12 14  2  0  0  0  0
 13 12  1  0  0  0  0
 14 15  1  0  0  0  0
 16 17  1  0  0  0  0
 16 15  2  0  0  0  0
 18 17  2  0  0  0  0
 19 18  1  0  0  0  0
 20 19  2  0  0  0  0
 20 21  1  0  0  0  0
 21 16  1  0  0  0  0
 22 28  1  0  0  0  0
 23 22  1  0  0  0  0
 23  3  1  0  0  0  0
 24 23  2  0  0  0  0
 25 26  2  0  0  0  0
 25 24  1  0  0  0  0
 26 27  1  0  0  0  0
 27 22  2  0  0  0  0
 29 24  1  0  0  0  0
 30 26  1  0  0  0  0
M  END
>  <minimizedAffinity>
-5.71726131

$$$$
