
 OpenBabel03272509393D

 32 35  0  0  0  0  0  0  0  0999 V2000
   37.8140   25.8230   33.2980 C   0  0  0  0  0  0  0  0  0  0  0  0
   36.8520   26.8140   33.0750 C   0  0  0  0  0  0  0  0  0  0  0  0
   36.6710   27.9220   33.9060 C   0  0  0  0  0  0  0  0  0  0  0  0
   37.5250   28.0240   35.0330 C   0  0  0  0  0  0  0  0  0  0  0  0
   38.4860   27.0320   35.2540 C   0  0  0  0  0  0  0  0  0  0  0  0
   38.6050   25.9760   34.3990 C   0  0  0  0  0  0  0  0  0  0  0  0
   36.1780   26.7640   32.2130 H   0  0  0  0  0  0  0  0  0  0  0  0
   35.9250   28.6530   33.7000 H   0  0  0  0  0  0  0  0  0  0  0  0
   37.3420   28.8970   35.6390 H   0  0  0  0  0  0  0  0  0  0  0  0
   39.0620   27.2340   36.1400 H   0  0  0  0  0  0  0  0  0  0  0  0
   39.6490   25.0630   34.8260 C   0  0  0  0  0  0  0  0  0  0  0  0
   40.8940   24.7470   34.3280 C   0  0  0  0  0  0  0  0  0  0  0  0
   41.0730   25.3200   33.4020 H   0  0  0  0  0  0  0  0  0  0  0  0
   41.7450   23.8510   34.9260 C   0  0  0  0  0  3  0  0  0  0  0  0
   41.3810   23.2060   36.0890 C   0  0  0  0  0  3  0  0  0  0  0  0
   40.1440   23.4970   36.6170 C   0  0  0  0  0  0  0  0  0  0  0  0
   39.8430   22.8190   37.7770 C   0  0  0  0  0  3  0  0  0  0  0  0
   38.6270   23.0400   38.3840 C   0  0  0  0  0  3  0  0  0  0  0  0
   37.7340   23.9300   37.8280 C   0  0  0  0  0  3  0  0  0  0  0  0
   38.0940   24.5690   36.6740 C   0  0  0  0  0  3  0  0  0  0  0  0
   39.2820   24.4110   36.0010 C   0  0  0  0  0  0  0  0  0  0  0  0
   37.9100   24.7190   32.3630 C   0  0  0  0  0  0  0  0  0  0  0  0
   38.7050   24.9460   31.3790 O   0  0  0  0  0  0  0  0  0  0  0  0
   35.5390   22.1260   31.4770 C   0  0  0  0  0  0  0  0  0  0  0  0
   35.7390   21.1360   32.4580 C   0  0  0  0  0  0  0  0  0  0  0  0
   36.7050   21.3710   33.4420 C   0  0  0  0  0  0  0  0  0  0  0  0
   37.4230   22.5450   33.4230 N   0  0  0  0  0  0  0  0  0  0  0  0
   37.1990   23.4540   32.4740 C   0  0  0  0  0  0  0  0  0  0  0  0
   36.2680   23.2480   31.5130 N   0  0  0  0  0  0  0  0  0  0  0  0
   34.7830   21.8590   30.7720 H   0  0  0  0  0  0  0  0  0  0  0  0
   35.2010   20.2130   32.5050 H   0  0  0  0  0  0  0  0  0  0  0  0
   36.9260   20.6680   34.2340 H   0  0  0  0  0  0  0  0  0  0  0  0
  1  6  1  0  0  0  0
  2  1  2  0  0  0  0
  2  3  1  0  0  0  0
  3  4  2  0  0  0  0
  4  5  1  0  0  0  0
  4  9  1  0  0  0  0
  5 10  1  0  0  0  0
  6 11  1  0  0  0  0
  6  5  2  0  0  0  0
  7  2  1  0  0  0  0
  8  3  1  0  0  0  0
 11 21  1  0  0  0  0
 12 11  2  0  0  0  0
 12 14  1  0  0  0  0
 13 12  1  0  0  0  0
 14 15  2  0  0  0  0
 15 16  1  0  0  0  0
 16 17  1  0  0  0  0
 17 18  2  0  0  0  0
 19 18  1  0  0  0  0
 20 19  2  0  0  0  0
 21 16  2  0  0  0  0
 21 20  1  0  0  0  0
 22 28  1  0  0  0  0
 22  1  1  0  0  0  0
 23 22  2  0  0  0  0
 24 29  2  0  0  0  0
 24 25  1  0  0  0  0
 25 31  1  0  0  0  0
 25 26  2  0  0  0  0
 26 32  1  0  0  0  0
 27 26  1  0  0  0  0
 28 27  2  0  0  0  0
 29 28  1  0  0  0  0
 30 24  1  0  0  0  0
M  END
>  <minimizedAffinity>
-6.17582178

$$$$

 OpenBabel03272509393D

 32 35  0  0  1  0  0  0  0  0999 V2000
   33.6370   31.1600   35.0270 C   0  0  0  0  0  0  0  0  0  0  0  0
   33.4900   31.7760   36.2740 C   0  0  0  0  0  0  0  0  0  0  0  0
   34.5230   32.4430   36.9370 C   0  0  0  0  0  0  0  0  0  0  0  0
   35.7810   32.4840   36.2860 C   0  0  0  0  0  0  0  0  0  0  0  0
   35.9260   31.8670   35.0400 C   0  0  0  0  0  0  0  0  0  0  0  0
   34.8720   31.2310   34.4510 C   0  0  0  0  0  0  0  0  0  0  0  0
   32.5310   31.7630   36.8030 H   0  0  0  0  0  0  0  0  0  0  0  0
   34.3680   32.8980   37.8870 H   0  0  0  0  0  0  0  0  0  0  0  0
   36.5410   33.0110   36.8420 H   0  0  0  0  0  0  0  0  0  0  0  0
   36.9270   31.9740   34.6630 H   0  0  0  0  0  0  0  0  0  0  0  0
   35.2480   30.6500   33.1760 C   0  0  0  0  0  0  0  0  0  0  0  0
   35.1300   31.0730   31.8700 C   0  0  0  0  0  0  0  0  0  0  0  0
   34.6180   32.0500   31.8480 H   0  0  0  0  0  0  0  0  0  0  0  0
   35.5920   30.3540   30.7960 C   0  0  0  0  0  3  0  0  0  0  0  0
   36.2150   29.1380   30.9800 C   0  0  0  0  0  3  0  0  0  0  0  0
   36.3520   28.6830   32.2720 C   0  0  0  0  0  0  0  0  0  0  0  0
   36.9820   27.4650   32.3860 C   0  0  0  0  0  3  0  0  0  0  0  0
   37.1670   26.9220   33.6380 C   0  0  0  0  0  3  0  0  0  0  0  0
   36.7230   27.6010   34.7520 C   0  0  0  0  0  3  0  0  0  0  0  0
   36.1050   28.8070   34.5700 C   0  0  0  0  0  3  0  0  0  0  0  0
   35.8780   29.4220   33.3620 C   0  0  0  0  0  0  0  0  0  0  0  0
   32.4910   30.4980   34.4350 C   0  0  2  0  0  3  0  0  0  0  0  0
   32.0600   31.0710   33.3680 O   0  0  0  0  0  1  0  0  0  0  0  0
   31.5860   27.9750   36.8730 C   0  0  0  0  0  0  0  0  0  0  0  0
   30.7340   27.1080   36.1610 C   0  0  0  0  0  0  0  0  0  0  0  0
   30.4730   27.4000   34.8190 C   0  0  0  0  0  0  0  0  0  0  0  0
   31.0450   28.5090   34.2390 N   0  0  0  0  0  0  0  0  0  0  0  0
   31.8460   29.3010   34.9530 C   0  0  0  0  0  0  0  0  0  0  0  0
   32.1130   29.0370   36.2530 N   0  0  0  0  0  0  0  0  0  0  0  0
   31.7260   27.6710   37.8870 H   0  0  0  0  0  0  0  0  0  0  0  0
   30.2710   26.2380   36.5780 H   0  0  0  0  0  0  0  0  0  0  0  0
   29.8310   26.7900   34.1950 H   0  0  0  0  0  0  0  0  0  0  0  0
  1  2  1  0  0  0  0
  2  7  1  0  0  0  0
  2  3  2  0  0  0  0
  3  8  1  0  0  0  0
  4  9  1  0  0  0  0
  4  3  1  0  0  0  0
  5  4  2  0  0  0  0
  6  1  2  0  0  0  0
  6  5  1  0  0  0  0
 10  5  1  0  0  0  0
 11 21  1  0  0  0  0
 11  6  1  0  0  0  0
 12 11  2  0  0  0  0
 13 12  1  0  0  0  0
 14 15  2  0  0  0  0
 14 12  1  0  0  0  0
 15 16  1  0  0  0  0
 16 17  2  0  0  0  0
 16 21  1  0  0  0  0
 17 18  1  0  0  0  0
 18 19  2  0  0  0  0
 20 19  1  0  0  0  0
 21 20  2  0  0  0  0
 22 23  1  1  0  0  0
 22 28  1  0  0  0  0
 22  1  1  0  0  0  0
 24 30  1  0  0  0  0
 25 31  1  0  0  0  0
 25 24  2  0  0  0  0
 26 25  1  0  0  0  0
 27 26  2  0  0  0  0
 27 28  1  0  0  0  0
 28 29  2  0  0  0  0
 29 24  1  0  0  0  0
 32 26  1  0  0  0  0
M  END
>  <minimizedAffinity>
-6.04301119

$$$$

 OpenBabel03272509393D

 32 35  0  0  1  0  0  0  0  0999 V2000
   37.5060   23.3650   32.6490 C   0  0  0  0  0  0  0  0  0  0  0  0
   36.2820   23.2710   31.9780 C   0  0  0  0  0  0  0  0  0  0  0  0
   35.4740   22.1320   31.9930 C   0  0  0  0  0  0  0  0  0  0  0  0
   35.9440   21.0230   32.7410 C   0  0  0  0  0  0  0  0  0  0  0  0
   37.1670   21.1200   33.4110 C   0  0  0  0  0  0  0  0  0  0  0  0
   37.9050   22.2650   33.3510 C   0  0  0  0  0  0  0  0  0  0  0  0
   35.8920   24.1100   31.3920 H   0  0  0  0  0  0  0  0  0  0  0  0
   34.5490   22.1020   31.4660 H   0  0  0  0  0  0  0  0  0  0  0  0
   35.2810   20.1720   32.7190 H   0  0  0  0  0  0  0  0  0  0  0  0
   37.4000   20.2110   33.9360 H   0  0  0  0  0  0  0  0  0  0  0  0
   39.1400   22.1410   34.1010 C   0  0  0  0  0  0  0  0  0  0  0  0
   40.4210   21.7590   33.7630 C   0  0  0  0  0  0  0  0  0  0  0  0
   40.4490   21.4800   32.6970 H   0  0  0  0  0  0  0  0  0  0  0  0
   41.4660   21.7420   34.6540 C   0  0  0  0  0  3  0  0  0  0  0  0
   41.2770   22.1190   35.9660 C   0  0  0  0  0  3  0  0  0  0  0  0
   40.0110   22.5080   36.3400 C   0  0  0  0  0  0  0  0  0  0  0  0
   39.8920   22.8710   37.6630 C   0  0  0  0  0  3  0  0  0  0  0  0
   38.6640   23.2760   38.1360 C   0  0  0  0  0  3  0  0  0  0  0  0
   37.5790   23.3130   37.2870 C   0  0  0  0  0  3  0  0  0  0  0  0
   37.7650   22.9380   35.9850 C   0  0  0  0  0  3  0  0  0  0  0  0
   38.9500   22.5220   35.4280 C   0  0  0  0  0  0  0  0  0  0  0  0
   38.2570   24.6020   32.5610 C   0  0  2  0  0  3  0  0  0  0  0  0
   38.8120   24.7870   31.4160 O   0  0  0  0  0  1  0  0  0  0  0  0
   37.2250   27.0690   35.0060 C   0  0  0  0  0  0  0  0  0  0  0  0
   38.4260   27.4400   35.6400 C   0  0  0  0  0  0  0  0  0  0  0  0
   39.6100   26.8300   35.2120 C   0  0  0  0  0  0  0  0  0  0  0  0
   39.5680   25.8990   34.2010 N   0  0  0  0  0  0  0  0  0  0  0  0
   38.4070   25.5790   33.6300 C   0  0  0  0  0  0  0  0  0  0  0  0
   37.2490   26.1570   34.0270 N   0  0  0  0  0  0  0  0  0  0  0  0
   36.3760   27.5860   35.3980 H   0  0  0  0  0  0  0  0  0  0  0  0
   38.4970   28.1590   36.4290 H   0  0  0  0  0  0  0  0  0  0  0  0
   40.5780   27.0540   35.6410 H   0  0  0  0  0  0  0  0  0  0  0  0
  1  6  1  0  0  0  0
  2  3  1  0  0  0  0
  2  1  2  0  0  0  0
  3  4  2  0  0  0  0
  4  5  1  0  0  0  0
  5 10  1  0  0  0  0
  6  5  2  0  0  0  0
  6 11  1  0  0  0  0
  7  2  1  0  0  0  0
  8  3  1  0  0  0  0
  9  4  1  0  0  0  0
 11 21  1  0  0  0  0
 12 11  2  0  0  0  0
 12 14  1  0  0  0  0
 13 12  1  0  0  0  0
 14 15  2  0  0  0  0
 15 16  1  0  0  0  0
 16 17  1  0  0  0  0
 17 18  2  0  0  0  0
 19 18  1  0  0  0  0
 20 19  2  0  0  0  0
 21 20  1  0  0  0  0
 21 16  2  0  0  0  0
 22 23  1  1  0  0  0
 22  1  1  0  0  0  0
 22 28  1  0  0  0  0
 24 30  1  0  0  0  0
 24 25  1  0  0  0  0
 25 31  1  0  0  0  0
 26 25  2  0  0  0  0
 26 32  1  0  0  0  0
 27 26  1  0  0  0  0
 28 29  1  0  0  0  0
 28 27  2  0  0  0  0
 29 24  2  0  0  0  0
M  END
>  <minimizedAffinity>
-6.02223253

$$$$

 OpenBabel03272509393D

 32 35  0  0  1  0  0  0  0  0999 V2000
   38.2720   23.3910   35.5250 C   0  0  0  0  0  0  0  0  0  0  0  0
   38.2550   22.7310   36.7590 C   0  0  0  0  0  0  0  0  0  0  0  0
   38.1350   23.3850   37.9880 C   0  0  0  0  0  0  0  0  0  0  0  0
   38.0240   24.7980   37.9530 C   0  0  0  0  0  0  0  0  0  0  0  0
   38.0410   25.4550   36.7200 C   0  0  0  0  0  0  0  0  0  0  0  0
   38.1630   24.7510   35.5580 C   0  0  0  0  0  0  0  0  0  0  0  0
   38.3390   21.6410   36.8200 H   0  0  0  0  0  0  0  0  0  0  0  0
   38.1280   22.8440   38.9050 H   0  0  0  0  0  0  0  0  0  0  0  0
   37.9330   25.2500   38.9290 H   0  0  0  0  0  0  0  0  0  0  0  0
   37.9490   26.5200   36.8400 H   0  0  0  0  0  0  0  0  0  0  0  0
   38.1750   25.6290   34.4030 C   0  0  0  0  0  0  0  0  0  0  0  0
   37.1900   26.1090   33.5670 C   0  0  0  0  0  0  0  0  0  0  0  0
   36.2160   25.6900   33.8720 H   0  0  0  0  0  0  0  0  0  0  0  0
   37.4340   26.9730   32.5280 C   0  0  0  0  0  3  0  0  0  0  0  0
   38.7130   27.4130   32.2650 C   0  0  0  0  0  3  0  0  0  0  0  0
   39.7230   26.9550   33.0800 C   0  0  0  0  0  0  0  0  0  0  0  0
   40.9750   27.4330   32.7630 C   0  0  0  0  0  3  0  0  0  0  0  0
   42.0540   27.0320   33.5200 C   0  0  0  0  0  3  0  0  0  0  0  0
   41.8680   26.1660   34.5750 C   0  0  0  0  0  3  0  0  0  0  0  0
   40.5990   25.7290   34.8360 C   0  0  0  0  0  3  0  0  0  0  0  0
   39.4680   26.0740   34.1380 C   0  0  0  0  0  0  0  0  0  0  0  0
   38.4000   22.6040   34.3150 C   0  0  2  0  0  3  0  0  0  0  0  0
   39.6140   22.2820   34.0370 O   0  0  0  0  0  1  0  0  0  0  0  0
   35.4840   20.7110   33.2940 C   0  0  0  0  0  0  0  0  0  0  0  0
   35.1600   21.2440   32.0330 C   0  0  0  0  0  0  0  0  0  0  0  0
   35.9640   22.2710   31.5270 C   0  0  0  0  0  0  0  0  0  0  0  0
   37.0320   22.7250   32.2650 N   0  0  0  0  0  0  0  0  0  0  0  0
   37.3010   22.1890   33.4560 C   0  0  0  0  0  0  0  0  0  0  0  0
   36.5370   21.1940   33.9650 N   0  0  0  0  0  0  0  0  0  0  0  0
   34.8160   19.9340   33.5960 H   0  0  0  0  0  0  0  0  0  0  0  0
   34.3380   20.9170   31.4300 H   0  0  0  0  0  0  0  0  0  0  0  0
   35.7900   22.7390   30.5670 H   0  0  0  0  0  0  0  0  0  0  0  0
  1  6  2  0  0  0  0
  1  2  1  0  0  0  0
  2  7  1  0  0  0  0
  2  3  2  0  0  0  0
  3  8  1  0  0  0  0
  4  3  1  0  0  0  0
  4  9  1  0  0  0  0
  5 10  1  0  0  0  0
  5  4  2  0  0  0  0
  6  5  1  0  0  0  0
 11  6  1  0  0  0  0
 12 13  1  0  0  0  0
 12 11  2  0  0  0  0
 14 12  1  0  0  0  0
 15 14  2  0  0  0  0
 15 16  1  0  0  0  0
 16 21  1  0  0  0  0
 17 16  2  0  0  0  0
 17 18  1  0  0  0  0
 18 19  2  0  0  0  0
 19 20  1  0  0  0  0
 21 11  1  0  0  0  0
 21 20  2  0  0  0  0
 22 23  1  6  0  0  0
 22  1  1  0  0  0  0
 24 30  1  0  0  0  0
 24 29  1  0  0  0  0
 25 24  2  0  0  0  0
 26 25  1  0  0  0  0
 26 27  2  0  0  0  0
 27 28  1  0  0  0  0
 28 29  2  0  0  0  0
 28 22  1  0  0  0  0
 31 25  1  0  0  0  0
 32 26  1  0  0  0  0
M  END
>  <minimizedAffinity>
-5.9874115

$$$$

 OpenBabel03272509393D

 32 35  0  0  1  0  0  0  0  0999 V2000
   38.1260   24.9450   33.8950 C   0  0  0  0  0  0  0  0  0  0  0  0
   37.3700   26.0290   33.4340 C   0  0  0  0  0  0  0  0  0  0  0  0
   37.2130   27.2230   34.1420 C   0  0  0  0  0  0  0  0  0  0  0  0
   37.8700   27.3160   35.3950 C   0  0  0  0  0  0  0  0  0  0  0  0
   38.6250   26.2330   35.8530 C   0  0  0  0  0  0  0  0  0  0  0  0
   38.7330   25.0950   35.1080 C   0  0  0  0  0  0  0  0  0  0  0  0
   36.8510   25.9880   32.4710 H   0  0  0  0  0  0  0  0  0  0  0  0
   36.6270   28.0230   33.7550 H   0  0  0  0  0  0  0  0  0  0  0  0
   37.7150   28.2590   35.8970 H   0  0  0  0  0  0  0  0  0  0  0  0
   39.0650   26.4390   36.8120 H   0  0  0  0  0  0  0  0  0  0  0  0
   39.5450   24.0970   35.7780 C   0  0  0  0  0  0  0  0  0  0  0  0
   39.2490   23.0110   36.5720 C   0  0  0  0  0  0  0  0  0  0  0  0
   38.1560   22.9480   36.7120 H   0  0  0  0  0  0  0  0  0  0  0  0
   40.2010   22.1670   37.0880 C   0  0  0  0  0  3  0  0  0  0  0  0
   41.5380   22.3740   36.8270 C   0  0  0  0  0  3  0  0  0  0  0  0
   41.8730   23.4490   36.0360 C   0  0  0  0  0  0  0  0  0  0  0  0
   43.2240   23.5980   35.8150 C   0  0  0  0  0  3  0  0  0  0  0  0
   43.6610   24.6460   35.0360 C   0  0  0  0  0  3  0  0  0  0  0  0
   42.7500   25.5240   34.4920 C   0  0  0  0  0  3  0  0  0  0  0  0
   41.4220   25.3200   34.7510 C   0  0  0  0  0  3  0  0  0  0  0  0
   40.8970   24.3060   35.5140 C   0  0  0  0  0  0  0  0  0  0  0  0
   38.2180   23.7560   33.0710 C   0  0  2  0  0  3  0  0  0  0  0  0
   39.3040   23.6870   32.3860 O   0  0  0  0  0  1  0  0  0  0  0  0
   35.4630   21.8750   31.6550 C   0  0  0  0  0  0  0  0  0  0  0  0
   35.2510   20.8380   32.5820 C   0  0  0  0  0  0  0  0  0  0  0  0
   36.0700   20.7910   33.7150 C   0  0  0  0  0  0  0  0  0  0  0  0
   37.0460   21.7450   33.8880 N   0  0  0  0  0  0  0  0  0  0  0  0
   37.2110   22.7100   32.9830 C   0  0  0  0  0  0  0  0  0  0  0  0
   36.4290   22.7750   31.8790 N   0  0  0  0  0  0  0  0  0  0  0  0
   34.7920   21.8290   30.8250 H   0  0  0  0  0  0  0  0  0  0  0  0
   34.5030   20.0800   32.4810 H   0  0  0  0  0  0  0  0  0  0  0  0
   35.9780   20.0310   34.4800 H   0  0  0  0  0  0  0  0  0  0  0  0
  1  6  1  0  0  0  0
  2  1  2  0  0  0  0
  2  3  1  0  0  0  0
  3  4  2  0  0  0  0
  4  5  1  0  0  0  0
  4  9  1  0  0  0  0
  5 10  1  0  0  0  0
  6 11  1  0  0  0  0
  6  5  2  0  0  0  0
  7  2  1  0  0  0  0
  8  3  1  0  0  0  0
 11 12  1  0  0  0  0
 12 13  1  0  0  0  0
 12 14  2  0  0  0  0
 15 14  1  0  0  0  0
 16 15  2  0  0  0  0
 17 16  1  0  0  0  0
 18 17  2  0  0  0  0
 19 20  2  0  0  0  0
 19 18  1  0  0  0  0
 20 21  1  0  0  0  0
 21 11  2  0  0  0  0
 21 16  1  0  0  0  0
 22 23  1  6  0  0  0
 22  1  1  0  0  0  0
 24 29  2  0  0  0  0
 24 25  1  0  0  0  0
 25 26  2  0  0  0  0
 26 27  1  0  0  0  0
 26 32  1  0  0  0  0
 28 22  1  0  0  0  0
 28 27  2  0  0  0  0
 29 28  1  0  0  0  0
 30 24  1  0  0  0  0
 31 25  1  0  0  0  0
M  END
>  <minimizedAffinity>
-5.9486022

$$$$

 OpenBabel03272509393D

 32 35  0  0  1  0  0  0  0  0999 V2000
   40.0060   26.8810   33.9740 C   0  0  0  0  0  0  0  0  0  0  0  0
   41.3920   26.9780   34.1430 C   0  0  0  0  0  0  0  0  0  0  0  0
   42.2820   27.2700   33.1060 C   0  0  0  0  0  0  0  0  0  0  0  0
   41.7220   27.4780   31.8210 C   0  0  0  0  0  0  0  0  0  0  0  0
   40.3370   27.3810   31.6550 C   0  0  0  0  0  0  0  0  0  0  0  0
   39.5280   27.0900   32.7140 C   0  0  0  0  0  0  0  0  0  0  0  0
   41.8550   26.8240   35.1230 H   0  0  0  0  0  0  0  0  0  0  0  0
   43.3310   27.3330   33.2780 H   0  0  0  0  0  0  0  0  0  0  0  0
   42.4530   27.7000   31.0590 H   0  0  0  0  0  0  0  0  0  0  0  0
   40.0500   27.5600   30.6340 H   0  0  0  0  0  0  0  0  0  0  0  0
   38.1350   27.0220   32.3140 C   0  0  0  0  0  0  0  0  0  0  0  0
   37.1220   27.9540   32.2460 C   0  0  0  0  0  0  0  0  0  0  0  0
   37.4980   28.9280   32.6000 H   0  0  0  0  0  0  0  0  0  0  0  0
   35.8550   27.6650   31.8010 C   0  0  0  0  0  3  0  0  0  0  0  0
   35.5290   26.3900   31.3890 C   0  0  0  0  0  3  0  0  0  0  0  0
   36.5160   25.4330   31.4420 C   0  0  0  0  0  0  0  0  0  0  0  0
   36.1250   24.1830   31.0170 C   0  0  0  0  0  3  0  0  0  0  0  0
   37.0410   23.1550   31.0320 C   0  0  0  0  0  3  0  0  0  0  0  0
   38.3260   23.3880   31.4690 C   0  0  0  0  0  3  0  0  0  0  0  0
   38.6510   24.6520   31.8790 C   0  0  0  0  0  3  0  0  0  0  0  0
   37.8050   25.7340   31.8980 C   0  0  0  0  0  0  0  0  0  0  0  0
   39.1830   26.5740   35.1270 C   0  0  1  0  0  3  0  0  0  0  0  0
   38.7300   27.6160   35.7290 O   0  0  0  0  0  1  0  0  0  0  0  0
   39.4950   22.9800   35.4670 C   0  0  0  0  0  0  0  0  0  0  0  0
   38.4730   22.6360   36.3710 C   0  0  0  0  0  0  0  0  0  0  0  0
   37.6620   23.6620   36.8670 C   0  0  0  0  0  0  0  0  0  0  0  0
   37.8830   24.9590   36.4650 N   0  0  0  0  0  0  0  0  0  0  0  0
   38.8640   25.2380   35.6060 C   0  0  0  0  0  0  0  0  0  0  0  0
   39.6610   24.2600   35.1120 N   0  0  0  0  0  0  0  0  0  0  0  0
   40.0600   22.1330   35.1430 H   0  0  0  0  0  0  0  0  0  0  0  0
   38.2710   21.6400   36.7070 H   0  0  0  0  0  0  0  0  0  0  0  0
   36.8530   23.4910   37.5660 H   0  0  0  0  0  0  0  0  0  0  0  0
  1  2  1  0  0  0  0
  1 22  1  0  0  0  0
  2  7  1  0  0  0  0
  3  8  1  0  0  0  0
  3  2  2  0  0  0  0
  4  3  1  0  0  0  0
  5  4  2  0  0  0  0
  5  6  1  0  0  0  0
  6  1  2  0  0  0  0
  9  4  1  0  0  0  0
 10  5  1  0  0  0  0
 11  6  1  0  0  0  0
 12 11  1  0  0  0  0
 12 13  1  0  0  0  0
 14 12  2  0  0  0  0
 15 16  2  0  0  0  0
 15 14  1  0  0  0  0
 16 21  1  0  0  0  0
 17 18  2  0  0  0  0
 17 16  1  0  0  0  0
 18 19  1  0  0  0  0
 19 20  2  0  0  0  0
 20 21  1  0  0  0  0
 21 11  2  0  0  0  0
 22 28  1  0  0  0  0
 22 23  1  6  0  0  0
 24 25  1  0  0  0  0
 25 31  1  0  0  0  0
 25 26  2  0  0  0  0
 26 32  1  0  0  0  0
 27 26  1  0  0  0  0
 28 27  2  0  0  0  0
 29 24  2  0  0  0  0
 29 28  1  0  0  0  0
 30 24  1  0  0  0  0
M  END
>  <minimizedAffinity>
-5.90359449

$$$$

 OpenBabel03272509393D

 32 35  0  0  1  0  0  0  0  0999 V2000
   33.6460   31.1150   35.0600 C   0  0  0  0  0  0  0  0  0  0  0  0
   33.2550   32.1490   35.9190 C   0  0  0  0  0  0  0  0  0  0  0  0
   34.1530   32.9600   36.6160 C   0  0  0  0  0  0  0  0  0  0  0  0
   35.5330   32.7010   36.4240 C   0  0  0  0  0  0  0  0  0  0  0  0
   35.9210   31.6680   35.5650 C   0  0  0  0  0  0  0  0  0  0  0  0
   34.9880   30.9140   34.9170 C   0  0  0  0  0  0  0  0  0  0  0  0
   32.1970   32.3740   36.0880 H   0  0  0  0  0  0  0  0  0  0  0  0
   33.8130   33.7360   37.2610 H   0  0  0  0  0  0  0  0  0  0  0  0
   36.1810   33.3570   36.9850 H   0  0  0  0  0  0  0  0  0  0  0  0
   36.9920   31.5830   35.5130 H   0  0  0  0  0  0  0  0  0  0  0  0
   35.6090   29.8920   34.0950 C   0  0  0  0  0  0  0  0  0  0  0  0
   35.9550   28.5770   34.3190 C   0  0  0  0  0  0  0  0  0  0  0  0
   35.7060   28.3060   35.3590 H   0  0  0  0  0  0  0  0  0  0  0  0
   36.5210   27.7700   33.3630 C   0  0  0  0  0  3  0  0  0  0  0  0
   36.7760   28.2530   32.0980 C   0  0  0  0  0  3  0  0  0  0  0  0
   36.4430   29.5620   31.8370 C   0  0  0  0  0  0  0  0  0  0  0  0
   36.7240   29.9800   30.5560 C   0  0  0  0  0  3  0  0  0  0  0  0
   36.4280   31.2760   30.1960 C   0  0  0  0  0  3  0  0  0  0  0  0
   35.8590   32.1300   31.1150 C   0  0  0  0  0  3  0  0  0  0  0  0
   35.6050   31.6520   32.3710 C   0  0  0  0  0  3  0  0  0  0  0  0
   35.8660   30.3790   32.8160 C   0  0  0  0  0  0  0  0  0  0  0  0
   32.6210   30.3400   34.3890 C   0  0  1  0  0  3  0  0  0  0  0  0
   32.3660   30.7480   33.1970 O   0  0  0  0  0  1  0  0  0  0  0  0
   31.5760   27.9820   36.9340 C   0  0  0  0  0  0  0  0  0  0  0  0
   30.6880   27.1260   36.2570 C   0  0  0  0  0  0  0  0  0  0  0  0
   30.4500   27.3660   34.9000 C   0  0  0  0  0  0  0  0  0  0  0  0
   31.0810   28.4160   34.2740 N   0  0  0  0  0  0  0  0  0  0  0  0
   31.9150   29.2020   34.9560 C   0  0  0  0  0  0  0  0  0  0  0  0
   32.1600   28.9870   36.2710 N   0  0  0  0  0  0  0  0  0  0  0  0
   31.6950   27.7210   37.9630 H   0  0  0  0  0  0  0  0  0  0  0  0
   30.1800   26.3000   36.7100 H   0  0  0  0  0  0  0  0  0  0  0  0
   29.7840   26.7590   34.3000 H   0  0  0  0  0  0  0  0  0  0  0  0
  1  2  1  0  0  0  0
  2  7  1  0  0  0  0
  2  3  2  0  0  0  0
  3  8  1  0  0  0  0
  4  3  1  0  0  0  0
  4  9  1  0  0  0  0
  5  4  2  0  0  0  0
  6  1  2  0  0  0  0
  6  5  1  0  0  0  0
 10  5  1  0  0  0  0
 11 12  1  0  0  0  0
 11  6  1  0  0  0  0
 12 13  1  0  0  0  0
 14 12  2  0  0  0  0
 15 14  1  0  0  0  0
 16 15  2  0  0  0  0
 16 21  1  0  0  0  0
 17 16  1  0  0  0  0
 18 17  2  0  0  0  0
 18 19  1  0  0  0  0
 19 20  2  0  0  0  0
 20 21  1  0  0  0  0
 21 11  2  0  0  0  0
 22 23  1  6  0  0  0
 22 28  1  0  0  0  0
 22  1  1  0  0  0  0
 24 30  1  0  0  0  0
 25 31  1  0  0  0  0
 25 24  2  0  0  0  0
 26 25  1  0  0  0  0
 27 26  2  0  0  0  0
 27 28  1  0  0  0  0
 28 29  2  0  0  0  0
 29 24  1  0  0  0  0
 32 26  1  0  0  0  0
M  END
>  <minimizedAffinity>
-5.86350393

$$$$

 OpenBabel03272509393D

 32 35  0  0  1  0  0  0  0  0999 V2000
   39.7870   27.1840   32.1840 C   0  0  0  0  0  0  0  0  0  0  0  0
   40.6790   27.5750   31.1790 C   0  0  0  0  0  0  0  0  0  0  0  0
   42.0490   27.7560   31.3840 C   0  0  0  0  0  0  0  0  0  0  0  0
   42.5370   27.5220   32.6940 C   0  0  0  0  0  0  0  0  0  0  0  0
   41.6440   27.1320   33.6970 C   0  0  0  0  0  0  0  0  0  0  0  0
   40.3160   26.9760   33.4240 C   0  0  0  0  0  0  0  0  0  0  0  0
   40.3330   27.7630   30.1570 H   0  0  0  0  0  0  0  0  0  0  0  0
   42.6930   28.0550   30.5910 H   0  0  0  0  0  0  0  0  0  0  0  0
   43.6000   27.6750   32.7960 H   0  0  0  0  0  0  0  0  0  0  0  0
   42.1460   26.9890   34.6370 H   0  0  0  0  0  0  0  0  0  0  0  0
   39.5740   26.5850   34.6080 C   0  0  0  0  0  0  0  0  0  0  0  0
   38.8610   27.2890   35.5550 C   0  0  0  0  0  0  0  0  0  0  0  0
   38.9190   28.3670   35.3290 H   0  0  0  0  0  0  0  0  0  0  0  0
   38.1990   26.6940   36.6000 C   0  0  0  0  0  3  0  0  0  0  0  0
   38.2160   25.3250   36.7550 C   0  0  0  0  0  3  0  0  0  0  0  0
   38.9180   24.5880   35.8270 C   0  0  0  0  0  0  0  0  0  0  0  0
   38.8950   23.2290   36.0400 C   0  0  0  0  0  3  0  0  0  0  0  0
   39.5680   22.4040   35.1670 C   0  0  0  0  0  3  0  0  0  0  0  0
   40.2500   22.9460   34.0990 C   0  0  0  0  0  3  0  0  0  0  0  0
   40.2330   24.3050   33.9450 C   0  0  0  0  0  3  0  0  0  0  0  0
   39.5910   25.2010   34.7640 C   0  0  0  0  0  0  0  0  0  0  0  0
   38.3850   27.0270   31.8510 C   0  0  1  0  0  3  0  0  0  0  0  0
   37.7250   28.1310   31.8690 O   0  0  0  0  0  1  0  0  0  0  0  0
   35.6610   24.6620   31.5130 C   0  0  0  0  0  0  0  0  0  0  0  0
   36.2720   23.5180   30.9650 C   0  0  0  0  0  0  0  0  0  0  0  0
   37.6470   23.5650   30.7130 C   0  0  0  0  0  0  0  0  0  0  0  0
   38.3530   24.7110   31.0020 N   0  0  0  0  0  0  0  0  0  0  0  0
   37.7310   25.7700   31.5190 C   0  0  0  0  0  0  0  0  0  0  0  0
   36.4010   25.7470   31.7730 N   0  0  0  0  0  0  0  0  0  0  0  0
   34.6120   24.5320   31.6710 H   0  0  0  0  0  0  0  0  0  0  0  0
   35.7570   22.6110   30.7280 H   0  0  0  0  0  0  0  0  0  0  0  0
   38.2010   22.7350   30.2950 H   0  0  0  0  0  0  0  0  0  0  0  0
  1  6  1  0  0  0  0
  2  3  1  0  0  0  0
  2  1  2  0  0  0  0
  3  4  2  0  0  0  0
  4  9  1  0  0  0  0
  4  5  1  0  0  0  0
  5 10  1  0  0  0  0
  6  5  2  0  0  0  0
  6 11  1  0  0  0  0
  7  2  1  0  0  0  0
  8  3  1  0  0  0  0
 11 21  2  0  0  0  0
 11 12  1  0  0  0  0
 12 14  2  0  0  0  0
 13 12  1  0  0  0  0
 14 15  1  0  0  0  0
 16 17  1  0  0  0  0
 16 15  2  0  0  0  0
 18 17  2  0  0  0  0
 19 18  1  0  0  0  0
 20 19  2  0  0  0  0
 20 21  1  0  0  0  0
 21 16  1  0  0  0  0
 22 23  1  6  0  0  0
 22  1  1  0  0  0  0
 24 30  1  0  0  0  0
 24 29  1  0  0  0  0
 25 24  2  0  0  0  0
 26 25  1  0  0  0  0
 26 27  2  0  0  0  0
 27 28  1  0  0  0  0
 28 29  2  0  0  0  0
 28 22  1  0  0  0  0
 31 25  1  0  0  0  0
 32 26  1  0  0  0  0
M  END
>  <minimizedAffinity>
-5.83538389

$$$$

 OpenBabel03272509393D

 32 35  0  0  1  0  0  0  0  0999 V2000
   35.9770   26.4010   31.3000 C   0  0  0  0  0  0  0  0  0  0  0  0
   34.8460   25.6730   30.9150 C   0  0  0  0  0  0  0  0  0  0  0  0
   34.8190   24.2800   30.8110 C   0  0  0  0  0  0  0  0  0  0  0  0
   36.0170   23.5900   31.1210 C   0  0  0  0  0  0  0  0  0  0  0  0
   37.1460   24.3200   31.5060 C   0  0  0  0  0  0  0  0  0  0  0  0
   37.1010   25.6810   31.5840 C   0  0  0  0  0  0  0  0  0  0  0  0
   33.9050   26.1760   30.6700 H   0  0  0  0  0  0  0  0  0  0  0  0
   33.9360   23.7640   30.5130 H   0  0  0  0  0  0  0  0  0  0  0  0
   35.9390   22.5180   31.0250 H   0  0  0  0  0  0  0  0  0  0  0  0
   37.9810   23.6740   31.7100 H   0  0  0  0  0  0  0  0  0  0  0  0
   38.3820   26.2330   31.9840 C   0  0  0  0  0  0  0  0  0  0  0  0
   39.4890   26.6620   31.2850 C   0  0  0  0  0  0  0  0  0  0  0  0
   39.3190   26.5130   30.2050 H   0  0  0  0  0  0  0  0  0  0  0  0
   40.6070   27.1870   31.8840 C   0  0  0  0  0  3  0  0  0  0  0  0
   40.6760   27.3120   33.2550 C   0  0  0  0  0  3  0  0  0  0  0  0
   39.5880   26.8930   33.9870 C   0  0  0  0  0  0  0  0  0  0  0  0
   39.7230   27.0460   35.3490 C   0  0  0  0  0  3  0  0  0  0  0  0
   38.6880   26.6560   36.1700 C   0  0  0  0  0  3  0  0  0  0  0  0
   37.5410   26.1230   35.6220 C   0  0  0  0  0  3  0  0  0  0  0  0
   37.4720   25.9980   34.2620 C   0  0  0  0  0  3  0  0  0  0  0  0
   38.4520   26.3590   33.3690 C   0  0  0  0  0  0  0  0  0  0  0  0
   35.8850   27.8460   31.3740 C   0  0  2  0  0  3  0  0  0  0  0  0
   36.4150   28.4480   30.3680 O   0  0  0  0  0  1  0  0  0  0  0  0
   35.7050   29.7080   34.4770 C   0  0  0  0  0  0  0  0  0  0  0  0
   34.3440   30.0480   34.5890 C   0  0  0  0  0  0  0  0  0  0  0  0
   33.4750   29.6240   33.5770 C   0  0  0  0  0  0  0  0  0  0  0  0
   33.9690   28.8980   32.5170 N   0  0  0  0  0  0  0  0  0  0  0  0
   35.2670   28.6000   32.4540 C   0  0  0  0  0  0  0  0  0  0  0  0
   36.1250   28.9990   33.4230 N   0  0  0  0  0  0  0  0  0  0  0  0
   36.2880   30.0730   35.2940 H   0  0  0  0  0  0  0  0  0  0  0  0
   33.9240   30.6100   35.3970 H   0  0  0  0  0  0  0  0  0  0  0  0
   32.4140   29.8390   33.5800 H   0  0  0  0  0  0  0  0  0  0  0  0
  1 22  1  0  0  0  0
  1  6  1  0  0  0  0
  2  1  2  0  0  0  0
  3  2  1  0  0  0  0
  3  4  2  0  0  0  0
  4  5  1  0  0  0  0
  5  6  2  0  0  0  0
  5 10  1  0  0  0  0
  6 11  1  0  0  0  0
  7  2  1  0  0  0  0
  8  3  1  0  0  0  0
  9  4  1  0  0  0  0
 11 21  1  0  0  0  0
 12 14  1  0  0  0  0
 12 11  2  0  0  0  0
 13 12  1  0  0  0  0
 14 15  2  0  0  0  0
 15 16  1  0  0  0  0
 16 17  1  0  0  0  0
 17 18  2  0  0  0  0
 19 18  1  0  0  0  0
 20 19  2  0  0  0  0
 21 16  2  0  0  0  0
 21 20  1  0  0  0  0
 22 23  1  1  0  0  0
 22 28  1  0  0  0  0
 24 25  1  0  0  0  0
 24 30  1  0  0  0  0
 25 31  1  0  0  0  0
 26 32  1  0  0  0  0
 26 25  2  0  0  0  0
 27 26  1  0  0  0  0
 28 27  2  0  0  0  0
 28 29  1  0  0  0  0
 29 24  2  0  0  0  0
M  END
>  <minimizedAffinity>
-5.78557682

$$$$
