
 OpenBabel03272509113D

 30 33  0  0  0  0  0  0  0  0999 V2000
   35.7040   30.5490   45.7460 C   0  0  0  0  0  0  0  0  0  0  0  0
   36.3990   29.8820   44.6910 C   0  0  0  0  0  0  0  0  0  0  0  0
   35.7980   28.7500   44.1410 C   0  0  0  0  0  0  0  0  0  0  0  0
   34.5950   28.3310   44.6240 N   0  0  0  0  0  0  0  0  0  0  0  0
   33.9650   28.9860   45.6250 C   0  0  0  0  0  0  0  0  0  0  0  0
   34.5140   30.0860   46.1820 N   0  0  0  0  0  0  0  0  0  0  0  0
   36.0680   31.4230   46.2410 H   0  0  0  0  0  0  0  0  0  0  0  0
   33.0190   28.5310   45.8960 H   0  0  0  0  0  0  0  0  0  0  0  0
   36.4240   28.0080   43.0750 C   0  0  0  0  0  0  0  0  0  0  0  0
   37.6750   27.5080   43.2630 C   0  0  0  0  0  0  0  0  0  0  0  0
   38.3400   26.7720   42.2990 C   0  0  0  0  0  0  0  0  0  0  0  0
   37.6740   26.5510   41.0920 C   0  0  0  0  0  0  0  0  0  0  0  0
   36.3910   27.0370   40.8370 C   0  0  0  0  0  0  0  0  0  0  0  0
   35.8000   27.7670   41.8660 C   0  0  0  0  0  0  0  0  0  0  0  0
   38.3170   27.5970   44.1070 H   0  0  0  0  0  0  0  0  0  0  0  0
   39.3280   26.3430   42.3710 H   0  0  0  0  0  0  0  0  0  0  0  0
   38.0890   25.9880   40.2560 H   0  0  0  0  0  0  0  0  0  0  0  0
   35.8830   26.8620   39.9020 H   0  0  0  0  0  0  0  0  0  0  0  0
   34.8060   28.1540   41.6930 H   0  0  0  0  0  0  0  0  0  0  0  0
   37.6490   30.5130   44.3860 C   0  0  0  0  0  0  0  0  0  0  0  0
   38.7420   30.4280   45.2710 C   0  0  0  0  0  0  0  0  0  0  0  0
   38.6330   29.8770   46.2120 H   0  0  0  0  0  0  0  0  0  0  0  0
   39.9770   30.9950   45.0560 C   0  0  0  0  0  3  0  0  0  0  0  0
   40.1840   31.6980   43.9020 C   0  0  0  0  0  3  0  0  0  0  0  0
   39.1710   31.8310   42.9790 C   0  0  0  0  0  0  0  0  0  0  0  0
   39.3830   32.5340   41.8080 C   0  0  0  0  0  3  0  0  0  0  0  0
   38.3880   32.6730   40.8620 C   0  0  0  0  0  3  0  0  0  0  0  0
   37.1730   32.0800   41.1370 C   0  0  0  0  0  3  0  0  0  0  0  0
   36.9820   31.3860   42.3070 C   0  0  0  0  0  3  0  0  0  0  0  0
   37.9620   31.2400   43.2570 C   0  0  0  0  0  0  0  0  0  0  0  0
  1  6  1  0  0  0  0
  1  7  1  0  0  0  0
  2  1  2  0  0  0  0
  3  4  2  0  0  0  0
  3  2  1  0  0  0  0
  4  5  1  0  0  0  0
  5  8  1  0  0  0  0
  5  6  2  0  0  0  0
  9 10  1  0  0  0  0
  9  3  1  0  0  0  0
 10 15  1  0  0  0  0
 11 16  1  0  0  0  0
 11 10  2  0  0  0  0
 12 11  1  0  0  0  0
 13 12  2  0  0  0  0
 13 14  1  0  0  0  0
 14  9  2  0  0  0  0
 17 12  1  0  0  0  0
 18 13  1  0  0  0  0
 19 14  1  0  0  0  0
 20  2  1  0  0  0  0
 20 21  1  0  0  0  0
 21 22  1  0  0  0  0
 23 21  2  0  0  0  0
 24 23  1  0  0  0  0
 25 30  1  0  0  0  0
 25 24  2  0  0  0  0
 26 25  1  0  0  0  0
 27 28  1  0  0  0  0
 27 26  2  0  0  0  0
 28 29  2  0  0  0  0
 29 30  1  0  0  0  0
 30 20  2  0  0  0  0
M  END
>  <minimizedAffinity>
-2.7421627

>  <minimizedRMSD>
7.4540782

$$$$
