
 OpenBabel03272510343D

 30 33  0  0  0  0  0  0  0  0999 V2000
   35.9310   29.7180   48.4360 C   0  0  0  0  0  0  0  0  0  0  0  0
   35.2090   29.6280   47.2820 C   0  0  0  0  0  0  0  0  0  0  0  0
   34.2360   28.6780   47.0740 C   0  0  0  0  0  0  0  0  0  0  0  0
   34.0050   27.7850   48.1100 C   0  0  0  0  0  0  0  0  0  0  0  0
   34.7130   27.8380   49.3000 C   0  0  0  0  0  0  0  0  0  0  0  0
   35.6820   28.8150   49.4560 C   0  0  0  0  0  0  0  0  0  0  0  0
   35.4030   30.3400   46.4740 H   0  0  0  0  0  0  0  0  0  0  0  0
   33.6500   28.5830   46.1730 H   0  0  0  0  0  0  0  0  0  0  0  0
   33.2630   26.9820   48.0800 H   0  0  0  0  0  0  0  0  0  0  0  0
   34.5710   27.1670   50.1360 H   0  0  0  0  0  0  0  0  0  0  0  0
   36.5150   29.0030   50.6510 C   0  0  0  0  0  0  0  0  0  0  0  0
   36.1870   30.1740   51.3430 C   0  0  0  0  0  0  0  0  0  0  0  0
   35.4110   30.8690   51.0410 H   0  0  0  0  0  0  0  0  0  0  0  0
   36.9120   30.4580   52.4950 C   0  0  0  0  0  3  0  0  0  0  0  0
   37.9170   29.6280   52.9490 C   0  0  0  0  0  3  0  0  0  0  0  0
   38.1970   28.4890   52.2280 C   0  0  0  0  0  0  0  0  0  0  0  0
   39.1870   27.5940   52.6050 C   0  0  0  0  0  3  0  0  0  0  0  0
   39.4470   26.4650   51.8710 C   0  0  0  0  0  3  0  0  0  0  0  0
   38.7380   26.1580   50.7170 C   0  0  0  0  0  3  0  0  0  0  0  0
   37.7370   27.0430   50.3170 C   0  0  0  0  0  3  0  0  0  0  0  0
   37.5050   28.1550   51.0700 C   0  0  0  0  0  0  0  0  0  0  0  0
   37.5080   32.8380   49.4430 C   0  0  0  0  0  0  0  0  0  0  0  0
   38.7590   32.8040   48.8150 C   0  0  0  0  0  0  0  0  0  0  0  0
   39.0480   31.6740   48.0320 C   0  0  0  0  0  0  0  0  0  0  0  0
   38.1280   30.6880   47.9190 N   0  0  0  0  0  0  0  0  0  0  0  0
   36.9330   30.7640   48.5440 C   0  0  0  0  0  0  0  0  0  0  0  0
   36.6100   31.8420   49.3130 N   0  0  0  0  0  0  0  0  0  0  0  0
   37.1990   33.6720   50.0670 H   0  0  0  0  0  0  0  0  0  0  0  0
   39.4030   33.6500   48.9810 H   0  0  0  0  0  0  0  0  0  0  0  0
   40.0190   31.6640   47.5540 H   0  0  0  0  0  0  0  0  0  0  0  0
  1 26  1  0  0  0  0
  1  6  1  0  0  0  0
  2  1  2  0  0  0  0
  3  2  1  0  0  0  0
  3  4  2  0  0  0  0
  4  5  1  0  0  0  0
  5  6  2  0  0  0  0
  5 10  1  0  0  0  0
  6 11  1  0  0  0  0
  7  2  1  0  0  0  0
  8  3  1  0  0  0  0
  9  4  1  0  0  0  0
 11 21  2  0  0  0  0
 11 12  1  0  0  0  0
 12 14  2  0  0  0  0
 13 12  1  0  0  0  0
 14 15  1  0  0  0  0
 16 17  1  0  0  0  0
 16 15  2  0  0  0  0
 18 17  2  0  0  0  0
 19 18  1  0  0  0  0
 20 19  2  0  0  0  0
 20 21  1  0  0  0  0
 21 16  1  0  0  0  0
 22 28  1  0  0  0  0
 23 29  1  0  0  0  0
 23 22  2  0  0  0  0
 24 23  1  0  0  0  0
 25 24  2  0  0  0  0
 25 26  1  0  0  0  0
 26 27  2  0  0  0  0
 27 22  1  0  0  0  0
 30 24  1  0  0  0  0
M  END
>  <minimizedAffinity>
3.65850592

>  <minimizedRMSD>
0.893054724

$$$$
