
 OpenBabel03272509253D

 26 28  0  0  0  0  0  0  0  0999 V2000
   37.8410   31.9740   47.4590 C   0  0  0  0  0  0  0  0  0  0  0  0
   36.8000   31.6310   47.3180 H   0  0  0  0  0  0  0  0  0  0  0  0
   37.8650   32.9640   47.9730 H   0  0  0  0  0  0  0  0  0  0  0  0
   38.5770   32.1530   46.1640 C   0  0  0  0  0  0  0  0  0  0  0  0
   39.7610   32.8820   46.0570 C   0  0  0  0  0  0  0  0  0  0  0  0
   40.1520   33.3590   46.9640 H   0  0  0  0  0  0  0  0  0  0  0  0
   40.3850   32.9780   44.8360 C   0  0  0  0  0  3  0  0  0  0  0  0
   39.9070   32.3880   43.6850 C   0  0  0  0  0  3  0  0  0  0  0  0
   38.7350   31.6660   43.7910 C   0  0  0  0  0  0  0  0  0  0  0  0
   38.2400   31.0740   42.6480 C   0  0  0  0  0  3  0  0  0  0  0  0
   37.0610   30.3410   42.6890 C   0  0  0  0  0  3  0  0  0  0  0  0
   36.3820   30.2070   43.8920 C   0  0  0  0  0  3  0  0  0  0  0  0
   36.9280   30.8270   45.0210 C   0  0  0  0  0  3  0  0  0  0  0  0
   38.1050   31.5660   45.0100 C   0  0  0  0  0  0  0  0  0  0  0  0
   38.6580   30.9880   48.2940 C   0  0  0  0  0  0  0  0  0  0  0  0
   39.4110   31.6160   48.8680 H   0  0  0  0  0  0  0  0  0  0  0  0
   39.1290   30.1950   47.7300 H   0  0  0  0  0  0  0  0  0  0  0  0
   37.0640   30.0100   51.5960 C   0  0  0  0  0  0  0  0  0  0  0  0
   37.9850   30.6120   50.7190 C   0  0  0  0  0  0  0  0  0  0  0  0
   37.7810   30.4210   49.3660 C   0  0  0  0  0  0  0  0  0  0  0  0
   36.7100   29.6700   48.9610 N   0  0  0  0  0  0  0  0  0  0  0  0
   35.8500   29.1100   49.8270 C   0  0  0  0  0  0  0  0  0  0  0  0
   36.0260   29.2790   51.1510 N   0  0  0  0  0  0  0  0  0  0  0  0
   37.2150   30.1530   52.6560 H   0  0  0  0  0  0  0  0  0  0  0  0
   38.8240   31.2010   51.0390 H   0  0  0  0  0  0  0  0  0  0  0  0
   35.0570   28.5450   49.3330 H   0  0  0  0  0  0  0  0  0  0  0  0
  1  3  1  0  0  0  0
  1 15  1  0  0  0  0
  2  1  1  0  0  0  0
  4  1  1  0  0  0  0
  5  4  1  0  0  0  0
  5  6  1  0  0  0  0
  7  5  2  0  0  0  0
  8  9  2  0  0  0  0
  8  7  1  0  0  0  0
  9 14  1  0  0  0  0
 10 11  2  0  0  0  0
 10  9  1  0  0  0  0
 11 12  1  0  0  0  0
 12 13  2  0  0  0  0
 14 13  1  0  0  0  0
 14  4  2  0  0  0  0
 15 16  1  0  0  0  0
 15 20  1  0  0  0  0
 17 15  1  0  0  0  0
 18 24  1  0  0  0  0
 19 25  1  0  0  0  0
 19 18  2  0  0  0  0
 20 19  1  0  0  0  0
 21 20  2  0  0  0  0
 21 22  1  0  0  0  0
 22 23  2  0  0  0  0
 23 18  1  0  0  0  0
 26 22  1  0  0  0  0
M  END
>  <minimizedAffinity>
-5.2977953

>  <minimizedRMSD>
1.77009785

$$$$
