
 OpenBabel03272502403D

 42 46  0  0  1  0  0  0  0  0999 V2000
   38.7550   25.2650   33.3670 N   0  0  0  0  0  0  0  0  0  0  0  0
   38.8330   25.2180   31.9210 C   0  0  0  0  0  0  0  0  0  0  0  0
   37.8350   26.2530   31.4880 C   0  0  0  0  0  0  0  0  0  0  0  0
   37.0890   26.6790   32.8320 C   0  0  1  0  0  0  0  0  0  0  0  0
   38.2070   26.5780   33.7720 C   0  0  0  0  0  0  0  0  0  0  0  0
   38.4780   24.2060   31.6280 H   0  0  0  0  0  0  0  0  0  0  0  0
   39.8390   25.4090   31.5210 H   0  0  0  0  0  0  0  0  0  0  0  0
   37.0940   25.9150   30.7560 H   0  0  0  0  0  0  0  0  0  0  0  0
   38.3650   27.1580   31.1240 H   0  0  0  0  0  0  0  0  0  0  0  0
   36.3310   25.8760   32.8320 H   0  0  0  0  0  0  0  0  0  0  0  0
   37.9200   26.5380   34.8440 H   0  0  0  0  0  0  0  0  0  0  0  0
   38.9780   27.3350   33.5770 H   0  0  0  0  0  0  0  0  0  0  0  0
   35.8660   28.0710   34.9830 F   0  0  0  0  0  0  0  0  0  0  0  0
   36.0210   28.6310   33.7610 C   0  0  0  0  0  0  0  0  0  0  0  0
   36.5360   28.0240   32.6380 C   0  0  0  0  0  0  0  0  0  0  0  0
   36.5830   28.7630   31.4430 C   0  0  0  0  0  0  0  0  0  0  0  0
   36.1280   30.0660   31.3810 C   0  0  0  0  0  0  0  0  0  0  0  0
   35.6110   30.6580   32.5320 C   0  0  0  0  0  0  0  0  0  0  0  0
   35.5620   29.9240   33.7260 C   0  0  0  0  0  0  0  0  0  0  0  0
   37.0050   28.1820   30.6360 H   0  0  0  0  0  0  0  0  0  0  0  0
   36.2100   30.5440   30.4160 H   0  0  0  0  0  0  0  0  0  0  0  0
   35.2660   31.6700   32.4530 H   0  0  0  0  0  0  0  0  0  0  0  0
   35.0020   30.6390   34.8700 C   0  0  0  0  0  0  0  0  0  0  0  0
   35.8900   31.5420   35.4580 C   0  0  0  0  0  0  0  0  0  0  0  0
   36.9000   31.7000   35.1050 H   0  0  0  0  0  0  0  0  0  0  0  0
   35.4180   32.2540   36.5520 C   0  0  0  0  0  3  0  0  0  0  0  0
   34.1430   32.1010   37.0540 C   0  0  0  0  0  3  0  0  0  0  0  0
   33.3280   31.1990   36.4260 C   0  0  0  0  0  0  0  0  0  0  0  0
   32.0320   30.9880   36.8720 C   0  0  0  0  0  3  0  0  0  0  0  0
   31.1560   30.1120   36.3060 C   0  0  0  0  0  3  0  0  0  0  0  0
   31.6230   29.4040   35.2210 C   0  0  0  0  0  3  0  0  0  0  0  0
   32.9080   29.5340   34.6860 C   0  0  0  0  0  3  0  0  0  0  0  0
   33.7150   30.4470   35.3320 C   0  0  0  0  0  0  0  0  0  0  0  0
   39.1200   24.2470   34.2680 C   0  0  0  0  0  0  0  0  0  0  0  0
   38.1750   23.2280   34.4740 C   0  0  0  0  0  0  0  0  0  0  0  0
   38.4750   22.1990   35.3680 C   0  0  0  0  0  0  0  0  0  0  0  0
   39.7060   22.2600   35.9950 N   0  0  0  0  0  0  0  0  0  0  0  0
   40.5810   23.2420   35.7760 C   0  0  0  0  0  0  0  0  0  0  0  0
   40.2850   24.2460   34.9040 N   0  0  0  0  0  0  0  0  0  0  0  0
   37.2040   23.1390   34.0060 H   0  0  0  0  0  0  0  0  0  0  0  0
   37.7950   21.3810   35.5760 H   0  0  0  0  0  0  0  0  0  0  0  0
   41.5390   23.2710   36.2780 H   0  0  0  0  0  0  0  0  0  0  0  0
  1  5  1  0  0  0  0
  1 34  1  0  0  0  0
  2  1  1  0  0  0  0
  3  2  1  0  0  0  0
  3  4  1  0  0  0  0
  4 10  1  1  0  0  0
  4  5  1  0  0  0  0
  5 11  1  0  0  0  0
  6  2  1  0  0  0  0
  7  2  1  0  0  0  0
  8  3  1  0  0  0  0
  9  3  1  0  0  0  0
 12  5  1  0  0  0  0
 14 13  1  0  0  0  0
 15  4  1  0  0  0  0
 15 14  2  0  0  0  0
 16 15  1  0  0  0  0
 17 16  2  0  0  0  0
 17 18  1  0  0  0  0
 18 19  2  0  0  0  0
 19 14  1  0  0  0  0
 19 23  1  0  0  0  0
 20 16  1  0  0  0  0
 21 17  1  0  0  0  0
 22 18  1  0  0  0  0
 23 33  2  0  0  0  0
 23 24  1  0  0  0  0
 24 26  2  0  0  0  0
 25 24  1  0  0  0  0
 26 27  1  0  0  0  0
 28 29  1  0  0  0  0
 28 27  2  0  0  0  0
 30 29  2  0  0  0  0
 31 30  1  0  0  0  0
 32 31  2  0  0  0  0
 32 33  1  0  0  0  0
 33 28  1  0  0  0  0
 34 35  2  0  0  0  0
 34 39  1  0  0  0  0
 35 36  1  0  0  0  0
 36 41  1  0  0  0  0
 36 37  2  0  0  0  0
 38 37  1  0  0  0  0
 38 42  1  0  0  0  0
 39 38  2  0  0  0  0
 40 35  1  0  0  0  0
M  END
>  <minimizedAffinity>
-6.98304987

$$$$

 OpenBabel03272502403D

 42 46  0  0  1  0  0  0  0  0999 V2000
   37.1350   25.0370   32.5880 N   0  0  0  0  0  0  0  0  0  0  0  0
   38.0910   25.5530   33.5470 C   0  0  0  0  0  0  0  0  0  0  0  0
   38.0450   27.0360   33.3180 C   0  0  0  0  0  0  0  0  0  0  0  0
   37.1420   27.2130   32.0150 C   0  0  1  0  0  0  0  0  0  0  0  0
   36.1920   26.1180   32.2280 C   0  0  0  0  0  0  0  0  0  0  0  0
   39.0820   25.1550   33.2360 H   0  0  0  0  0  0  0  0  0  0  0  0
   37.8710   25.2790   34.5890 H   0  0  0  0  0  0  0  0  0  0  0  0
   39.0130   27.5170   33.1530 H   0  0  0  0  0  0  0  0  0  0  0  0
   37.4960   27.5270   34.1480 H   0  0  0  0  0  0  0  0  0  0  0  0
   37.9430   27.0740   31.2690 H   0  0  0  0  0  0  0  0  0  0  0  0
   35.6150   25.8140   31.3290 H   0  0  0  0  0  0  0  0  0  0  0  0
   35.5440   26.2980   33.0960 H   0  0  0  0  0  0  0  0  0  0  0  0
   35.8810   28.2220   34.3500 F   0  0  0  0  0  0  0  0  0  0  0  0
   36.0400   28.9750   33.2380 C   0  0  0  0  0  0  0  0  0  0  0  0
   36.5730   28.5660   32.0360 C   0  0  0  0  0  0  0  0  0  0  0  0
   36.6230   29.4910   30.9790 C   0  0  0  0  0  0  0  0  0  0  0  0
   36.1520   30.7810   31.1250 C   0  0  0  0  0  0  0  0  0  0  0  0
   35.6170   31.1720   32.3510 C   0  0  0  0  0  0  0  0  0  0  0  0
   35.5650   30.2520   33.4090 C   0  0  0  0  0  0  0  0  0  0  0  0
   37.0600   29.0540   30.0920 H   0  0  0  0  0  0  0  0  0  0  0  0
   36.2370   31.4110   30.2510 H   0  0  0  0  0  0  0  0  0  0  0  0
   35.2600   32.1790   32.4340 H   0  0  0  0  0  0  0  0  0  0  0  0
   34.9850   30.7640   34.6470 C   0  0  0  0  0  0  0  0  0  0  0  0
   35.8590   31.5600   35.3900 C   0  0  0  0  0  0  0  0  0  0  0  0
   36.8730   31.7790   35.0830 H   0  0  0  0  0  0  0  0  0  0  0  0
   35.3680   32.0780   36.5810 C   0  0  0  0  0  3  0  0  0  0  0  0
   34.0870   31.8390   37.0310 C   0  0  0  0  0  3  0  0  0  0  0  0
   33.2860   31.0510   36.2510 C   0  0  0  0  0  0  0  0  0  0  0  0
   31.9860   30.7630   36.6360 C   0  0  0  0  0  3  0  0  0  0  0  0
   31.1230   29.9900   35.9200 C   0  0  0  0  0  3  0  0  0  0  0  0
   31.6090   29.4740   34.7390 C   0  0  0  0  0  3  0  0  0  0  0  0
   32.9010   29.6970   34.2520 C   0  0  0  0  0  3  0  0  0  0  0  0
   33.6930   30.4930   35.0520 C   0  0  0  0  0  0  0  0  0  0  0  0
   37.0880   23.7350   32.0560 C   0  0  0  0  0  0  0  0  0  0  0  0
   35.8280   23.2800   31.6320 C   0  0  0  0  0  0  0  0  0  0  0  0
   35.7170   21.9900   31.1080 C   0  0  0  0  0  0  0  0  0  0  0  0
   36.8790   21.2430   31.0430 N   0  0  0  0  0  0  0  0  0  0  0  0
   38.0600   21.7080   31.4540 C   0  0  0  0  0  0  0  0  0  0  0  0
   38.1650   22.9660   31.9660 N   0  0  0  0  0  0  0  0  0  0  0  0
   34.8960   23.8270   31.6620 H   0  0  0  0  0  0  0  0  0  0  0  0
   34.7790   21.5730   30.7620 H   0  0  0  0  0  0  0  0  0  0  0  0
   38.9580   21.1060   31.3950 H   0  0  0  0  0  0  0  0  0  0  0  0
  1  2  1  0  0  0  0
  2  7  1  0  0  0  0
  3  2  1  0  0  0  0
  3  9  1  0  0  0  0
  4 10  1  6  0  0  0
  4 15  1  0  0  0  0
  4  5  1  0  0  0  0
  4  3  1  0  0  0  0
  5  1  1  0  0  0  0
  5 12  1  0  0  0  0
  6  2  1  0  0  0  0
  8  3  1  0  0  0  0
 11  5  1  0  0  0  0
 14 19  1  0  0  0  0
 14 13  1  0  0  0  0
 15 14  2  0  0  0  0
 16 17  2  0  0  0  0
 16 15  1  0  0  0  0
 17 18  1  0  0  0  0
 18 22  1  0  0  0  0
 18 19  2  0  0  0  0
 19 23  1  0  0  0  0
 20 16  1  0  0  0  0
 21 17  1  0  0  0  0
 23 33  2  0  0  0  0
 23 24  1  0  0  0  0
 24 26  2  0  0  0  0
 25 24  1  0  0  0  0
 26 27  1  0  0  0  0
 28 29  1  0  0  0  0
 28 27  2  0  0  0  0
 30 29  2  0  0  0  0
 31 30  1  0  0  0  0
 32 31  2  0  0  0  0
 32 33  1  0  0  0  0
 33 28  1  0  0  0  0
 34  1  1  0  0  0  0
 35 40  1  0  0  0  0
 35 34  2  0  0  0  0
 36 35  1  0  0  0  0
 37 36  2  0  0  0  0
 37 38  1  0  0  0  0
 38 39  2  0  0  0  0
 39 34  1  0  0  0  0
 41 36  1  0  0  0  0
 42 38  1  0  0  0  0
M  END
>  <minimizedAffinity>
-6.96206856

$$$$

 OpenBabel03272502403D

 42 46  0  0  1  0  0  0  0  0999 V2000
   35.5660   29.9160   33.5720 N   0  0  0  0  0  0  0  0  0  0  0  0
   35.8160   29.8830   32.1460 C   0  0  0  0  0  0  0  0  0  0  0  0
   36.6630   28.6560   31.9720 C   0  0  0  0  0  0  0  0  0  0  0  0
   37.0010   28.1860   33.4590 C   0  0  1  0  0  0  0  0  0  0  0  0
   35.7460   28.5540   34.1190 C   0  0  0  0  0  0  0  0  0  0  0  0
   36.4170   30.7910   31.9190 H   0  0  0  0  0  0  0  0  0  0  0  0
   34.9040   29.8570   31.5320 H   0  0  0  0  0  0  0  0  0  0  0  0
   37.5970   28.8020   31.4190 H   0  0  0  0  0  0  0  0  0  0  0  0
   36.0590   27.8430   31.5170 H   0  0  0  0  0  0  0  0  0  0  0  0
   37.8820   28.8330   33.6120 H   0  0  0  0  0  0  0  0  0  0  0  0
   35.7950   28.6090   35.2270 H   0  0  0  0  0  0  0  0  0  0  0  0
   34.9030   27.9410   33.7710 H   0  0  0  0  0  0  0  0  0  0  0  0
   38.1080   26.8830   35.7240 F   0  0  0  0  0  0  0  0  0  0  0  0
   37.7860   26.2110   34.5960 C   0  0  0  0  0  0  0  0  0  0  0  0
   37.3090   26.7520   33.4230 C   0  0  0  0  0  0  0  0  0  0  0  0
   37.0640   25.8900   32.3410 C   0  0  0  0  0  0  0  0  0  0  0  0
   37.2910   24.5300   32.4350 C   0  0  0  0  0  0  0  0  0  0  0  0
   37.7750   24.0060   33.6330 C   0  0  0  0  0  0  0  0  0  0  0  0
   38.0210   24.8630   34.7150 C   0  0  0  0  0  0  0  0  0  0  0  0
   36.6950   26.4300   31.4810 H   0  0  0  0  0  0  0  0  0  0  0  0
   37.0700   23.9570   31.5460 H   0  0  0  0  0  0  0  0  0  0  0  0
   37.9410   22.9480   33.6760 H   0  0  0  0  0  0  0  0  0  0  0  0
   38.5250   24.2110   35.9200 C   0  0  0  0  0  0  0  0  0  0  0  0
   37.5870   24.1300   36.9500 C   0  0  0  0  0  0  0  0  0  0  0  0
   36.5790   24.5140   36.8710 H   0  0  0  0  0  0  0  0  0  0  0  0
   38.0050   23.5200   38.1250 C   0  0  0  0  0  3  0  0  0  0  0  0
   39.2740   23.0090   38.2950 C   0  0  0  0  0  3  0  0  0  0  0  0
   40.1400   23.1240   37.2430 C   0  0  0  0  0  0  0  0  0  0  0  0
   41.4340   22.6350   37.3360 C   0  0  0  0  0  3  0  0  0  0  0  0
   42.3590   22.7070   36.3380 C   0  0  0  0  0  3  0  0  0  0  0  0
   41.9460   23.3120   35.1720 C   0  0  0  0  0  3  0  0  0  0  0  0
   40.6680   23.8400   34.9660 C   0  0  0  0  0  3  0  0  0  0  0  0
   39.8090   23.7160   36.0370 C   0  0  0  0  0  0  0  0  0  0  0  0
   35.2200   31.0410   34.3450 C   0  0  0  0  0  0  0  0  0  0  0  0
   35.8380   31.1470   35.6020 C   0  0  0  0  0  0  0  0  0  0  0  0
   35.5230   32.2340   36.4200 C   0  0  0  0  0  0  0  0  0  0  0  0
   34.6080   33.1430   35.9210 N   0  0  0  0  0  0  0  0  0  0  0  0
   34.0400   33.0110   34.7200 C   0  0  0  0  0  0  0  0  0  0  0  0
   34.3490   31.9490   33.9260 N   0  0  0  0  0  0  0  0  0  0  0  0
   36.5570   30.4640   36.0320 H   0  0  0  0  0  0  0  0  0  0  0  0
   35.9600   32.3810   37.4000 H   0  0  0  0  0  0  0  0  0  0  0  0
   33.3260   33.7340   34.3490 H   0  0  0  0  0  0  0  0  0  0  0  0
  1  5  1  0  0  0  0
  1 34  1  0  0  0  0
  2  1  1  0  0  0  0
  3  2  1  0  0  0  0
  3  4  1  0  0  0  0
  4 10  1  1  0  0  0
  4  5  1  0  0  0  0
  5 11  1  0  0  0  0
  6  2  1  0  0  0  0
  7  2  1  0  0  0  0
  8  3  1  0  0  0  0
  9  3  1  0  0  0  0
 12  5  1  0  0  0  0
 14 19  1  0  0  0  0
 14 13  1  0  0  0  0
 15  4  1  0  0  0  0
 15 14  2  0  0  0  0
 16 17  2  0  0  0  0
 16 15  1  0  0  0  0
 17 18  1  0  0  0  0
 18 22  1  0  0  0  0
 18 19  2  0  0  0  0
 19 23  1  0  0  0  0
 20 16  1  0  0  0  0
 21 17  1  0  0  0  0
 23 33  2  0  0  0  0
 23 24  1  0  0  0  0
 24 26  2  0  0  0  0
 25 24  1  0  0  0  0
 26 27  1  0  0  0  0
 28 29  1  0  0  0  0
 28 27  2  0  0  0  0
 30 29  2  0  0  0  0
 31 30  1  0  0  0  0
 32 31  2  0  0  0  0
 32 33  1  0  0  0  0
 33 28  1  0  0  0  0
 34 35  1  0  0  0  0
 35 40  1  0  0  0  0
 35 36  2  0  0  0  0
 36 41  1  0  0  0  0
 37 36  1  0  0  0  0
 38 37  2  0  0  0  0
 39 34  2  0  0  0  0
 39 38  1  0  0  0  0
 42 38  1  0  0  0  0
M  END
>  <minimizedAffinity>
-6.83608294

$$$$

 OpenBabel03272502403D

 42 46  0  0  1  0  0  0  0  0999 V2000
   35.5820   30.0080   33.6350 N   0  0  0  0  0  0  0  0  0  0  0  0
   35.2800   29.9890   32.2190 C   0  0  0  0  0  0  0  0  0  0  0  0
   35.9730   28.7480   31.7340 C   0  0  0  0  0  0  0  0  0  0  0  0
   36.8320   28.2540   32.9850 C   0  0  1  0  0  0  0  0  0  0  0  0
   35.9230   28.6360   34.0680 C   0  0  0  0  0  0  0  0  0  0  0  0
   35.7720   30.8880   31.7880 H   0  0  0  0  0  0  0  0  0  0  0  0
   34.2040   29.9870   31.9910 H   0  0  0  0  0  0  0  0  0  0  0  0
   36.6350   28.8840   30.8740 H   0  0  0  0  0  0  0  0  0  0  0  0
   35.2250   27.9530   31.5350 H   0  0  0  0  0  0  0  0  0  0  0  0
   37.7210   28.8820   32.8010 H   0  0  0  0  0  0  0  0  0  0  0  0
   36.3840   28.6760   35.0780 H   0  0  0  0  0  0  0  0  0  0  0  0
   34.9980   28.0440   34.0580 H   0  0  0  0  0  0  0  0  0  0  0  0
   38.8360   26.9450   34.5110 F   0  0  0  0  0  0  0  0  0  0  0  0
   38.0260   26.2720   33.6620 C   0  0  0  0  0  0  0  0  0  0  0  0
   37.0730   26.8150   32.8300 C   0  0  0  0  0  0  0  0  0  0  0  0
   36.3510   25.9510   31.9880 C   0  0  0  0  0  0  0  0  0  0  0  0
   36.5810   24.5880   31.9850 C   0  0  0  0  0  0  0  0  0  0  0  0
   37.5510   24.0620   32.8370 C   0  0  0  0  0  0  0  0  0  0  0  0
   38.2740   24.9210   33.6770 C   0  0  0  0  0  0  0  0  0  0  0  0
   35.6370   26.4920   31.3860 H   0  0  0  0  0  0  0  0  0  0  0  0
   35.9720   24.0140   31.3020 H   0  0  0  0  0  0  0  0  0  0  0  0
   37.7060   23.0020   32.8110 H   0  0  0  0  0  0  0  0  0  0  0  0
   39.2640   24.2670   34.5270 C   0  0  0  0  0  0  0  0  0  0  0  0
   40.4630   23.9760   33.8710 C   0  0  0  0  0  0  0  0  0  0  0  0
   40.6450   24.2080   32.8310 H   0  0  0  0  0  0  0  0  0  0  0  0
   41.4470   23.3520   34.6250 C   0  0  0  0  0  3  0  0  0  0  0  0
   41.2820   23.0270   35.9540 C   0  0  0  0  0  3  0  0  0  0  0  0
   40.0820   23.3430   36.5310 C   0  0  0  0  0  0  0  0  0  0  0  0
   39.8390   23.0480   37.8630 C   0  0  0  0  0  3  0  0  0  0  0  0
   38.6760   23.3280   38.5150 C   0  0  0  0  0  3  0  0  0  0  0  0
   37.6980   23.9460   37.7680 C   0  0  0  0  0  3  0  0  0  0  0  0
   37.8320   24.2900   36.4200 C   0  0  0  0  0  3  0  0  0  0  0  0
   39.0470   23.9640   35.8560 C   0  0  0  0  0  0  0  0  0  0  0  0
   35.5750   31.1290   34.4870 C   0  0  0  0  0  0  0  0  0  0  0  0
   35.9790   32.3480   33.9180 C   0  0  0  0  0  0  0  0  0  0  0  0
   36.0060   33.4910   34.7190 C   0  0  0  0  0  0  0  0  0  0  0  0
   35.6230   33.3350   36.0390 N   0  0  0  0  0  0  0  0  0  0  0  0
   35.2440   32.1610   36.5470 C   0  0  0  0  0  0  0  0  0  0  0  0
   35.2200   31.0470   35.7630 N   0  0  0  0  0  0  0  0  0  0  0  0
   36.2840   32.5170   32.8950 H   0  0  0  0  0  0  0  0  0  0  0  0
   36.3060   34.4640   34.3490 H   0  0  0  0  0  0  0  0  0  0  0  0
   34.9490   32.0600   37.5830 H   0  0  0  0  0  0  0  0  0  0  0  0
  1  5  1  0  0  0  0
  1 34  1  0  0  0  0
  2  1  1  0  0  0  0
  3  2  1  0  0  0  0
  3  4  1  0  0  0  0
  4 10  1  1  0  0  0
  4  5  1  0  0  0  0
  5 11  1  0  0  0  0
  6  2  1  0  0  0  0
  7  2  1  0  0  0  0
  8  3  1  0  0  0  0
  9  3  1  0  0  0  0
 12  5  1  0  0  0  0
 14 19  1  0  0  0  0
 14 13  1  0  0  0  0
 15  4  1  0  0  0  0
 15 14  2  0  0  0  0
 16 15  1  0  0  0  0
 17 16  2  0  0  0  0
 17 18  1  0  0  0  0
 18 19  2  0  0  0  0
 19 23  1  0  0  0  0
 20 16  1  0  0  0  0
 21 17  1  0  0  0  0
 22 18  1  0  0  0  0
 23 33  1  0  0  0  0
 24 23  2  0  0  0  0
 24 26  1  0  0  0  0
 25 24  1  0  0  0  0
 26 27  2  0  0  0  0
 27 28  1  0  0  0  0
 28 29  1  0  0  0  0
 29 30  2  0  0  0  0
 31 30  1  0  0  0  0
 32 31  2  0  0  0  0
 33 32  1  0  0  0  0
 33 28  2  0  0  0  0
 34 39  1  0  0  0  0
 35 34  2  0  0  0  0
 35 36  1  0  0  0  0
 36 37  2  0  0  0  0
 37 38  1  0  0  0  0
 38 42  1  0  0  0  0
 39 38  2  0  0  0  0
 40 35  1  0  0  0  0
 41 36  1  0  0  0  0
M  END
>  <minimizedAffinity>
-6.77135992

$$$$

 OpenBabel03272502403D

 42 46  0  0  1  0  0  0  0  0999 V2000
   39.7110   25.7590   34.2640 N   0  0  0  0  0  0  0  0  0  0  0  0
   40.5930   26.0470   33.1520 C   0  0  0  0  0  0  0  0  0  0  0  0
   39.7050   26.7770   32.1860 C   0  0  0  0  0  0  0  0  0  0  0  0
   38.2420   26.6470   32.8090 C   0  0  1  0  0  0  0  0  0  0  0  0
   38.5790   26.7110   34.2330 C   0  0  0  0  0  0  0  0  0  0  0  0
   40.8820   25.0610   32.7270 H   0  0  0  0  0  0  0  0  0  0  0  0
   41.4840   26.6290   33.4280 H   0  0  0  0  0  0  0  0  0  0  0  0
   39.6970   26.3840   31.1650 H   0  0  0  0  0  0  0  0  0  0  0  0
   39.9520   27.8590   32.1920 H   0  0  0  0  0  0  0  0  0  0  0  0
   37.9910   25.6640   32.3740 H   0  0  0  0  0  0  0  0  0  0  0  0
   37.7840   26.3550   34.9220 H   0  0  0  0  0  0  0  0  0  0  0  0
   38.9660   27.6970   34.5210 H   0  0  0  0  0  0  0  0  0  0  0  0
   35.9060   27.4950   34.1810 F   0  0  0  0  0  0  0  0  0  0  0  0
   36.3530   28.1230   33.0700 C   0  0  0  0  0  0  0  0  0  0  0  0
   37.4290   27.7550   32.2940 C   0  0  0  0  0  0  0  0  0  0  0  0
   37.7180   28.5170   31.1490 C   0  0  0  0  0  0  0  0  0  0  0  0
   36.9500   29.6100   30.7970 C   0  0  0  0  0  0  0  0  0  0  0  0
   35.8650   29.9630   31.5990 C   0  0  0  0  0  0  0  0  0  0  0  0
   35.5730   29.2040   32.7420 C   0  0  0  0  0  0  0  0  0  0  0  0
   38.5800   28.1320   30.6250 H   0  0  0  0  0  0  0  0  0  0  0  0
   37.2580   30.1270   29.9000 H   0  0  0  0  0  0  0  0  0  0  0  0
   35.2890   30.8160   31.3000 H   0  0  0  0  0  0  0  0  0  0  0  0
   34.4170   29.6590   33.5080 C   0  0  0  0  0  0  0  0  0  0  0  0
   33.1960   29.2040   33.0070 C   0  0  0  0  0  0  0  0  0  0  0  0
   33.1080   28.5750   32.1310 H   0  0  0  0  0  0  0  0  0  0  0  0
   32.0560   29.6030   33.6910 C   0  0  0  0  0  3  0  0  0  0  0  0
   32.0950   30.4030   34.8130 C   0  0  0  0  0  3  0  0  0  0  0  0
   33.3270   30.8110   35.2480 C   0  0  0  0  0  0  0  0  0  0  0  0
   33.4500   31.6180   36.3680 C   0  0  0  0  0  3  0  0  0  0  0  0
   34.6350   32.0670   36.8680 C   0  0  0  0  0  3  0  0  0  0  0  0
   35.7660   31.6740   36.1890 C   0  0  0  0  0  3  0  0  0  0  0  0
   35.7630   30.8630   35.0500 C   0  0  0  0  0  3  0  0  0  0  0  0
   34.5130   30.4620   34.6270 C   0  0  0  0  0  0  0  0  0  0  0  0
   39.8650   24.7430   35.2270 C   0  0  0  0  0  0  0  0  0  0  0  0
   38.7620   24.5040   36.0640 C   0  0  0  0  0  0  0  0  0  0  0  0
   38.8620   23.5180   37.0470 C   0  0  0  0  0  0  0  0  0  0  0  0
   40.0620   22.8360   37.1240 N   0  0  0  0  0  0  0  0  0  0  0  0
   41.0900   23.0880   36.3110 C   0  0  0  0  0  0  0  0  0  0  0  0
   40.9900   24.0510   35.3540 N   0  0  0  0  0  0  0  0  0  0  0  0
   37.8070   25.0110   36.0390 H   0  0  0  0  0  0  0  0  0  0  0  0
   38.0530   23.2800   37.7270 H   0  0  0  0  0  0  0  0  0  0  0  0
   42.0210   22.5420   36.3880 H   0  0  0  0  0  0  0  0  0  0  0  0
  1 34  1  0  0  0  0
  2  7  1  0  0  0  0
  2  1  1  0  0  0  0
  3  9  1  0  0  0  0
  3  4  1  0  0  0  0
  3  2  1  0  0  0  0
  4 10  1  6  0  0  0
  4  5  1  0  0  0  0
  5  1  1  0  0  0  0
  5 12  1  0  0  0  0
  5 11  1  0  0  0  0
  6  2  1  0  0  0  0
  8  3  1  0  0  0  0
 14 13  1  0  0  0  0
 15  4  1  0  0  0  0
 15 14  2  0  0  0  0
 16 15  1  0  0  0  0
 17 16  2  0  0  0  0
 17 18  1  0  0  0  0
 18 19  2  0  0  0  0
 19 14  1  0  0  0  0
 19 23  1  0  0  0  0
 20 16  1  0  0  0  0
 21 17  1  0  0  0  0
 22 18  1  0  0  0  0
 23 33  1  0  0  0  0
 24 23  2  0  0  0  0
 24 26  1  0  0  0  0
 25 24  1  0  0  0  0
 26 27  2  0  0  0  0
 27 28  1  0  0  0  0
 28 29  1  0  0  0  0
 29 30  2  0  0  0  0
 31 30  1  0  0  0  0
 32 31  2  0  0  0  0
 33 32  1  0  0  0  0
 33 28  2  0  0  0  0
 34 39  2  0  0  0  0
 34 35  1  0  0  0  0
 35 36  2  0  0  0  0
 36 37  1  0  0  0  0
 36 41  1  0  0  0  0
 38 42  1  0  0  0  0
 38 37  2  0  0  0  0
 39 38  1  0  0  0  0
 40 35  1  0  0  0  0
M  END
>  <minimizedAffinity>
-6.72229624

$$$$

 OpenBabel03272502403D

 42 46  0  0  1  0  0  0  0  0999 V2000
   37.6890   27.6770   30.9150 N   0  0  0  0  0  0  0  0  0  0  0  0
   37.1190   27.9940   32.2080 C   0  0  0  0  0  0  0  0  0  0  0  0
   36.6560   26.6600   32.7180 C   0  0  0  0  0  0  0  0  0  0  0  0
   36.8460   25.6690   31.4820 C   0  0  1  0  0  0  0  0  0  0  0  0
   38.0580   26.2450   30.8960 C   0  0  0  0  0  0  0  0  0  0  0  0
   36.2400   28.6450   32.0040 H   0  0  0  0  0  0  0  0  0  0  0  0
   37.8190   28.4890   32.8960 H   0  0  0  0  0  0  0  0  0  0  0  0
   35.6150   26.6200   33.0550 H   0  0  0  0  0  0  0  0  0  0  0  0
   37.3420   26.3030   33.5140 H   0  0  0  0  0  0  0  0  0  0  0  0
   35.8790   25.8720   30.9900 H   0  0  0  0  0  0  0  0  0  0  0  0
   38.2680   25.9370   29.8490 H   0  0  0  0  0  0  0  0  0  0  0  0
   38.9320   26.1170   31.5480 H   0  0  0  0  0  0  0  0  0  0  0  0
   38.9120   25.0090   33.3130 F   0  0  0  0  0  0  0  0  0  0  0  0
   37.9740   24.1110   32.9360 C   0  0  0  0  0  0  0  0  0  0  0  0
   36.9750   24.3050   32.0090 C   0  0  0  0  0  0  0  0  0  0  0  0
   36.1120   23.2340   31.7220 C   0  0  0  0  0  0  0  0  0  0  0  0
   36.2510   22.0090   32.3460 C   0  0  0  0  0  0  0  0  0  0  0  0
   37.2700   21.8360   33.2810 C   0  0  0  0  0  0  0  0  0  0  0  0
   38.1330   22.9030   33.5690 C   0  0  0  0  0  0  0  0  0  0  0  0
   35.3740   23.5070   30.9830 H   0  0  0  0  0  0  0  0  0  0  0  0
   35.5360   21.2530   32.0550 H   0  0  0  0  0  0  0  0  0  0  0  0
   37.3520   20.8750   33.7490 H   0  0  0  0  0  0  0  0  0  0  0  0
   39.1650   22.6150   34.5610 C   0  0  0  0  0  0  0  0  0  0  0  0
   40.3190   22.0430   34.0220 C   0  0  0  0  0  0  0  0  0  0  0  0
   40.4430   21.8300   32.9690 H   0  0  0  0  0  0  0  0  0  0  0  0
   41.3400   21.7440   34.9150 C   0  0  0  0  0  3  0  0  0  0  0  0
   41.2480   21.9890   36.2680 C   0  0  0  0  0  3  0  0  0  0  0  0
   40.0880   22.5510   36.7260 C   0  0  0  0  0  0  0  0  0  0  0  0
   39.9200   22.8270   38.0740 C   0  0  0  0  0  3  0  0  0  0  0  0
   38.8000   23.3860   38.6120 C   0  0  0  0  0  3  0  0  0  0  0  0
   37.7860   23.6820   37.7280 C   0  0  0  0  0  3  0  0  0  0  0  0
   37.8450   23.4480   36.3510 C   0  0  0  0  0  3  0  0  0  0  0  0
   39.0220   22.8810   35.9080 C   0  0  0  0  0  0  0  0  0  0  0  0
   37.8660   28.5550   29.8290 C   0  0  0  0  0  0  0  0  0  0  0  0
   37.1750   29.7760   29.8950 C   0  0  0  0  0  0  0  0  0  0  0  0
   37.3010   30.6820   28.8390 C   0  0  0  0  0  0  0  0  0  0  0  0
   38.1150   30.3010   27.7880 N   0  0  0  0  0  0  0  0  0  0  0  0
   38.7590   29.1330   27.7590 C   0  0  0  0  0  0  0  0  0  0  0  0
   38.6330   28.2520   28.7890 N   0  0  0  0  0  0  0  0  0  0  0  0
   36.5310   30.1150   30.6940 H   0  0  0  0  0  0  0  0  0  0  0  0
   36.7980   31.6410   28.8220 H   0  0  0  0  0  0  0  0  0  0  0  0
   39.3910   28.8550   26.9260 H   0  0  0  0  0  0  0  0  0  0  0  0
  1  2  1  0  0  0  0
  2  3  1  0  0  0  0
  2  7  1  0  0  0  0
  3  8  1  0  0  0  0
  3  9  1  0  0  0  0
  4 10  1  6  0  0  0
  4 15  1  0  0  0  0
  4  3  1  0  0  0  0
  5  1  1  0  0  0  0
  5  4  1  0  0  0  0
  5 12  1  0  0  0  0
  6  2  1  0  0  0  0
 11  5  1  0  0  0  0
 14 13  1  0  0  0  0
 14 19  1  0  0  0  0
 15 14  2  0  0  0  0
 16 15  1  0  0  0  0
 16 17  2  0  0  0  0
 17 18  1  0  0  0  0
 18 19  2  0  0  0  0
 18 22  1  0  0  0  0
 19 23  1  0  0  0  0
 20 16  1  0  0  0  0
 21 17  1  0  0  0  0
 23 33  1  0  0  0  0
 24 23  2  0  0  0  0
 24 26  1  0  0  0  0
 25 24  1  0  0  0  0
 26 27  2  0  0  0  0
 27 28  1  0  0  0  0
 28 29  1  0  0  0  0
 29 30  2  0  0  0  0
 31 30  1  0  0  0  0
 32 31  2  0  0  0  0
 33 32  1  0  0  0  0
 33 28  2  0  0  0  0
 34 35  1  0  0  0  0
 34  1  1  0  0  0  0
 35 40  1  0  0  0  0
 36 35  2  0  0  0  0
 37 36  1  0  0  0  0
 38 37  2  0  0  0  0
 38 39  1  0  0  0  0
 39 34  2  0  0  0  0
 41 36  1  0  0  0  0
 42 38  1  0  0  0  0
M  END
>  <minimizedAffinity>
-6.4158721

$$$$

 OpenBabel03272502403D

 42 46  0  0  1  0  0  0  0  0999 V2000
   36.9700   28.5420   30.8330 N   0  0  0  0  0  0  0  0  0  0  0  0
   38.2960   28.2790   30.3120 C   0  0  0  0  0  0  0  0  0  0  0  0
   38.7440   27.0800   31.0960 C   0  0  0  0  0  0  0  0  0  0  0  0
   37.6180   26.8850   32.2100 C   0  0  1  0  0  0  0  0  0  0  0  0
   36.4430   27.3020   31.4420 C   0  0  0  0  0  0  0  0  0  0  0  0
   38.9140   29.1620   30.5880 H   0  0  0  0  0  0  0  0  0  0  0  0
   38.3240   28.1080   29.2270 H   0  0  0  0  0  0  0  0  0  0  0  0
   39.7190   27.1730   31.5830 H   0  0  0  0  0  0  0  0  0  0  0  0
   38.7070   26.1760   30.4540 H   0  0  0  0  0  0  0  0  0  0  0  0
   38.0340   27.5880   32.9530 H   0  0  0  0  0  0  0  0  0  0  0  0
   35.5450   27.5460   32.0480 H   0  0  0  0  0  0  0  0  0  0  0  0
   36.2140   26.6020   30.6270 H   0  0  0  0  0  0  0  0  0  0  0  0
   38.6310   26.1570   34.7600 F   0  0  0  0  0  0  0  0  0  0  0  0
   38.0950   25.2480   33.9150 C   0  0  0  0  0  0  0  0  0  0  0  0
   37.6390   25.4810   32.6370 C   0  0  0  0  0  0  0  0  0  0  0  0
   37.1450   24.3940   31.8950 C   0  0  0  0  0  0  0  0  0  0  0  0
   37.1120   23.1170   32.4210 C   0  0  0  0  0  0  0  0  0  0  0  0
   37.5790   22.9060   33.7170 C   0  0  0  0  0  0  0  0  0  0  0  0
   38.0730   23.9880   34.4600 C   0  0  0  0  0  0  0  0  0  0  0  0
   36.8200   24.7020   30.9120 H   0  0  0  0  0  0  0  0  0  0  0  0
   36.7130   22.3540   31.7680 H   0  0  0  0  0  0  0  0  0  0  0  0
   37.5400   21.9050   34.0980 H   0  0  0  0  0  0  0  0  0  0  0  0
   38.5370   23.6560   35.8040 C   0  0  0  0  0  0  0  0  0  0  0  0
   37.6790   24.0880   36.8180 C   0  0  0  0  0  0  0  0  0  0  0  0
   36.7560   24.6200   36.6310 H   0  0  0  0  0  0  0  0  0  0  0  0
   38.0640   23.8030   38.1210 C   0  0  0  0  0  3  0  0  0  0  0  0
   39.2250   23.1290   38.4300 C   0  0  0  0  0  3  0  0  0  0  0  0
   40.0170   22.7360   37.3860 C   0  0  0  0  0  0  0  0  0  0  0  0
   41.2020   22.0540   37.6150 C   0  0  0  0  0  3  0  0  0  0  0  0
   42.0470   21.6260   36.6350 C   0  0  0  0  0  3  0  0  0  0  0  0
   41.6670   21.9080   35.3420 C   0  0  0  0  0  3  0  0  0  0  0  0
   40.4960   22.5890   34.9930 C   0  0  0  0  0  3  0  0  0  0  0  0
   39.7120   22.9770   36.0580 C   0  0  0  0  0  0  0  0  0  0  0  0
   36.2720   29.7640   30.7960 C   0  0  0  0  0  0  0  0  0  0  0  0
   36.8410   30.7840   30.0150 C   0  0  0  0  0  0  0  0  0  0  0  0
   36.2010   32.0230   29.9510 C   0  0  0  0  0  0  0  0  0  0  0  0
   35.0300   32.1560   30.6750 N   0  0  0  0  0  0  0  0  0  0  0  0
   34.5170   31.1650   31.4070 C   0  0  0  0  0  0  0  0  0  0  0  0
   35.1440   29.9580   31.4670 N   0  0  0  0  0  0  0  0  0  0  0  0
   37.7510   30.7250   29.4330 H   0  0  0  0  0  0  0  0  0  0  0  0
   36.5820   32.8550   29.3700 H   0  0  0  0  0  0  0  0  0  0  0  0
   33.5990   31.2900   31.9660 H   0  0  0  0  0  0  0  0  0  0  0  0
  1  5  1  0  0  0  0
  2  6  1  0  0  0  0
  2  1  1  0  0  0  0
  2  3  1  0  0  0  0
  3  8  1  0  0  0  0
  3  4  1  0  0  0  0
  4 15  1  0  0  0  0
  4 10  1  1  0  0  0
  5 11  1  0  0  0  0
  5  4  1  0  0  0  0
  7  2  1  0  0  0  0
  9  3  1  0  0  0  0
 12  5  1  0  0  0  0
 14 19  1  0  0  0  0
 14 13  1  0  0  0  0
 15 14  2  0  0  0  0
 16 17  2  0  0  0  0
 16 15  1  0  0  0  0
 17 18  1  0  0  0  0
 18 22  1  0  0  0  0
 18 19  2  0  0  0  0
 19 23  1  0  0  0  0
 20 16  1  0  0  0  0
 21 17  1  0  0  0  0
 23 33  2  0  0  0  0
 23 24  1  0  0  0  0
 24 26  2  0  0  0  0
 25 24  1  0  0  0  0
 26 27  1  0  0  0  0
 28 29  1  0  0  0  0
 28 27  2  0  0  0  0
 30 29  2  0  0  0  0
 31 30  1  0  0  0  0
 32 31  2  0  0  0  0
 32 33  1  0  0  0  0
 33 28  1  0  0  0  0
 34  1  1  0  0  0  0
 34 39  1  0  0  0  0
 35 34  2  0  0  0  0
 36 35  1  0  0  0  0
 36 37  2  0  0  0  0
 37 38  1  0  0  0  0
 38 39  2  0  0  0  0
 38 42  1  0  0  0  0
 40 35  1  0  0  0  0
 41 36  1  0  0  0  0
M  END
>  <minimizedAffinity>
-6.41032219

$$$$

 OpenBabel03272502403D

 42 46  0  0  1  0  0  0  0  0999 V2000
   33.8300   32.1530   35.6110 N   0  0  0  0  0  0  0  0  0  0  0  0
   35.0430   32.0480   36.3950 C   0  0  0  0  0  0  0  0  0  0  0  0
   35.8710   31.0630   35.6230 C   0  0  0  0  0  0  0  0  0  0  0  0
   34.8890   30.5130   34.4920 C   0  0  1  0  0  0  0  0  0  0  0  0
   34.1230   31.7320   34.2230 C   0  0  0  0  0  0  0  0  0  0  0  0
   34.7410   31.6040   37.3690 H   0  0  0  0  0  0  0  0  0  0  0  0
   35.5610   33.0060   36.5480 H   0  0  0  0  0  0  0  0  0  0  0  0
   36.2620   30.2200   36.2010 H   0  0  0  0  0  0  0  0  0  0  0  0
   36.6910   31.5920   35.0940 H   0  0  0  0  0  0  0  0  0  0  0  0
   34.4150   29.7180   35.0930 H   0  0  0  0  0  0  0  0  0  0  0  0
   33.1670   31.5780   33.6800 H   0  0  0  0  0  0  0  0  0  0  0  0
   34.7410   32.5130   33.7620 H   0  0  0  0  0  0  0  0  0  0  0  0
   36.1600   27.9790   34.6470 F   0  0  0  0  0  0  0  0  0  0  0  0
   36.2280   28.7490   33.5370 C   0  0  0  0  0  0  0  0  0  0  0  0
   35.7090   30.0150   33.3810 C   0  0  0  0  0  0  0  0  0  0  0  0
   35.9150   30.6750   32.1570 C   0  0  0  0  0  0  0  0  0  0  0  0
   36.6180   30.0820   31.1270 C   0  0  0  0  0  0  0  0  0  0  0  0
   37.1350   28.8000   31.3090 C   0  0  0  0  0  0  0  0  0  0  0  0
   36.9320   28.1380   32.5290 C   0  0  0  0  0  0  0  0  0  0  0  0
   35.4630   31.6560   32.1560 H   0  0  0  0  0  0  0  0  0  0  0  0
   36.7180   30.6740   30.2290 H   0  0  0  0  0  0  0  0  0  0  0  0
   37.6760   28.3660   30.4920 H   0  0  0  0  0  0  0  0  0  0  0  0
   37.5150   26.8030   32.6140 C   0  0  0  0  0  0  0  0  0  0  0  0
   38.7650   26.7730   33.2350 C   0  0  0  0  0  0  0  0  0  0  0  0
   39.2610   27.6540   33.6190 H   0  0  0  0  0  0  0  0  0  0  0  0
   39.3740   25.5300   33.3470 C   0  0  0  0  0  3  0  0  0  0  0  0
   38.7990   24.3680   32.8810 C   0  0  0  0  0  3  0  0  0  0  0  0
   37.5720   24.4730   32.2830 C   0  0  0  0  0  0  0  0  0  0  0  0
   36.9290   23.3490   31.7880 C   0  0  0  0  0  3  0  0  0  0  0  0
   35.7100   23.3650   31.1810 C   0  0  0  0  0  3  0  0  0  0  0  0
   35.1050   24.5960   31.0680 C   0  0  0  0  0  3  0  0  0  0  0  0
   35.6580   25.7940   31.5300 C   0  0  0  0  0  3  0  0  0  0  0  0
   36.8940   25.6690   32.1290 C   0  0  0  0  0  0  0  0  0  0  0  0
   32.5630   32.5690   36.0610 C   0  0  0  0  0  0  0  0  0  0  0  0
   31.5090   31.6560   35.8910 C   0  0  0  0  0  0  0  0  0  0  0  0
   30.2270   32.0200   36.3060 C   0  0  0  0  0  0  0  0  0  0  0  0
   30.0880   33.2760   36.8660 N   0  0  0  0  0  0  0  0  0  0  0  0
   31.1110   34.1190   37.0130 C   0  0  0  0  0  0  0  0  0  0  0  0
   32.3610   33.7620   36.6060 N   0  0  0  0  0  0  0  0  0  0  0  0
   31.5720   30.6660   35.4610 H   0  0  0  0  0  0  0  0  0  0  0  0
   29.3680   31.3680   36.2060 H   0  0  0  0  0  0  0  0  0  0  0  0
   30.9800   35.0990   37.4540 H   0  0  0  0  0  0  0  0  0  0  0  0
  1 34  1  0  0  0  0
  1  2  1  0  0  0  0
  2  7  1  0  0  0  0
  2  6  1  0  0  0  0
  3  8  1  0  0  0  0
  3  2  1  0  0  0  0
  4 10  1  1  0  0  0
  4  3  1  0  0  0  0
  5  4  1  0  0  0  0
  5  1  1  0  0  0  0
  9  3  1  0  0  0  0
 11  5  1  0  0  0  0
 12  5  1  0  0  0  0
 14 13  1  0  0  0  0
 15 14  1  0  0  0  0
 15  4  1  0  0  0  0
 16 15  2  0  0  0  0
 17 18  2  0  0  0  0
 17 16  1  0  0  0  0
 18 19  1  0  0  0  0
 19 23  1  0  0  0  0
 19 14  2  0  0  0  0
 20 16  1  0  0  0  0
 21 17  1  0  0  0  0
 22 18  1  0  0  0  0
 23 24  1  0  0  0  0
 24 26  2  0  0  0  0
 24 25  1  0  0  0  0
 27 26  1  0  0  0  0
 28 27  2  0  0  0  0
 29 28  1  0  0  0  0
 30 29  2  0  0  0  0
 31 30  1  0  0  0  0
 31 32  2  0  0  0  0
 32 33  1  0  0  0  0
 33 28  1  0  0  0  0
 33 23  2  0  0  0  0
 34 39  1  0  0  0  0
 35 34  2  0  0  0  0
 35 36  1  0  0  0  0
 36 37  2  0  0  0  0
 37 38  1  0  0  0  0
 38 42  1  0  0  0  0
 39 38  2  0  0  0  0
 40 35  1  0  0  0  0
 41 36  1  0  0  0  0
M  END
>  <minimizedAffinity>
-6.40620995

$$$$

 OpenBabel03272502403D

 42 46  0  0  1  0  0  0  0  0999 V2000
   40.1610   25.6790   33.0690 N   0  0  0  0  0  0  0  0  0  0  0  0
   39.4510   24.8030   32.1600 C   0  0  0  0  0  0  0  0  0  0  0  0
   38.1540   25.5240   31.9270 C   0  0  0  0  0  0  0  0  0  0  0  0
   38.1780   26.7370   32.9630 C   0  0  1  0  0  0  0  0  0  0  0  0
   39.6100   27.0450   32.9420 C   0  0  0  0  0  0  0  0  0  0  0  0
   39.2630   23.8630   32.7240 H   0  0  0  0  0  0  0  0  0  0  0  0
   39.9910   24.5940   31.2260 H   0  0  0  0  0  0  0  0  0  0  0  0
   37.2490   24.9300   32.0890 H   0  0  0  0  0  0  0  0  0  0  0  0
   38.1530   25.9780   30.9140 H   0  0  0  0  0  0  0  0  0  0  0  0
   37.7740   26.1880   33.8310 H   0  0  0  0  0  0  0  0  0  0  0  0
   39.9720   27.6650   33.7890 H   0  0  0  0  0  0  0  0  0  0  0  0
   39.9310   27.4440   31.9700 H   0  0  0  0  0  0  0  0  0  0  0  0
   35.9640   27.6380   34.4940 F   0  0  0  0  0  0  0  0  0  0  0  0
   36.2850   28.1910   33.3020 C   0  0  0  0  0  0  0  0  0  0  0  0
   37.2900   27.7880   32.4520 C   0  0  0  0  0  0  0  0  0  0  0  0
   37.4460   28.4690   31.2330 C   0  0  0  0  0  0  0  0  0  0  0  0
   36.6200   29.5180   30.8810 C   0  0  0  0  0  0  0  0  0  0  0  0
   35.6080   29.9080   31.7580 C   0  0  0  0  0  0  0  0  0  0  0  0
   35.4490   29.2300   32.9760 C   0  0  0  0  0  0  0  0  0  0  0  0
   38.2640   28.0630   30.6560 H   0  0  0  0  0  0  0  0  0  0  0  0
   36.8250   29.9740   29.9230 H   0  0  0  0  0  0  0  0  0  0  0  0
   34.9830   30.7250   31.4580 H   0  0  0  0  0  0  0  0  0  0  0  0
   34.3610   29.7180   33.8180 C   0  0  0  0  0  0  0  0  0  0  0  0
   33.1100   29.2010   33.4750 C   0  0  0  0  0  0  0  0  0  0  0  0
   32.9540   28.5060   32.6610 H   0  0  0  0  0  0  0  0  0  0  0  0
   32.0310   29.6260   34.2380 C   0  0  0  0  0  3  0  0  0  0  0  0
   32.1570   30.5100   35.2890 C   0  0  0  0  0  3  0  0  0  0  0  0
   33.4130   30.9750   35.5680 C   0  0  0  0  0  0  0  0  0  0  0  0
   33.6220   31.8670   36.6080 C   0  0  0  0  0  3  0  0  0  0  0  0
   34.8370   32.3770   36.9540 C   0  0  0  0  0  3  0  0  0  0  0  0
   35.9080   31.9570   36.1970 C   0  0  0  0  0  3  0  0  0  0  0  0
   35.8160   31.0620   35.1260 C   0  0  0  0  0  3  0  0  0  0  0  0
   34.5430   30.6050   34.8600 C   0  0  0  0  0  0  0  0  0  0  0  0
   41.1990   25.3220   33.9510 C   0  0  0  0  0  0  0  0  0  0  0  0
   40.9840   24.1790   34.7380 C   0  0  0  0  0  0  0  0  0  0  0  0
   41.9730   23.7850   35.6420 C   0  0  0  0  0  0  0  0  0  0  0  0
   43.1140   24.5650   35.6930 N   0  0  0  0  0  0  0  0  0  0  0  0
   43.2860   25.6460   34.9290 C   0  0  0  0  0  0  0  0  0  0  0  0
   42.3190   26.0280   34.0500 N   0  0  0  0  0  0  0  0  0  0  0  0
   40.1120   23.5410   34.7310 H   0  0  0  0  0  0  0  0  0  0  0  0
   41.8760   22.9160   36.2810 H   0  0  0  0  0  0  0  0  0  0  0  0
   44.1860   26.2420   34.9860 H   0  0  0  0  0  0  0  0  0  0  0  0
  1 34  1  0  0  0  0
  2  6  1  0  0  0  0
  2  1  1  0  0  0  0
  3  8  1  0  0  0  0
  3  2  1  0  0  0  0
  3  4  1  0  0  0  0
  4 10  1  1  0  0  0
  5  4  1  0  0  0  0
  5  1  1  0  0  0  0
  5 11  1  0  0  0  0
  7  2  1  0  0  0  0
  9  3  1  0  0  0  0
 12  5  1  0  0  0  0
 14 13  1  0  0  0  0
 15  4  1  0  0  0  0
 15 14  2  0  0  0  0
 16 15  1  0  0  0  0
 17 16  2  0  0  0  0
 17 18  1  0  0  0  0
 18 19  2  0  0  0  0
 19 14  1  0  0  0  0
 19 23  1  0  0  0  0
 20 16  1  0  0  0  0
 21 17  1  0  0  0  0
 22 18  1  0  0  0  0
 23 33  1  0  0  0  0
 24 23  2  0  0  0  0
 24 26  1  0  0  0  0
 25 24  1  0  0  0  0
 26 27  2  0  0  0  0
 27 28  1  0  0  0  0
 28 29  1  0  0  0  0
 29 30  2  0  0  0  0
 31 30  1  0  0  0  0
 32 31  2  0  0  0  0
 33 32  1  0  0  0  0
 33 28  2  0  0  0  0
 34 39  2  0  0  0  0
 34 35  1  0  0  0  0
 35 36  2  0  0  0  0
 36 37  1  0  0  0  0
 36 41  1  0  0  0  0
 38 42  1  0  0  0  0
 38 37  2  0  0  0  0
 39 38  1  0  0  0  0
 40 35  1  0  0  0  0
M  END
>  <minimizedAffinity>
-6.36654234

$$$$
