
 OpenBabel03272506103D

 46 50  0  0  0  0  0  0  0  0999 V2000
   36.8180   26.2410   32.4290 C   0  0  0  0  0  0  0  0  0  0  0  0
   36.5040   25.9670   31.3790 H   0  0  0  0  0  0  0  0  0  0  0  0
   35.8700   26.3950   32.9640 H   0  0  0  0  0  0  0  0  0  0  0  0
   37.6100   25.1170   33.0000 C   0  0  0  0  0  0  0  0  0  0  0  0
   38.1490   24.1400   32.0990 C   0  0  0  0  0  0  0  0  0  0  0  0
   38.9760   23.0460   33.2140 S   0  0  0  0  0  0  0  0  0  0  0  0
   38.4980   24.0350   34.7550 C   0  0  0  0  0  0  0  0  0  0  0  0
   37.8760   24.9120   34.2500 N   0  0  0  0  0  0  0  0  0  0  0  0
   38.7890   23.8140   36.1580 N   0  0  0  0  0  0  0  0  0  0  0  0
   40.0160   23.1540   36.4550 C   0  0  0  0  0  0  0  0  0  0  0  0
   40.0960   22.6090   37.8400 C   0  0  0  0  0  0  0  0  0  0  0  0
   38.8160   22.6550   38.5590 N   0  0  0  0  0  0  0  0  0  0  0  0
   38.3970   24.0460   38.5130 C   0  0  0  0  0  0  0  0  0  0  0  0
   37.8260   24.2750   37.1440 C   0  0  0  0  0  0  0  0  0  0  0  0
   38.1800   23.9200   31.0790 H   0  0  0  0  0  0  0  0  0  0  0  0
   40.8610   23.8550   36.2430 H   0  0  0  0  0  0  0  0  0  0  0  0
   40.1380   22.3110   35.7420 H   0  0  0  0  0  0  0  0  0  0  0  0
   40.5760   21.6220   37.8900 H   0  0  0  0  0  0  0  0  0  0  0  0
   40.7730   23.2990   38.4270 H   0  0  0  0  0  0  0  0  0  0  0  0
   39.0000   22.3600   39.5300 H   0  0  0  0  0  0  0  0  0  0  0  0
   37.5340   24.1050   39.2330 H   0  0  0  0  0  0  0  0  0  0  0  0
   39.2210   24.7080   38.7880 H   0  0  0  0  0  0  0  0  0  0  0  0
   37.6680   25.3620   37.0030 H   0  0  0  0  0  0  0  0  0  0  0  0
   36.8590   23.7480   37.0690 H   0  0  0  0  0  0  0  0  0  0  0  0
   37.6050   27.5080   32.3760 C   0  0  0  0  0  0  0  0  0  0  0  0
   38.2740   27.5170   31.4860 H   0  0  0  0  0  0  0  0  0  0  0  0
   38.1730   27.6500   33.3250 H   0  0  0  0  0  0  0  0  0  0  0  0
   35.4880   30.1630   30.8380 C   0  0  0  0  0  0  0  0  0  0  0  0
   34.9710   30.8020   31.9510 C   0  0  0  0  0  0  0  0  0  0  0  0
   35.3330   30.3430   33.2400 C   0  0  0  0  0  0  0  0  0  0  0  0
   36.1880   29.2830   33.2870 N   0  0  0  0  0  0  0  0  0  0  0  0
   36.6670   28.6910   32.1790 C   0  0  0  0  0  0  0  0  0  0  0  0
   36.3130   29.1340   30.9880 N   0  0  0  0  0  0  0  0  0  0  0  0
   35.2170   30.5030   29.8500 H   0  0  0  0  0  0  0  0  0  0  0  0
   34.3520   31.6430   31.7710 H   0  0  0  0  0  0  0  0  0  0  0  0
   34.9570   30.9070   34.5070 C   0  0  0  0  0  0  0  0  0  0  0  0
   35.8160   31.8550   35.0540 C   0  0  0  0  0  0  0  0  0  0  0  0
   36.7000   32.1550   34.5520 H   0  0  0  0  0  0  0  0  0  0  0  0
   35.6220   32.4880   36.2600 C   0  0  0  0  0  3  0  0  0  0  0  0
   34.5110   32.1910   37.0200 C   0  0  0  0  0  3  0  0  0  0  0  0
   33.6330   31.2620   36.5340 C   0  0  0  0  0  0  0  0  0  0  0  0
   32.5320   30.9100   37.2780 C   0  0  0  0  0  3  0  0  0  0  0  0
   31.6380   29.9390   36.8390 C   0  0  0  0  0  3  0  0  0  0  0  0
   31.8820   29.3290   35.6240 C   0  0  0  0  0  3  0  0  0  0  0  0
   32.9960   29.7180   34.9200 C   0  0  0  0  0  3  0  0  0  0  0  0
   33.8860   30.6750   35.3330 C   0  0  0  0  0  0  0  0  0  0  0  0
  1  3  1  0  0  0  0
  1  4  1  0  0  0  0
  2  1  1  0  0  0  0
  4  8  1  0  0  0  0
  5  4  2  0  0  0  0
  5  6  1  0  0  0  0
  6  7  1  0  0  0  0
  7  9  1  0  0  0  0
  8  7  2  0  0  0  0
  9 10  1  0  0  0  0
  9 14  1  0  0  0  0
 10 11  1  0  0  0  0
 11 18  1  0  0  0  0
 11 19  1  0  0  0  0
 11 12  1  0  0  0  0
 12 20  1  0  0  0  0
 13 12  1  0  0  0  0
 13 22  1  0  0  0  0
 13 21  1  0  0  0  0
 14 13  1  0  0  0  0
 15  5  1  0  0  0  0
 16 10  1  0  0  0  0
 17 10  1  0  0  0  0
 23 14  1  0  0  0  0
 24 14  1  0  0  0  0
 25  1  1  0  0  0  0
 25 27  1  0  0  0  0
 26 25  1  0  0  0  0
 28 33  2  0  0  0  0
 28 29  1  0  0  0  0
 29 30  2  0  0  0  0
 30 31  1  0  0  0  0
 30 36  1  0  0  0  0
 32 25  1  0  0  0  0
 32 31  2  0  0  0  0
 33 32  1  0  0  0  0
 34 28  1  0  0  0  0
 35 29  1  0  0  0  0
 36 37  2  0  0  0  0
 36 46  1  0  0  0  0
 37 39  1  0  0  0  0
 38 37  1  0  0  0  0
 39 40  2  0  0  0  0
 41 40  1  0  0  0  0
 41 42  1  0  0  0  0
 43 42  2  0  0  0  0
 44 43  1  0  0  0  0
 45 46  1  0  0  0  0
 45 44  2  0  0  0  0
 46 41  2  0  0  0  0
M  END
>  <minimizedAffinity>
-7.41343594

$$$$

 OpenBabel03272506103D

 46 50  0  0  0  0  0  0  0  0999 V2000
   36.7320   26.0410   32.3270 C   0  0  0  0  0  0  0  0  0  0  0  0
   35.9010   25.5300   31.7580 H   0  0  0  0  0  0  0  0  0  0  0  0
   36.2110   26.6400   33.0870 H   0  0  0  0  0  0  0  0  0  0  0  0
   37.6070   25.0000   32.9340 C   0  0  0  0  0  0  0  0  0  0  0  0
   38.2810   24.0860   32.0590 C   0  0  0  0  0  0  0  0  0  0  0  0
   39.1650   23.0780   33.2110 S   0  0  0  0  0  0  0  0  0  0  0  0
   38.5210   24.0080   34.7270 C   0  0  0  0  0  0  0  0  0  0  0  0
   37.8370   24.8190   34.1950 N   0  0  0  0  0  0  0  0  0  0  0  0
   38.7700   23.8130   36.1430 N   0  0  0  0  0  0  0  0  0  0  0  0
   40.0430   23.2790   36.4950 C   0  0  0  0  0  0  0  0  0  0  0  0
   40.1160   22.7400   37.8830 C   0  0  0  0  0  0  0  0  0  0  0  0
   38.8080   22.6540   38.5440 N   0  0  0  0  0  0  0  0  0  0  0  0
   38.2520   23.9960   38.4780 C   0  0  0  0  0  0  0  0  0  0  0  0
   37.7220   24.1710   37.0840 C   0  0  0  0  0  0  0  0  0  0  0  0
   38.3800   23.8740   31.0420 H   0  0  0  0  0  0  0  0  0  0  0  0
   40.8220   24.0630   36.3190 H   0  0  0  0  0  0  0  0  0  0  0  0
   40.2810   22.4550   35.7890 H   0  0  0  0  0  0  0  0  0  0  0  0
   40.6900   21.8060   37.9550 H   0  0  0  0  0  0  0  0  0  0  0  0
   40.6930   23.4920   38.4980 H   0  0  0  0  0  0  0  0  0  0  0  0
   38.9770   22.3760   39.5220 H   0  0  0  0  0  0  0  0  0  0  0  0
   37.3570   23.9640   39.1580 H   0  0  0  0  0  0  0  0  0  0  0  0
   38.9930   24.7370   38.7880 H   0  0  0  0  0  0  0  0  0  0  0  0
   37.4620   25.2360   36.9350 H   0  0  0  0  0  0  0  0  0  0  0  0
   36.8190   23.5490   36.9670 H   0  0  0  0  0  0  0  0  0  0  0  0
   37.4820   26.9230   31.3850 C   0  0  0  0  0  0  0  0  0  0  0  0
   37.4480   26.5110   30.3510 H   0  0  0  0  0  0  0  0  0  0  0  0
   38.5300   27.0650   31.7410 H   0  0  0  0  0  0  0  0  0  0  0  0
   36.4730   30.3400   30.2920 C   0  0  0  0  0  0  0  0  0  0  0  0
   35.5060   30.6690   31.2250 C   0  0  0  0  0  0  0  0  0  0  0  0
   35.1820   29.7370   32.2390 C   0  0  0  0  0  0  0  0  0  0  0  0
   35.8670   28.5600   32.2220 N   0  0  0  0  0  0  0  0  0  0  0  0
   36.8010   28.2810   31.2950 C   0  0  0  0  0  0  0  0  0  0  0  0
   37.0850   29.1630   30.3570 N   0  0  0  0  0  0  0  0  0  0  0  0
   36.7280   31.0420   29.5130 H   0  0  0  0  0  0  0  0  0  0  0  0
   35.0830   31.6370   31.1500 H   0  0  0  0  0  0  0  0  0  0  0  0
   34.2600   29.9130   33.3270 C   0  0  0  0  0  0  0  0  0  0  0  0
   32.9910   29.3630   33.1720 C   0  0  0  0  0  0  0  0  0  0  0  0
   32.7220   28.8300   32.2970 H   0  0  0  0  0  0  0  0  0  0  0  0
   31.9810   29.4450   34.1020 C   0  0  0  0  0  3  0  0  0  0  0  0
   32.1920   30.1110   35.2890 C   0  0  0  0  0  3  0  0  0  0  0  0
   33.4200   30.6760   35.4960 C   0  0  0  0  0  0  0  0  0  0  0  0
   33.6610   31.3830   36.6490 C   0  0  0  0  0  3  0  0  0  0  0  0
   34.8820   32.0080   36.8790 C   0  0  0  0  0  3  0  0  0  0  0  0
   35.8610   31.9020   35.9100 C   0  0  0  0  0  3  0  0  0  0  0  0
   35.5700   31.1840   34.7750 C   0  0  0  0  0  3  0  0  0  0  0  0
   34.3750   30.5580   34.5320 C   0  0  0  0  0  0  0  0  0  0  0  0
  1  4  1  0  0  0  0
  1  3  1  0  0  0  0
  2  1  1  0  0  0  0
  4  8  1  0  0  0  0
  5  4  2  0  0  0  0
  5  6  1  0  0  0  0
  6  7  1  0  0  0  0
  7  9  1  0  0  0  0
  8  7  2  0  0  0  0
  9 10  1  0  0  0  0
  9 14  1  0  0  0  0
 10 11  1  0  0  0  0
 11 18  1  0  0  0  0
 11 19  1  0  0  0  0
 11 12  1  0  0  0  0
 12 20  1  0  0  0  0
 13 12  1  0  0  0  0
 13 22  1  0  0  0  0
 13 21  1  0  0  0  0
 14 13  1  0  0  0  0
 15  5  1  0  0  0  0
 16 10  1  0  0  0  0
 17 10  1  0  0  0  0
 23 14  1  0  0  0  0
 24 14  1  0  0  0  0
 25 27  1  0  0  0  0
 25  1  1  0  0  0  0
 26 25  1  0  0  0  0
 28 33  2  0  0  0  0
 28 29  1  0  0  0  0
 29 30  2  0  0  0  0
 30 36  1  0  0  0  0
 31 30  1  0  0  0  0
 32 25  1  0  0  0  0
 32 31  2  0  0  0  0
 33 32  1  0  0  0  0
 34 28  1  0  0  0  0
 35 29  1  0  0  0  0
 36 46  1  0  0  0  0
 37 36  2  0  0  0  0
 37 39  1  0  0  0  0
 38 37  1  0  0  0  0
 39 40  2  0  0  0  0
 40 41  1  0  0  0  0
 41 42  1  0  0  0  0
 42 43  2  0  0  0  0
 44 43  1  0  0  0  0
 45 44  2  0  0  0  0
 46 45  1  0  0  0  0
 46 41  2  0  0  0  0
M  END
>  <minimizedAffinity>
-7.25211096

$$$$

 OpenBabel03272506103D

 46 50  0  0  0  0  0  0  0  0999 V2000
   35.9300   28.2030   32.3630 C   0  0  0  0  0  0  0  0  0  0  0  0
   35.2540   27.3000   32.3090 H   0  0  0  0  0  0  0  0  0  0  0  0
   36.1950   28.4070   31.3150 H   0  0  0  0  0  0  0  0  0  0  0  0
   35.1760   29.3280   32.9810 C   0  0  0  0  0  0  0  0  0  0  0  0
   35.6620   30.6610   32.7820 C   0  0  0  0  0  0  0  0  0  0  0  0
   34.4730   31.6120   33.6790 S   0  0  0  0  0  0  0  0  0  0  0  0
   33.4650   30.1020   34.2120 C   0  0  0  0  0  0  0  0  0  0  0  0
   34.1010   29.2400   33.6970 N   0  0  0  0  0  0  0  0  0  0  0  0
   32.2630   29.9920   35.0140 N   0  0  0  0  0  0  0  0  0  0  0  0
   31.3590   31.0920   34.9560 C   0  0  0  0  0  0  0  0  0  0  0  0
   30.3580   31.1190   36.0610 C   0  0  0  0  0  0  0  0  0  0  0  0
   30.6340   30.1410   37.1200 N   0  0  0  0  0  0  0  0  0  0  0  0
   30.7120   28.8540   36.4480 C   0  0  0  0  0  0  0  0  0  0  0  0
   32.0680   28.7890   35.8060 C   0  0  0  0  0  0  0  0  0  0  0  0
   36.4420   31.1690   32.3080 H   0  0  0  0  0  0  0  0  0  0  0  0
   30.8620   31.0960   33.9540 H   0  0  0  0  0  0  0  0  0  0  0  0
   31.9520   32.0310   35.0010 H   0  0  0  0  0  0  0  0  0  0  0  0
   30.1730   32.1290   36.4530 H   0  0  0  0  0  0  0  0  0  0  0  0
   29.3720   30.7850   35.6190 H   0  0  0  0  0  0  0  0  0  0  0  0
   29.8360   30.1640   37.7730 H   0  0  0  0  0  0  0  0  0  0  0  0
   30.7170   28.1000   37.2820 H   0  0  0  0  0  0  0  0  0  0  0  0
   29.8700   28.7230   35.7650 H   0  0  0  0  0  0  0  0  0  0  0  0
   32.0990   27.9130   35.1310 H   0  0  0  0  0  0  0  0  0  0  0  0
   32.8290   28.6750   36.5960 H   0  0  0  0  0  0  0  0  0  0  0  0
   37.1440   27.8420   33.1530 C   0  0  0  0  0  0  0  0  0  0  0  0
   37.0120   28.1200   34.2230 H   0  0  0  0  0  0  0  0  0  0  0  0
   38.0490   28.3190   32.7080 H   0  0  0  0  0  0  0  0  0  0  0  0
   37.2440   24.2610   32.1260 C   0  0  0  0  0  0  0  0  0  0  0  0
   37.7160   23.6440   33.2700 C   0  0  0  0  0  0  0  0  0  0  0  0
   38.0070   24.4330   34.4090 C   0  0  0  0  0  0  0  0  0  0  0  0
   37.7910   25.7730   34.2880 N   0  0  0  0  0  0  0  0  0  0  0  0
   37.3300   26.3310   33.1550 C   0  0  0  0  0  0  0  0  0  0  0  0
   37.0680   25.5770   32.1060 N   0  0  0  0  0  0  0  0  0  0  0  0
   37.0200   23.6700   31.2510 H   0  0  0  0  0  0  0  0  0  0  0  0
   37.7960   22.5880   33.2430 H   0  0  0  0  0  0  0  0  0  0  0  0
   38.4420   23.9790   35.7010 C   0  0  0  0  0  0  0  0  0  0  0  0
   37.7160   24.4240   36.8010 C   0  0  0  0  0  0  0  0  0  0  0  0
   36.8750   25.0580   36.6890 H   0  0  0  0  0  0  0  0  0  0  0  0
   37.9960   24.1010   38.1090 C   0  0  0  0  0  3  0  0  0  0  0  0
   39.0660   23.2830   38.4000 C   0  0  0  0  0  3  0  0  0  0  0  0
   39.8190   22.8180   37.3580 C   0  0  0  0  0  0  0  0  0  0  0  0
   40.9170   22.0300   37.6070 C   0  0  0  0  0  3  0  0  0  0  0  0
   41.7330   21.5720   36.5780 C   0  0  0  0  0  3  0  0  0  0  0  0
   41.4120   21.9300   35.2830 C   0  0  0  0  0  3  0  0  0  0  0  0
   40.3040   22.7190   35.0880 C   0  0  0  0  0  3  0  0  0  0  0  0
   39.4850   23.1770   36.0870 C   0  0  0  0  0  0  0  0  0  0  0  0
  1  4  1  0  0  0  0
  1 25  1  0  0  0  0
  2  1  1  0  0  0  0
  3  1  1  0  0  0  0
  4  8  1  0  0  0  0
  5  4  2  0  0  0  0
  5  6  1  0  0  0  0
  6  7  1  0  0  0  0
  7  9  1  0  0  0  0
  8  7  2  0  0  0  0
  9 14  1  0  0  0  0
 10 17  1  0  0  0  0
 10  9  1  0  0  0  0
 10 11  1  0  0  0  0
 11 18  1  0  0  0  0
 11 12  1  0  0  0  0
 12 20  1  0  0  0  0
 13 12  1  0  0  0  0
 13 21  1  0  0  0  0
 14 13  1  0  0  0  0
 14 24  1  0  0  0  0
 15  5  1  0  0  0  0
 16 10  1  0  0  0  0
 19 11  1  0  0  0  0
 22 13  1  0  0  0  0
 23 14  1  0  0  0  0
 25 32  1  0  0  0  0
 25 26  1  0  0  0  0
 27 25  1  0  0  0  0
 28 29  1  0  0  0  0
 29 30  2  0  0  0  0
 30 36  1  0  0  0  0
 31 30  1  0  0  0  0
 32 31  2  0  0  0  0
 33 28  2  0  0  0  0
 33 32  1  0  0  0  0
 34 28  1  0  0  0  0
 35 29  1  0  0  0  0
 36 46  2  0  0  0  0
 36 37  1  0  0  0  0
 37 39  2  0  0  0  0
 38 37  1  0  0  0  0
 39 40  1  0  0  0  0
 41 42  1  0  0  0  0
 41 40  2  0  0  0  0
 43 42  2  0  0  0  0
 44 43  1  0  0  0  0
 45 44  2  0  0  0  0
 45 46  1  0  0  0  0
 46 41  1  0  0  0  0
M  END
>  <minimizedAffinity>
-6.72150469

$$$$

 OpenBabel03272506103D

 46 50  0  0  0  0  0  0  0  0999 V2000
   37.6670   26.4750   35.2860 C   0  0  0  0  0  0  0  0  0  0  0  0
   36.7080   26.6540   35.8540 H   0  0  0  0  0  0  0  0  0  0  0  0
   38.2600   27.3840   35.4610 H   0  0  0  0  0  0  0  0  0  0  0  0
   38.3280   25.2580   35.8330 C   0  0  0  0  0  0  0  0  0  0  0  0
   37.6350   24.5020   36.8340 C   0  0  0  0  0  0  0  0  0  0  0  0
   38.7860   23.2000   37.1570 S   0  0  0  0  0  0  0  0  0  0  0  0
   40.0570   23.8300   35.9050 C   0  0  0  0  0  0  0  0  0  0  0  0
   39.4880   24.7900   35.5000 N   0  0  0  0  0  0  0  0  0  0  0  0
   41.3590   23.3140   35.5270 N   0  0  0  0  0  0  0  0  0  0  0  0
   41.5340   21.9040   35.6200 C   0  0  0  0  0  0  0  0  0  0  0  0
   42.9580   21.4620   35.6020 C   0  0  0  0  0  0  0  0  0  0  0  0
   43.9130   22.5720   35.7200 N   0  0  0  0  0  0  0  0  0  0  0  0
   43.5810   23.4850   34.6380 C   0  0  0  0  0  0  0  0  0  0  0  0
   42.3730   24.2570   35.0870 C   0  0  0  0  0  0  0  0  0  0  0  0
   36.7380   24.5100   37.3690 H   0  0  0  0  0  0  0  0  0  0  0  0
   40.9450   21.4140   34.8050 H   0  0  0  0  0  0  0  0  0  0  0  0
   41.0760   21.5590   36.5710 H   0  0  0  0  0  0  0  0  0  0  0  0
   43.1670   20.6460   36.3050 H   0  0  0  0  0  0  0  0  0  0  0  0
   43.1550   21.0300   34.5760 H   0  0  0  0  0  0  0  0  0  0  0  0
   44.8570   22.1790   35.5890 H   0  0  0  0  0  0  0  0  0  0  0  0
   44.4350   24.2160   34.6130 H   0  0  0  0  0  0  0  0  0  0  0  0
   43.4600   22.9430   33.6980 H   0  0  0  0  0  0  0  0  0  0  0  0
   41.9770   24.8270   34.2240 H   0  0  0  0  0  0  0  0  0  0  0  0
   42.6760   24.9560   35.8850 H   0  0  0  0  0  0  0  0  0  0  0  0
   37.3410   26.3300   33.8360 C   0  0  0  0  0  0  0  0  0  0  0  0
   36.5240   25.5890   33.6900 H   0  0  0  0  0  0  0  0  0  0  0  0
   38.2580   26.0590   33.2600 H   0  0  0  0  0  0  0  0  0  0  0  0
   36.4060   29.1480   31.5830 C   0  0  0  0  0  0  0  0  0  0  0  0
   35.7450   30.0030   32.4470 C   0  0  0  0  0  0  0  0  0  0  0  0
   35.6070   29.6380   33.8070 C   0  0  0  0  0  0  0  0  0  0  0  0
   36.1530   28.4440   34.1720 N   0  0  0  0  0  0  0  0  0  0  0  0
   36.7880   27.6420   33.2970 C   0  0  0  0  0  0  0  0  0  0  0  0
   36.9020   28.0020   32.0350 N   0  0  0  0  0  0  0  0  0  0  0  0
   36.5160   29.4160   30.5440 H   0  0  0  0  0  0  0  0  0  0  0  0
   35.4080   30.9220   32.0420 H   0  0  0  0  0  0  0  0  0  0  0  0
   35.0160   30.4090   34.8660 C   0  0  0  0  0  0  0  0  0  0  0  0
   35.8360   31.3360   35.5020 C   0  0  0  0  0  0  0  0  0  0  0  0
   36.8460   31.4730   35.2110 H   0  0  0  0  0  0  0  0  0  0  0  0
   35.4430   32.1490   36.5400 C   0  0  0  0  0  3  0  0  0  0  0  0
   34.1550   32.0750   37.0210 C   0  0  0  0  0  3  0  0  0  0  0  0
   33.3030   31.1780   36.4360 C   0  0  0  0  0  0  0  0  0  0  0  0
   32.0210   31.0450   36.9100 C   0  0  0  0  0  3  0  0  0  0  0  0
   31.1380   30.1150   36.3700 C   0  0  0  0  0  3  0  0  0  0  0  0
   31.5840   29.3180   35.3340 C   0  0  0  0  0  3  0  0  0  0  0  0
   32.8750   29.4910   34.8970 C   0  0  0  0  0  3  0  0  0  0  0  0
   33.7580   30.4040   35.4120 C   0  0  0  0  0  0  0  0  0  0  0  0
  1  3  1  0  0  0  0
  1  4  1  0  0  0  0
  1  2  1  0  0  0  0
  4  5  2  0  0  0  0
  5  6  1  0  0  0  0
  5 15  1  0  0  0  0
  7  6  1  0  0  0  0
  8  4  1  0  0  0  0
  8  7  2  0  0  0  0
  9 10  1  0  0  0  0
  9  7  1  0  0  0  0
 10 17  1  0  0  0  0
 11 10  1  0  0  0  0
 11 12  1  0  0  0  0
 11 18  1  0  0  0  0
 13 14  1  0  0  0  0
 13 12  1  0  0  0  0
 14  9  1  0  0  0  0
 14 24  1  0  0  0  0
 16 10  1  0  0  0  0
 19 11  1  0  0  0  0
 20 12  1  0  0  0  0
 21 13  1  0  0  0  0
 22 13  1  0  0  0  0
 23 14  1  0  0  0  0
 25  1  1  0  0  0  0
 26 25  1  0  0  0  0
 27 25  1  0  0  0  0
 28 33  2  0  0  0  0
 28 29  1  0  0  0  0
 29 30  2  0  0  0  0
 30 31  1  0  0  0  0
 30 36  1  0  0  0  0
 32 25  1  0  0  0  0
 32 31  2  0  0  0  0
 33 32  1  0  0  0  0
 34 28  1  0  0  0  0
 35 29  1  0  0  0  0
 36 46  2  0  0  0  0
 36 37  1  0  0  0  0
 37 39  2  0  0  0  0
 38 37  1  0  0  0  0
 39 40  1  0  0  0  0
 41 42  1  0  0  0  0
 41 40  2  0  0  0  0
 43 42  2  0  0  0  0
 44 43  1  0  0  0  0
 45 44  2  0  0  0  0
 45 46  1  0  0  0  0
 46 41  1  0  0  0  0
M  END
>  <minimizedAffinity>
-6.71652651

$$$$

 OpenBabel03272506103D

 46 50  0  0  0  0  0  0  0  0999 V2000
   37.1310   25.9760   32.7360 C   0  0  0  0  0  0  0  0  0  0  0  0
   37.0760   25.0390   32.1090 H   0  0  0  0  0  0  0  0  0  0  0  0
   36.0900   26.3230   32.7990 H   0  0  0  0  0  0  0  0  0  0  0  0
   37.6880   25.6250   34.0720 C   0  0  0  0  0  0  0  0  0  0  0  0
   37.2800   26.4060   35.2030 C   0  0  0  0  0  0  0  0  0  0  0  0
   38.1800   25.6310   36.5130 S   0  0  0  0  0  0  0  0  0  0  0  0
   38.9920   24.3510   35.3810 C   0  0  0  0  0  0  0  0  0  0  0  0
   38.5200   24.6700   34.3390 N   0  0  0  0  0  0  0  0  0  0  0  0
   39.9260   23.2800   35.6690 N   0  0  0  0  0  0  0  0  0  0  0  0
   39.8330   22.6880   36.9620 C   0  0  0  0  0  0  0  0  0  0  0  0
   41.0270   21.8850   37.3530 C   0  0  0  0  0  0  0  0  0  0  0  0
   42.1600   22.0400   36.4320 N   0  0  0  0  0  0  0  0  0  0  0  0
   41.6410   21.6960   35.1180 C   0  0  0  0  0  0  0  0  0  0  0  0
   40.8710   22.8910   34.6360 C   0  0  0  0  0  0  0  0  0  0  0  0
   36.6700   27.2190   35.4390 H   0  0  0  0  0  0  0  0  0  0  0  0
   38.8970   22.0790   37.0120 H   0  0  0  0  0  0  0  0  0  0  0  0
   39.7030   23.5020   37.7070 H   0  0  0  0  0  0  0  0  0  0  0  0
   41.3140   22.0190   38.4050 H   0  0  0  0  0  0  0  0  0  0  0  0
   40.7360   20.7970   37.2590 H   0  0  0  0  0  0  0  0  0  0  0  0
   42.8870   21.3700   36.7250 H   0  0  0  0  0  0  0  0  0  0  0  0
   42.5540   21.6190   34.4650 H   0  0  0  0  0  0  0  0  0  0  0  0
   41.0720   20.7650   35.1590 H   0  0  0  0  0  0  0  0  0  0  0  0
   40.3060   22.6060   33.7280 H   0  0  0  0  0  0  0  0  0  0  0  0
   41.5840   23.6970   34.3900 H   0  0  0  0  0  0  0  0  0  0  0  0
   37.9780   26.9770   32.0230 C   0  0  0  0  0  0  0  0  0  0  0  0
   38.2990   26.5840   31.0320 H   0  0  0  0  0  0  0  0  0  0  0  0
   38.8490   27.2680   32.6570 H   0  0  0  0  0  0  0  0  0  0  0  0
   36.6460   30.0560   30.3980 C   0  0  0  0  0  0  0  0  0  0  0  0
   35.6110   30.4070   31.2460 C   0  0  0  0  0  0  0  0  0  0  0  0
   35.3490   29.6050   32.3820 C   0  0  0  0  0  0  0  0  0  0  0  0
   36.1590   28.5240   32.5610 N   0  0  0  0  0  0  0  0  0  0  0  0
   37.1560   28.2200   31.7100 C   0  0  0  0  0  0  0  0  0  0  0  0
   37.3800   28.9790   30.6570 N   0  0  0  0  0  0  0  0  0  0  0  0
   36.8540   30.6580   29.5270 H   0  0  0  0  0  0  0  0  0  0  0  0
   35.0880   31.2980   31.0130 H   0  0  0  0  0  0  0  0  0  0  0  0
   34.3690   29.8340   33.4080 C   0  0  0  0  0  0  0  0  0  0  0  0
   33.1050   29.2890   33.2030 C   0  0  0  0  0  0  0  0  0  0  0  0
   32.8800   28.7230   32.3360 H   0  0  0  0  0  0  0  0  0  0  0  0
   32.0440   29.4180   34.0700 C   0  0  0  0  0  3  0  0  0  0  0  0
   32.1960   30.1310   35.2390 C   0  0  0  0  0  3  0  0  0  0  0  0
   33.4170   30.6930   35.4920 C   0  0  0  0  0  0  0  0  0  0  0  0
   33.6000   31.4450   36.6280 C   0  0  0  0  0  3  0  0  0  0  0  0
   34.8130   32.0670   36.9010 C   0  0  0  0  0  3  0  0  0  0  0  0
   35.8440   31.9130   35.9940 C   0  0  0  0  0  3  0  0  0  0  0  0
   35.6100   31.1510   34.8750 C   0  0  0  0  0  3  0  0  0  0  0  0
   34.4230   30.5260   34.5900 C   0  0  0  0  0  0  0  0  0  0  0  0
  1  3  1  0  0  0  0
  1  4  1  0  0  0  0
  2  1  1  0  0  0  0
  4  8  1  0  0  0  0
  4  5  2  0  0  0  0
  5 15  1  0  0  0  0
  5  6  1  0  0  0  0
  7  9  1  0  0  0  0
  7  6  1  0  0  0  0
  8  7  2  0  0  0  0
  9 10  1  0  0  0  0
 10 16  1  0  0  0  0
 10 11  1  0  0  0  0
 10 17  1  0  0  0  0
 11 18  1  0  0  0  0
 12 20  1  0  0  0  0
 12 11  1  0  0  0  0
 13 22  1  0  0  0  0
 13 12  1  0  0  0  0
 14 13  1  0  0  0  0
 14  9  1  0  0  0  0
 19 11  1  0  0  0  0
 21 13  1  0  0  0  0
 23 14  1  0  0  0  0
 24 14  1  0  0  0  0
 25 27  1  0  0  0  0
 25  1  1  0  0  0  0
 26 25  1  0  0  0  0
 28 33  2  0  0  0  0
 28 29  1  0  0  0  0
 29 30  2  0  0  0  0
 30 31  1  0  0  0  0
 30 36  1  0  0  0  0
 32 25  1  0  0  0  0
 32 31  2  0  0  0  0
 33 32  1  0  0  0  0
 34 28  1  0  0  0  0
 35 29  1  0  0  0  0
 36 46  1  0  0  0  0
 37 36  2  0  0  0  0
 37 39  1  0  0  0  0
 38 37  1  0  0  0  0
 39 40  2  0  0  0  0
 40 41  1  0  0  0  0
 41 42  1  0  0  0  0
 42 43  2  0  0  0  0
 44 43  1  0  0  0  0
 45 44  2  0  0  0  0
 46 45  1  0  0  0  0
 46 41  2  0  0  0  0
M  END
>  <minimizedAffinity>
-6.63435507

$$$$

 OpenBabel03272506103D

 46 50  0  0  0  0  0  0  0  0999 V2000
   37.7980   25.5320   30.9710 C   0  0  0  0  0  0  0  0  0  0  0  0
   38.7010   25.9750   31.4840 H   0  0  0  0  0  0  0  0  0  0  0  0
   37.6790   26.1370   30.0600 H   0  0  0  0  0  0  0  0  0  0  0  0
   38.0750   24.1020   30.6640 C   0  0  0  0  0  0  0  0  0  0  0  0
   39.1700   23.7960   29.7910 C   0  0  0  0  0  0  0  0  0  0  0  0
   39.0970   22.0300   29.7340 S   0  0  0  0  0  0  0  0  0  0  0  0
   37.6040   21.9190   30.8900 C   0  0  0  0  0  0  0  0  0  0  0  0
   37.4250   23.0730   31.1050 N   0  0  0  0  0  0  0  0  0  0  0  0
   36.8670   20.7740   31.3890 N   0  0  0  0  0  0  0  0  0  0  0  0
   37.6050   19.5660   31.5490 C   0  0  0  0  0  0  0  0  0  0  0  0
   36.7580   18.3460   31.6840 C   0  0  0  0  0  0  0  0  0  0  0  0
   35.3380   18.5890   31.4000 N   0  0  0  0  0  0  0  0  0  0  0  0
   34.9430   19.6640   32.2950 C   0  0  0  0  0  0  0  0  0  0  0  0
   35.4540   20.9380   31.6860 C   0  0  0  0  0  0  0  0  0  0  0  0
   39.9150   24.2760   29.2380 H   0  0  0  0  0  0  0  0  0  0  0  0
   38.2970   19.6810   32.4210 H   0  0  0  0  0  0  0  0  0  0  0  0
   38.2590   19.4390   30.6610 H   0  0  0  0  0  0  0  0  0  0  0  0
   37.1580   17.4800   31.1400 H   0  0  0  0  0  0  0  0  0  0  0  0
   36.7800   18.0490   32.7750 H   0  0  0  0  0  0  0  0  0  0  0  0
   34.8280   17.7210   31.6240 H   0  0  0  0  0  0  0  0  0  0  0  0
   33.8220   19.7000   32.2160 H   0  0  0  0  0  0  0  0  0  0  0  0
   35.2890   19.4670   33.3120 H   0  0  0  0  0  0  0  0  0  0  0  0
   35.3400   21.7550   32.4240 H   0  0  0  0  0  0  0  0  0  0  0  0
   34.8570   21.1650   30.7860 H   0  0  0  0  0  0  0  0  0  0  0  0
   36.6140   25.6920   31.8670 C   0  0  0  0  0  0  0  0  0  0  0  0
   36.1630   24.7010   32.1010 H   0  0  0  0  0  0  0  0  0  0  0  0
   35.8740   26.3890   31.4070 H   0  0  0  0  0  0  0  0  0  0  0  0
   37.2980   27.9930   34.7180 C   0  0  0  0  0  0  0  0  0  0  0  0
   37.8680   27.1420   35.6480 C   0  0  0  0  0  0  0  0  0  0  0  0
   38.0310   25.7740   35.3210 C   0  0  0  0  0  0  0  0  0  0  0  0
   37.6060   25.3920   34.0840 N   0  0  0  0  0  0  0  0  0  0  0  0
   37.0560   26.2550   33.2110 C   0  0  0  0  0  0  0  0  0  0  0  0
   36.9120   27.5230   33.5380 N   0  0  0  0  0  0  0  0  0  0  0  0
   37.1670   29.0370   34.9570 H   0  0  0  0  0  0  0  0  0  0  0  0
   38.1960   27.5790   36.5550 H   0  0  0  0  0  0  0  0  0  0  0  0
   38.6530   24.7520   36.1170 C   0  0  0  0  0  0  0  0  0  0  0  0
   37.9690   24.3380   37.2560 C   0  0  0  0  0  0  0  0  0  0  0  0
   37.0280   24.7510   37.5170 H   0  0  0  0  0  0  0  0  0  0  0  0
   38.4180   23.3830   38.1380 C   0  0  0  0  0  3  0  0  0  0  0  0
   39.6300   22.7640   37.9210 C   0  0  0  0  0  3  0  0  0  0  0  0
   40.3490   23.1330   36.8180 C   0  0  0  0  0  0  0  0  0  0  0  0
   41.5800   22.5690   36.5850 C   0  0  0  0  0  3  0  0  0  0  0  0
   42.3610   22.9470   35.4980 C   0  0  0  0  0  3  0  0  0  0  0  0
   41.8670   23.9160   34.6470 C   0  0  0  0  0  3  0  0  0  0  0  0
   40.6310   24.4490   34.9240 C   0  0  0  0  0  3  0  0  0  0  0  0
   39.8450   24.0860   35.9870 C   0  0  0  0  0  0  0  0  0  0  0  0
  1  2  1  0  0  0  0
  1 25  1  0  0  0  0
  3  1  1  0  0  0  0
  4  1  1  0  0  0  0
  4  8  1  0  0  0  0
  5  4  2  0  0  0  0
  6  5  1  0  0  0  0
  6  7  1  0  0  0  0
  7  8  2  0  0  0  0
  7  9  1  0  0  0  0
  9 10  1  0  0  0  0
  9 14  1  0  0  0  0
 10 11  1  0  0  0  0
 10 16  1  0  0  0  0
 11 19  1  0  0  0  0
 12 20  1  0  0  0  0
 12 11  1  0  0  0  0
 12 13  1  0  0  0  0
 13 22  1  0  0  0  0
 14 13  1  0  0  0  0
 14 23  1  0  0  0  0
 15  5  1  0  0  0  0
 17 10  1  0  0  0  0
 18 11  1  0  0  0  0
 21 13  1  0  0  0  0
 24 14  1  0  0  0  0
 25 26  1  0  0  0  0
 25 32  1  0  0  0  0
 27 25  1  0  0  0  0
 28 34  1  0  0  0  0
 28 29  1  0  0  0  0
 29 35  1  0  0  0  0
 30 29  2  0  0  0  0
 30 36  1  0  0  0  0
 31 30  1  0  0  0  0
 32 33  1  0  0  0  0
 32 31  2  0  0  0  0
 33 28  2  0  0  0  0
 36 37  1  0  0  0  0
 37 38  1  0  0  0  0
 37 39  2  0  0  0  0
 40 39  1  0  0  0  0
 41 40  2  0  0  0  0
 42 41  1  0  0  0  0
 43 42  2  0  0  0  0
 44 45  2  0  0  0  0
 44 43  1  0  0  0  0
 45 46  1  0  0  0  0
 46 36  2  0  0  0  0
 46 41  1  0  0  0  0
M  END
>  <minimizedAffinity>
-6.58421516

$$$$

 OpenBabel03272506103D

 46 50  0  0  0  0  0  0  0  0999 V2000
   35.7880   28.2430   32.4310 C   0  0  0  0  0  0  0  0  0  0  0  0
   35.1600   27.3140   32.3010 H   0  0  0  0  0  0  0  0  0  0  0  0
   36.1100   28.4980   31.4100 H   0  0  0  0  0  0  0  0  0  0  0  0
   34.9450   29.3110   33.0360 C   0  0  0  0  0  0  0  0  0  0  0  0
   33.5210   29.1980   32.9190 C   0  0  0  0  0  0  0  0  0  0  0  0
   32.9790   30.6530   33.7640 S   0  0  0  0  0  0  0  0  0  0  0  0
   34.7320   31.2340   34.1730 C   0  0  0  0  0  0  0  0  0  0  0  0
   35.3600   30.3570   33.6750 N   0  0  0  0  0  0  0  0  0  0  0  0
   35.2070   32.4040   34.8860 N   0  0  0  0  0  0  0  0  0  0  0  0
   34.3540   32.9160   35.9050 C   0  0  0  0  0  0  0  0  0  0  0  0
   34.6800   34.3060   36.3350 C   0  0  0  0  0  0  0  0  0  0  0  0
   35.6700   34.9640   35.4720 N   0  0  0  0  0  0  0  0  0  0  0  0
   36.8240   34.0800   35.4630 C   0  0  0  0  0  0  0  0  0  0  0  0
   36.4980   32.9610   34.5160 C   0  0  0  0  0  0  0  0  0  0  0  0
   32.7960   28.5660   32.5130 H   0  0  0  0  0  0  0  0  0  0  0  0
   34.3640   32.2080   36.7710 H   0  0  0  0  0  0  0  0  0  0  0  0
   33.3110   32.9070   35.5220 H   0  0  0  0  0  0  0  0  0  0  0  0
   33.7910   34.9250   36.5090 H   0  0  0  0  0  0  0  0  0  0  0  0
   35.1910   34.2280   37.3400 H   0  0  0  0  0  0  0  0  0  0  0  0
   35.9060   35.8670   35.9100 H   0  0  0  0  0  0  0  0  0  0  0  0
   37.6380   34.6840   34.9750 H   0  0  0  0  0  0  0  0  0  0  0  0
   37.0800   33.7670   36.4770 H   0  0  0  0  0  0  0  0  0  0  0  0
   37.2670   32.1720   34.6210 H   0  0  0  0  0  0  0  0  0  0  0  0
   36.5090   33.3550   33.4850 H   0  0  0  0  0  0  0  0  0  0  0  0
   36.9650   27.9080   33.2860 C   0  0  0  0  0  0  0  0  0  0  0  0
   36.7490   28.1310   34.3550 H   0  0  0  0  0  0  0  0  0  0  0  0
   37.8720   28.4460   32.9230 H   0  0  0  0  0  0  0  0  0  0  0  0
   37.2620   24.3740   32.1370 C   0  0  0  0  0  0  0  0  0  0  0  0
   37.7470   23.7420   33.2680 C   0  0  0  0  0  0  0  0  0  0  0  0
   37.9810   24.5030   34.4370 C   0  0  0  0  0  0  0  0  0  0  0  0
   37.6990   25.8340   34.3600 N   0  0  0  0  0  0  0  0  0  0  0  0
   37.2270   26.4090   33.2380 C   0  0  0  0  0  0  0  0  0  0  0  0
   37.0200   25.6800   32.1600 N   0  0  0  0  0  0  0  0  0  0  0  0
   37.0820   23.8040   31.2390 H   0  0  0  0  0  0  0  0  0  0  0  0
   37.8810   22.6930   33.2050 H   0  0  0  0  0  0  0  0  0  0  0  0
   38.4190   24.0260   35.7200 C   0  0  0  0  0  0  0  0  0  0  0  0
   37.6960   24.4530   36.8300 C   0  0  0  0  0  0  0  0  0  0  0  0
   36.8560   25.0910   36.7310 H   0  0  0  0  0  0  0  0  0  0  0  0
   37.9790   24.1080   38.1310 C   0  0  0  0  0  3  0  0  0  0  0  0
   39.0480   23.2830   38.4050 C   0  0  0  0  0  3  0  0  0  0  0  0
   39.7980   22.8340   37.3530 C   0  0  0  0  0  0  0  0  0  0  0  0
   40.8950   22.0410   37.5850 C   0  0  0  0  0  3  0  0  0  0  0  0
   41.7070   21.5990   36.5470 C   0  0  0  0  0  3  0  0  0  0  0  0
   41.3840   21.9810   35.2590 C   0  0  0  0  0  3  0  0  0  0  0  0
   40.2770   22.7740   35.0800 C   0  0  0  0  0  3  0  0  0  0  0  0
   39.4610   23.2160   36.0900 C   0  0  0  0  0  0  0  0  0  0  0  0
  1  4  1  0  0  0  0
  1 25  1  0  0  0  0
  2  1  1  0  0  0  0
  3  1  1  0  0  0  0
  4  8  1  0  0  0  0
  5  4  2  0  0  0  0
  5  6  1  0  0  0  0
  6  7  1  0  0  0  0
  7  9  1  0  0  0  0
  8  7  2  0  0  0  0
  9 10  1  0  0  0  0
 10 11  1  0  0  0  0
 10 16  1  0  0  0  0
 11 18  1  0  0  0  0
 11 19  1  0  0  0  0
 12 20  1  0  0  0  0
 12 11  1  0  0  0  0
 13 12  1  0  0  0  0
 13 22  1  0  0  0  0
 14 23  1  0  0  0  0
 14  9  1  0  0  0  0
 14 13  1  0  0  0  0
 15  5  1  0  0  0  0
 17 10  1  0  0  0  0
 21 13  1  0  0  0  0
 24 14  1  0  0  0  0
 25 26  1  0  0  0  0
 27 25  1  0  0  0  0
 28 33  2  0  0  0  0
 28 29  1  0  0  0  0
 29 30  2  0  0  0  0
 30 36  1  0  0  0  0
 31 30  1  0  0  0  0
 32 25  1  0  0  0  0
 32 31  2  0  0  0  0
 33 32  1  0  0  0  0
 34 28  1  0  0  0  0
 35 29  1  0  0  0  0
 36 46  2  0  0  0  0
 36 37  1  0  0  0  0
 37 39  2  0  0  0  0
 38 37  1  0  0  0  0
 39 40  1  0  0  0  0
 41 42  1  0  0  0  0
 41 40  2  0  0  0  0
 43 42  2  0  0  0  0
 44 43  1  0  0  0  0
 45 44  2  0  0  0  0
 45 46  1  0  0  0  0
 46 41  1  0  0  0  0
M  END
>  <minimizedAffinity>
-6.4977293

$$$$

 OpenBabel03272506103D

 46 50  0  0  0  0  0  0  0  0999 V2000
   36.2980   24.4860   31.8460 C   0  0  0  0  0  0  0  0  0  0  0  0
   35.9390   23.9320   30.9300 H   0  0  0  0  0  0  0  0  0  0  0  0
   35.3850   24.6590   32.4340 H   0  0  0  0  0  0  0  0  0  0  0  0
   37.2790   23.6300   32.5700 C   0  0  0  0  0  0  0  0  0  0  0  0
   37.9340   22.5850   31.8400 C   0  0  0  0  0  0  0  0  0  0  0  0
   38.9640   21.8730   33.0880 S   0  0  0  0  0  0  0  0  0  0  0  0
   38.3890   23.0680   34.4370 C   0  0  0  0  0  0  0  0  0  0  0  0
   37.6180   23.7230   33.8150 N   0  0  0  0  0  0  0  0  0  0  0  0
   38.7610   23.1800   35.8340 N   0  0  0  0  0  0  0  0  0  0  0  0
   40.0870   22.7840   36.1710 C   0  0  0  0  0  0  0  0  0  0  0  0
   40.3020   22.5450   37.6280 C   0  0  0  0  0  0  0  0  0  0  0  0
   39.0580   22.5430   38.4070 N   0  0  0  0  0  0  0  0  0  0  0  0
   38.4210   23.8190   38.1220 C   0  0  0  0  0  0  0  0  0  0  0  0
   37.7720   23.6800   36.7740 C   0  0  0  0  0  0  0  0  0  0  0  0
   37.9640   22.1710   30.8820 H   0  0  0  0  0  0  0  0  0  0  0  0
   40.8020   23.5460   35.7720 H   0  0  0  0  0  0  0  0  0  0  0  0
   40.3170   21.8420   35.6280 H   0  0  0  0  0  0  0  0  0  0  0  0
   40.9340   21.6710   37.8340 H   0  0  0  0  0  0  0  0  0  0  0  0
   40.8810   23.4320   38.0240 H   0  0  0  0  0  0  0  0  0  0  0  0
   39.3200   22.4810   39.4020 H   0  0  0  0  0  0  0  0  0  0  0  0
   37.5860   23.8910   38.8720 H   0  0  0  0  0  0  0  0  0  0  0  0
   39.1380   24.6370   38.2080 H   0  0  0  0  0  0  0  0  0  0  0  0
   37.4380   24.6800   36.4370 H   0  0  0  0  0  0  0  0  0  0  0  0
   36.9000   23.0110   36.8680 H   0  0  0  0  0  0  0  0  0  0  0  0
   36.8990   25.7820   31.4130 C   0  0  0  0  0  0  0  0  0  0  0  0
   36.4280   26.1370   30.4690 H   0  0  0  0  0  0  0  0  0  0  0  0
   38.0060   25.6800   31.3130 H   0  0  0  0  0  0  0  0  0  0  0  0
   36.8070   27.8000   34.5450 C   0  0  0  0  0  0  0  0  0  0  0  0
   35.9900   28.8570   34.1860 C   0  0  0  0  0  0  0  0  0  0  0  0
   35.4570   28.9010   32.8760 C   0  0  0  0  0  0  0  0  0  0  0  0
   35.7940   27.8710   32.0500 N   0  0  0  0  0  0  0  0  0  0  0  0
   36.5930   26.8620   32.4410 C   0  0  0  0  0  0  0  0  0  0  0  0
   37.0810   26.8440   33.6660 N   0  0  0  0  0  0  0  0  0  0  0  0
   37.2200   27.7570   35.5410 H   0  0  0  0  0  0  0  0  0  0  0  0
   35.7710   29.5670   34.9410 H   0  0  0  0  0  0  0  0  0  0  0  0
   34.5460   29.8710   32.3330 C   0  0  0  0  0  0  0  0  0  0  0  0
   35.0880   30.8440   31.4990 C   0  0  0  0  0  0  0  0  0  0  0  0
   36.1210   30.8610   31.2670 H   0  0  0  0  0  0  0  0  0  0  0  0
   34.3700   31.8550   30.9030 C   0  0  0  0  0  3  0  0  0  0  0  0
   33.0130   31.9540   31.1200 C   0  0  0  0  0  3  0  0  0  0  0  0
   32.4250   31.0260   31.9350 C   0  0  0  0  0  0  0  0  0  0  0  0
   31.0820   31.1100   32.2080 C   0  0  0  0  0  3  0  0  0  0  0  0
   30.4550   30.2120   33.0650 C   0  0  0  0  0  3  0  0  0  0  0  0
   31.2220   29.2190   33.6440 C   0  0  0  0  0  3  0  0  0  0  0  0
   32.5610   29.1780   33.3370 C   0  0  0  0  0  3  0  0  0  0  0  0
   33.1960   30.0510   32.4930 C   0  0  0  0  0  0  0  0  0  0  0  0
  1  3  1  0  0  0  0
  1  4  1  0  0  0  0
  2  1  1  0  0  0  0
  4  8  1  0  0  0  0
  5  4  2  0  0  0  0
  5  6  1  0  0  0  0
  6  7  1  0  0  0  0
  7  9  1  0  0  0  0
  8  7  2  0  0  0  0
  9 10  1  0  0  0  0
  9 14  1  0  0  0  0
 10 11  1  0  0  0  0
 11 18  1  0  0  0  0
 11 19  1  0  0  0  0
 11 12  1  0  0  0  0
 12 20  1  0  0  0  0
 13 22  1  0  0  0  0
 13 12  1  0  0  0  0
 13 21  1  0  0  0  0
 14 24  1  0  0  0  0
 14 13  1  0  0  0  0
 15  5  1  0  0  0  0
 16 10  1  0  0  0  0
 17 10  1  0  0  0  0
 23 14  1  0  0  0  0
 25  1  1  0  0  0  0
 25 32  1  0  0  0  0
 26 25  1  0  0  0  0
 27 25  1  0  0  0  0
 28 34  1  0  0  0  0
 29 28  1  0  0  0  0
 29 35  1  0  0  0  0
 30 29  2  0  0  0  0
 31 32  2  0  0  0  0
 31 30  1  0  0  0  0
 32 33  1  0  0  0  0
 33 28  2  0  0  0  0
 36 46  1  0  0  0  0
 36 30  1  0  0  0  0
 37 36  2  0  0  0  0
 38 37  1  0  0  0  0
 39 40  2  0  0  0  0
 39 37  1  0  0  0  0
 40 41  1  0  0  0  0
 41 42  2  0  0  0  0
 41 46  1  0  0  0  0
 42 43  1  0  0  0  0
 43 44  2  0  0  0  0
 45 44  1  0  0  0  0
 46 45  2  0  0  0  0
M  END
>  <minimizedAffinity>
-6.48863888

$$$$

 OpenBabel03272506103D

 46 50  0  0  0  0  0  0  0  0999 V2000
   38.1780   26.2370   36.2380 C   0  0  0  0  0  0  0  0  0  0  0  0
   37.0930   26.5040   36.4000 H   0  0  0  0  0  0  0  0  0  0  0  0
   38.6610   26.4670   37.1990 H   0  0  0  0  0  0  0  0  0  0  0  0
   38.2700   24.7900   35.8960 C   0  0  0  0  0  0  0  0  0  0  0  0
   38.7450   23.8850   36.9000 C   0  0  0  0  0  0  0  0  0  0  0  0
   38.6760   22.3390   36.0450 S   0  0  0  0  0  0  0  0  0  0  0  0
   38.0150   23.0990   34.4430 C   0  0  0  0  0  0  0  0  0  0  0  0
   37.9600   24.2400   34.7660 N   0  0  0  0  0  0  0  0  0  0  0  0
   37.6680   22.4920   33.1730 N   0  0  0  0  0  0  0  0  0  0  0  0
   37.1940   21.1490   33.2190 C   0  0  0  0  0  0  0  0  0  0  0  0
   37.2200   20.4460   31.9040 C   0  0  0  0  0  0  0  0  0  0  0  0
   37.9360   21.1910   30.8600 N   0  0  0  0  0  0  0  0  0  0  0  0
   37.2920   22.4930   30.8030 C   0  0  0  0  0  0  0  0  0  0  0  0
   37.8230   23.2840   31.9640 C   0  0  0  0  0  0  0  0  0  0  0  0
   39.0870   23.8870   37.8860 H   0  0  0  0  0  0  0  0  0  0  0  0
   36.1680   21.1450   33.6650 H   0  0  0  0  0  0  0  0  0  0  0  0
   37.8330   20.5810   33.9290 H   0  0  0  0  0  0  0  0  0  0  0  0
   37.5450   19.4000   31.9790 H   0  0  0  0  0  0  0  0  0  0  0  0
   36.1520   20.4010   31.5350 H   0  0  0  0  0  0  0  0  0  0  0  0
   37.8040   20.6790   29.9750 H   0  0  0  0  0  0  0  0  0  0  0  0
   37.7060   22.9730   29.8740 H   0  0  0  0  0  0  0  0  0  0  0  0
   36.2050   22.3870   30.7750 H   0  0  0  0  0  0  0  0  0  0  0  0
   37.2230   24.2080   32.0670 H   0  0  0  0  0  0  0  0  0  0  0  0
   38.8760   23.5460   31.7630 H   0  0  0  0  0  0  0  0  0  0  0  0
   38.7250   27.1040   35.1530 C   0  0  0  0  0  0  0  0  0  0  0  0
   39.2870   26.4940   34.4100 H   0  0  0  0  0  0  0  0  0  0  0  0
   39.3560   27.9150   35.5880 H   0  0  0  0  0  0  0  0  0  0  0  0
   36.2980   27.9580   32.4570 C   0  0  0  0  0  0  0  0  0  0  0  0
   35.5040   28.9100   33.0720 C   0  0  0  0  0  0  0  0  0  0  0  0
   35.7810   29.2780   34.4100 C   0  0  0  0  0  0  0  0  0  0  0  0
   36.8360   28.6530   35.0040 N   0  0  0  0  0  0  0  0  0  0  0  0
   37.5820   27.7320   34.3680 C   0  0  0  0  0  0  0  0  0  0  0  0
   37.3040   27.4030   33.1220 N   0  0  0  0  0  0  0  0  0  0  0  0
   36.0950   27.6690   31.4370 H   0  0  0  0  0  0  0  0  0  0  0  0
   34.7440   29.3500   32.4800 H   0  0  0  0  0  0  0  0  0  0  0  0
   35.1200   30.2820   35.1970 C   0  0  0  0  0  0  0  0  0  0  0  0
   35.9000   31.3430   35.6470 C   0  0  0  0  0  0  0  0  0  0  0  0
   36.9300   31.4110   35.4110 H   0  0  0  0  0  0  0  0  0  0  0  0
   35.4390   32.3840   36.4200 C   0  0  0  0  0  3  0  0  0  0  0  0
   34.1160   32.4210   36.8030 C   0  0  0  0  0  3  0  0  0  0  0  0
   33.3010   31.4020   36.3920 C   0  0  0  0  0  0  0  0  0  0  0  0
   31.9840   31.3800   36.7830 C   0  0  0  0  0  3  0  0  0  0  0  0
   31.1340   30.3410   36.4220 C   0  0  0  0  0  3  0  0  0  0  0  0
   31.6490   29.3160   35.6520 C   0  0  0  0  0  3  0  0  0  0  0  0
   32.9710   29.3850   35.2870 C   0  0  0  0  0  3  0  0  0  0  0  0
   33.8240   30.4020   35.6290 C   0  0  0  0  0  0  0  0  0  0  0  0
  1  2  1  0  0  0  0
  1  3  1  0  0  0  0
  4  1  1  0  0  0  0
  4  5  2  0  0  0  0
  5 15  1  0  0  0  0
  6  5  1  0  0  0  0
  7  8  2  0  0  0  0
  7  6  1  0  0  0  0
  8  4  1  0  0  0  0
  9 10  1  0  0  0  0
  9  7  1  0  0  0  0
 10 16  1  0  0  0  0
 10 17  1  0  0  0  0
 11 18  1  0  0  0  0
 11 10  1  0  0  0  0
 12 11  1  0  0  0  0
 13 12  1  0  0  0  0
 13 14  1  0  0  0  0
 14 23  1  0  0  0  0
 14  9  1  0  0  0  0
 19 11  1  0  0  0  0
 20 12  1  0  0  0  0
 21 13  1  0  0  0  0
 22 13  1  0  0  0  0
 24 14  1  0  0  0  0
 25 27  1  0  0  0  0
 25  1  1  0  0  0  0
 26 25  1  0  0  0  0
 28 29  2  0  0  0  0
 28 33  1  0  0  0  0
 29 30  1  0  0  0  0
 30 31  2  0  0  0  0
 30 36  1  0  0  0  0
 32 31  1  0  0  0  0
 32 25  1  0  0  0  0
 33 32  2  0  0  0  0
 34 28  1  0  0  0  0
 35 29  1  0  0  0  0
 36 46  2  0  0  0  0
 36 37  1  0  0  0  0
 37 39  2  0  0  0  0
 38 37  1  0  0  0  0
 39 40  1  0  0  0  0
 41 42  1  0  0  0  0
 41 40  2  0  0  0  0
 43 42  2  0  0  0  0
 44 43  1  0  0  0  0
 45 46  1  0  0  0  0
 45 44  2  0  0  0  0
 46 41  1  0  0  0  0
M  END
>  <minimizedAffinity>
-6.47911644

$$$$
