
 OpenBabel03272501493D

 22 24  0  0  0  0  0  0  0  0999 V2000
   37.3510   30.2140   51.3670 C   0  0  0  0  0  0  0  0  0  0  0  0
   37.9360   30.8270   50.2640 C   0  0  0  0  0  0  0  0  0  0  0  0
   37.4200   30.5930   48.9860 C   0  0  0  0  0  0  0  0  0  0  0  0
   36.3440   29.7520   48.9520 N   0  0  0  0  0  0  0  0  0  0  0  0
   35.7870   29.1690   50.0120 C   0  0  0  0  0  0  0  0  0  0  0  0
   36.2980   29.4030   51.2300 N   0  0  0  0  0  0  0  0  0  0  0  0
   34.6720   28.3280   49.7460 N   0  0  0  0  0  0  0  0  0  0  0  0
   37.7520   30.3950   52.3560 H   0  0  0  0  0  0  0  0  0  0  0  0
   38.7270   31.4800   50.4600 H   0  0  0  0  0  0  0  0  0  0  0  0
   34.8590   27.3150   49.5940 H   0  0  0  0  0  0  0  0  0  0  0  0
   33.7970   28.9080   49.7460 H   0  0  0  0  0  0  0  0  0  0  0  0
   37.8300   31.1820   47.7340 C   0  0  0  0  0  0  0  0  0  0  0  0
   38.9450   32.0340   47.8180 C   0  0  0  0  0  0  0  0  0  0  0  0
   39.4490   32.2140   48.7760 H   0  0  0  0  0  0  0  0  0  0  0  0
   39.4880   32.7000   46.7420 C   0  0  0  0  0  3  0  0  0  0  0  0
   38.9390   32.5530   45.4990 C   0  0  0  0  0  3  0  0  0  0  0  0
   37.8490   31.7340   45.3660 C   0  0  0  0  0  0  0  0  0  0  0  0
   37.2530   31.5900   44.1330 C   0  0  0  0  0  3  0  0  0  0  0  0
   36.1290   30.8040   43.9430 C   0  0  0  0  0  3  0  0  0  0  0  0
   35.6290   30.1640   45.0830 C   0  0  0  0  0  3  0  0  0  0  0  0
   36.2440   30.3270   46.2890 C   0  0  0  0  0  3  0  0  0  0  0  0
   37.3490   31.0940   46.4700 C   0  0  0  0  0  0  0  0  0  0  0  0
  1  8  1  0  0  0  0
  2  9  1  0  0  0  0
  2  1  2  0  0  0  0
  3  2  1  0  0  0  0
  4  3  2  0  0  0  0
  4  5  1  0  0  0  0
  5  6  2  0  0  0  0
  6  1  1  0  0  0  0
  7  5  1  0  0  0  0
 10  7  1  0  0  0  0
 11  7  1  0  0  0  0
 12 13  1  0  0  0  0
 12  3  1  0  0  0  0
 13 14  1  0  0  0  0
 15 13  2  0  0  0  0
 16 15  1  0  0  0  0
 17 16  2  0  0  0  0
 17 22  1  0  0  0  0
 18 17  1  0  0  0  0
 19 18  2  0  0  0  0
 19 20  1  0  0  0  0
 20 21  2  0  0  0  0
 21 22  1  0  0  0  0
 22 12  2  0  0  0  0
M  END
>  <minimizedAffinity>
-5.99350119

>  <minimizedRMSD>
1.11521721

$$$$
