
 OpenBabel03272508183D

 27 30  0  0  0  0  0  0  0  0999 V2000
   37.4830   31.4210   49.5650 C   0  0  0  0  0  0  0  0  0  0  0  0
   37.2240   30.2890   48.7510 C   0  0  0  0  0  0  0  0  0  0  0  0
   36.9780   29.1060   49.4290 C   0  0  0  0  0  0  0  0  0  0  0  0
   36.9960   29.0920   50.7790 N   0  0  0  0  0  0  0  0  0  0  0  0
   37.2460   30.1880   51.5280 C   0  0  0  0  0  0  0  0  0  0  0  0
   37.4910   31.3570   50.9170 N   0  0  0  0  0  0  0  0  0  0  0  0
   36.7740   28.2080   48.8810 H   0  0  0  0  0  0  0  0  0  0  0  0
   37.2590   30.1670   52.6080 H   0  0  0  0  0  0  0  0  0  0  0  0
   37.2120   30.3480   47.2940 C   0  0  0  0  0  0  0  0  0  0  0  0
   38.3310   30.4700   46.5020 C   0  0  0  0  0  0  0  0  0  0  0  0
   39.2820   30.5250   47.0070 H   0  0  0  0  0  0  0  0  0  0  0  0
   38.2730   30.5220   45.1260 C   0  0  0  0  0  0  0  0  0  0  0  0
   37.0130   30.4450   44.5470 C   0  0  0  0  0  0  0  0  0  0  0  0
   35.8850   30.3240   45.3190 C   0  0  0  0  0  0  0  0  0  0  0  0
   34.6730   30.2550   44.6390 C   0  0  0  0  0  0  0  0  0  0  0  0
   33.5130   30.1300   45.4100 C   0  0  0  0  0  0  0  0  0  0  0  0
   33.5530   30.0760   46.8050 C   0  0  0  0  0  0  0  0  0  0  0  0
   34.7850   30.1490   47.4240 C   0  0  0  0  0  0  0  0  0  0  0  0
   35.9710   30.2730   46.6940 C   0  0  0  0  0  0  0  0  0  0  0  0
   37.6820   32.7180   48.8040 C   0  0  0  0  0  0  0  0  0  0  0  0
   38.1230   33.9050   49.5110 C   0  0  0  0  0  0  0  0  0  0  0  0
   39.1680   33.1100   48.7670 C   0  0  0  0  0  0  0  0  0  0  0  0
   37.3880   32.6190   47.7180 H   0  0  0  0  0  0  0  0  0  0  0  0
   38.1030   33.8660   50.6170 H   0  0  0  0  0  0  0  0  0  0  0  0
   37.7870   34.8930   49.0790 H   0  0  0  0  0  0  0  0  0  0  0  0
   39.5880   33.6380   47.9180 H   0  0  0  0  0  0  0  0  0  0  0  0
   39.8790   32.5660   49.4200 H   0  0  0  0  0  0  0  0  0  0  0  0
  1  6  1  0  0  0  0
  2  3  1  0  0  0  0
  2  1  2  0  0  0  0
  3  4  2  0  0  0  0
  4  5  1  0  0  0  0
  5  8  1  0  0  0  0
  6  5  2  0  0  0  0
  7  3  1  0  0  0  0
  9  2  1  0  0  0  0
 10 11  1  0  0  0  0
 10  9  2  0  0  0  0
 12 10  1  0  0  0  0
 13 12  2  0  0  0  0
 13 14  1  0  0  0  0
 14 19  1  0  0  0  0
 15 14  2  0  0  0  0
 15 16  1  0  0  0  0
 16 17  2  0  0  0  0
 17 18  1  0  0  0  0
 19  9  1  0  0  0  0
 19 18  2  0  0  0  0
 20 21  1  0  0  0  0
 20  1  1  0  0  0  0
 21 24  1  0  0  0  0
 22 20  1  0  0  0  0
 22 27  1  0  0  0  0
 22 21  1  0  0  0  0
 23 20  1  0  0  0  0
 25 21  1  0  0  0  0
 26 22  1  0  0  0  0
M  END
>  <minimizedAffinity>
-5.12162209

>  <minimizedRMSD>
5.91769695

$$$$
