
 OpenBabel03272500363D

 23 25  0  0  0  0  0  0  0  0999 V2000
   38.8600   23.0850   37.1760 C   0  0  0  0  0  0  0  0  0  0  0  0
   40.2230   22.8560   37.0710 C   0  0  0  0  0  0  0  0  0  0  0  0
   40.6830   22.2810   35.8750 C   0  0  0  0  0  0  0  0  0  0  0  0
   39.7830   21.9890   34.9090 N   0  0  0  0  0  0  0  0  0  0  0  0
   38.4750   22.2210   35.0320 C   0  0  0  0  0  0  0  0  0  0  0  0
   38.0690   22.7630   36.1700 N   0  0  0  0  0  0  0  0  0  0  0  0
   40.9350   23.0840   37.8320 H   0  0  0  0  0  0  0  0  0  0  0  0
   41.7130   22.0520   35.6680 H   0  0  0  0  0  0  0  0  0  0  0  0
   37.3730   21.9800   34.1050 C   0  0  0  0  0  0  0  0  0  0  0  0
   36.4860   20.9020   34.2240 C   0  0  0  0  0  0  0  0  0  0  0  0
   36.6390   20.2070   35.0630 H   0  0  0  0  0  0  0  0  0  0  0  0
   35.4470   20.6620   33.3650 C   0  0  0  0  0  3  0  0  0  0  0  0
   35.2190   21.4900   32.3170 C   0  0  0  0  0  3  0  0  0  0  0  0
   36.0460   22.5730   32.1290 C   0  0  0  0  0  0  0  0  0  0  0  0
   35.7820   23.3930   31.0550 C   0  0  0  0  0  3  0  0  0  0  0  0
   36.5740   24.4950   30.8150 C   0  0  0  0  0  3  0  0  0  0  0  0
   37.6280   24.7300   31.6970 C   0  0  0  0  0  3  0  0  0  0  0  0
   37.8420   23.8730   32.7550 C   0  0  0  0  0  3  0  0  0  0  0  0
   37.0720   22.7680   33.0200 C   0  0  0  0  0  0  0  0  0  0  0  0
   38.3290   23.6990   38.4370 C   0  0  0  0  0  0  0  0  0  0  0  0
   39.3090   23.6850   39.4260 F   0  0  0  0  0  0  0  0  0  0  0  0
   37.9010   24.9680   38.1430 F   0  0  0  0  0  0  0  0  0  0  0  0
   37.2870   22.8910   38.8710 F   0  0  0  0  0  0  0  0  0  0  0  0
  1 20  1  0  0  0  0
  2  1  1  0  0  0  0
  2  7  1  0  0  0  0
  3  2  2  0  0  0  0
  4  5  2  0  0  0  0
  4  3  1  0  0  0  0
  5  6  1  0  0  0  0
  6  1  2  0  0  0  0
  8  3  1  0  0  0  0
  9 10  1  0  0  0  0
  9  5  1  0  0  0  0
 10 11  1  0  0  0  0
 12 10  2  0  0  0  0
 13 12  1  0  0  0  0
 14 13  2  0  0  0  0
 14 19  1  0  0  0  0
 15 14  1  0  0  0  0
 16 15  2  0  0  0  0
 16 17  1  0  0  0  0
 17 18  2  0  0  0  0
 18 19  1  0  0  0  0
 19  9  2  0  0  0  0
 20 23  1  0  0  0  0
 20 21  1  0  0  0  0
 22 20  1  0  0  0  0
M  END
>  <minimizedAffinity>
-6.06672812

$$$$

 OpenBabel03272500363D

 23 25  0  0  0  0  0  0  0  0999 V2000
   38.9420   23.1630   37.1070 C   0  0  0  0  0  0  0  0  0  0  0  0
   40.1470   22.4910   37.2340 C   0  0  0  0  0  0  0  0  0  0  0  0
   40.7130   21.9690   36.0590 C   0  0  0  0  0  0  0  0  0  0  0  0
   40.0600   22.1510   34.8890 N   0  0  0  0  0  0  0  0  0  0  0  0
   38.9000   22.8040   34.7920 C   0  0  0  0  0  0  0  0  0  0  0  0
   38.3890   23.2850   35.9150 N   0  0  0  0  0  0  0  0  0  0  0  0
   40.6650   22.3450   38.1550 H   0  0  0  0  0  0  0  0  0  0  0  0
   41.6420   21.4280   36.0200 H   0  0  0  0  0  0  0  0  0  0  0  0
   38.0670   23.0970   33.6290 C   0  0  0  0  0  0  0  0  0  0  0  0
   38.2300   24.2380   32.8320 C   0  0  0  0  0  0  0  0  0  0  0  0
   39.0290   24.9420   33.1070 H   0  0  0  0  0  0  0  0  0  0  0  0
   37.4590   24.5280   31.7380 C   0  0  0  0  0  3  0  0  0  0  0  0
   36.4630   23.6910   31.3600 C   0  0  0  0  0  3  0  0  0  0  0  0
   36.2380   22.5470   32.0900 C   0  0  0  0  0  0  0  0  0  0  0  0
   35.2180   21.7210   31.6750 C   0  0  0  0  0  3  0  0  0  0  0  0
   34.9450   20.5590   32.3650 C   0  0  0  0  0  3  0  0  0  0  0  0
   35.7360   20.2740   33.4770 C   0  0  0  0  0  3  0  0  0  0  0  0
   36.7430   21.1410   33.8440 C   0  0  0  0  0  3  0  0  0  0  0  0
   37.0390   22.3050   33.1780 C   0  0  0  0  0  0  0  0  0  0  0  0
   38.3050   23.7360   38.3380 C   0  0  0  0  0  0  0  0  0  0  0  0
   37.9590   25.0670   38.1220 F   0  0  0  0  0  0  0  0  0  0  0  0
   37.2210   22.9590   38.6540 F   0  0  0  0  0  0  0  0  0  0  0  0
   39.2660   23.7130   39.3380 F   0  0  0  0  0  0  0  0  0  0  0  0
  1  2  1  0  0  0  0
  1 20  1  0  0  0  0
  2  7  1  0  0  0  0
  3  2  2  0  0  0  0
  4  3  1  0  0  0  0
  5  4  2  0  0  0  0
  5  6  1  0  0  0  0
  6  1  2  0  0  0  0
  8  3  1  0  0  0  0
  9  5  1  0  0  0  0
 10 11  1  0  0  0  0
 10  9  2  0  0  0  0
 12 10  1  0  0  0  0
 13 12  2  0  0  0  0
 13 14  1  0  0  0  0
 14 19  1  0  0  0  0
 15 14  2  0  0  0  0
 15 16  1  0  0  0  0
 16 17  2  0  0  0  0
 17 18  1  0  0  0  0
 19  9  1  0  0  0  0
 19 18  2  0  0  0  0
 20 22  1  0  0  0  0
 20 23  1  0  0  0  0
 21 20  1  0  0  0  0
M  END
>  <minimizedAffinity>
-6.05420208

$$$$

 OpenBabel03272500363D

 23 25  0  0  0  0  0  0  0  0999 V2000
   38.9780   23.4950   37.2620 C   0  0  0  0  0  0  0  0  0  0  0  0
   40.0440   22.6120   37.1990 C   0  0  0  0  0  0  0  0  0  0  0  0
   40.6090   22.3830   35.9330 C   0  0  0  0  0  0  0  0  0  0  0  0
   40.0890   23.0300   34.8660 N   0  0  0  0  0  0  0  0  0  0  0  0
   39.0630   23.8780   34.9520 C   0  0  0  0  0  0  0  0  0  0  0  0
   38.5490   24.0740   36.1560 N   0  0  0  0  0  0  0  0  0  0  0  0
   40.4560   22.0990   38.0390 H   0  0  0  0  0  0  0  0  0  0  0  0
   41.4380   21.7220   35.7480 H   0  0  0  0  0  0  0  0  0  0  0  0
   38.3840   24.6590   33.9210 C   0  0  0  0  0  0  0  0  0  0  0  0
   38.5580   26.0400   33.7610 C   0  0  0  0  0  0  0  0  0  0  0  0
   39.2420   26.5520   34.4530 H   0  0  0  0  0  0  0  0  0  0  0  0
   37.9310   26.7870   32.8000 C   0  0  0  0  0  3  0  0  0  0  0  0
   37.0790   26.2020   31.9240 C   0  0  0  0  0  3  0  0  0  0  0  0
   36.8540   24.8480   32.0140 C   0  0  0  0  0  0  0  0  0  0  0  0
   35.9830   24.2890   31.1060 C   0  0  0  0  0  3  0  0  0  0  0  0
   35.7180   22.9370   31.1440 C   0  0  0  0  0  3  0  0  0  0  0  0
   36.3620   22.1860   32.1260 C   0  0  0  0  0  3  0  0  0  0  0  0
   37.2240   22.8030   33.0080 C   0  0  0  0  0  3  0  0  0  0  0  0
   37.5070   24.1460   32.9960 C   0  0  0  0  0  0  0  0  0  0  0  0
   38.3470   23.7670   38.5940 C   0  0  0  0  0  0  0  0  0  0  0  0
   37.3650   22.8170   38.8620 F   0  0  0  0  0  0  0  0  0  0  0  0
   39.3400   23.7730   39.5400 F   0  0  0  0  0  0  0  0  0  0  0  0
   37.7180   25.0010   38.4990 F   0  0  0  0  0  0  0  0  0  0  0  0
  1 20  1  0  0  0  0
  2  1  1  0  0  0  0
  2  7  1  0  0  0  0
  3  2  2  0  0  0  0
  4  5  2  0  0  0  0
  4  3  1  0  0  0  0
  5  6  1  0  0  0  0
  6  1  2  0  0  0  0
  8  3  1  0  0  0  0
  9  5  1  0  0  0  0
 10  9  1  0  0  0  0
 10 11  1  0  0  0  0
 12 10  2  0  0  0  0
 13 14  2  0  0  0  0
 13 12  1  0  0  0  0
 14 19  1  0  0  0  0
 15 16  2  0  0  0  0
 15 14  1  0  0  0  0
 16 17  1  0  0  0  0
 17 18  2  0  0  0  0
 19 18  1  0  0  0  0
 19  9  2  0  0  0  0
 20 21  1  0  0  0  0
 20 22  1  0  0  0  0
 23 20  1  0  0  0  0
M  END
>  <minimizedAffinity>
-5.80362415

$$$$

 OpenBabel03272500363D

 23 25  0  0  0  0  0  0  0  0999 V2000
   36.6660   25.4710   32.2200 C   0  0  0  0  0  0  0  0  0  0  0  0
   36.4480   26.8310   32.3670 C   0  0  0  0  0  0  0  0  0  0  0  0
   37.2180   27.5000   33.3330 C   0  0  0  0  0  0  0  0  0  0  0  0
   38.1150   26.7880   34.0520 N   0  0  0  0  0  0  0  0  0  0  0  0
   38.3070   25.4780   33.8920 C   0  0  0  0  0  0  0  0  0  0  0  0
   37.5680   24.8730   32.9740 N   0  0  0  0  0  0  0  0  0  0  0  0
   35.7410   27.3960   31.8010 H   0  0  0  0  0  0  0  0  0  0  0  0
   37.1460   28.5520   33.5450 H   0  0  0  0  0  0  0  0  0  0  0  0
   39.2220   24.5600   34.5650 C   0  0  0  0  0  0  0  0  0  0  0  0
   40.3490   24.0030   33.9470 C   0  0  0  0  0  0  0  0  0  0  0  0
   40.5440   24.2760   32.8990 H   0  0  0  0  0  0  0  0  0  0  0  0
   41.2180   23.1420   34.5640 C   0  0  0  0  0  3  0  0  0  0  0  0
   41.0210   22.7760   35.8530 C   0  0  0  0  0  3  0  0  0  0  0  0
   39.9360   23.2800   36.5320 C   0  0  0  0  0  0  0  0  0  0  0  0
   39.7690   22.8860   37.8410 C   0  0  0  0  0  3  0  0  0  0  0  0
   38.7020   23.3590   38.5740 C   0  0  0  0  0  3  0  0  0  0  0  0
   37.8240   24.2350   37.9360 C   0  0  0  0  0  3  0  0  0  0  0  0
   38.0440   24.5920   36.6230 C   0  0  0  0  0  3  0  0  0  0  0  0
   39.0960   24.1380   35.8670 C   0  0  0  0  0  0  0  0  0  0  0  0
   35.8650   24.7200   31.1980 C   0  0  0  0  0  0  0  0  0  0  0  0
   36.7130   24.0280   30.3380 F   0  0  0  0  0  0  0  0  0  0  0  0
   35.0030   23.8870   31.8640 F   0  0  0  0  0  0  0  0  0  0  0  0
   35.1870   25.6660   30.4420 F   0  0  0  0  0  0  0  0  0  0  0  0
  1  2  2  0  0  0  0
  1  6  1  0  0  0  0
  2  3  1  0  0  0  0
  3  8  1  0  0  0  0
  3  4  2  0  0  0  0
  5  4  1  0  0  0  0
  5  9  1  0  0  0  0
  6  5  2  0  0  0  0
  7  2  1  0  0  0  0
  9 19  1  0  0  0  0
 10 12  1  0  0  0  0
 10  9  2  0  0  0  0
 11 10  1  0  0  0  0
 12 13  2  0  0  0  0
 13 14  1  0  0  0  0
 14 15  1  0  0  0  0
 15 16  2  0  0  0  0
 17 16  1  0  0  0  0
 18 17  2  0  0  0  0
 19 14  2  0  0  0  0
 19 18  1  0  0  0  0
 20 22  1  0  0  0  0
 20  1  1  0  0  0  0
 21 20  1  0  0  0  0
 23 20  1  0  0  0  0
M  END
>  <minimizedAffinity>
-5.78211069

$$$$

 OpenBabel03272500363D

 23 25  0  0  0  0  0  0  0  0999 V2000
   37.4710   25.1270   32.5450 C   0  0  0  0  0  0  0  0  0  0  0  0
   38.0810   26.2730   32.0590 C   0  0  0  0  0  0  0  0  0  0  0  0
   38.9940   26.9200   32.9090 C   0  0  0  0  0  0  0  0  0  0  0  0
   39.2230   26.3940   34.1330 N   0  0  0  0  0  0  0  0  0  0  0  0
   38.6250   25.2880   34.5790 C   0  0  0  0  0  0  0  0  0  0  0  0
   37.7690   24.6990   33.7570 N   0  0  0  0  0  0  0  0  0  0  0  0
   37.9010   26.6910   31.0940 H   0  0  0  0  0  0  0  0  0  0  0  0
   39.5320   27.8150   32.6530 H   0  0  0  0  0  0  0  0  0  0  0  0
   38.7530   24.5820   35.8510 C   0  0  0  0  0  0  0  0  0  0  0  0
   37.9050   24.8040   36.9440 C   0  0  0  0  0  0  0  0  0  0  0  0
   37.1060   25.5520   36.8270 H   0  0  0  0  0  0  0  0  0  0  0  0
   38.0090   24.1510   38.1430 C   0  0  0  0  0  3  0  0  0  0  0  0
   38.9760   23.2220   38.3360 C   0  0  0  0  0  3  0  0  0  0  0  0
   39.8500   22.9450   37.3110 C   0  0  0  0  0  0  0  0  0  0  0  0
   40.8180   21.9940   37.5430 C   0  0  0  0  0  3  0  0  0  0  0  0
   41.7220   21.6710   36.5540 C   0  0  0  0  0  3  0  0  0  0  0  0
   41.6060   22.3420   35.3370 C   0  0  0  0  0  3  0  0  0  0  0  0
   40.6150   23.2850   35.1640 C   0  0  0  0  0  3  0  0  0  0  0  0
   39.7020   23.6280   36.1300 C   0  0  0  0  0  0  0  0  0  0  0  0
   36.4910   24.4070   31.6690 C   0  0  0  0  0  0  0  0  0  0  0  0
   35.2760   25.0860   31.6510 F   0  0  0  0  0  0  0  0  0  0  0  0
   37.0440   24.2920   30.4200 F   0  0  0  0  0  0  0  0  0  0  0  0
   36.2660   23.1670   32.2500 F   0  0  0  0  0  0  0  0  0  0  0  0
  1  6  1  0  0  0  0
  2  1  2  0  0  0  0
  2  3  1  0  0  0  0
  3  4  2  0  0  0  0
  4  5  1  0  0  0  0
  5  9  1  0  0  0  0
  6  5  2  0  0  0  0
  7  2  1  0  0  0  0
  8  3  1  0  0  0  0
  9 19  2  0  0  0  0
  9 10  1  0  0  0  0
 10 12  2  0  0  0  0
 11 10  1  0  0  0  0
 12 13  1  0  0  0  0
 14 15  1  0  0  0  0
 14 13  2  0  0  0  0
 16 15  2  0  0  0  0
 17 16  1  0  0  0  0
 18 17  2  0  0  0  0
 18 19  1  0  0  0  0
 19 14  1  0  0  0  0
 20 23  1  0  0  0  0
 20  1  1  0  0  0  0
 21 20  1  0  0  0  0
 22 20  1  0  0  0  0
M  END
>  <minimizedAffinity>
-5.7503109

$$$$

 OpenBabel03272500363D

 23 25  0  0  0  0  0  0  0  0999 V2000
   39.9580   22.9300   36.8940 C   0  0  0  0  0  0  0  0  0  0  0  0
   39.2800   23.1040   38.0910 C   0  0  0  0  0  0  0  0  0  0  0  0
   38.0540   23.7880   38.0350 C   0  0  0  0  0  0  0  0  0  0  0  0
   37.6130   24.2300   36.8360 N   0  0  0  0  0  0  0  0  0  0  0  0
   38.2830   24.0490   35.6970 C   0  0  0  0  0  0  0  0  0  0  0  0
   39.4360   23.4020   35.7780 N   0  0  0  0  0  0  0  0  0  0  0  0
   39.6260   22.7570   39.0380 H   0  0  0  0  0  0  0  0  0  0  0  0
   37.4320   23.9890   38.8900 H   0  0  0  0  0  0  0  0  0  0  0  0
   37.9610   24.4470   34.3290 C   0  0  0  0  0  0  0  0  0  0  0  0
   38.0970   23.5940   33.2260 C   0  0  0  0  0  0  0  0  0  0  0  0
   38.4680   22.5750   33.4120 H   0  0  0  0  0  0  0  0  0  0  0  0
   37.7980   23.9490   31.9380 C   0  0  0  0  0  3  0  0  0  0  0  0
   37.3390   25.1920   31.6580 C   0  0  0  0  0  3  0  0  0  0  0  0
   37.1760   26.0910   32.6870 C   0  0  0  0  0  0  0  0  0  0  0  0
   36.7060   27.3450   32.3650 C   0  0  0  0  0  3  0  0  0  0  0  0
   36.5210   28.2880   33.3520 C   0  0  0  0  0  3  0  0  0  0  0  0
   36.8270   27.9150   34.6600 C   0  0  0  0  0  3  0  0  0  0  0  0
   37.2950   26.6450   34.9210 C   0  0  0  0  0  3  0  0  0  0  0  0
   37.4910   25.6840   33.9600 C   0  0  0  0  0  0  0  0  0  0  0  0
   41.2700   22.2040   36.9100 C   0  0  0  0  0  0  0  0  0  0  0  0
   41.3400   21.3660   38.0190 F   0  0  0  0  0  0  0  0  0  0  0  0
   41.3880   21.5180   35.7280 F   0  0  0  0  0  0  0  0  0  0  0  0
   42.2610   23.1640   37.0500 F   0  0  0  0  0  0  0  0  0  0  0  0
  1 20  1  0  0  0  0
  1  2  1  0  0  0  0
  2  7  1  0  0  0  0
  3  2  2  0  0  0  0
  3  8  1  0  0  0  0
  4  3  1  0  0  0  0
  5  6  1  0  0  0  0
  5  4  2  0  0  0  0
  6  1  2  0  0  0  0
  9  5  1  0  0  0  0
 10 11  1  0  0  0  0
 10  9  2  0  0  0  0
 12 10  1  0  0  0  0
 13 12  2  0  0  0  0
 13 14  1  0  0  0  0
 14 19  1  0  0  0  0
 15 14  2  0  0  0  0
 15 16  1  0  0  0  0
 16 17  2  0  0  0  0
 17 18  1  0  0  0  0
 19  9  1  0  0  0  0
 19 18  2  0  0  0  0
 20 23  1  0  0  0  0
 20 21  1  0  0  0  0
 22 20  1  0  0  0  0
M  END
>  <minimizedAffinity>
-5.67235613

$$$$

 OpenBabel03272500363D

 23 25  0  0  0  0  0  0  0  0999 V2000
   36.9390   20.8950   32.8450 C   0  0  0  0  0  0  0  0  0  0  0  0
   38.0340   20.4620   32.1140 C   0  0  0  0  0  0  0  0  0  0  0  0
   39.2910   20.9610   32.4930 C   0  0  0  0  0  0  0  0  0  0  0  0
   39.3590   21.8210   33.5340 N   0  0  0  0  0  0  0  0  0  0  0  0
   38.2900   22.2230   34.2230 C   0  0  0  0  0  0  0  0  0  0  0  0
   37.1180   21.7380   33.8450 N   0  0  0  0  0  0  0  0  0  0  0  0
   37.9830   19.7840   31.2920 H   0  0  0  0  0  0  0  0  0  0  0  0
   40.2170   20.7050   32.0090 H   0  0  0  0  0  0  0  0  0  0  0  0
   38.1770   23.1290   35.3630 C   0  0  0  0  0  0  0  0  0  0  0  0
   37.8980   22.6970   36.6670 C   0  0  0  0  0  0  0  0  0  0  0  0
   37.7570   21.6190   36.8270 H   0  0  0  0  0  0  0  0  0  0  0  0
   37.7910   23.5330   37.7470 C   0  0  0  0  0  3  0  0  0  0  0  0
   37.9560   24.8690   37.5990 C   0  0  0  0  0  3  0  0  0  0  0  0
   38.2330   25.3740   36.3500 C   0  0  0  0  0  0  0  0  0  0  0  0
   38.3960   26.7370   36.2390 C   0  0  0  0  0  3  0  0  0  0  0  0
   38.6770   27.3020   35.0140 C   0  0  0  0  0  3  0  0  0  0  0  0
   38.7850   26.4420   33.9220 C   0  0  0  0  0  3  0  0  0  0  0  0
   38.6110   25.0860   34.0950 C   0  0  0  0  0  3  0  0  0  0  0  0
   38.3300   24.4930   35.3010 C   0  0  0  0  0  0  0  0  0  0  0  0
   35.5780   20.3860   32.4730 C   0  0  0  0  0  0  0  0  0  0  0  0
   35.5710   19.9680   31.1440 F   0  0  0  0  0  0  0  0  0  0  0  0
   35.2520   19.3750   33.3400 F   0  0  0  0  0  0  0  0  0  0  0  0
   34.7030   21.4580   32.5770 F   0  0  0  0  0  0  0  0  0  0  0  0
  1  6  1  0  0  0  0
  2  3  1  0  0  0  0
  2  1  2  0  0  0  0
  3  4  2  0  0  0  0
  4  5  1  0  0  0  0
  5  9  1  0  0  0  0
  6  5  2  0  0  0  0
  7  2  1  0  0  0  0
  8  3  1  0  0  0  0
  9 10  1  0  0  0  0
 10 11  1  0  0  0  0
 10 12  2  0  0  0  0
 13 12  1  0  0  0  0
 14 13  2  0  0  0  0
 15 14  1  0  0  0  0
 16 15  2  0  0  0  0
 17 18  2  0  0  0  0
 17 16  1  0  0  0  0
 18 19  1  0  0  0  0
 19  9  2  0  0  0  0
 19 14  1  0  0  0  0
 20 23  1  0  0  0  0
 20  1  1  0  0  0  0
 20 22  1  0  0  0  0
 21 20  1  0  0  0  0
M  END
>  <minimizedAffinity>
-5.6444993

$$$$

 OpenBabel03272500363D

 23 25  0  0  0  0  0  0  0  0999 V2000
   36.6750   27.8610   33.4180 C   0  0  0  0  0  0  0  0  0  0  0  0
   36.7330   28.1300   32.0590 C   0  0  0  0  0  0  0  0  0  0  0  0
   36.1530   29.3320   31.6220 C   0  0  0  0  0  0  0  0  0  0  0  0
   35.5800   30.1450   32.5380 N   0  0  0  0  0  0  0  0  0  0  0  0
   35.5370   29.8650   33.8410 C   0  0  0  0  0  0  0  0  0  0  0  0
   36.0920   28.7250   34.2260 N   0  0  0  0  0  0  0  0  0  0  0  0
   37.1840   27.4900   31.3340 H   0  0  0  0  0  0  0  0  0  0  0  0
   36.1300   29.6580   30.5970 H   0  0  0  0  0  0  0  0  0  0  0  0
   34.9740   30.6170   34.9590 C   0  0  0  0  0  0  0  0  0  0  0  0
   35.6960   31.5730   35.6870 C   0  0  0  0  0  0  0  0  0  0  0  0
   36.7400   31.7560   35.3930 H   0  0  0  0  0  0  0  0  0  0  0  0
   35.1830   32.2880   36.7360 C   0  0  0  0  0  3  0  0  0  0  0  0
   33.9030   32.0970   37.1360 C   0  0  0  0  0  3  0  0  0  0  0  0
   33.1260   31.1760   36.4720 C   0  0  0  0  0  0  0  0  0  0  0  0
   31.8300   31.0110   36.9050 C   0  0  0  0  0  3  0  0  0  0  0  0
   31.0020   30.1040   36.2790 C   0  0  0  0  0  3  0  0  0  0  0  0
   31.5340   29.3820   35.2110 C   0  0  0  0  0  3  0  0  0  0  0  0
   32.8400   29.5910   34.8240 C   0  0  0  0  0  3  0  0  0  0  0  0
   33.6890   30.4860   35.4270 C   0  0  0  0  0  0  0  0  0  0  0  0
   37.2840   26.5880   33.9260 C   0  0  0  0  0  0  0  0  0  0  0  0
   36.8600   25.5120   33.1520 F   0  0  0  0  0  0  0  0  0  0  0  0
   38.6470   26.7360   33.9120 F   0  0  0  0  0  0  0  0  0  0  0  0
   36.8000   26.3940   35.2110 F   0  0  0  0  0  0  0  0  0  0  0  0
  1 20  1  0  0  0  0
  1  6  1  0  0  0  0
  2  1  2  0  0  0  0
  3  2  1  0  0  0  0
  3  4  2  0  0  0  0
  4  5  1  0  0  0  0
  5  6  2  0  0  0  0
  5  9  1  0  0  0  0
  7  2  1  0  0  0  0
  8  3  1  0  0  0  0
  9 19  2  0  0  0  0
  9 10  1  0  0  0  0
 10 12  2  0  0  0  0
 11 10  1  0  0  0  0
 12 13  1  0  0  0  0
 14 15  1  0  0  0  0
 14 13  2  0  0  0  0
 16 15  2  0  0  0  0
 17 16  1  0  0  0  0
 18 17  2  0  0  0  0
 18 19  1  0  0  0  0
 19 14  1  0  0  0  0
 20 23  1  0  0  0  0
 21 20  1  0  0  0  0
 22 20  1  0  0  0  0
M  END
>  <minimizedAffinity>
-5.64261007

$$$$

 OpenBabel03272500363D

 23 25  0  0  0  0  0  0  0  0999 V2000
   36.6870   28.0640   33.7690 C   0  0  0  0  0  0  0  0  0  0  0  0
   36.7380   28.2150   32.3920 C   0  0  0  0  0  0  0  0  0  0  0  0
   35.7300   28.9920   31.7980 C   0  0  0  0  0  0  0  0  0  0  0  0
   34.7820   29.5400   32.5910 N   0  0  0  0  0  0  0  0  0  0  0  0
   34.7540   29.3810   33.9150 C   0  0  0  0  0  0  0  0  0  0  0  0
   35.7170   28.6440   34.4490 N   0  0  0  0  0  0  0  0  0  0  0  0
   37.4840   27.7830   31.7630 H   0  0  0  0  0  0  0  0  0  0  0  0
   35.6560   29.1850   30.7420 H   0  0  0  0  0  0  0  0  0  0  0  0
   33.8240   29.8960   34.9170 C   0  0  0  0  0  0  0  0  0  0  0  0
   32.6000   29.2850   35.2190 C   0  0  0  0  0  0  0  0  0  0  0  0
   32.3360   28.3720   34.6650 H   0  0  0  0  0  0  0  0  0  0  0  0
   31.7180   29.7530   36.1550 C   0  0  0  0  0  3  0  0  0  0  0  0
   31.9980   30.8740   36.8630 C   0  0  0  0  0  3  0  0  0  0  0  0
   33.1820   31.5340   36.6260 C   0  0  0  0  0  0  0  0  0  0  0  0
   33.4340   32.6680   37.3650 C   0  0  0  0  0  3  0  0  0  0  0  0
   34.6030   33.3720   37.1740 C   0  0  0  0  0  3  0  0  0  0  0  0
   35.4950   32.8860   36.2190 C   0  0  0  0  0  3  0  0  0  0  0  0
   35.1870   31.7440   35.5100 C   0  0  0  0  0  3  0  0  0  0  0  0
   34.0310   31.0230   35.6760 C   0  0  0  0  0  0  0  0  0  0  0  0
   37.7460   27.2440   34.4430 C   0  0  0  0  0  0  0  0  0  0  0  0
   37.2340   25.9980   34.7950 F   0  0  0  0  0  0  0  0  0  0  0  0
   38.8150   27.1470   33.5900 F   0  0  0  0  0  0  0  0  0  0  0  0
   38.0810   27.9030   35.6170 F   0  0  0  0  0  0  0  0  0  0  0  0
  1 20  1  0  0  0  0
  1  6  1  0  0  0  0
  2  1  2  0  0  0  0
  3  2  1  0  0  0  0
  3  4  2  0  0  0  0
  4  5  1  0  0  0  0
  5  6  2  0  0  0  0
  5  9  1  0  0  0  0
  7  2  1  0  0  0  0
  8  3  1  0  0  0  0
  9 10  2  0  0  0  0
  9 19  1  0  0  0  0
 10 12  1  0  0  0  0
 11 10  1  0  0  0  0
 12 13  2  0  0  0  0
 14 13  1  0  0  0  0
 14 15  1  0  0  0  0
 16 15  2  0  0  0  0
 17 16  1  0  0  0  0
 18 19  1  0  0  0  0
 18 17  2  0  0  0  0
 19 14  2  0  0  0  0
 20 21  1  0  0  0  0
 20 23  1  0  0  0  0
 22 20  1  0  0  0  0
M  END
>  <minimizedAffinity>
-5.64023638

$$$$
