
 OpenBabel03272510023D

 23 25  0  0  0  0  0  0  0  0999 V2000
   38.2270   31.3260   50.2430 C   0  0  0  0  0  0  0  0  0  0  0  0
   38.3940   31.4090   48.8610 C   0  0  0  0  0  0  0  0  0  0  0  0
   37.4660   30.8090   48.0280 C   0  0  0  0  0  0  0  0  0  0  0  0
   36.4420   30.1680   48.6580 N   0  0  0  0  0  0  0  0  0  0  0  0
   36.2850   30.0890   49.9750 C   0  0  0  0  0  0  0  0  0  0  0  0
   37.1860   30.6730   50.7460 N   0  0  0  0  0  0  0  0  0  0  0  0
   38.9510   31.7960   50.8940 H   0  0  0  0  0  0  0  0  0  0  0  0
   39.2730   31.9050   48.5190 H   0  0  0  0  0  0  0  0  0  0  0  0
   37.4800   30.7100   46.5890 C   0  0  0  0  0  0  0  0  0  0  0  0
   36.2520   30.4280   45.9770 C   0  0  0  0  0  0  0  0  0  0  0  0
   35.3600   30.2890   46.5770 H   0  0  0  0  0  0  0  0  0  0  0  0
   36.0550   30.3060   44.6340 C   0  0  0  0  0  3  0  0  0  0  0  0
   37.1170   30.4640   43.7740 C   0  0  0  0  0  3  0  0  0  0  0  0
   38.3410   30.7430   44.3120 C   0  0  0  0  0  0  0  0  0  0  0  0
   39.4180   30.9400   43.4800 C   0  0  0  0  0  3  0  0  0  0  0  0
   40.6770   31.2620   43.9720 C   0  0  0  0  0  3  0  0  0  0  0  0
   40.7910   31.3740   45.3450 C   0  0  0  0  0  3  0  0  0  0  0  0
   39.7090   31.1720   46.1400 C   0  0  0  0  0  3  0  0  0  0  0  0
   38.4820   30.8550   45.6660 C   0  0  0  0  0  0  0  0  0  0  0  0
   35.1180   29.3450   50.5120 C   0  0  0  0  0  0  0  0  0  0  0  0
   35.2360   29.0860   51.8660 F   0  0  0  0  0  0  0  0  0  0  0  0
   33.9370   30.0450   50.3210 F   0  0  0  0  0  0  0  0  0  0  0  0
   34.9250   28.1320   49.8730 F   0  0  0  0  0  0  0  0  0  0  0  0
  1  6  1  0  0  0  0
  1  7  1  0  0  0  0
  2  1  2  0  0  0  0
  3  4  2  0  0  0  0
  3  2  1  0  0  0  0
  4  5  1  0  0  0  0
  5 20  1  0  0  0  0
  5  6  2  0  0  0  0
  8  2  1  0  0  0  0
  9  3  1  0  0  0  0
 10 11  1  0  0  0  0
 10  9  1  0  0  0  0
 12 10  2  0  0  0  0
 13 14  2  0  0  0  0
 13 12  1  0  0  0  0
 14 19  1  0  0  0  0
 15 16  2  0  0  0  0
 15 14  1  0  0  0  0
 16 17  1  0  0  0  0
 17 18  2  0  0  0  0
 19 18  1  0  0  0  0
 19  9  2  0  0  0  0
 20 21  1  0  0  0  0
 22 20  1  0  0  0  0
 23 20  1  0  0  0  0
M  END
>  <minimizedAffinity>
-6.67939281

>  <minimizedRMSD>
1.01206064

$$$$
