
 OpenBabel03272509123D

 30 33  0  0  0  0  0  0  0  0999 V2000
   35.3770   25.9210   30.8950 C   0  0  0  0  0  0  0  0  0  0  0  0
   36.5270   26.5420   31.4720 C   0  0  0  0  0  0  0  0  0  0  0  0
   37.4070   25.7270   32.1850 C   0  0  0  0  0  0  0  0  0  0  0  0
   37.1380   24.3970   32.3040 N   0  0  0  0  0  0  0  0  0  0  0  0
   36.0390   23.8420   31.7450 C   0  0  0  0  0  0  0  0  0  0  0  0
   35.1650   24.5980   31.0460 N   0  0  0  0  0  0  0  0  0  0  0  0
   34.6380   26.4450   30.3300 H   0  0  0  0  0  0  0  0  0  0  0  0
   35.9660   22.7760   31.9270 H   0  0  0  0  0  0  0  0  0  0  0  0
   38.5930   26.2620   32.8060 C   0  0  0  0  0  0  0  0  0  0  0  0
   38.6270   26.3990   34.1590 C   0  0  0  0  0  0  0  0  0  0  0  0
   39.7300   26.8880   34.8360 C   0  0  0  0  0  0  0  0  0  0  0  0
   40.8400   27.2480   34.0700 C   0  0  0  0  0  0  0  0  0  0  0  0
   40.8690   27.1320   32.6790 C   0  0  0  0  0  0  0  0  0  0  0  0
   39.7130   26.6300   32.0860 C   0  0  0  0  0  0  0  0  0  0  0  0
   37.8710   26.1870   34.8780 H   0  0  0  0  0  0  0  0  0  0  0  0
   39.8360   27.0250   35.9010 H   0  0  0  0  0  0  0  0  0  0  0  0
   41.7680   27.6450   34.4820 H   0  0  0  0  0  0  0  0  0  0  0  0
   41.7300   27.4130   32.0940 H   0  0  0  0  0  0  0  0  0  0  0  0
   39.7090   26.5310   31.0100 H   0  0  0  0  0  0  0  0  0  0  0  0
   36.5640   27.9520   31.2170 C   0  0  0  0  0  0  0  0  0  0  0  0
   36.9780   28.4550   29.9690 C   0  0  0  0  0  0  0  0  0  0  0  0
   37.2820   27.7580   29.1790 H   0  0  0  0  0  0  0  0  0  0  0  0
   37.0360   29.7880   29.6360 C   0  0  0  0  0  3  0  0  0  0  0  0
   36.6700   30.7150   30.5720 C   0  0  0  0  0  3  0  0  0  0  0  0
   36.2530   30.3120   31.8200 C   0  0  0  0  0  0  0  0  0  0  0  0
   35.8730   31.2490   32.7640 C   0  0  0  0  0  3  0  0  0  0  0  0
   35.4400   30.8710   34.0180 C   0  0  0  0  0  3  0  0  0  0  0  0
   35.4020   29.5180   34.2900 C   0  0  0  0  0  3  0  0  0  0  0  0
   35.7830   28.6040   33.3370 C   0  0  0  0  0  3  0  0  0  0  0  0
   36.2170   28.9650   32.0880 C   0  0  0  0  0  0  0  0  0  0  0  0
  1  6  2  0  0  0  0
  1  2  1  0  0  0  0
  2  3  2  0  0  0  0
  3  4  1  0  0  0  0
  3  9  1  0  0  0  0
  5  8  1  0  0  0  0
  5  4  2  0  0  0  0
  6  5  1  0  0  0  0
  7  1  1  0  0  0  0
  9 10  1  0  0  0  0
 10 11  2  0  0  0  0
 10 15  1  0  0  0  0
 11 16  1  0  0  0  0
 12 17  1  0  0  0  0
 12 11  1  0  0  0  0
 13 12  2  0  0  0  0
 14 13  1  0  0  0  0
 14  9  2  0  0  0  0
 18 13  1  0  0  0  0
 19 14  1  0  0  0  0
 20  2  1  0  0  0  0
 20 30  1  0  0  0  0
 21 20  2  0  0  0  0
 22 21  1  0  0  0  0
 23 21  1  0  0  0  0
 23 24  2  0  0  0  0
 24 25  1  0  0  0  0
 25 30  2  0  0  0  0
 25 26  1  0  0  0  0
 26 27  2  0  0  0  0
 27 28  1  0  0  0  0
 29 28  2  0  0  0  0
 30 29  1  0  0  0  0
M  END
>  <minimizedAffinity>
-5.93163013

$$$$

 OpenBabel03272509123D

 30 33  0  0  0  0  0  0  0  0999 V2000
   36.7020   24.4880   32.3180 C   0  0  0  0  0  0  0  0  0  0  0  0
   36.8210   25.9040   32.4600 C   0  0  0  0  0  0  0  0  0  0  0  0
   35.9830   26.7010   31.6800 C   0  0  0  0  0  0  0  0  0  0  0  0
   35.1020   26.1090   30.8270 N   0  0  0  0  0  0  0  0  0  0  0  0
   35.0160   24.7640   30.7170 C   0  0  0  0  0  0  0  0  0  0  0  0
   35.8100   23.9590   31.4560 N   0  0  0  0  0  0  0  0  0  0  0  0
   37.2910   23.7830   32.8630 H   0  0  0  0  0  0  0  0  0  0  0  0
   34.2690   24.4470   29.9980 H   0  0  0  0  0  0  0  0  0  0  0  0
   36.0310   28.1400   31.7510 C   0  0  0  0  0  0  0  0  0  0  0  0
   36.6130   28.8340   30.7360 C   0  0  0  0  0  0  0  0  0  0  0  0
   36.6870   30.2150   30.7170 C   0  0  0  0  0  0  0  0  0  0  0  0
   36.1340   30.8980   31.8010 C   0  0  0  0  0  0  0  0  0  0  0  0
   35.5230   30.2460   32.8740 C   0  0  0  0  0  0  0  0  0  0  0  0
   35.4960   28.8550   32.8050 C   0  0  0  0  0  0  0  0  0  0  0  0
   37.0880   28.4700   29.8550 H   0  0  0  0  0  0  0  0  0  0  0  0
   37.1290   30.8360   29.9520 H   0  0  0  0  0  0  0  0  0  0  0  0
   36.1280   31.9830   31.9050 H   0  0  0  0  0  0  0  0  0  0  0  0
   35.0980   30.7810   33.7070 H   0  0  0  0  0  0  0  0  0  0  0  0
   35.0280   28.3260   33.6230 H   0  0  0  0  0  0  0  0  0  0  0  0
   37.8340   26.2690   33.4070 C   0  0  0  0  0  0  0  0  0  0  0  0
   37.5810   26.2360   34.7910 C   0  0  0  0  0  0  0  0  0  0  0  0
   36.5910   25.9330   35.1530 H   0  0  0  0  0  0  0  0  0  0  0  0
   38.4940   26.5600   35.7680 C   0  0  0  0  0  3  0  0  0  0  0  0
   39.7500   26.9460   35.3900 C   0  0  0  0  0  3  0  0  0  0  0  0
   40.0850   27.0060   34.0560 C   0  0  0  0  0  0  0  0  0  0  0  0
   41.3570   27.3870   33.6740 C   0  0  0  0  0  3  0  0  0  0  0  0
   41.7220   27.4450   32.3440 C   0  0  0  0  0  3  0  0  0  0  0  0
   40.7620   27.1060   31.4130 C   0  0  0  0  0  3  0  0  0  0  0  0
   39.5020   26.7290   31.8150 C   0  0  0  0  0  3  0  0  0  0  0  0
   39.1260   26.6690   33.1320 C   0  0  0  0  0  0  0  0  0  0  0  0
  1  2  1  0  0  0  0
  1  7  1  0  0  0  0
  2 20  1  0  0  0  0
  3  9  1  0  0  0  0
  3  2  2  0  0  0  0
  4  3  1  0  0  0  0
  5  4  2  0  0  0  0
  5  6  1  0  0  0  0
  6  1  2  0  0  0  0
  8  5  1  0  0  0  0
  9 14  1  0  0  0  0
 10  9  2  0  0  0  0
 11 10  1  0  0  0  0
 11 12  2  0  0  0  0
 12 17  1  0  0  0  0
 12 13  1  0  0  0  0
 13 18  1  0  0  0  0
 14 13  2  0  0  0  0
 14 19  1  0  0  0  0
 15 10  1  0  0  0  0
 16 11  1  0  0  0  0
 20 21  1  0  0  0  0
 21 22  1  0  0  0  0
 21 23  2  0  0  0  0
 24 23  1  0  0  0  0
 25 24  2  0  0  0  0
 26 25  1  0  0  0  0
 27 26  2  0  0  0  0
 28 29  2  0  0  0  0
 28 27  1  0  0  0  0
 29 30  1  0  0  0  0
 30 20  2  0  0  0  0
 30 25  1  0  0  0  0
M  END
>  <minimizedAffinity>
-5.9041214

$$$$

 OpenBabel03272509123D

 30 33  0  0  0  0  0  0  0  0999 V2000
   35.8920   31.9920   35.1760 C   0  0  0  0  0  0  0  0  0  0  0  0
   34.9310   31.0280   34.7450 C   0  0  0  0  0  0  0  0  0  0  0  0
   33.7810   30.8760   35.5200 C   0  0  0  0  0  0  0  0  0  0  0  0
   33.6240   31.6370   36.6380 N   0  0  0  0  0  0  0  0  0  0  0  0
   34.5560   32.5410   37.0180 C   0  0  0  0  0  0  0  0  0  0  0  0
   35.6810   32.7170   36.2940 N   0  0  0  0  0  0  0  0  0  0  0  0
   36.8070   32.1930   34.6620 H   0  0  0  0  0  0  0  0  0  0  0  0
   34.2860   33.0670   37.9270 H   0  0  0  0  0  0  0  0  0  0  0  0
   32.7550   29.9270   35.1670 C   0  0  0  0  0  0  0  0  0  0  0  0
   32.4000   28.9710   36.0680 C   0  0  0  0  0  0  0  0  0  0  0  0
   31.4150   28.0330   35.8170 C   0  0  0  0  0  0  0  0  0  0  0  0
   30.7770   28.0940   34.5770 C   0  0  0  0  0  0  0  0  0  0  0  0
   31.0950   29.0490   33.6090 C   0  0  0  0  0  0  0  0  0  0  0  0
   32.0990   29.9520   33.9520 C   0  0  0  0  0  0  0  0  0  0  0  0
   32.7910   28.7810   37.0390 H   0  0  0  0  0  0  0  0  0  0  0  0
   31.0760   27.2480   36.4760 H   0  0  0  0  0  0  0  0  0  0  0  0
   29.9870   27.4140   34.2580 H   0  0  0  0  0  0  0  0  0  0  0  0
   30.5970   29.0890   32.6540 H   0  0  0  0  0  0  0  0  0  0  0  0
   32.3640   30.7010   33.2200 H   0  0  0  0  0  0  0  0  0  0  0  0
   35.3450   30.3500   33.5510 C   0  0  0  0  0  0  0  0  0  0  0  0
   35.1390   30.9220   32.2810 C   0  0  0  0  0  0  0  0  0  0  0  0
   34.6500   31.9000   32.2020 H   0  0  0  0  0  0  0  0  0  0  0  0
   35.5110   30.3470   31.0880 C   0  0  0  0  0  3  0  0  0  0  0  0
   36.1280   29.1270   31.1120 C   0  0  0  0  0  3  0  0  0  0  0  0
   36.3680   28.4940   32.3100 C   0  0  0  0  0  0  0  0  0  0  0  0
   37.0000   27.2650   32.3340 C   0  0  0  0  0  3  0  0  0  0  0  0
   37.2630   26.6150   33.5230 C   0  0  0  0  0  3  0  0  0  0  0  0
   36.8680   27.2450   34.6850 C   0  0  0  0  0  3  0  0  0  0  0  0
   36.2410   28.4670   34.6390 C   0  0  0  0  0  3  0  0  0  0  0  0
   35.9720   29.1240   33.4650 C   0  0  0  0  0  0  0  0  0  0  0  0
  1  6  1  0  0  0  0
  2  1  2  0  0  0  0
  2  3  1  0  0  0  0
  3  4  2  0  0  0  0
  4  5  1  0  0  0  0
  5  8  1  0  0  0  0
  6  5  2  0  0  0  0
  7  1  1  0  0  0  0
  9  3  1  0  0  0  0
  9 10  1  0  0  0  0
 10 15  1  0  0  0  0
 11 10  2  0  0  0  0
 11 16  1  0  0  0  0
 12 11  1  0  0  0  0
 13 14  1  0  0  0  0
 13 12  2  0  0  0  0
 14  9  2  0  0  0  0
 17 12  1  0  0  0  0
 18 13  1  0  0  0  0
 19 14  1  0  0  0  0
 20  2  1  0  0  0  0
 21 20  2  0  0  0  0
 22 21  1  0  0  0  0
 23 24  2  0  0  0  0
 23 21  1  0  0  0  0
 24 25  1  0  0  0  0
 25 26  2  0  0  0  0
 25 30  1  0  0  0  0
 26 27  1  0  0  0  0
 27 28  2  0  0  0  0
 29 28  1  0  0  0  0
 30 20  1  0  0  0  0
 30 29  2  0  0  0  0
M  END
>  <minimizedAffinity>
-5.80803967

$$$$

 OpenBabel03272509123D

 30 33  0  0  0  0  0  0  0  0999 V2000
   35.1900   25.9580   31.1750 C   0  0  0  0  0  0  0  0  0  0  0  0
   36.3330   26.5710   31.7730 C   0  0  0  0  0  0  0  0  0  0  0  0
   37.3450   25.7300   32.2360 C   0  0  0  0  0  0  0  0  0  0  0  0
   37.2050   24.3810   32.1030 N   0  0  0  0  0  0  0  0  0  0  0  0
   36.1080   23.8340   31.5320 C   0  0  0  0  0  0  0  0  0  0  0  0
   35.1080   24.6160   31.0710 N   0  0  0  0  0  0  0  0  0  0  0  0
   34.3560   26.5020   30.7870 H   0  0  0  0  0  0  0  0  0  0  0  0
   36.1460   22.7510   31.5000 H   0  0  0  0  0  0  0  0  0  0  0  0
   38.5350   26.2550   32.8570 C   0  0  0  0  0  0  0  0  0  0  0  0
   38.5860   26.3520   34.2130 C   0  0  0  0  0  0  0  0  0  0  0  0
   39.6940   26.8280   34.8900 C   0  0  0  0  0  0  0  0  0  0  0  0
   40.7920   27.2190   34.1200 C   0  0  0  0  0  0  0  0  0  0  0  0
   40.8030   27.1450   32.7260 C   0  0  0  0  0  0  0  0  0  0  0  0
   39.6430   26.6520   32.1330 C   0  0  0  0  0  0  0  0  0  0  0  0
   37.8410   26.1120   34.9350 H   0  0  0  0  0  0  0  0  0  0  0  0
   39.8130   26.9340   35.9570 H   0  0  0  0  0  0  0  0  0  0  0  0
   41.7220   27.6100   34.5320 H   0  0  0  0  0  0  0  0  0  0  0  0
   41.6550   27.4490   32.1390 H   0  0  0  0  0  0  0  0  0  0  0  0
   39.6260   26.5850   31.0550 H   0  0  0  0  0  0  0  0  0  0  0  0
   36.2230   28.0000   31.8070 C   0  0  0  0  0  0  0  0  0  0  0  0
   35.6510   28.6590   32.9120 C   0  0  0  0  0  0  0  0  0  0  0  0
   35.2780   28.0700   33.7590 H   0  0  0  0  0  0  0  0  0  0  0  0
   35.5130   30.0220   33.0330 C   0  0  0  0  0  3  0  0  0  0  0  0
   35.9580   30.8190   32.0150 C   0  0  0  0  0  3  0  0  0  0  0  0
   36.5300   30.2600   30.8960 C   0  0  0  0  0  0  0  0  0  0  0  0
   36.9890   31.0660   29.8710 C   0  0  0  0  0  3  0  0  0  0  0  0
   37.5770   30.5310   28.7430 C   0  0  0  0  0  3  0  0  0  0  0  0
   37.6890   29.1570   28.6830 C   0  0  0  0  0  3  0  0  0  0  0  0
   37.2260   28.3730   29.7140 C   0  0  0  0  0  3  0  0  0  0  0  0
   36.6380   28.8910   30.8390 C   0  0  0  0  0  0  0  0  0  0  0  0
  1  2  1  0  0  0  0
  2 20  1  0  0  0  0
  2  3  2  0  0  0  0
  3  9  1  0  0  0  0
  4  3  1  0  0  0  0
  5  4  2  0  0  0  0
  6  1  2  0  0  0  0
  6  5  1  0  0  0  0
  7  1  1  0  0  0  0
  8  5  1  0  0  0  0
  9 10  1  0  0  0  0
 10 11  2  0  0  0  0
 10 15  1  0  0  0  0
 11 16  1  0  0  0  0
 12 17  1  0  0  0  0
 12 11  1  0  0  0  0
 13 12  2  0  0  0  0
 14 13  1  0  0  0  0
 14  9  2  0  0  0  0
 18 13  1  0  0  0  0
 19 14  1  0  0  0  0
 20 21  1  0  0  0  0
 21 23  2  0  0  0  0
 21 22  1  0  0  0  0
 24 23  1  0  0  0  0
 25 24  2  0  0  0  0
 26 25  1  0  0  0  0
 27 26  2  0  0  0  0
 28 27  1  0  0  0  0
 28 29  2  0  0  0  0
 29 30  1  0  0  0  0
 30 25  1  0  0  0  0
 30 20  2  0  0  0  0
M  END
>  <minimizedAffinity>
-5.76597309

$$$$

 OpenBabel03272509123D

 30 33  0  0  0  0  0  0  0  0999 V2000
   35.9810   31.6890   35.6310 C   0  0  0  0  0  0  0  0  0  0  0  0
   35.0740   30.7080   35.1280 C   0  0  0  0  0  0  0  0  0  0  0  0
   33.7440   30.7920   35.5400 C   0  0  0  0  0  0  0  0  0  0  0  0
   33.3700   31.7870   36.3920 N   0  0  0  0  0  0  0  0  0  0  0  0
   34.2560   32.7000   36.8490 C   0  0  0  0  0  0  0  0  0  0  0  0
   35.5520   32.6520   36.4720 N   0  0  0  0  0  0  0  0  0  0  0  0
   37.0200   31.7230   35.3830 H   0  0  0  0  0  0  0  0  0  0  0  0
   33.8070   33.4260   37.5170 H   0  0  0  0  0  0  0  0  0  0  0  0
   32.7540   29.8450   35.0890 C   0  0  0  0  0  0  0  0  0  0  0  0
   32.1860   29.0010   35.9930 C   0  0  0  0  0  0  0  0  0  0  0  0
   31.2180   28.0750   35.6480 C   0  0  0  0  0  0  0  0  0  0  0  0
   30.8300   28.0270   34.3080 C   0  0  0  0  0  0  0  0  0  0  0  0
   31.3740   28.8650   33.3330 C   0  0  0  0  0  0  0  0  0  0  0  0
   32.3410   29.7650   33.7740 C   0  0  0  0  0  0  0  0  0  0  0  0
   32.3770   28.9010   37.0350 H   0  0  0  0  0  0  0  0  0  0  0  0
   30.7210   27.3750   36.3020 H   0  0  0  0  0  0  0  0  0  0  0  0
   30.0790   27.3440   33.9100 H   0  0  0  0  0  0  0  0  0  0  0  0
   31.0680   28.8220   32.2990 H   0  0  0  0  0  0  0  0  0  0  0  0
   32.7780   30.4250   33.0380 H   0  0  0  0  0  0  0  0  0  0  0  0
   35.7230   29.7630   34.2670 C   0  0  0  0  0  0  0  0  0  0  0  0
   36.1860   28.5290   34.7610 C   0  0  0  0  0  0  0  0  0  0  0  0
   36.0540   28.2870   35.8220 H   0  0  0  0  0  0  0  0  0  0  0  0
   36.8110   27.5620   34.0070 C   0  0  0  0  0  3  0  0  0  0  0  0
   37.0080   27.7950   32.6740 C   0  0  0  0  0  3  0  0  0  0  0  0
   36.5870   28.9760   32.1070 C   0  0  0  0  0  0  0  0  0  0  0  0
   36.7780   29.2080   30.7580 C   0  0  0  0  0  3  0  0  0  0  0  0
   36.3550   30.3790   30.1620 C   0  0  0  0  0  3  0  0  0  0  0  0
   35.7330   31.3070   30.9710 C   0  0  0  0  0  3  0  0  0  0  0  0
   35.5530   31.0570   32.3110 C   0  0  0  0  0  3  0  0  0  0  0  0
   35.9700   29.8990   32.9160 C   0  0  0  0  0  0  0  0  0  0  0  0
  1  6  1  0  0  0  0
  2  3  1  0  0  0  0
  2  1  2  0  0  0  0
  3  4  2  0  0  0  0
  4  5  1  0  0  0  0
  5  8  1  0  0  0  0
  6  5  2  0  0  0  0
  7  1  1  0  0  0  0
  9  3  1  0  0  0  0
  9 10  1  0  0  0  0
 10 15  1  0  0  0  0
 11 10  2  0  0  0  0
 11 16  1  0  0  0  0
 12 11  1  0  0  0  0
 13 14  1  0  0  0  0
 13 12  2  0  0  0  0
 14  9  2  0  0  0  0
 17 12  1  0  0  0  0
 18 13  1  0  0  0  0
 19 14  1  0  0  0  0
 20 21  1  0  0  0  0
 20  2  1  0  0  0  0
 21 22  1  0  0  0  0
 23 21  2  0  0  0  0
 24 23  1  0  0  0  0
 25 24  2  0  0  0  0
 25 30  1  0  0  0  0
 26 25  1  0  0  0  0
 27 26  2  0  0  0  0
 27 28  1  0  0  0  0
 28 29  2  0  0  0  0
 29 30  1  0  0  0  0
 30 20  2  0  0  0  0
M  END
>  <minimizedAffinity>
-5.67163181

$$$$

 OpenBabel03272509123D

 30 33  0  0  0  0  0  0  0  0999 V2000
   39.3370   27.5010   30.1130 C   0  0  0  0  0  0  0  0  0  0  0  0
   38.5410   26.5590   30.8330 C   0  0  0  0  0  0  0  0  0  0  0  0
   38.6060   25.2240   30.4340 C   0  0  0  0  0  0  0  0  0  0  0  0
   39.4110   24.8780   29.3910 N   0  0  0  0  0  0  0  0  0  0  0  0
   40.1520   25.7960   28.7310 C   0  0  0  0  0  0  0  0  0  0  0  0
   40.1160   27.0980   29.0890 N   0  0  0  0  0  0  0  0  0  0  0  0
   39.3670   28.5470   30.3310 H   0  0  0  0  0  0  0  0  0  0  0  0
   40.7390   25.3660   27.9270 H   0  0  0  0  0  0  0  0  0  0  0  0
   37.8360   24.2010   31.0970 C   0  0  0  0  0  0  0  0  0  0  0  0
   36.5170   24.0660   30.7930 C   0  0  0  0  0  0  0  0  0  0  0  0
   35.7100   23.1010   31.3700 C   0  0  0  0  0  0  0  0  0  0  0  0
   36.3040   22.2460   32.3000 C   0  0  0  0  0  0  0  0  0  0  0  0
   37.6520   22.3330   32.6540 C   0  0  0  0  0  0  0  0  0  0  0  0
   38.3840   23.3350   32.0220 C   0  0  0  0  0  0  0  0  0  0  0  0
   35.9160   24.6370   30.1260 H   0  0  0  0  0  0  0  0  0  0  0  0
   34.6610   22.9290   31.1840 H   0  0  0  0  0  0  0  0  0  0  0  0
   35.7790   21.4470   32.8230 H   0  0  0  0  0  0  0  0  0  0  0  0
   38.1030   21.6690   33.3740 H   0  0  0  0  0  0  0  0  0  0  0  0
   39.4300   23.4230   32.2790 H   0  0  0  0  0  0  0  0  0  0  0  0
   37.7720   27.1840   31.8700 C   0  0  0  0  0  0  0  0  0  0  0  0
   36.5640   27.8470   31.5800 C   0  0  0  0  0  0  0  0  0  0  0  0
   36.2080   27.8920   30.5440 H   0  0  0  0  0  0  0  0  0  0  0  0
   35.7610   28.4650   32.5100 C   0  0  0  0  0  3  0  0  0  0  0  0
   36.1430   28.4460   33.8230 C   0  0  0  0  0  3  0  0  0  0  0  0
   37.3100   27.8200   34.1960 C   0  0  0  0  0  0  0  0  0  0  0  0
   37.6910   27.7930   35.5250 C   0  0  0  0  0  3  0  0  0  0  0  0
   38.8510   27.1630   35.9270 C   0  0  0  0  0  3  0  0  0  0  0  0
   39.6120   26.5600   34.9470 C   0  0  0  0  0  3  0  0  0  0  0  0
   39.2150   26.5980   33.6320 C   0  0  0  0  0  3  0  0  0  0  0  0
   38.0660   27.2220   33.2170 C   0  0  0  0  0  0  0  0  0  0  0  0
  1  7  1  0  0  0  0
  1  2  1  0  0  0  0
  2 20  1  0  0  0  0
  3  2  2  0  0  0  0
  3  9  1  0  0  0  0
  4  3  1  0  0  0  0
  5  6  1  0  0  0  0
  5  4  2  0  0  0  0
  6  1  2  0  0  0  0
  8  5  1  0  0  0  0
  9 14  1  0  0  0  0
 10  9  2  0  0  0  0
 10 11  1  0  0  0  0
 11 12  2  0  0  0  0
 12 13  1  0  0  0  0
 12 17  1  0  0  0  0
 13 18  1  0  0  0  0
 14 19  1  0  0  0  0
 14 13  2  0  0  0  0
 15 10  1  0  0  0  0
 16 11  1  0  0  0  0
 20 30  1  0  0  0  0
 21 20  2  0  0  0  0
 21 23  1  0  0  0  0
 22 21  1  0  0  0  0
 23 24  2  0  0  0  0
 24 25  1  0  0  0  0
 25 26  1  0  0  0  0
 26 27  2  0  0  0  0
 28 27  1  0  0  0  0
 29 28  2  0  0  0  0
 30 29  1  0  0  0  0
 30 25  2  0  0  0  0
M  END
>  <minimizedAffinity>
-5.6408639

$$$$

 OpenBabel03272509123D

 30 33  0  0  0  0  0  0  0  0999 V2000
   40.2390   26.5220   34.4520 C   0  0  0  0  0  0  0  0  0  0  0  0
   39.4720   25.3370   34.2390 C   0  0  0  0  0  0  0  0  0  0  0  0
   39.0410   25.0750   32.9390 C   0  0  0  0  0  0  0  0  0  0  0  0
   39.3610   25.9460   31.9410 N   0  0  0  0  0  0  0  0  0  0  0  0
   40.0890   27.0600   32.1780 C   0  0  0  0  0  0  0  0  0  0  0  0
   40.5250   27.3470   33.4240 N   0  0  0  0  0  0  0  0  0  0  0  0
   40.6210   26.8230   35.4040 H   0  0  0  0  0  0  0  0  0  0  0  0
   40.2600   27.6500   31.2850 H   0  0  0  0  0  0  0  0  0  0  0  0
   38.2590   23.9050   32.6250 C   0  0  0  0  0  0  0  0  0  0  0  0
   36.9590   24.0580   32.2570 C   0  0  0  0  0  0  0  0  0  0  0  0
   36.1430   22.9920   31.9240 C   0  0  0  0  0  0  0  0  0  0  0  0
   36.7070   21.7160   31.9800 C   0  0  0  0  0  0  0  0  0  0  0  0
   38.0340   21.4920   32.3500 C   0  0  0  0  0  0  0  0  0  0  0  0
   38.7780   22.6260   32.6680 C   0  0  0  0  0  0  0  0  0  0  0  0
   36.3800   24.9480   32.1780 H   0  0  0  0  0  0  0  0  0  0  0  0
   35.1070   23.0300   31.6220 H   0  0  0  0  0  0  0  0  0  0  0  0
   36.1710   20.7970   31.7420 H   0  0  0  0  0  0  0  0  0  0  0  0
   38.4620   20.5030   32.3910 H   0  0  0  0  0  0  0  0  0  0  0  0
   39.8080   22.4790   32.9580 H   0  0  0  0  0  0  0  0  0  0  0  0
   39.2600   24.6060   35.4550 C   0  0  0  0  0  0  0  0  0  0  0  0
   38.1110   24.8200   36.2390 C   0  0  0  0  0  0  0  0  0  0  0  0
   37.3680   25.5600   35.9200 H   0  0  0  0  0  0  0  0  0  0  0  0
   37.8220   24.1600   37.4110 C   0  0  0  0  0  3  0  0  0  0  0  0
   38.7040   23.2200   37.8700 C   0  0  0  0  0  3  0  0  0  0  0  0
   39.8540   22.9480   37.1650 C   0  0  0  0  0  0  0  0  0  0  0  0
   40.7410   21.9910   37.6230 C   0  0  0  0  0  3  0  0  0  0  0  0
   41.8960   21.6900   36.9300 C   0  0  0  0  0  3  0  0  0  0  0  0
   42.1270   22.3850   35.7610 C   0  0  0  0  0  3  0  0  0  0  0  0
   41.2320   23.3320   35.3230 C   0  0  0  0  0  3  0  0  0  0  0  0
   40.0820   23.6420   36.0020 C   0  0  0  0  0  0  0  0  0  0  0  0
  1  7  1  0  0  0  0
  2  1  1  0  0  0  0
  2 20  1  0  0  0  0
  3  2  2  0  0  0  0
  4  5  2  0  0  0  0
  4  3  1  0  0  0  0
  5  6  1  0  0  0  0
  6  1  2  0  0  0  0
  8  5  1  0  0  0  0
  9 14  1  0  0  0  0
  9  3  1  0  0  0  0
 10  9  2  0  0  0  0
 11 12  2  0  0  0  0
 11 10  1  0  0  0  0
 12 13  1  0  0  0  0
 13 18  1  0  0  0  0
 13 14  2  0  0  0  0
 14 19  1  0  0  0  0
 15 10  1  0  0  0  0
 16 11  1  0  0  0  0
 17 12  1  0  0  0  0
 20 30  2  0  0  0  0
 20 21  1  0  0  0  0
 21 23  2  0  0  0  0
 22 21  1  0  0  0  0
 23 24  1  0  0  0  0
 25 26  1  0  0  0  0
 25 24  2  0  0  0  0
 27 26  2  0  0  0  0
 28 27  1  0  0  0  0
 29 28  2  0  0  0  0
 29 30  1  0  0  0  0
 30 25  1  0  0  0  0
M  END
>  <minimizedAffinity>
-5.63247108

$$$$

 OpenBabel03272509123D

 30 33  0  0  0  0  0  0  0  0999 V2000
   33.3150   29.2900   34.3480 C   0  0  0  0  0  0  0  0  0  0  0  0
   34.4300   30.1310   34.0500 C   0  0  0  0  0  0  0  0  0  0  0  0
   34.4580   31.3940   34.6420 C   0  0  0  0  0  0  0  0  0  0  0  0
   33.4390   31.7680   35.4660 N   0  0  0  0  0  0  0  0  0  0  0  0
   32.3980   30.9450   35.7260 C   0  0  0  0  0  0  0  0  0  0  0  0
   32.3360   29.7150   35.1720 N   0  0  0  0  0  0  0  0  0  0  0  0
   33.1890   28.3050   33.9520 H   0  0  0  0  0  0  0  0  0  0  0  0
   31.6710   31.3860   36.3980 H   0  0  0  0  0  0  0  0  0  0  0  0
   35.5390   32.3160   34.3990 C   0  0  0  0  0  0  0  0  0  0  0  0
   36.3160   32.7130   35.4430 C   0  0  0  0  0  0  0  0  0  0  0  0
   37.3830   33.5810   35.2960 C   0  0  0  0  0  0  0  0  0  0  0  0
   37.6480   34.0540   34.0080 C   0  0  0  0  0  0  0  0  0  0  0  0
   36.8880   33.6850   32.8970 C   0  0  0  0  0  0  0  0  0  0  0  0
   35.8350   32.8070   33.1430 C   0  0  0  0  0  0  0  0  0  0  0  0
   36.2420   32.4610   36.4740 H   0  0  0  0  0  0  0  0  0  0  0  0
   38.0440   33.9420   36.0680 H   0  0  0  0  0  0  0  0  0  0  0  0
   38.4570   34.7400   33.7610 H   0  0  0  0  0  0  0  0  0  0  0  0
   37.0990   34.0540   31.9060 H   0  0  0  0  0  0  0  0  0  0  0  0
   35.2320   32.5060   32.2990 H   0  0  0  0  0  0  0  0  0  0  0  0
   35.3490   29.5080   33.1430 C   0  0  0  0  0  0  0  0  0  0  0  0
   35.2690   29.7350   31.7560 C   0  0  0  0  0  0  0  0  0  0  0  0
   34.4860   30.3940   31.3600 H   0  0  0  0  0  0  0  0  0  0  0  0
   36.1120   29.1870   30.8170 C   0  0  0  0  0  3  0  0  0  0  0  0
   37.1120   28.3560   31.2390 C   0  0  0  0  0  3  0  0  0  0  0  0
   37.2640   28.0790   32.5780 C   0  0  0  0  0  0  0  0  0  0  0  0
   38.2820   27.2460   33.0060 C   0  0  0  0  0  3  0  0  0  0  0  0
   38.4640   26.9610   34.3440 C   0  0  0  0  0  3  0  0  0  0  0  0
   37.5870   27.5440   35.2360 C   0  0  0  0  0  3  0  0  0  0  0  0
   36.5820   28.3690   34.7900 C   0  0  0  0  0  3  0  0  0  0  0  0
   36.3880   28.6590   33.4640 C   0  0  0  0  0  0  0  0  0  0  0  0
  1  6  1  0  0  0  0
  2  1  2  0  0  0  0
  2  3  1  0  0  0  0
  3  4  2  0  0  0  0
  4  5  1  0  0  0  0
  5  8  1  0  0  0  0
  6  5  2  0  0  0  0
  7  1  1  0  0  0  0
  9  3  1  0  0  0  0
  9 10  1  0  0  0  0
 10 15  1  0  0  0  0
 11 10  2  0  0  0  0
 11 16  1  0  0  0  0
 12 11  1  0  0  0  0
 13 14  1  0  0  0  0
 13 12  2  0  0  0  0
 14  9  2  0  0  0  0
 17 12  1  0  0  0  0
 18 13  1  0  0  0  0
 19 14  1  0  0  0  0
 20 30  1  0  0  0  0
 20  2  1  0  0  0  0
 21 20  2  0  0  0  0
 22 21  1  0  0  0  0
 23 24  2  0  0  0  0
 23 21  1  0  0  0  0
 24 25  1  0  0  0  0
 25 26  2  0  0  0  0
 25 30  1  0  0  0  0
 26 27  1  0  0  0  0
 27 28  2  0  0  0  0
 29 28  1  0  0  0  0
 30 29  2  0  0  0  0
M  END
>  <minimizedAffinity>
-5.61845732

$$$$

 OpenBabel03272509123D

 30 33  0  0  0  0  0  0  0  0999 V2000
   37.9620   25.3360   32.8740 C   0  0  0  0  0  0  0  0  0  0  0  0
   37.7820   23.9210   32.9380 C   0  0  0  0  0  0  0  0  0  0  0  0
   36.6750   23.3840   32.2800 C   0  0  0  0  0  0  0  0  0  0  0  0
   35.8250   24.2150   31.6160 N   0  0  0  0  0  0  0  0  0  0  0  0
   36.0260   25.5520   31.5760 C   0  0  0  0  0  0  0  0  0  0  0  0
   37.0860   26.1090   32.2000 N   0  0  0  0  0  0  0  0  0  0  0  0
   38.7720   25.8560   33.3390 H   0  0  0  0  0  0  0  0  0  0  0  0
   35.2640   26.0760   31.0090 H   0  0  0  0  0  0  0  0  0  0  0  0
   36.4070   21.9670   32.2910 C   0  0  0  0  0  0  0  0  0  0  0  0
   36.6710   21.2360   31.1740 C   0  0  0  0  0  0  0  0  0  0  0  0
   36.4590   19.8710   31.1050 C   0  0  0  0  0  0  0  0  0  0  0  0
   35.9500   19.2460   32.2450 C   0  0  0  0  0  0  0  0  0  0  0  0
   35.6590   19.9390   33.4210 C   0  0  0  0  0  0  0  0  0  0  0  0
   35.9050   21.3100   33.3970 C   0  0  0  0  0  0  0  0  0  0  0  0
   37.0420   21.5570   30.2300 H   0  0  0  0  0  0  0  0  0  0  0  0
   36.6420   19.2230   30.2620 H   0  0  0  0  0  0  0  0  0  0  0  0
   35.7400   18.1790   32.3180 H   0  0  0  0  0  0  0  0  0  0  0  0
   35.2660   19.4490   34.2970 H   0  0  0  0  0  0  0  0  0  0  0  0
   35.6870   21.8700   34.2950 H   0  0  0  0  0  0  0  0  0  0  0  0
   38.8040   23.2810   33.7140 C   0  0  0  0  0  0  0  0  0  0  0  0
   39.8770   22.6140   33.0930 C   0  0  0  0  0  0  0  0  0  0  0  0
   39.9310   22.5780   31.9980 H   0  0  0  0  0  0  0  0  0  0  0  0
   40.9030   21.9820   33.7570 C   0  0  0  0  0  3  0  0  0  0  0  0
   40.9020   21.9880   35.1240 C   0  0  0  0  0  3  0  0  0  0  0  0
   39.8900   22.6170   35.8130 C   0  0  0  0  0  0  0  0  0  0  0  0
   39.8950   22.6320   37.1960 C   0  0  0  0  0  3  0  0  0  0  0  0
   38.8980   23.2650   37.9110 C   0  0  0  0  0  3  0  0  0  0  0  0
   37.8990   23.8830   37.1870 C   0  0  0  0  0  3  0  0  0  0  0  0
   37.9140   23.8570   35.8130 C   0  0  0  0  0  3  0  0  0  0  0  0
   38.8960   23.2300   35.0890 C   0  0  0  0  0  0  0  0  0  0  0  0
  1  2  1  0  0  0  0
  1  7  1  0  0  0  0
  2 20  1  0  0  0  0
  3  9  1  0  0  0  0
  3  2  2  0  0  0  0
  4  3  1  0  0  0  0
  5  4  2  0  0  0  0
  5  6  1  0  0  0  0
  6  1  2  0  0  0  0
  8  5  1  0  0  0  0
  9 14  1  0  0  0  0
 10  9  2  0  0  0  0
 11 10  1  0  0  0  0
 11 12  2  0  0  0  0
 12 17  1  0  0  0  0
 12 13  1  0  0  0  0
 13 18  1  0  0  0  0
 14 13  2  0  0  0  0
 14 19  1  0  0  0  0
 15 10  1  0  0  0  0
 16 11  1  0  0  0  0
 20 30  1  0  0  0  0
 21 20  2  0  0  0  0
 21 23  1  0  0  0  0
 22 21  1  0  0  0  0
 23 24  2  0  0  0  0
 24 25  1  0  0  0  0
 25 26  1  0  0  0  0
 26 27  2  0  0  0  0
 28 27  1  0  0  0  0
 29 28  2  0  0  0  0
 30 25  2  0  0  0  0
 30 29  1  0  0  0  0
M  END
>  <minimizedAffinity>
-5.59289885

$$$$
