
 OpenBabel03272508063D

 37 41  0  0  0  0  0  0  0  0999 V2000
   38.8320   31.0800   45.6910 C   0  0  0  0  0  0  0  0  0  0  0  0
   39.9150   31.9350   45.8460 C   0  0  0  0  0  0  0  0  0  0  0  0
   40.7490   31.8850   44.7310 C   0  0  0  0  0  0  0  0  0  0  0  0
   40.1160   30.9820   43.9370 N   0  0  0  0  0  0  0  0  0  0  0  0
   39.0130   30.5140   44.4810 N   0  0  0  0  0  0  0  0  0  0  0  0
   40.1020   32.5620   46.7080 H   0  0  0  0  0  0  0  0  0  0  0  0
   41.6540   32.3970   44.5110 H   0  0  0  0  0  0  0  0  0  0  0  0
   37.7490   30.8580   46.6300 C   0  0  0  0  0  0  0  0  0  0  0  0
   37.9950   31.1010   48.0090 C   0  0  0  0  0  0  0  0  0  0  0  0
   36.9380   30.8810   48.8910 C   0  0  0  0  0  0  0  0  0  0  0  0
   35.7500   30.4540   48.3920 N   0  0  0  0  0  0  0  0  0  0  0  0
   35.5460   30.2320   47.0760 C   0  0  0  0  0  0  0  0  0  0  0  0
   36.5560   30.4380   46.2060 N   0  0  0  0  0  0  0  0  0  0  0  0
   38.9650   31.4420   48.3510 H   0  0  0  0  0  0  0  0  0  0  0  0
   34.5850   29.8910   46.7150 H   0  0  0  0  0  0  0  0  0  0  0  0
   37.1760   31.1310   50.3460 C   0  0  0  0  0  0  0  0  0  0  0  0
   36.6650   32.3810   50.5920 F   0  0  0  0  0  0  0  0  0  0  0  0
   36.5200   30.2000   51.1530 F   0  0  0  0  0  0  0  0  0  0  0  0
   38.5290   31.1350   50.6580 F   0  0  0  0  0  0  0  0  0  0  0  0
   40.5270   30.5290   42.6140 C   0  0  0  0  0  0  0  0  0  0  0  0
   40.1430   31.1970   41.4470 C   0  0  0  0  0  0  0  0  0  0  0  0
   40.5630   30.7370   40.2370 C   0  0  0  0  0  0  0  0  0  0  0  0
   41.3770   29.5910   40.1530 C   0  0  0  0  0  0  0  0  0  0  0  0
   41.5290   29.1810   41.9500 S   0  0  0  0  0  0  0  0  0  0  0  0
   39.5020   32.0920   41.5250 H   0  0  0  0  0  0  0  0  0  0  0  0
   40.3040   31.2690   39.3500 H   0  0  0  0  0  0  0  0  0  0  0  0
   42.0690   28.8000   39.2580 C   0  0  0  0  0  0  0  0  0  0  0  0
   43.2100   29.3310   38.6300 C   0  0  0  0  0  0  0  0  0  0  0  0
   43.5980   30.3430   38.7870 H   0  0  0  0  0  0  0  0  0  0  0  0
   43.9860   28.6360   37.7300 C   0  0  0  0  0  3  0  0  0  0  0  0
   43.6430   27.3520   37.4160 C   0  0  0  0  0  3  0  0  0  0  0  0
   42.5500   26.7390   37.9730 C   0  0  0  0  0  0  0  0  0  0  0  0
   42.2620   25.4350   37.6500 C   0  0  0  0  0  3  0  0  0  0  0  0
   41.1820   24.8080   38.2390 C   0  0  0  0  0  3  0  0  0  0  0  0
   40.4510   25.5640   39.1390 C   0  0  0  0  0  3  0  0  0  0  0  0
   40.7810   26.8660   39.4280 C   0  0  0  0  0  3  0  0  0  0  0  0
   41.8420   27.5070   38.8550 C   0  0  0  0  0  0  0  0  0  0  0  0
  1  2  1  0  0  0  0
  1  8  1  0  0  0  0
  2  6  1  0  0  0  0
  3  2  2  0  0  0  0
  4  5  1  0  0  0  0
  4  3  1  0  0  0  0
  5  1  2  0  0  0  0
  7  3  1  0  0  0  0
  8  9  1  0  0  0  0
  9 14  1  0  0  0  0
  9 10  2  0  0  0  0
 10 16  1  0  0  0  0
 11 10  1  0  0  0  0
 12 11  2  0  0  0  0
 13  8  2  0  0  0  0
 13 12  1  0  0  0  0
 15 12  1  0  0  0  0
 16 17  1  0  0  0  0
 16 19  1  0  0  0  0
 16 18  1  0  0  0  0
 20  4  1  0  0  0  0
 21 25  1  0  0  0  0
 21 20  2  0  0  0  0
 22 21  1  0  0  0  0
 23 22  2  0  0  0  0
 23 24  1  0  0  0  0
 24 20  1  0  0  0  0
 26 22  1  0  0  0  0
 27 23  1  0  0  0  0
 28 29  1  0  0  0  0
 28 27  2  0  0  0  0
 30 28  1  0  0  0  0
 31 30  2  0  0  0  0
 31 32  1  0  0  0  0
 32 37  1  0  0  0  0
 33 32  2  0  0  0  0
 33 34  1  0  0  0  0
 34 35  2  0  0  0  0
 35 36  1  0  0  0  0
 37 27  1  0  0  0  0
 37 36  2  0  0  0  0
M  END
>  <minimizedAffinity>
-6.74685383

>  <minimizedRMSD>
1.89166558

$$$$
