
 OpenBabel03272507143D

 42 47  0  0  0  0  0  0  0  0999 V2000
   35.6620   29.2090   49.9850 C   0  0  0  0  0  0  0  0  0  0  0  0
   34.5340   29.6690   50.5970 C   0  0  0  0  0  0  0  0  0  0  0  0
   33.4510   29.0060   50.0080 C   0  0  0  0  0  0  0  0  0  0  0  0
   34.0220   28.1560   49.0420 C   0  0  0  0  0  0  0  0  0  0  0  0
   35.3050   28.3330   49.0920 O   0  0  0  0  0  0  0  0  0  0  0  0
   34.4270   30.4130   51.4000 H   0  0  0  0  0  0  0  0  0  0  0  0
   32.4310   29.1760   50.3000 H   0  0  0  0  0  0  0  0  0  0  0  0
   33.7640   26.3350   47.3650 C   0  0  0  0  0  0  0  0  0  0  0  0
   33.2180   27.2790   48.1970 C   0  0  0  0  0  0  0  0  0  0  0  0
   31.8440   27.4550   48.2810 C   0  0  0  0  0  0  0  0  0  0  0  0
   31.0330   26.6480   47.4980 C   0  0  0  0  0  0  0  0  0  0  0  0
   29.6940   26.5970   47.3780 N   0  0  0  0  0  0  0  0  0  0  0  0
   29.4230   25.6380   46.4890 N   0  0  0  0  0  0  0  0  0  0  0  0
   30.5760   25.0890   46.0510 C   0  0  0  0  0  0  0  0  0  0  0  0
   31.6430   25.7080   46.6740 C   0  0  0  0  0  0  0  0  0  0  0  0
   33.0030   25.5270   46.5850 C   0  0  0  0  0  0  0  0  0  0  0  0
   34.8440   26.2480   47.3460 H   0  0  0  0  0  0  0  0  0  0  0  0
   31.3280   28.1840   48.9180 H   0  0  0  0  0  0  0  0  0  0  0  0
   28.9920   27.1830   47.8740 H   0  0  0  0  0  0  0  0  0  0  0  0
   30.6570   24.2760   45.3140 H   0  0  0  0  0  0  0  0  0  0  0  0
   33.4030   24.7730   45.9180 H   0  0  0  0  0  0  0  0  0  0  0  0
   36.9720   29.6940   50.3590 C   0  0  0  0  0  0  0  0  0  0  0  0
   37.5110   29.2470   51.4100 O   0  0  0  0  0  0  0  0  0  0  0  0
   37.5970   30.6690   49.5050 C   0  0  0  0  0  0  0  0  0  0  0  0
   37.8230   31.9290   50.0050 C   0  0  0  0  0  0  0  0  0  0  0  0
   38.4390   32.8800   49.2140 C   0  0  0  0  0  0  0  0  0  0  0  0
   38.7930   32.4860   47.9460 N   0  0  0  0  0  0  0  0  0  0  0  0
   38.5770   31.2740   47.4600 C   0  0  0  0  0  0  0  0  0  0  0  0
   37.9780   30.4010   48.2710 N   0  0  0  0  0  0  0  0  0  0  0  0
   37.5200   32.1700   51.0070 H   0  0  0  0  0  0  0  0  0  0  0  0
   38.6250   33.8620   49.5780 H   0  0  0  0  0  0  0  0  0  0  0  0
   39.0500   31.1280   46.0960 C   0  0  0  0  0  0  0  0  0  0  0  0
   40.3760   31.3260   45.7810 C   0  0  0  0  0  0  0  0  0  0  0  0
   41.1200   31.5970   46.5180 H   0  0  0  0  0  0  0  0  0  0  0  0
   40.8860   31.2030   44.5120 C   0  0  0  0  0  0  0  0  0  0  0  0
   40.0790   30.8650   43.4530 C   0  0  0  0  0  0  0  0  0  0  0  0
   38.7460   30.6550   43.7100 C   0  0  0  0  0  0  0  0  0  0  0  0
   37.9200   30.3140   42.6610 C   0  0  0  0  0  0  0  0  0  0  0  0
   36.5730   30.0900   42.8520 C   0  0  0  0  0  0  0  0  0  0  0  0
   36.0820   30.2220   44.1500 C   0  0  0  0  0  0  0  0  0  0  0  0
   36.9500   30.5640   45.1620 C   0  0  0  0  0  0  0  0  0  0  0  0
   38.2940   30.7920   44.9990 C   0  0  0  0  0  0  0  0  0  0  0  0
  1 22  1  0  0  0  0
  1  2  2  0  0  0  0
  2  6  1  0  0  0  0
  3  7  1  0  0  0  0
  3  2  1  0  0  0  0
  4  5  1  0  0  0  0
  4  3  2  0  0  0  0
  5  1  1  0  0  0  0
  8  9  1  0  0  0  0
  9 10  2  0  0  0  0
  9  4  1  0  0  0  0
 10 18  1  0  0  0  0
 11 10  1  0  0  0  0
 12 11  1  0  0  0  0
 12 19  1  0  0  0  0
 13 12  1  0  0  0  0
 14 13  2  0  0  0  0
 14 15  1  0  0  0  0
 15 11  2  0  0  0  0
 16 15  1  0  0  0  0
 16  8  2  0  0  0  0
 17  8  1  0  0  0  0
 20 14  1  0  0  0  0
 21 16  1  0  0  0  0
 22 23  2  0  0  0  0
 24 25  1  0  0  0  0
 24 22  1  0  0  0  0
 25 30  1  0  0  0  0
 26 31  1  0  0  0  0
 26 25  2  0  0  0  0
 27 26  1  0  0  0  0
 28 27  2  0  0  0  0
 28 29  1  0  0  0  0
 29 24  2  0  0  0  0
 32 28  1  0  0  0  0
 33 32  1  0  0  0  0
 33 34  1  0  0  0  0
 35 33  2  0  0  0  0
 36 37  2  0  0  0  0
 36 35  1  0  0  0  0
 37 42  1  0  0  0  0
 38 39  2  0  0  0  0
 38 37  1  0  0  0  0
 39 40  1  0  0  0  0
 40 41  2  0  0  0  0
 42 41  1  0  0  0  0
 42 32  2  0  0  0  0
M  END
>  <minimizedAffinity>
-7.74109554

>  <minimizedRMSD>
0.76236105

$$$$
