
 OpenBabel03272509543D

 45 49  0  0  0  0  0  0  0  0999 V2000
   34.0410   29.2650   47.9210 C   0  0  0  0  0  0  0  0  0  0  0  0
   34.4760   30.1140   47.3700 H   0  0  0  0  0  0  0  0  0  0  0  0
   33.3620   29.6930   48.6950 H   0  0  0  0  0  0  0  0  0  0  0  0
   33.2260   28.3460   47.0750 C   0  0  0  0  0  0  0  0  0  0  0  0
   33.1320   28.7970   46.0630 H   0  0  0  0  0  0  0  0  0  0  0  0
   33.6880   27.3510   46.9260 H   0  0  0  0  0  0  0  0  0  0  0  0
   31.8320   28.1780   47.5780 C   0  0  0  0  0  0  0  0  0  0  0  0
   31.6320   27.6680   48.8380 C   0  0  0  0  0  0  0  0  0  0  0  0
   30.3840   27.4860   49.3350 C   0  0  0  0  0  0  0  0  0  0  0  0
   29.3370   27.7990   48.6070 N   0  0  0  0  0  0  0  0  0  0  0  0
   29.4980   28.3060   47.3600 C   0  0  0  0  0  0  0  0  0  0  0  0
   30.7460   28.4890   46.8610 N   0  0  0  0  0  0  0  0  0  0  0  0
   32.4990   27.4150   49.4220 H   0  0  0  0  0  0  0  0  0  0  0  0
   30.1830   27.0870   50.3210 H   0  0  0  0  0  0  0  0  0  0  0  0
   28.4940   28.7280   46.3660 C   0  0  0  0  0  0  0  0  0  0  0  0
   27.9730   30.0030   46.2790 C   0  0  0  0  0  0  0  0  0  0  0  0
   28.3270   30.7570   46.9990 H   0  0  0  0  0  0  0  0  0  0  0  0
   27.0430   30.4020   45.3600 C   0  0  0  0  0  3  0  0  0  0  0  0
   26.5600   29.5080   44.4360 C   0  0  0  0  0  3  0  0  0  0  0  0
   27.0400   28.2230   44.4710 C   0  0  0  0  0  0  0  0  0  0  0  0
   26.5210   27.3720   43.5210 C   0  0  0  0  0  3  0  0  0  0  0  0
   26.9470   26.0630   43.4810 C   0  0  0  0  0  3  0  0  0  0  0  0
   27.8960   25.6710   44.4250 C   0  0  0  0  0  3  0  0  0  0  0  0
   28.3670   26.5770   45.3420 C   0  0  0  0  0  3  0  0  0  0  0  0
   27.9650   27.8890   45.4100 C   0  0  0  0  0  0  0  0  0  0  0  0
   35.0250   28.5320   48.6620 O   0  0  0  0  0  0  0  0  0  0  0  0
   37.0890   29.9230   51.2650 C   0  0  0  0  0  0  0  0  0  0  0  0
   37.9360   30.7670   50.4930 C   0  0  0  0  0  0  0  0  0  0  0  0
   37.7240   30.7890   49.1310 C   0  0  0  0  0  0  0  0  0  0  0  0
   36.7230   29.9980   48.6420 N   0  0  0  0  0  0  0  0  0  0  0  0
   35.9460   29.2180   49.3890 C   0  0  0  0  0  0  0  0  0  0  0  0
   36.1360   29.1830   50.7190 N   0  0  0  0  0  0  0  0  0  0  0  0
   37.2800   29.9270   52.3420 H   0  0  0  0  0  0  0  0  0  0  0  0
   38.7190   31.3840   50.8890 H   0  0  0  0  0  0  0  0  0  0  0  0
   38.6680   33.5090   49.4160 F   0  0  0  0  0  0  0  0  0  0  0  0
   38.9250   32.8480   48.2860 C   0  0  0  0  0  0  0  0  0  0  0  0
   38.4780   31.5830   48.1780 C   0  0  0  0  0  0  0  0  0  0  0  0
   38.8060   30.9890   46.9520 C   0  0  0  0  0  0  0  0  0  0  0  0
   39.5100   31.6330   45.9650 C   0  0  0  0  0  0  0  0  0  0  0  0
   39.9390   32.9170   46.1300 C   0  0  0  0  0  0  0  0  0  0  0  0
   39.6360   33.5400   47.3260 C   0  0  0  0  0  0  0  0  0  0  0  0
   38.5130   29.9640   46.7140 H   0  0  0  0  0  0  0  0  0  0  0  0
   39.7490   31.1470   45.0270 H   0  0  0  0  0  0  0  0  0  0  0  0
   40.4880   33.4360   45.3750 H   0  0  0  0  0  0  0  0  0  0  0  0
   39.9610   34.5520   47.4870 H   0  0  0  0  0  0  0  0  0  0  0  0
  1 26  1  0  0  0  0
  1  3  1  0  0  0  0
  2  1  1  0  0  0  0
  4  7  1  0  0  0  0
  4  1  1  0  0  0  0
  5  4  1  0  0  0  0
  6  4  1  0  0  0  0
  7  8  1  0  0  0  0
  8  9  2  0  0  0  0
  8 13  1  0  0  0  0
  9 14  1  0  0  0  0
 10  9  1  0  0  0  0
 11 10  2  0  0  0  0
 12 11  1  0  0  0  0
 12  7  2  0  0  0  0
 15 11  1  0  0  0  0
 16 15  1  0  0  0  0
 16 17  1  0  0  0  0
 18 16  2  0  0  0  0
 19 20  2  0  0  0  0
 19 18  1  0  0  0  0
 20 25  1  0  0  0  0
 21 20  1  0  0  0  0
 22 21  2  0  0  0  0
 22 23  1  0  0  0  0
 23 24  2  0  0  0  0
 24 25  1  0  0  0  0
 25 15  2  0  0  0  0
 26 31  1  0  0  0  0
 27 33  1  0  0  0  0
 28 34  1  0  0  0  0
 28 27  2  0  0  0  0
 29 28  1  0  0  0  0
 30 29  2  0  0  0  0
 30 31  1  0  0  0  0
 31 32  2  0  0  0  0
 32 27  1  0  0  0  0
 36 35  1  0  0  0  0
 37 36  1  0  0  0  0
 37 29  1  0  0  0  0
 38 37  2  0  0  0  0
 39 40  2  0  0  0  0
 39 38  1  0  0  0  0
 40 41  1  0  0  0  0
 41 45  1  0  0  0  0
 41 36  2  0  0  0  0
 42 38  1  0  0  0  0
 43 39  1  0  0  0  0
 44 40  1  0  0  0  0
M  END
>  <minimizedAffinity>
-7.24152327

>  <minimizedRMSD>
1.47370195

$$$$
