
 OpenBabel03272510073D

 32 35  0  0  0  0  0  0  0  0999 V2000
   37.8660   32.2990   48.7190 C   0  0  0  0  0  0  0  0  0  0  0  0
   37.9010   31.8350   47.3780 C   0  0  0  0  0  0  0  0  0  0  0  0
   37.0480   30.7940   47.0120 C   0  0  0  0  0  0  0  0  0  0  0  0
   36.2200   30.2710   47.9530 N   0  0  0  0  0  0  0  0  0  0  0  0
   36.2020   30.7240   49.2130 C   0  0  0  0  0  0  0  0  0  0  0  0
   37.0130   31.7310   49.6120 N   0  0  0  0  0  0  0  0  0  0  0  0
   35.3090   30.1360   50.1600 N   0  0  0  0  0  0  0  0  0  0  0  0
   33.8560   30.1260   49.9660 C   0  0  0  0  0  0  0  0  0  0  0  0
   33.3310   29.2300   51.0260 C   0  0  0  0  0  0  0  0  0  0  0  0
   34.5340   28.5320   51.6210 C   0  0  0  0  0  0  0  0  0  0  0  0
   35.6570   29.4870   51.4000 C   0  0  0  0  0  0  0  0  0  0  0  0
   38.4850   33.0960   49.0990 H   0  0  0  0  0  0  0  0  0  0  0  0
   37.1200   30.4740   45.9940 H   0  0  0  0  0  0  0  0  0  0  0  0
   33.5020   31.1600   49.9910 H   0  0  0  0  0  0  0  0  0  0  0  0
   33.6050   29.7070   48.9570 H   0  0  0  0  0  0  0  0  0  0  0  0
   32.5820   28.5000   50.6190 H   0  0  0  0  0  0  0  0  0  0  0  0
   32.8460   29.8650   51.7990 H   0  0  0  0  0  0  0  0  0  0  0  0
   34.3490   28.4520   52.7270 H   0  0  0  0  0  0  0  0  0  0  0  0
   34.6700   27.5560   51.1490 H   0  0  0  0  0  0  0  0  0  0  0  0
   35.7610   30.2250   52.2140 H   0  0  0  0  0  0  0  0  0  0  0  0
   36.5890   28.8720   51.2710 H   0  0  0  0  0  0  0  0  0  0  0  0
   38.8710   32.5420   46.5790 C   0  0  0  0  0  0  0  0  0  0  0  0
   39.9610   33.0740   47.2760 C   0  0  0  0  0  0  0  0  0  0  0  0
   40.0390   32.9640   48.3680 H   0  0  0  0  0  0  0  0  0  0  0  0
   41.0010   33.7620   46.6780 C   0  0  0  0  0  3  0  0  0  0  0  0
   40.9360   33.9220   45.2900 C   0  0  0  0  0  3  0  0  0  0  0  0
   39.8780   33.4140   44.5630 C   0  0  0  0  0  0  0  0  0  0  0  0
   39.8330   33.5900   43.2050 C   0  0  0  0  0  3  0  0  0  0  0  0
   38.7420   33.0630   42.5400 C   0  0  0  0  0  3  0  0  0  0  0  0
   37.7050   32.3750   43.1670 C   0  0  0  0  0  3  0  0  0  0  0  0
   37.8170   32.2360   44.5310 C   0  0  0  0  0  3  0  0  0  0  0  0
   38.8870   32.7460   45.2240 C   0  0  0  0  0  0  0  0  0  0  0  0
  1 12  1  0  0  0  0
  1  6  1  0  0  0  0
  2  1  2  0  0  0  0
  3  2  1  0  0  0  0
  3  4  2  0  0  0  0
  4  5  1  0  0  0  0
  5  6  2  0  0  0  0
  5  7  1  0  0  0  0
  7 11  1  0  0  0  0
  8 14  1  0  0  0  0
  8  7  1  0  0  0  0
  8  9  1  0  0  0  0
  9 10  1  0  0  0  0
  9 17  1  0  0  0  0
 10 18  1  0  0  0  0
 11 10  1  0  0  0  0
 11 20  1  0  0  0  0
 13  3  1  0  0  0  0
 15  8  1  0  0  0  0
 16  9  1  0  0  0  0
 19 10  1  0  0  0  0
 21 11  1  0  0  0  0
 22 23  1  0  0  0  0
 22  2  1  0  0  0  0
 23 24  1  0  0  0  0
 25 23  2  0  0  0  0
 26 25  1  0  0  0  0
 27 32  1  0  0  0  0
 27 26  2  0  0  0  0
 28 27  1  0  0  0  0
 29 30  1  0  0  0  0
 29 28  2  0  0  0  0
 30 31  2  0  0  0  0
 31 32  1  0  0  0  0
 32 22  2  0  0  0  0
M  END
>  <minimizedAffinity>
-1.38997173

>  <minimizedRMSD>
3.52568126

$$$$
