
 OpenBabel03272509503D

 35 38  0  0  0  0  0  0  0  0999 V2000
   36.8280   29.6510   51.6650 C   0  0  0  0  0  0  0  0  0  0  0  0
   37.6600   30.2870   50.7400 C   0  0  0  0  0  0  0  0  0  0  0  0
   37.2250   30.5080   49.4530 C   0  0  0  0  0  0  0  0  0  0  0  0
   35.9530   30.0580   49.1880 N   0  0  0  0  0  0  0  0  0  0  0  0
   35.1590   29.4550   50.0580 C   0  0  0  0  0  0  0  0  0  0  0  0
   35.6220   29.2630   51.2980 N   0  0  0  0  0  0  0  0  0  0  0  0
   37.1630   29.4770   52.6750 H   0  0  0  0  0  0  0  0  0  0  0  0
   38.6340   30.5260   51.1030 H   0  0  0  0  0  0  0  0  0  0  0  0
   37.9620   31.0770   48.3470 C   0  0  0  0  0  0  0  0  0  0  0  0
   37.9060   30.3380   47.1550 C   0  0  0  0  0  0  0  0  0  0  0  0
   37.3420   29.3940   47.1000 H   0  0  0  0  0  0  0  0  0  0  0  0
   38.5250   30.7070   45.9860 C   0  0  0  0  0  0  0  0  0  0  0  0
   39.2500   31.8580   45.9300 C   0  0  0  0  0  0  0  0  0  0  0  0
   39.3380   32.6200   47.0590 C   0  0  0  0  0  0  0  0  0  0  0  0
   40.0260   33.8070   47.0540 C   0  0  0  0  0  0  0  0  0  0  0  0
   40.1130   34.6300   48.1580 C   0  0  0  0  0  0  0  0  0  0  0  0
   39.4570   34.2020   49.3120 C   0  0  0  0  0  0  0  0  0  0  0  0
   38.7780   33.0160   49.2940 C   0  0  0  0  0  0  0  0  0  0  0  0
   38.7050   32.2100   48.1930 C   0  0  0  0  0  0  0  0  0  0  0  0
   33.9340   29.1020   49.5440 O   0  0  0  0  0  0  0  0  0  0  0  0
   33.8950   28.4570   48.2860 C   0  0  0  0  0  0  0  0  0  0  0  0
   33.5320   29.2350   47.5620 H   0  0  0  0  0  0  0  0  0  0  0  0
   34.9090   28.1350   47.9590 H   0  0  0  0  0  0  0  0  0  0  0  0
   32.9020   27.3400   48.2690 C   0  0  0  0  0  0  0  0  0  0  0  0
   33.1370   26.7020   47.3820 H   0  0  0  0  0  0  0  0  0  0  0  0
   33.0050   26.6960   49.1610 H   0  0  0  0  0  0  0  0  0  0  0  0
   31.4980   27.8250   48.1400 C   0  0  0  0  0  0  0  0  0  0  0  0
   30.6510   27.6340   49.2280 C   0  0  0  0  0  0  0  0  0  0  0  0
   29.3440   28.0410   49.2150 C   0  0  0  0  0  0  0  0  0  0  0  0
   28.8590   28.6450   48.1180 N   0  0  0  0  0  0  0  0  0  0  0  0
   29.6940   28.8300   47.0560 C   0  0  0  0  0  0  0  0  0  0  0  0
   30.9890   28.4330   47.0540 N   0  0  0  0  0  0  0  0  0  0  0  0
   30.9730   27.1550   50.1440 H   0  0  0  0  0  0  0  0  0  0  0  0
   28.6870   27.8930   50.0590 H   0  0  0  0  0  0  0  0  0  0  0  0
   29.4010   29.3060   46.1260 H   0  0  0  0  0  0  0  0  0  0  0  0
  1  7  1  0  0  0  0
  2  8  1  0  0  0  0
  2  1  2  0  0  0  0
  3  2  1  0  0  0  0
  4  3  2  0  0  0  0
  4  5  1  0  0  0  0
  5  6  2  0  0  0  0
  6  1  1  0  0  0  0
  9  3  1  0  0  0  0
 10  9  2  0  0  0  0
 11 10  1  0  0  0  0
 12 10  1  0  0  0  0
 13 12  2  0  0  0  0
 13 14  1  0  0  0  0
 14 19  1  0  0  0  0
 15 14  2  0  0  0  0
 15 16  1  0  0  0  0
 16 17  2  0  0  0  0
 18 17  1  0  0  0  0
 19  9  1  0  0  0  0
 19 18  2  0  0  0  0
 20  5  1  0  0  0  0
 21 20  1  0  0  0  0
 22 21  1  0  0  0  0
 23 21  1  0  0  0  0
 24 21  1  0  0  0  0
 24 26  1  0  0  0  0
 25 24  1  0  0  0  0
 27 24  1  0  0  0  0
 27 28  1  0  0  0  0
 28 33  1  0  0  0  0
 29 28  2  0  0  0  0
 29 34  1  0  0  0  0
 30 29  1  0  0  0  0
 31 30  2  0  0  0  0
 32 31  1  0  0  0  0
 32 27  2  0  0  0  0
 35 31  1  0  0  0  0
M  END
>  <minimizedAffinity>
-7.06996584

>  <minimizedRMSD>
1.19455636

$$$$
