
 OpenBabel03272508353D

 33 36  0  0  0  0  0  0  0  0999 V2000
   39.7390   32.8470   45.6730 C   0  0  0  0  0  0  0  0  0  0  0  0
   40.3280   33.3810   46.4390 H   0  0  0  0  0  0  0  0  0  0  0  0
   39.2130   33.6110   45.0610 H   0  0  0  0  0  0  0  0  0  0  0  0
   37.6770   31.0410   47.9920 C   0  0  0  0  0  0  0  0  0  0  0  0
   37.0200   30.8110   46.8100 C   0  0  0  0  0  0  0  0  0  0  0  0
   37.7100   31.4590   45.7920 C   0  0  0  0  0  0  0  0  0  0  0  0
   38.7580   32.0550   46.3990 N   0  0  0  0  0  0  0  0  0  0  0  0
   38.7400   31.8070   47.7080 N   0  0  0  0  0  0  0  0  0  0  0  0
   36.1030   30.2230   46.6460 H   0  0  0  0  0  0  0  0  0  0  0  0
   37.3930   31.4320   44.7600 H   0  0  0  0  0  0  0  0  0  0  0  0
   37.3530   30.1000   51.6250 C   0  0  0  0  0  0  0  0  0  0  0  0
   37.8960   30.6650   50.4770 C   0  0  0  0  0  0  0  0  0  0  0  0
   37.2210   30.5040   49.2640 C   0  0  0  0  0  0  0  0  0  0  0  0
   36.0660   29.7920   49.3130 N   0  0  0  0  0  0  0  0  0  0  0  0
   35.5620   29.2540   50.4440 C   0  0  0  0  0  0  0  0  0  0  0  0
   36.2150   29.4140   51.6000 N   0  0  0  0  0  0  0  0  0  0  0  0
   37.9120   30.2510   52.5470 H   0  0  0  0  0  0  0  0  0  0  0  0
   38.8180   31.2320   50.4430 H   0  0  0  0  0  0  0  0  0  0  0  0
   34.6340   28.7130   50.3330 H   0  0  0  0  0  0  0  0  0  0  0  0
   40.5910   31.9400   44.7890 C   0  0  0  0  0  0  0  0  0  0  0  0
   41.6460   32.3190   44.8580 H   0  0  0  0  0  0  0  0  0  0  0  0
   40.5440   30.9080   45.1790 H   0  0  0  0  0  0  0  0  0  0  0  0
   40.1160   31.9640   43.3840 C   0  0  0  0  0  0  0  0  0  0  0  0
   39.3710   33.0780   42.9780 C   0  0  0  0  0  0  0  0  0  0  0  0
   39.1650   33.8550   43.7080 H   0  0  0  0  0  0  0  0  0  0  0  0
   38.8630   33.2920   41.7130 C   0  0  0  0  0  0  0  0  0  0  0  0
   39.1120   32.3180   40.7660 C   0  0  0  0  0  0  0  0  0  0  0  0
   39.8500   31.1970   41.1390 C   0  0  0  0  0  0  0  0  0  0  0  0
   40.0780   30.2370   40.1690 C   0  0  0  0  0  0  0  0  0  0  0  0
   40.8140   29.1160   40.5590 C   0  0  0  0  0  0  0  0  0  0  0  0
   41.2940   28.9530   41.8260 C   0  0  0  0  0  0  0  0  0  0  0  0
   41.0620   29.9190   42.7940 C   0  0  0  0  0  0  0  0  0  0  0  0
   40.3470   31.0110   42.4160 C   0  0  0  0  0  0  0  0  0  0  0  0
  1  7  1  0  0  0  0
  1  2  1  0  0  0  0
  3  1  1  0  0  0  0
  4 13  1  0  0  0  0
  5  4  1  0  0  0  0
  6  7  1  0  0  0  0
  6  5  2  0  0  0  0
  7  8  1  0  0  0  0
  8  4  2  0  0  0  0
  9  5  1  0  0  0  0
 10  6  1  0  0  0  0
 11 17  1  0  0  0  0
 12 11  2  0  0  0  0
 13 14  2  0  0  0  0
 13 12  1  0  0  0  0
 14 15  1  0  0  0  0
 15 16  2  0  0  0  0
 16 11  1  0  0  0  0
 18 12  1  0  0  0  0
 19 15  1  0  0  0  0
 20 21  1  0  0  0  0
 20 22  1  0  0  0  0
 20  1  1  0  0  0  0
 23 20  1  0  0  0  0
 24 23  1  0  0  0  0
 24 25  1  0  0  0  0
 26 24  2  0  0  0  0
 27 28  2  0  0  0  0
 27 26  1  0  0  0  0
 28 33  1  0  0  0  0
 29 30  2  0  0  0  0
 29 28  1  0  0  0  0
 30 31  1  0  0  0  0
 31 32  2  0  0  0  0
 33 32  1  0  0  0  0
 33 23  2  0  0  0  0
M  END
>  <minimizedAffinity>
-6.12994814

>  <minimizedRMSD>
3.6740346

$$$$
