
 OpenBabel03272508053D

 37 41  0  0  0  0  0  0  0  0999 V2000
   38.8310   31.0810   45.6900 C   0  0  0  0  0  0  0  0  0  0  0  0
   39.9140   31.9370   45.8440 C   0  0  0  0  0  0  0  0  0  0  0  0
   40.7480   31.8880   44.7290 C   0  0  0  0  0  0  0  0  0  0  0  0
   40.1150   30.9830   43.9360 N   0  0  0  0  0  0  0  0  0  0  0  0
   39.0130   30.5140   44.4810 N   0  0  0  0  0  0  0  0  0  0  0  0
   40.1000   32.5640   46.7060 H   0  0  0  0  0  0  0  0  0  0  0  0
   41.6520   32.4000   44.5090 H   0  0  0  0  0  0  0  0  0  0  0  0
   37.7480   30.8590   46.6290 C   0  0  0  0  0  0  0  0  0  0  0  0
   37.9950   31.1020   48.0080 C   0  0  0  0  0  0  0  0  0  0  0  0
   36.9380   30.8820   48.8900 C   0  0  0  0  0  0  0  0  0  0  0  0
   35.7500   30.4540   48.3920 N   0  0  0  0  0  0  0  0  0  0  0  0
   35.5460   30.2320   47.0760 C   0  0  0  0  0  0  0  0  0  0  0  0
   36.5550   30.4390   46.2050 N   0  0  0  0  0  0  0  0  0  0  0  0
   38.9650   31.4430   48.3500 H   0  0  0  0  0  0  0  0  0  0  0  0
   34.5850   29.8900   46.7150 H   0  0  0  0  0  0  0  0  0  0  0  0
   37.1770   31.1310   50.3460 C   0  0  0  0  0  0  0  0  0  0  0  0
   36.6660   32.3810   50.5910 F   0  0  0  0  0  0  0  0  0  0  0  0
   36.5200   30.2010   51.1520 F   0  0  0  0  0  0  0  0  0  0  0  0
   38.5300   31.1340   50.6570 F   0  0  0  0  0  0  0  0  0  0  0  0
   40.5260   30.5300   42.6140 C   0  0  0  0  0  0  0  0  0  0  0  0
   40.1430   31.1970   41.4460 C   0  0  0  0  0  0  0  0  0  0  0  0
   40.5630   30.7370   40.2360 C   0  0  0  0  0  0  0  0  0  0  0  0
   41.3770   29.5910   40.1530 C   0  0  0  0  0  0  0  0  0  0  0  0
   41.5290   29.1820   41.9500 S   0  0  0  0  0  0  0  0  0  0  0  0
   39.5020   32.0920   41.5240 H   0  0  0  0  0  0  0  0  0  0  0  0
   40.3040   31.2690   39.3490 H   0  0  0  0  0  0  0  0  0  0  0  0
   42.0690   28.8000   39.2580 C   0  0  0  0  0  0  0  0  0  0  0  0
   43.2100   29.3300   38.6310 C   0  0  0  0  0  0  0  0  0  0  0  0
   43.5980   30.3430   38.7870 H   0  0  0  0  0  0  0  0  0  0  0  0
   43.9870   28.6350   37.7300 C   0  0  0  0  0  3  0  0  0  0  0  0
   43.6430   27.3510   37.4160 C   0  0  0  0  0  3  0  0  0  0  0  0
   42.5500   26.7390   37.9740 C   0  0  0  0  0  0  0  0  0  0  0  0
   42.2610   25.4340   37.6510 C   0  0  0  0  0  3  0  0  0  0  0  0
   41.1820   24.8080   38.2400 C   0  0  0  0  0  3  0  0  0  0  0  0
   40.4510   25.5630   39.1390 C   0  0  0  0  0  3  0  0  0  0  0  0
   40.7810   26.8660   39.4280 C   0  0  0  0  0  3  0  0  0  0  0  0
   41.8420   27.5070   38.8550 C   0  0  0  0  0  0  0  0  0  0  0  0
  1  2  1  0  0  0  0
  1  8  1  0  0  0  0
  2  6  1  0  0  0  0
  3  2  2  0  0  0  0
  4  5  1  0  0  0  0
  4  3  1  0  0  0  0
  5  1  2  0  0  0  0
  7  3  1  0  0  0  0
  8  9  1  0  0  0  0
  9 14  1  0  0  0  0
  9 10  2  0  0  0  0
 10 16  1  0  0  0  0
 11 10  1  0  0  0  0
 12 11  2  0  0  0  0
 13  8  2  0  0  0  0
 13 12  1  0  0  0  0
 15 12  1  0  0  0  0
 16 17  1  0  0  0  0
 16 19  1  0  0  0  0
 16 18  1  0  0  0  0
 20  4  1  0  0  0  0
 21 25  1  0  0  0  0
 21 20  2  0  0  0  0
 22 21  1  0  0  0  0
 23 22  2  0  0  0  0
 23 24  1  0  0  0  0
 24 20  1  0  0  0  0
 26 22  1  0  0  0  0
 27 23  1  0  0  0  0
 28 29  1  0  0  0  0
 28 27  2  0  0  0  0
 30 28  1  0  0  0  0
 31 30  2  0  0  0  0
 31 32  1  0  0  0  0
 32 37  1  0  0  0  0
 33 32  2  0  0  0  0
 33 34  1  0  0  0  0
 34 35  2  0  0  0  0
 35 36  1  0  0  0  0
 37 27  1  0  0  0  0
 37 36  2  0  0  0  0
M  END
>  <minimizedAffinity>
-6.74666834

>  <minimizedRMSD>
0.735752046

$$$$
