
 OpenBabel03272508253D

 27 30  0  0  1  0  0  0  0  0999 V2000
   37.4700   26.6700   35.1430 C   0  0  1  0  0  0  0  0  0  0  0  0
   38.4420   25.5830   35.0830 C   0  0  1  0  0  0  0  0  0  0  0  0
   38.9440   26.9950   35.2790 C   0  0  0  0  0  0  0  0  0  0  0  0
   36.8390   26.8340   36.0180 H   0  0  0  0  0  0  0  0  0  0  0  0
   38.6660   25.1730   34.0680 H   0  0  0  0  0  0  0  0  0  0  0  0
   39.4700   27.4950   34.4650 H   0  0  0  0  0  0  0  0  0  0  0  0
   39.2200   27.3770   36.2770 H   0  0  0  0  0  0  0  0  0  0  0  0
   38.7150   24.6690   36.1790 C   0  0  0  0  0  0  0  0  0  0  0  0
   37.8670   24.8990   37.2550 C   0  0  0  0  0  0  0  0  0  0  0  0
   37.0600   25.6320   37.3140 H   0  0  0  0  0  0  0  0  0  0  0  0
   37.9730   24.1680   38.4440 C   0  0  0  0  0  3  0  0  0  0  0  0
   38.9660   23.1840   38.5240 C   0  0  0  0  0  3  0  0  0  0  0  0
   39.8130   22.9430   37.4680 C   0  0  0  0  0  0  0  0  0  0  0  0
   40.8040   21.9780   37.4830 C   0  0  0  0  0  3  0  0  0  0  0  0
   41.6350   21.7590   36.3780 C   0  0  0  0  0  3  0  0  0  0  0  0
   41.4490   22.5390   35.2340 C   0  0  0  0  0  3  0  0  0  0  0  0
   40.4580   23.4970   35.2330 C   0  0  0  0  0  3  0  0  0  0  0  0
   39.6640   23.6900   36.3250 C   0  0  0  0  0  0  0  0  0  0  0  0
   36.8820   27.2090   33.8620 C   0  0  0  0  0  0  0  0  0  0  0  0
   36.2360   28.4740   33.9480 C   0  0  0  0  0  0  0  0  0  0  0  0
   35.6900   28.9420   32.7680 C   0  0  0  0  0  0  0  0  0  0  0  0
   35.7870   28.2140   31.6350 N   0  0  0  0  0  0  0  0  0  0  0  0
   36.4050   27.0160   31.5780 C   0  0  0  0  0  0  0  0  0  0  0  0
   36.9560   26.5160   32.7070 N   0  0  0  0  0  0  0  0  0  0  0  0
   36.2180   28.9650   34.9040 H   0  0  0  0  0  0  0  0  0  0  0  0
   35.1880   29.9090   32.8060 H   0  0  0  0  0  0  0  0  0  0  0  0
   36.4590   26.4690   30.6480 H   0  0  0  0  0  0  0  0  0  0  0  0
  1  3  1  0  0  0  0
  1  4  1  1  0  0  0
  2  5  1  6  0  0  0
  2  1  1  0  0  0  0
  2  3  1  0  0  0  0
  2  8  1  0  0  0  0
  3  7  1  0  0  0  0
  6  3  1  0  0  0  0
  8 18  2  0  0  0  0
  8  9  1  0  0  0  0
  9 10  1  0  0  0  0
  9 11  2  0  0  0  0
 11 12  1  0  0  0  0
 13 14  1  0  0  0  0
 13 12  2  0  0  0  0
 15 14  2  0  0  0  0
 16 15  1  0  0  0  0
 17 16  2  0  0  0  0
 17 18  1  0  0  0  0
 18 13  1  0  0  0  0
 19 20  1  0  0  0  0
 19  1  1  0  0  0  0
 20 25  1  0  0  0  0
 21 26  1  0  0  0  0
 21 20  2  0  0  0  0
 22 21  1  0  0  0  0
 23 22  2  0  0  0  0
 23 24  1  0  0  0  0
 24 19  2  0  0  0  0
 27 23  1  0  0  0  0
M  END
>  <minimizedAffinity>
-6.07882261

$$$$

 OpenBabel03272508253D

 27 30  0  0  1  0  0  0  0  0999 V2000
   38.7810   25.5820   34.9200 C   0  0  1  0  0  0  0  0  0  0  0  0
   37.7890   26.6450   34.8060 C   0  0  1  0  0  0  0  0  0  0  0  0
   39.1970   27.0090   35.2150 C   0  0  0  0  0  0  0  0  0  0  0  0
   39.2220   25.1050   34.0420 H   0  0  0  0  0  0  0  0  0  0  0  0
   37.0520   26.7280   35.6410 H   0  0  0  0  0  0  0  0  0  0  0  0
   39.3940   27.3180   36.2430 H   0  0  0  0  0  0  0  0  0  0  0  0
   39.9240   27.4150   34.4900 H   0  0  0  0  0  0  0  0  0  0  0  0
   37.3420   27.2150   33.5450 C   0  0  0  0  0  0  0  0  0  0  0  0
   37.8850   26.5370   32.4610 C   0  0  0  0  0  0  0  0  0  0  0  0
   38.5390   25.6630   32.4900 H   0  0  0  0  0  0  0  0  0  0  0  0
   37.6320   26.9340   31.1430 C   0  0  0  0  0  3  0  0  0  0  0  0
   36.8050   28.0460   30.9400 C   0  0  0  0  0  3  0  0  0  0  0  0
   36.2590   28.7280   32.0020 C   0  0  0  0  0  0  0  0  0  0  0  0
   35.4260   29.8240   31.8640 C   0  0  0  0  0  3  0  0  0  0  0  0
   34.8820   30.4790   32.9750 C   0  0  0  0  0  3  0  0  0  0  0  0
   35.1910   30.0040   34.2520 C   0  0  0  0  0  3  0  0  0  0  0  0
   36.0230   28.9110   34.3750 C   0  0  0  0  0  3  0  0  0  0  0  0
   36.5400   28.2940   33.2740 C   0  0  0  0  0  0  0  0  0  0  0  0
   38.7990   24.7150   36.1550 C   0  0  0  0  0  0  0  0  0  0  0  0
   39.7420   23.6500   36.1640 C   0  0  0  0  0  0  0  0  0  0  0  0
   39.7290   22.8570   37.2970 C   0  0  0  0  0  0  0  0  0  0  0  0
   38.8630   23.1140   38.3000 N   0  0  0  0  0  0  0  0  0  0  0  0
   37.9770   24.1310   38.2680 C   0  0  0  0  0  0  0  0  0  0  0  0
   37.9510   24.9350   37.1820 N   0  0  0  0  0  0  0  0  0  0  0  0
   40.3820   23.5380   35.3090 H   0  0  0  0  0  0  0  0  0  0  0  0
   40.4420   22.0330   37.3300 H   0  0  0  0  0  0  0  0  0  0  0  0
   37.3030   24.2990   39.0960 H   0  0  0  0  0  0  0  0  0  0  0  0
  1  4  1  6  0  0  0
  1  3  1  0  0  0  0
  1 19  1  0  0  0  0
  2  1  1  0  0  0  0
  2  3  1  0  0  0  0
  2  5  1  1  0  0  0
  3  6  1  0  0  0  0
  7  3  1  0  0  0  0
  8  2  1  0  0  0  0
  9 10  1  0  0  0  0
  9  8  2  0  0  0  0
 11  9  1  0  0  0  0
 12 11  2  0  0  0  0
 12 13  1  0  0  0  0
 13 18  1  0  0  0  0
 14 13  2  0  0  0  0
 14 15  1  0  0  0  0
 15 16  2  0  0  0  0
 16 17  1  0  0  0  0
 18  8  1  0  0  0  0
 18 17  2  0  0  0  0
 19 20  2  0  0  0  0
 19 24  1  0  0  0  0
 20 21  1  0  0  0  0
 21 26  1  0  0  0  0
 21 22  2  0  0  0  0
 23 22  1  0  0  0  0
 23 27  1  0  0  0  0
 24 23  2  0  0  0  0
 25 20  1  0  0  0  0
M  END
>  <minimizedAffinity>
-5.69796848

$$$$

 OpenBabel03272508253D

 27 30  0  0  1  0  0  0  0  0999 V2000
   39.0070   25.0950   34.7610 C   0  0  1  0  0  0  0  0  0  0  0  0
   38.6120   26.4960   34.6700 C   0  0  1  0  0  0  0  0  0  0  0  0
   40.0850   26.1580   34.6960 C   0  0  0  0  0  0  0  0  0  0  0  0
   38.9250   24.4140   33.9110 H   0  0  0  0  0  0  0  0  0  0  0  0
   38.2530   26.9730   35.6140 H   0  0  0  0  0  0  0  0  0  0  0  0
   40.6730   26.3930   35.5840 H   0  0  0  0  0  0  0  0  0  0  0  0
   40.6860   26.1200   33.7710 H   0  0  0  0  0  0  0  0  0  0  0  0
   38.1430   27.1370   33.4510 C   0  0  0  0  0  0  0  0  0  0  0  0
   38.9390   26.8000   32.3630 C   0  0  0  0  0  0  0  0  0  0  0  0
   39.7940   26.1220   32.3570 H   0  0  0  0  0  0  0  0  0  0  0  0
   38.7070   27.3330   31.0900 C   0  0  0  0  0  3  0  0  0  0  0  0
   37.6390   28.2240   30.9360 C   0  0  0  0  0  3  0  0  0  0  0  0
   36.8410   28.5670   32.0030 C   0  0  0  0  0  0  0  0  0  0  0  0
   35.7650   29.4320   31.9100 C   0  0  0  0  0  3  0  0  0  0  0  0
   34.9720   29.7410   33.0210 C   0  0  0  0  0  3  0  0  0  0  0  0
   35.2820   29.1550   34.2500 C   0  0  0  0  0  3  0  0  0  0  0  0
   36.3570   28.2960   34.3290 C   0  0  0  0  0  3  0  0  0  0  0  0
   37.1130   28.0140   33.2290 C   0  0  0  0  0  0  0  0  0  0  0  0
   38.9700   24.4000   36.1000 C   0  0  0  0  0  0  0  0  0  0  0  0
   38.0170   24.8880   37.0370 C   0  0  0  0  0  0  0  0  0  0  0  0
   38.0110   24.2500   38.2630 C   0  0  0  0  0  0  0  0  0  0  0  0
   38.8690   23.2370   38.5090 N   0  0  0  0  0  0  0  0  0  0  0  0
   39.7650   22.7920   37.6040 C   0  0  0  0  0  0  0  0  0  0  0  0
   39.8090   23.3840   36.3890 N   0  0  0  0  0  0  0  0  0  0  0  0
   37.3830   25.7010   36.7330 H   0  0  0  0  0  0  0  0  0  0  0  0
   37.2890   24.6040   39.0000 H   0  0  0  0  0  0  0  0  0  0  0  0
   40.4320   21.9780   37.8460 H   0  0  0  0  0  0  0  0  0  0  0  0
  1  4  1  6  0  0  0
  1 19  1  0  0  0  0
  2  3  1  0  0  0  0
  2  1  1  0  0  0  0
  2  5  1  1  0  0  0
  3  1  1  0  0  0  0
  3  6  1  0  0  0  0
  7  3  1  0  0  0  0
  8  2  1  0  0  0  0
  9  8  2  0  0  0  0
 10  9  1  0  0  0  0
 11  9  1  0  0  0  0
 12 11  2  0  0  0  0
 12 13  1  0  0  0  0
 13 18  1  0  0  0  0
 14 13  2  0  0  0  0
 14 15  1  0  0  0  0
 15 16  2  0  0  0  0
 16 17  1  0  0  0  0
 18  8  1  0  0  0  0
 18 17  2  0  0  0  0
 19 24  2  0  0  0  0
 19 20  1  0  0  0  0
 20 21  2  0  0  0  0
 21 22  1  0  0  0  0
 21 26  1  0  0  0  0
 23 27  1  0  0  0  0
 23 22  2  0  0  0  0
 24 23  1  0  0  0  0
 25 20  1  0  0  0  0
M  END
>  <minimizedAffinity>
-5.65198851

$$$$

 OpenBabel03272508253D

 27 30  0  0  1  0  0  0  0  0999 V2000
   35.5590   30.5360   34.4070 C   0  0  1  0  0  0  0  0  0  0  0  0
   35.3930   29.1360   34.0320 C   0  0  1  0  0  0  0  0  0  0  0  0
   34.7610   30.1990   33.1620 C   0  0  0  0  0  0  0  0  0  0  0  0
   36.5040   31.0640   34.2670 H   0  0  0  0  0  0  0  0  0  0  0  0
   34.6470   28.5490   34.6210 H   0  0  0  0  0  0  0  0  0  0  0  0
   33.6770   30.3170   33.1620 H   0  0  0  0  0  0  0  0  0  0  0  0
   35.2390   30.5410   32.2280 H   0  0  0  0  0  0  0  0  0  0  0  0
   36.4190   28.3350   33.3850 C   0  0  0  0  0  0  0  0  0  0  0  0
   36.2120   28.2560   32.0130 C   0  0  0  0  0  0  0  0  0  0  0  0
   35.4210   28.7400   31.4370 H   0  0  0  0  0  0  0  0  0  0  0  0
   37.0500   27.5010   31.1850 C   0  0  0  0  0  3  0  0  0  0  0  0
   38.1170   26.8170   31.7790 C   0  0  0  0  0  3  0  0  0  0  0  0
   38.3370   26.8850   33.1350 C   0  0  0  0  0  0  0  0  0  0  0  0
   39.3810   26.2420   33.7770 C   0  0  0  0  0  3  0  0  0  0  0  0
   39.5730   26.3510   35.1590 C   0  0  0  0  0  3  0  0  0  0  0  0
   38.6840   27.1320   35.9010 C   0  0  0  0  0  3  0  0  0  0  0  0
   37.6480   27.7670   35.2490 C   0  0  0  0  0  3  0  0  0  0  0  0
   37.4840   27.6420   33.9000 C   0  0  0  0  0  0  0  0  0  0  0  0
   34.6950   31.1180   35.4990 C   0  0  0  0  0  0  0  0  0  0  0  0
   35.2390   32.2220   36.2120 C   0  0  0  0  0  0  0  0  0  0  0  0
   34.4390   32.7290   37.2190 C   0  0  0  0  0  0  0  0  0  0  0  0
   33.2320   32.1800   37.4730 N   0  0  0  0  0  0  0  0  0  0  0  0
   32.7380   31.1310   36.7830 C   0  0  0  0  0  0  0  0  0  0  0  0
   33.4830   30.6010   35.7880 N   0  0  0  0  0  0  0  0  0  0  0  0
   36.2110   32.5770   35.9240 H   0  0  0  0  0  0  0  0  0  0  0  0
   34.8320   33.5760   37.7810 H   0  0  0  0  0  0  0  0  0  0  0  0
   31.7660   30.7250   37.0230 H   0  0  0  0  0  0  0  0  0  0  0  0
  1  4  1  6  0  0  0
  1 19  1  0  0  0  0
  2  1  1  0  0  0  0
  2  5  1  1  0  0  0
  3  6  1  0  0  0  0
  3  2  1  0  0  0  0
  3  1  1  0  0  0  0
  7  3  1  0  0  0  0
  8 18  1  0  0  0  0
  8  2  1  0  0  0  0
  9  8  2  0  0  0  0
 10  9  1  0  0  0  0
 11 12  2  0  0  0  0
 11  9  1  0  0  0  0
 12 13  1  0  0  0  0
 13 14  2  0  0  0  0
 13 18  1  0  0  0  0
 14 15  1  0  0  0  0
 15 16  2  0  0  0  0
 17 16  1  0  0  0  0
 18 17  2  0  0  0  0
 19 24  2  0  0  0  0
 19 20  1  0  0  0  0
 20 21  2  0  0  0  0
 21 22  1  0  0  0  0
 21 26  1  0  0  0  0
 23 27  1  0  0  0  0
 23 22  2  0  0  0  0
 24 23  1  0  0  0  0
 25 20  1  0  0  0  0
M  END
>  <minimizedAffinity>
-5.63311434

$$$$

 OpenBabel03272508253D

 27 30  0  0  1  0  0  0  0  0999 V2000
   36.1230   23.0730   31.4530 C   0  0  1  0  0  0  0  0  0  0  0  0
   37.0980   23.7670   32.2870 C   0  0  1  0  0  0  0  0  0  0  0  0
   37.4320   23.5210   30.8330 C   0  0  0  0  0  0  0  0  0  0  0  0
   35.2110   23.5600   31.1020 H   0  0  0  0  0  0  0  0  0  0  0  0
   37.6940   23.1320   32.9880 H   0  0  0  0  0  0  0  0  0  0  0  0
   38.1930   22.7840   30.5750 H   0  0  0  0  0  0  0  0  0  0  0  0
   37.3100   24.3100   30.0710 H   0  0  0  0  0  0  0  0  0  0  0  0
   36.9980   25.1650   32.6730 C   0  0  0  0  0  0  0  0  0  0  0  0
   36.3870   25.9220   31.6810 C   0  0  0  0  0  0  0  0  0  0  0  0
   35.9830   25.5640   30.7320 H   0  0  0  0  0  0  0  0  0  0  0  0
   36.2190   27.3060   31.8110 C   0  0  0  0  0  3  0  0  0  0  0  0
   36.6870   27.9170   32.9800 C   0  0  0  0  0  3  0  0  0  0  0  0
   37.2940   27.1820   33.9720 C   0  0  0  0  0  0  0  0  0  0  0  0
   37.7650   27.7280   35.1520 C   0  0  0  0  0  3  0  0  0  0  0  0
   38.3630   26.9380   36.1400 C   0  0  0  0  0  3  0  0  0  0  0  0
   38.4820   25.5630   35.9190 C   0  0  0  0  0  3  0  0  0  0  0  0
   38.0090   25.0330   34.7380 C   0  0  0  0  0  3  0  0  0  0  0  0
   37.4310   25.8280   33.7920 C   0  0  0  0  0  0  0  0  0  0  0  0
   36.0150   21.5700   31.5350 C   0  0  0  0  0  0  0  0  0  0  0  0
   35.4770   21.0410   32.7410 C   0  0  0  0  0  0  0  0  0  0  0  0
   35.4030   19.6620   32.8020 C   0  0  0  0  0  0  0  0  0  0  0  0
   35.8240   18.9090   31.7640 N   0  0  0  0  0  0  0  0  0  0  0  0
   36.3310   19.4340   30.6290 C   0  0  0  0  0  0  0  0  0  0  0  0
   36.4240   20.7790   30.5210 N   0  0  0  0  0  0  0  0  0  0  0  0
   35.1740   21.7350   33.5030 H   0  0  0  0  0  0  0  0  0  0  0  0
   34.9940   19.2300   33.7170 H   0  0  0  0  0  0  0  0  0  0  0  0
   36.6560   18.7920   29.8240 H   0  0  0  0  0  0  0  0  0  0  0  0
  1  4  1  6  0  0  0
  1 19  1  0  0  0  0
  1  2  1  0  0  0  0
  2  8  1  0  0  0  0
  2  5  1  1  0  0  0
  3  1  1  0  0  0  0
  3  2  1  0  0  0  0
  6  3  1  0  0  0  0
  7  3  1  0  0  0  0
  8 18  1  0  0  0  0
  9 11  1  0  0  0  0
  9  8  2  0  0  0  0
 10  9  1  0  0  0  0
 11 12  2  0  0  0  0
 12 13  1  0  0  0  0
 13 14  1  0  0  0  0
 14 15  2  0  0  0  0
 16 15  1  0  0  0  0
 17 16  2  0  0  0  0
 18 13  2  0  0  0  0
 18 17  1  0  0  0  0
 19 20  1  0  0  0  0
 20 21  2  0  0  0  0
 20 25  1  0  0  0  0
 21 26  1  0  0  0  0
 22 21  1  0  0  0  0
 23 22  2  0  0  0  0
 24 23  1  0  0  0  0
 24 19  2  0  0  0  0
 27 23  1  0  0  0  0
M  END
>  <minimizedAffinity>
-5.50295115

$$$$

 OpenBabel03272508253D

 27 30  0  0  1  0  0  0  0  0999 V2000
   37.9580   26.6890   33.2630 C   0  0  1  0  0  0  0  0  0  0  0  0
   37.6850   25.7130   34.3130 C   0  0  1  0  0  0  0  0  0  0  0  0
   37.2240   25.4120   32.9050 C   0  0  0  0  0  0  0  0  0  0  0  0
   38.9580   26.8240   32.8460 H   0  0  0  0  0  0  0  0  0  0  0  0
   36.8440   25.9550   35.0090 H   0  0  0  0  0  0  0  0  0  0  0  0
   36.1590   25.4430   32.6720 H   0  0  0  0  0  0  0  0  0  0  0  0
   37.7990   24.7460   32.2390 H   0  0  0  0  0  0  0  0  0  0  0  0
   38.6730   24.7930   34.8530 C   0  0  0  0  0  0  0  0  0  0  0  0
   39.5850   24.4010   33.8810 C   0  0  0  0  0  0  0  0  0  0  0  0
   39.6250   24.7330   32.8420 H   0  0  0  0  0  0  0  0  0  0  0  0
   40.6040   23.4830   34.1570 C   0  0  0  0  0  3  0  0  0  0  0  0
   40.6860   22.9630   35.4540 C   0  0  0  0  0  3  0  0  0  0  0  0
   39.7910   23.3410   36.4290 C   0  0  0  0  0  0  0  0  0  0  0  0
   39.8280   22.8710   37.7300 C   0  0  0  0  0  3  0  0  0  0  0  0
   38.9050   23.2960   38.6910 C   0  0  0  0  0  3  0  0  0  0  0  0
   37.9250   24.2190   38.3190 C   0  0  0  0  0  3  0  0  0  0  0  0
   37.8990   24.6790   37.0190 C   0  0  0  0  0  3  0  0  0  0  0  0
   38.8110   24.2460   36.1020 C   0  0  0  0  0  0  0  0  0  0  0  0
   37.0780   27.9080   33.1380 C   0  0  0  0  0  0  0  0  0  0  0  0
   36.3760   28.3020   34.3110 C   0  0  0  0  0  0  0  0  0  0  0  0
   35.5620   29.4100   34.1700 C   0  0  0  0  0  0  0  0  0  0  0  0
   35.4710   30.0440   32.9820 N   0  0  0  0  0  0  0  0  0  0  0  0
   36.1470   29.6510   31.8820 C   0  0  0  0  0  0  0  0  0  0  0  0
   36.9570   28.5720   31.9700 N   0  0  0  0  0  0  0  0  0  0  0  0
   36.5230   27.7220   35.2040 H   0  0  0  0  0  0  0  0  0  0  0  0
   35.0120   29.7340   35.0550 H   0  0  0  0  0  0  0  0  0  0  0  0
   36.0430   30.1890   30.9520 H   0  0  0  0  0  0  0  0  0  0  0  0
  1  4  1  6  0  0  0
  1  2  1  0  0  0  0
  2  8  1  0  0  0  0
  2  5  1  1  0  0  0
  3  1  1  0  0  0  0
  3  2  1  0  0  0  0
  6  3  1  0  0  0  0
  7  3  1  0  0  0  0
  8 18  1  0  0  0  0
  9 11  1  0  0  0  0
  9  8  2  0  0  0  0
 10  9  1  0  0  0  0
 11 12  2  0  0  0  0
 12 13  1  0  0  0  0
 13 14  1  0  0  0  0
 14 15  2  0  0  0  0
 16 15  1  0  0  0  0
 17 16  2  0  0  0  0
 18 13  2  0  0  0  0
 18 17  1  0  0  0  0
 19  1  1  0  0  0  0
 19 20  1  0  0  0  0
 20 25  1  0  0  0  0
 21 20  2  0  0  0  0
 21 26  1  0  0  0  0
 22 21  1  0  0  0  0
 23 24  1  0  0  0  0
 23 22  2  0  0  0  0
 24 19  2  0  0  0  0
 27 23  1  0  0  0  0
M  END
>  <minimizedAffinity>
-5.44770384

$$$$

 OpenBabel03272508253D

 27 30  0  0  1  0  0  0  0  0999 V2000
   38.6430   26.4740   34.7470 C   0  0  1  0  0  0  0  0  0  0  0  0
   37.3320   27.0910   34.9190 C   0  0  1  0  0  0  0  0  0  0  0  0
   38.4980   27.6310   35.7150 C   0  0  0  0  0  0  0  0  0  0  0  0
   39.2490   26.6420   33.8540 H   0  0  0  0  0  0  0  0  0  0  0  0
   36.5960   26.5280   35.5430 H   0  0  0  0  0  0  0  0  0  0  0  0
   38.5420   27.4520   36.7900 H   0  0  0  0  0  0  0  0  0  0  0  0
   39.0420   28.5380   35.4010 H   0  0  0  0  0  0  0  0  0  0  0  0
   36.7380   28.0250   33.9770 C   0  0  0  0  0  0  0  0  0  0  0  0
   35.7780   28.8220   34.5900 C   0  0  0  0  0  0  0  0  0  0  0  0
   35.4920   28.8160   35.6430 H   0  0  0  0  0  0  0  0  0  0  0  0
   35.0400   29.7680   33.8700 C   0  0  0  0  0  3  0  0  0  0  0  0
   35.2940   29.8960   32.5000 C   0  0  0  0  0  3  0  0  0  0  0  0
   36.2410   29.1150   31.8770 C   0  0  0  0  0  0  0  0  0  0  0  0
   36.5440   29.2040   30.5300 C   0  0  0  0  0  3  0  0  0  0  0  0
   37.5260   28.3980   29.9430 C   0  0  0  0  0  3  0  0  0  0  0  0
   38.2130   27.4840   30.7470 C   0  0  0  0  0  3  0  0  0  0  0  0
   37.9000   27.4060   32.0870 C   0  0  0  0  0  3  0  0  0  0  0  0
   36.9370   28.2030   32.6320 C   0  0  0  0  0  0  0  0  0  0  0  0
   38.9480   25.1740   35.4520 C   0  0  0  0  0  0  0  0  0  0  0  0
   40.1280   24.4960   35.0390 C   0  0  0  0  0  0  0  0  0  0  0  0
   40.3790   23.2990   35.6850 C   0  0  0  0  0  0  0  0  0  0  0  0
   39.5340   22.8460   36.6350 N   0  0  0  0  0  0  0  0  0  0  0  0
   38.4200   23.5090   37.0090 C   0  0  0  0  0  0  0  0  0  0  0  0
   38.1310   24.6840   36.4070 N   0  0  0  0  0  0  0  0  0  0  0  0
   40.7270   24.9500   34.2710 H   0  0  0  0  0  0  0  0  0  0  0  0
   41.2780   22.7580   35.3870 H   0  0  0  0  0  0  0  0  0  0  0  0
   37.7730   23.1060   37.7750 H   0  0  0  0  0  0  0  0  0  0  0  0
  1  4  1  6  0  0  0
  1  2  1  0  0  0  0
  1 19  1  0  0  0  0
  1  3  1  0  0  0  0
  2  5  1  1  0  0  0
  2  3  1  0  0  0  0
  3  6  1  0  0  0  0
  7  3  1  0  0  0  0
  8  9  1  0  0  0  0
  8  2  1  0  0  0  0
  9 10  1  0  0  0  0
 11  9  2  0  0  0  0
 12 11  1  0  0  0  0
 13 12  2  0  0  0  0
 13 18  1  0  0  0  0
 14 13  1  0  0  0  0
 15 14  2  0  0  0  0
 15 16  1  0  0  0  0
 16 17  2  0  0  0  0
 17 18  1  0  0  0  0
 18  8  2  0  0  0  0
 19 24  1  0  0  0  0
 20 19  2  0  0  0  0
 20 21  1  0  0  0  0
 21 22  2  0  0  0  0
 22 23  1  0  0  0  0
 23 27  1  0  0  0  0
 24 23  2  0  0  0  0
 25 20  1  0  0  0  0
 26 21  1  0  0  0  0
M  END
>  <minimizedAffinity>
-5.431355

$$$$

 OpenBabel03272508253D

 27 30  0  0  1  0  0  0  0  0999 V2000
   36.6250   25.7000   31.3760 C   0  0  1  0  0  0  0  0  0  0  0  0
   36.2900   24.3630   31.8550 C   0  0  1  0  0  0  0  0  0  0  0  0
   35.3330   25.0570   30.9130 C   0  0  0  0  0  0  0  0  0  0  0  0
   37.3980   25.8670   30.6230 H   0  0  0  0  0  0  0  0  0  0  0  0
   35.9040   24.2930   32.9020 H   0  0  0  0  0  0  0  0  0  0  0  0
   34.3770   25.4210   31.2920 H   0  0  0  0  0  0  0  0  0  0  0  0
   35.3170   24.8290   29.8330 H   0  0  0  0  0  0  0  0  0  0  0  0
   36.8840   23.1380   31.3460 C   0  0  0  0  0  0  0  0  0  0  0  0
   38.0710   23.3930   30.6700 C   0  0  0  0  0  0  0  0  0  0  0  0
   38.5600   24.3600   30.5370 H   0  0  0  0  0  0  0  0  0  0  0  0
   38.8010   22.3700   30.0540 C   0  0  0  0  0  3  0  0  0  0  0  0
   38.3000   21.0650   30.1360 C   0  0  0  0  0  3  0  0  0  0  0  0
   37.1270   20.7950   30.8020 C   0  0  0  0  0  0  0  0  0  0  0  0
   36.5890   19.5270   30.9280 C   0  0  0  0  0  3  0  0  0  0  0  0
   35.3990   19.2980   31.6270 C   0  0  0  0  0  3  0  0  0  0  0  0
   34.7450   20.3860   32.2110 C   0  0  0  0  0  3  0  0  0  0  0  0
   35.2910   21.6440   32.0780 C   0  0  0  0  0  3  0  0  0  0  0  0
   36.4520   21.8380   31.3890 C   0  0  0  0  0  0  0  0  0  0  0  0
   36.3820   26.8900   32.2710 C   0  0  0  0  0  0  0  0  0  0  0  0
   36.9640   26.8320   33.5680 C   0  0  0  0  0  0  0  0  0  0  0  0
   36.7150   27.9250   34.3780 C   0  0  0  0  0  0  0  0  0  0  0  0
   35.9660   28.9530   33.9260 N   0  0  0  0  0  0  0  0  0  0  0  0
   35.4240   28.9850   32.6910 C   0  0  0  0  0  0  0  0  0  0  0  0
   35.6400   27.9390   31.8610 N   0  0  0  0  0  0  0  0  0  0  0  0
   37.5420   25.9630   33.8220 H   0  0  0  0  0  0  0  0  0  0  0  0
   37.1490   27.9060   35.3790 H   0  0  0  0  0  0  0  0  0  0  0  0
   34.8320   29.8290   32.3730 H   0  0  0  0  0  0  0  0  0  0  0  0
  1  4  1  6  0  0  0
  1  2  1  0  0  0  0
  1 19  1  0  0  0  0
  2  5  1  1  0  0  0
  3  6  1  0  0  0  0
  3  1  1  0  0  0  0
  3  2  1  0  0  0  0
  7  3  1  0  0  0  0
  8 18  1  0  0  0  0
  8  2  1  0  0  0  0
  9  8  2  0  0  0  0
 10  9  1  0  0  0  0
 11 12  2  0  0  0  0
 11  9  1  0  0  0  0
 12 13  1  0  0  0  0
 13 14  2  0  0  0  0
 13 18  1  0  0  0  0
 14 15  1  0  0  0  0
 15 16  2  0  0  0  0
 17 16  1  0  0  0  0
 18 17  2  0  0  0  0
 19 20  1  0  0  0  0
 20 25  1  0  0  0  0
 20 21  2  0  0  0  0
 21 26  1  0  0  0  0
 22 21  1  0  0  0  0
 23 22  2  0  0  0  0
 24 19  2  0  0  0  0
 24 23  1  0  0  0  0
 27 23  1  0  0  0  0
M  END
>  <minimizedAffinity>
-5.28125668

$$$$

 OpenBabel03272508253D

 27 30  0  0  1  0  0  0  0  0999 V2000
   35.0730   30.4260   34.3450 C   0  0  1  0  0  0  0  0  0  0  0  0
   35.0960   29.0980   33.7410 C   0  0  1  0  0  0  0  0  0  0  0  0
   34.4940   30.2420   32.9560 C   0  0  0  0  0  0  0  0  0  0  0  0
   35.9730   31.0360   34.4350 H   0  0  0  0  0  0  0  0  0  0  0  0
   34.3330   28.3700   34.1120 H   0  0  0  0  0  0  0  0  0  0  0  0
   33.4150   30.2800   32.8060 H   0  0  0  0  0  0  0  0  0  0  0  0
   35.0640   30.7670   32.1700 H   0  0  0  0  0  0  0  0  0  0  0  0
   36.2750   28.4910   33.1460 C   0  0  0  0  0  0  0  0  0  0  0  0
   36.2290   28.5460   31.7590 C   0  0  0  0  0  0  0  0  0  0  0  0
   35.4530   29.0040   31.1420 H   0  0  0  0  0  0  0  0  0  0  0  0
   37.2370   27.9830   30.9670 C   0  0  0  0  0  3  0  0  0  0  0  0
   38.3080   27.3560   31.6140 C   0  0  0  0  0  3  0  0  0  0  0  0
   38.3690   27.2930   32.9870 C   0  0  0  0  0  0  0  0  0  0  0  0
   39.4060   26.6980   33.6830 C   0  0  0  0  0  3  0  0  0  0  0  0
   39.4330   26.6700   35.0820 C   0  0  0  0  0  3  0  0  0  0  0  0
   38.3810   27.2630   35.7850 C   0  0  0  0  0  3  0  0  0  0  0  0
   37.3530   27.8520   35.0790 C   0  0  0  0  0  3  0  0  0  0  0  0
   37.3530   27.8620   33.7150 C   0  0  0  0  0  0  0  0  0  0  0  0
   34.0120   30.7560   35.3670 C   0  0  0  0  0  0  0  0  0  0  0  0
   32.9380   29.8300   35.4820 C   0  0  0  0  0  0  0  0  0  0  0  0
   31.9680   30.1600   36.4110 C   0  0  0  0  0  0  0  0  0  0  0  0
   32.0760   31.2930   37.1360 N   0  0  0  0  0  0  0  0  0  0  0  0
   33.1040   32.1570   37.0080 C   0  0  0  0  0  0  0  0  0  0  0  0
   34.0780   31.8780   36.1130 N   0  0  0  0  0  0  0  0  0  0  0  0
   32.9550   28.9590   34.8530 H   0  0  0  0  0  0  0  0  0  0  0  0
   31.1330   29.4660   36.5190 H   0  0  0  0  0  0  0  0  0  0  0  0
   33.1480   33.0520   37.6110 H   0  0  0  0  0  0  0  0  0  0  0  0
  1  4  1  1  0  0  0
  1 19  1  0  0  0  0
  2  5  1  1  0  0  0
  2  1  1  0  0  0  0
  3  2  1  0  0  0  0
  3  1  1  0  0  0  0
  6  3  1  0  0  0  0
  7  3  1  0  0  0  0
  8 18  1  0  0  0  0
  8  2  1  0  0  0  0
  9  8  2  0  0  0  0
 10  9  1  0  0  0  0
 11 12  2  0  0  0  0
 11  9  1  0  0  0  0
 12 13  1  0  0  0  0
 13 14  2  0  0  0  0
 13 18  1  0  0  0  0
 14 15  1  0  0  0  0
 15 16  2  0  0  0  0
 17 16  1  0  0  0  0
 18 17  2  0  0  0  0
 19 20  2  0  0  0  0
 19 24  1  0  0  0  0
 20 21  1  0  0  0  0
 21 26  1  0  0  0  0
 21 22  2  0  0  0  0
 23 22  1  0  0  0  0
 23 27  1  0  0  0  0
 24 23  2  0  0  0  0
 25 20  1  0  0  0  0
M  END
>  <minimizedAffinity>
-5.25047445

$$$$
