
 OpenBabel03262523263D

 42 46  0  0  1  0  0  0  0  0999 V2000
   39.4100   32.9280   44.3890 C   0  0  0  0  0  0  0  0  0  0  0  0
   40.2580   31.9070   43.9830 C   0  0  0  0  0  0  0  0  0  0  0  0
   40.3890   30.8130   44.8100 C   0  0  0  0  0  0  0  0  0  0  0  0
   39.6830   30.7990   45.9720 N   0  0  0  0  0  0  0  0  0  0  0  0
   38.8590   31.8150   46.3450 C   0  0  0  0  0  0  0  0  0  0  0  0
   38.7280   32.8700   45.5530 N   0  0  0  0  0  0  0  0  0  0  0  0
   38.1430   31.7280   47.5940 N   0  0  0  0  0  0  0  0  0  0  0  0
   38.0710   32.8660   48.4680 C   0  0  0  0  0  0  0  0  0  0  0  0
   37.9580   32.4920   49.9240 C   0  0  0  0  0  0  0  0  0  0  0  0
   38.4840   31.0930   50.0840 C   0  0  0  0  0  0  0  0  0  0  0  0
   37.4920   30.1760   49.4050 C   0  0  0  0  0  0  0  0  0  0  0  0
   37.5010   30.4570   47.9470 C   0  0  1  0  0  0  0  0  0  0  0  0
   39.2840   33.8130   43.7510 H   0  0  0  0  0  0  0  0  0  0  0  0
   40.7770   32.0120   43.0380 H   0  0  0  0  0  0  0  0  0  0  0  0
   41.0360   30.0020   44.5320 H   0  0  0  0  0  0  0  0  0  0  0  0
   39.0110   33.4590   48.3470 H   0  0  0  0  0  0  0  0  0  0  0  0
   37.2530   33.5680   48.1530 H   0  0  0  0  0  0  0  0  0  0  0  0
   36.8760   32.4760   50.1810 H   0  0  0  0  0  0  0  0  0  0  0  0
   38.5580   33.1690   50.5740 H   0  0  0  0  0  0  0  0  0  0  0  0
   39.4750   30.9890   49.5940 H   0  0  0  0  0  0  0  0  0  0  0  0
   38.5490   30.7920   51.1540 H   0  0  0  0  0  0  0  0  0  0  0  0
   36.5480   30.2260   49.9340 H   0  0  0  0  0  0  0  0  0  0  0  0
   37.8870   29.1330   49.6110 H   0  0  0  0  0  0  0  0  0  0  0  0
   38.1460   29.6760   47.4360 H   0  0  0  0  0  0  0  0  0  0  0  0
   36.1830   30.3300   47.3200 C   0  0  0  0  0  0  0  0  0  0  0  0
   34.9450   30.1500   47.9360 C   0  0  0  0  0  0  0  0  0  0  0  0
   33.8170   30.0430   47.1780 C   0  0  0  0  0  0  0  0  0  0  0  0
   33.9680   30.1260   45.7590 C   0  0  0  0  0  0  0  0  0  0  0  0
   35.8310   30.3620   45.6430 S   0  0  0  0  0  0  0  0  0  0  0  0
   34.8740   30.0990   49.0130 H   0  0  0  0  0  0  0  0  0  0  0  0
   32.8730   29.8720   47.5810 H   0  0  0  0  0  0  0  0  0  0  0  0
   33.2450   30.0350   44.5550 C   0  0  0  0  0  0  0  0  0  0  0  0
   33.5500   28.9970   43.6610 C   0  0  0  0  0  0  0  0  0  0  0  0
   34.3250   28.2370   43.8680 H   0  0  0  0  0  0  0  0  0  0  0  0
   32.9310   28.8210   42.4690 C   0  0  0  0  0  0  0  0  0  0  0  0
   31.9530   29.6980   42.1050 C   0  0  0  0  0  0  0  0  0  0  0  0
   31.5670   30.7570   42.8940 C   0  0  0  0  0  0  0  0  0  0  0  0
   30.5990   31.6370   42.4760 C   0  0  0  0  0  0  0  0  0  0  0  0
   30.2650   32.7220   43.2930 C   0  0  0  0  0  0  0  0  0  0  0  0
   30.9630   32.8230   44.5020 C   0  0  0  0  0  0  0  0  0  0  0  0
   31.9090   31.9170   44.8550 C   0  0  0  0  0  0  0  0  0  0  0  0
   32.2550   30.8470   44.0800 C   0  0  0  0  0  0  0  0  0  0  0  0
  1  6  1  0  0  0  0
  2  1  2  0  0  0  0
  2  3  1  0  0  0  0
  3  4  2  0  0  0  0
  4  5  1  0  0  0  0
  5  7  1  0  0  0  0
  6  5  2  0  0  0  0
  7 12  1  0  0  0  0
  7  8  1  0  0  0  0
  8  9  1  0  0  0  0
  9 10  1  0  0  0  0
  9 18  1  0  0  0  0
  9 19  1  0  0  0  0
 10 21  1  0  0  0  0
 11 23  1  0  0  0  0
 11 22  1  0  0  0  0
 11 10  1  0  0  0  0
 12 24  1  6  0  0  0
 12 11  1  0  0  0  0
 13  1  1  0  0  0  0
 14  2  1  0  0  0  0
 15  3  1  0  0  0  0
 16  8  1  0  0  0  0
 17  8  1  0  0  0  0
 20 10  1  0  0  0  0
 25 26  2  0  0  0  0
 25 12  1  0  0  0  0
 26 30  1  0  0  0  0
 27 31  1  0  0  0  0
 27 26  1  0  0  0  0
 28 27  2  0  0  0  0
 29 28  1  0  0  0  0
 29 25  1  0  0  0  0
 32 28  1  0  0  0  0
 33 34  1  0  0  0  0
 33 32  2  0  0  0  0
 35 33  1  0  0  0  0
 36 35  2  0  0  0  0
 36 37  1  0  0  0  0
 37 42  1  0  0  0  0
 38 37  2  0  0  0  0
 38 39  1  0  0  0  0
 39 40  2  0  0  0  0
 40 41  1  0  0  0  0
 42 32  1  0  0  0  0
 42 41  2  0  0  0  0
M  END
>  <minimizedAffinity>
-6.05103779

>  <minimizedRMSD>
0.505482018

$$$$
