
 OpenBabel03272509343D

 43 48  0  0  1  0  0  0  0  0999 V2000
   34.0180   30.1100   46.7440 C   0  0  1  0  0  0  0  0  0  0  0  0
   33.5660   28.9950   47.5940 C   0  0  0  0  0  0  0  0  0  0  0  0
   35.0330   29.1500   47.4260 C   0  0  2  0  0  0  0  0  0  0  0  0
   34.1280   31.1030   47.1530 H   0  0  0  0  0  0  0  0  0  0  0  0
   32.9270   29.3350   48.3960 H   0  0  0  0  0  0  0  0  0  0  0  0
   33.0450   28.1710   46.9990 H   0  0  0  0  0  0  0  0  0  0  0  0
   35.7220   28.7940   46.6890 H   0  0  0  0  0  0  0  0  0  0  0  0
   35.6670   29.5740   48.7030 C   0  0  0  0  0  0  0  0  0  0  0  0
   35.0980   28.8780   49.7810 C   0  0  0  0  0  0  0  0  0  0  0  0
   35.5770   29.0320   51.0630 C   0  0  0  0  0  0  0  0  0  0  0  0
   36.6510   29.8900   51.3230 C   0  0  0  0  0  0  0  0  0  0  0  0
   37.1900   30.5580   50.2480 C   0  0  0  0  0  0  0  0  0  0  0  0
   38.2420   31.4450   50.3650 C   0  0  0  0  0  0  0  0  0  0  0  0
   38.7850   32.1340   49.2920 C   0  0  0  0  0  0  0  0  0  0  0  0
   38.2540   31.9310   48.0290 C   0  0  0  0  0  0  0  0  0  0  0  0
   37.2060   31.0490   47.9030 C   0  0  0  0  0  0  0  0  0  0  0  0
   36.6990   30.3880   48.9900 C   0  0  0  0  0  0  0  0  0  0  0  0
   34.3170   28.1620   49.9310 H   0  0  0  0  0  0  0  0  0  0  0  0
   35.2630   28.5840   51.9890 H   0  0  0  0  0  0  0  0  0  0  0  0
   37.1450   30.1260   52.2600 H   0  0  0  0  0  0  0  0  0  0  0  0
   38.6870   31.6320   51.3370 H   0  0  0  0  0  0  0  0  0  0  0  0
   39.6110   32.8230   49.4240 H   0  0  0  0  0  0  0  0  0  0  0  0
   38.6290   32.4340   47.1510 H   0  0  0  0  0  0  0  0  0  0  0  0
   36.7980   30.9010   46.8860 H   0  0  0  0  0  0  0  0  0  0  0  0
   32.7710   29.4420   43.2560 C   0  0  0  0  0  0  0  0  0  0  0  0
   32.7890   29.5700   44.6820 C   0  0  0  0  0  0  0  0  0  0  0  0
   33.9600   29.9740   45.2790 C   0  0  0  0  0  0  0  0  0  0  0  0
   34.9920   30.2140   44.4520 N   0  0  0  0  0  0  0  0  0  0  0  0
   35.0100   30.1080   43.1340 C   0  0  0  0  0  0  0  0  0  0  0  0
   33.8560   29.7060   42.5130 N   0  0  0  0  0  0  0  0  0  0  0  0
   31.8320   29.1240   42.8450 H   0  0  0  0  0  0  0  0  0  0  0  0
   31.9130   29.3570   45.2640 H   0  0  0  0  0  0  0  0  0  0  0  0
   36.0810   30.3630   42.1950 C   0  0  0  0  0  0  0  0  0  0  0  0
   35.8360   30.6630   40.8560 C   0  0  0  0  0  0  0  0  0  0  0  0
   34.8030   30.7130   40.4780 H   0  0  0  0  0  0  0  0  0  0  0  0
   36.7890   30.9170   39.9120 C   0  0  0  0  0  0  0  0  0  0  0  0
   38.1150   30.8850   40.2580 C   0  0  0  0  0  0  0  0  0  0  0  0
   38.4510   30.5970   41.5600 C   0  0  0  0  0  0  0  0  0  0  0  0
   39.7740   30.5750   41.8860 C   0  0  0  0  0  0  0  0  0  0  0  0
   40.1800   30.2970   43.1740 C   0  0  0  0  0  0  0  0  0  0  0  0
   39.1760   30.0440   44.1130 C   0  0  0  0  0  0  0  0  0  0  0  0
   37.8580   30.0810   43.7230 C   0  0  0  0  0  0  0  0  0  0  0  0
   37.4310   30.3540   42.4470 C   0  0  0  0  0  0  0  0  0  0  0  0
  1  4  1  1  0  0  0
  1  3  1  0  0  0  0
  1  2  1  0  0  0  0
  2  5  1  0  0  0  0
  3  7  1  6  0  0  0
  3  2  1  0  0  0  0
  3  8  1  0  0  0  0
  6  2  1  0  0  0  0
  8 17  2  0  0  0  0
  8  9  1  0  0  0  0
  9 18  1  0  0  0  0
  9 10  2  0  0  0  0
 10 11  1  0  0  0  0
 10 19  1  0  0  0  0
 11 20  1  0  0  0  0
 12 13  1  0  0  0  0
 12 11  2  0  0  0  0
 13 21  1  0  0  0  0
 14 22  1  0  0  0  0
 14 13  2  0  0  0  0
 15 14  1  0  0  0  0
 16 15  2  0  0  0  0
 16 17  1  0  0  0  0
 17 12  1  0  0  0  0
 23 15  1  0  0  0  0
 24 16  1  0  0  0  0
 25 26  1  0  0  0  0
 26 32  1  0  0  0  0
 26 27  2  0  0  0  0
 27  1  1  0  0  0  0
 28 27  1  0  0  0  0
 29 28  2  0  0  0  0
 30 29  1  0  0  0  0
 30 25  2  0  0  0  0
 31 25  1  0  0  0  0
 33 43  1  0  0  0  0
 33 29  1  0  0  0  0
 34 33  2  0  0  0  0
 35 34  1  0  0  0  0
 36 37  2  0  0  0  0
 36 34  1  0  0  0  0
 37 38  1  0  0  0  0
 38 39  2  0  0  0  0
 38 43  1  0  0  0  0
 39 40  1  0  0  0  0
 40 41  2  0  0  0  0
 42 41  1  0  0  0  0
 43 42  2  0  0  0  0
M  END
>  <minimizedAffinity>
-6.92929459

>  <minimizedRMSD>
8.91419601

$$$$
