
 OpenBabel03272509253D

 26 28  0  0  0  0  0  0  0  0999 V2000
   38.0490   30.5990   47.2960 C   0  0  0  0  0  0  0  0  0  0  0  0
   38.5540   29.7220   47.7400 H   0  0  0  0  0  0  0  0  0  0  0  0
   37.1740   30.2810   46.6800 H   0  0  0  0  0  0  0  0  0  0  0  0
   38.9420   31.3880   46.3850 C   0  0  0  0  0  0  0  0  0  0  0  0
   39.4540   32.6410   46.7220 C   0  0  0  0  0  0  0  0  0  0  0  0
   39.1690   33.0660   47.6920 H   0  0  0  0  0  0  0  0  0  0  0  0
   40.2840   33.2900   45.8370 C   0  0  0  0  0  0  0  0  0  0  0  0
   40.6500   32.7700   44.6140 C   0  0  0  0  0  0  0  0  0  0  0  0
   40.1420   31.5310   44.2800 C   0  0  0  0  0  0  0  0  0  0  0  0
   40.4930   31.0010   43.0560 C   0  0  0  0  0  0  0  0  0  0  0  0
   40.0070   29.7610   42.6620 C   0  0  0  0  0  0  0  0  0  0  0  0
   39.1650   29.0550   43.5100 C   0  0  0  0  0  0  0  0  0  0  0  0
   38.8400   29.6390   44.7390 C   0  0  0  0  0  0  0  0  0  0  0  0
   39.3100   30.8770   45.1610 C   0  0  0  0  0  0  0  0  0  0  0  0
   37.5450   31.5690   48.3640 C   0  0  0  0  0  0  0  0  0  0  0  0
   36.6200   32.0620   47.9260 H   0  0  0  0  0  0  0  0  0  0  0  0
   38.2750   32.2920   48.7030 H   0  0  0  0  0  0  0  0  0  0  0  0
   37.0500   29.8070   51.6890 C   0  0  0  0  0  0  0  0  0  0  0  0
   37.6970   30.5720   50.7010 C   0  0  0  0  0  0  0  0  0  0  0  0
   37.0120   30.7810   49.5190 C   0  0  0  0  0  0  0  0  0  0  0  0
   35.7610   30.2400   49.3800 N   0  0  0  0  0  0  0  0  0  0  0  0
   35.1740   29.5150   50.3450 C   0  0  0  0  0  0  0  0  0  0  0  0
   35.8200   29.2970   51.5060 N   0  0  0  0  0  0  0  0  0  0  0  0
   37.5780   29.6390   52.6170 H   0  0  0  0  0  0  0  0  0  0  0  0
   38.6780   30.9950   50.8130 H   0  0  0  0  0  0  0  0  0  0  0  0
   34.1800   29.1610   50.0660 H   0  0  0  0  0  0  0  0  0  0  0  0
  1  2  1  0  0  0  0
  1 15  1  0  0  0  0
  3  1  1  0  0  0  0
  4  5  1  0  0  0  0
  4  1  1  0  0  0  0
  5  6  1  0  0  0  0
  7  5  2  0  0  0  0
  8  7  1  0  0  0  0
  9  8  2  0  0  0  0
  9 14  1  0  0  0  0
 10  9  1  0  0  0  0
 11 10  2  0  0  0  0
 11 12  1  0  0  0  0
 12 13  2  0  0  0  0
 13 14  1  0  0  0  0
 14  4  2  0  0  0  0
 15 17  1  0  0  0  0
 15 20  1  0  0  0  0
 16 15  1  0  0  0  0
 18 24  1  0  0  0  0
 19 25  1  0  0  0  0
 19 18  2  0  0  0  0
 20 19  1  0  0  0  0
 21 20  2  0  0  0  0
 21 22  1  0  0  0  0
 22 23  2  0  0  0  0
 23 18  1  0  0  0  0
 26 22  1  0  0  0  0
M  END
>  <minimizedAffinity>
-6.02770901

>  <minimizedRMSD>
2.61485147

$$$$
