
 OpenBabel03272506343D

 21 23  0  0  0  0  0  0  0  0999 V2000
   37.3250   30.7070   46.7200 C   0  0  0  0  0  0  0  0  0  0  0  0
   36.1380   30.3570   46.0840 C   0  0  0  0  0  0  0  0  0  0  0  0
   36.1340   30.3790   44.9870 H   0  0  0  0  0  0  0  0  0  0  0  0
   34.9920   29.9900   46.7170 C   0  0  0  0  0  0  0  0  0  0  0  0
   34.9510   29.9470   48.0850 C   0  0  0  0  0  0  0  0  0  0  0  0
   36.0850   30.2790   48.7880 C   0  0  0  0  0  0  0  0  0  0  0  0
   35.9810   30.2170   50.1600 C   0  0  0  0  0  0  0  0  0  0  0  0
   37.0770   30.5360   50.9250 C   0  0  0  0  0  0  0  0  0  0  0  0
   38.2470   30.9100   50.2750 C   0  0  0  0  0  0  0  0  0  0  0  0
   38.2720   30.9480   48.8980 C   0  0  0  0  0  0  0  0  0  0  0  0
   37.2130   30.6410   48.0900 C   0  0  0  0  0  0  0  0  0  0  0  0
   39.7500   33.0260   45.4510 C   0  0  0  0  0  0  0  0  0  0  0  0
   40.7340   32.2940   44.7970 C   0  0  0  0  0  0  0  0  0  0  0  0
   40.5530   30.9250   44.7910 C   0  0  0  0  0  0  0  0  0  0  0  0
   39.4780   30.3860   45.3950 N   0  0  0  0  0  0  0  0  0  0  0  0
   38.5310   31.0920   46.0240 C   0  0  0  0  0  0  0  0  0  0  0  0
   38.7290   32.3940   46.0150 N   0  0  0  0  0  0  0  0  0  0  0  0
   41.6130   32.6710   44.2980 H   0  0  0  0  0  0  0  0  0  0  0  0
   41.2460   30.2670   44.3170 H   0  0  0  0  0  0  0  0  0  0  0  0
   39.9320   34.4190   45.4590 O   0  0  0  0  0  0  0  0  0  0  0  0
   40.6880   34.8310   45.9970 H   0  0  0  0  0  0  0  0  0  0  0  0
  1 11  1  0  0  0  0
  2  4  1  0  0  0  0
  2  1  2  0  0  0  0
  3  2  1  0  0  0  0
  4  5  2  0  0  0  0
  5  6  1  0  0  0  0
  6  7  1  0  0  0  0
  7  8  2  0  0  0  0
  9  8  1  0  0  0  0
 10  9  2  0  0  0  0
 11  6  2  0  0  0  0
 11 10  1  0  0  0  0
 12 20  1  0  0  0  0
 12 17  1  0  0  0  0
 13 12  2  0  0  0  0
 14 13  1  0  0  0  0
 14 15  2  0  0  0  0
 15 16  1  0  0  0  0
 16  1  1  0  0  0  0
 17 16  2  0  0  0  0
 18 13  1  0  0  0  0
 19 14  1  0  0  0  0
 20 21  1  0  0  0  0
M  END
>  <minimizedAffinity>
-6.82512426

>  <minimizedRMSD>
5.67515421

$$$$
