
 OpenBabel03262522533D

 35 39  0  0  0  0  0  0  0  0999 V2000
   36.7740   27.8070   33.4610 C   0  0  0  0  0  0  0  0  0  0  0  0
   36.7140   28.2100   32.1890 C   0  0  0  0  0  0  0  0  0  0  0  0
   36.0950   29.4100   31.9440 C   0  0  0  0  0  0  0  0  0  0  0  0
   35.5560   30.1730   32.9390 N   0  0  0  0  0  0  0  0  0  0  0  0
   35.6570   29.6960   34.2090 C   0  0  0  0  0  0  0  0  0  0  0  0
   36.2560   28.5410   34.4210 N   0  0  0  0  0  0  0  0  0  0  0  0
   37.1120   27.6670   31.3610 H   0  0  0  0  0  0  0  0  0  0  0  0
   36.0320   29.7640   30.9130 H   0  0  0  0  0  0  0  0  0  0  0  0
   35.0420   30.6080   35.1650 C   0  0  0  0  0  0  0  0  0  0  0  0
   35.7560   31.6420   35.7280 C   0  0  0  0  0  0  0  0  0  0  0  0
   36.8080   31.8340   35.4940 H   0  0  0  0  0  0  0  0  0  0  0  0
   35.2540   32.5440   36.6330 C   0  0  0  0  0  3  0  0  0  0  0  0
   33.9480   32.4460   37.0340 C   0  0  0  0  0  3  0  0  0  0  0  0
   33.1810   31.4320   36.5070 C   0  0  0  0  0  0  0  0  0  0  0  0
   31.8710   31.3430   36.9180 C   0  0  0  0  0  3  0  0  0  0  0  0
   31.0480   30.3680   36.4410 C   0  0  0  0  0  3  0  0  0  0  0  0
   31.5920   29.4700   35.5240 C   0  0  0  0  0  3  0  0  0  0  0  0
   32.9080   29.5990   35.1440 C   0  0  0  0  0  3  0  0  0  0  0  0
   33.7540   30.5710   35.6090 C   0  0  0  0  0  0  0  0  0  0  0  0
   38.7200   24.5400   34.9160 C   0  0  0  0  0  0  0  0  0  0  0  0
   38.1050   24.3200   33.7580 C   0  0  0  0  0  0  0  0  0  0  0  0
   37.4060   25.3520   33.1620 C   0  0  0  0  0  0  0  0  0  0  0  0
   37.4040   26.5490   33.8290 C   0  0  0  0  0  0  0  0  0  0  0  0
   38.3990   26.1760   35.2940 S   0  0  0  0  0  0  0  0  0  0  0  0
   38.1520   23.3250   33.2820 H   0  0  0  0  0  0  0  0  0  0  0  0
   36.8690   25.2820   32.2200 H   0  0  0  0  0  0  0  0  0  0  0  0
   39.9660   22.6650   37.7780 C   0  0  0  0  0  0  0  0  0  0  0  0
   41.0000   21.8760   37.2300 C   0  0  0  0  0  0  0  0  0  0  0  0
   41.2670   21.9990   35.8470 C   0  0  0  0  0  0  0  0  0  0  0  0
   40.5060   22.8780   35.1230 N   0  0  0  0  0  0  0  0  0  0  0  0
   39.5190   23.6090   35.7280 C   0  0  0  0  0  0  0  0  0  0  0  0
   39.2370   23.5220   37.0260 N   0  0  0  0  0  0  0  0  0  0  0  0
   39.7270   22.6020   38.8350 H   0  0  0  0  0  0  0  0  0  0  0  0
   41.5590   21.2030   37.8650 H   0  0  0  0  0  0  0  0  0  0  0  0
   42.0420   21.4150   35.4050 H   0  0  0  0  0  0  0  0  0  0  0  0
  1 23  1  0  0  0  0
  1  6  1  0  0  0  0
  2  1  2  0  0  0  0
  3  2  1  0  0  0  0
  3  4  2  0  0  0  0
  4  5  1  0  0  0  0
  5  6  2  0  0  0  0
  5  9  1  0  0  0  0
  7  2  1  0  0  0  0
  8  3  1  0  0  0  0
  9 19  2  0  0  0  0
  9 10  1  0  0  0  0
 10 12  2  0  0  0  0
 11 10  1  0  0  0  0
 12 13  1  0  0  0  0
 14 15  1  0  0  0  0
 14 13  2  0  0  0  0
 16 15  2  0  0  0  0
 17 16  1  0  0  0  0
 18 17  2  0  0  0  0
 18 19  1  0  0  0  0
 19 14  1  0  0  0  0
 20 24  1  0  0  0  0
 20 31  1  0  0  0  0
 21 20  2  0  0  0  0
 22 21  1  0  0  0  0
 22 23  2  0  0  0  0
 23 24  1  0  0  0  0
 25 21  1  0  0  0  0
 26 22  1  0  0  0  0
 27 33  1  0  0  0  0
 28 27  1  0  0  0  0
 28 34  1  0  0  0  0
 29 28  2  0  0  0  0
 30 31  2  0  0  0  0
 30 29  1  0  0  0  0
 31 32  1  0  0  0  0
 32 27  2  0  0  0  0
 35 29  1  0  0  0  0
M  END
>  <minimizedAffinity>
-6.98956347

$$$$

 OpenBabel03262522533D

 35 39  0  0  0  0  0  0  0  0999 V2000
   36.1850   28.0570   32.2590 C   0  0  0  0  0  0  0  0  0  0  0  0
   36.2660   28.7720   31.1330 C   0  0  0  0  0  0  0  0  0  0  0  0
   35.9600   30.1070   31.2210 C   0  0  0  0  0  0  0  0  0  0  0  0
   35.5870   30.6990   32.3930 N   0  0  0  0  0  0  0  0  0  0  0  0
   35.5280   29.9040   33.4960 C   0  0  0  0  0  0  0  0  0  0  0  0
   35.8260   28.6240   33.3880 N   0  0  0  0  0  0  0  0  0  0  0  0
   36.5500   28.3790   30.1830 H   0  0  0  0  0  0  0  0  0  0  0  0
   36.0180   30.7170   30.3170 H   0  0  0  0  0  0  0  0  0  0  0  0
   35.1180   30.6620   34.6700 C   0  0  0  0  0  0  0  0  0  0  0  0
   35.9300   31.6310   35.2160 C   0  0  0  0  0  0  0  0  0  0  0  0
   36.9140   31.8810   34.8060 H   0  0  0  0  0  0  0  0  0  0  0  0
   35.6200   32.3890   36.3180 C   0  0  0  0  0  3  0  0  0  0  0  0
   34.4210   32.2030   36.9530 C   0  0  0  0  0  3  0  0  0  0  0  0
   33.5640   31.2490   36.4560 C   0  0  0  0  0  0  0  0  0  0  0  0
   32.3630   31.0700   37.1030 C   0  0  0  0  0  3  0  0  0  0  0  0
   31.4610   30.1450   36.6700 C   0  0  0  0  0  3  0  0  0  0  0  0
   31.8090   29.3930   35.5490 C   0  0  0  0  0  3  0  0  0  0  0  0
   33.0220   29.6080   34.9360 C   0  0  0  0  0  3  0  0  0  0  0  0
   33.9440   30.5320   35.3530 C   0  0  0  0  0  0  0  0  0  0  0  0
   36.6230   24.0200   31.9620 C   0  0  0  0  0  0  0  0  0  0  0  0
   37.4780   24.5860   32.8090 C   0  0  0  0  0  0  0  0  0  0  0  0
   37.4320   25.9540   32.9950 C   0  0  0  0  0  0  0  0  0  0  0  0
   36.4840   26.6340   32.2750 C   0  0  0  0  0  0  0  0  0  0  0  0
   35.6800   25.3050   31.3460 S   0  0  0  0  0  0  0  0  0  0  0  0
   38.2150   23.9690   33.3520 H   0  0  0  0  0  0  0  0  0  0  0  0
   38.0810   26.5180   33.6600 H   0  0  0  0  0  0  0  0  0  0  0  0
   35.2230   20.6730   31.6520 C   0  0  0  0  0  0  0  0  0  0  0  0
   36.2160   19.9650   30.9420 C   0  0  0  0  0  0  0  0  0  0  0  0
   37.3880   20.6620   30.5670 C   0  0  0  0  0  0  0  0  0  0  0  0
   37.4880   21.9820   30.9160 N   0  0  0  0  0  0  0  0  0  0  0  0
   36.4810   22.6000   31.6070 C   0  0  0  0  0  0  0  0  0  0  0  0
   35.3620   21.9790   31.9780 N   0  0  0  0  0  0  0  0  0  0  0  0
   34.3070   20.1770   31.9600 H   0  0  0  0  0  0  0  0  0  0  0  0
   36.0660   18.9220   30.7010 H   0  0  0  0  0  0  0  0  0  0  0  0
   38.1550   20.1520   30.0290 H   0  0  0  0  0  0  0  0  0  0  0  0
  1 23  1  0  0  0  0
  1  6  1  0  0  0  0
  2  3  1  0  0  0  0
  2  1  2  0  0  0  0
  3  4  2  0  0  0  0
  4  5  1  0  0  0  0
  5  9  1  0  0  0  0
  6  5  2  0  0  0  0
  7  2  1  0  0  0  0
  8  3  1  0  0  0  0
  9 10  2  0  0  0  0
  9 19  1  0  0  0  0
 10 12  1  0  0  0  0
 11 10  1  0  0  0  0
 12 13  2  0  0  0  0
 14 13  1  0  0  0  0
 14 15  1  0  0  0  0
 16 15  2  0  0  0  0
 17 16  1  0  0  0  0
 18 19  1  0  0  0  0
 18 17  2  0  0  0  0
 19 14  2  0  0  0  0
 20 21  2  0  0  0  0
 21 22  1  0  0  0  0
 21 25  1  0  0  0  0
 22 26  1  0  0  0  0
 23 22  2  0  0  0  0
 24 20  1  0  0  0  0
 24 23  1  0  0  0  0
 27 33  1  0  0  0  0
 27 32  1  0  0  0  0
 28 27  2  0  0  0  0
 29 30  2  0  0  0  0
 29 28  1  0  0  0  0
 30 31  1  0  0  0  0
 31 20  1  0  0  0  0
 31 32  2  0  0  0  0
 34 28  1  0  0  0  0
 35 29  1  0  0  0  0
M  END
>  <minimizedAffinity>
-6.9394455

$$$$

 OpenBabel03262522533D

 35 39  0  0  0  0  0  0  0  0999 V2000
   36.7750   28.0610   33.2300 C   0  0  0  0  0  0  0  0  0  0  0  0
   36.6900   28.4840   31.9650 C   0  0  0  0  0  0  0  0  0  0  0  0
   35.6730   29.3550   31.6660 C   0  0  0  0  0  0  0  0  0  0  0  0
   34.7760   29.7830   32.6020 N   0  0  0  0  0  0  0  0  0  0  0  0
   34.9290   29.3090   33.8690 C   0  0  0  0  0  0  0  0  0  0  0  0
   35.9130   28.4730   34.1320 N   0  0  0  0  0  0  0  0  0  0  0  0
   37.3530   28.1920   31.1810 H   0  0  0  0  0  0  0  0  0  0  0  0
   35.5800   29.7170   30.6410 H   0  0  0  0  0  0  0  0  0  0  0  0
   33.9080   29.8460   34.7580 C   0  0  0  0  0  0  0  0  0  0  0  0
   32.6590   29.2740   34.8420 C   0  0  0  0  0  0  0  0  0  0  0  0
   32.3650   28.3980   34.2540 H   0  0  0  0  0  0  0  0  0  0  0  0
   31.6420   29.7170   35.6530 C   0  0  0  0  0  3  0  0  0  0  0  0
   31.8440   30.8060   36.4580 C   0  0  0  0  0  3  0  0  0  0  0  0
   33.0730   31.4240   36.4200 C   0  0  0  0  0  0  0  0  0  0  0  0
   33.2630   32.5180   37.2320 C   0  0  0  0  0  3  0  0  0  0  0  0
   34.4530   33.1820   37.2520 C   0  0  0  0  0  3  0  0  0  0  0  0
   35.4610   32.7050   36.4160 C   0  0  0  0  0  3  0  0  0  0  0  0
   35.2230   31.6070   35.6210 C   0  0  0  0  0  3  0  0  0  0  0  0
   34.0360   30.9240   35.5850 C   0  0  0  0  0  0  0  0  0  0  0  0
   39.3460   25.3150   34.7880 C   0  0  0  0  0  0  0  0  0  0  0  0
   39.8460   25.9830   33.7520 C   0  0  0  0  0  0  0  0  0  0  0  0
   39.0680   26.9420   33.1330 C   0  0  0  0  0  0  0  0  0  0  0  0
   37.8130   27.1330   33.6510 C   0  0  0  0  0  0  0  0  0  0  0  0
   37.7700   25.9380   35.0090 S   0  0  0  0  0  0  0  0  0  0  0  0
   40.8680   25.7700   33.3930 H   0  0  0  0  0  0  0  0  0  0  0  0
   39.3750   27.5440   32.2820 H   0  0  0  0  0  0  0  0  0  0  0  0
   41.8230   22.9660   36.0530 C   0  0  0  0  0  0  0  0  0  0  0  0
   41.1540   22.3210   37.1140 C   0  0  0  0  0  0  0  0  0  0  0  0
   39.8230   22.7080   37.3920 C   0  0  0  0  0  0  0  0  0  0  0  0
   39.2640   23.6860   36.6140 N   0  0  0  0  0  0  0  0  0  0  0  0
   39.9790   24.2650   35.6000 C   0  0  0  0  0  0  0  0  0  0  0  0
   41.2340   23.9290   35.3070 N   0  0  0  0  0  0  0  0  0  0  0  0
   42.8470   22.7000   35.8040 H   0  0  0  0  0  0  0  0  0  0  0  0
   41.6610   21.5560   37.6860 H   0  0  0  0  0  0  0  0  0  0  0  0
   39.2920   22.2380   38.1890 H   0  0  0  0  0  0  0  0  0  0  0  0
  1 23  1  0  0  0  0
  1  6  1  0  0  0  0
  2  1  2  0  0  0  0
  3  2  1  0  0  0  0
  3  4  2  0  0  0  0
  4  5  1  0  0  0  0
  5  6  2  0  0  0  0
  5  9  1  0  0  0  0
  7  2  1  0  0  0  0
  8  3  1  0  0  0  0
  9 10  2  0  0  0  0
  9 19  1  0  0  0  0
 10 12  1  0  0  0  0
 11 10  1  0  0  0  0
 12 13  2  0  0  0  0
 14 13  1  0  0  0  0
 14 15  1  0  0  0  0
 15 16  2  0  0  0  0
 17 16  1  0  0  0  0
 18 17  2  0  0  0  0
 19 18  1  0  0  0  0
 19 14  2  0  0  0  0
 20 24  1  0  0  0  0
 20 31  1  0  0  0  0
 21 20  2  0  0  0  0
 22 23  2  0  0  0  0
 22 21  1  0  0  0  0
 23 24  1  0  0  0  0
 25 21  1  0  0  0  0
 26 22  1  0  0  0  0
 27 28  1  0  0  0  0
 28 29  2  0  0  0  0
 28 34  1  0  0  0  0
 29 35  1  0  0  0  0
 30 29  1  0  0  0  0
 31 30  2  0  0  0  0
 32 31  1  0  0  0  0
 32 27  2  0  0  0  0
 33 27  1  0  0  0  0
M  END
>  <minimizedAffinity>
-6.7035141

$$$$

 OpenBabel03262522533D

 35 39  0  0  0  0  0  0  0  0999 V2000
   36.0620   27.6200   31.4690 C   0  0  0  0  0  0  0  0  0  0  0  0
   36.6450   28.3310   30.5000 C   0  0  0  0  0  0  0  0  0  0  0  0
   36.3230   29.6630   30.4250 C   0  0  0  0  0  0  0  0  0  0  0  0
   35.4480   30.2560   31.2890 N   0  0  0  0  0  0  0  0  0  0  0  0
   34.8950   29.4660   32.2500 C   0  0  0  0  0  0  0  0  0  0  0  0
   35.2200   28.1890   32.3020 N   0  0  0  0  0  0  0  0  0  0  0  0
   37.3370   27.9370   29.7900 H   0  0  0  0  0  0  0  0  0  0  0  0
   36.7850   30.2690   29.6430 H   0  0  0  0  0  0  0  0  0  0  0  0
   33.9860   30.2250   33.0970 C   0  0  0  0  0  0  0  0  0  0  0  0
   32.6590   30.3800   32.7650 C   0  0  0  0  0  0  0  0  0  0  0  0
   32.2190   29.9480   31.8590 H   0  0  0  0  0  0  0  0  0  0  0  0
   31.7370   31.0780   33.5060 C   0  0  0  0  0  3  0  0  0  0  0  0
   32.1240   31.6810   34.6730 C   0  0  0  0  0  3  0  0  0  0  0  0
   33.4390   31.5630   35.0610 C   0  0  0  0  0  0  0  0  0  0  0  0
   33.8150   32.1750   36.2340 C   0  0  0  0  0  3  0  0  0  0  0  0
   35.0990   32.1030   36.6850 C   0  0  0  0  0  3  0  0  0  0  0  0
   36.0070   31.3870   35.9070 C   0  0  0  0  0  3  0  0  0  0  0  0
   35.5830   30.7930   34.7400 C   0  0  0  0  0  3  0  0  0  0  0  0
   34.2990   30.8510   34.2670 C   0  0  0  0  0  0  0  0  0  0  0  0
   36.3440   23.5650   31.7020 C   0  0  0  0  0  0  0  0  0  0  0  0
   37.3870   24.2020   32.2280 C   0  0  0  0  0  0  0  0  0  0  0  0
   37.4100   25.5820   32.2080 C   0  0  0  0  0  0  0  0  0  0  0  0
   36.3300   26.2000   31.6340 C   0  0  0  0  0  0  0  0  0  0  0  0
   35.3040   24.7960   31.1330 S   0  0  0  0  0  0  0  0  0  0  0  0
   38.2210   23.6310   32.6730 H   0  0  0  0  0  0  0  0  0  0  0  0
   38.2100   26.2010   32.6080 H   0  0  0  0  0  0  0  0  0  0  0  0
   34.8260   20.2950   32.2130 C   0  0  0  0  0  0  0  0  0  0  0  0
   35.6340   19.4330   31.4410 C   0  0  0  0  0  0  0  0  0  0  0  0
   36.7210   19.9980   30.7340 C   0  0  0  0  0  0  0  0  0  0  0  0
   36.9240   21.3470   30.8430 N   0  0  0  0  0  0  0  0  0  0  0  0
   36.0960   22.1180   31.6130 C   0  0  0  0  0  0  0  0  0  0  0  0
   35.0620   21.6250   32.2930 N   0  0  0  0  0  0  0  0  0  0  0  0
   33.9810   19.9050   32.7720 H   0  0  0  0  0  0  0  0  0  0  0  0
   35.4110   18.3760   31.4030 H   0  0  0  0  0  0  0  0  0  0  0  0
   37.3480   19.3700   30.1420 H   0  0  0  0  0  0  0  0  0  0  0  0
  1 23  1  0  0  0  0
  1  6  1  0  0  0  0
  2  1  2  0  0  0  0
  3  2  1  0  0  0  0
  3  4  2  0  0  0  0
  4  5  1  0  0  0  0
  5  6  2  0  0  0  0
  5  9  1  0  0  0  0
  7  2  1  0  0  0  0
  8  3  1  0  0  0  0
  9 19  1  0  0  0  0
 10  9  2  0  0  0  0
 10 12  1  0  0  0  0
 11 10  1  0  0  0  0
 12 13  2  0  0  0  0
 13 14  1  0  0  0  0
 14 15  1  0  0  0  0
 15 16  2  0  0  0  0
 17 16  1  0  0  0  0
 18 17  2  0  0  0  0
 19 18  1  0  0  0  0
 19 14  2  0  0  0  0
 20 21  2  0  0  0  0
 21 25  1  0  0  0  0
 22 21  1  0  0  0  0
 22 26  1  0  0  0  0
 23 22  2  0  0  0  0
 24 23  1  0  0  0  0
 24 20  1  0  0  0  0
 27 32  1  0  0  0  0
 27 33  1  0  0  0  0
 28 27  2  0  0  0  0
 29 30  2  0  0  0  0
 29 28  1  0  0  0  0
 30 31  1  0  0  0  0
 31 20  1  0  0  0  0
 31 32  2  0  0  0  0
 34 28  1  0  0  0  0
 35 29  1  0  0  0  0
M  END
>  <minimizedAffinity>
-6.65828228

$$$$

 OpenBabel03262522533D

 35 39  0  0  0  0  0  0  0  0999 V2000
   36.2820   28.2460   33.5150 C   0  0  0  0  0  0  0  0  0  0  0  0
   35.9360   28.4810   32.2460 C   0  0  0  0  0  0  0  0  0  0  0  0
   35.2340   29.6330   31.9950 C   0  0  0  0  0  0  0  0  0  0  0  0
   34.8930   30.5130   32.9800 N   0  0  0  0  0  0  0  0  0  0  0  0
   35.2810   30.2050   34.2480 C   0  0  0  0  0  0  0  0  0  0  0  0
   35.9550   29.0930   34.4650 N   0  0  0  0  0  0  0  0  0  0  0  0
   36.1670   27.8390   31.4250 H   0  0  0  0  0  0  0  0  0  0  0  0
   34.9380   29.8500   30.9660 H   0  0  0  0  0  0  0  0  0  0  0  0
   34.8530   31.2270   35.1930 C   0  0  0  0  0  0  0  0  0  0  0  0
   33.7770   31.0240   36.0280 C   0  0  0  0  0  0  0  0  0  0  0  0
   33.1930   30.0970   36.0300 H   0  0  0  0  0  0  0  0  0  0  0  0
   33.3090   31.9320   36.9460 C   0  0  0  0  0  3  0  0  0  0  0  0
   33.9300   33.1460   37.0740 C   0  0  0  0  0  3  0  0  0  0  0  0
   35.0120   33.4110   36.2670 C   0  0  0  0  0  0  0  0  0  0  0  0
   35.6260   34.6340   36.4040 C   0  0  0  0  0  3  0  0  0  0  0  0
   36.7040   34.9700   35.6410 C   0  0  0  0  0  3  0  0  0  0  0  0
   37.1510   34.0240   34.7210 C   0  0  0  0  0  3  0  0  0  0  0  0
   36.5030   32.8150   34.6200 C   0  0  0  0  0  3  0  0  0  0  0  0
   35.4190   32.4540   35.3750 C   0  0  0  0  0  0  0  0  0  0  0  0
   38.3990   25.1230   35.0450 C   0  0  0  0  0  0  0  0  0  0  0  0
   38.0870   24.9750   33.7600 C   0  0  0  0  0  0  0  0  0  0  0  0
   37.3660   25.9680   33.1260 C   0  0  0  0  0  0  0  0  0  0  0  0
   37.0230   27.0530   33.8910 C   0  0  0  0  0  0  0  0  0  0  0  0
   37.7360   26.6310   35.5000 S   0  0  0  0  0  0  0  0  0  0  0  0
   38.4000   24.0700   33.2120 H   0  0  0  0  0  0  0  0  0  0  0  0
   37.0580   25.9500   32.0840 H   0  0  0  0  0  0  0  0  0  0  0  0
   41.0220   22.9160   36.2740 C   0  0  0  0  0  0  0  0  0  0  0  0
   40.5590   22.5340   37.5510 C   0  0  0  0  0  0  0  0  0  0  0  0
   39.3180   23.0510   37.9890 C   0  0  0  0  0  0  0  0  0  0  0  0
   38.6400   23.8900   37.1460 N   0  0  0  0  0  0  0  0  0  0  0  0
   39.1550   24.2150   35.9200 C   0  0  0  0  0  0  0  0  0  0  0  0
   40.3200   23.7500   35.4710 N   0  0  0  0  0  0  0  0  0  0  0  0
   41.9700   22.5430   35.8970 H   0  0  0  0  0  0  0  0  0  0  0  0
   41.1500   21.8660   38.1610 H   0  0  0  0  0  0  0  0  0  0  0  0
   38.9430   22.7790   38.9500 H   0  0  0  0  0  0  0  0  0  0  0  0
  1 23  1  0  0  0  0
  1  6  1  0  0  0  0
  2  1  2  0  0  0  0
  3  2  1  0  0  0  0
  3  4  2  0  0  0  0
  4  5  1  0  0  0  0
  5  6  2  0  0  0  0
  5  9  1  0  0  0  0
  7  2  1  0  0  0  0
  8  3  1  0  0  0  0
  9 19  2  0  0  0  0
  9 10  1  0  0  0  0
 10 11  1  0  0  0  0
 10 12  2  0  0  0  0
 12 13  1  0  0  0  0
 14 15  1  0  0  0  0
 14 13  2  0  0  0  0
 16 15  2  0  0  0  0
 17 16  1  0  0  0  0
 18 17  2  0  0  0  0
 18 19  1  0  0  0  0
 19 14  1  0  0  0  0
 20 24  1  0  0  0  0
 20 31  1  0  0  0  0
 21 20  2  0  0  0  0
 22 21  1  0  0  0  0
 22 23  2  0  0  0  0
 23 24  1  0  0  0  0
 25 21  1  0  0  0  0
 26 22  1  0  0  0  0
 27 28  1  0  0  0  0
 28 29  2  0  0  0  0
 28 34  1  0  0  0  0
 29 35  1  0  0  0  0
 30 29  1  0  0  0  0
 31 30  2  0  0  0  0
 32 31  1  0  0  0  0
 32 27  2  0  0  0  0
 33 27  1  0  0  0  0
M  END
>  <minimizedAffinity>
-6.52566957

$$$$

 OpenBabel03262522533D

 35 39  0  0  0  0  0  0  0  0999 V2000
   37.5880   27.1200   33.5240 C   0  0  0  0  0  0  0  0  0  0  0  0
   38.1080   27.3950   32.3240 C   0  0  0  0  0  0  0  0  0  0  0  0
   37.4700   28.3510   31.5740 C   0  0  0  0  0  0  0  0  0  0  0  0
   36.3540   29.0030   32.0130 N   0  0  0  0  0  0  0  0  0  0  0  0
   35.8860   28.6680   33.2460 C   0  0  0  0  0  0  0  0  0  0  0  0
   36.5150   27.7470   33.9480 N   0  0  0  0  0  0  0  0  0  0  0  0
   38.9750   26.9260   31.9160 H   0  0  0  0  0  0  0  0  0  0  0  0
   37.8730   28.5970   30.5890 H   0  0  0  0  0  0  0  0  0  0  0  0
   34.6970   29.4380   33.5840 C   0  0  0  0  0  0  0  0  0  0  0  0
   33.4950   29.2170   32.9500 C   0  0  0  0  0  0  0  0  0  0  0  0
   33.3670   28.4610   32.1670 H   0  0  0  0  0  0  0  0  0  0  0  0
   32.3300   29.8960   33.2080 C   0  0  0  0  0  3  0  0  0  0  0  0
   32.3160   30.8770   34.1640 C   0  0  0  0  0  3  0  0  0  0  0  0
   33.4870   31.1470   34.8350 C   0  0  0  0  0  0  0  0  0  0  0  0
   33.4600   32.1350   35.7910 C   0  0  0  0  0  3  0  0  0  0  0  0
   34.5790   32.4590   36.4990 C   0  0  0  0  0  3  0  0  0  0  0  0
   35.7430   31.7500   36.2100 C   0  0  0  0  0  3  0  0  0  0  0  0
   35.7190   30.7710   35.2440 C   0  0  0  0  0  3  0  0  0  0  0  0
   34.6080   30.4270   34.5200 C   0  0  0  0  0  0  0  0  0  0  0  0
   39.6190   24.2570   35.5890 C   0  0  0  0  0  0  0  0  0  0  0  0
   38.5370   24.7030   36.2220 C   0  0  0  0  0  0  0  0  0  0  0  0
   37.7640   25.6790   35.6240 C   0  0  0  0  0  0  0  0  0  0  0  0
   38.1840   26.1200   34.3960 C   0  0  0  0  0  0  0  0  0  0  0  0
   39.6750   25.1320   34.1210 S   0  0  0  0  0  0  0  0  0  0  0  0
   38.2650   24.2970   37.2120 H   0  0  0  0  0  0  0  0  0  0  0  0
   36.8630   26.1130   36.0510 H   0  0  0  0  0  0  0  0  0  0  0  0
   41.2030   21.6270   37.5450 C   0  0  0  0  0  0  0  0  0  0  0  0
   42.3670   21.3240   36.8090 C   0  0  0  0  0  0  0  0  0  0  0  0
   42.6040   22.0460   35.6160 C   0  0  0  0  0  0  0  0  0  0  0  0
   41.6890   22.9950   35.2490 N   0  0  0  0  0  0  0  0  0  0  0  0
   40.5820   23.2320   36.0180 C   0  0  0  0  0  0  0  0  0  0  0  0
   40.3220   22.5740   37.1460 N   0  0  0  0  0  0  0  0  0  0  0  0
   40.9800   21.0970   38.4670 H   0  0  0  0  0  0  0  0  0  0  0  0
   43.0450   20.5600   37.1620 H   0  0  0  0  0  0  0  0  0  0  0  0
   43.4770   21.8380   35.0380 H   0  0  0  0  0  0  0  0  0  0  0  0
  1  6  1  0  0  0  0
  1 23  1  0  0  0  0
  2  1  2  0  0  0  0
  3  4  2  0  0  0  0
  3  2  1  0  0  0  0
  4  5  1  0  0  0  0
  5  9  1  0  0  0  0
  5  6  2  0  0  0  0
  7  2  1  0  0  0  0
  8  3  1  0  0  0  0
  9 19  1  0  0  0  0
 10 12  1  0  0  0  0
 10  9  2  0  0  0  0
 11 10  1  0  0  0  0
 12 13  2  0  0  0  0
 13 14  1  0  0  0  0
 14 15  1  0  0  0  0
 15 16  2  0  0  0  0
 17 16  1  0  0  0  0
 18 17  2  0  0  0  0
 19 14  2  0  0  0  0
 19 18  1  0  0  0  0
 20 31  1  0  0  0  0
 20 21  2  0  0  0  0
 21 25  1  0  0  0  0
 22 26  1  0  0  0  0
 22 21  1  0  0  0  0
 23 22  2  0  0  0  0
 24 23  1  0  0  0  0
 24 20  1  0  0  0  0
 27 33  1  0  0  0  0
 28 34  1  0  0  0  0
 28 27  2  0  0  0  0
 29 28  1  0  0  0  0
 30 29  2  0  0  0  0
 30 31  1  0  0  0  0
 31 32  2  0  0  0  0
 32 27  1  0  0  0  0
 35 29  1  0  0  0  0
M  END
>  <minimizedAffinity>
-6.45184088

$$$$

 OpenBabel03262522533D

 35 39  0  0  0  0  0  0  0  0999 V2000
   36.8340   26.3570   32.7950 C   0  0  0  0  0  0  0  0  0  0  0  0
   36.3450   25.6030   31.8070 C   0  0  0  0  0  0  0  0  0  0  0  0
   36.8160   24.3170   31.7140 C   0  0  0  0  0  0  0  0  0  0  0  0
   37.7420   23.8110   32.5790 N   0  0  0  0  0  0  0  0  0  0  0  0
   38.1920   24.6400   33.5600 C   0  0  0  0  0  0  0  0  0  0  0  0
   37.7260   25.8710   33.6300 N   0  0  0  0  0  0  0  0  0  0  0  0
   35.6220   25.9300   31.0950 H   0  0  0  0  0  0  0  0  0  0  0  0
   36.4330   23.6770   30.9160 H   0  0  0  0  0  0  0  0  0  0  0  0
   39.1710   23.9730   34.4060 C   0  0  0  0  0  0  0  0  0  0  0  0
   40.3500   23.4840   33.8890 C   0  0  0  0  0  0  0  0  0  0  0  0
   40.6140   23.5680   32.8290 H   0  0  0  0  0  0  0  0  0  0  0  0
   41.3240   22.8440   34.6150 C   0  0  0  0  0  3  0  0  0  0  0  0
   41.1520   22.6560   35.9610 C   0  0  0  0  0  3  0  0  0  0  0  0
   39.9940   23.1220   36.5390 C   0  0  0  0  0  0  0  0  0  0  0  0
   39.8320   22.9270   37.8910 C   0  0  0  0  0  3  0  0  0  0  0  0
   38.7130   23.3610   38.5360 C   0  0  0  0  0  3  0  0  0  0  0  0
   37.7450   24.0050   37.7670 C   0  0  0  0  0  3  0  0  0  0  0  0
   37.9520   24.1770   36.4180 C   0  0  0  0  0  3  0  0  0  0  0  0
   39.0690   23.7500   35.7480 C   0  0  0  0  0  0  0  0  0  0  0  0
   35.7020   30.1290   33.8290 C   0  0  0  0  0  0  0  0  0  0  0  0
   35.6490   29.8980   32.5200 C   0  0  0  0  0  0  0  0  0  0  0  0
   36.0120   28.6540   32.0430 C   0  0  0  0  0  0  0  0  0  0  0  0
   36.4060   27.7350   32.9800 C   0  0  0  0  0  0  0  0  0  0  0  0
   36.2530   28.6670   34.5230 S   0  0  0  0  0  0  0  0  0  0  0  0
   35.3200   30.6920   31.8280 H   0  0  0  0  0  0  0  0  0  0  0  0
   36.0060   28.3580   30.9970 H   0  0  0  0  0  0  0  0  0  0  0  0
   35.1730   32.4650   36.5710 C   0  0  0  0  0  0  0  0  0  0  0  0
   34.7440   33.6430   35.9230 C   0  0  0  0  0  0  0  0  0  0  0  0
   34.6360   33.6220   34.5130 C   0  0  0  0  0  0  0  0  0  0  0  0
   34.9550   32.4600   33.8630 N   0  0  0  0  0  0  0  0  0  0  0  0
   35.3650   31.3580   34.5630 C   0  0  0  0  0  0  0  0  0  0  0  0
   35.4790   31.3370   35.8900 N   0  0  0  0  0  0  0  0  0  0  0  0
   35.2700   32.4360   37.6530 H   0  0  0  0  0  0  0  0  0  0  0  0
   34.5090   34.5230   36.5040 H   0  0  0  0  0  0  0  0  0  0  0  0
   34.3140   34.4980   33.9960 H   0  0  0  0  0  0  0  0  0  0  0  0
  1 23  1  0  0  0  0
  1  6  1  0  0  0  0
  2  1  2  0  0  0  0
  3  2  1  0  0  0  0
  3  4  2  0  0  0  0
  4  5  1  0  0  0  0
  5  6  2  0  0  0  0
  5  9  1  0  0  0  0
  7  2  1  0  0  0  0
  8  3  1  0  0  0  0
  9 19  1  0  0  0  0
 10  9  2  0  0  0  0
 10 12  1  0  0  0  0
 11 10  1  0  0  0  0
 12 13  2  0  0  0  0
 13 14  1  0  0  0  0
 14 15  1  0  0  0  0
 15 16  2  0  0  0  0
 17 16  1  0  0  0  0
 18 17  2  0  0  0  0
 19 18  1  0  0  0  0
 19 14  2  0  0  0  0
 20 24  1  0  0  0  0
 20 31  1  0  0  0  0
 21 20  2  0  0  0  0
 22 21  1  0  0  0  0
 22 23  2  0  0  0  0
 23 24  1  0  0  0  0
 25 21  1  0  0  0  0
 26 22  1  0  0  0  0
 27 33  1  0  0  0  0
 28 34  1  0  0  0  0
 28 27  1  0  0  0  0
 29 28  2  0  0  0  0
 30 29  1  0  0  0  0
 30 31  2  0  0  0  0
 31 32  1  0  0  0  0
 32 27  2  0  0  0  0
 35 29  1  0  0  0  0
M  END
>  <minimizedAffinity>
-6.29786158

$$$$

 OpenBabel03262522533D

 35 39  0  0  0  0  0  0  0  0999 V2000
   37.3430   25.1430   32.5210 C   0  0  0  0  0  0  0  0  0  0  0  0
   36.9310   24.0650   31.8490 C   0  0  0  0  0  0  0  0  0  0  0  0
   37.0260   22.8560   32.4920 C   0  0  0  0  0  0  0  0  0  0  0  0
   37.5170   22.7370   33.7600 N   0  0  0  0  0  0  0  0  0  0  0  0
   37.9170   23.8810   34.3800 C   0  0  0  0  0  0  0  0  0  0  0  0
   37.8160   25.0300   33.7420 N   0  0  0  0  0  0  0  0  0  0  0  0
   36.5370   24.0810   30.8580 H   0  0  0  0  0  0  0  0  0  0  0  0
   36.6960   21.9580   31.9670 H   0  0  0  0  0  0  0  0  0  0  0  0
   38.4160   23.6070   35.7200 C   0  0  0  0  0  0  0  0  0  0  0  0
   37.7260   24.0160   36.8390 C   0  0  0  0  0  0  0  0  0  0  0  0
   36.7780   24.5630   36.7860 H   0  0  0  0  0  0  0  0  0  0  0  0
   38.1250   23.7990   38.1350 C   0  0  0  0  0  3  0  0  0  0  0  0
   39.2920   23.1260   38.3800 C   0  0  0  0  0  3  0  0  0  0  0  0
   40.0290   22.6900   37.3020 C   0  0  0  0  0  0  0  0  0  0  0  0
   41.2000   22.0160   37.5610 C   0  0  0  0  0  3  0  0  0  0  0  0
   41.9840   21.5520   36.5470 C   0  0  0  0  0  3  0  0  0  0  0  0
   41.5480   21.7910   35.2460 C   0  0  0  0  0  3  0  0  0  0  0  0
   40.3700   22.4700   35.0370 C   0  0  0  0  0  3  0  0  0  0  0  0
   39.5650   22.9460   36.0390 C   0  0  0  0  0  0  0  0  0  0  0  0
   36.7230   28.9070   31.0980 C   0  0  0  0  0  0  0  0  0  0  0  0
   37.8730   28.3710   30.6990 C   0  0  0  0  0  0  0  0  0  0  0  0
   38.2000   27.0960   31.1180 C   0  0  0  0  0  0  0  0  0  0  0  0
   37.2900   26.4710   31.9300 C   0  0  0  0  0  0  0  0  0  0  0  0
   35.9870   27.7180   32.0800 S   0  0  0  0  0  0  0  0  0  0  0  0
   38.5550   28.9400   30.0440 H   0  0  0  0  0  0  0  0  0  0  0  0
   39.1110   26.5640   30.8540 H   0  0  0  0  0  0  0  0  0  0  0  0
   36.3690   32.2500   29.6980 C   0  0  0  0  0  0  0  0  0  0  0  0
   35.1200   32.6820   30.1900 C   0  0  0  0  0  0  0  0  0  0  0  0
   34.3920   31.7990   31.0210 C   0  0  0  0  0  0  0  0  0  0  0  0
   34.9440   30.5780   31.2980 N   0  0  0  0  0  0  0  0  0  0  0  0
   36.1640   30.2300   30.7810 C   0  0  0  0  0  0  0  0  0  0  0  0
   36.8800   31.0320   29.9960 N   0  0  0  0  0  0  0  0  0  0  0  0
   36.9620   32.8950   29.0560 H   0  0  0  0  0  0  0  0  0  0  0  0
   34.7470   33.6630   29.9290 H   0  0  0  0  0  0  0  0  0  0  0  0
   33.4440   32.1000   31.4080 H   0  0  0  0  0  0  0  0  0  0  0  0
  1  6  1  0  0  0  0
  2  3  1  0  0  0  0
  2  1  2  0  0  0  0
  3  4  2  0  0  0  0
  4  5  1  0  0  0  0
  5  9  1  0  0  0  0
  6  5  2  0  0  0  0
  7  2  1  0  0  0  0
  8  3  1  0  0  0  0
  9 19  2  0  0  0  0
  9 10  1  0  0  0  0
 10 12  2  0  0  0  0
 11 10  1  0  0  0  0
 12 13  1  0  0  0  0
 14 15  1  0  0  0  0
 14 13  2  0  0  0  0
 16 15  2  0  0  0  0
 17 16  1  0  0  0  0
 18 17  2  0  0  0  0
 18 19  1  0  0  0  0
 19 14  1  0  0  0  0
 20 24  1  0  0  0  0
 21 20  2  0  0  0  0
 21 22  1  0  0  0  0
 22 23  2  0  0  0  0
 23 24  1  0  0  0  0
 23  1  1  0  0  0  0
 25 21  1  0  0  0  0
 26 22  1  0  0  0  0
 27 32  2  0  0  0  0
 27 28  1  0  0  0  0
 28 29  2  0  0  0  0
 29 30  1  0  0  0  0
 29 35  1  0  0  0  0
 31 20  1  0  0  0  0
 31 30  2  0  0  0  0
 32 31  1  0  0  0  0
 33 27  1  0  0  0  0
 34 28  1  0  0  0  0
M  END
>  <minimizedAffinity>
-6.21176815

$$$$

 OpenBabel03262522533D

 35 39  0  0  0  0  0  0  0  0999 V2000
   38.0750   26.2200   32.6180 C   0  0  0  0  0  0  0  0  0  0  0  0
   38.4780   25.8800   31.3910 C   0  0  0  0  0  0  0  0  0  0  0  0
   39.4500   24.9150   31.2990 C   0  0  0  0  0  0  0  0  0  0  0  0
   39.9960   24.3180   32.3990 N   0  0  0  0  0  0  0  0  0  0  0  0
   39.5330   24.7180   33.6150 C   0  0  0  0  0  0  0  0  0  0  0  0
   38.5990   25.6460   33.6780 N   0  0  0  0  0  0  0  0  0  0  0  0
   38.0990   26.3030   30.4880 H   0  0  0  0  0  0  0  0  0  0  0  0
   39.7990   24.6170   30.3090 H   0  0  0  0  0  0  0  0  0  0  0  0
   40.1990   24.0010   34.6930 C   0  0  0  0  0  0  0  0  0  0  0  0
   41.4580   23.4680   34.5290 C   0  0  0  0  0  0  0  0  0  0  0  0
   42.0200   23.5510   33.5930 H   0  0  0  0  0  0  0  0  0  0  0  0
   42.1540   22.7800   35.4910 C   0  0  0  0  0  3  0  0  0  0  0  0
   41.5930   22.5870   36.7250 C   0  0  0  0  0  3  0  0  0  0  0  0
   40.3350   23.0950   36.9540 C   0  0  0  0  0  0  0  0  0  0  0  0
   39.7810   22.8940   38.1970 C   0  0  0  0  0  3  0  0  0  0  0  0
   38.5400   23.3680   38.5000 C   0  0  0  0  0  3  0  0  0  0  0  0
   37.8620   24.0600   37.4980 C   0  0  0  0  0  3  0  0  0  0  0  0
   38.4580   24.2360   36.2700 C   0  0  0  0  0  3  0  0  0  0  0  0
   39.7030   23.7690   35.9430 C   0  0  0  0  0  0  0  0  0  0  0  0
   35.0920   28.9910   32.6930 C   0  0  0  0  0  0  0  0  0  0  0  0
   35.7290   28.8630   33.8550 C   0  0  0  0  0  0  0  0  0  0  0  0
   36.7610   27.9510   33.9570 C   0  0  0  0  0  0  0  0  0  0  0  0
   37.0540   27.2340   32.8260 C   0  0  0  0  0  0  0  0  0  0  0  0
   35.8480   27.8770   31.6400 S   0  0  0  0  0  0  0  0  0  0  0  0
   35.4320   29.4770   34.7220 H   0  0  0  0  0  0  0  0  0  0  0  0
   37.3460   27.7660   34.8550 H   0  0  0  0  0  0  0  0  0  0  0  0
   33.1890   31.6610   31.1110 C   0  0  0  0  0  0  0  0  0  0  0  0
   31.9100   31.5450   31.6960 C   0  0  0  0  0  0  0  0  0  0  0  0
   31.7090   30.5250   32.6550 C   0  0  0  0  0  0  0  0  0  0  0  0
   32.7670   29.7120   32.9570 N   0  0  0  0  0  0  0  0  0  0  0  0
   33.9790   29.8870   32.3450 C   0  0  0  0  0  0  0  0  0  0  0  0
   34.2090   30.8340   31.4380 N   0  0  0  0  0  0  0  0  0  0  0  0
   33.3880   32.4300   30.3700 H   0  0  0  0  0  0  0  0  0  0  0  0
   31.1210   32.2250   31.4070 H   0  0  0  0  0  0  0  0  0  0  0  0
   30.7520   30.4140   33.1140 H   0  0  0  0  0  0  0  0  0  0  0  0
  1 23  1  0  0  0  0
  1  6  1  0  0  0  0
  2  1  2  0  0  0  0
  3  2  1  0  0  0  0
  3  4  2  0  0  0  0
  4  5  1  0  0  0  0
  5  6  2  0  0  0  0
  5  9  1  0  0  0  0
  7  2  1  0  0  0  0
  8  3  1  0  0  0  0
  9 19  1  0  0  0  0
 10  9  2  0  0  0  0
 10 12  1  0  0  0  0
 11 10  1  0  0  0  0
 12 13  2  0  0  0  0
 13 14  1  0  0  0  0
 14 15  1  0  0  0  0
 15 16  2  0  0  0  0
 17 16  1  0  0  0  0
 18 17  2  0  0  0  0
 19 18  1  0  0  0  0
 19 14  2  0  0  0  0
 20 21  2  0  0  0  0
 21 22  1  0  0  0  0
 21 25  1  0  0  0  0
 22 26  1  0  0  0  0
 23 22  2  0  0  0  0
 24 20  1  0  0  0  0
 24 23  1  0  0  0  0
 27 32  2  0  0  0  0
 27 28  1  0  0  0  0
 28 29  2  0  0  0  0
 29 30  1  0  0  0  0
 29 35  1  0  0  0  0
 31 20  1  0  0  0  0
 31 30  2  0  0  0  0
 32 31  1  0  0  0  0
 33 27  1  0  0  0  0
 34 28  1  0  0  0  0
M  END
>  <minimizedAffinity>
-6.20630503

$$$$
