
 OpenBabel03272509473D

 27 29  0  0  0  0  0  0  0  0999 V2000
   32.7600   27.4860   48.3410 C   0  0  0  0  0  0  0  0  0  0  0  0
   33.1850   26.7690   47.6210 H   0  0  0  0  0  0  0  0  0  0  0  0
   32.6010   26.8760   49.2790 H   0  0  0  0  0  0  0  0  0  0  0  0
   31.4680   28.0370   47.8860 C   0  0  0  0  0  0  0  0  0  0  0  0
   31.4500   28.7240   46.6790 C   0  0  0  0  0  0  0  0  0  0  0  0
   32.3650   28.8210   46.1060 H   0  0  0  0  0  0  0  0  0  0  0  0
   30.3530   29.3220   46.1040 C   0  0  0  0  0  3  0  0  0  0  0  0
   29.1560   29.2140   46.8210 C   0  0  0  0  0  3  0  0  0  0  0  0
   29.1260   28.5380   48.0260 C   0  0  0  0  0  0  0  0  0  0  0  0
   27.9740   28.3960   48.7720 C   0  0  0  0  0  3  0  0  0  0  0  0
   27.9100   27.7240   49.9770 C   0  0  0  0  0  3  0  0  0  0  0  0
   29.0750   27.1720   50.4400 C   0  0  0  0  0  3  0  0  0  0  0  0
   30.2520   27.2770   49.7480 C   0  0  0  0  0  3  0  0  0  0  0  0
   30.2660   27.9550   48.5540 C   0  0  0  0  0  0  0  0  0  0  0  0
   33.7120   28.5820   48.6820 C   0  0  0  0  0  0  0  0  0  0  0  0
   33.2030   29.5110   48.9200 H   0  0  0  0  0  0  0  0  0  0  0  0
   34.3020   28.7940   47.7490 H   0  0  0  0  0  0  0  0  0  0  0  0
   34.5910   28.1850   49.7170 O   0  0  0  0  0  0  0  0  0  0  0  0
   37.1950   30.1850   51.2790 C   0  0  0  0  0  0  0  0  0  0  0  0
   37.8750   30.6240   50.1470 C   0  0  0  0  0  0  0  0  0  0  0  0
   37.4180   30.2190   48.8950 C   0  0  0  0  0  0  0  0  0  0  0  0
   36.3120   29.4050   48.8860 N   0  0  0  0  0  0  0  0  0  0  0  0
   35.6800   29.0010   49.9880 C   0  0  0  0  0  0  0  0  0  0  0  0
   36.1280   29.3960   51.1900 N   0  0  0  0  0  0  0  0  0  0  0  0
   37.5900   30.5270   52.2180 H   0  0  0  0  0  0  0  0  0  0  0  0
   38.7510   31.2640   50.1060 H   0  0  0  0  0  0  0  0  0  0  0  0
   37.8710   30.5000   47.9400 H   0  0  0  0  0  0  0  0  0  0  0  0
  1 15  1  0  0  0  0
  1  3  1  0  0  0  0
  2  1  1  0  0  0  0
  4  1  1  0  0  0  0
  4 14  1  0  0  0  0
  5  4  2  0  0  0  0
  6  5  1  0  0  0  0
  7  5  1  0  0  0  0
  7  8  2  0  0  0  0
  8  9  1  0  0  0  0
  9 14  2  0  0  0  0
  9 10  1  0  0  0  0
 10 11  2  0  0  0  0
 11 12  1  0  0  0  0
 13 12  2  0  0  0  0
 14 13  1  0  0  0  0
 15 16  1  0  0  0  0
 15 18  1  0  0  0  0
 17 15  1  0  0  0  0
 18 23  1  0  0  0  0
 19 25  1  0  0  0  0
 20 19  2  0  0  0  0
 21 20  1  0  0  0  0
 22 21  2  0  0  0  0
 22 23  1  0  0  0  0
 23 24  2  0  0  0  0
 24 19  1  0  0  0  0
 26 20  1  0  0  0  0
 27 21  1  0  0  0  0
M  END
>  <minimizedAffinity>
-5.32919788

>  <minimizedRMSD>
2.92731714

$$$$
