
 OpenBabel03272501173D

 37 41  0  0  1  0  0  0  0  0999 V2000
   35.0640   29.1860   50.5230 C   0  0  0  0  0  0  0  0  0  0  0  0
   35.1040   28.2580   51.1270 H   0  0  0  0  0  0  0  0  0  0  0  0
   34.5440   29.9420   51.1680 H   0  0  0  0  0  0  0  0  0  0  0  0
   36.7280   31.0710   50.1870 C   0  0  1  0  0  0  0  0  0  0  0  0
   36.4330   29.6730   50.1400 C   0  0  1  0  0  0  0  0  0  0  0  0
   37.4480   30.1040   51.1520 C   0  0  0  0  0  0  0  0  0  0  0  0
   36.0650   31.8160   50.7130 H   0  0  0  0  0  0  0  0  0  0  0  0
   36.8250   29.1050   49.2400 H   0  0  0  0  0  0  0  0  0  0  0  0
   37.0920   30.0630   52.2000 H   0  0  0  0  0  0  0  0  0  0  0  0
   38.4840   29.8300   50.9420 H   0  0  0  0  0  0  0  0  0  0  0  0
   37.7000   31.7130   49.2240 C   0  0  0  0  0  0  0  0  0  0  0  0
   38.1540   32.9820   49.5620 C   0  0  0  0  0  0  0  0  0  0  0  0
   39.0400   33.5730   48.6420 C   0  0  0  0  0  0  0  0  0  0  0  0
   39.3970   32.8970   47.5080 N   0  0  0  0  0  0  0  0  0  0  0  0
   38.9250   31.6490   47.2170 C   0  0  0  0  0  0  0  0  0  0  0  0
   38.0590   31.0500   48.0980 N   0  0  0  0  0  0  0  0  0  0  0  0
   37.8650   33.4910   50.4480 H   0  0  0  0  0  0  0  0  0  0  0  0
   39.4430   34.5540   48.8210 H   0  0  0  0  0  0  0  0  0  0  0  0
   39.2120   31.1300   46.3250 H   0  0  0  0  0  0  0  0  0  0  0  0
   34.1700   28.9970   49.3390 C   0  0  0  0  0  0  0  0  0  0  0  0
   34.1350   29.8560   48.2710 C   0  0  0  0  0  0  0  0  0  0  0  0
   33.2530   29.4340   47.3760 N   0  0  0  0  0  0  0  0  0  0  0  0
   32.7170   28.3190   47.8380 C   0  0  0  0  0  0  0  0  0  0  0  0
   33.2770   28.0580   49.0340 N   0  0  0  0  0  0  0  0  0  0  0  0
   34.7580   30.7630   48.1860 H   0  0  0  0  0  0  0  0  0  0  0  0
   33.0480   29.9470   46.5240 H   0  0  0  0  0  0  0  0  0  0  0  0
   31.7740   27.3370   47.3400 C   0  0  0  0  0  0  0  0  0  0  0  0
   32.2200   26.2360   46.5930 C   0  0  0  0  0  0  0  0  0  0  0  0
   33.2850   26.1180   46.4020 H   0  0  0  0  0  0  0  0  0  0  0  0
   31.4260   25.2540   46.0620 C   0  0  0  0  0  3  0  0  0  0  0  0
   30.0700   25.3110   46.2480 C   0  0  0  0  0  3  0  0  0  0  0  0
   29.5500   26.3600   46.9660 C   0  0  0  0  0  0  0  0  0  0  0  0
   28.1940   26.3960   47.1020 C   0  0  0  0  0  3  0  0  0  0  0  0
   27.5870   27.4140   47.7670 C   0  0  0  0  0  3  0  0  0  0  0  0
   28.4180   28.4060   48.2940 C   0  0  0  0  0  3  0  0  0  0  0  0
   29.7760   28.3080   48.1210 C   0  0  0  0  0  3  0  0  0  0  0  0
   30.4120   27.2960   47.4600 C   0  0  0  0  0  0  0  0  0  0  0  0
  1  2  1  0  0  0  0
  1  3  1  0  0  0  0
  4  7  1  1  0  0  0
  4  6  1  0  0  0  0
  5  8  1  6  0  0  0
  5  4  1  0  0  0  0
  5  1  1  0  0  0  0
  5  6  1  0  0  0  0
  6  9  1  0  0  0  0
 10  6  1  0  0  0  0
 11 12  1  0  0  0  0
 11  4  1  0  0  0  0
 12 17  1  0  0  0  0
 13 18  1  0  0  0  0
 13 12  2  0  0  0  0
 14 13  1  0  0  0  0
 15 14  2  0  0  0  0
 15 16  1  0  0  0  0
 16 11  2  0  0  0  0
 19 15  1  0  0  0  0
 20  1  1  0  0  0  0
 21 20  2  0  0  0  0
 22 23  1  0  0  0  0
 22 21  1  0  0  0  0
 23 24  2  0  0  0  0
 24 20  1  0  0  0  0
 25 21  1  0  0  0  0
 26 22  1  0  0  0  0
 27 37  1  0  0  0  0
 27 23  1  0  0  0  0
 28 27  2  0  0  0  0
 29 28  1  0  0  0  0
 30 31  2  0  0  0  0
 30 28  1  0  0  0  0
 31 32  1  0  0  0  0
 32 33  2  0  0  0  0
 32 37  1  0  0  0  0
 33 34  1  0  0  0  0
 34 35  2  0  0  0  0
 36 35  1  0  0  0  0
 37 36  2  0  0  0  0
M  END
>  <minimizedAffinity>
-6.61748123

>  <minimizedRMSD>
0.169512346

$$$$
