
 OpenBabel03272508253D

 27 30  0  0  1  0  0  0  0  0999 V2000
   35.9070   30.6570   48.8820 C   0  0  1  0  0  0  0  0  0  0  0  0
   35.6880   29.5330   47.9770 C   0  0  1  0  0  0  0  0  0  0  0  0
   36.3160   29.2660   49.3260 C   0  0  0  0  0  0  0  0  0  0  0  0
   35.0870   31.1330   49.4220 H   0  0  0  0  0  0  0  0  0  0  0  0
   36.4080   29.4310   47.1290 H   0  0  0  0  0  0  0  0  0  0  0  0
   37.3720   29.0010   49.3830 H   0  0  0  0  0  0  0  0  0  0  0  0
   35.7230   28.8840   50.1750 H   0  0  0  0  0  0  0  0  0  0  0  0
   34.3980   28.9000   47.7570 C   0  0  0  0  0  0  0  0  0  0  0  0
   33.7810   28.5740   48.9580 C   0  0  0  0  0  0  0  0  0  0  0  0
   34.1510   28.7750   49.9650 H   0  0  0  0  0  0  0  0  0  0  0  0
   32.5470   27.9150   48.9960 C   0  0  0  0  0  0  0  0  0  0  0  0
   31.9400   27.5880   47.7780 C   0  0  0  0  0  0  0  0  0  0  0  0
   32.5370   27.9040   46.5790 C   0  0  0  0  0  0  0  0  0  0  0  0
   31.9800   27.6180   45.3450 C   0  0  0  0  0  0  0  0  0  0  0  0
   32.6190   27.9710   44.1510 C   0  0  0  0  0  0  0  0  0  0  0  0
   33.8480   28.6300   44.2170 C   0  0  0  0  0  0  0  0  0  0  0  0
   34.3920   28.9090   45.4530 C   0  0  0  0  0  0  0  0  0  0  0  0
   33.7470   28.5510   46.6010 C   0  0  0  0  0  0  0  0  0  0  0  0
   37.0970   31.5600   48.6660 C   0  0  0  0  0  0  0  0  0  0  0  0
   37.3670   32.5030   49.6960 C   0  0  0  0  0  0  0  0  0  0  0  0
   38.4500   33.3330   49.4700 C   0  0  0  0  0  0  0  0  0  0  0  0
   39.1730   33.2180   48.3360 N   0  0  0  0  0  0  0  0  0  0  0  0
   38.8960   32.3150   47.3720 C   0  0  0  0  0  0  0  0  0  0  0  0
   37.8470   31.4810   47.5470 N   0  0  0  0  0  0  0  0  0  0  0  0
   36.7240   32.5060   50.5570 H   0  0  0  0  0  0  0  0  0  0  0  0
   38.6790   34.0660   50.2450 H   0  0  0  0  0  0  0  0  0  0  0  0
   39.5030   32.2600   46.4800 H   0  0  0  0  0  0  0  0  0  0  0  0
  1  3  1  0  0  0  0
  1  4  1  1  0  0  0
  2  5  1  6  0  0  0
  2  1  1  0  0  0  0
  2  3  1  0  0  0  0
  3  6  1  0  0  0  0
  3  7  1  0  0  0  0
  8  2  1  0  0  0  0
  8  9  1  0  0  0  0
  9 11  2  0  0  0  0
  9 10  1  0  0  0  0
 12 11  1  0  0  0  0
 13 18  1  0  0  0  0
 13 12  2  0  0  0  0
 14 13  1  0  0  0  0
 15 16  1  0  0  0  0
 15 14  2  0  0  0  0
 16 17  2  0  0  0  0
 17 18  1  0  0  0  0
 18  8  2  0  0  0  0
 19  1  1  0  0  0  0
 19 20  1  0  0  0  0
 20 25  1  0  0  0  0
 21 20  2  0  0  0  0
 21 26  1  0  0  0  0
 22 21  1  0  0  0  0
 23 24  1  0  0  0  0
 23 22  2  0  0  0  0
 24 19  2  0  0  0  0
 27 23  1  0  0  0  0
M  END
>  <minimizedAffinity>
-5.31628418

>  <minimizedRMSD>
2.88954091

$$$$
