
 OpenBabel03262522493D

 27 30  0  0  0  0  0  0  0  0999 V2000
   38.7160   26.9190   32.5660 C   0  0  0  0  0  0  0  0  0  0  0  0
   39.6820   27.2070   33.4420 C   0  0  0  0  0  0  0  0  0  0  0  0
   39.7980   26.4950   34.6020 C   0  0  0  0  0  0  0  0  0  0  0  0
   38.8860   25.4970   34.7990 C   0  0  0  0  0  0  0  0  0  0  0  0
   37.8910   25.6240   33.3030 S   0  0  0  0  0  0  0  0  0  0  0  0
   40.3510   28.0450   33.1460 H   0  0  0  0  0  0  0  0  0  0  0  0
   40.6030   26.7790   35.2670 H   0  0  0  0  0  0  0  0  0  0  0  0
   38.9210   24.6610   36.0280 C   0  0  0  0  0  0  0  0  0  0  0  0
   38.0080   24.8500   37.0390 C   0  0  0  0  0  0  0  0  0  0  0  0
   37.2520   25.6120   36.9490 H   0  0  0  0  0  0  0  0  0  0  0  0
   38.0890   24.0540   38.1430 C   0  0  0  0  0  3  0  0  0  0  0  0
   39.0220   23.0600   38.3350 C   0  0  0  0  0  3  0  0  0  0  0  0
   39.9170   22.8930   37.3180 C   0  0  0  0  0  0  0  0  0  0  0  0
   40.8600   21.9040   37.4890 C   0  0  0  0  0  3  0  0  0  0  0  0
   41.8110   21.6400   36.5400 C   0  0  0  0  0  3  0  0  0  0  0  0
   41.7830   22.4230   35.3830 C   0  0  0  0  0  3  0  0  0  0  0  0
   40.8230   23.3890   35.2670 C   0  0  0  0  0  3  0  0  0  0  0  0
   39.8670   23.6810   36.1810 C   0  0  0  0  0  0  0  0  0  0  0  0
   36.9420   28.8690   30.0520 C   0  0  0  0  0  0  0  0  0  0  0  0
   37.7350   28.7110   28.9110 C   0  0  0  0  0  0  0  0  0  0  0  0
   38.8940   27.9170   29.0070 C   0  0  0  0  0  0  0  0  0  0  0  0
   39.1990   27.3330   30.2110 N   0  0  0  0  0  0  0  0  0  0  0  0
   38.3920   27.5250   31.2750 C   0  0  0  0  0  0  0  0  0  0  0  0
   37.2920   28.2690   31.2130 N   0  0  0  0  0  0  0  0  0  0  0  0
   36.0420   29.4570   30.0710 H   0  0  0  0  0  0  0  0  0  0  0  0
   37.4390   29.1990   27.9910 H   0  0  0  0  0  0  0  0  0  0  0  0
   39.5200   27.7840   28.1300 H   0  0  0  0  0  0  0  0  0  0  0  0
  1  5  1  0  0  0  0
  1  2  2  0  0  0  0
  2  3  1  0  0  0  0
  3  4  2  0  0  0  0
  3  7  1  0  0  0  0
  4  8  1  0  0  0  0
  5  4  1  0  0  0  0
  6  2  1  0  0  0  0
  8 18  2  0  0  0  0
  8  9  1  0  0  0  0
  9 11  2  0  0  0  0
 10  9  1  0  0  0  0
 11 12  1  0  0  0  0
 13 14  1  0  0  0  0
 13 12  2  0  0  0  0
 15 14  2  0  0  0  0
 16 15  1  0  0  0  0
 17 16  2  0  0  0  0
 17 18  1  0  0  0  0
 18 13  1  0  0  0  0
 19 25  1  0  0  0  0
 19 24  1  0  0  0  0
 20 21  1  0  0  0  0
 20 19  2  0  0  0  0
 21 22  2  0  0  0  0
 22 23  1  0  0  0  0
 23  1  1  0  0  0  0
 24 23  2  0  0  0  0
 26 20  1  0  0  0  0
 27 21  1  0  0  0  0
M  END
>  <minimizedAffinity>
-5.86368656

$$$$

 OpenBabel03262522493D

 27 30  0  0  0  0  0  0  0  0999 V2000
   38.4620   25.6340   35.6280 C   0  0  0  0  0  0  0  0  0  0  0  0
   38.3180   26.8940   36.0480 C   0  0  0  0  0  0  0  0  0  0  0  0
   37.7060   27.8210   35.2540 C   0  0  0  0  0  0  0  0  0  0  0  0
   37.2640   27.3860   34.0360 C   0  0  0  0  0  0  0  0  0  0  0  0
   37.7480   25.6520   34.0810 S   0  0  0  0  0  0  0  0  0  0  0  0
   38.7270   27.1010   37.0610 H   0  0  0  0  0  0  0  0  0  0  0  0
   37.6220   28.8230   35.6550 H   0  0  0  0  0  0  0  0  0  0  0  0
   36.5850   28.3130   33.0930 C   0  0  0  0  0  0  0  0  0  0  0  0
   35.4480   28.9920   33.4650 C   0  0  0  0  0  0  0  0  0  0  0  0
   35.0360   28.8580   34.4500 H   0  0  0  0  0  0  0  0  0  0  0  0
   34.8680   29.8300   32.5580 C   0  0  0  0  0  3  0  0  0  0  0  0
   35.3310   30.0560   31.2810 C   0  0  0  0  0  3  0  0  0  0  0  0
   36.4600   29.3700   30.9380 C   0  0  0  0  0  0  0  0  0  0  0  0
   36.9410   29.5820   29.6650 C   0  0  0  0  0  3  0  0  0  0  0  0
   38.0650   28.9530   29.2020 C   0  0  0  0  0  3  0  0  0  0  0  0
   38.7080   28.0800   30.0840 C   0  0  0  0  0  3  0  0  0  0  0  0
   38.1860   27.9100   31.3350 C   0  0  0  0  0  3  0  0  0  0  0  0
   37.0780   28.5120   31.8300 C   0  0  0  0  0  0  0  0  0  0  0  0
   40.7220   22.8430   36.2370 C   0  0  0  0  0  0  0  0  0  0  0  0
   40.2720   22.3310   37.4590 C   0  0  0  0  0  0  0  0  0  0  0  0
   39.1710   22.9530   38.0780 C   0  0  0  0  0  0  0  0  0  0  0  0
   38.5860   24.0310   37.4640 N   0  0  0  0  0  0  0  0  0  0  0  0
   39.0690   24.4770   36.2850 C   0  0  0  0  0  0  0  0  0  0  0  0
   40.1060   23.9090   35.6770 N   0  0  0  0  0  0  0  0  0  0  0  0
   41.5540   22.4320   35.6940 H   0  0  0  0  0  0  0  0  0  0  0  0
   40.7780   21.4780   37.8910 H   0  0  0  0  0  0  0  0  0  0  0  0
   38.8090   22.5680   39.0270 H   0  0  0  0  0  0  0  0  0  0  0  0
  1  2  2  0  0  0  0
  1 23  1  0  0  0  0
  2  6  1  0  0  0  0
  3  7  1  0  0  0  0
  3  2  1  0  0  0  0
  4  5  1  0  0  0  0
  4  3  2  0  0  0  0
  5  1  1  0  0  0  0
  8  9  1  0  0  0  0
  8  4  1  0  0  0  0
  9 10  1  0  0  0  0
 11  9  2  0  0  0  0
 12 11  1  0  0  0  0
 13 12  2  0  0  0  0
 13 18  1  0  0  0  0
 14 13  1  0  0  0  0
 15 14  2  0  0  0  0
 15 16  1  0  0  0  0
 16 17  2  0  0  0  0
 17 18  1  0  0  0  0
 18  8  2  0  0  0  0
 19 20  1  0  0  0  0
 20 26  1  0  0  0  0
 20 21  2  0  0  0  0
 21 27  1  0  0  0  0
 22 21  1  0  0  0  0
 23 22  2  0  0  0  0
 24 19  2  0  0  0  0
 24 23  1  0  0  0  0
 25 19  1  0  0  0  0
M  END
>  <minimizedAffinity>
-5.83478975

$$$$

 OpenBabel03262522493D

 27 30  0  0  0  0  0  0  0  0999 V2000
   38.2440   25.8530   35.6230 C   0  0  0  0  0  0  0  0  0  0  0  0
   38.1830   27.1450   35.9540 C   0  0  0  0  0  0  0  0  0  0  0  0
   37.6490   28.0560   35.0890 C   0  0  0  0  0  0  0  0  0  0  0  0
   37.1940   27.5710   33.8950 C   0  0  0  0  0  0  0  0  0  0  0  0
   37.5540   25.8150   34.0650 S   0  0  0  0  0  0  0  0  0  0  0  0
   38.5930   27.3920   36.9590 H   0  0  0  0  0  0  0  0  0  0  0  0
   37.6310   29.0870   35.4200 H   0  0  0  0  0  0  0  0  0  0  0  0
   36.5950   28.4770   32.8800 C   0  0  0  0  0  0  0  0  0  0  0  0
   37.1430   28.5930   31.6250 C   0  0  0  0  0  0  0  0  0  0  0  0
   38.0180   28.0240   31.3620 H   0  0  0  0  0  0  0  0  0  0  0  0
   36.5500   29.4400   30.7340 C   0  0  0  0  0  3  0  0  0  0  0  0
   35.4320   30.2010   30.9900 C   0  0  0  0  0  3  0  0  0  0  0  0
   34.9080   30.0680   32.2440 C   0  0  0  0  0  0  0  0  0  0  0  0
   33.7880   30.8200   32.5220 C   0  0  0  0  0  3  0  0  0  0  0  0
   33.1710   30.7740   33.7430 C   0  0  0  0  0  3  0  0  0  0  0  0
   33.7300   29.9240   34.7010 C   0  0  0  0  0  3  0  0  0  0  0  0
   34.8400   29.2000   34.3690 C   0  0  0  0  0  3  0  0  0  0  0  0
   35.4800   29.2180   33.1750 C   0  0  0  0  0  0  0  0  0  0  0  0
   40.2880   22.9550   36.4540 C   0  0  0  0  0  0  0  0  0  0  0  0
   39.7920   22.5650   37.7030 C   0  0  0  0  0  0  0  0  0  0  0  0
   38.7340   23.3070   38.2620 C   0  0  0  0  0  0  0  0  0  0  0  0
   38.2350   24.3780   37.5660 N   0  0  0  0  0  0  0  0  0  0  0  0
   38.7590   24.7040   36.3660 C   0  0  0  0  0  0  0  0  0  0  0  0
   39.7570   24.0210   35.8130 N   0  0  0  0  0  0  0  0  0  0  0  0
   41.0930   22.4480   35.9520 H   0  0  0  0  0  0  0  0  0  0  0  0
   40.2300   21.7090   38.2000 H   0  0  0  0  0  0  0  0  0  0  0  0
   38.3370   23.0160   39.2300 H   0  0  0  0  0  0  0  0  0  0  0  0
  1  2  2  0  0  0  0
  1 23  1  0  0  0  0
  2  6  1  0  0  0  0
  3  7  1  0  0  0  0
  3  2  1  0  0  0  0
  4  5  1  0  0  0  0
  4  3  2  0  0  0  0
  5  1  1  0  0  0  0
  8 18  1  0  0  0  0
  8  4  1  0  0  0  0
  9  8  2  0  0  0  0
 10  9  1  0  0  0  0
 11 12  2  0  0  0  0
 11  9  1  0  0  0  0
 12 13  1  0  0  0  0
 13 14  2  0  0  0  0
 13 18  1  0  0  0  0
 14 15  1  0  0  0  0
 15 16  2  0  0  0  0
 17 16  1  0  0  0  0
 18 17  2  0  0  0  0
 19 20  1  0  0  0  0
 20 26  1  0  0  0  0
 20 21  2  0  0  0  0
 21 27  1  0  0  0  0
 22 21  1  0  0  0  0
 23 22  2  0  0  0  0
 24 23  1  0  0  0  0
 24 19  2  0  0  0  0
 25 19  1  0  0  0  0
M  END
>  <minimizedAffinity>
-5.70214748

$$$$

 OpenBabel03262522493D

 27 30  0  0  0  0  0  0  0  0999 V2000
   36.5810   27.7230   32.3620 C   0  0  0  0  0  0  0  0  0  0  0  0
   36.0910   28.8630   31.8670 C   0  0  0  0  0  0  0  0  0  0  0  0
   35.6250   29.8360   32.7040 C   0  0  0  0  0  0  0  0  0  0  0  0
   35.6920   29.5730   34.0430 C   0  0  0  0  0  0  0  0  0  0  0  0
   36.4260   27.9280   34.0460 S   0  0  0  0  0  0  0  0  0  0  0  0
   36.1000   28.9350   30.7570 H   0  0  0  0  0  0  0  0  0  0  0  0
   35.2420   30.7340   32.2370 H   0  0  0  0  0  0  0  0  0  0  0  0
   35.2120   30.5640   35.0420 C   0  0  0  0  0  0  0  0  0  0  0  0
   36.0300   31.5790   35.4810 C   0  0  0  0  0  0  0  0  0  0  0  0
   37.0340   31.6650   35.1030 H   0  0  0  0  0  0  0  0  0  0  0  0
   35.5360   32.4590   36.3990 C   0  0  0  0  0  3  0  0  0  0  0  0
   34.2660   32.4170   36.9320 C   0  0  0  0  0  3  0  0  0  0  0  0
   33.4750   31.4010   36.4790 C   0  0  0  0  0  0  0  0  0  0  0  0
   32.2010   31.3400   36.9980 C   0  0  0  0  0  3  0  0  0  0  0  0
   31.3130   30.3670   36.6240 C   0  0  0  0  0  3  0  0  0  0  0  0
   31.7590   29.4340   35.6850 C   0  0  0  0  0  3  0  0  0  0  0  0
   33.0330   29.5440   35.2030 C   0  0  0  0  0  3  0  0  0  0  0  0
   33.9410   30.4880   35.5480 C   0  0  0  0  0  0  0  0  0  0  0  0
   36.8410   24.3280   31.0680 C   0  0  0  0  0  0  0  0  0  0  0  0
   38.0790   24.3320   30.4160 C   0  0  0  0  0  0  0  0  0  0  0  0
   38.8360   25.5180   30.4280 C   0  0  0  0  0  0  0  0  0  0  0  0
   38.3340   26.6190   31.0740 N   0  0  0  0  0  0  0  0  0  0  0  0
   37.1320   26.5510   31.6840 C   0  0  0  0  0  0  0  0  0  0  0  0
   36.3950   25.4440   31.6890 N   0  0  0  0  0  0  0  0  0  0  0  0
   36.1960   23.4680   31.1100 H   0  0  0  0  0  0  0  0  0  0  0  0
   38.4180   23.4290   29.9250 H   0  0  0  0  0  0  0  0  0  0  0  0
   39.7990   25.5370   29.9270 H   0  0  0  0  0  0  0  0  0  0  0  0
  1  5  1  0  0  0  0
  2  1  2  0  0  0  0
  2  3  1  0  0  0  0
  3  4  2  0  0  0  0
  4  5  1  0  0  0  0
  4  8  1  0  0  0  0
  6  2  1  0  0  0  0
  7  3  1  0  0  0  0
  8  9  2  0  0  0  0
  8 18  1  0  0  0  0
  9 11  1  0  0  0  0
 10  9  1  0  0  0  0
 11 12  2  0  0  0  0
 13 12  1  0  0  0  0
 13 14  1  0  0  0  0
 15 14  2  0  0  0  0
 16 15  1  0  0  0  0
 17 18  1  0  0  0  0
 17 16  2  0  0  0  0
 18 13  2  0  0  0  0
 19 25  1  0  0  0  0
 19 24  1  0  0  0  0
 20 21  1  0  0  0  0
 20 19  2  0  0  0  0
 21 22  2  0  0  0  0
 22 23  1  0  0  0  0
 23 24  2  0  0  0  0
 23  1  1  0  0  0  0
 26 20  1  0  0  0  0
 27 21  1  0  0  0  0
M  END
>  <minimizedAffinity>
-5.65186357

$$$$

 OpenBabel03262522493D

 27 30  0  0  0  0  0  0  0  0999 V2000
   37.2040   27.5420   34.0600 C   0  0  0  0  0  0  0  0  0  0  0  0
   37.7480   27.8720   35.2340 C   0  0  0  0  0  0  0  0  0  0  0  0
   38.3500   26.9220   36.0080 C   0  0  0  0  0  0  0  0  0  0  0  0
   38.3580   25.6470   35.5150 C   0  0  0  0  0  0  0  0  0  0  0  0
   37.4950   25.8670   33.9500 S   0  0  0  0  0  0  0  0  0  0  0  0
   37.6650   28.9480   35.5040 H   0  0  0  0  0  0  0  0  0  0  0  0
   38.7700   27.2570   36.9480 H   0  0  0  0  0  0  0  0  0  0  0  0
   38.9860   24.5370   36.2780 C   0  0  0  0  0  0  0  0  0  0  0  0
   38.3860   24.0230   37.4030 C   0  0  0  0  0  0  0  0  0  0  0  0
   37.4470   24.4230   37.7450 H   0  0  0  0  0  0  0  0  0  0  0  0
   39.0090   23.0040   38.0620 C   0  0  0  0  0  3  0  0  0  0  0  0
   40.2080   22.4370   37.6910 C   0  0  0  0  0  3  0  0  0  0  0  0
   40.7830   22.9660   36.5720 C   0  0  0  0  0  0  0  0  0  0  0  0
   41.9830   22.4140   36.1820 C   0  0  0  0  0  3  0  0  0  0  0  0
   42.6580   22.8570   35.0760 C   0  0  0  0  0  3  0  0  0  0  0  0
   42.0710   23.9010   34.3560 C   0  0  0  0  0  3  0  0  0  0  0  0
   40.8790   24.4090   34.7890 C   0  0  0  0  0  3  0  0  0  0  0  0
   40.1820   24.0000   35.8750 C   0  0  0  0  0  0  0  0  0  0  0  0
   34.7850   29.8470   32.6110 C   0  0  0  0  0  0  0  0  0  0  0  0
   35.1980   29.9430   31.2770 C   0  0  0  0  0  0  0  0  0  0  0  0
   36.3220   29.1990   30.8710 C   0  0  0  0  0  0  0  0  0  0  0  0
   36.9650   28.4130   31.7940 N   0  0  0  0  0  0  0  0  0  0  0  0
   36.5160   28.3650   33.0660 C   0  0  0  0  0  0  0  0  0  0  0  0
   35.4580   29.0560   33.4770 N   0  0  0  0  0  0  0  0  0  0  0  0
   33.9390   30.3800   33.0080 H   0  0  0  0  0  0  0  0  0  0  0  0
   34.6470   30.5820   30.5990 H   0  0  0  0  0  0  0  0  0  0  0  0
   36.6550   29.2620   29.8400 H   0  0  0  0  0  0  0  0  0  0  0  0
  1  2  2  0  0  0  0
  2  6  1  0  0  0  0
  2  3  1  0  0  0  0
  3  7  1  0  0  0  0
  4  3  2  0  0  0  0
  4  8  1  0  0  0  0
  5  1  1  0  0  0  0
  5  4  1  0  0  0  0
  8  9  1  0  0  0  0
  9 10  1  0  0  0  0
  9 11  2  0  0  0  0
 12 11  1  0  0  0  0
 13 12  2  0  0  0  0
 14 13  1  0  0  0  0
 15 14  2  0  0  0  0
 16 17  2  0  0  0  0
 16 15  1  0  0  0  0
 17 18  1  0  0  0  0
 18  8  2  0  0  0  0
 18 13  1  0  0  0  0
 19 25  1  0  0  0  0
 19 24  1  0  0  0  0
 20 19  2  0  0  0  0
 21 20  1  0  0  0  0
 21 22  2  0  0  0  0
 22 23  1  0  0  0  0
 23 24  2  0  0  0  0
 23  1  1  0  0  0  0
 26 20  1  0  0  0  0
 27 21  1  0  0  0  0
M  END
>  <minimizedAffinity>
-5.59903622

$$$$

 OpenBabel03262522493D

 27 30  0  0  0  0  0  0  0  0999 V2000
   36.6280   28.7970   31.9660 C   0  0  0  0  0  0  0  0  0  0  0  0
   36.7260   28.2170   33.1650 C   0  0  0  0  0  0  0  0  0  0  0  0
   35.8660   28.5570   34.1700 C   0  0  0  0  0  0  0  0  0  0  0  0
   34.9270   29.5050   33.8750 C   0  0  0  0  0  0  0  0  0  0  0  0
   35.3190   29.8710   32.1560 S   0  0  0  0  0  0  0  0  0  0  0  0
   37.5390   27.4630   33.2570 H   0  0  0  0  0  0  0  0  0  0  0  0
   36.0000   28.0480   35.1150 H   0  0  0  0  0  0  0  0  0  0  0  0
   33.9430   29.9500   34.8960 C   0  0  0  0  0  0  0  0  0  0  0  0
   32.7870   29.2390   35.1210 C   0  0  0  0  0  0  0  0  0  0  0  0
   32.5820   28.3470   34.5540 H   0  0  0  0  0  0  0  0  0  0  0  0
   31.9200   29.6950   36.0700 C   0  0  0  0  0  3  0  0  0  0  0  0
   32.1070   30.8240   36.8360 C   0  0  0  0  0  3  0  0  0  0  0  0
   33.2620   31.5110   36.5930 C   0  0  0  0  0  0  0  0  0  0  0  0
   33.4700   32.6440   37.3480 C   0  0  0  0  0  3  0  0  0  0  0  0
   34.5890   33.4180   37.1980 C   0  0  0  0  0  3  0  0  0  0  0  0
   35.5180   33.0040   36.2390 C   0  0  0  0  0  3  0  0  0  0  0  0
   35.2600   31.8710   35.5200 C   0  0  0  0  0  3  0  0  0  0  0  0
   34.1670   31.0800   35.6380 C   0  0  0  0  0  0  0  0  0  0  0  0
   37.7200   29.1440   28.5080 C   0  0  0  0  0  0  0  0  0  0  0  0
   38.8480   28.3180   28.4480 C   0  0  0  0  0  0  0  0  0  0  0  0
   39.2340   27.6280   29.6130 C   0  0  0  0  0  0  0  0  0  0  0  0
   38.4940   27.7920   30.7560 N   0  0  0  0  0  0  0  0  0  0  0  0
   37.4160   28.6040   30.7490 C   0  0  0  0  0  0  0  0  0  0  0  0
   37.0280   29.2680   29.6640 N   0  0  0  0  0  0  0  0  0  0  0  0
   37.3530   29.7070   27.6690 H   0  0  0  0  0  0  0  0  0  0  0  0
   39.3890   28.2320   27.5140 H   0  0  0  0  0  0  0  0  0  0  0  0
   40.1060   26.9830   29.5820 H   0  0  0  0  0  0  0  0  0  0  0  0
  1  5  1  0  0  0  0
  1  2  2  0  0  0  0
  2  6  1  0  0  0  0
  2  3  1  0  0  0  0
  3  7  1  0  0  0  0
  4  3  2  0  0  0  0
  4  8  1  0  0  0  0
  5  4  1  0  0  0  0
  8  9  2  0  0  0  0
  8 18  1  0  0  0  0
  9 11  1  0  0  0  0
 10  9  1  0  0  0  0
 11 12  2  0  0  0  0
 13 12  1  0  0  0  0
 13 14  1  0  0  0  0
 15 14  2  0  0  0  0
 16 15  1  0  0  0  0
 17 18  1  0  0  0  0
 17 16  2  0  0  0  0
 18 13  2  0  0  0  0
 19 24  1  0  0  0  0
 20 19  2  0  0  0  0
 20 21  1  0  0  0  0
 21 22  2  0  0  0  0
 23 22  1  0  0  0  0
 23  1  1  0  0  0  0
 24 23  2  0  0  0  0
 25 19  1  0  0  0  0
 26 20  1  0  0  0  0
 27 21  1  0  0  0  0
M  END
>  <minimizedAffinity>
-5.58069277

$$$$

 OpenBabel03262522493D

 27 30  0  0  0  0  0  0  0  0999 V2000
   38.3270   25.1420   34.8440 C   0  0  0  0  0  0  0  0  0  0  0  0
   37.8480   24.6930   33.6810 C   0  0  0  0  0  0  0  0  0  0  0  0
   37.6390   25.5520   32.6410 C   0  0  0  0  0  0  0  0  0  0  0  0
   37.9440   26.8650   32.8630 C   0  0  0  0  0  0  0  0  0  0  0  0
   38.5210   26.8120   34.5680 S   0  0  0  0  0  0  0  0  0  0  0  0
   37.6470   23.5990   33.6480 H   0  0  0  0  0  0  0  0  0  0  0  0
   37.2500   25.1220   31.7270 H   0  0  0  0  0  0  0  0  0  0  0  0
   37.7530   27.8850   31.7990 C   0  0  0  0  0  0  0  0  0  0  0  0
   38.6090   27.9550   30.7250 C   0  0  0  0  0  0  0  0  0  0  0  0
   39.4320   27.2650   30.6440 H   0  0  0  0  0  0  0  0  0  0  0  0
   38.3860   28.9120   29.7780 C   0  0  0  0  0  3  0  0  0  0  0  0
   37.3590   29.8290   29.8080 C   0  0  0  0  0  3  0  0  0  0  0  0
   36.5240   29.7390   30.8840 C   0  0  0  0  0  0  0  0  0  0  0  0
   35.4900   30.6460   30.9340 C   0  0  0  0  0  3  0  0  0  0  0  0
   34.5860   30.6580   31.9630 C   0  0  0  0  0  3  0  0  0  0  0  0
   34.7610   29.7010   32.9660 C   0  0  0  0  0  3  0  0  0  0  0  0
   35.8040   28.8250   32.8640 C   0  0  0  0  0  3  0  0  0  0  0  0
   36.7180   28.7810   31.8650 C   0  0  0  0  0  0  0  0  0  0  0  0
   38.0830   24.0520   38.3110 C   0  0  0  0  0  0  0  0  0  0  0  0
   39.1250   23.1260   38.4260 C   0  0  0  0  0  0  0  0  0  0  0  0
   39.9270   22.8790   37.2950 C   0  0  0  0  0  0  0  0  0  0  0  0
   39.6560   23.5510   36.1310 N   0  0  0  0  0  0  0  0  0  0  0  0
   38.6340   24.4320   36.0850 C   0  0  0  0  0  0  0  0  0  0  0  0
   37.8610   24.6850   37.1360 N   0  0  0  0  0  0  0  0  0  0  0  0
   37.4210   24.3020   39.1210 H   0  0  0  0  0  0  0  0  0  0  0  0
   39.2870   22.6290   39.3740 H   0  0  0  0  0  0  0  0  0  0  0  0
   40.7400   22.1640   37.3690 H   0  0  0  0  0  0  0  0  0  0  0  0
  1 23  1  0  0  0  0
  2  1  2  0  0  0  0
  3  4  2  0  0  0  0
  3  2  1  0  0  0  0
  4  5  1  0  0  0  0
  5  1  1  0  0  0  0
  6  2  1  0  0  0  0
  7  3  1  0  0  0  0
  8 18  1  0  0  0  0
  8  4  1  0  0  0  0
  9  8  2  0  0  0  0
 10  9  1  0  0  0  0
 11 12  2  0  0  0  0
 11  9  1  0  0  0  0
 12 13  1  0  0  0  0
 13 14  2  0  0  0  0
 13 18  1  0  0  0  0
 14 15  1  0  0  0  0
 15 16  2  0  0  0  0
 17 16  1  0  0  0  0
 18 17  2  0  0  0  0
 19 20  1  0  0  0  0
 19 25  1  0  0  0  0
 20 26  1  0  0  0  0
 21 27  1  0  0  0  0
 21 20  2  0  0  0  0
 22 21  1  0  0  0  0
 23 22  2  0  0  0  0
 23 24  1  0  0  0  0
 24 19  2  0  0  0  0
M  END
>  <minimizedAffinity>
-5.52669859

$$$$

 OpenBabel03262522493D

 27 30  0  0  0  0  0  0  0  0999 V2000
   37.0160   27.0880   32.6360 C   0  0  0  0  0  0  0  0  0  0  0  0
   36.7750   25.7960   32.3990 C   0  0  0  0  0  0  0  0  0  0  0  0
   37.5170   24.8300   33.0150 C   0  0  0  0  0  0  0  0  0  0  0  0
   38.4970   25.2610   33.8650 C   0  0  0  0  0  0  0  0  0  0  0  0
   38.3100   27.0480   33.7440 S   0  0  0  0  0  0  0  0  0  0  0  0
   35.9460   25.5970   31.6840 H   0  0  0  0  0  0  0  0  0  0  0  0
   37.2690   23.8040   32.7780 H   0  0  0  0  0  0  0  0  0  0  0  0
   39.3640   24.2930   34.5860 C   0  0  0  0  0  0  0  0  0  0  0  0
   40.3950   23.6510   33.9410 C   0  0  0  0  0  0  0  0  0  0  0  0
   40.5850   23.8450   32.9000 H   0  0  0  0  0  0  0  0  0  0  0  0
   41.1580   22.7720   34.6540 C   0  0  0  0  0  3  0  0  0  0  0  0
   40.9800   22.4690   35.9850 C   0  0  0  0  0  3  0  0  0  0  0  0
   39.9500   23.1190   36.6010 C   0  0  0  0  0  0  0  0  0  0  0  0
   39.7540   22.8310   37.9330 C   0  0  0  0  0  3  0  0  0  0  0  0
   38.7540   23.4190   38.6610 C   0  0  0  0  0  3  0  0  0  0  0  0
   37.9360   24.3300   37.9880 C   0  0  0  0  0  3  0  0  0  0  0  0
   38.1780   24.5780   36.6660 C   0  0  0  0  0  3  0  0  0  0  0  0
   39.1540   24.0180   35.9120 C   0  0  0  0  0  0  0  0  0  0  0  0
   34.6230   29.8140   32.3000 C   0  0  0  0  0  0  0  0  0  0  0  0
   35.1170   30.5360   31.2080 C   0  0  0  0  0  0  0  0  0  0  0  0
   36.2870   30.0740   30.5760 C   0  0  0  0  0  0  0  0  0  0  0  0
   36.8950   28.9400   31.0520 N   0  0  0  0  0  0  0  0  0  0  0  0
   36.3680   28.2890   32.1110 C   0  0  0  0  0  0  0  0  0  0  0  0
   35.2650   28.7020   32.7270 N   0  0  0  0  0  0  0  0  0  0  0  0
   33.7370   30.0930   32.8420 H   0  0  0  0  0  0  0  0  0  0  0  0
   34.5900   31.4230   30.8810 H   0  0  0  0  0  0  0  0  0  0  0  0
   36.6820   30.6230   29.7270 H   0  0  0  0  0  0  0  0  0  0  0  0
  1  5  1  0  0  0  0
  2  1  2  0  0  0  0
  2  3  1  0  0  0  0
  3  4  2  0  0  0  0
  4  8  1  0  0  0  0
  5  4  1  0  0  0  0
  6  2  1  0  0  0  0
  7  3  1  0  0  0  0
  8 18  1  0  0  0  0
  9  8  2  0  0  0  0
  9 11  1  0  0  0  0
 10  9  1  0  0  0  0
 11 12  2  0  0  0  0
 12 13  1  0  0  0  0
 13 14  1  0  0  0  0
 14 15  2  0  0  0  0
 16 15  1  0  0  0  0
 17 16  2  0  0  0  0
 18 13  2  0  0  0  0
 18 17  1  0  0  0  0
 19 24  1  0  0  0  0
 19 25  1  0  0  0  0
 20 19  2  0  0  0  0
 21 22  2  0  0  0  0
 21 20  1  0  0  0  0
 22 23  1  0  0  0  0
 23  1  1  0  0  0  0
 23 24  2  0  0  0  0
 26 20  1  0  0  0  0
 27 21  1  0  0  0  0
M  END
>  <minimizedAffinity>
-5.51833057

$$$$

 OpenBabel03262522493D

 27 30  0  0  0  0  0  0  0  0999 V2000
   39.9600   25.0260   34.8100 C   0  0  0  0  0  0  0  0  0  0  0  0
   40.4770   26.2420   34.6150 C   0  0  0  0  0  0  0  0  0  0  0  0
   39.8870   27.1110   33.7430 C   0  0  0  0  0  0  0  0  0  0  0  0
   38.7660   26.6670   33.1020 C   0  0  0  0  0  0  0  0  0  0  0  0
   38.6020   25.0070   33.7810 S   0  0  0  0  0  0  0  0  0  0  0  0
   41.3920   26.4630   35.2070 H   0  0  0  0  0  0  0  0  0  0  0  0
   40.3570   28.0800   33.6320 H   0  0  0  0  0  0  0  0  0  0  0  0
   38.0460   27.5330   32.1310 C   0  0  0  0  0  0  0  0  0  0  0  0
   38.4480   27.6090   30.8180 C   0  0  0  0  0  0  0  0  0  0  0  0
   39.2940   27.0370   30.4780 H   0  0  0  0  0  0  0  0  0  0  0  0
   37.7490   28.4210   29.9730 C   0  0  0  0  0  3  0  0  0  0  0  0
   36.6590   29.1830   30.3280 C   0  0  0  0  0  3  0  0  0  0  0  0
   36.2810   29.0890   31.6360 C   0  0  0  0  0  0  0  0  0  0  0  0
   35.1920   29.8430   32.0140 C   0  0  0  0  0  3  0  0  0  0  0  0
   34.7170   29.8350   33.2980 C   0  0  0  0  0  3  0  0  0  0  0  0
   35.3890   29.0230   34.2140 C   0  0  0  0  0  3  0  0  0  0  0  0
   36.4630   28.2960   33.7830 C   0  0  0  0  0  3  0  0  0  0  0  0
   36.9640   28.2760   32.5250 C   0  0  0  0  0  0  0  0  0  0  0  0
   39.9090   22.5470   37.4790 C   0  0  0  0  0  0  0  0  0  0  0  0
   41.1330   21.8870   37.3220 C   0  0  0  0  0  0  0  0  0  0  0  0
   41.9890   22.3060   36.2860 C   0  0  0  0  0  0  0  0  0  0  0  0
   41.5930   23.3390   35.4750 N   0  0  0  0  0  0  0  0  0  0  0  0
   40.3990   23.9340   35.6790 C   0  0  0  0  0  0  0  0  0  0  0  0
   39.5700   23.5600   36.6490 N   0  0  0  0  0  0  0  0  0  0  0  0
   39.1940   22.2950   38.2420 H   0  0  0  0  0  0  0  0  0  0  0  0
   41.3860   21.0790   37.9960 H   0  0  0  0  0  0  0  0  0  0  0  0
   42.9420   21.8040   36.1510 H   0  0  0  0  0  0  0  0  0  0  0  0
  1 23  1  0  0  0  0
  2  1  2  0  0  0  0
  2  6  1  0  0  0  0
  3  2  1  0  0  0  0
  4  3  2  0  0  0  0
  4  5  1  0  0  0  0
  5  1  1  0  0  0  0
  7  3  1  0  0  0  0
  8 18  1  0  0  0  0
  8  4  1  0  0  0  0
  9  8  2  0  0  0  0
 10  9  1  0  0  0  0
 11 12  2  0  0  0  0
 11  9  1  0  0  0  0
 12 13  1  0  0  0  0
 13 14  2  0  0  0  0
 13 18  1  0  0  0  0
 14 15  1  0  0  0  0
 15 16  2  0  0  0  0
 17 16  1  0  0  0  0
 18 17  2  0  0  0  0
 19 25  1  0  0  0  0
 20 19  1  0  0  0  0
 20 26  1  0  0  0  0
 21 20  2  0  0  0  0
 22 23  2  0  0  0  0
 22 21  1  0  0  0  0
 23 24  1  0  0  0  0
 24 19  2  0  0  0  0
 27 21  1  0  0  0  0
M  END
>  <minimizedAffinity>
-5.5066762

$$$$
