
 OpenBabel03272509473D

 27 29  0  0  0  0  0  0  0  0999 V2000
   32.8580   27.7870   48.6830 C   0  0  0  0  0  0  0  0  0  0  0  0
   33.0270   26.8710   49.2700 H   0  0  0  0  0  0  0  0  0  0  0  0
   31.8820   28.1960   49.0790 H   0  0  0  0  0  0  0  0  0  0  0  0
   32.7260   27.5090   47.2390 C   0  0  0  0  0  0  0  0  0  0  0  0
   33.7660   26.8320   46.6150 C   0  0  0  0  0  0  0  0  0  0  0  0
   34.6240   26.5170   47.1990 H   0  0  0  0  0  0  0  0  0  0  0  0
   33.8330   26.5020   45.2820 C   0  0  0  0  0  3  0  0  0  0  0  0
   32.7400   26.8960   44.5020 C   0  0  0  0  0  3  0  0  0  0  0  0
   31.6820   27.5710   45.0800 C   0  0  0  0  0  0  0  0  0  0  0  0
   30.5770   27.9790   44.3620 C   0  0  0  0  0  3  0  0  0  0  0  0
   29.5010   28.6520   44.9090 C   0  0  0  0  0  3  0  0  0  0  0  0
   29.5580   28.9180   46.2500 C   0  0  0  0  0  3  0  0  0  0  0  0
   30.6250   28.5410   47.0200 C   0  0  0  0  0  3  0  0  0  0  0  0
   31.6720   27.8760   46.4320 C   0  0  0  0  0  0  0  0  0  0  0  0
   33.9040   28.8220   48.9290 C   0  0  0  0  0  0  0  0  0  0  0  0
   33.5150   29.6800   49.4670 H   0  0  0  0  0  0  0  0  0  0  0  0
   34.2100   29.2130   47.9200 H   0  0  0  0  0  0  0  0  0  0  0  0
   35.0280   28.2600   49.5790 O   0  0  0  0  0  0  0  0  0  0  0  0
   37.4320   30.3050   51.3830 C   0  0  0  0  0  0  0  0  0  0  0  0
   38.1430   30.8430   50.3140 C   0  0  0  0  0  0  0  0  0  0  0  0
   37.7730   30.4850   49.0190 C   0  0  0  0  0  0  0  0  0  0  0  0
   36.7160   29.6150   48.9080 N   0  0  0  0  0  0  0  0  0  0  0  0
   36.0540   29.1160   49.9510 C   0  0  0  0  0  0  0  0  0  0  0  0
   36.4170   29.4660   51.1940 N   0  0  0  0  0  0  0  0  0  0  0  0
   37.7600   30.6140   52.3580 H   0  0  0  0  0  0  0  0  0  0  0  0
   38.9820   31.5310   50.3540 H   0  0  0  0  0  0  0  0  0  0  0  0
   38.2570   30.8440   48.1070 H   0  0  0  0  0  0  0  0  0  0  0  0
  1 15  1  0  0  0  0
  1  3  1  0  0  0  0
  1  2  1  0  0  0  0
  4  1  1  0  0  0  0
  5  6  1  0  0  0  0
  5  4  1  0  0  0  0
  7  5  2  0  0  0  0
  8  9  2  0  0  0  0
  8  7  1  0  0  0  0
  9 14  1  0  0  0  0
 10 11  2  0  0  0  0
 10  9  1  0  0  0  0
 11 12  1  0  0  0  0
 12 13  2  0  0  0  0
 14 13  1  0  0  0  0
 14  4  2  0  0  0  0
 15 16  1  0  0  0  0
 15 18  1  0  0  0  0
 17 15  1  0  0  0  0
 18 23  1  0  0  0  0
 19 25  1  0  0  0  0
 20 26  1  0  0  0  0
 20 19  2  0  0  0  0
 21 20  1  0  0  0  0
 22 21  2  0  0  0  0
 22 23  1  0  0  0  0
 23 24  2  0  0  0  0
 24 19  1  0  0  0  0
 27 21  1  0  0  0  0
M  END
>  <minimizedAffinity>
-4.27042437

>  <minimizedRMSD>
1.14037395

$$$$
