
 OpenBabel03272500033D

 30 33  0  0  0  0  0  0  0  0999 V2000
   36.2460   29.4180   49.3150 C   0  0  0  0  0  0  0  0  0  0  0  0
   36.2610   30.4310   48.3400 C   0  0  0  0  0  0  0  0  0  0  0  0
   35.3730   30.3090   47.2880 C   0  0  0  0  0  0  0  0  0  0  0  0
   34.5510   29.2170   47.2720 N   0  0  0  0  0  0  0  0  0  0  0  0
   34.5510   28.2710   48.1990 C   0  0  0  0  0  0  0  0  0  0  0  0
   35.3970   28.3760   49.2130 N   0  0  0  0  0  0  0  0  0  0  0  0
   36.9050   29.4320   50.1720 H   0  0  0  0  0  0  0  0  0  0  0  0
   35.3720   31.0730   46.5370 H   0  0  0  0  0  0  0  0  0  0  0  0
   37.1910   31.5020   48.4980 N   0  0  0  0  0  0  0  0  0  0  0  0
   37.2230   32.2560   49.6010 C   0  0  0  0  0  0  0  0  0  0  0  0
   38.1540   33.2890   49.6980 C   0  0  0  0  0  0  0  0  0  0  0  0
   38.9730   33.4270   48.6060 C   0  0  0  0  0  0  0  0  0  0  0  0
   39.8280   34.3740   48.6930 O   0  0  0  0  0  0  0  0  0  0  0  0
   38.9710   32.6840   47.4730 N   0  0  0  0  0  0  0  0  0  0  0  0
   38.0400   31.7050   47.4560 C   0  0  0  0  0  0  0  0  0  0  0  0
   38.0200   30.9930   46.4020 O   0  0  0  0  0  0  0  0  0  0  0  0
   36.5290   32.0620   50.4080 H   0  0  0  0  0  0  0  0  0  0  0  0
   38.2260   33.9210   50.5490 H   0  0  0  0  0  0  0  0  0  0  0  0
   39.6240   32.8580   46.7000 H   0  0  0  0  0  0  0  0  0  0  0  0
   33.5600   27.2470   47.8890 C   0  0  0  0  0  0  0  0  0  0  0  0
   33.8150   26.1870   47.0630 C   0  0  0  0  0  0  0  0  0  0  0  0
   34.8010   26.0620   46.5880 H   0  0  0  0  0  0  0  0  0  0  0  0
   32.9180   25.1940   46.7380 C   0  0  0  0  0  0  0  0  0  0  0  0
   31.6480   25.2270   47.2630 C   0  0  0  0  0  0  0  0  0  0  0  0
   31.3240   26.2670   48.1030 C   0  0  0  0  0  0  0  0  0  0  0  0
   30.0450   26.2740   48.6130 C   0  0  0  0  0  0  0  0  0  0  0  0
   29.6460   27.2840   49.4630 C   0  0  0  0  0  0  0  0  0  0  0  0
   30.5760   28.2580   49.7610 C   0  0  0  0  0  0  0  0  0  0  0  0
   31.8440   28.2100   49.2270 C   0  0  0  0  0  0  0  0  0  0  0  0
   32.2750   27.2200   48.3790 C   0  0  0  0  0  0  0  0  0  0  0  0
  1  7  1  0  0  0  0
  2  9  1  0  0  0  0
  2  1  2  0  0  0  0
  3  2  1  0  0  0  0
  4  3  2  0  0  0  0
  4  5  1  0  0  0  0
  5  6  2  0  0  0  0
  6  1  1  0  0  0  0
  8  3  1  0  0  0  0
  9 10  1  0  0  0  0
 10 11  2  0  0  0  0
 10 17  1  0  0  0  0
 11 18  1  0  0  0  0
 12 13  2  0  0  0  0
 12 11  1  0  0  0  0
 14 12  1  0  0  0  0
 15 14  1  0  0  0  0
 15  9  1  0  0  0  0
 16 15  2  0  0  0  0
 19 14  1  0  0  0  0
 20  5  1  0  0  0  0
 20 30  1  0  0  0  0
 21 20  2  0  0  0  0
 22 21  1  0  0  0  0
 23 21  1  0  0  0  0
 23 24  2  0  0  0  0
 24 25  1  0  0  0  0
 25 30  2  0  0  0  0
 25 26  1  0  0  0  0
 26 27  2  0  0  0  0
 27 28  1  0  0  0  0
 29 28  2  0  0  0  0
 30 29  1  0  0  0  0
M  END
>  <minimizedAffinity>
-6.23407078

>  <minimizedRMSD>
1.76272643

$$$$
