
 OpenBabel03272507153D

 42 47  0  0  0  0  0  0  0  0999 V2000
   36.7280   25.8890   31.9280 C   0  0  0  0  0  0  0  0  0  0  0  0
   35.5350   25.9560   31.2730 C   0  0  0  0  0  0  0  0  0  0  0  0
   35.0960   24.6400   31.0870 C   0  0  0  0  0  0  0  0  0  0  0  0
   36.0950   23.8340   31.6670 C   0  0  0  0  0  0  0  0  0  0  0  0
   37.0040   24.6340   32.1310 O   0  0  0  0  0  0  0  0  0  0  0  0
   34.9730   26.8370   30.9300 H   0  0  0  0  0  0  0  0  0  0  0  0
   34.1740   24.3940   30.5930 H   0  0  0  0  0  0  0  0  0  0  0  0
   35.0320   21.6890   32.3450 C   0  0  0  0  0  0  0  0  0  0  0  0
   36.0160   22.3780   31.6840 C   0  0  0  0  0  0  0  0  0  0  0  0
   37.0110   21.7130   30.9800 C   0  0  0  0  0  0  0  0  0  0  0  0
   36.9830   20.3260   30.9630 C   0  0  0  0  0  0  0  0  0  0  0  0
   37.8020   19.4370   30.3740 N   0  0  0  0  0  0  0  0  0  0  0  0
   37.3280   18.2230   30.6690 N   0  0  0  0  0  0  0  0  0  0  0  0
   36.2230   18.3430   31.4350 C   0  0  0  0  0  0  0  0  0  0  0  0
   35.9610   19.6830   31.6530 C   0  0  0  0  0  0  0  0  0  0  0  0
   34.9720   20.3340   32.3520 C   0  0  0  0  0  0  0  0  0  0  0  0
   34.2850   22.2680   32.8760 H   0  0  0  0  0  0  0  0  0  0  0  0
   37.8310   22.1850   30.4260 H   0  0  0  0  0  0  0  0  0  0  0  0
   38.6440   19.6370   29.7970 H   0  0  0  0  0  0  0  0  0  0  0  0
   35.6240   17.5080   31.8270 H   0  0  0  0  0  0  0  0  0  0  0  0
   34.2090   19.7600   32.8640 H   0  0  0  0  0  0  0  0  0  0  0  0
   37.4610   27.0840   32.2800 C   0  0  0  0  0  0  0  0  0  0  0  0
   38.7040   26.9980   32.4940 O   0  0  0  0  0  0  0  0  0  0  0  0
   36.7300   28.3200   32.3670 C   0  0  0  0  0  0  0  0  0  0  0  0
   36.5090   29.0340   31.2130 C   0  0  0  0  0  0  0  0  0  0  0  0
   35.7930   30.2150   31.2640 C   0  0  0  0  0  0  0  0  0  0  0  0
   35.3390   30.6040   32.5020 N   0  0  0  0  0  0  0  0  0  0  0  0
   35.5500   29.9200   33.6150 C   0  0  0  0  0  0  0  0  0  0  0  0
   36.2480   28.7890   33.5020 N   0  0  0  0  0  0  0  0  0  0  0  0
   36.8930   28.6720   30.2780 H   0  0  0  0  0  0  0  0  0  0  0  0
   35.6090   30.7840   30.3850 H   0  0  0  0  0  0  0  0  0  0  0  0
   34.9600   30.5550   34.7790 C   0  0  0  0  0  0  0  0  0  0  0  0
   35.6670   31.4780   35.5170 C   0  0  0  0  0  0  0  0  0  0  0  0
   36.6800   31.7720   35.2730 H   0  0  0  0  0  0  0  0  0  0  0  0
   35.1680   32.1140   36.6260 C   0  0  0  0  0  3  0  0  0  0  0  0
   33.8960   31.8590   37.0770 C   0  0  0  0  0  3  0  0  0  0  0  0
   33.1440   30.9460   36.3780 C   0  0  0  0  0  0  0  0  0  0  0  0
   31.8650   30.6760   36.8150 C   0  0  0  0  0  3  0  0  0  0  0  0
   31.0590   29.7710   36.1580 C   0  0  0  0  0  3  0  0  0  0  0  0
   31.5920   29.1390   35.0360 C   0  0  0  0  0  3  0  0  0  0  0  0
   32.8750   29.4450   34.6420 C   0  0  0  0  0  3  0  0  0  0  0  0
   33.6970   30.3420   35.2760 C   0  0  0  0  0  0  0  0  0  0  0  0
  1  5  1  0  0  0  0
  1 22  1  0  0  0  0
  2  1  2  0  0  0  0
  3  2  1  0  0  0  0
  3  4  2  0  0  0  0
  4  9  1  0  0  0  0
  4  5  1  0  0  0  0
  6  2  1  0  0  0  0
  7  3  1  0  0  0  0
  8 16  1  0  0  0  0
  8 17  1  0  0  0  0
  9  8  2  0  0  0  0
 10  9  1  0  0  0  0
 11 10  2  0  0  0  0
 11 15  1  0  0  0  0
 12 13  1  0  0  0  0
 12 11  1  0  0  0  0
 13 14  2  0  0  0  0
 14 15  1  0  0  0  0
 14 20  1  0  0  0  0
 15 16  2  0  0  0  0
 16 21  1  0  0  0  0
 18 10  1  0  0  0  0
 19 12  1  0  0  0  0
 22 24  1  0  0  0  0
 22 23  2  0  0  0  0
 24 29  1  0  0  0  0
 25 26  1  0  0  0  0
 25 24  2  0  0  0  0
 26 27  2  0  0  0  0
 27 28  1  0  0  0  0
 28 32  1  0  0  0  0
 29 28  2  0  0  0  0
 30 25  1  0  0  0  0
 31 26  1  0  0  0  0
 32 42  2  0  0  0  0
 32 33  1  0  0  0  0
 33 35  2  0  0  0  0
 34 33  1  0  0  0  0
 35 36  1  0  0  0  0
 37 38  1  0  0  0  0
 37 36  2  0  0  0  0
 39 38  2  0  0  0  0
 40 39  1  0  0  0  0
 41 40  2  0  0  0  0
 41 42  1  0  0  0  0
 42 37  1  0  0  0  0
M  END
>  <minimizedAffinity>
-7.91098213

$$$$

 OpenBabel03272507153D

 42 47  0  0  0  0  0  0  0  0999 V2000
   37.2000   27.9410   32.1510 C   0  0  0  0  0  0  0  0  0  0  0  0
   36.8180   28.8710   31.2320 C   0  0  0  0  0  0  0  0  0  0  0  0
   35.9250   29.7370   31.8730 C   0  0  0  0  0  0  0  0  0  0  0  0
   35.8250   29.2510   33.1910 C   0  0  0  0  0  0  0  0  0  0  0  0
   36.5940   28.2100   33.2690 O   0  0  0  0  0  0  0  0  0  0  0  0
   37.1150   28.9770   30.1780 H   0  0  0  0  0  0  0  0  0  0  0  0
   35.4620   30.5720   31.3800 H   0  0  0  0  0  0  0  0  0  0  0  0
   33.6490   29.5910   34.3480 C   0  0  0  0  0  0  0  0  0  0  0  0
   34.9800   29.8840   34.1970 C   0  0  0  0  0  0  0  0  0  0  0  0
   35.6070   30.8170   35.0100 C   0  0  0  0  0  0  0  0  0  0  0  0
   34.8500   31.4490   35.9850 C   0  0  0  0  0  0  0  0  0  0  0  0
   35.1880   32.3770   36.8980 N   0  0  0  0  0  0  0  0  0  0  0  0
   34.0830   32.6490   37.5980 N   0  0  0  0  0  0  0  0  0  0  0  0
   33.0580   31.9020   37.1330 C   0  0  0  0  0  0  0  0  0  0  0  0
   33.5050   31.1110   36.0910 C   0  0  0  0  0  0  0  0  0  0  0  0
   32.8760   30.1880   35.2900 C   0  0  0  0  0  0  0  0  0  0  0  0
   33.2190   28.8530   33.6820 H   0  0  0  0  0  0  0  0  0  0  0  0
   36.6640   31.1090   34.9560 H   0  0  0  0  0  0  0  0  0  0  0  0
   36.1220   32.8100   37.0450 H   0  0  0  0  0  0  0  0  0  0  0  0
   32.0290   31.9190   37.5210 H   0  0  0  0  0  0  0  0  0  0  0  0
   31.8220   29.9800   35.4350 H   0  0  0  0  0  0  0  0  0  0  0  0
   38.1300   26.8860   31.8130 C   0  0  0  0  0  0  0  0  0  0  0  0
   39.0400   27.1210   30.9690 O   0  0  0  0  0  0  0  0  0  0  0  0
   37.9660   25.6130   32.4630 C   0  0  0  0  0  0  0  0  0  0  0  0
   37.4260   24.5740   31.7420 C   0  0  0  0  0  0  0  0  0  0  0  0
   37.2760   23.3340   32.3340 C   0  0  0  0  0  0  0  0  0  0  0  0
   37.6890   23.2250   33.6400 N   0  0  0  0  0  0  0  0  0  0  0  0
   38.2090   24.2220   34.3380 C   0  0  0  0  0  0  0  0  0  0  0  0
   38.3280   25.3940   33.7120 N   0  0  0  0  0  0  0  0  0  0  0  0
   37.1240   24.7290   30.7230 H   0  0  0  0  0  0  0  0  0  0  0  0
   36.8610   22.5150   31.7980 H   0  0  0  0  0  0  0  0  0  0  0  0
   38.5590   23.8320   35.6910 C   0  0  0  0  0  0  0  0  0  0  0  0
   37.7810   24.2120   36.7620 C   0  0  0  0  0  0  0  0  0  0  0  0
   36.8860   24.8110   36.6530 H   0  0  0  0  0  0  0  0  0  0  0  0
   38.0580   23.8770   38.0640 C   0  0  0  0  0  3  0  0  0  0  0  0
   39.1590   23.1200   38.3830 C   0  0  0  0  0  3  0  0  0  0  0  0
   39.9710   22.7120   37.3530 C   0  0  0  0  0  0  0  0  0  0  0  0
   41.0800   21.9520   37.6530 C   0  0  0  0  0  3  0  0  0  0  0  0
   41.9350   21.5100   36.6660 C   0  0  0  0  0  3  0  0  0  0  0  0
   41.6310   21.8660   35.3520 C   0  0  0  0  0  3  0  0  0  0  0  0
   40.5110   22.6270   35.1080 C   0  0  0  0  0  3  0  0  0  0  0  0
   39.6430   23.0780   36.0710 C   0  0  0  0  0  0  0  0  0  0  0  0
  1  5  1  0  0  0  0
  2  3  1  0  0  0  0
  2  1  2  0  0  0  0
  3  4  2  0  0  0  0
  4  5  1  0  0  0  0
  4  9  1  0  0  0  0
  6  2  1  0  0  0  0
  7  3  1  0  0  0  0
  8 16  1  0  0  0  0
  9  8  2  0  0  0  0
  9 10  1  0  0  0  0
 10 11  2  0  0  0  0
 11 15  1  0  0  0  0
 11 12  1  0  0  0  0
 12 19  1  0  0  0  0
 12 13  1  0  0  0  0
 14 20  1  0  0  0  0
 14 13  2  0  0  0  0
 15 14  1  0  0  0  0
 16 21  1  0  0  0  0
 16 15  2  0  0  0  0
 17  8  1  0  0  0  0
 18 10  1  0  0  0  0
 22  1  1  0  0  0  0
 22 24  1  0  0  0  0
 23 22  2  0  0  0  0
 24 29  1  0  0  0  0
 25 26  1  0  0  0  0
 25 24  2  0  0  0  0
 26 27  2  0  0  0  0
 27 28  1  0  0  0  0
 28 32  1  0  0  0  0
 29 28  2  0  0  0  0
 30 25  1  0  0  0  0
 31 26  1  0  0  0  0
 32 42  2  0  0  0  0
 32 33  1  0  0  0  0
 33 35  2  0  0  0  0
 34 33  1  0  0  0  0
 35 36  1  0  0  0  0
 37 38  1  0  0  0  0
 37 36  2  0  0  0  0
 39 38  2  0  0  0  0
 40 39  1  0  0  0  0
 41 40  2  0  0  0  0
 41 42  1  0  0  0  0
 42 37  1  0  0  0  0
M  END
>  <minimizedAffinity>
-7.89584684

$$$$

 OpenBabel03272507153D

 42 47  0  0  0  0  0  0  0  0999 V2000
   36.2150   28.3970   32.3690 C   0  0  0  0  0  0  0  0  0  0  0  0
   35.9700   29.1400   31.2530 C   0  0  0  0  0  0  0  0  0  0  0  0
   35.5290   30.3960   31.6880 C   0  0  0  0  0  0  0  0  0  0  0  0
   35.5390   30.3230   33.0930 C   0  0  0  0  0  0  0  0  0  0  0  0
   35.9490   29.1330   33.4070 O   0  0  0  0  0  0  0  0  0  0  0  0
   36.0760   28.8680   30.1930 H   0  0  0  0  0  0  0  0  0  0  0  0
   35.2610   31.1880   31.0130 H   0  0  0  0  0  0  0  0  0  0  0  0
   34.7430   32.6550   33.4380 C   0  0  0  0  0  0  0  0  0  0  0  0
   35.1420   31.4430   33.9390 C   0  0  0  0  0  0  0  0  0  0  0  0
   35.1900   31.2110   35.3070 C   0  0  0  0  0  0  0  0  0  0  0  0
   34.8220   32.2420   36.1580 C   0  0  0  0  0  0  0  0  0  0  0  0
   34.7720   32.3000   37.5010 N   0  0  0  0  0  0  0  0  0  0  0  0
   34.3500   33.5260   37.8180 N   0  0  0  0  0  0  0  0  0  0  0  0
   34.1350   34.2370   36.6900 C   0  0  0  0  0  0  0  0  0  0  0  0
   34.4270   33.4490   35.5920 C   0  0  0  0  0  0  0  0  0  0  0  0
   34.3760   33.6870   34.2390 C   0  0  0  0  0  0  0  0  0  0  0  0
   34.7280   32.7720   32.3610 H   0  0  0  0  0  0  0  0  0  0  0  0
   35.4960   30.2740   35.7890 H   0  0  0  0  0  0  0  0  0  0  0  0
   35.0120   31.5460   38.1760 H   0  0  0  0  0  0  0  0  0  0  0  0
   33.7830   35.2780   36.6480 H   0  0  0  0  0  0  0  0  0  0  0  0
   34.0570   34.6560   33.8750 H   0  0  0  0  0  0  0  0  0  0  0  0
   36.6890   27.0340   32.2760 C   0  0  0  0  0  0  0  0  0  0  0  0
   36.0790   26.2250   31.5210 O   0  0  0  0  0  0  0  0  0  0  0  0
   37.8420   26.6690   33.0560 C   0  0  0  0  0  0  0  0  0  0  0  0
   39.0680   27.1710   32.6880 C   0  0  0  0  0  0  0  0  0  0  0  0
   40.1890   26.8540   33.4290 C   0  0  0  0  0  0  0  0  0  0  0  0
   39.9940   26.0330   34.5150 N   0  0  0  0  0  0  0  0  0  0  0  0
   38.8160   25.5480   34.8730 C   0  0  0  0  0  0  0  0  0  0  0  0
   37.7720   25.8890   34.1170 N   0  0  0  0  0  0  0  0  0  0  0  0
   39.1490   27.8080   31.8260 H   0  0  0  0  0  0  0  0  0  0  0  0
   41.1480   27.2290   33.1650 H   0  0  0  0  0  0  0  0  0  0  0  0
   38.8940   24.7110   36.0560 C   0  0  0  0  0  0  0  0  0  0  0  0
   38.0290   24.8930   37.1110 C   0  0  0  0  0  0  0  0  0  0  0  0
   37.2610   25.6560   37.1150 H   0  0  0  0  0  0  0  0  0  0  0  0
   38.0510   24.1370   38.2560 C   0  0  0  0  0  3  0  0  0  0  0  0
   38.9640   23.1240   38.4200 C   0  0  0  0  0  3  0  0  0  0  0  0
   39.8520   22.8970   37.3970 C   0  0  0  0  0  0  0  0  0  0  0  0
   40.7770   21.8850   37.5430 C   0  0  0  0  0  3  0  0  0  0  0  0
   41.6960   21.6060   36.5540 C   0  0  0  0  0  3  0  0  0  0  0  0
   41.6520   22.3900   35.4020 C   0  0  0  0  0  3  0  0  0  0  0  0
   40.7090   23.3880   35.3080 C   0  0  0  0  0  3  0  0  0  0  0  0
   39.7830   23.6860   36.2760 C   0  0  0  0  0  0  0  0  0  0  0  0
  1  5  1  0  0  0  0
  2  3  1  0  0  0  0
  2  1  2  0  0  0  0
  3  4  2  0  0  0  0
  4  5  1  0  0  0  0
  4  9  1  0  0  0  0
  6  2  1  0  0  0  0
  7  3  1  0  0  0  0
  8  9  2  0  0  0  0
  8 16  1  0  0  0  0
  9 10  1  0  0  0  0
 10 18  1  0  0  0  0
 10 11  2  0  0  0  0
 11 12  1  0  0  0  0
 12 13  1  0  0  0  0
 12 19  1  0  0  0  0
 14 13  2  0  0  0  0
 15 11  1  0  0  0  0
 15 14  1  0  0  0  0
 16 15  2  0  0  0  0
 17  8  1  0  0  0  0
 20 14  1  0  0  0  0
 21 16  1  0  0  0  0
 22  1  1  0  0  0  0
 22 24  1  0  0  0  0
 23 22  2  0  0  0  0
 24 29  1  0  0  0  0
 25 24  2  0  0  0  0
 25 26  1  0  0  0  0
 26 27  2  0  0  0  0
 27 28  1  0  0  0  0
 28 32  1  0  0  0  0
 29 28  2  0  0  0  0
 30 25  1  0  0  0  0
 31 26  1  0  0  0  0
 32 42  2  0  0  0  0
 32 33  1  0  0  0  0
 33 34  1  0  0  0  0
 33 35  2  0  0  0  0
 35 36  1  0  0  0  0
 37 38  1  0  0  0  0
 37 36  2  0  0  0  0
 39 38  2  0  0  0  0
 40 39  1  0  0  0  0
 41 40  2  0  0  0  0
 41 42  1  0  0  0  0
 42 37  1  0  0  0  0
M  END
>  <minimizedAffinity>
-7.68654299

$$$$

 OpenBabel03272507153D

 42 47  0  0  0  0  0  0  0  0999 V2000
   37.5600   27.1510   32.3090 C   0  0  0  0  0  0  0  0  0  0  0  0
   38.9020   27.3380   32.1620 C   0  0  0  0  0  0  0  0  0  0  0  0
   39.5290   26.6180   33.1860 C   0  0  0  0  0  0  0  0  0  0  0  0
   38.4800   26.0200   33.9100 C   0  0  0  0  0  0  0  0  0  0  0  0
   37.3730   26.3780   33.3380 O   0  0  0  0  0  0  0  0  0  0  0  0
   39.4490   27.9260   31.4100 H   0  0  0  0  0  0  0  0  0  0  0  0
   40.5960   26.5870   33.3120 H   0  0  0  0  0  0  0  0  0  0  0  0
   37.9130   25.1900   36.1860 C   0  0  0  0  0  0  0  0  0  0  0  0
   38.7150   25.1730   35.0740 C   0  0  0  0  0  0  0  0  0  0  0  0
   39.8160   24.3320   34.9950 C   0  0  0  0  0  0  0  0  0  0  0  0
   40.0860   23.5040   36.0740 C   0  0  0  0  0  0  0  0  0  0  0  0
   41.0660   22.6040   36.2690 N   0  0  0  0  0  0  0  0  0  0  0  0
   40.8680   22.0770   37.4810 N   0  0  0  0  0  0  0  0  0  0  0  0
   39.7760   22.6370   38.0450 C   0  0  0  0  0  0  0  0  0  0  0  0
   39.2370   23.5650   37.1740 C   0  0  0  0  0  0  0  0  0  0  0  0
   38.1450   24.3950   37.2610 C   0  0  0  0  0  0  0  0  0  0  0  0
   37.0690   25.8700   36.1860 H   0  0  0  0  0  0  0  0  0  0  0  0
   40.5070   24.2560   34.1450 H   0  0  0  0  0  0  0  0  0  0  0  0
   41.8350   22.3540   35.6160 H   0  0  0  0  0  0  0  0  0  0  0  0
   39.3770   22.3950   39.0410 H   0  0  0  0  0  0  0  0  0  0  0  0
   37.5310   24.3840   38.1540 H   0  0  0  0  0  0  0  0  0  0  0  0
   36.6120   27.7640   31.4050 C   0  0  0  0  0  0  0  0  0  0  0  0
   36.2240   27.1130   30.3940 O   0  0  0  0  0  0  0  0  0  0  0  0
   36.1550   29.0930   31.7100 C   0  0  0  0  0  0  0  0  0  0  0  0
   35.9640   29.9750   30.6730 C   0  0  0  0  0  0  0  0  0  0  0  0
   35.5080   31.2530   30.9340 C   0  0  0  0  0  0  0  0  0  0  0  0
   35.2690   31.5610   32.2520 N   0  0  0  0  0  0  0  0  0  0  0  0
   35.4520   30.7160   33.2540 C   0  0  0  0  0  0  0  0  0  0  0  0
   35.8950   29.4980   32.9390 N   0  0  0  0  0  0  0  0  0  0  0  0
   36.1710   29.6680   29.6650 H   0  0  0  0  0  0  0  0  0  0  0  0
   35.3520   31.9520   30.1490 H   0  0  0  0  0  0  0  0  0  0  0  0
   35.1230   31.2990   34.5420 C   0  0  0  0  0  0  0  0  0  0  0  0
   35.8780   32.3220   35.0690 C   0  0  0  0  0  0  0  0  0  0  0  0
   36.7400   32.7370   34.5630 H   0  0  0  0  0  0  0  0  0  0  0  0
   35.6200   32.9160   36.2800 C   0  0  0  0  0  3  0  0  0  0  0  0
   34.5630   32.5110   37.0580 C   0  0  0  0  0  3  0  0  0  0  0  0
   33.7750   31.4930   36.5790 C   0  0  0  0  0  0  0  0  0  0  0  0
   32.7080   31.0720   37.3450 C   0  0  0  0  0  3  0  0  0  0  0  0
   31.8790   30.0560   36.9220 C   0  0  0  0  0  3  0  0  0  0  0  0
   32.1640   29.4710   35.6900 C   0  0  0  0  0  3  0  0  0  0  0  0
   33.2410   29.9280   34.9650 C   0  0  0  0  0  3  0  0  0  0  0  0
   34.0820   30.9380   35.3610 C   0  0  0  0  0  0  0  0  0  0  0  0
  1  5  1  0  0  0  0
  2  1  2  0  0  0  0
  2  3  1  0  0  0  0
  3  7  1  0  0  0  0
  3  4  2  0  0  0  0
  4  9  1  0  0  0  0
  5  4  1  0  0  0  0
  6  2  1  0  0  0  0
  8 16  1  0  0  0  0
  9  8  2  0  0  0  0
 10  9  1  0  0  0  0
 10 11  2  0  0  0  0
 11 12  1  0  0  0  0
 11 15  1  0  0  0  0
 12 13  1  0  0  0  0
 13 14  2  0  0  0  0
 14 20  1  0  0  0  0
 15 16  2  0  0  0  0
 15 14  1  0  0  0  0
 16 21  1  0  0  0  0
 17  8  1  0  0  0  0
 18 10  1  0  0  0  0
 19 12  1  0  0  0  0
 22 24  1  0  0  0  0
 22  1  1  0  0  0  0
 23 22  2  0  0  0  0
 24 29  1  0  0  0  0
 25 26  1  0  0  0  0
 25 24  2  0  0  0  0
 26 27  2  0  0  0  0
 27 28  1  0  0  0  0
 28 32  1  0  0  0  0
 29 28  2  0  0  0  0
 30 25  1  0  0  0  0
 31 26  1  0  0  0  0
 32 33  2  0  0  0  0
 32 42  1  0  0  0  0
 33 35  1  0  0  0  0
 34 33  1  0  0  0  0
 35 36  2  0  0  0  0
 37 36  1  0  0  0  0
 37 38  1  0  0  0  0
 39 38  2  0  0  0  0
 40 39  1  0  0  0  0
 41 42  1  0  0  0  0
 41 40  2  0  0  0  0
 42 37  2  0  0  0  0
M  END
>  <minimizedAffinity>
-7.63596439

$$$$

 OpenBabel03272507153D

 42 47  0  0  0  0  0  0  0  0999 V2000
   36.5530   25.8690   31.6770 C   0  0  0  0  0  0  0  0  0  0  0  0
   35.3930   25.7700   30.9690 C   0  0  0  0  0  0  0  0  0  0  0  0
   35.0610   24.4110   30.9160 C   0  0  0  0  0  0  0  0  0  0  0  0
   36.0840   23.7550   31.6260 C   0  0  0  0  0  0  0  0  0  0  0  0
   36.9080   24.6700   32.0340 O   0  0  0  0  0  0  0  0  0  0  0  0
   34.7870   26.5610   30.5030 H   0  0  0  0  0  0  0  0  0  0  0  0
   34.1860   24.0410   30.4140 H   0  0  0  0  0  0  0  0  0  0  0  0
   35.0860   21.6080   32.3910 C   0  0  0  0  0  0  0  0  0  0  0  0
   36.1100   22.3080   31.8060 C   0  0  0  0  0  0  0  0  0  0  0  0
   37.2500   21.6630   31.3440 C   0  0  0  0  0  0  0  0  0  0  0  0
   37.3260   20.2860   31.4900 C   0  0  0  0  0  0  0  0  0  0  0  0
   38.2910   19.4170   31.1410 N   0  0  0  0  0  0  0  0  0  0  0  0
   37.8660   18.2040   31.5060 N   0  0  0  0  0  0  0  0  0  0  0  0
   36.6470   18.3050   32.0780 C   0  0  0  0  0  0  0  0  0  0  0  0
   36.2570   19.6310   32.0910 C   0  0  0  0  0  0  0  0  0  0  0  0
   35.1250   20.2610   32.5510 C   0  0  0  0  0  0  0  0  0  0  0  0
   34.2240   22.1700   32.7300 H   0  0  0  0  0  0  0  0  0  0  0  0
   38.1110   22.1460   30.8660 H   0  0  0  0  0  0  0  0  0  0  0  0
   39.1970   19.6300   30.6780 H   0  0  0  0  0  0  0  0  0  0  0  0
   36.0560   17.4660   32.4730 H   0  0  0  0  0  0  0  0  0  0  0  0
   34.3340   19.6790   33.0080 H   0  0  0  0  0  0  0  0  0  0  0  0
   37.1790   27.1490   31.9210 C   0  0  0  0  0  0  0  0  0  0  0  0
   38.4370   27.2030   32.0280 O   0  0  0  0  0  0  0  0  0  0  0  0
   36.3270   28.3030   32.0300 C   0  0  0  0  0  0  0  0  0  0  0  0
   36.3420   29.2280   31.0130 C   0  0  0  0  0  0  0  0  0  0  0  0
   35.5210   30.3370   31.0810 C   0  0  0  0  0  0  0  0  0  0  0  0
   34.7220   30.4400   32.1950 N   0  0  0  0  0  0  0  0  0  0  0  0
   34.7050   29.5530   33.1770 C   0  0  0  0  0  0  0  0  0  0  0  0
   35.5200   28.5050   33.0540 N   0  0  0  0  0  0  0  0  0  0  0  0
   36.9920   29.0850   30.1700 H   0  0  0  0  0  0  0  0  0  0  0  0
   35.5150   31.0650   30.3070 H   0  0  0  0  0  0  0  0  0  0  0  0
   33.7700   29.9060   34.2300 C   0  0  0  0  0  0  0  0  0  0  0  0
   32.5140   29.3440   34.2800 C   0  0  0  0  0  0  0  0  0  0  0  0
   32.1630   28.6260   33.5510 H   0  0  0  0  0  0  0  0  0  0  0  0
   31.5850   29.6360   35.2480 C   0  0  0  0  0  3  0  0  0  0  0  0
   31.8640   30.5300   36.2530 C   0  0  0  0  0  3  0  0  0  0  0  0
   33.1050   31.1200   36.2530 C   0  0  0  0  0  0  0  0  0  0  0  0
   33.4040   32.0210   37.2520 C   0  0  0  0  0  3  0  0  0  0  0  0
   34.6300   32.6470   37.3100 C   0  0  0  0  0  3  0  0  0  0  0  0
   35.5540   32.3340   36.3130 C   0  0  0  0  0  3  0  0  0  0  0  0
   35.2040   31.4280   35.3380 C   0  0  0  0  0  3  0  0  0  0  0  0
   33.9920   30.7900   35.2580 C   0  0  0  0  0  0  0  0  0  0  0  0
  1 22  1  0  0  0  0
  1  5  1  0  0  0  0
  2  1  2  0  0  0  0
  3  2  1  0  0  0  0
  3  4  2  0  0  0  0
  4  9  1  0  0  0  0
  4  5  1  0  0  0  0
  6  2  1  0  0  0  0
  7  3  1  0  0  0  0
  8 16  1  0  0  0  0
  8 17  1  0  0  0  0
  9  8  2  0  0  0  0
 10 11  2  0  0  0  0
 10  9  1  0  0  0  0
 11 15  1  0  0  0  0
 12 11  1  0  0  0  0
 12 13  1  0  0  0  0
 13 14  2  0  0  0  0
 14 15  1  0  0  0  0
 14 20  1  0  0  0  0
 15 16  2  0  0  0  0
 16 21  1  0  0  0  0
 18 10  1  0  0  0  0
 19 12  1  0  0  0  0
 22 23  2  0  0  0  0
 22 24  1  0  0  0  0
 24 29  1  0  0  0  0
 25 26  1  0  0  0  0
 25 24  2  0  0  0  0
 26 27  2  0  0  0  0
 27 28  1  0  0  0  0
 28 32  1  0  0  0  0
 29 28  2  0  0  0  0
 30 25  1  0  0  0  0
 31 26  1  0  0  0  0
 32 33  2  0  0  0  0
 32 42  1  0  0  0  0
 33 35  1  0  0  0  0
 34 33  1  0  0  0  0
 35 36  2  0  0  0  0
 36 37  1  0  0  0  0
 37 38  1  0  0  0  0
 38 39  2  0  0  0  0
 40 39  1  0  0  0  0
 41 40  2  0  0  0  0
 42 41  1  0  0  0  0
 42 37  2  0  0  0  0
M  END
>  <minimizedAffinity>
-7.60295105

$$$$

 OpenBabel03272507153D

 42 47  0  0  0  0  0  0  0  0999 V2000
   36.9470   28.1070   32.2030 C   0  0  0  0  0  0  0  0  0  0  0  0
   36.4350   28.9710   31.2830 C   0  0  0  0  0  0  0  0  0  0  0  0
   35.6090   29.8640   31.9760 C   0  0  0  0  0  0  0  0  0  0  0  0
   35.6830   29.4620   33.3230 C   0  0  0  0  0  0  0  0  0  0  0  0
   36.4770   28.4390   33.3700 O   0  0  0  0  0  0  0  0  0  0  0  0
   36.5970   29.0140   30.1950 H   0  0  0  0  0  0  0  0  0  0  0  0
   35.0710   30.6600   31.4930 H   0  0  0  0  0  0  0  0  0  0  0  0
   35.5540   31.0080   35.2690 C   0  0  0  0  0  0  0  0  0  0  0  0
   34.9550   30.1470   34.3860 C   0  0  0  0  0  0  0  0  0  0  0  0
   33.5960   29.8740   34.4580 C   0  0  0  0  0  0  0  0  0  0  0  0
   32.8550   30.4980   35.4510 C   0  0  0  0  0  0  0  0  0  0  0  0
   31.5470   30.4240   35.7510 N   0  0  0  0  0  0  0  0  0  0  0  0
   31.3460   31.2260   36.8000 N   0  0  0  0  0  0  0  0  0  0  0  0
   32.5140   31.8010   37.1590 C   0  0  0  0  0  0  0  0  0  0  0  0
   33.5180   31.3620   36.3170 C   0  0  0  0  0  0  0  0  0  0  0  0
   34.8640   31.6370   36.2520 C   0  0  0  0  0  0  0  0  0  0  0  0
   36.6190   31.1780   35.1590 H   0  0  0  0  0  0  0  0  0  0  0  0
   33.0400   29.2000   33.7940 H   0  0  0  0  0  0  0  0  0  0  0  0
   30.8190   29.8580   35.2710 H   0  0  0  0  0  0  0  0  0  0  0  0
   32.6480   32.5080   37.9910 H   0  0  0  0  0  0  0  0  0  0  0  0
   35.3060   32.3230   36.9650 H   0  0  0  0  0  0  0  0  0  0  0  0
   37.8490   27.0450   31.8180 C   0  0  0  0  0  0  0  0  0  0  0  0
   37.7160   26.5130   30.6800 O   0  0  0  0  0  0  0  0  0  0  0  0
   38.8610   26.6470   32.7610 C   0  0  0  0  0  0  0  0  0  0  0  0
   40.1370   27.1300   32.5950 C   0  0  0  0  0  0  0  0  0  0  0  0
   41.1250   26.7810   33.4960 C   0  0  0  0  0  0  0  0  0  0  0  0
   40.7490   25.9510   34.5260 N   0  0  0  0  0  0  0  0  0  0  0  0
   39.5220   25.4840   34.6890 C   0  0  0  0  0  0  0  0  0  0  0  0
   38.6130   25.8550   33.7860 N   0  0  0  0  0  0  0  0  0  0  0  0
   40.3620   27.7750   31.7670 H   0  0  0  0  0  0  0  0  0  0  0  0
   42.1190   27.1410   33.3890 H   0  0  0  0  0  0  0  0  0  0  0  0
   39.4010   24.6310   35.8570 C   0  0  0  0  0  0  0  0  0  0  0  0
   38.3980   24.8300   36.7790 C   0  0  0  0  0  0  0  0  0  0  0  0
   37.6620   25.6180   36.6850 H   0  0  0  0  0  0  0  0  0  0  0  0
   38.2300   24.0590   37.9030 C   0  0  0  0  0  3  0  0  0  0  0  0
   39.0770   23.0140   38.1800 C   0  0  0  0  0  3  0  0  0  0  0  0
   40.0960   22.7690   37.2920 C   0  0  0  0  0  0  0  0  0  0  0  0
   40.9580   21.7250   37.5520 C   0  0  0  0  0  3  0  0  0  0  0  0
   42.0000   21.4270   36.7020 C   0  0  0  0  0  3  0  0  0  0  0  0
   42.1490   22.2260   35.5690 C   0  0  0  0  0  3  0  0  0  0  0  0
   41.2610   23.2560   35.3570 C   0  0  0  0  0  3  0  0  0  0  0  0
   40.2150   23.5740   36.1860 C   0  0  0  0  0  0  0  0  0  0  0  0
  1  5  1  0  0  0  0
  2  3  1  0  0  0  0
  2  1  2  0  0  0  0
  3  4  2  0  0  0  0
  4  5  1  0  0  0  0
  4  9  1  0  0  0  0
  6  2  1  0  0  0  0
  7  3  1  0  0  0  0
  8 16  1  0  0  0  0
  9 10  1  0  0  0  0
  9  8  2  0  0  0  0
 10 11  2  0  0  0  0
 11 12  1  0  0  0  0
 11 15  1  0  0  0  0
 12 13  1  0  0  0  0
 13 14  2  0  0  0  0
 14 20  1  0  0  0  0
 15 14  1  0  0  0  0
 16 15  2  0  0  0  0
 16 21  1  0  0  0  0
 17  8  1  0  0  0  0
 18 10  1  0  0  0  0
 19 12  1  0  0  0  0
 22  1  1  0  0  0  0
 22 24  1  0  0  0  0
 23 22  2  0  0  0  0
 24 29  1  0  0  0  0
 25 24  2  0  0  0  0
 25 26  1  0  0  0  0
 26 27  2  0  0  0  0
 27 28  1  0  0  0  0
 28 32  1  0  0  0  0
 29 28  2  0  0  0  0
 30 25  1  0  0  0  0
 31 26  1  0  0  0  0
 32 42  2  0  0  0  0
 32 33  1  0  0  0  0
 33 35  2  0  0  0  0
 34 33  1  0  0  0  0
 35 36  1  0  0  0  0
 37 38  1  0  0  0  0
 37 36  2  0  0  0  0
 39 38  2  0  0  0  0
 40 39  1  0  0  0  0
 41 40  2  0  0  0  0
 41 42  1  0  0  0  0
 42 37  1  0  0  0  0
M  END
>  <minimizedAffinity>
-7.59143066

$$$$

 OpenBabel03272507153D

 42 47  0  0  0  0  0  0  0  0999 V2000
   37.1400   28.0080   31.8410 C   0  0  0  0  0  0  0  0  0  0  0  0
   36.5930   28.8570   30.9260 C   0  0  0  0  0  0  0  0  0  0  0  0
   35.6950   29.6790   31.6160 C   0  0  0  0  0  0  0  0  0  0  0  0
   35.7640   29.2550   32.9570 C   0  0  0  0  0  0  0  0  0  0  0  0
   36.6230   28.2840   33.0020 O   0  0  0  0  0  0  0  0  0  0  0  0
   36.7770   28.9330   29.8440 H   0  0  0  0  0  0  0  0  0  0  0  0
   35.1180   30.4490   31.1370 H   0  0  0  0  0  0  0  0  0  0  0  0
   33.6380   29.5970   34.2040 C   0  0  0  0  0  0  0  0  0  0  0  0
   34.9690   29.8670   34.0150 C   0  0  0  0  0  0  0  0  0  0  0  0
   35.6450   30.7580   34.8380 C   0  0  0  0  0  0  0  0  0  0  0  0
   34.9360   31.3690   35.8610 C   0  0  0  0  0  0  0  0  0  0  0  0
   35.3260   32.2560   36.7940 N   0  0  0  0  0  0  0  0  0  0  0  0
   34.2530   32.5250   37.5420 N   0  0  0  0  0  0  0  0  0  0  0  0
   33.1960   31.8160   37.0880 C   0  0  0  0  0  0  0  0  0  0  0  0
   33.5890   31.0550   36.0030 C   0  0  0  0  0  0  0  0  0  0  0  0
   32.9120   30.1750   35.1930 C   0  0  0  0  0  0  0  0  0  0  0  0
   33.1690   28.8920   33.5270 H   0  0  0  0  0  0  0  0  0  0  0  0
   36.7050   31.0290   34.7570 H   0  0  0  0  0  0  0  0  0  0  0  0
   36.2740   32.6640   36.9220 H   0  0  0  0  0  0  0  0  0  0  0  0
   32.1820   31.8400   37.5130 H   0  0  0  0  0  0  0  0  0  0  0  0
   31.8600   29.9830   35.3690 H   0  0  0  0  0  0  0  0  0  0  0  0
   38.1190   27.0160   31.4570 C   0  0  0  0  0  0  0  0  0  0  0  0
   39.0480   27.3480   30.6680 O   0  0  0  0  0  0  0  0  0  0  0  0
   37.9810   25.6910   32.0000 C   0  0  0  0  0  0  0  0  0  0  0  0
   37.0020   24.8720   31.4900 C   0  0  0  0  0  0  0  0  0  0  0  0
   36.8590   23.5870   31.9780 C   0  0  0  0  0  0  0  0  0  0  0  0
   37.7320   23.2080   32.9700 N   0  0  0  0  0  0  0  0  0  0  0  0
   38.6760   23.9930   33.4640 C   0  0  0  0  0  0  0  0  0  0  0  0
   38.7630   25.2210   32.9530 N   0  0  0  0  0  0  0  0  0  0  0  0
   36.3520   25.2330   30.7150 H   0  0  0  0  0  0  0  0  0  0  0  0
   36.1090   22.9350   31.6000 H   0  0  0  0  0  0  0  0  0  0  0  0
   39.4570   23.3410   34.5000 C   0  0  0  0  0  0  0  0  0  0  0  0
   40.5530   22.5710   34.1820 C   0  0  0  0  0  0  0  0  0  0  0  0
   40.8820   22.4120   33.1640 H   0  0  0  0  0  0  0  0  0  0  0  0
   41.3310   21.9290   35.1130 C   0  0  0  0  0  3  0  0  0  0  0  0
   41.0540   22.0230   36.4550 C   0  0  0  0  0  3  0  0  0  0  0  0
   39.9710   22.7810   36.8300 C   0  0  0  0  0  0  0  0  0  0  0  0
   39.6760   22.8870   38.1720 C   0  0  0  0  0  3  0  0  0  0  0  0
   38.6040   23.6320   38.6140 C   0  0  0  0  0  3  0  0  0  0  0  0
   37.8300   24.2710   37.6470 C   0  0  0  0  0  3  0  0  0  0  0  0
   38.1670   24.1320   36.3200 C   0  0  0  0  0  3  0  0  0  0  0  0
   39.2290   23.3990   35.8540 C   0  0  0  0  0  0  0  0  0  0  0  0
  1  5  1  0  0  0  0
  2  3  1  0  0  0  0
  2  1  2  0  0  0  0
  3  4  2  0  0  0  0
  4  5  1  0  0  0  0
  4  9  1  0  0  0  0
  6  2  1  0  0  0  0
  7  3  1  0  0  0  0
  8 16  1  0  0  0  0
  9  8  2  0  0  0  0
  9 10  1  0  0  0  0
 10 11  2  0  0  0  0
 11 15  1  0  0  0  0
 11 12  1  0  0  0  0
 12 19  1  0  0  0  0
 12 13  1  0  0  0  0
 14 20  1  0  0  0  0
 14 13  2  0  0  0  0
 15 14  1  0  0  0  0
 16 21  1  0  0  0  0
 16 15  2  0  0  0  0
 17  8  1  0  0  0  0
 18 10  1  0  0  0  0
 22  1  1  0  0  0  0
 22 24  1  0  0  0  0
 23 22  2  0  0  0  0
 24 29  1  0  0  0  0
 25 26  1  0  0  0  0
 25 24  2  0  0  0  0
 26 27  2  0  0  0  0
 27 28  1  0  0  0  0
 28 32  1  0  0  0  0
 29 28  2  0  0  0  0
 30 25  1  0  0  0  0
 31 26  1  0  0  0  0
 32 42  1  0  0  0  0
 33 32  2  0  0  0  0
 33 35  1  0  0  0  0
 34 33  1  0  0  0  0
 35 36  2  0  0  0  0
 36 37  1  0  0  0  0
 37 38  1  0  0  0  0
 38 39  2  0  0  0  0
 40 39  1  0  0  0  0
 41 40  2  0  0  0  0
 42 41  1  0  0  0  0
 42 37  2  0  0  0  0
M  END
>  <minimizedAffinity>
-7.55577278

$$$$

 OpenBabel03272507153D

 42 47  0  0  0  0  0  0  0  0999 V2000
   38.2230   26.2280   32.7290 C   0  0  0  0  0  0  0  0  0  0  0  0
   38.6750   27.2710   33.4790 C   0  0  0  0  0  0  0  0  0  0  0  0
   39.6290   26.7550   34.3640 C   0  0  0  0  0  0  0  0  0  0  0  0
   39.6900   25.3790   34.0760 C   0  0  0  0  0  0  0  0  0  0  0  0
   38.8460   25.1550   33.1180 O   0  0  0  0  0  0  0  0  0  0  0  0
   38.3900   28.3330   33.4460 H   0  0  0  0  0  0  0  0  0  0  0  0
   40.1530   27.3620   35.0800 H   0  0  0  0  0  0  0  0  0  0  0  0
   41.9420   24.4980   34.6610 C   0  0  0  0  0  0  0  0  0  0  0  0
   40.5780   24.4670   34.7900 C   0  0  0  0  0  0  0  0  0  0  0  0
   39.9550   23.5480   35.6220 C   0  0  0  0  0  0  0  0  0  0  0  0
   40.7520   22.6570   36.3250 C   0  0  0  0  0  0  0  0  0  0  0  0
   40.4280   21.6780   37.1880 N   0  0  0  0  0  0  0  0  0  0  0  0
   41.5740   21.1180   37.5830 N   0  0  0  0  0  0  0  0  0  0  0  0
   42.6110   21.7350   36.9770 C   0  0  0  0  0  0  0  0  0  0  0  0
   42.1300   22.7360   36.1540 C   0  0  0  0  0  0  0  0  0  0  0  0
   42.7550   23.6430   35.3320 C   0  0  0  0  0  0  0  0  0  0  0  0
   42.3670   25.2390   33.9950 H   0  0  0  0  0  0  0  0  0  0  0  0
   38.8730   23.4560   35.7820 H   0  0  0  0  0  0  0  0  0  0  0  0
   39.4760   21.3980   37.4990 H   0  0  0  0  0  0  0  0  0  0  0  0
   43.6730   21.4820   37.1140 H   0  0  0  0  0  0  0  0  0  0  0  0
   43.8360   23.6410   35.2520 H   0  0  0  0  0  0  0  0  0  0  0  0
   37.2190   26.4160   31.7050 C   0  0  0  0  0  0  0  0  0  0  0  0
   37.0130   25.4870   30.8730 O   0  0  0  0  0  0  0  0  0  0  0  0
   36.5020   27.6630   31.6890 C   0  0  0  0  0  0  0  0  0  0  0  0
   36.7250   28.5340   30.6490 C   0  0  0  0  0  0  0  0  0  0  0  0
   36.0350   29.7300   30.5960 C   0  0  0  0  0  0  0  0  0  0  0  0
   35.1480   29.9720   31.6190 N   0  0  0  0  0  0  0  0  0  0  0  0
   34.9310   29.1370   32.6220 C   0  0  0  0  0  0  0  0  0  0  0  0
   35.6270   27.9990   32.6170 N   0  0  0  0  0  0  0  0  0  0  0  0
   37.4330   28.2820   29.8820 H   0  0  0  0  0  0  0  0  0  0  0  0
   36.1900   30.4200   29.8030 H   0  0  0  0  0  0  0  0  0  0  0  0
   33.9450   29.6390   33.5610 C   0  0  0  0  0  0  0  0  0  0  0  0
   32.6080   29.3490   33.4070 C   0  0  0  0  0  0  0  0  0  0  0  0
   32.2280   28.7460   32.5930 H   0  0  0  0  0  0  0  0  0  0  0  0
   31.6270   29.7930   34.2590 C   0  0  0  0  0  3  0  0  0  0  0  0
   31.9320   30.5730   35.3470 C   0  0  0  0  0  3  0  0  0  0  0  0
   33.2530   30.8920   35.5510 C   0  0  0  0  0  0  0  0  0  0  0  0
   33.5800   31.6740   36.6370 C   0  0  0  0  0  3  0  0  0  0  0  0
   34.8860   32.0300   36.8980 C   0  0  0  0  0  3  0  0  0  0  0  0
   35.8610   31.5670   36.0160 C   0  0  0  0  0  3  0  0  0  0  0  0
   35.4810   30.7890   34.9460 C   0  0  0  0  0  3  0  0  0  0  0  0
   34.1900   30.4200   34.6640 C   0  0  0  0  0  0  0  0  0  0  0  0
  1  5  1  0  0  0  0
  1  2  2  0  0  0  0
  2  3  1  0  0  0  0
  3  7  1  0  0  0  0
  4  3  2  0  0  0  0
  4  9  1  0  0  0  0
  5  4  1  0  0  0  0
  6  2  1  0  0  0  0
  8  9  2  0  0  0  0
  8 16  1  0  0  0  0
  9 10  1  0  0  0  0
 10 18  1  0  0  0  0
 10 11  2  0  0  0  0
 11 12  1  0  0  0  0
 12 19  1  0  0  0  0
 12 13  1  0  0  0  0
 14 20  1  0  0  0  0
 14 13  2  0  0  0  0
 15 11  1  0  0  0  0
 15 14  1  0  0  0  0
 16 15  2  0  0  0  0
 17  8  1  0  0  0  0
 21 16  1  0  0  0  0
 22  1  1  0  0  0  0
 23 22  2  0  0  0  0
 24 22  1  0  0  0  0
 24 29  1  0  0  0  0
 25 24  2  0  0  0  0
 26 25  1  0  0  0  0
 26 27  2  0  0  0  0
 27 28  1  0  0  0  0
 28 32  1  0  0  0  0
 29 28  2  0  0  0  0
 30 25  1  0  0  0  0
 31 26  1  0  0  0  0
 32 42  1  0  0  0  0
 33 32  2  0  0  0  0
 33 35  1  0  0  0  0
 34 33  1  0  0  0  0
 35 36  2  0  0  0  0
 36 37  1  0  0  0  0
 37 38  1  0  0  0  0
 38 39  2  0  0  0  0
 40 39  1  0  0  0  0
 41 40  2  0  0  0  0
 42 41  1  0  0  0  0
 42 37  2  0  0  0  0
M  END
>  <minimizedAffinity>
-7.4001956

$$$$

 OpenBabel03272507153D

 42 47  0  0  0  0  0  0  0  0999 V2000
   36.2880   25.7210   31.9350 C   0  0  0  0  0  0  0  0  0  0  0  0
   35.2520   25.6790   31.0520 C   0  0  0  0  0  0  0  0  0  0  0  0
   34.9790   24.3280   30.8060 C   0  0  0  0  0  0  0  0  0  0  0  0
   35.9070   23.6170   31.5910 C   0  0  0  0  0  0  0  0  0  0  0  0
   36.6280   24.4970   32.2130 O   0  0  0  0  0  0  0  0  0  0  0  0
   34.6940   26.5040   30.5850 H   0  0  0  0  0  0  0  0  0  0  0  0
   34.2010   23.9980   30.1410 H   0  0  0  0  0  0  0  0  0  0  0  0
   34.9740   21.3880   32.1860 C   0  0  0  0  0  0  0  0  0  0  0  0
   35.9560   22.1600   31.6200 C   0  0  0  0  0  0  0  0  0  0  0  0
   37.0730   21.5830   31.0310 C   0  0  0  0  0  0  0  0  0  0  0  0
   37.1710   20.1990   31.0300 C   0  0  0  0  0  0  0  0  0  0  0  0
   38.1220   19.3850   30.5400 N   0  0  0  0  0  0  0  0  0  0  0  0
   37.7300   18.1350   30.8010 N   0  0  0  0  0  0  0  0  0  0  0  0
   36.5450   18.1580   31.4490 C   0  0  0  0  0  0  0  0  0  0  0  0
   36.1430   19.4700   31.6200 C   0  0  0  0  0  0  0  0  0  0  0  0
   35.0340   20.0340   32.2050 C   0  0  0  0  0  0  0  0  0  0  0  0
   34.1280   21.9000   32.6290 H   0  0  0  0  0  0  0  0  0  0  0  0
   37.9010   22.1250   30.5570 H   0  0  0  0  0  0  0  0  0  0  0  0
   38.9980   19.6570   30.0500 H   0  0  0  0  0  0  0  0  0  0  0  0
   35.9850   17.2750   31.7880 H   0  0  0  0  0  0  0  0  0  0  0  0
   34.2760   19.3960   32.6440 H   0  0  0  0  0  0  0  0  0  0  0  0
   36.8260   26.9780   32.4040 C   0  0  0  0  0  0  0  0  0  0  0  0
   36.5420   28.0370   31.7760 O   0  0  0  0  0  0  0  0  0  0  0  0
   37.6630   26.9560   33.5740 C   0  0  0  0  0  0  0  0  0  0  0  0
   37.2720   27.6820   34.6740 C   0  0  0  0  0  0  0  0  0  0  0  0
   38.0460   27.6640   35.8190 C   0  0  0  0  0  0  0  0  0  0  0  0
   39.1870   26.8990   35.7750 N   0  0  0  0  0  0  0  0  0  0  0  0
   39.5680   26.1990   34.7170 C   0  0  0  0  0  0  0  0  0  0  0  0
   38.7800   26.2580   33.6430 N   0  0  0  0  0  0  0  0  0  0  0  0
   36.3660   28.2590   34.6400 H   0  0  0  0  0  0  0  0  0  0  0  0
   37.7640   28.2160   36.6820 H   0  0  0  0  0  0  0  0  0  0  0  0
   40.8100   25.4830   34.9420 C   0  0  0  0  0  0  0  0  0  0  0  0
   42.0130   26.0010   34.5200 C   0  0  0  0  0  0  0  0  0  0  0  0
   42.0960   26.9500   34.0070 H   0  0  0  0  0  0  0  0  0  0  0  0
   43.2210   25.3740   34.7010 C   0  0  0  0  0  3  0  0  0  0  0  0
   43.3010   24.1570   35.3340 C   0  0  0  0  0  3  0  0  0  0  0  0
   42.1290   23.5930   35.7780 C   0  0  0  0  0  0  0  0  0  0  0  0
   42.1880   22.3730   36.4150 C   0  0  0  0  0  3  0  0  0  0  0  0
   41.0490   21.7530   36.8840 C   0  0  0  0  0  3  0  0  0  0  0  0
   39.8370   22.4120   36.6850 C   0  0  0  0  0  3  0  0  0  0  0  0
   39.8340   23.6290   36.0420 C   0  0  0  0  0  3  0  0  0  0  0  0
   40.9510   24.2670   35.5670 C   0  0  0  0  0  0  0  0  0  0  0  0
  1  5  1  0  0  0  0
  1 22  1  0  0  0  0
  2  1  2  0  0  0  0
  3  2  1  0  0  0  0
  3  4  2  0  0  0  0
  4  9  1  0  0  0  0
  4  5  1  0  0  0  0
  6  2  1  0  0  0  0
  7  3  1  0  0  0  0
  8 16  1  0  0  0  0
  8 17  1  0  0  0  0
  9  8  2  0  0  0  0
 10  9  1  0  0  0  0
 11 10  2  0  0  0  0
 11 15  1  0  0  0  0
 12 13  1  0  0  0  0
 12 11  1  0  0  0  0
 13 14  2  0  0  0  0
 14 15  1  0  0  0  0
 14 20  1  0  0  0  0
 15 16  2  0  0  0  0
 16 21  1  0  0  0  0
 18 10  1  0  0  0  0
 19 12  1  0  0  0  0
 22 24  1  0  0  0  0
 23 22  2  0  0  0  0
 24 29  2  0  0  0  0
 24 25  1  0  0  0  0
 25 26  2  0  0  0  0
 26 31  1  0  0  0  0
 27 26  1  0  0  0  0
 28 32  1  0  0  0  0
 28 27  2  0  0  0  0
 29 28  1  0  0  0  0
 30 25  1  0  0  0  0
 32 42  1  0  0  0  0
 33 35  1  0  0  0  0
 33 32  2  0  0  0  0
 34 33  1  0  0  0  0
 35 36  2  0  0  0  0
 36 37  1  0  0  0  0
 37 38  1  0  0  0  0
 38 39  2  0  0  0  0
 40 39  1  0  0  0  0
 41 40  2  0  0  0  0
 42 37  2  0  0  0  0
 42 41  1  0  0  0  0
M  END
>  <minimizedAffinity>
-7.37343979

$$$$
