
 OpenBabel03272501163D

 37 41  0  0  1  0  0  0  0  0999 V2000
   34.9480   29.0020   50.5200 C   0  0  0  0  0  0  0  0  0  0  0  0
   34.9890   28.1510   51.2290 H   0  0  0  0  0  0  0  0  0  0  0  0
   34.3920   29.8140   51.0570 H   0  0  0  0  0  0  0  0  0  0  0  0
   36.6120   30.8740   50.1170 C   0  0  1  0  0  0  0  0  0  0  0  0
   36.3180   29.4750   50.1220 C   0  0  1  0  0  0  0  0  0  0  0  0
   37.3310   29.9450   51.1190 C   0  0  0  0  0  0  0  0  0  0  0  0
   35.9470   31.6380   50.6140 H   0  0  0  0  0  0  0  0  0  0  0  0
   36.7110   28.8740   49.2440 H   0  0  0  0  0  0  0  0  0  0  0  0
   36.9720   29.9420   52.1670 H   0  0  0  0  0  0  0  0  0  0  0  0
   38.3670   29.6630   50.9220 H   0  0  0  0  0  0  0  0  0  0  0  0
   37.5850   31.4800   49.1330 C   0  0  0  0  0  0  0  0  0  0  0  0
   38.0750   32.7420   49.4490 C   0  0  0  0  0  0  0  0  0  0  0  0
   38.9610   33.3000   48.5100 C   0  0  0  0  0  0  0  0  0  0  0  0
   39.2850   32.6020   47.3790 N   0  0  0  0  0  0  0  0  0  0  0  0
   38.7790   31.3620   47.1100 C   0  0  0  0  0  0  0  0  0  0  0  0
   37.9110   30.7960   48.0100 N   0  0  0  0  0  0  0  0  0  0  0  0
   37.8110   33.2680   50.3330 H   0  0  0  0  0  0  0  0  0  0  0  0
   39.3900   34.2730   48.6710 H   0  0  0  0  0  0  0  0  0  0  0  0
   39.0400   30.8270   46.2200 H   0  0  0  0  0  0  0  0  0  0  0  0
   34.0950   28.6540   49.3420 C   0  0  0  0  0  0  0  0  0  0  0  0
   34.5410   28.6970   48.0450 C   0  0  0  0  0  0  0  0  0  0  0  0
   33.5700   28.3370   47.2190 N   0  0  0  0  0  0  0  0  0  0  0  0
   32.5050   28.0580   47.9490 C   0  0  0  0  0  0  0  0  0  0  0  0
   32.8300   28.2540   49.2410 N   0  0  0  0  0  0  0  0  0  0  0  0
   35.5630   28.9930   47.7520 H   0  0  0  0  0  0  0  0  0  0  0  0
   33.6820   28.3340   46.2090 H   0  0  0  0  0  0  0  0  0  0  0  0
   31.1730   27.5480   47.6890 C   0  0  0  0  0  0  0  0  0  0  0  0
   30.0510   28.1620   48.2650 C   0  0  0  0  0  0  0  0  0  0  0  0
   30.1880   29.0350   48.9000 H   0  0  0  0  0  0  0  0  0  0  0  0
   28.7490   27.7650   48.1030 C   0  0  0  0  0  3  0  0  0  0  0  0
   28.4700   26.6760   47.3210 C   0  0  0  0  0  3  0  0  0  0  0  0
   29.5150   26.0140   46.7220 C   0  0  0  0  0  0  0  0  0  0  0  0
   29.1960   24.9170   45.9770 C   0  0  0  0  0  3  0  0  0  0  0  0
   30.1660   24.1800   45.3740 C   0  0  0  0  0  3  0  0  0  0  0  0
   31.4840   24.6010   45.5590 C   0  0  0  0  0  3  0  0  0  0  0  0
   31.7340   25.7150   46.3210 C   0  0  0  0  0  3  0  0  0  0  0  0
   30.7800   26.4760   46.9350 C   0  0  0  0  0  0  0  0  0  0  0  0
  1  3  1  0  0  0  0
  1  2  1  0  0  0  0
  4  5  1  0  0  0  0
  4  7  1  1  0  0  0
  4  6  1  0  0  0  0
  5  8  1  6  0  0  0
  5  1  1  0  0  0  0
  5  6  1  0  0  0  0
  6  9  1  0  0  0  0
 10  6  1  0  0  0  0
 11 12  1  0  0  0  0
 11  4  1  0  0  0  0
 12 17  1  0  0  0  0
 13 18  1  0  0  0  0
 13 12  2  0  0  0  0
 14 13  1  0  0  0  0
 15 14  2  0  0  0  0
 15 16  1  0  0  0  0
 16 11  2  0  0  0  0
 19 15  1  0  0  0  0
 20  1  1  0  0  0  0
 21 20  2  0  0  0  0
 22 23  1  0  0  0  0
 22 21  1  0  0  0  0
 23 24  2  0  0  0  0
 24 20  1  0  0  0  0
 25 21  1  0  0  0  0
 26 22  1  0  0  0  0
 27 23  1  0  0  0  0
 27 28  1  0  0  0  0
 28 29  1  0  0  0  0
 30 28  2  0  0  0  0
 31 30  1  0  0  0  0
 32 37  1  0  0  0  0
 32 31  2  0  0  0  0
 33 32  1  0  0  0  0
 34 35  1  0  0  0  0
 34 33  2  0  0  0  0
 35 36  2  0  0  0  0
 36 37  1  0  0  0  0
 37 27  2  0  0  0  0
M  END
>  <minimizedAffinity>
-6.28424644

>  <minimizedRMSD>
1.35071838

$$$$
