
 OpenBabel03272508413D

 44 48  0  0  1  0  0  0  0  0999 V2000
   35.1990   29.6540   33.6540 N   0  0  0  0  0  0  0  0  0  0  0  0
   35.7720   28.3180   33.7960 C   0  0  0  0  0  0  0  0  0  0  0  0
   36.9540   28.0670   32.9730 C   0  0  2  0  0  0  0  0  0  0  0  0
   36.7910   28.5830   31.5850 N   0  0  0  0  0  0  0  0  0  0  0  0
   36.4340   30.0090   31.6940 C   0  0  0  0  0  0  0  0  0  0  0  0
   35.0390   29.9710   32.2780 C   0  0  0  0  0  0  0  0  0  0  0  0
   35.9210   28.1240   34.8540 H   0  0  0  0  0  0  0  0  0  0  0  0
   34.9200   27.7010   33.3430 H   0  0  0  0  0  0  0  0  0  0  0  0
   37.8660   28.6140   33.2750 H   0  0  0  0  0  0  0  0  0  0  0  0
   37.6990   28.5520   31.1240 H   0  0  0  0  0  0  0  0  0  0  0  0
   36.4030   30.4040   30.6560 H   0  0  0  0  0  0  0  0  0  0  0  0
   37.1430   30.5630   32.3190 H   0  0  0  0  0  0  0  0  0  0  0  0
   34.4730   29.2090   31.6860 H   0  0  0  0  0  0  0  0  0  0  0  0
   34.5280   30.9440   32.1570 H   0  0  0  0  0  0  0  0  0  0  0  0
   39.0890   27.1160   34.8070 Cl  0  0  0  0  0  0  0  0  0  0  0  0
   38.1780   26.0600   33.7260 C   0  0  0  0  0  0  0  0  0  0  0  0
   37.2400   26.6440   32.9170 C   0  0  0  0  0  0  0  0  0  0  0  0
   36.4340   25.9380   32.0080 C   0  0  0  0  0  0  0  0  0  0  0  0
   36.6500   24.5520   31.9650 C   0  0  0  0  0  0  0  0  0  0  0  0
   37.6100   23.9490   32.7870 C   0  0  0  0  0  0  0  0  0  0  0  0
   38.3520   24.7090   33.6500 C   0  0  0  0  0  0  0  0  0  0  0  0
   35.6630   26.1170   31.3010 H   0  0  0  0  0  0  0  0  0  0  0  0
   36.1670   23.8060   31.3600 H   0  0  0  0  0  0  0  0  0  0  0  0
   37.8390   22.8940   32.8160 H   0  0  0  0  0  0  0  0  0  0  0  0
   39.3620   24.1370   34.5300 C   0  0  0  0  0  0  0  0  0  0  0  0
   40.5990   23.8980   33.9730 C   0  0  0  0  0  0  0  0  0  0  0  0
   40.8190   24.1230   32.9290 H   0  0  0  0  0  0  0  0  0  0  0  0
   41.6460   23.3650   34.6720 C   0  0  0  0  0  3  0  0  0  0  0  0
   41.4600   23.0470   36.0130 C   0  0  0  0  0  3  0  0  0  0  0  0
   40.2220   23.2830   36.5800 C   0  0  0  0  0  0  0  0  0  0  0  0
   40.0200   22.9670   37.9260 C   0  0  0  0  0  3  0  0  0  0  0  0
   38.7720   23.2100   38.4820 C   0  0  0  0  0  3  0  0  0  0  0  0
   37.7450   23.7510   37.7320 C   0  0  0  0  0  3  0  0  0  0  0  0
   37.9280   24.0690   36.3930 C   0  0  0  0  0  3  0  0  0  0  0  0
   39.1660   23.8220   35.8670 C   0  0  0  0  0  0  0  0  0  0  0  0
   34.8620   30.4620   34.7650 C   0  0  0  0  0  0  0  0  0  0  0  0
   35.8090   31.2520   35.4270 C   0  0  0  0  0  0  0  0  0  0  0  0
   35.3960   32.0170   36.5070 C   0  0  0  0  0  0  0  0  0  0  0  0
   34.0590   31.9610   36.8760 N   0  0  0  0  0  0  0  0  0  0  0  0
   33.1850   31.1820   36.2050 C   0  0  0  0  0  0  0  0  0  0  0  0
   33.5640   30.4440   35.1710 N   0  0  0  0  0  0  0  0  0  0  0  0
   36.8190   31.2090   35.0420 H   0  0  0  0  0  0  0  0  0  0  0  0
   36.1140   32.6190   37.0100 H   0  0  0  0  0  0  0  0  0  0  0  0
   32.1680   31.1940   36.5530 H   0  0  0  0  0  0  0  0  0  0  0  0
  1  2  1  0  0  0  0
  1 36  1  0  0  0  0
  2  7  1  0  0  0  0
  3  9  1  1  0  0  0
  3  2  1  0  0  0  0
  4  5  1  0  0  0  0
  4  3  1  0  0  0  0
  5  6  1  0  0  0  0
  5 12  1  0  0  0  0
  6  1  1  0  0  0  0
  8  2  1  0  0  0  0
 10  4  1  0  0  0  0
 11  5  1  0  0  0  0
 13  6  1  0  0  0  0
 14  6  1  0  0  0  0
 16 15  1  0  0  0  0
 17  3  1  0  0  0  0
 17 16  2  0  0  0  0
 18 17  1  0  0  0  0
 19 18  2  0  0  0  0
 19 20  1  0  0  0  0
 20 24  1  0  0  0  0
 20 21  2  0  0  0  0
 21 16  1  0  0  0  0
 21 25  1  0  0  0  0
 22 18  1  0  0  0  0
 23 19  1  0  0  0  0
 25 35  1  0  0  0  0
 26 25  2  0  0  0  0
 26 28  1  0  0  0  0
 27 26  1  0  0  0  0
 28 29  2  0  0  0  0
 29 30  1  0  0  0  0
 30 31  1  0  0  0  0
 31 32  2  0  0  0  0
 33 32  1  0  0  0  0
 34 33  2  0  0  0  0
 35 34  1  0  0  0  0
 35 30  2  0  0  0  0
 36 41  2  0  0  0  0
 36 37  1  0  0  0  0
 37 38  2  0  0  0  0
 38 39  1  0  0  0  0
 38 43  1  0  0  0  0
 40 44  1  0  0  0  0
 40 39  2  0  0  0  0
 41 40  1  0  0  0  0
 42 37  1  0  0  0  0
M  END
>  <minimizedAffinity>
-7.05860901

$$$$

 OpenBabel03272508413D

 44 48  0  0  1  0  0  0  0  0999 V2000
   35.2420   29.5480   33.8250 N   0  0  0  0  0  0  0  0  0  0  0  0
   35.8110   28.2230   34.0540 C   0  0  0  0  0  0  0  0  0  0  0  0
   37.0090   27.9260   33.2700 C   0  0  2  0  0  0  0  0  0  0  0  0
   36.8730   28.3630   31.8520 N   0  0  0  0  0  0  0  0  0  0  0  0
   36.5150   29.7930   31.8720 C   0  0  0  0  0  0  0  0  0  0  0  0
   35.1090   29.7860   32.4300 C   0  0  0  0  0  0  0  0  0  0  0  0
   35.9400   28.0910   35.1240 H   0  0  0  0  0  0  0  0  0  0  0  0
   34.9690   27.5810   33.6200 H   0  0  0  0  0  0  0  0  0  0  0  0
   37.9150   28.4910   33.5570 H   0  0  0  0  0  0  0  0  0  0  0  0
   37.7900   28.3060   31.4110 H   0  0  0  0  0  0  0  0  0  0  0  0
   36.5040   30.1270   30.8130 H   0  0  0  0  0  0  0  0  0  0  0  0
   37.2120   30.3820   32.4790 H   0  0  0  0  0  0  0  0  0  0  0  0
   34.5540   28.9910   31.8720 H   0  0  0  0  0  0  0  0  0  0  0  0
   34.6000   30.7510   32.2440 H   0  0  0  0  0  0  0  0  0  0  0  0
   38.5250   26.9770   35.6410 Cl  0  0  0  0  0  0  0  0  0  0  0  0
   37.9610   25.9200   34.3470 C   0  0  0  0  0  0  0  0  0  0  0  0
   37.2950   26.5030   33.3010 C   0  0  0  0  0  0  0  0  0  0  0  0
   36.7830   25.7970   32.1990 C   0  0  0  0  0  0  0  0  0  0  0  0
   36.9990   24.4100   32.2230 C   0  0  0  0  0  0  0  0  0  0  0  0
   37.6810   23.8070   33.2870 C   0  0  0  0  0  0  0  0  0  0  0  0
   38.1460   24.5680   34.3250 C   0  0  0  0  0  0  0  0  0  0  0  0
   36.2480   25.9750   31.3010 H   0  0  0  0  0  0  0  0  0  0  0  0
   36.7080   23.6640   31.5060 H   0  0  0  0  0  0  0  0  0  0  0  0
   37.8890   22.7520   33.3820 H   0  0  0  0  0  0  0  0  0  0  0  0
   38.8600   23.9970   35.4590 C   0  0  0  0  0  0  0  0  0  0  0  0
   38.1090   23.7110   36.5780 C   0  0  0  0  0  0  0  0  0  0  0  0
   37.0360   23.9000   36.6210 H   0  0  0  0  0  0  0  0  0  0  0  0
   38.6370   23.1730   37.7180 C   0  0  0  0  0  3  0  0  0  0  0  0
   39.9990   22.8970   37.7570 C   0  0  0  0  0  3  0  0  0  0  0  0
   40.7610   23.1800   36.6400 C   0  0  0  0  0  0  0  0  0  0  0  0
   42.1310   22.9090   36.6640 C   0  0  0  0  0  3  0  0  0  0  0  0
   42.8830   23.1980   35.5350 C   0  0  0  0  0  3  0  0  0  0  0  0
   42.3010   23.7420   34.4050 C   0  0  0  0  0  3  0  0  0  0  0  0
   40.9410   24.0190   34.3630 C   0  0  0  0  0  3  0  0  0  0  0  0
   40.2200   23.7250   35.4890 C   0  0  0  0  0  0  0  0  0  0  0  0
   34.8830   30.4190   34.8810 C   0  0  0  0  0  0  0  0  0  0  0  0
   35.8100   31.2710   35.4920 C   0  0  0  0  0  0  0  0  0  0  0  0
   35.3760   32.0940   36.5200 C   0  0  0  0  0  0  0  0  0  0  0  0
   34.0410   32.0310   36.8900 N   0  0  0  0  0  0  0  0  0  0  0  0
   33.1860   31.1910   36.2700 C   0  0  0  0  0  0  0  0  0  0  0  0
   33.5840   30.3970   35.2850 N   0  0  0  0  0  0  0  0  0  0  0  0
   36.8220   31.2270   35.1120 H   0  0  0  0  0  0  0  0  0  0  0  0
   36.0800   32.7430   36.9840 H   0  0  0  0  0  0  0  0  0  0  0  0
   32.1680   31.2020   36.6150 H   0  0  0  0  0  0  0  0  0  0  0  0
  1  2  1  0  0  0  0
  1 36  1  0  0  0  0
  2  7  1  0  0  0  0
  3 17  1  0  0  0  0
  3  9  1  1  0  0  0
  3  2  1  0  0  0  0
  4  5  1  0  0  0  0
  4  3  1  0  0  0  0
  5  6  1  0  0  0  0
  5 12  1  0  0  0  0
  6  1  1  0  0  0  0
  8  2  1  0  0  0  0
 10  4  1  0  0  0  0
 11  5  1  0  0  0  0
 13  6  1  0  0  0  0
 14  6  1  0  0  0  0
 16 15  1  0  0  0  0
 17 16  2  0  0  0  0
 18 19  2  0  0  0  0
 18 17  1  0  0  0  0
 19 20  1  0  0  0  0
 20 24  1  0  0  0  0
 20 21  2  0  0  0  0
 21 16  1  0  0  0  0
 21 25  1  0  0  0  0
 22 18  1  0  0  0  0
 23 19  1  0  0  0  0
 25 35  2  0  0  0  0
 25 26  1  0  0  0  0
 26 27  1  0  0  0  0
 26 28  2  0  0  0  0
 28 29  1  0  0  0  0
 30 31  1  0  0  0  0
 30 29  2  0  0  0  0
 32 31  2  0  0  0  0
 33 32  1  0  0  0  0
 34 33  2  0  0  0  0
 34 35  1  0  0  0  0
 35 30  1  0  0  0  0
 36 41  2  0  0  0  0
 36 37  1  0  0  0  0
 37 38  2  0  0  0  0
 38 39  1  0  0  0  0
 38 43  1  0  0  0  0
 40 44  1  0  0  0  0
 40 39  2  0  0  0  0
 41 40  1  0  0  0  0
 42 37  1  0  0  0  0
M  END
>  <minimizedAffinity>
-6.87728357

$$$$

 OpenBabel03272508413D

 44 48  0  0  1  0  0  0  0  0999 V2000
   39.4380   26.2680   31.8700 N   0  0  0  0  0  0  0  0  0  0  0  0
   38.6020   27.4150   32.2150 C   0  0  0  0  0  0  0  0  0  0  0  0
   37.1650   27.1910   32.0710 C   0  0  2  0  0  0  0  0  0  0  0  0
   36.8330   26.4740   30.8070 N   0  0  0  0  0  0  0  0  0  0  0  0
   37.6320   25.2360   30.7900 C   0  0  0  0  0  0  0  0  0  0  0  0
   39.0460   25.7420   30.6090 C   0  0  0  0  0  0  0  0  0  0  0  0
   38.8980   27.7640   33.1990 H   0  0  0  0  0  0  0  0  0  0  0  0
   38.9080   28.1290   31.3740 H   0  0  0  0  0  0  0  0  0  0  0  0
   36.7170   26.4970   32.8070 H   0  0  0  0  0  0  0  0  0  0  0  0
   35.8570   26.1820   30.8530 H   0  0  0  0  0  0  0  0  0  0  0  0
   37.3110   24.6690   29.8900 H   0  0  0  0  0  0  0  0  0  0  0  0
   37.5030   24.6510   31.7080 H   0  0  0  0  0  0  0  0  0  0  0  0
   39.0050   26.4950   29.7810 H   0  0  0  0  0  0  0  0  0  0  0  0
   39.7260   24.9280   30.2950 H   0  0  0  0  0  0  0  0  0  0  0  0
   36.4010   28.1690   34.7700 Cl  0  0  0  0  0  0  0  0  0  0  0  0
   36.0600   29.0410   33.2750 C   0  0  0  0  0  0  0  0  0  0  0  0
   36.4490   28.4540   32.1000 C   0  0  0  0  0  0  0  0  0  0  0  0
   36.2520   29.0240   30.8300 C   0  0  0  0  0  0  0  0  0  0  0  0
   35.6080   30.2700   30.8270 C   0  0  0  0  0  0  0  0  0  0  0  0
   35.2040   30.8750   32.0230 C   0  0  0  0  0  0  0  0  0  0  0  0
   35.4370   30.2530   33.2200 C   0  0  0  0  0  0  0  0  0  0  0  0
   36.4460   28.8130   29.8090 H   0  0  0  0  0  0  0  0  0  0  0  0
   35.3450   30.8980   29.9940 H   0  0  0  0  0  0  0  0  0  0  0  0
   34.7030   31.8280   32.1080 H   0  0  0  0  0  0  0  0  0  0  0  0
   35.0430   30.8350   34.4960 C   0  0  0  0  0  0  0  0  0  0  0  0
   35.9080   31.7540   35.0480 C   0  0  0  0  0  0  0  0  0  0  0  0
   36.8420   32.0370   34.5600 H   0  0  0  0  0  0  0  0  0  0  0  0
   35.6750   32.3830   36.2390 C   0  0  0  0  0  3  0  0  0  0  0  0
   34.5080   32.0850   36.9340 C   0  0  0  0  0  3  0  0  0  0  0  0
   33.6340   31.1640   36.3880 C   0  0  0  0  0  0  0  0  0  0  0  0
   32.4570   30.8540   37.0760 C   0  0  0  0  0  3  0  0  0  0  0  0
   31.5900   29.9280   36.5160 C   0  0  0  0  0  3  0  0  0  0  0  0
   31.8710   29.3190   35.3080 C   0  0  0  0  0  3  0  0  0  0  0  0
   33.0350   29.6130   34.6120 C   0  0  0  0  0  3  0  0  0  0  0  0
   33.8760   30.5310   35.1820 C   0  0  0  0  0  0  0  0  0  0  0  0
   40.4820   25.8040   32.7050 C   0  0  0  0  0  0  0  0  0  0  0  0
   41.0540   26.6070   33.6980 C   0  0  0  0  0  0  0  0  0  0  0  0
   42.0720   26.0750   34.4750 C   0  0  0  0  0  0  0  0  0  0  0  0
   42.4700   24.7690   34.2290 N   0  0  0  0  0  0  0  0  0  0  0  0
   41.8860   24.0350   33.2580 C   0  0  0  0  0  0  0  0  0  0  0  0
   40.9120   24.5290   32.5060 N   0  0  0  0  0  0  0  0  0  0  0  0
   40.6560   27.6080   33.7910 H   0  0  0  0  0  0  0  0  0  0  0  0
   42.5080   26.6840   35.2310 H   0  0  0  0  0  0  0  0  0  0  0  0
   42.2510   23.0330   33.1300 H   0  0  0  0  0  0  0  0  0  0  0  0
  1  2  1  0  0  0  0
  1 36  1  0  0  0  0
  2  7  1  0  0  0  0
  3 17  1  0  0  0  0
  3  2  1  0  0  0  0
  3  9  1  1  0  0  0
  4 10  1  0  0  0  0
  4  3  1  0  0  0  0
  5  4  1  0  0  0  0
  5 12  1  0  0  0  0
  6  5  1  0  0  0  0
  6  1  1  0  0  0  0
  8  2  1  0  0  0  0
 11  5  1  0  0  0  0
 13  6  1  0  0  0  0
 14  6  1  0  0  0  0
 16 15  1  0  0  0  0
 17 16  2  0  0  0  0
 18 17  1  0  0  0  0
 19 18  2  0  0  0  0
 19 20  1  0  0  0  0
 20 24  1  0  0  0  0
 20 21  2  0  0  0  0
 21 16  1  0  0  0  0
 21 25  1  0  0  0  0
 22 18  1  0  0  0  0
 23 19  1  0  0  0  0
 25 26  2  0  0  0  0
 25 35  1  0  0  0  0
 26 28  1  0  0  0  0
 27 26  1  0  0  0  0
 28 29  2  0  0  0  0
 30 29  1  0  0  0  0
 30 31  1  0  0  0  0
 32 31  2  0  0  0  0
 33 32  1  0  0  0  0
 34 35  1  0  0  0  0
 34 33  2  0  0  0  0
 35 30  2  0  0  0  0
 36 37  1  0  0  0  0
 37 42  1  0  0  0  0
 37 38  2  0  0  0  0
 38 43  1  0  0  0  0
 39 38  1  0  0  0  0
 40 39  2  0  0  0  0
 41 36  2  0  0  0  0
 41 40  1  0  0  0  0
 44 40  1  0  0  0  0
M  END
>  <minimizedAffinity>
-6.68768215

$$$$

 OpenBabel03272508413D

 44 48  0  0  1  0  0  0  0  0999 V2000
   39.5170   25.8780   34.4570 N   0  0  0  0  0  0  0  0  0  0  0  0
   38.4250   26.7570   34.0490 C   0  0  0  0  0  0  0  0  0  0  0  0
   38.1810   26.8020   32.6080 C   0  0  2  0  0  0  0  0  0  0  0  0
   39.4460   26.8970   31.8280 N   0  0  0  0  0  0  0  0  0  0  0  0
   40.3000   25.7720   32.2510 C   0  0  0  0  0  0  0  0  0  0  0  0
   40.6710   26.1380   33.6710 C   0  0  0  0  0  0  0  0  0  0  0  0
   37.5480   26.5020   34.6370 H   0  0  0  0  0  0  0  0  0  0  0  0
   38.8800   27.7670   34.3360 H   0  0  0  0  0  0  0  0  0  0  0  0
   37.7550   25.8800   32.1700 H   0  0  0  0  0  0  0  0  0  0  0  0
   39.2280   26.7350   30.8450 H   0  0  0  0  0  0  0  0  0  0  0  0
   41.2000   25.8020   31.6010 H   0  0  0  0  0  0  0  0  0  0  0  0
   39.7780   24.8110   32.1810 H   0  0  0  0  0  0  0  0  0  0  0  0
   40.9860   27.2120   33.6450 H   0  0  0  0  0  0  0  0  0  0  0  0
   41.5320   25.5400   34.0270 H   0  0  0  0  0  0  0  0  0  0  0  0
   35.9790   27.3640   34.5220 Cl  0  0  0  0  0  0  0  0  0  0  0  0
   36.2970   28.3270   33.0780 C   0  0  0  0  0  0  0  0  0  0  0  0
   37.3320   27.9330   32.2730 C   0  0  0  0  0  0  0  0  0  0  0  0
   37.7120   28.5960   31.0940 C   0  0  0  0  0  0  0  0  0  0  0  0
   36.9430   29.7240   30.7670 C   0  0  0  0  0  0  0  0  0  0  0  0
   35.8810   30.1310   31.5840 C   0  0  0  0  0  0  0  0  0  0  0  0
   35.5790   29.4300   32.7200 C   0  0  0  0  0  0  0  0  0  0  0  0
   38.4350   28.5250   30.3210 H   0  0  0  0  0  0  0  0  0  0  0  0
   37.0330   30.3890   29.9270 H   0  0  0  0  0  0  0  0  0  0  0  0
   35.2420   30.9840   31.4050 H   0  0  0  0  0  0  0  0  0  0  0  0
   34.4880   29.8070   33.6090 C   0  0  0  0  0  0  0  0  0  0  0  0
   33.2450   29.2940   33.3100 C   0  0  0  0  0  0  0  0  0  0  0  0
   33.0790   28.6390   32.4540 H   0  0  0  0  0  0  0  0  0  0  0  0
   32.1270   29.5580   34.0490 C   0  0  0  0  0  3  0  0  0  0  0  0
   32.2430   30.3860   35.1610 C   0  0  0  0  0  3  0  0  0  0  0  0
   33.4850   30.9050   35.4700 C   0  0  0  0  0  0  0  0  0  0  0  0
   33.6170   31.7380   36.5830 C   0  0  0  0  0  3  0  0  0  0  0  0
   34.8710   32.2520   36.8800 C   0  0  0  0  0  3  0  0  0  0  0  0
   35.9720   31.9550   36.1000 C   0  0  0  0  0  3  0  0  0  0  0  0
   35.8600   31.1300   34.9890 C   0  0  0  0  0  3  0  0  0  0  0  0
   34.6140   30.6340   34.7160 C   0  0  0  0  0  0  0  0  0  0  0  0
   39.3870   24.9320   35.5020 C   0  0  0  0  0  0  0  0  0  0  0  0
   38.3260   24.9710   36.4140 C   0  0  0  0  0  0  0  0  0  0  0  0
   38.2720   24.0060   37.4080 C   0  0  0  0  0  0  0  0  0  0  0  0
   39.2740   23.0470   37.4460 N   0  0  0  0  0  0  0  0  0  0  0  0
   40.2760   23.0520   36.5420 C   0  0  0  0  0  0  0  0  0  0  0  0
   40.3440   23.9690   35.5850 N   0  0  0  0  0  0  0  0  0  0  0  0
   37.6090   25.7690   36.2790 H   0  0  0  0  0  0  0  0  0  0  0  0
   37.4660   24.0330   38.1020 H   0  0  0  0  0  0  0  0  0  0  0  0
   41.0130   22.2760   36.6390 H   0  0  0  0  0  0  0  0  0  0  0  0
  1 36  1  0  0  0  0
  2  8  1  0  0  0  0
  2  1  1  0  0  0  0
  2  7  1  0  0  0  0
  3  9  1  6  0  0  0
  3  2  1  0  0  0  0
  4  5  1  0  0  0  0
  4  3  1  0  0  0  0
  5  6  1  0  0  0  0
  6 14  1  0  0  0  0
  6  1  1  0  0  0  0
 10  4  1  0  0  0  0
 11  5  1  0  0  0  0
 12  5  1  0  0  0  0
 13  6  1  0  0  0  0
 16 15  1  0  0  0  0
 17  3  1  0  0  0  0
 17 16  2  0  0  0  0
 18 17  1  0  0  0  0
 19 18  2  0  0  0  0
 19 20  1  0  0  0  0
 20 21  2  0  0  0  0
 21 16  1  0  0  0  0
 21 25  1  0  0  0  0
 22 18  1  0  0  0  0
 23 19  1  0  0  0  0
 24 20  1  0  0  0  0
 25 35  1  0  0  0  0
 26 25  2  0  0  0  0
 26 28  1  0  0  0  0
 27 26  1  0  0  0  0
 28 29  2  0  0  0  0
 29 30  1  0  0  0  0
 30 31  1  0  0  0  0
 31 32  2  0  0  0  0
 33 32  1  0  0  0  0
 34 33  2  0  0  0  0
 35 34  1  0  0  0  0
 35 30  2  0  0  0  0
 36 41  2  0  0  0  0
 36 37  1  0  0  0  0
 37 38  2  0  0  0  0
 38 39  1  0  0  0  0
 38 43  1  0  0  0  0
 40 44  1  0  0  0  0
 40 39  2  0  0  0  0
 41 40  1  0  0  0  0
 42 37  1  0  0  0  0
M  END
>  <minimizedAffinity>
-6.60456848

$$$$

 OpenBabel03272508413D

 44 48  0  0  1  0  0  0  0  0999 V2000
   36.5010   28.5440   31.5110 N   0  0  0  0  0  0  0  0  0  0  0  0
   36.6590   27.3220   32.2960 C   0  0  0  0  0  0  0  0  0  0  0  0
   37.8700   26.5580   32.0030 C   0  0  2  0  0  0  0  0  0  0  0  0
   38.1260   26.4520   30.5390 N   0  0  0  0  0  0  0  0  0  0  0  0
   38.1460   27.8260   30.0040 C   0  0  0  0  0  0  0  0  0  0  0  0
   36.7040   28.2650   30.1320 C   0  0  0  0  0  0  0  0  0  0  0  0
   36.5410   27.5770   33.3450 H   0  0  0  0  0  0  0  0  0  0  0  0
   35.7810   26.7180   31.8800 H   0  0  0  0  0  0  0  0  0  0  0  0
   38.8170   27.0260   32.3290 H   0  0  0  0  0  0  0  0  0  0  0  0
   39.0660   26.0810   30.4060 H   0  0  0  0  0  0  0  0  0  0  0  0
   38.4250   27.7390   28.9320 H   0  0  0  0  0  0  0  0  0  0  0  0
   38.8400   28.4710   30.5550 H   0  0  0  0  0  0  0  0  0  0  0  0
   36.0840   27.4260   29.7290 H   0  0  0  0  0  0  0  0  0  0  0  0
   36.5030   29.1630   29.5170 H   0  0  0  0  0  0  0  0  0  0  0  0
   39.0080   26.2260   34.7270 Cl  0  0  0  0  0  0  0  0  0  0  0  0
   38.2290   24.9280   33.8220 C   0  0  0  0  0  0  0  0  0  0  0  0
   37.7740   25.2210   32.5640 C   0  0  0  0  0  0  0  0  0  0  0  0
   37.1300   24.2980   31.7220 C   0  0  0  0  0  0  0  0  0  0  0  0
   36.9760   23.0090   32.2540 C   0  0  0  0  0  0  0  0  0  0  0  0
   37.4420   22.7000   33.5380 C   0  0  0  0  0  0  0  0  0  0  0  0
   38.0550   23.6600   34.2960 C   0  0  0  0  0  0  0  0  0  0  0  0
   36.6900   24.2510   30.7580 H   0  0  0  0  0  0  0  0  0  0  0  0
   36.5240   22.1390   31.8110 H   0  0  0  0  0  0  0  0  0  0  0  0
   37.3640   21.7360   34.0200 H   0  0  0  0  0  0  0  0  0  0  0  0
   38.5570   23.3990   35.6380 C   0  0  0  0  0  0  0  0  0  0  0  0
   37.7600   23.8070   36.6840 C   0  0  0  0  0  0  0  0  0  0  0  0
   36.8010   24.3020   36.5240 H   0  0  0  0  0  0  0  0  0  0  0  0
   38.0960   23.6320   37.9970 C   0  0  0  0  0  3  0  0  0  0  0  0
   39.3020   23.0100   38.2990 C   0  0  0  0  0  3  0  0  0  0  0  0
   40.1090   22.5960   37.2570 C   0  0  0  0  0  0  0  0  0  0  0  0
   41.3250   21.9700   37.5450 C   0  0  0  0  0  3  0  0  0  0  0  0
   42.1250   21.5610   36.4880 C   0  0  0  0  0  3  0  0  0  0  0  0
   41.7400   21.7610   35.1760 C   0  0  0  0  0  3  0  0  0  0  0  0
   40.5360   22.3830   34.8710 C   0  0  0  0  0  3  0  0  0  0  0  0
   39.7630   22.7770   35.9290 C   0  0  0  0  0  0  0  0  0  0  0  0
   36.1780   29.7910   32.0950 C   0  0  0  0  0  0  0  0  0  0  0  0
   35.5230   29.8890   33.3280 C   0  0  0  0  0  0  0  0  0  0  0  0
   35.2450   31.1510   33.8320 C   0  0  0  0  0  0  0  0  0  0  0  0
   35.6330   32.2550   33.0860 N   0  0  0  0  0  0  0  0  0  0  0  0
   36.2630   32.1070   31.9010 C   0  0  0  0  0  0  0  0  0  0  0  0
   36.5370   30.9070   31.4050 N   0  0  0  0  0  0  0  0  0  0  0  0
   35.2720   28.9550   33.8120 H   0  0  0  0  0  0  0  0  0  0  0  0
   34.7470   31.2270   34.7690 H   0  0  0  0  0  0  0  0  0  0  0  0
   36.5310   33.0100   31.3850 H   0  0  0  0  0  0  0  0  0  0  0  0
  1 36  1  0  0  0  0
  1  2  1  0  0  0  0
  2  7  1  0  0  0  0
  3  2  1  0  0  0  0
  3  9  1  1  0  0  0
  3 17  1  0  0  0  0
  4  3  1  0  0  0  0
  5  6  1  0  0  0  0
  5  4  1  0  0  0  0
  5 12  1  0  0  0  0
  6  1  1  0  0  0  0
  8  2  1  0  0  0  0
 10  4  1  0  0  0  0
 11  5  1  0  0  0  0
 13  6  1  0  0  0  0
 14  6  1  0  0  0  0
 16 21  1  0  0  0  0
 16 15  1  0  0  0  0
 17 16  2  0  0  0  0
 18 19  2  0  0  0  0
 18 17  1  0  0  0  0
 19 20  1  0  0  0  0
 20 24  1  0  0  0  0
 20 21  2  0  0  0  0
 21 25  1  0  0  0  0
 22 18  1  0  0  0  0
 23 19  1  0  0  0  0
 25 35  2  0  0  0  0
 25 26  1  0  0  0  0
 26 28  2  0  0  0  0
 27 26  1  0  0  0  0
 28 29  1  0  0  0  0
 30 31  1  0  0  0  0
 30 29  2  0  0  0  0
 32 31  2  0  0  0  0
 33 32  1  0  0  0  0
 34 33  2  0  0  0  0
 34 35  1  0  0  0  0
 35 30  1  0  0  0  0
 36 37  1  0  0  0  0
 37 42  1  0  0  0  0
 37 38  2  0  0  0  0
 38 43  1  0  0  0  0
 39 38  1  0  0  0  0
 40 39  2  0  0  0  0
 41 40  1  0  0  0  0
 41 36  2  0  0  0  0
 44 40  1  0  0  0  0
M  END
>  <minimizedAffinity>
-6.56289101

$$$$

 OpenBabel03272508413D

 44 48  0  0  1  0  0  0  0  0999 V2000
   40.3470   23.9710   34.2030 N   0  0  0  0  0  0  0  0  0  0  0  0
   39.0190   24.3760   33.7500 C   0  0  0  0  0  0  0  0  0  0  0  0
   38.7290   24.0730   32.3500 C   0  0  2  0  0  0  0  0  0  0  0  0
   39.8730   24.4070   31.4560 N   0  0  0  0  0  0  0  0  0  0  0  0
   41.0550   23.7020   31.9850 C   0  0  0  0  0  0  0  0  0  0  0  0
   41.3330   24.4240   33.2850 C   0  0  0  0  0  0  0  0  0  0  0  0
   38.2880   23.9780   34.4490 H   0  0  0  0  0  0  0  0  0  0  0  0
   39.1350   25.5120   33.8220 H   0  0  0  0  0  0  0  0  0  0  0  0
   38.6090   22.9990   32.1130 H   0  0  0  0  0  0  0  0  0  0  0  0
   39.6890   24.0040   30.5380 H   0  0  0  0  0  0  0  0  0  0  0  0
   41.8780   23.8860   31.2630 H   0  0  0  0  0  0  0  0  0  0  0  0
   40.8670   22.6310   32.1240 H   0  0  0  0  0  0  0  0  0  0  0  0
   41.2860   25.5180   33.0510 H   0  0  0  0  0  0  0  0  0  0  0  0
   42.3500   24.2000   33.6580 H   0  0  0  0  0  0  0  0  0  0  0  0
   39.0410   27.0220   32.1740 Cl  0  0  0  0  0  0  0  0  0  0  0  0
   37.5600   26.1620   31.7500 C   0  0  0  0  0  0  0  0  0  0  0  0
   37.5540   24.8010   31.9060 C   0  0  0  0  0  0  0  0  0  0  0  0
   36.4550   23.9780   31.6090 C   0  0  0  0  0  0  0  0  0  0  0  0
   35.3180   24.6460   31.1290 C   0  0  0  0  0  0  0  0  0  0  0  0
   35.3160   26.0370   30.9690 C   0  0  0  0  0  0  0  0  0  0  0  0
   36.4310   26.7670   31.2790 C   0  0  0  0  0  0  0  0  0  0  0  0
   36.1840   22.9520   31.6230 H   0  0  0  0  0  0  0  0  0  0  0  0
   34.3640   24.2430   30.8370 H   0  0  0  0  0  0  0  0  0  0  0  0
   34.4860   26.6270   30.6080 H   0  0  0  0  0  0  0  0  0  0  0  0
   36.4880   28.2150   31.1310 C   0  0  0  0  0  0  0  0  0  0  0  0
   36.9270   28.6920   29.9160 C   0  0  0  0  0  0  0  0  0  0  0  0
   37.2190   28.0270   29.1020 H   0  0  0  0  0  0  0  0  0  0  0  0
   37.0350   30.0240   29.6270 C   0  0  0  0  0  3  0  0  0  0  0  0
   36.6850   30.9490   30.6060 C   0  0  0  0  0  3  0  0  0  0  0  0
   36.2440   30.4790   31.8280 C   0  0  0  0  0  0  0  0  0  0  0  0
   35.8900   31.3960   32.8210 C   0  0  0  0  0  3  0  0  0  0  0  0
   35.4480   30.9100   34.0430 C   0  0  0  0  0  3  0  0  0  0  0  0
   35.3570   29.5530   34.2850 C   0  0  0  0  0  3  0  0  0  0  0  0
   35.7060   28.6270   33.3110 C   0  0  0  0  0  3  0  0  0  0  0  0
   36.1380   29.1290   32.1130 C   0  0  0  0  0  0  0  0  0  0  0  0
   40.5590   23.2450   35.3990 C   0  0  0  0  0  0  0  0  0  0  0  0
   39.7310   23.3950   36.5180 C   0  0  0  0  0  0  0  0  0  0  0  0
   40.0070   22.6440   37.6510 C   0  0  0  0  0  0  0  0  0  0  0  0
   41.0920   21.7800   37.6160 N   0  0  0  0  0  0  0  0  0  0  0  0
   41.8600   21.6720   36.5110 C   0  0  0  0  0  0  0  0  0  0  0  0
   41.6110   22.3820   35.4200 N   0  0  0  0  0  0  0  0  0  0  0  0
   38.9180   24.1010   36.4190 H   0  0  0  0  0  0  0  0  0  0  0  0
   39.3790   22.7560   38.5020 H   0  0  0  0  0  0  0  0  0  0  0  0
   42.6810   20.9800   36.5640 H   0  0  0  0  0  0  0  0  0  0  0  0
  1 36  1  0  0  0  0
  2  8  1  0  0  0  0
  2  1  1  0  0  0  0
  2  7  1  0  0  0  0
  3  9  1  6  0  0  0
  3  2  1  0  0  0  0
  4  5  1  0  0  0  0
  4  3  1  0  0  0  0
  5 12  1  0  0  0  0
  5  6  1  0  0  0  0
  6 14  1  0  0  0  0
  6  1  1  0  0  0  0
 10  4  1  0  0  0  0
 11  5  1  0  0  0  0
 13  6  1  0  0  0  0
 16 17  1  0  0  0  0
 16 15  1  0  0  0  0
 17  3  1  0  0  0  0
 18 22  1  0  0  0  0
 18 17  2  0  0  0  0
 19 18  1  0  0  0  0
 20 19  2  0  0  0  0
 20 21  1  0  0  0  0
 21 16  2  0  0  0  0
 23 19  1  0  0  0  0
 24 20  1  0  0  0  0
 25 21  1  0  0  0  0
 25 35  1  0  0  0  0
 26 25  2  0  0  0  0
 27 26  1  0  0  0  0
 28 26  1  0  0  0  0
 28 29  2  0  0  0  0
 29 30  1  0  0  0  0
 30 35  2  0  0  0  0
 30 31  1  0  0  0  0
 31 32  2  0  0  0  0
 32 33  1  0  0  0  0
 34 33  2  0  0  0  0
 35 34  1  0  0  0  0
 36 41  2  0  0  0  0
 36 37  1  0  0  0  0
 37 38  2  0  0  0  0
 38 43  1  0  0  0  0
 39 38  1  0  0  0  0
 40 44  1  0  0  0  0
 40 39  2  0  0  0  0
 41 40  1  0  0  0  0
 42 37  1  0  0  0  0
M  END
>  <minimizedAffinity>
-6.54606009

$$$$

 OpenBabel03272508413D

 44 48  0  0  1  0  0  0  0  0999 V2000
   39.5160   25.4380   33.6530 N   0  0  0  0  0  0  0  0  0  0  0  0
   38.6090   26.5820   33.6130 C   0  0  0  0  0  0  0  0  0  0  0  0
   37.7500   26.6420   32.4320 C   0  0  2  0  0  0  0  0  0  0  0  0
   38.4940   26.3330   31.1800 N   0  0  0  0  0  0  0  0  0  0  0  0
   39.1440   25.0240   31.3760 C   0  0  0  0  0  0  0  0  0  0  0  0
   40.2040   25.3190   32.4150 C   0  0  0  0  0  0  0  0  0  0  0  0
   38.0690   26.6190   34.5540 H   0  0  0  0  0  0  0  0  0  0  0  0
   39.3760   27.4250   33.5030 H   0  0  0  0  0  0  0  0  0  0  0  0
   36.9600   25.8690   32.3810 H   0  0  0  0  0  0  0  0  0  0  0  0
   37.8170   26.2040   30.4290 H   0  0  0  0  0  0  0  0  0  0  0  0
   39.6220   24.7630   30.4080 H   0  0  0  0  0  0  0  0  0  0  0  0
   38.4320   24.2560   31.6990 H   0  0  0  0  0  0  0  0  0  0  0  0
   40.7220   26.2520   32.0770 H   0  0  0  0  0  0  0  0  0  0  0  0
   40.9560   24.5090   32.4610 H   0  0  0  0  0  0  0  0  0  0  0  0
   36.2420   27.5860   34.8120 Cl  0  0  0  0  0  0  0  0  0  0  0  0
   36.4470   28.5330   33.3380 C   0  0  0  0  0  0  0  0  0  0  0  0
   37.1460   27.9580   32.3100 C   0  0  0  0  0  0  0  0  0  0  0  0
   37.3970   28.5850   31.0780 C   0  0  0  0  0  0  0  0  0  0  0  0
   36.8710   29.8790   30.9460 C   0  0  0  0  0  0  0  0  0  0  0  0
   36.1520   30.4730   31.9910 C   0  0  0  0  0  0  0  0  0  0  0  0
   35.9550   29.7940   33.1630 C   0  0  0  0  0  0  0  0  0  0  0  0
   37.8880   28.3940   30.1570 H   0  0  0  0  0  0  0  0  0  0  0  0
   36.9250   30.5540   30.1110 H   0  0  0  0  0  0  0  0  0  0  0  0
   35.7140   31.4600   31.9710 H   0  0  0  0  0  0  0  0  0  0  0  0
   35.2190   30.3610   34.2840 C   0  0  0  0  0  0  0  0  0  0  0  0
   35.9430   31.1230   35.1750 C   0  0  0  0  0  0  0  0  0  0  0  0
   37.0130   31.2970   35.0520 H   0  0  0  0  0  0  0  0  0  0  0  0
   35.3920   31.7190   36.2740 C   0  0  0  0  0  3  0  0  0  0  0  0
   34.0320   31.5530   36.5120 C   0  0  0  0  0  3  0  0  0  0  0  0
   33.2970   30.7900   35.6250 C   0  0  0  0  0  0  0  0  0  0  0  0
   31.9290   30.6130   35.8510 C   0  0  0  0  0  3  0  0  0  0  0  0
   31.2040   29.8450   34.9520 C   0  0  0  0  0  3  0  0  0  0  0  0
   31.8080   29.2630   33.8540 C   0  0  0  0  0  3  0  0  0  0  0  0
   33.1660   29.4270   33.6140 C   0  0  0  0  0  3  0  0  0  0  0  0
   33.8610   30.1890   34.5140 C   0  0  0  0  0  0  0  0  0  0  0  0
   39.6550   24.6130   34.7940 C   0  0  0  0  0  0  0  0  0  0  0  0
   38.6290   24.4620   35.7330 C   0  0  0  0  0  0  0  0  0  0  0  0
   38.8460   23.6320   36.8230 C   0  0  0  0  0  0  0  0  0  0  0  0
   40.0720   22.9910   36.9250 N   0  0  0  0  0  0  0  0  0  0  0  0
   41.0300   23.1700   35.9910 C   0  0  0  0  0  0  0  0  0  0  0  0
   40.8390   23.9600   34.9430 N   0  0  0  0  0  0  0  0  0  0  0  0
   37.7200   25.0150   35.5410 H   0  0  0  0  0  0  0  0  0  0  0  0
   38.0670   23.5160   37.5380 H   0  0  0  0  0  0  0  0  0  0  0  0
   41.9520   22.6390   36.1420 H   0  0  0  0  0  0  0  0  0  0  0  0
  1 36  1  0  0  0  0
  2  1  1  0  0  0  0
  2  7  1  0  0  0  0
  3  9  1  1  0  0  0
  3  2  1  0  0  0  0
  4  5  1  0  0  0  0
  4  3  1  0  0  0  0
  5 12  1  0  0  0  0
  5  6  1  0  0  0  0
  6 14  1  0  0  0  0
  6  1  1  0  0  0  0
  8  2  1  0  0  0  0
 10  4  1  0  0  0  0
 11  5  1  0  0  0  0
 13  6  1  0  0  0  0
 16 15  1  0  0  0  0
 17  3  1  0  0  0  0
 17 16  2  0  0  0  0
 18 17  1  0  0  0  0
 19 18  2  0  0  0  0
 19 20  1  0  0  0  0
 20 21  2  0  0  0  0
 21 16  1  0  0  0  0
 21 25  1  0  0  0  0
 22 18  1  0  0  0  0
 23 19  1  0  0  0  0
 24 20  1  0  0  0  0
 25 35  2  0  0  0  0
 25 26  1  0  0  0  0
 26 28  2  0  0  0  0
 27 26  1  0  0  0  0
 28 29  1  0  0  0  0
 30 31  1  0  0  0  0
 30 29  2  0  0  0  0
 32 31  2  0  0  0  0
 33 32  1  0  0  0  0
 34 33  2  0  0  0  0
 34 35  1  0  0  0  0
 35 30  1  0  0  0  0
 36 41  2  0  0  0  0
 36 37  1  0  0  0  0
 37 38  2  0  0  0  0
 38 39  1  0  0  0  0
 38 43  1  0  0  0  0
 40 44  1  0  0  0  0
 40 39  2  0  0  0  0
 41 40  1  0  0  0  0
 42 37  1  0  0  0  0
M  END
>  <minimizedAffinity>
-6.45423603

$$$$

 OpenBabel03272508413D

 44 48  0  0  1  0  0  0  0  0999 V2000
   40.3370   24.0240   34.2420 N   0  0  0  0  0  0  0  0  0  0  0  0
   38.9920   24.3980   33.8130 C   0  0  0  0  0  0  0  0  0  0  0  0
   38.7050   24.1430   32.4030 C   0  0  2  0  0  0  0  0  0  0  0  0
   39.8300   24.5570   31.5180 N   0  0  0  0  0  0  0  0  0  0  0  0
   41.0400   23.8750   32.0120 C   0  0  0  0  0  0  0  0  0  0  0  0
   41.2990   24.5520   33.3400 C   0  0  0  0  0  0  0  0  0  0  0  0
   38.2810   23.9440   34.4970 H   0  0  0  0  0  0  0  0  0  0  0  0
   39.0660   25.5340   33.9330 H   0  0  0  0  0  0  0  0  0  0  0  0
   38.6230   23.0770   32.1210 H   0  0  0  0  0  0  0  0  0  0  0  0
   39.6550   24.1860   30.5850 H   0  0  0  0  0  0  0  0  0  0  0  0
   41.8520   24.1200   31.2940 H   0  0  0  0  0  0  0  0  0  0  0  0
   40.8930   22.7930   32.1060 H   0  0  0  0  0  0  0  0  0  0  0  0
   41.2100   25.6520   33.1530 H   0  0  0  0  0  0  0  0  0  0  0  0
   42.3260   24.3500   33.6990 H   0  0  0  0  0  0  0  0  0  0  0  0
   38.7820   27.0980   32.7010 Cl  0  0  0  0  0  0  0  0  0  0  0  0
   37.4040   26.2110   32.0490 C   0  0  0  0  0  0  0  0  0  0  0  0
   37.5010   24.8460   31.9950 C   0  0  0  0  0  0  0  0  0  0  0  0
   36.4920   24.0020   31.5010 C   0  0  0  0  0  0  0  0  0  0  0  0
   35.3330   24.6530   31.0510 C   0  0  0  0  0  0  0  0  0  0  0  0
   35.2250   26.0480   31.1060 C   0  0  0  0  0  0  0  0  0  0  0  0
   36.2580   26.7980   31.6000 C   0  0  0  0  0  0  0  0  0  0  0  0
   36.3060   22.9700   31.3400 H   0  0  0  0  0  0  0  0  0  0  0  0
   34.4340   24.2330   30.6360 H   0  0  0  0  0  0  0  0  0  0  0  0
   34.3720   26.6260   30.7830 H   0  0  0  0  0  0  0  0  0  0  0  0
   36.2040   28.2520   31.6790 C   0  0  0  0  0  0  0  0  0  0  0  0
   35.6600   28.7870   32.8260 C   0  0  0  0  0  0  0  0  0  0  0  0
   35.2880   28.1600   33.6380 H   0  0  0  0  0  0  0  0  0  0  0  0
   35.5420   30.1300   33.0450 C   0  0  0  0  0  3  0  0  0  0  0  0
   35.9910   31.0080   32.0640 C   0  0  0  0  0  3  0  0  0  0  0  0
   36.5370   30.4820   30.9100 C   0  0  0  0  0  0  0  0  0  0  0  0
   36.9920   31.3510   29.9150 C   0  0  0  0  0  3  0  0  0  0  0  0
   37.5380   30.8080   28.7610 C   0  0  0  0  0  3  0  0  0  0  0  0
   37.6360   29.4410   28.5880 C   0  0  0  0  0  3  0  0  0  0  0  0
   37.1880   28.5620   29.5650 C   0  0  0  0  0  3  0  0  0  0  0  0
   36.6540   29.1200   30.6950 C   0  0  0  0  0  0  0  0  0  0  0  0
   40.5830   23.2570   35.4060 C   0  0  0  0  0  0  0  0  0  0  0  0
   39.7690   23.3450   36.5410 C   0  0  0  0  0  0  0  0  0  0  0  0
   40.0780   22.5570   37.6400 C   0  0  0  0  0  0  0  0  0  0  0  0
   41.1810   21.7190   37.5550 N   0  0  0  0  0  0  0  0  0  0  0  0
   41.9350   21.6710   36.4370 C   0  0  0  0  0  0  0  0  0  0  0  0
   41.6530   22.4180   35.3770 N   0  0  0  0  0  0  0  0  0  0  0  0
   38.9390   24.0360   36.4820 H   0  0  0  0  0  0  0  0  0  0  0  0
   39.4610   22.6210   38.5030 H   0  0  0  0  0  0  0  0  0  0  0  0
   42.7710   20.9970   36.4510 H   0  0  0  0  0  0  0  0  0  0  0  0
  1 36  1  0  0  0  0
  2  8  1  0  0  0  0
  2  1  1  0  0  0  0
  2  7  1  0  0  0  0
  3  9  1  6  0  0  0
  3  2  1  0  0  0  0
  4  5  1  0  0  0  0
  4  3  1  0  0  0  0
  5 12  1  0  0  0  0
  5  6  1  0  0  0  0
  6 14  1  0  0  0  0
  6  1  1  0  0  0  0
 10  4  1  0  0  0  0
 11  5  1  0  0  0  0
 13  6  1  0  0  0  0
 16 15  1  0  0  0  0
 17 16  1  0  0  0  0
 17  3  1  0  0  0  0
 18 17  2  0  0  0  0
 19 20  2  0  0  0  0
 19 18  1  0  0  0  0
 20 21  1  0  0  0  0
 21 25  1  0  0  0  0
 21 16  2  0  0  0  0
 22 18  1  0  0  0  0
 23 19  1  0  0  0  0
 24 20  1  0  0  0  0
 25 26  1  0  0  0  0
 26 28  2  0  0  0  0
 26 27  1  0  0  0  0
 29 28  1  0  0  0  0
 30 29  2  0  0  0  0
 31 30  1  0  0  0  0
 32 31  2  0  0  0  0
 33 32  1  0  0  0  0
 33 34  2  0  0  0  0
 34 35  1  0  0  0  0
 35 30  1  0  0  0  0
 35 25  2  0  0  0  0
 36 37  1  0  0  0  0
 37 38  2  0  0  0  0
 38 43  1  0  0  0  0
 39 38  1  0  0  0  0
 40 44  1  0  0  0  0
 40 39  2  0  0  0  0
 41 36  2  0  0  0  0
 41 40  1  0  0  0  0
 42 37  1  0  0  0  0
M  END
>  <minimizedAffinity>
-6.40675926

$$$$

 OpenBabel03272508413D

 44 48  0  0  1  0  0  0  0  0999 V2000
   34.3570   32.0260   35.3840 N   0  0  0  0  0  0  0  0  0  0  0  0
   35.2880   31.6110   34.3380 C   0  0  0  0  0  0  0  0  0  0  0  0
   34.6590   31.2120   33.0810 C   0  0  2  0  0  0  0  0  0  0  0  0
   33.4680   30.3440   33.3010 N   0  0  0  0  0  0  0  0  0  0  0  0
   32.5660   31.0730   34.2120 C   0  0  0  0  0  0  0  0  0  0  0  0
   33.3210   31.0640   35.5230 C   0  0  0  0  0  0  0  0  0  0  0  0
   36.0400   32.3870   34.2290 H   0  0  0  0  0  0  0  0  0  0  0  0
   35.6960   30.6560   34.8190 H   0  0  0  0  0  0  0  0  0  0  0  0
   34.1940   32.0310   32.5020 H   0  0  0  0  0  0  0  0  0  0  0  0
   32.9690   30.2570   32.4160 H   0  0  0  0  0  0  0  0  0  0  0  0
   31.6450   30.4580   34.2970 H   0  0  0  0  0  0  0  0  0  0  0  0
   32.3480   32.0850   33.8510 H   0  0  0  0  0  0  0  0  0  0  0  0
   33.6760   30.0130   35.6720 H   0  0  0  0  0  0  0  0  0  0  0  0
   32.6560   31.3210   36.3690 H   0  0  0  0  0  0  0  0  0  0  0  0
   35.5900   28.5910   34.1260 Cl  0  0  0  0  0  0  0  0  0  0  0  0
   36.1030   29.2720   32.5810 C   0  0  0  0  0  0  0  0  0  0  0  0
   35.6100   30.5040   32.2410 C   0  0  0  0  0  0  0  0  0  0  0  0
   35.9200   31.1760   31.0460 C   0  0  0  0  0  0  0  0  0  0  0  0
   36.7980   30.4960   30.1880 C   0  0  0  0  0  0  0  0  0  0  0  0
   37.3080   29.2380   30.5300 C   0  0  0  0  0  0  0  0  0  0  0  0
   36.9520   28.6510   31.7140 C   0  0  0  0  0  0  0  0  0  0  0  0
   35.6930   32.0820   30.5440 H   0  0  0  0  0  0  0  0  0  0  0  0
   37.1820   30.7980   29.2300 H   0  0  0  0  0  0  0  0  0  0  0  0
   37.9870   28.6500   29.9290 H   0  0  0  0  0  0  0  0  0  0  0  0
   37.4490   27.3430   32.1220 C   0  0  0  0  0  0  0  0  0  0  0  0
   38.6390   27.3260   32.8160 C   0  0  0  0  0  0  0  0  0  0  0  0
   39.1860   28.2390   33.0510 H   0  0  0  0  0  0  0  0  0  0  0  0
   39.2290   26.1780   33.2640 C   0  0  0  0  0  3  0  0  0  0  0  0
   38.6030   24.9630   33.0100 C   0  0  0  0  0  3  0  0  0  0  0  0
   37.4090   24.9700   32.3150 C   0  0  0  0  0  0  0  0  0  0  0  0
   36.7680   23.7560   32.0510 C   0  0  0  0  0  3  0  0  0  0  0  0
   35.5700   23.7790   31.3520 C   0  0  0  0  0  3  0  0  0  0  0  0
   35.0130   24.9680   30.9200 C   0  0  0  0  0  3  0  0  0  0  0  0
   35.6360   26.1830   31.1710 C   0  0  0  0  0  3  0  0  0  0  0  0
   36.8160   26.1360   31.8630 C   0  0  0  0  0  0  0  0  0  0  0  0
   34.5240   33.2190   36.1270 C   0  0  0  0  0  0  0  0  0  0  0  0
   33.9400   33.4000   37.3860 C   0  0  0  0  0  0  0  0  0  0  0  0
   34.1540   34.5990   38.0490 C   0  0  0  0  0  0  0  0  0  0  0  0
   34.9400   35.5590   37.4290 N   0  0  0  0  0  0  0  0  0  0  0  0
   35.4800   35.3360   36.2120 C   0  0  0  0  0  0  0  0  0  0  0  0
   35.2850   34.1960   35.5640 N   0  0  0  0  0  0  0  0  0  0  0  0
   33.3500   32.5760   37.7620 H   0  0  0  0  0  0  0  0  0  0  0  0
   33.7120   34.7380   39.0070 H   0  0  0  0  0  0  0  0  0  0  0  0
   36.0750   36.1300   35.8000 H   0  0  0  0  0  0  0  0  0  0  0  0
  1  6  1  0  0  0  0
  1 36  1  0  0  0  0
  2  8  1  0  0  0  0
  2  1  1  0  0  0  0
  3  9  1  6  0  0  0
  3  4  1  0  0  0  0
  3  2  1  0  0  0  0
  4  5  1  0  0  0  0
  5 11  1  0  0  0  0
  5  6  1  0  0  0  0
  6 13  1  0  0  0  0
  6 14  1  0  0  0  0
  7  2  1  0  0  0  0
 10  4  1  0  0  0  0
 12  5  1  0  0  0  0
 16 15  1  0  0  0  0
 17 16  1  0  0  0  0
 17  3  1  0  0  0  0
 18 17  2  0  0  0  0
 19 20  2  0  0  0  0
 19 18  1  0  0  0  0
 20 21  1  0  0  0  0
 21 25  1  0  0  0  0
 21 16  2  0  0  0  0
 22 18  1  0  0  0  0
 23 19  1  0  0  0  0
 24 20  1  0  0  0  0
 25 26  1  0  0  0  0
 26 27  1  0  0  0  0
 26 28  2  0  0  0  0
 29 28  1  0  0  0  0
 30 29  2  0  0  0  0
 31 30  1  0  0  0  0
 32 31  2  0  0  0  0
 33 34  2  0  0  0  0
 33 32  1  0  0  0  0
 34 35  1  0  0  0  0
 35 25  2  0  0  0  0
 35 30  1  0  0  0  0
 36 37  1  0  0  0  0
 37 42  1  0  0  0  0
 37 38  2  0  0  0  0
 38 43  1  0  0  0  0
 39 38  1  0  0  0  0
 40 39  2  0  0  0  0
 41 36  2  0  0  0  0
 41 40  1  0  0  0  0
 44 40  1  0  0  0  0
M  END
>  <minimizedAffinity>
-6.28132677

$$$$
