
 OpenBabel03272502233D

 31 34  0  0  0  0  0  0  0  0999 V2000
   37.0680   29.5910   49.9250 C   0  0  0  0  0  0  0  0  0  0  0  0
   37.6790   30.3240   48.9110 C   0  0  0  0  0  0  0  0  0  0  0  0
   36.9990   30.4330   47.7230 C   0  0  0  0  0  0  0  0  0  0  0  0
   35.8110   29.8240   47.6490 N   0  0  0  0  0  0  0  0  0  0  0  0
   35.2150   29.1160   48.6170 C   0  0  0  0  0  0  0  0  0  0  0  0
   35.8870   29.0150   49.7760 N   0  0  0  0  0  0  0  0  0  0  0  0
   37.5860   29.4930   50.8680 H   0  0  0  0  0  0  0  0  0  0  0  0
   38.6390   30.8100   48.9870 H   0  0  0  0  0  0  0  0  0  0  0  0
   33.9100   28.5710   48.2210 C   0  0  0  0  0  0  0  0  0  0  0  0
   32.9690   28.2610   49.1860 C   0  0  0  0  0  0  0  0  0  0  0  0
   33.1520   28.4060   50.2470 H   0  0  0  0  0  0  0  0  0  0  0  0
   31.7250   27.7460   48.8950 C   0  0  0  0  0  0  0  0  0  0  0  0
   31.3580   27.5120   47.6050 C   0  0  0  0  0  0  0  0  0  0  0  0
   32.2650   27.8060   46.6250 C   0  0  0  0  0  0  0  0  0  0  0  0
   31.8950   27.5680   45.3160 C   0  0  0  0  0  0  0  0  0  0  0  0
   32.7590   27.8390   44.2710 C   0  0  0  0  0  0  0  0  0  0  0  0
   34.0130   28.3610   44.6060 C   0  0  0  0  0  0  0  0  0  0  0  0
   34.3280   28.5790   45.9250 C   0  0  0  0  0  0  0  0  0  0  0  0
   33.4860   28.3160   46.9620 C   0  0  0  0  0  0  0  0  0  0  0  0
   37.4810   31.1600   46.5350 C   0  0  0  0  0  0  0  0  0  0  0  0
   36.8220   31.1030   45.3170 C   0  0  0  0  0  0  0  0  0  0  0  0
   37.2790   31.7840   44.2030 C   0  0  0  0  0  0  0  0  0  0  0  0
   38.4030   32.5300   44.2980 N   0  0  0  0  0  0  0  0  0  0  0  0
   39.0170   32.5660   45.4840 C   0  0  0  0  0  0  0  0  0  0  0  0
   38.5950   31.9160   46.5790 N   0  0  0  0  0  0  0  0  0  0  0  0
   35.9230   30.5050   45.2450 H   0  0  0  0  0  0  0  0  0  0  0  0
   36.7080   31.6880   43.2930 H   0  0  0  0  0  0  0  0  0  0  0  0
   40.2650   33.3820   45.6280 C   0  0  0  0  0  0  0  0  0  0  0  0
   40.2860   33.9290   46.8980 F   0  0  0  0  0  0  0  0  0  0  0  0
   41.4000   32.5880   45.3980 F   0  0  0  0  0  0  0  0  0  0  0  0
   40.2970   34.4100   44.7380 F   0  0  0  0  0  0  0  0  0  0  0  0
  1  7  1  0  0  0  0
  2  8  1  0  0  0  0
  2  1  2  0  0  0  0
  3  2  1  0  0  0  0
  4  3  2  0  0  0  0
  4  5  1  0  0  0  0
  5  6  2  0  0  0  0
  6  1  1  0  0  0  0
  9  5  1  0  0  0  0
  9 10  1  0  0  0  0
 10 11  1  0  0  0  0
 12 10  2  0  0  0  0
 13 12  1  0  0  0  0
 14 19  1  0  0  0  0
 14 13  2  0  0  0  0
 15 14  1  0  0  0  0
 16 17  1  0  0  0  0
 16 15  2  0  0  0  0
 17 18  2  0  0  0  0
 18 19  1  0  0  0  0
 19  9  2  0  0  0  0
 20 25  1  0  0  0  0
 20  3  1  0  0  0  0
 21 20  2  0  0  0  0
 22 23  2  0  0  0  0
 22 21  1  0  0  0  0
 23 24  1  0  0  0  0
 24 28  1  0  0  0  0
 24 25  2  0  0  0  0
 26 21  1  0  0  0  0
 27 22  1  0  0  0  0
 28 29  1  0  0  0  0
 30 28  1  0  0  0  0
 31 28  1  0  0  0  0
M  END
>  <minimizedAffinity>
-6.52203369

>  <minimizedRMSD>
2.20027685

$$$$
