
 OpenBabel03272508353D

 33 36  0  0  0  0  0  0  0  0999 V2000
   36.2750   27.6540   33.0530 C   0  0  0  0  0  0  0  0  0  0  0  0
   35.2980   27.1480   33.1280 H   0  0  0  0  0  0  0  0  0  0  0  0
   36.7580   27.3130   32.1110 H   0  0  0  0  0  0  0  0  0  0  0  0
   38.0560   25.9120   35.6380 C   0  0  0  0  0  0  0  0  0  0  0  0
   38.2930   27.2190   35.9810 C   0  0  0  0  0  0  0  0  0  0  0  0
   37.6550   28.0360   35.0550 C   0  0  0  0  0  0  0  0  0  0  0  0
   37.0570   27.1910   34.1890 N   0  0  0  0  0  0  0  0  0  0  0  0
   37.2950   25.9260   34.5350 N   0  0  0  0  0  0  0  0  0  0  0  0
   38.8790   27.6020   36.8320 H   0  0  0  0  0  0  0  0  0  0  0  0
   37.6890   29.1150   35.1040 H   0  0  0  0  0  0  0  0  0  0  0  0
   38.6700   23.2820   38.2640 C   0  0  0  0  0  0  0  0  0  0  0  0
   38.0770   24.3710   37.6360 C   0  0  0  0  0  0  0  0  0  0  0  0
   38.5810   24.7900   36.4010 C   0  0  0  0  0  0  0  0  0  0  0  0
   39.6300   24.0820   35.9120 N   0  0  0  0  0  0  0  0  0  0  0  0
   40.1860   23.0270   36.5460 C   0  0  0  0  0  0  0  0  0  0  0  0
   39.6980   22.6330   37.7260 N   0  0  0  0  0  0  0  0  0  0  0  0
   38.2460   22.9900   39.2240 H   0  0  0  0  0  0  0  0  0  0  0  0
   37.2400   24.9330   38.0310 H   0  0  0  0  0  0  0  0  0  0  0  0
   41.0160   22.5590   36.0370 H   0  0  0  0  0  0  0  0  0  0  0  0
   36.1640   29.1760   33.0820 C   0  0  0  0  0  0  0  0  0  0  0  0
   36.9850   29.5480   33.7520 H   0  0  0  0  0  0  0  0  0  0  0  0
   36.3150   29.5690   32.0610 H   0  0  0  0  0  0  0  0  0  0  0  0
   34.8380   29.6050   33.5900 C   0  0  0  0  0  0  0  0  0  0  0  0
   33.7070   29.1080   32.9300 C   0  0  0  0  0  0  0  0  0  0  0  0
   33.8550   28.4530   32.0760 H   0  0  0  0  0  0  0  0  0  0  0  0
   32.3960   29.3730   33.2650 C   0  0  0  0  0  3  0  0  0  0  0  0
   32.1820   30.2040   34.3480 C   0  0  0  0  0  3  0  0  0  0  0  0
   33.2860   30.7150   35.0260 C   0  0  0  0  0  0  0  0  0  0  0  0
   33.0400   31.5480   36.1020 C   0  0  0  0  0  3  0  0  0  0  0  0
   34.1560   32.0590   36.7680 C   0  0  0  0  0  3  0  0  0  0  0  0
   35.4350   31.7640   36.3940 C   0  0  0  0  0  3  0  0  0  0  0  0
   35.6770   30.9280   35.3140 C   0  0  0  0  0  3  0  0  0  0  0  0
   34.5910   30.4300   34.6650 C   0  0  0  0  0  0  0  0  0  0  0  0
  1 20  1  0  0  0  0
  1  2  1  0  0  0  0
  1  7  1  0  0  0  0
  3  1  1  0  0  0  0
  4  5  1  0  0  0  0
  4 13  1  0  0  0  0
  5  9  1  0  0  0  0
  6 10  1  0  0  0  0
  6  5  2  0  0  0  0
  7  8  1  0  0  0  0
  7  6  1  0  0  0  0
  8  4  2  0  0  0  0
 11 17  1  0  0  0  0
 12 18  1  0  0  0  0
 12 11  2  0  0  0  0
 13 12  1  0  0  0  0
 14 13  2  0  0  0  0
 14 15  1  0  0  0  0
 15 16  2  0  0  0  0
 16 11  1  0  0  0  0
 19 15  1  0  0  0  0
 20 23  1  0  0  0  0
 20 21  1  0  0  0  0
 22 20  1  0  0  0  0
 23 33  1  0  0  0  0
 24 26  1  0  0  0  0
 24 23  2  0  0  0  0
 25 24  1  0  0  0  0
 26 27  2  0  0  0  0
 27 28  1  0  0  0  0
 28 29  1  0  0  0  0
 29 30  2  0  0  0  0
 31 30  1  0  0  0  0
 32 31  2  0  0  0  0
 33 28  2  0  0  0  0
 33 32  1  0  0  0  0
M  END
>  <minimizedAffinity>
-6.0398469

$$$$

 OpenBabel03272508353D

 33 36  0  0  0  0  0  0  0  0999 V2000
   36.9110   25.9230   31.7800 C   0  0  0  0  0  0  0  0  0  0  0  0
   37.8670   25.8970   31.2280 H   0  0  0  0  0  0  0  0  0  0  0  0
   36.4250   26.8980   31.5640 H   0  0  0  0  0  0  0  0  0  0  0  0
   37.9680   25.1630   35.1260 C   0  0  0  0  0  0  0  0  0  0  0  0
   37.5240   26.4530   35.2690 C   0  0  0  0  0  0  0  0  0  0  0  0
   37.0720   26.9000   34.0330 C   0  0  0  0  0  0  0  0  0  0  0  0
   37.2600   25.8620   33.1910 N   0  0  0  0  0  0  0  0  0  0  0  0
   37.7940   24.8270   33.8400 N   0  0  0  0  0  0  0  0  0  0  0  0
   37.5080   27.0680   36.1830 H   0  0  0  0  0  0  0  0  0  0  0  0
   36.6690   27.8910   33.8790 H   0  0  0  0  0  0  0  0  0  0  0  0
   38.5860   23.5880   38.4910 C   0  0  0  0  0  0  0  0  0  0  0  0
   37.9710   24.3710   37.5220 C   0  0  0  0  0  0  0  0  0  0  0  0
   38.5100   24.3900   36.2320 C   0  0  0  0  0  0  0  0  0  0  0  0
   39.6140   23.6250   36.0350 N   0  0  0  0  0  0  0  0  0  0  0  0
   40.1910   22.8740   36.9970 C   0  0  0  0  0  0  0  0  0  0  0  0
   39.6680   22.8620   38.2270 N   0  0  0  0  0  0  0  0  0  0  0  0
   38.1330   23.6040   39.4810 H   0  0  0  0  0  0  0  0  0  0  0  0
   37.0910   24.9800   37.6840 H   0  0  0  0  0  0  0  0  0  0  0  0
   41.0640   22.3160   36.6960 H   0  0  0  0  0  0  0  0  0  0  0  0
   35.9830   24.7650   31.4210 C   0  0  0  0  0  0  0  0  0  0  0  0
   35.3560   24.5590   32.3300 H   0  0  0  0  0  0  0  0  0  0  0  0
   35.3300   25.0720   30.5850 H   0  0  0  0  0  0  0  0  0  0  0  0
   36.7570   23.5610   31.0330 C   0  0  0  0  0  0  0  0  0  0  0  0
   37.9670   23.7650   30.3580 C   0  0  0  0  0  0  0  0  0  0  0  0
   38.2690   24.7850   30.1390 H   0  0  0  0  0  0  0  0  0  0  0  0
   38.8330   22.7780   29.9370 C   0  0  0  0  0  3  0  0  0  0  0  0
   38.4720   21.4720   30.2050 C   0  0  0  0  0  3  0  0  0  0  0  0
   37.2730   21.2350   30.8740 C   0  0  0  0  0  0  0  0  0  0  0  0
   36.9360   19.9160   31.1230 C   0  0  0  0  0  3  0  0  0  0  0  0
   35.7290   19.6930   31.7890 C   0  0  0  0  0  3  0  0  0  0  0  0
   34.9080   20.7090   32.1850 C   0  0  0  0  0  3  0  0  0  0  0  0
   35.2500   22.0290   31.9330 C   0  0  0  0  0  3  0  0  0  0  0  0
   36.4250   22.2470   31.2850 C   0  0  0  0  0  0  0  0  0  0  0  0
  1  7  1  0  0  0  0
  2  1  1  0  0  0  0
  3  1  1  0  0  0  0
  4  5  1  0  0  0  0
  4 13  1  0  0  0  0
  5  9  1  0  0  0  0
  6  5  2  0  0  0  0
  7  8  1  0  0  0  0
  7  6  1  0  0  0  0
  8  4  2  0  0  0  0
 10  6  1  0  0  0  0
 11 17  1  0  0  0  0
 12 18  1  0  0  0  0
 12 11  2  0  0  0  0
 13 12  1  0  0  0  0
 14 13  2  0  0  0  0
 14 15  1  0  0  0  0
 15 16  2  0  0  0  0
 16 11  1  0  0  0  0
 19 15  1  0  0  0  0
 20  1  1  0  0  0  0
 20 21  1  0  0  0  0
 22 20  1  0  0  0  0
 23 33  1  0  0  0  0
 23 20  1  0  0  0  0
 24 23  2  0  0  0  0
 25 24  1  0  0  0  0
 26 27  2  0  0  0  0
 26 24  1  0  0  0  0
 27 28  1  0  0  0  0
 28 29  2  0  0  0  0
 28 33  1  0  0  0  0
 29 30  1  0  0  0  0
 30 31  2  0  0  0  0
 32 31  1  0  0  0  0
 33 32  2  0  0  0  0
M  END
>  <minimizedAffinity>
-5.97896481

$$$$

 OpenBabel03272508353D

 33 36  0  0  0  0  0  0  0  0999 V2000
   37.7590   25.4120   33.7990 C   0  0  0  0  0  0  0  0  0  0  0  0
   37.9140   25.0040   32.7860 H   0  0  0  0  0  0  0  0  0  0  0  0
   37.0780   24.7190   34.3390 H   0  0  0  0  0  0  0  0  0  0  0  0
   36.1000   28.5900   34.0090 C   0  0  0  0  0  0  0  0  0  0  0  0
   36.2180   28.4360   32.6510 C   0  0  0  0  0  0  0  0  0  0  0  0
   36.8560   27.2260   32.4020 C   0  0  0  0  0  0  0  0  0  0  0  0
   37.0960   26.6950   33.6200 N   0  0  0  0  0  0  0  0  0  0  0  0
   36.6470   27.5060   34.5770 N   0  0  0  0  0  0  0  0  0  0  0  0
   35.8840   29.1230   31.8580 H   0  0  0  0  0  0  0  0  0  0  0  0
   37.0690   26.8710   31.4040 H   0  0  0  0  0  0  0  0  0  0  0  0
   33.6750   31.2790   35.0470 C   0  0  0  0  0  0  0  0  0  0  0  0
   34.1500   30.1420   34.4040 C   0  0  0  0  0  0  0  0  0  0  0  0
   35.4760   29.7540   34.6180 C   0  0  0  0  0  0  0  0  0  0  0  0
   36.2010   30.5390   35.4540 N   0  0  0  0  0  0  0  0  0  0  0  0
   35.7120   31.6390   36.0660 C   0  0  0  0  0  0  0  0  0  0  0  0
   34.4430   32.0020   35.8560 N   0  0  0  0  0  0  0  0  0  0  0  0
   32.6380   31.5440   34.8520 H   0  0  0  0  0  0  0  0  0  0  0  0
   33.5680   29.5190   33.7370 H   0  0  0  0  0  0  0  0  0  0  0  0
   36.4040   32.1670   36.7050 H   0  0  0  0  0  0  0  0  0  0  0  0
   39.0600   25.6010   34.5740 C   0  0  0  0  0  0  0  0  0  0  0  0
   39.8960   25.3370   33.8720 H   0  0  0  0  0  0  0  0  0  0  0  0
   39.1520   26.6610   34.8730 H   0  0  0  0  0  0  0  0  0  0  0  0
   39.0950   24.7370   35.7790 C   0  0  0  0  0  0  0  0  0  0  0  0
   38.1020   24.9450   36.7460 C   0  0  0  0  0  0  0  0  0  0  0  0
   37.3730   25.7310   36.5750 H   0  0  0  0  0  0  0  0  0  0  0  0
   37.9560   24.2320   37.9170 C   0  0  0  0  0  3  0  0  0  0  0  0
   38.8710   23.2260   38.1570 C   0  0  0  0  0  3  0  0  0  0  0  0
   39.8720   22.9950   37.2150 C   0  0  0  0  0  0  0  0  0  0  0  0
   40.7760   21.9850   37.4860 C   0  0  0  0  0  3  0  0  0  0  0  0
   41.7770   21.7680   36.5370 C   0  0  0  0  0  3  0  0  0  0  0  0
   41.8770   22.5040   35.3910 C   0  0  0  0  0  3  0  0  0  0  0  0
   40.9670   23.5160   35.1250 C   0  0  0  0  0  3  0  0  0  0  0  0
   39.9930   23.7280   36.0480 C   0  0  0  0  0  0  0  0  0  0  0  0
  1  3  1  0  0  0  0
  1 20  1  0  0  0  0
  2  1  1  0  0  0  0
  4  8  2  0  0  0  0
  4 13  1  0  0  0  0
  5  4  1  0  0  0  0
  6  5  2  0  0  0  0
  6  7  1  0  0  0  0
  7  1  1  0  0  0  0
  7  8  1  0  0  0  0
  9  5  1  0  0  0  0
 10  6  1  0  0  0  0
 11 16  1  0  0  0  0
 12 13  1  0  0  0  0
 12 11  2  0  0  0  0
 13 14  2  0  0  0  0
 14 15  1  0  0  0  0
 15 19  1  0  0  0  0
 16 15  2  0  0  0  0
 17 11  1  0  0  0  0
 18 12  1  0  0  0  0
 20 22  1  0  0  0  0
 20 23  1  0  0  0  0
 21 20  1  0  0  0  0
 23 33  2  0  0  0  0
 23 24  1  0  0  0  0
 24 26  2  0  0  0  0
 25 24  1  0  0  0  0
 26 27  1  0  0  0  0
 28 29  1  0  0  0  0
 28 27  2  0  0  0  0
 30 29  2  0  0  0  0
 31 30  1  0  0  0  0
 32 31  2  0  0  0  0
 32 33  1  0  0  0  0
 33 28  1  0  0  0  0
M  END
>  <minimizedAffinity>
-5.9543314

$$$$

 OpenBabel03272508353D

 33 36  0  0  0  0  0  0  0  0999 V2000
   36.4210   27.8570   33.0150 C   0  0  0  0  0  0  0  0  0  0  0  0
   36.0090   26.9840   32.4790 H   0  0  0  0  0  0  0  0  0  0  0  0
   37.1420   28.3580   32.3340 H   0  0  0  0  0  0  0  0  0  0  0  0
   38.0880   25.9580   35.5650 C   0  0  0  0  0  0  0  0  0  0  0  0
   38.2270   27.2350   36.0460 C   0  0  0  0  0  0  0  0  0  0  0  0
   37.6200   28.1070   35.1500 C   0  0  0  0  0  0  0  0  0  0  0  0
   37.1370   27.3220   34.1630 N   0  0  0  0  0  0  0  0  0  0  0  0
   37.4150   26.0430   34.4090 N   0  0  0  0  0  0  0  0  0  0  0  0
   38.7240   27.5620   36.9730 H   0  0  0  0  0  0  0  0  0  0  0  0
   37.5910   29.1770   35.3010 H   0  0  0  0  0  0  0  0  0  0  0  0
   38.7360   23.2100   38.0580 C   0  0  0  0  0  0  0  0  0  0  0  0
   38.1470   24.3370   37.4980 C   0  0  0  0  0  0  0  0  0  0  0  0
   38.6130   24.7930   36.2610 C   0  0  0  0  0  0  0  0  0  0  0  0
   39.6220   24.0790   35.7030 N   0  0  0  0  0  0  0  0  0  0  0  0
   40.1750   22.9860   36.2710 C   0  0  0  0  0  0  0  0  0  0  0  0
   39.7230   22.5570   37.4540 N   0  0  0  0  0  0  0  0  0  0  0  0
   38.3420   22.8900   39.0220 H   0  0  0  0  0  0  0  0  0  0  0  0
   37.3420   24.9040   37.9490 H   0  0  0  0  0  0  0  0  0  0  0  0
   40.9710   22.5180   35.7110 H   0  0  0  0  0  0  0  0  0  0  0  0
   35.3460   28.8350   33.4790 C   0  0  0  0  0  0  0  0  0  0  0  0
   34.4040   28.5670   32.9290 H   0  0  0  0  0  0  0  0  0  0  0  0
   35.1880   28.7100   34.5650 H   0  0  0  0  0  0  0  0  0  0  0  0
   35.7390   30.2370   33.1910 C   0  0  0  0  0  0  0  0  0  0  0  0
   36.1010   30.5440   31.8740 C   0  0  0  0  0  0  0  0  0  0  0  0
   36.0920   29.7460   31.1370 H   0  0  0  0  0  0  0  0  0  0  0  0
   36.4740   31.7870   31.4090 C   0  0  0  0  0  3  0  0  0  0  0  0
   36.4930   32.8200   32.3260 C   0  0  0  0  0  3  0  0  0  0  0  0
   36.1390   32.5470   33.6460 C   0  0  0  0  0  0  0  0  0  0  0  0
   36.1720   33.6000   34.5420 C   0  0  0  0  0  3  0  0  0  0  0  0
   35.8210   33.3100   35.8620 C   0  0  0  0  0  3  0  0  0  0  0  0
   35.4590   32.0590   36.2710 C   0  0  0  0  0  3  0  0  0  0  0  0
   35.4270   31.0060   35.3680 C   0  0  0  0  0  3  0  0  0  0  0  0
   35.7690   31.2870   34.0820 C   0  0  0  0  0  0  0  0  0  0  0  0
  1 20  1  0  0  0  0
  1  7  1  0  0  0  0
  2  1  1  0  0  0  0
  3  1  1  0  0  0  0
  4  5  1  0  0  0  0
  4 13  1  0  0  0  0
  5  9  1  0  0  0  0
  6 10  1  0  0  0  0
  6  5  2  0  0  0  0
  7  8  1  0  0  0  0
  7  6  1  0  0  0  0
  8  4  2  0  0  0  0
 11 17  1  0  0  0  0
 12 18  1  0  0  0  0
 12 11  1  0  0  0  0
 13 12  2  0  0  0  0
 14 13  1  0  0  0  0
 14 15  2  0  0  0  0
 15 16  1  0  0  0  0
 16 11  2  0  0  0  0
 19 15  1  0  0  0  0
 20 22  1  0  0  0  0
 21 20  1  0  0  0  0
 23 20  1  0  0  0  0
 23 33  1  0  0  0  0
 24 23  2  0  0  0  0
 25 24  1  0  0  0  0
 26 24  1  0  0  0  0
 26 27  2  0  0  0  0
 27 28  1  0  0  0  0
 28 33  2  0  0  0  0
 28 29  1  0  0  0  0
 29 30  2  0  0  0  0
 30 31  1  0  0  0  0
 32 31  2  0  0  0  0
 33 32  1  0  0  0  0
M  END
>  <minimizedAffinity>
-5.86147118

$$$$

 OpenBabel03272508353D

 33 36  0  0  0  0  0  0  0  0999 V2000
   36.0930   26.5570   31.0220 C   0  0  0  0  0  0  0  0  0  0  0  0
   35.3400   26.7080   31.8140 H   0  0  0  0  0  0  0  0  0  0  0  0
   35.6050   26.7790   30.0490 H   0  0  0  0  0  0  0  0  0  0  0  0
   36.4060   23.0060   31.4590 C   0  0  0  0  0  0  0  0  0  0  0  0
   37.5610   23.2970   30.7790 C   0  0  0  0  0  0  0  0  0  0  0  0
   37.5880   24.6650   30.5290 C   0  0  0  0  0  0  0  0  0  0  0  0
   36.4490   25.1470   31.0700 N   0  0  0  0  0  0  0  0  0  0  0  0
   35.7440   24.1610   31.6240 N   0  0  0  0  0  0  0  0  0  0  0  0
   38.3560   22.6040   30.4620 H   0  0  0  0  0  0  0  0  0  0  0  0
   38.3990   25.1480   30.0030 H   0  0  0  0  0  0  0  0  0  0  0  0
   35.5750   19.3340   31.5420 C   0  0  0  0  0  0  0  0  0  0  0  0
   35.9110   20.5730   31.0110 C   0  0  0  0  0  0  0  0  0  0  0  0
   36.0590   21.6580   31.8800 C   0  0  0  0  0  0  0  0  0  0  0  0
   35.8570   21.4010   33.1970 N   0  0  0  0  0  0  0  0  0  0  0  0
   35.5310   20.1850   33.6850 C   0  0  0  0  0  0  0  0  0  0  0  0
   35.3920   19.1530   32.8460 N   0  0  0  0  0  0  0  0  0  0  0  0
   35.4700   18.5170   30.8290 H   0  0  0  0  0  0  0  0  0  0  0  0
   36.0710   20.7730   29.9590 H   0  0  0  0  0  0  0  0  0  0  0  0
   35.4010   20.1280   34.7550 H   0  0  0  0  0  0  0  0  0  0  0  0
   37.3400   27.4160   31.2100 C   0  0  0  0  0  0  0  0  0  0  0  0
   38.1210   27.0130   30.5110 H   0  0  0  0  0  0  0  0  0  0  0  0
   37.1030   28.4600   30.9360 H   0  0  0  0  0  0  0  0  0  0  0  0
   37.8160   27.3660   32.6140 C   0  0  0  0  0  0  0  0  0  0  0  0
   36.8740   27.6110   33.6210 C   0  0  0  0  0  0  0  0  0  0  0  0
   35.8540   27.8400   33.3270 H   0  0  0  0  0  0  0  0  0  0  0  0
   37.1190   27.5870   34.9780 C   0  0  0  0  0  3  0  0  0  0  0  0
   38.4090   27.2970   35.3770 C   0  0  0  0  0  3  0  0  0  0  0  0
   39.3700   27.0490   34.4000 C   0  0  0  0  0  0  0  0  0  0  0  0
   40.6540   26.7670   34.8300 C   0  0  0  0  0  3  0  0  0  0  0  0
   41.6080   26.5270   33.8390 C   0  0  0  0  0  3  0  0  0  0  0  0
   41.3130   26.5630   32.5070 C   0  0  0  0  0  3  0  0  0  0  0  0
   40.0230   26.8460   32.0810 C   0  0  0  0  0  3  0  0  0  0  0  0
   39.0940   27.0800   33.0440 C   0  0  0  0  0  0  0  0  0  0  0  0
  1  7  1  0  0  0  0
  1 20  1  0  0  0  0
  1  2  1  0  0  0  0
  3  1  1  0  0  0  0
  4  8  2  0  0  0  0
  4 13  1  0  0  0  0
  5  4  1  0  0  0  0
  6  5  2  0  0  0  0
  6  7  1  0  0  0  0
  7  8  1  0  0  0  0
  9  5  1  0  0  0  0
 10  6  1  0  0  0  0
 11 16  1  0  0  0  0
 12 11  2  0  0  0  0
 12 13  1  0  0  0  0
 13 14  2  0  0  0  0
 14 15  1  0  0  0  0
 15 19  1  0  0  0  0
 16 15  2  0  0  0  0
 17 11  1  0  0  0  0
 18 12  1  0  0  0  0
 20 23  1  0  0  0  0
 21 20  1  0  0  0  0
 22 20  1  0  0  0  0
 23 33  2  0  0  0  0
 23 24  1  0  0  0  0
 24 26  2  0  0  0  0
 25 24  1  0  0  0  0
 26 27  1  0  0  0  0
 28 29  1  0  0  0  0
 28 27  2  0  0  0  0
 30 29  2  0  0  0  0
 31 30  1  0  0  0  0
 32 31  2  0  0  0  0
 32 33  1  0  0  0  0
 33 28  1  0  0  0  0
M  END
>  <minimizedAffinity>
-5.85532284

$$$$

 OpenBabel03272508353D

 33 36  0  0  0  0  0  0  0  0999 V2000
   36.2640   29.1570   32.9340 C   0  0  0  0  0  0  0  0  0  0  0  0
   36.4340   29.3480   31.8610 H   0  0  0  0  0  0  0  0  0  0  0  0
   36.9200   29.8490   33.5060 H   0  0  0  0  0  0  0  0  0  0  0  0
   37.3990   25.9700   34.1370 C   0  0  0  0  0  0  0  0  0  0  0  0
   37.1670   25.6930   32.8140 C   0  0  0  0  0  0  0  0  0  0  0  0
   36.7120   26.8520   32.1970 C   0  0  0  0  0  0  0  0  0  0  0  0
   36.6880   27.7860   33.1720 N   0  0  0  0  0  0  0  0  0  0  0  0
   37.0970   27.2620   34.3270 N   0  0  0  0  0  0  0  0  0  0  0  0
   37.3020   24.7340   32.2870 H   0  0  0  0  0  0  0  0  0  0  0  0
   36.4570   26.8970   31.1480 H   0  0  0  0  0  0  0  0  0  0  0  0
   38.4780   24.1390   37.2460 C   0  0  0  0  0  0  0  0  0  0  0  0
   37.9970   25.1750   36.4560 C   0  0  0  0  0  0  0  0  0  0  0  0
   37.8860   24.9730   35.0770 C   0  0  0  0  0  0  0  0  0  0  0  0
   38.2670   23.7530   34.6200 N   0  0  0  0  0  0  0  0  0  0  0  0
   38.7310   22.7640   35.4120 C   0  0  0  0  0  0  0  0  0  0  0  0
   38.8330   22.9670   36.7300 N   0  0  0  0  0  0  0  0  0  0  0  0
   38.5480   24.3400   38.3140 H   0  0  0  0  0  0  0  0  0  0  0  0
   37.6940   26.1470   36.8260 H   0  0  0  0  0  0  0  0  0  0  0  0
   38.9960   21.8460   34.9100 H   0  0  0  0  0  0  0  0  0  0  0  0
   34.8060   29.3320   33.3480 C   0  0  0  0  0  0  0  0  0  0  0  0
   34.2740   29.7940   32.4740 H   0  0  0  0  0  0  0  0  0  0  0  0
   34.3700   28.3400   33.5620 H   0  0  0  0  0  0  0  0  0  0  0  0
   34.6910   30.1960   34.5490 C   0  0  0  0  0  0  0  0  0  0  0  0
   35.8340   30.9020   34.9430 C   0  0  0  0  0  0  0  0  0  0  0  0
   36.7450   30.7700   34.3660 H   0  0  0  0  0  0  0  0  0  0  0  0
   35.9190   31.7670   36.0140 C   0  0  0  0  0  3  0  0  0  0  0  0
   34.7740   31.9500   36.7630 C   0  0  0  0  0  3  0  0  0  0  0  0
   33.6190   31.2620   36.3970 C   0  0  0  0  0  0  0  0  0  0  0  0
   32.4900   31.4620   37.1700 C   0  0  0  0  0  3  0  0  0  0  0  0
   31.3410   30.7610   36.7950 C   0  0  0  0  0  3  0  0  0  0  0  0
   31.3120   29.9150   35.7250 C   0  0  0  0  0  3  0  0  0  0  0  0
   32.4470   29.7180   34.9530 C   0  0  0  0  0  3  0  0  0  0  0  0
   33.5650   30.4000   35.3170 C   0  0  0  0  0  0  0  0  0  0  0  0
  1  7  1  0  0  0  0
  1 20  1  0  0  0  0
  1  3  1  0  0  0  0
  2  1  1  0  0  0  0
  4  8  2  0  0  0  0
  4 13  1  0  0  0  0
  5  4  1  0  0  0  0
  6  5  2  0  0  0  0
  6  7  1  0  0  0  0
  7  8  1  0  0  0  0
  9  5  1  0  0  0  0
 10  6  1  0  0  0  0
 11 17  1  0  0  0  0
 12 18  1  0  0  0  0
 12 11  2  0  0  0  0
 13 12  1  0  0  0  0
 14 13  2  0  0  0  0
 14 15  1  0  0  0  0
 15 16  2  0  0  0  0
 16 11  1  0  0  0  0
 19 15  1  0  0  0  0
 20 22  1  0  0  0  0
 20 23  1  0  0  0  0
 21 20  1  0  0  0  0
 23 24  2  0  0  0  0
 23 33  1  0  0  0  0
 24 26  1  0  0  0  0
 25 24  1  0  0  0  0
 26 27  2  0  0  0  0
 28 27  1  0  0  0  0
 28 29  1  0  0  0  0
 30 29  2  0  0  0  0
 31 30  1  0  0  0  0
 32 33  1  0  0  0  0
 32 31  2  0  0  0  0
 33 28  2  0  0  0  0
M  END
>  <minimizedAffinity>
-5.79824591

$$$$

 OpenBabel03272508353D

 33 36  0  0  0  0  0  0  0  0999 V2000
   37.4100   26.4790   35.0120 C   0  0  0  0  0  0  0  0  0  0  0  0
   36.4710   25.9250   35.1820 H   0  0  0  0  0  0  0  0  0  0  0  0
   37.5590   27.1600   35.8770 H   0  0  0  0  0  0  0  0  0  0  0  0
   37.4020   28.0940   31.8050 C   0  0  0  0  0  0  0  0  0  0  0  0
   36.3450   28.7130   32.4220 C   0  0  0  0  0  0  0  0  0  0  0  0
   36.2150   28.1850   33.7020 C   0  0  0  0  0  0  0  0  0  0  0  0
   37.2000   27.2680   33.8080 N   0  0  0  0  0  0  0  0  0  0  0  0
   37.9070   27.2120   32.6800 N   0  0  0  0  0  0  0  0  0  0  0  0
   35.6850   29.4970   32.0160 H   0  0  0  0  0  0  0  0  0  0  0  0
   35.4520   28.5090   34.3950 H   0  0  0  0  0  0  0  0  0  0  0  0
   37.7610   29.6430   28.3910 C   0  0  0  0  0  0  0  0  0  0  0  0
   37.2760   29.4450   29.6780 C   0  0  0  0  0  0  0  0  0  0  0  0
   37.8160   28.4100   30.4470 C   0  0  0  0  0  0  0  0  0  0  0  0
   38.7890   27.6710   29.8560 N   0  0  0  0  0  0  0  0  0  0  0  0
   39.2400   27.8870   28.6020 C   0  0  0  0  0  0  0  0  0  0  0  0
   38.7190   28.8790   27.8740 N   0  0  0  0  0  0  0  0  0  0  0  0
   37.3120   30.4600   27.8280 H   0  0  0  0  0  0  0  0  0  0  0  0
   36.5000   30.0380   30.1450 H   0  0  0  0  0  0  0  0  0  0  0  0
   40.0190   27.2200   28.2630 H   0  0  0  0  0  0  0  0  0  0  0  0
   38.6190   25.5640   34.8320 C   0  0  0  0  0  0  0  0  0  0  0  0
   38.4190   24.9380   33.9210 H   0  0  0  0  0  0  0  0  0  0  0  0
   39.5180   26.1830   34.6630 H   0  0  0  0  0  0  0  0  0  0  0  0
   38.8210   24.7060   36.0240 C   0  0  0  0  0  0  0  0  0  0  0  0
   37.9550   24.8970   37.1080 C   0  0  0  0  0  0  0  0  0  0  0  0
   37.1950   25.6690   37.0290 H   0  0  0  0  0  0  0  0  0  0  0  0
   37.9700   24.1860   38.2890 C   0  0  0  0  0  3  0  0  0  0  0  0
   38.9280   23.1980   38.4130 C   0  0  0  0  0  3  0  0  0  0  0  0
   39.8060   22.9830   37.3530 C   0  0  0  0  0  0  0  0  0  0  0  0
   40.7570   21.9910   37.5090 C   0  0  0  0  0  3  0  0  0  0  0  0
   41.6340   21.7900   36.4410 C   0  0  0  0  0  3  0  0  0  0  0  0
   41.5750   22.5240   35.2910 C   0  0  0  0  0  3  0  0  0  0  0  0
   40.6200   23.5180   35.1400 C   0  0  0  0  0  3  0  0  0  0  0  0
   39.7650   23.7140   36.1790 C   0  0  0  0  0  0  0  0  0  0  0  0
  1  2  1  0  0  0  0
  1  3  1  0  0  0  0
  4  5  1  0  0  0  0
  4  8  2  0  0  0  0
  5  6  2  0  0  0  0
  6  7  1  0  0  0  0
  6 10  1  0  0  0  0
  7  1  1  0  0  0  0
  8  7  1  0  0  0  0
  9  5  1  0  0  0  0
 11 12  1  0  0  0  0
 12 18  1  0  0  0  0
 12 13  2  0  0  0  0
 13  4  1  0  0  0  0
 14 13  1  0  0  0  0
 15 14  2  0  0  0  0
 16 11  2  0  0  0  0
 16 15  1  0  0  0  0
 17 11  1  0  0  0  0
 19 15  1  0  0  0  0
 20  1  1  0  0  0  0
 20 23  1  0  0  0  0
 21 20  1  0  0  0  0
 22 20  1  0  0  0  0
 23 33  2  0  0  0  0
 23 24  1  0  0  0  0
 24 26  2  0  0  0  0
 25 24  1  0  0  0  0
 26 27  1  0  0  0  0
 28 29  1  0  0  0  0
 28 27  2  0  0  0  0
 30 29  2  0  0  0  0
 31 30  1  0  0  0  0
 32 31  2  0  0  0  0
 32 33  1  0  0  0  0
 33 28  1  0  0  0  0
M  END
>  <minimizedAffinity>
-5.79124928

$$$$

 OpenBabel03272508353D

 33 36  0  0  0  0  0  0  0  0999 V2000
   37.8540   25.7820   33.8960 C   0  0  0  0  0  0  0  0  0  0  0  0
   37.1500   25.8390   34.7440 H   0  0  0  0  0  0  0  0  0  0  0  0
   37.8860   26.7860   33.4200 H   0  0  0  0  0  0  0  0  0  0  0  0
   36.6160   22.9720   32.0360 C   0  0  0  0  0  0  0  0  0  0  0  0
   36.3120   24.0090   31.1920 C   0  0  0  0  0  0  0  0  0  0  0  0
   36.7370   25.1930   31.7830 C   0  0  0  0  0  0  0  0  0  0  0  0
   37.2830   24.8250   32.9620 N   0  0  0  0  0  0  0  0  0  0  0  0
   37.2120   23.5020   33.1130 N   0  0  0  0  0  0  0  0  0  0  0  0
   35.8170   23.9620   30.2090 H   0  0  0  0  0  0  0  0  0  0  0  0
   36.6120   26.1590   31.3160 H   0  0  0  0  0  0  0  0  0  0  0  0
   35.2070   19.4790   32.0470 C   0  0  0  0  0  0  0  0  0  0  0  0
   35.4150   20.7920   32.4510 C   0  0  0  0  0  0  0  0  0  0  0  0
   36.3070   21.5850   31.7230 C   0  0  0  0  0  0  0  0  0  0  0  0
   36.9070   20.9900   30.6610 N   0  0  0  0  0  0  0  0  0  0  0  0
   36.6860   19.7100   30.2920 C   0  0  0  0  0  0  0  0  0  0  0  0
   35.8310   18.9590   30.9940 N   0  0  0  0  0  0  0  0  0  0  0  0
   34.5050   18.8980   32.6420 H   0  0  0  0  0  0  0  0  0  0  0  0
   34.9330   21.2620   33.2990 H   0  0  0  0  0  0  0  0  0  0  0  0
   37.2330   19.3710   29.4260 H   0  0  0  0  0  0  0  0  0  0  0  0
   39.2540   25.3370   34.3100 C   0  0  0  0  0  0  0  0  0  0  0  0
   39.6440   24.6840   33.4840 H   0  0  0  0  0  0  0  0  0  0  0  0
   39.9000   26.2260   34.4140 H   0  0  0  0  0  0  0  0  0  0  0  0
   39.2200   24.5930   35.5940 C   0  0  0  0  0  0  0  0  0  0  0  0
   38.1840   24.9000   36.4850 C   0  0  0  0  0  0  0  0  0  0  0  0
   37.4730   25.6720   36.2040 H   0  0  0  0  0  0  0  0  0  0  0  0
   37.9720   24.3050   37.7110 C   0  0  0  0  0  3  0  0  0  0  0  0
   38.8630   23.3200   38.0920 C   0  0  0  0  0  3  0  0  0  0  0  0
   39.9050   22.9920   37.2270 C   0  0  0  0  0  0  0  0  0  0  0  0
   40.7830   22.0060   37.6390 C   0  0  0  0  0  3  0  0  0  0  0  0
   41.8270   21.6920   36.7650 C   0  0  0  0  0  3  0  0  0  0  0  0
   41.9910   22.3130   35.5600 C   0  0  0  0  0  3  0  0  0  0  0  0
   41.1070   23.3010   35.1530 C   0  0  0  0  0  3  0  0  0  0  0  0
   40.0910   23.6080   36.0020 C   0  0  0  0  0  0  0  0  0  0  0  0
  1 20  1  0  0  0  0
  1  2  1  0  0  0  0
  3  1  1  0  0  0  0
  4  8  2  0  0  0  0
  5  6  2  0  0  0  0
  5  4  1  0  0  0  0
  6  7  1  0  0  0  0
  7  8  1  0  0  0  0
  7  1  1  0  0  0  0
  9  5  1  0  0  0  0
 10  6  1  0  0  0  0
 11 12  1  0  0  0  0
 11 17  1  0  0  0  0
 12 18  1  0  0  0  0
 13  4  1  0  0  0  0
 13 12  2  0  0  0  0
 14 13  1  0  0  0  0
 15 14  2  0  0  0  0
 15 16  1  0  0  0  0
 16 11  2  0  0  0  0
 19 15  1  0  0  0  0
 20 22  1  0  0  0  0
 20 23  1  0  0  0  0
 21 20  1  0  0  0  0
 23 33  2  0  0  0  0
 23 24  1  0  0  0  0
 24 26  2  0  0  0  0
 25 24  1  0  0  0  0
 26 27  1  0  0  0  0
 28 29  1  0  0  0  0
 28 27  2  0  0  0  0
 30 29  2  0  0  0  0
 31 30  1  0  0  0  0
 32 31  2  0  0  0  0
 32 33  1  0  0  0  0
 33 28  1  0  0  0  0
M  END
>  <minimizedAffinity>
-5.77752113

$$$$

 OpenBabel03272508353D

 33 36  0  0  0  0  0  0  0  0999 V2000
   36.0680   29.2630   32.5670 C   0  0  0  0  0  0  0  0  0  0  0  0
   36.1680   29.4370   31.4820 H   0  0  0  0  0  0  0  0  0  0  0  0
   36.7830   29.9390   33.0830 H   0  0  0  0  0  0  0  0  0  0  0  0
   36.7460   25.7370   32.5510 C   0  0  0  0  0  0  0  0  0  0  0  0
   37.3460   26.1220   33.7230 C   0  0  0  0  0  0  0  0  0  0  0  0
   37.1680   27.4920   33.8760 C   0  0  0  0  0  0  0  0  0  0  0  0
   36.4650   27.8810   32.7910 N   0  0  0  0  0  0  0  0  0  0  0  0
   36.2130   26.8380   32.0010 N   0  0  0  0  0  0  0  0  0  0  0  0
   37.8860   25.4930   34.4480 H   0  0  0  0  0  0  0  0  0  0  0  0
   37.5490   28.0410   34.7250 H   0  0  0  0  0  0  0  0  0  0  0  0
   35.7660   22.3970   31.1130 C   0  0  0  0  0  0  0  0  0  0  0  0
   35.6360   23.7190   31.5210 C   0  0  0  0  0  0  0  0  0  0  0  0
   36.7440   24.3600   32.0830 C   0  0  0  0  0  0  0  0  0  0  0  0
   37.8760   23.6180   32.1850 N   0  0  0  0  0  0  0  0  0  0  0  0
   37.9720   22.3340   31.7800 C   0  0  0  0  0  0  0  0  0  0  0  0
   36.9080   21.7290   31.2420 N   0  0  0  0  0  0  0  0  0  0  0  0
   34.8780   21.9370   30.6800 H   0  0  0  0  0  0  0  0  0  0  0  0
   34.7300   24.3060   31.4370 H   0  0  0  0  0  0  0  0  0  0  0  0
   38.9360   21.8680   31.9220 H   0  0  0  0  0  0  0  0  0  0  0  0
   34.6480   29.4870   33.0800 C   0  0  0  0  0  0  0  0  0  0  0  0
   34.0940   30.0350   32.2710 H   0  0  0  0  0  0  0  0  0  0  0  0
   34.1680   28.5070   33.2550 H   0  0  0  0  0  0  0  0  0  0  0  0
   34.6520   30.2720   34.3380 C   0  0  0  0  0  0  0  0  0  0  0  0
   35.8370   30.9370   34.6760 C   0  0  0  0  0  0  0  0  0  0  0  0
   36.6930   30.8310   34.0160 H   0  0  0  0  0  0  0  0  0  0  0  0
   36.0290   31.7290   35.7880 C   0  0  0  0  0  3  0  0  0  0  0  0
   34.9550   31.8780   36.6440 C   0  0  0  0  0  3  0  0  0  0  0  0
   33.7610   31.2300   36.3360 C   0  0  0  0  0  0  0  0  0  0  0  0
   32.7060   31.3940   37.2150 C   0  0  0  0  0  3  0  0  0  0  0  0
   31.5170   30.7330   36.8970 C   0  0  0  0  0  3  0  0  0  0  0  0
   31.3810   29.9590   35.7810 C   0  0  0  0  0  3  0  0  0  0  0  0
   32.4420   29.7970   34.9040 C   0  0  0  0  0  3  0  0  0  0  0  0
   33.6000   30.4400   35.2120 C   0  0  0  0  0  0  0  0  0  0  0  0
  1  7  1  0  0  0  0
  1 20  1  0  0  0  0
  1  3  1  0  0  0  0
  2  1  1  0  0  0  0
  4  5  1  0  0  0  0
  5  6  2  0  0  0  0
  5  9  1  0  0  0  0
  6 10  1  0  0  0  0
  7  6  1  0  0  0  0
  8  4  2  0  0  0  0
  8  7  1  0  0  0  0
 11 16  2  0  0  0  0
 11 12  1  0  0  0  0
 12 13  2  0  0  0  0
 13 14  1  0  0  0  0
 13  4  1  0  0  0  0
 15 19  1  0  0  0  0
 15 14  2  0  0  0  0
 16 15  1  0  0  0  0
 17 11  1  0  0  0  0
 18 12  1  0  0  0  0
 20 22  1  0  0  0  0
 20 23  1  0  0  0  0
 21 20  1  0  0  0  0
 23 24  2  0  0  0  0
 23 33  1  0  0  0  0
 24 26  1  0  0  0  0
 25 24  1  0  0  0  0
 26 27  2  0  0  0  0
 28 27  1  0  0  0  0
 28 29  1  0  0  0  0
 30 29  2  0  0  0  0
 31 30  1  0  0  0  0
 32 33  1  0  0  0  0
 32 31  2  0  0  0  0
 33 28  2  0  0  0  0
M  END
>  <minimizedAffinity>
-5.67683935

$$$$
