
 OpenBabel03272506583D

 30 33  0  0  0  0  0  0  0  0999 V2000
   38.5270   31.2550   45.9250 C   0  0  0  0  0  0  0  0  0  0  0  0
   39.8420   31.1980   46.2610 C   0  0  0  0  0  0  0  0  0  0  0  0
   40.9110   31.4130   45.4350 C   0  0  0  0  0  0  0  0  0  0  0  0
   40.6060   31.7120   44.1600 N   0  0  0  0  0  0  0  0  0  0  0  0
   39.3180   31.7860   43.7530 C   0  0  0  0  0  0  0  0  0  0  0  0
   38.3400   31.5570   44.6400 N   0  0  0  0  0  0  0  0  0  0  0  0
   40.1280   30.9570   47.2940 H   0  0  0  0  0  0  0  0  0  0  0  0
   41.9530   31.3700   45.6960 H   0  0  0  0  0  0  0  0  0  0  0  0
   38.7670   32.0810   42.4270 C   0  0  0  0  0  0  0  0  0  0  0  0
   38.4690   33.3730   41.9790 C   0  0  0  0  0  0  0  0  0  0  0  0
   38.6650   34.2100   42.6640 H   0  0  0  0  0  0  0  0  0  0  0  0
   37.9520   33.6590   40.7450 C   0  0  0  0  0  0  0  0  0  0  0  0
   37.6910   32.6520   39.8540 C   0  0  0  0  0  0  0  0  0  0  0  0
   37.9610   31.3580   40.2350 C   0  0  0  0  0  0  0  0  0  0  0  0
   37.6780   30.3850   39.3060 C   0  0  0  0  0  0  0  0  0  0  0  0
   37.9160   29.0620   39.6100 C   0  0  0  0  0  0  0  0  0  0  0  0
   38.4390   28.7880   40.8640 C   0  0  0  0  0  0  0  0  0  0  0  0
   38.6980   29.8110   41.7420 C   0  0  0  0  0  0  0  0  0  0  0  0
   38.4770   31.1370   41.4780 C   0  0  0  0  0  0  0  0  0  0  0  0
   35.3210   30.2180   47.2770 C   0  0  0  0  0  0  0  0  0  0  0  0
   35.3580   30.5560   48.6180 C   0  0  0  0  0  0  0  0  0  0  0  0
   36.5500   31.1590   49.0350 C   0  0  0  0  0  0  0  0  0  0  0  0
   37.5720   31.3860   48.1820 N   0  0  0  0  0  0  0  0  0  0  0  0
   37.4490   31.0220   46.8790 C   0  0  0  0  0  0  0  0  0  0  0  0
   36.3210   30.4240   46.3730 N   0  0  0  0  0  0  0  0  0  0  0  0
   34.4000   29.7480   46.9350 H   0  0  0  0  0  0  0  0  0  0  0  0
   36.5850   31.4270   50.0930 H   0  0  0  0  0  0  0  0  0  0  0  0
   34.2680   30.3010   49.4780 N   0  0  0  0  0  0  0  0  0  0  0  0
   33.3340   30.7650   49.3930 H   0  0  0  0  0  0  0  0  0  0  0  0
   34.5450   29.5840   50.2030 H   0  0  0  0  0  0  0  0  0  0  0  0
  1  2  1  0  0  0  0
  1 24  1  0  0  0  0
  2  7  1  0  0  0  0
  3  8  1  0  0  0  0
  3  2  2  0  0  0  0
  4  3  1  0  0  0  0
  5  4  2  0  0  0  0
  5  6  1  0  0  0  0
  6  1  2  0  0  0  0
  9  5  1  0  0  0  0
 10  9  1  0  0  0  0
 10 11  1  0  0  0  0
 12 10  2  0  0  0  0
 13 14  2  0  0  0  0
 13 12  1  0  0  0  0
 14 19  1  0  0  0  0
 15 16  2  0  0  0  0
 15 14  1  0  0  0  0
 16 17  1  0  0  0  0
 17 18  2  0  0  0  0
 19 18  1  0  0  0  0
 19  9  2  0  0  0  0
 20 21  1  0  0  0  0
 21 22  2  0  0  0  0
 21 28  1  0  0  0  0
 22 27  1  0  0  0  0
 23 22  1  0  0  0  0
 24 23  2  0  0  0  0
 25 24  1  0  0  0  0
 25 20  2  0  0  0  0
 26 20  1  0  0  0  0
 28 30  1  0  0  0  0
 29 28  1  0  0  0  0
M  END
>  <minimizedAffinity>
-4.99468088

>  <minimizedRMSD>
3.08638287

$$$$
