
 OpenBabel03272500233D

 40 42  0  0  0  0  0  0  0  0999 V2000
   38.0830   26.0790   36.7200 C   0  0  0  0  0  0  0  0  0  0  0  0
   38.3340   24.6860   36.6700 C   0  0  0  0  0  0  0  0  0  0  0  0
   38.4890   24.0620   35.4340 C   0  0  0  0  0  0  0  0  0  0  0  0
   38.3890   24.8470   34.3110 N   0  0  0  0  0  0  0  0  0  0  0  0
   38.1530   26.1440   34.3700 C   0  0  0  0  0  0  0  0  0  0  0  0
   37.9980   26.7810   35.5600 N   0  0  0  0  0  0  0  0  0  0  0  0
   37.9660   26.5380   37.6910 H   0  0  0  0  0  0  0  0  0  0  0  0
   35.9400   28.2030   34.2830 Cl  0  0  0  0  0  0  0  0  0  0  0  0
   37.0740   27.9050   32.9690 C   0  0  0  0  0  0  0  0  0  0  0  0
   38.0590   26.9210   33.1260 C   0  0  0  0  0  0  0  0  0  0  0  0
   38.9810   26.6450   32.1210 C   0  0  0  0  0  0  0  0  0  0  0  0
   38.8680   27.3970   30.9490 C   0  0  0  0  0  0  0  0  0  0  0  0
   37.9070   28.3630   30.7830 C   0  0  0  0  0  0  0  0  0  0  0  0
   37.8770   29.2340   29.2670 Cl  0  0  0  0  0  0  0  0  0  0  0  0
   37.0100   28.6080   31.8080 C   0  0  0  0  0  0  0  0  0  0  0  0
   39.7340   25.8860   32.2540 H   0  0  0  0  0  0  0  0  0  0  0  0
   39.6160   27.1320   30.2050 H   0  0  0  0  0  0  0  0  0  0  0  0
   35.9670   29.6500   31.6360 C   0  0  0  0  0  0  0  0  0  0  0  0
   36.2740   30.7820   32.4080 F   0  0  0  0  0  0  0  0  0  0  0  0
   34.7170   29.1910   31.9240 F   0  0  0  0  0  0  0  0  0  0  0  0
   35.9450   30.0780   30.3300 F   0  0  0  0  0  0  0  0  0  0  0  0
   38.4210   23.9540   37.9760 C   0  0  0  0  0  0  0  0  0  0  0  0
   39.6740   23.3840   38.1410 F   0  0  0  0  0  0  0  0  0  0  0  0
   38.2680   24.8860   38.9880 F   0  0  0  0  0  0  0  0  0  0  0  0
   37.4480   23.0080   38.1350 F   0  0  0  0  0  0  0  0  0  0  0  0
   38.7470   22.6280   35.3840 C   0  0  0  0  0  0  0  0  0  0  0  0
   38.9380   22.1440   36.3740 H   0  0  0  0  0  0  0  0  0  0  0  0
   39.7000   22.4750   34.8320 H   0  0  0  0  0  0  0  0  0  0  0  0
   37.6850   21.4920   33.4480 C   0  0  0  0  0  0  0  0  0  0  0  0
   37.6440   21.8440   34.7810 C   0  0  0  0  0  0  0  0  0  0  0  0
   36.5820   21.4860   35.6090 C   0  0  0  0  0  0  0  0  0  0  0  0
   36.5990   21.7900   36.6550 H   0  0  0  0  0  0  0  0  0  0  0  0
   35.5240   20.7600   35.1230 C   0  0  0  0  0  0  0  0  0  0  0  0
   34.7270   20.5090   35.8100 H   0  0  0  0  0  0  0  0  0  0  0  0
   35.5240   20.3860   33.7920 C   0  0  0  0  0  3  0  0  0  0  0  0
   36.5940   20.7600   33.0050 C   0  0  0  0  0  3  0  0  0  0  0  0
   40.1830   22.0680   33.0870 H   0  0  0  0  0  0  0  0  0  0  0  0
   38.9790   21.9210   32.4060 S   0  0  0  0  0  0  0  0  0  0  0  0
   39.2520   20.7330   31.4880 O   0  0  0  0  0  0  0  0  0  0  0  0
   38.7330   23.0610   31.4950 O   0  0  0  0  0  0  0  0  0  0  0  0
  1  7  1  0  0  0  0
  2  1  1  0  0  0  0
  2 22  1  0  0  0  0
  3  2  2  0  0  0  0
  4  5  2  0  0  0  0
  4  3  1  0  0  0  0
  5  6  1  0  0  0  0
  6  1  2  0  0  0  0
  9 10  1  0  0  0  0
  9  8  1  0  0  0  0
 10  5  1  0  0  0  0
 11 16  1  0  0  0  0
 11 10  2  0  0  0  0
 12 11  1  0  0  0  0
 13 12  2  0  0  0  0
 13 15  1  0  0  0  0
 14 13  1  0  0  0  0
 15  9  2  0  0  0  0
 17 12  1  0  0  0  0
 18 15  1  0  0  0  0
 18 20  1  0  0  0  0
 18 19  1  0  0  0  0
 21 18  1  0  0  0  0
 22 25  1  0  0  0  0
 22 23  1  0  0  0  0
 22 24  1  0  0  0  0
 26  3  1  0  0  0  0
 26 27  1  0  0  0  0
 28 26  1  0  0  0  0
 29 30  1  0  0  0  0
 30 26  1  0  0  0  0
 30 31  2  0  0  0  0
 31 32  1  0  0  0  0
 33 31  1  0  0  0  0
 33 34  1  0  0  0  0
 35 33  2  0  0  0  0
 36 29  2  0  0  0  0
 36 35  1  0  0  0  0
 38 37  1  0  0  0  0
 38 29  1  0  0  0  0
 39 38  2  0  0  0  0
 40 38  2  0  0  0  0
M  END
>  <minimizedAffinity>
-6.65187836

$$$$

 OpenBabel03272500233D

 40 42  0  0  0  0  0  0  0  0999 V2000
   37.6420   28.3240   31.7230 C   0  0  0  0  0  0  0  0  0  0  0  0
   36.4730   29.0790   31.9810 C   0  0  0  0  0  0  0  0  0  0  0  0
   35.7410   28.8320   33.1420 C   0  0  0  0  0  0  0  0  0  0  0  0
   36.2050   27.8520   33.9860 N   0  0  0  0  0  0  0  0  0  0  0  0
   37.2960   27.1540   33.7340 C   0  0  0  0  0  0  0  0  0  0  0  0
   38.0300   27.3720   32.6110 N   0  0  0  0  0  0  0  0  0  0  0  0
   38.1910   28.5350   30.8160 H   0  0  0  0  0  0  0  0  0  0  0  0
   37.3020   24.3240   32.6700 Cl  0  0  0  0  0  0  0  0  0  0  0  0
   37.7770   24.7740   34.3060 C   0  0  0  0  0  0  0  0  0  0  0  0
   37.7320   26.1220   34.6840 C   0  0  0  0  0  0  0  0  0  0  0  0
   38.0960   26.5330   35.9620 C   0  0  0  0  0  0  0  0  0  0  0  0
   38.5060   25.5310   36.8450 C   0  0  0  0  0  0  0  0  0  0  0  0
   38.5540   24.2070   36.4860 C   0  0  0  0  0  0  0  0  0  0  0  0
   39.0870   23.0530   37.6880 Cl  0  0  0  0  0  0  0  0  0  0  0  0
   38.1840   23.8400   35.2050 C   0  0  0  0  0  0  0  0  0  0  0  0
   38.0580   27.5730   36.2410 H   0  0  0  0  0  0  0  0  0  0  0  0
   38.7760   25.9180   37.8250 H   0  0  0  0  0  0  0  0  0  0  0  0
   38.2320   22.4100   34.8080 C   0  0  0  0  0  0  0  0  0  0  0  0
   39.5480   21.9270   34.8770 F   0  0  0  0  0  0  0  0  0  0  0  0
   37.6980   22.1920   33.5740 F   0  0  0  0  0  0  0  0  0  0  0  0
   37.5050   21.6540   35.6970 F   0  0  0  0  0  0  0  0  0  0  0  0
   36.0860   30.1190   30.9730 C   0  0  0  0  0  0  0  0  0  0  0  0
   36.6430   31.3470   31.2910 F   0  0  0  0  0  0  0  0  0  0  0  0
   36.6230   29.7380   29.7540 F   0  0  0  0  0  0  0  0  0  0  0  0
   34.7350   30.2410   30.8090 F   0  0  0  0  0  0  0  0  0  0  0  0
   34.5370   29.6090   33.4070 C   0  0  0  0  0  0  0  0  0  0  0  0
   33.6080   29.0070   33.5660 H   0  0  0  0  0  0  0  0  0  0  0  0
   34.3090   30.2010   32.4940 H   0  0  0  0  0  0  0  0  0  0  0  0
   33.5750   30.5990   35.4720 C   0  0  0  0  0  0  0  0  0  0  0  0
   34.6390   30.4800   34.6010 C   0  0  0  0  0  0  0  0  0  0  0  0
   35.8380   31.1610   34.7990 C   0  0  0  0  0  0  0  0  0  0  0  0
   36.6470   31.0320   34.0810 H   0  0  0  0  0  0  0  0  0  0  0  0
   36.0080   31.9860   35.8830 C   0  0  0  0  0  0  0  0  0  0  0  0
   36.9600   32.4900   35.9880 H   0  0  0  0  0  0  0  0  0  0  0  0
   34.9680   32.1350   36.7810 C   0  0  0  0  0  3  0  0  0  0  0  0
   33.7960   31.4430   36.5490 C   0  0  0  0  0  3  0  0  0  0  0  0
   31.9130   29.3360   33.9410 H   0  0  0  0  0  0  0  0  0  0  0  0
   32.0880   29.7730   35.2500 S   0  0  0  0  0  0  0  0  0  0  0  0
   32.1590   28.4670   36.0360 O   0  0  0  0  0  0  0  0  0  0  0  0
   30.8780   30.4600   35.7540 O   0  0  0  0  0  0  0  0  0  0  0  0
  1  2  2  0  0  0  0
  1  6  1  0  0  0  0
  2  3  1  0  0  0  0
  3 26  1  0  0  0  0
  3  4  2  0  0  0  0
  5  4  1  0  0  0  0
  5 10  1  0  0  0  0
  6  5  2  0  0  0  0
  7  1  1  0  0  0  0
  8  9  1  0  0  0  0
  9 10  2  0  0  0  0
  9 15  1  0  0  0  0
 10 11  1  0  0  0  0
 11 16  1  0  0  0  0
 11 12  2  0  0  0  0
 12 17  1  0  0  0  0
 13 12  1  0  0  0  0
 13 14  1  0  0  0  0
 15 13  2  0  0  0  0
 18 19  1  0  0  0  0
 18 15  1  0  0  0  0
 18 21  1  0  0  0  0
 20 18  1  0  0  0  0
 22 23  1  0  0  0  0
 22  2  1  0  0  0  0
 24 22  1  0  0  0  0
 25 22  1  0  0  0  0
 26 27  1  0  0  0  0
 26 30  1  0  0  0  0
 28 26  1  0  0  0  0
 29 36  1  0  0  0  0
 30 31  1  0  0  0  0
 30 29  2  0  0  0  0
 31 33  2  0  0  0  0
 32 31  1  0  0  0  0
 33 34  1  0  0  0  0
 33 35  1  0  0  0  0
 36 35  2  0  0  0  0
 37 38  1  0  0  0  0
 38 29  1  0  0  0  0
 38 40  2  0  0  0  0
 38 39  2  0  0  0  0
M  END
>  <minimizedAffinity>
-6.58545399

$$$$

 OpenBabel03272500233D

 40 42  0  0  0  0  0  0  0  0999 V2000
   36.6790   29.7450   31.0920 C   0  0  0  0  0  0  0  0  0  0  0  0
   37.3990   28.5660   31.4030 C   0  0  0  0  0  0  0  0  0  0  0  0
   37.0160   27.8000   32.5020 C   0  0  0  0  0  0  0  0  0  0  0  0
   35.9410   28.2390   33.2360 N   0  0  0  0  0  0  0  0  0  0  0  0
   35.2780   29.3410   32.9370 C   0  0  0  0  0  0  0  0  0  0  0  0
   35.6280   30.1080   31.8720 N   0  0  0  0  0  0  0  0  0  0  0  0
   36.9970   30.3210   30.2340 H   0  0  0  0  0  0  0  0  0  0  0  0
   35.9760   30.8960   35.4350 Cl  0  0  0  0  0  0  0  0  0  0  0  0
   34.3350   30.4750   34.9500 C   0  0  0  0  0  0  0  0  0  0  0  0
   34.1370   29.7490   33.7690 C   0  0  0  0  0  0  0  0  0  0  0  0
   32.8640   29.3900   33.3380 C   0  0  0  0  0  0  0  0  0  0  0  0
   31.7970   29.7900   34.1470 C   0  0  0  0  0  0  0  0  0  0  0  0
   31.9790   30.5020   35.3070 C   0  0  0  0  0  0  0  0  0  0  0  0
   30.5580   30.9400   36.2270 Cl  0  0  0  0  0  0  0  0  0  0  0  0
   33.2620   30.8390   35.7000 C   0  0  0  0  0  0  0  0  0  0  0  0
   32.7250   28.8310   32.4270 H   0  0  0  0  0  0  0  0  0  0  0  0
   30.8320   29.4780   33.7550 H   0  0  0  0  0  0  0  0  0  0  0  0
   33.4670   31.6080   36.9530 C   0  0  0  0  0  0  0  0  0  0  0  0
   32.8420   32.8610   36.8660 F   0  0  0  0  0  0  0  0  0  0  0  0
   34.7850   31.7430   37.2730 F   0  0  0  0  0  0  0  0  0  0  0  0
   32.8650   30.9560   38.0030 F   0  0  0  0  0  0  0  0  0  0  0  0
   38.5500   28.2050   30.5120 C   0  0  0  0  0  0  0  0  0  0  0  0
   38.2290   27.1280   29.7010 F   0  0  0  0  0  0  0  0  0  0  0  0
   38.7830   29.2830   29.6750 F   0  0  0  0  0  0  0  0  0  0  0  0
   39.7070   27.9550   31.1950 F   0  0  0  0  0  0  0  0  0  0  0  0
   37.7570   26.5870   32.8220 C   0  0  0  0  0  0  0  0  0  0  0  0
   37.9770   26.4350   33.9080 H   0  0  0  0  0  0  0  0  0  0  0  0
   38.7670   26.6760   32.3640 H   0  0  0  0  0  0  0  0  0  0  0  0
   37.5110   24.1150   32.8540 C   0  0  0  0  0  0  0  0  0  0  0  0
   37.0800   25.3420   32.3910 C   0  0  0  0  0  0  0  0  0  0  0  0
   36.0060   25.4650   31.5110 C   0  0  0  0  0  0  0  0  0  0  0  0
   35.7060   26.4570   31.1760 H   0  0  0  0  0  0  0  0  0  0  0  0
   35.3280   24.3570   31.0670 C   0  0  0  0  0  0  0  0  0  0  0  0
   34.5030   24.5120   30.3860 H   0  0  0  0  0  0  0  0  0  0  0  0
   35.7270   23.1080   31.5060 C   0  0  0  0  0  3  0  0  0  0  0  0
   36.7950   23.0280   32.3760 C   0  0  0  0  0  3  0  0  0  0  0  0
   39.7630   24.9600   33.8110 H   0  0  0  0  0  0  0  0  0  0  0  0
   38.8300   23.9350   33.9350 S   0  0  0  0  0  0  0  0  0  0  0  0
   38.3010   24.1290   35.3530 O   0  0  0  0  0  0  0  0  0  0  0  0
   39.4870   22.6090   33.9480 O   0  0  0  0  0  0  0  0  0  0  0  0
  1  2  2  0  0  0  0
  1  6  1  0  0  0  0
  2  3  1  0  0  0  0
  3 26  1  0  0  0  0
  3  4  2  0  0  0  0
  5  4  1  0  0  0  0
  5 10  1  0  0  0  0
  6  5  2  0  0  0  0
  7  1  1  0  0  0  0
  9  8  1  0  0  0  0
  9 15  1  0  0  0  0
 10  9  2  0  0  0  0
 11 10  1  0  0  0  0
 11 12  2  0  0  0  0
 12 13  1  0  0  0  0
 13 15  2  0  0  0  0
 13 14  1  0  0  0  0
 15 18  1  0  0  0  0
 16 11  1  0  0  0  0
 17 12  1  0  0  0  0
 18 20  1  0  0  0  0
 18 21  1  0  0  0  0
 19 18  1  0  0  0  0
 22 25  1  0  0  0  0
 22  2  1  0  0  0  0
 23 22  1  0  0  0  0
 24 22  1  0  0  0  0
 26 27  1  0  0  0  0
 28 26  1  0  0  0  0
 29 38  1  0  0  0  0
 30 26  1  0  0  0  0
 30 29  1  0  0  0  0
 31 30  2  0  0  0  0
 32 31  1  0  0  0  0
 33 35  2  0  0  0  0
 33 31  1  0  0  0  0
 34 33  1  0  0  0  0
 35 36  1  0  0  0  0
 36 29  2  0  0  0  0
 37 38  1  0  0  0  0
 38 40  2  0  0  0  0
 38 39  2  0  0  0  0
M  END
>  <minimizedAffinity>
-6.47519827

$$$$

 OpenBabel03272500233D

 40 42  0  0  0  0  0  0  0  0999 V2000
   32.5650   29.6300   34.6710 C   0  0  0  0  0  0  0  0  0  0  0  0
   32.9800   30.4930   35.7140 C   0  0  0  0  0  0  0  0  0  0  0  0
   34.2710   31.0190   35.6950 C   0  0  0  0  0  0  0  0  0  0  0  0
   35.0830   30.6650   34.6450 N   0  0  0  0  0  0  0  0  0  0  0  0
   34.6850   29.8590   33.6780 C   0  0  0  0  0  0  0  0  0  0  0  0
   33.4320   29.3310   33.6690 N   0  0  0  0  0  0  0  0  0  0  0  0
   31.5590   29.2370   34.7100 H   0  0  0  0  0  0  0  0  0  0  0  0
   36.6440   27.6320   34.2650 Cl  0  0  0  0  0  0  0  0  0  0  0  0
   36.5620   28.5100   32.7390 C   0  0  0  0  0  0  0  0  0  0  0  0
   35.6090   29.5250   32.5850 C   0  0  0  0  0  0  0  0  0  0  0  0
   35.5000   30.2490   31.4030 C   0  0  0  0  0  0  0  0  0  0  0  0
   36.3910   29.9110   30.3810 C   0  0  0  0  0  0  0  0  0  0  0  0
   37.3280   28.9190   30.5200 C   0  0  0  0  0  0  0  0  0  0  0  0
   38.3830   28.5950   29.1620 Cl  0  0  0  0  0  0  0  0  0  0  0  0
   37.4040   28.2220   31.7130 C   0  0  0  0  0  0  0  0  0  0  0  0
   34.7620   31.0280   31.2970 H   0  0  0  0  0  0  0  0  0  0  0  0
   36.2530   30.5140   29.4860 H   0  0  0  0  0  0  0  0  0  0  0  0
   38.4160   27.1470   31.8720 C   0  0  0  0  0  0  0  0  0  0  0  0
   39.3480   27.4940   32.8620 F   0  0  0  0  0  0  0  0  0  0  0  0
   39.0430   26.8430   30.7000 F   0  0  0  0  0  0  0  0  0  0  0  0
   37.8080   25.9950   32.3100 F   0  0  0  0  0  0  0  0  0  0  0  0
   31.9870   30.7960   36.7950 C   0  0  0  0  0  0  0  0  0  0  0  0
   30.8190   30.0740   36.6110 F   0  0  0  0  0  0  0  0  0  0  0  0
   32.5350   30.3730   37.9950 F   0  0  0  0  0  0  0  0  0  0  0  0
   31.7040   32.1280   36.9170 F   0  0  0  0  0  0  0  0  0  0  0  0
   34.6980   31.9060   36.7690 C   0  0  0  0  0  0  0  0  0  0  0  0
   35.3740   31.4420   37.5290 H   0  0  0  0  0  0  0  0  0  0  0  0
   33.7960   32.1820   37.3580 H   0  0  0  0  0  0  0  0  0  0  0  0
   34.9700   34.3710   36.6300 C   0  0  0  0  0  0  0  0  0  0  0  0
   35.4210   33.1100   36.2970 C   0  0  0  0  0  0  0  0  0  0  0  0
   36.5570   32.9130   35.5150 C   0  0  0  0  0  0  0  0  0  0  0  0
   36.8700   31.8960   35.2810 H   0  0  0  0  0  0  0  0  0  0  0  0
   37.2800   33.9790   35.0410 C   0  0  0  0  0  0  0  0  0  0  0  0
   38.1540   33.7670   34.4390 H   0  0  0  0  0  0  0  0  0  0  0  0
   36.8640   35.2600   35.3500 C   0  0  0  0  0  3  0  0  0  0  0  0
   35.7340   35.4140   36.1270 C   0  0  0  0  0  3  0  0  0  0  0  0
   32.8430   33.4790   37.8040 H   0  0  0  0  0  0  0  0  0  0  0  0
   33.5740   34.6430   37.5890 S   0  0  0  0  0  0  0  0  0  0  0  0
   34.0390   35.0150   38.9940 O   0  0  0  0  0  0  0  0  0  0  0  0
   32.6980   35.7580   37.1660 O   0  0  0  0  0  0  0  0  0  0  0  0
  1  7  1  0  0  0  0
  1  2  1  0  0  0  0
  2 22  1  0  0  0  0
  3  2  2  0  0  0  0
  3 26  1  0  0  0  0
  4  3  1  0  0  0  0
  5  4  2  0  0  0  0
  6  5  1  0  0  0  0
  6  1  2  0  0  0  0
  9  8  1  0  0  0  0
 10  9  1  0  0  0  0
 10  5  1  0  0  0  0
 11 10  2  0  0  0  0
 12 13  2  0  0  0  0
 12 11  1  0  0  0  0
 13 15  1  0  0  0  0
 14 13  1  0  0  0  0
 15 18  1  0  0  0  0
 15  9  2  0  0  0  0
 16 11  1  0  0  0  0
 17 12  1  0  0  0  0
 18 21  1  0  0  0  0
 18 19  1  0  0  0  0
 20 18  1  0  0  0  0
 22 25  1  0  0  0  0
 22 24  1  0  0  0  0
 23 22  1  0  0  0  0
 26 28  1  0  0  0  0
 26 27  1  0  0  0  0
 29 38  1  0  0  0  0
 30 29  1  0  0  0  0
 30 26  1  0  0  0  0
 31 30  2  0  0  0  0
 32 31  1  0  0  0  0
 33 35  2  0  0  0  0
 33 31  1  0  0  0  0
 34 33  1  0  0  0  0
 35 36  1  0  0  0  0
 36 29  2  0  0  0  0
 38 37  1  0  0  0  0
 38 39  2  0  0  0  0
 40 38  2  0  0  0  0
M  END
>  <minimizedAffinity>
-6.45091534

$$$$

 OpenBabel03272500233D

 40 42  0  0  0  0  0  0  0  0999 V2000
   38.1940   26.0940   36.7240 C   0  0  0  0  0  0  0  0  0  0  0  0
   38.1440   24.6790   36.7050 C   0  0  0  0  0  0  0  0  0  0  0  0
   38.0370   24.0140   35.4850 C   0  0  0  0  0  0  0  0  0  0  0  0
   37.9850   24.7830   34.3480 N   0  0  0  0  0  0  0  0  0  0  0  0
   38.0310   26.1010   34.3780 C   0  0  0  0  0  0  0  0  0  0  0  0
   38.1360   26.7780   35.5520 N   0  0  0  0  0  0  0  0  0  0  0  0
   38.2770   26.5840   37.6840 H   0  0  0  0  0  0  0  0  0  0  0  0
   35.9170   28.2600   34.2550 Cl  0  0  0  0  0  0  0  0  0  0  0  0
   37.0330   27.8840   32.9450 C   0  0  0  0  0  0  0  0  0  0  0  0
   37.9720   26.8590   33.1200 C   0  0  0  0  0  0  0  0  0  0  0  0
   38.8770   26.5200   32.1190 C   0  0  0  0  0  0  0  0  0  0  0  0
   38.7980   27.2550   30.9330 C   0  0  0  0  0  0  0  0  0  0  0  0
   37.8830   28.2620   30.7510 C   0  0  0  0  0  0  0  0  0  0  0  0
   37.8910   29.1040   29.2180 Cl  0  0  0  0  0  0  0  0  0  0  0  0
   37.0000   28.5670   31.7710 C   0  0  0  0  0  0  0  0  0  0  0  0
   39.5940   25.7290   32.2660 H   0  0  0  0  0  0  0  0  0  0  0  0
   39.5310   26.9410   30.1940 H   0  0  0  0  0  0  0  0  0  0  0  0
   36.0060   29.6540   31.5810 C   0  0  0  0  0  0  0  0  0  0  0  0
   35.9190   30.0060   30.2250 F   0  0  0  0  0  0  0  0  0  0  0  0
   36.2740   30.7460   32.3510 F   0  0  0  0  0  0  0  0  0  0  0  0
   34.7550   29.2100   31.9380 F   0  0  0  0  0  0  0  0  0  0  0  0
   38.2130   23.9690   38.0240 C   0  0  0  0  0  0  0  0  0  0  0  0
   39.4280   23.3180   38.1720 F   0  0  0  0  0  0  0  0  0  0  0  0
   38.1480   24.9290   39.0190 F   0  0  0  0  0  0  0  0  0  0  0  0
   37.1820   23.0950   38.2250 F   0  0  0  0  0  0  0  0  0  0  0  0
   37.9850   22.5580   35.4670 C   0  0  0  0  0  0  0  0  0  0  0  0
   36.9570   22.1180   35.4910 H   0  0  0  0  0  0  0  0  0  0  0  0
   38.4470   22.1910   36.4090 H   0  0  0  0  0  0  0  0  0  0  0  0
   37.8690   21.4130   33.2650 C   0  0  0  0  0  0  0  0  0  0  0  0
   38.6330   21.9530   34.2800 C   0  0  0  0  0  0  0  0  0  0  0  0
   40.0250   21.9530   34.2360 C   0  0  0  0  0  0  0  0  0  0  0  0
   40.5820   22.3930   35.0640 H   0  0  0  0  0  0  0  0  0  0  0  0
   40.6980   21.4110   33.1690 C   0  0  0  0  0  0  0  0  0  0  0  0
   41.7790   21.4400   33.1880 H   0  0  0  0  0  0  0  0  0  0  0  0
   39.9710   20.8590   32.1310 C   0  0  0  0  0  3  0  0  0  0  0  0
   38.5930   20.8780   32.2110 C   0  0  0  0  0  3  0  0  0  0  0  0
   35.6140   22.6610   33.5140 H   0  0  0  0  0  0  0  0  0  0  0  0
   36.1530   21.3970   33.2940 S   0  0  0  0  0  0  0  0  0  0  0  0
   35.6670   21.0620   31.8870 O   0  0  0  0  0  0  0  0  0  0  0  0
   35.5240   20.3840   34.1700 O   0  0  0  0  0  0  0  0  0  0  0  0
  1  7  1  0  0  0  0
  2  1  1  0  0  0  0
  2 22  1  0  0  0  0
  3  2  2  0  0  0  0
  4  5  2  0  0  0  0
  4  3  1  0  0  0  0
  5  6  1  0  0  0  0
  6  1  2  0  0  0  0
  9 10  1  0  0  0  0
  9  8  1  0  0  0  0
 10  5  1  0  0  0  0
 11 16  1  0  0  0  0
 11 10  2  0  0  0  0
 12 11  1  0  0  0  0
 13 12  2  0  0  0  0
 13 15  1  0  0  0  0
 14 13  1  0  0  0  0
 15  9  2  0  0  0  0
 17 12  1  0  0  0  0
 18 15  1  0  0  0  0
 18 21  1  0  0  0  0
 18 20  1  0  0  0  0
 19 18  1  0  0  0  0
 22 23  1  0  0  0  0
 22 25  1  0  0  0  0
 22 24  1  0  0  0  0
 26  3  1  0  0  0  0
 26 27  1  0  0  0  0
 26 28  1  0  0  0  0
 29 38  1  0  0  0  0
 29 30  1  0  0  0  0
 30 26  1  0  0  0  0
 31 30  2  0  0  0  0
 31 32  1  0  0  0  0
 33 34  1  0  0  0  0
 33 31  1  0  0  0  0
 35 36  1  0  0  0  0
 35 33  2  0  0  0  0
 36 29  2  0  0  0  0
 38 37  1  0  0  0  0
 38 40  2  0  0  0  0
 39 38  2  0  0  0  0
M  END
>  <minimizedAffinity>
-6.41856527

$$$$

 OpenBabel03272500233D

 40 42  0  0  0  0  0  0  0  0999 V2000
   38.0190   26.0080   36.8420 C   0  0  0  0  0  0  0  0  0  0  0  0
   38.3110   24.6260   36.7450 C   0  0  0  0  0  0  0  0  0  0  0  0
   38.4600   24.0430   35.4880 C   0  0  0  0  0  0  0  0  0  0  0  0
   38.3140   24.8590   34.3920 N   0  0  0  0  0  0  0  0  0  0  0  0
   38.0420   26.1460   34.4940 C   0  0  0  0  0  0  0  0  0  0  0  0
   37.8910   26.7420   35.7060 N   0  0  0  0  0  0  0  0  0  0  0  0
   37.9090   26.4330   37.8290 H   0  0  0  0  0  0  0  0  0  0  0  0
   40.4290   26.1360   32.6380 Cl  0  0  0  0  0  0  0  0  0  0  0  0
   38.9400   27.0300   32.3410 C   0  0  0  0  0  0  0  0  0  0  0  0
   37.9000   26.9570   33.2760 C   0  0  0  0  0  0  0  0  0  0  0  0
   36.7030   27.6410   33.0920 C   0  0  0  0  0  0  0  0  0  0  0  0
   36.5960   28.4050   31.9270 C   0  0  0  0  0  0  0  0  0  0  0  0
   37.6080   28.4840   31.0020 C   0  0  0  0  0  0  0  0  0  0  0  0
   37.3440   29.4750   29.5860 Cl  0  0  0  0  0  0  0  0  0  0  0  0
   38.7830   27.7880   31.2240 C   0  0  0  0  0  0  0  0  0  0  0  0
   35.9110   27.5770   33.8190 H   0  0  0  0  0  0  0  0  0  0  0  0
   35.6380   28.9140   31.8440 H   0  0  0  0  0  0  0  0  0  0  0  0
   39.8820   27.8690   30.2290 C   0  0  0  0  0  0  0  0  0  0  0  0
   39.9870   26.6640   29.5160 F   0  0  0  0  0  0  0  0  0  0  0  0
   41.0750   28.2040   30.7960 F   0  0  0  0  0  0  0  0  0  0  0  0
   39.5960   28.8370   29.2960 F   0  0  0  0  0  0  0  0  0  0  0  0
   38.4450   23.8580   38.0260 C   0  0  0  0  0  0  0  0  0  0  0  0
   39.6940   23.2640   38.1180 F   0  0  0  0  0  0  0  0  0  0  0  0
   38.3540   24.7650   39.0680 F   0  0  0  0  0  0  0  0  0  0  0  0
   37.4640   22.9220   38.2050 F   0  0  0  0  0  0  0  0  0  0  0  0
   38.7580   22.6200   35.3890 C   0  0  0  0  0  0  0  0  0  0  0  0
   38.9540   22.1060   36.3630 H   0  0  0  0  0  0  0  0  0  0  0  0
   39.7210   22.5140   34.8420 H   0  0  0  0  0  0  0  0  0  0  0  0
   37.7780   21.4730   33.4160 C   0  0  0  0  0  0  0  0  0  0  0  0
   37.6840   21.8280   34.7460 C   0  0  0  0  0  0  0  0  0  0  0  0
   36.5940   21.4650   35.5340 C   0  0  0  0  0  0  0  0  0  0  0  0
   36.5690   21.7710   36.5790 H   0  0  0  0  0  0  0  0  0  0  0  0
   35.5590   20.7310   35.0100 C   0  0  0  0  0  0  0  0  0  0  0  0
   34.7390   20.4770   35.6670 H   0  0  0  0  0  0  0  0  0  0  0  0
   35.6120   20.3540   33.6810 C   0  0  0  0  0  3  0  0  0  0  0  0
   36.7090   20.7330   32.9340 C   0  0  0  0  0  3  0  0  0  0  0  0
   40.3110   21.9190   33.1220 H   0  0  0  0  0  0  0  0  0  0  0  0
   39.1080   21.9080   32.4230 S   0  0  0  0  0  0  0  0  0  0  0  0
   39.3160   20.7890   31.4070 O   0  0  0  0  0  0  0  0  0  0  0  0
   38.9440   23.1360   31.6140 O   0  0  0  0  0  0  0  0  0  0  0  0
  1  7  1  0  0  0  0
  2  1  1  0  0  0  0
  2 22  1  0  0  0  0
  3  2  2  0  0  0  0
  4  5  2  0  0  0  0
  4  3  1  0  0  0  0
  5  6  1  0  0  0  0
  6  1  2  0  0  0  0
  9  8  1  0  0  0  0
  9 10  1  0  0  0  0
 10  5  1  0  0  0  0
 11 10  2  0  0  0  0
 11 16  1  0  0  0  0
 12 11  1  0  0  0  0
 13 15  1  0  0  0  0
 13 12  2  0  0  0  0
 14 13  1  0  0  0  0
 15  9  2  0  0  0  0
 17 12  1  0  0  0  0
 18 20  1  0  0  0  0
 18 15  1  0  0  0  0
 19 18  1  0  0  0  0
 21 18  1  0  0  0  0
 22 23  1  0  0  0  0
 22 25  1  0  0  0  0
 22 24  1  0  0  0  0
 26  3  1  0  0  0  0
 26 27  1  0  0  0  0
 28 26  1  0  0  0  0
 29 30  1  0  0  0  0
 30 26  1  0  0  0  0
 30 31  2  0  0  0  0
 31 32  1  0  0  0  0
 33 31  1  0  0  0  0
 33 34  1  0  0  0  0
 35 33  2  0  0  0  0
 36 29  2  0  0  0  0
 36 35  1  0  0  0  0
 38 37  1  0  0  0  0
 38 29  1  0  0  0  0
 39 38  2  0  0  0  0
 40 38  2  0  0  0  0
M  END
>  <minimizedAffinity>
-6.33054447

$$$$

 OpenBabel03272500233D

 40 42  0  0  0  0  0  0  0  0999 V2000
   38.2340   26.1330   36.7790 C   0  0  0  0  0  0  0  0  0  0  0  0
   38.1650   24.7190   36.7810 C   0  0  0  0  0  0  0  0  0  0  0  0
   38.0530   24.0380   35.5700 C   0  0  0  0  0  0  0  0  0  0  0  0
   38.0160   24.7910   34.4210 N   0  0  0  0  0  0  0  0  0  0  0  0
   38.0800   26.1090   34.4330 C   0  0  0  0  0  0  0  0  0  0  0  0
   38.1900   26.8010   35.5970 N   0  0  0  0  0  0  0  0  0  0  0  0
   38.3200   26.6360   37.7320 H   0  0  0  0  0  0  0  0  0  0  0  0
   35.9640   28.2610   34.2520 Cl  0  0  0  0  0  0  0  0  0  0  0  0
   37.0980   27.8690   32.9620 C   0  0  0  0  0  0  0  0  0  0  0  0
   38.0360   26.8490   33.1630 C   0  0  0  0  0  0  0  0  0  0  0  0
   38.9540   26.4980   32.1790 C   0  0  0  0  0  0  0  0  0  0  0  0
   38.8890   27.2160   30.9830 C   0  0  0  0  0  0  0  0  0  0  0  0
   37.9750   28.2190   30.7740 C   0  0  0  0  0  0  0  0  0  0  0  0
   38.0020   29.0400   29.2300 Cl  0  0  0  0  0  0  0  0  0  0  0  0
   37.0780   28.5360   31.7790 C   0  0  0  0  0  0  0  0  0  0  0  0
   39.6710   25.7110   32.3460 H   0  0  0  0  0  0  0  0  0  0  0  0
   39.6330   26.8930   30.2570 H   0  0  0  0  0  0  0  0  0  0  0  0
   36.0860   29.6190   31.5610 C   0  0  0  0  0  0  0  0  0  0  0  0
   36.0150   29.9510   30.1990 F   0  0  0  0  0  0  0  0  0  0  0  0
   36.3430   30.7230   32.3180 F   0  0  0  0  0  0  0  0  0  0  0  0
   34.8310   29.1780   31.9090 F   0  0  0  0  0  0  0  0  0  0  0  0
   38.2190   24.0270   38.1090 C   0  0  0  0  0  0  0  0  0  0  0  0
   39.4360   23.3880   38.2850 F   0  0  0  0  0  0  0  0  0  0  0  0
   38.1310   25.0000   39.0910 F   0  0  0  0  0  0  0  0  0  0  0  0
   37.1910   23.1470   38.3060 F   0  0  0  0  0  0  0  0  0  0  0  0
   37.9810   22.5820   35.5720 C   0  0  0  0  0  0  0  0  0  0  0  0
   37.0000   22.1550   35.8980 H   0  0  0  0  0  0  0  0  0  0  0  0
   38.6930   22.2090   36.3400 H   0  0  0  0  0  0  0  0  0  0  0  0
   39.5410   21.7570   33.8250 C   0  0  0  0  0  0  0  0  0  0  0  0
   38.2450   21.9700   34.2490 C   0  0  0  0  0  0  0  0  0  0  0  0
   37.1450   21.6260   33.4680 C   0  0  0  0  0  0  0  0  0  0  0  0
   36.1420   21.8150   33.8510 H   0  0  0  0  0  0  0  0  0  0  0  0
   37.3090   21.0540   32.2310 C   0  0  0  0  0  0  0  0  0  0  0  0
   36.4190   20.8060   31.6680 H   0  0  0  0  0  0  0  0  0  0  0  0
   38.5910   20.8220   31.7660 C   0  0  0  0  0  3  0  0  0  0  0  0
   39.6550   21.1780   32.5700 C   0  0  0  0  0  3  0  0  0  0  0  0
   40.7380   21.8900   36.1170 H   0  0  0  0  0  0  0  0  0  0  0  0
   40.9140   22.1730   34.7660 S   0  0  0  0  0  0  0  0  0  0  0  0
   42.0510   21.2360   34.3690 O   0  0  0  0  0  0  0  0  0  0  0  0
   41.4530   23.5360   34.5670 O   0  0  0  0  0  0  0  0  0  0  0  0
  1  2  1  0  0  0  0
  1  7  1  0  0  0  0
  2 22  1  0  0  0  0
  3 26  1  0  0  0  0
  3  2  2  0  0  0  0
  4  5  2  0  0  0  0
  4  3  1  0  0  0  0
  5  6  1  0  0  0  0
  6  1  2  0  0  0  0
  9 10  1  0  0  0  0
  9  8  1  0  0  0  0
 10  5  1  0  0  0  0
 11 16  1  0  0  0  0
 11 10  2  0  0  0  0
 12 11  1  0  0  0  0
 13 12  2  0  0  0  0
 13 15  1  0  0  0  0
 14 13  1  0  0  0  0
 15  9  2  0  0  0  0
 17 12  1  0  0  0  0
 18 15  1  0  0  0  0
 18 21  1  0  0  0  0
 18 20  1  0  0  0  0
 19 18  1  0  0  0  0
 22 23  1  0  0  0  0
 22 25  1  0  0  0  0
 22 24  1  0  0  0  0
 26 27  1  0  0  0  0
 26 28  1  0  0  0  0
 29 30  1  0  0  0  0
 29 38  1  0  0  0  0
 30 26  1  0  0  0  0
 31 32  1  0  0  0  0
 31 30  2  0  0  0  0
 33 31  1  0  0  0  0
 34 33  1  0  0  0  0
 35 33  2  0  0  0  0
 35 36  1  0  0  0  0
 36 29  2  0  0  0  0
 38 37  1  0  0  0  0
 39 38  2  0  0  0  0
 40 38  2  0  0  0  0
M  END
>  <minimizedAffinity>
-6.28144312

$$$$

 OpenBabel03272500233D

 40 42  0  0  0  0  0  0  0  0999 V2000
   37.1670   29.5300   30.7950 C   0  0  0  0  0  0  0  0  0  0  0  0
   36.0750   30.2590   31.3260 C   0  0  0  0  0  0  0  0  0  0  0  0
   35.3590   29.7330   32.4000 C   0  0  0  0  0  0  0  0  0  0  0  0
   35.7610   28.5160   32.8930 N   0  0  0  0  0  0  0  0  0  0  0  0
   36.7800   27.8460   32.3890 C   0  0  0  0  0  0  0  0  0  0  0  0
   37.4970   28.3320   31.3430 N   0  0  0  0  0  0  0  0  0  0  0  0
   37.7050   29.9610   29.9620 H   0  0  0  0  0  0  0  0  0  0  0  0
   37.4890   27.8880   35.3290 Cl  0  0  0  0  0  0  0  0  0  0  0  0
   37.5020   26.4420   34.3220 C   0  0  0  0  0  0  0  0  0  0  0  0
   37.1540   26.5480   32.9700 C   0  0  0  0  0  0  0  0  0  0  0  0
   37.1460   25.4390   32.1300 C   0  0  0  0  0  0  0  0  0  0  0  0
   37.5060   24.2180   32.7070 C   0  0  0  0  0  0  0  0  0  0  0  0
   37.8480   24.1030   34.0310 C   0  0  0  0  0  0  0  0  0  0  0  0
   38.2770   22.5150   34.6280 Cl  0  0  0  0  0  0  0  0  0  0  0  0
   37.8430   25.2300   34.8330 C   0  0  0  0  0  0  0  0  0  0  0  0
   36.8770   25.5330   31.0910 H   0  0  0  0  0  0  0  0  0  0  0  0
   37.4800   23.3940   31.9980 H   0  0  0  0  0  0  0  0  0  0  0  0
   38.2130   25.1130   36.2660 C   0  0  0  0  0  0  0  0  0  0  0  0
   37.2840   24.3130   36.9480 F   0  0  0  0  0  0  0  0  0  0  0  0
   38.3460   26.3270   36.8710 F   0  0  0  0  0  0  0  0  0  0  0  0
   39.4240   24.4730   36.3840 F   0  0  0  0  0  0  0  0  0  0  0  0
   35.7500   31.5770   30.6890 C   0  0  0  0  0  0  0  0  0  0  0  0
   36.2690   32.6260   31.4310 F   0  0  0  0  0  0  0  0  0  0  0  0
   36.3760   31.6100   29.4550 F   0  0  0  0  0  0  0  0  0  0  0  0
   34.4120   31.7640   30.4790 F   0  0  0  0  0  0  0  0  0  0  0  0
   34.2350   30.4830   32.9450 C   0  0  0  0  0  0  0  0  0  0  0  0
   33.2740   29.9150   33.0170 H   0  0  0  0  0  0  0  0  0  0  0  0
   33.9990   31.3040   32.2340 H   0  0  0  0  0  0  0  0  0  0  0  0
   33.5360   30.8140   35.3060 C   0  0  0  0  0  0  0  0  0  0  0  0
   34.4730   31.0060   34.3110 C   0  0  0  0  0  0  0  0  0  0  0  0
   35.6650   31.6900   34.5390 C   0  0  0  0  0  0  0  0  0  0  0  0
   36.3710   31.8140   33.7190 H   0  0  0  0  0  0  0  0  0  0  0  0
   35.9560   32.2040   35.7780 C   0  0  0  0  0  0  0  0  0  0  0  0
   36.8960   32.7250   35.8990 H   0  0  0  0  0  0  0  0  0  0  0  0
   35.0450   32.0340   36.8040 C   0  0  0  0  0  3  0  0  0  0  0  0
   33.8760   31.3510   36.5380 C   0  0  0  0  0  3  0  0  0  0  0  0
   31.9360   29.5020   33.7500 H   0  0  0  0  0  0  0  0  0  0  0  0
   32.0600   29.9770   35.0510 S   0  0  0  0  0  0  0  0  0  0  0  0
   32.1020   28.6950   35.8770 O   0  0  0  0  0  0  0  0  0  0  0  0
   30.8300   30.6750   35.4890 O   0  0  0  0  0  0  0  0  0  0  0  0
  1  2  2  0  0  0  0
  1  6  1  0  0  0  0
  2  3  1  0  0  0  0
  3  4  2  0  0  0  0
  3 26  1  0  0  0  0
  5  4  1  0  0  0  0
  5 10  1  0  0  0  0
  6  5  2  0  0  0  0
  7  1  1  0  0  0  0
  9 15  1  0  0  0  0
  9  8  1  0  0  0  0
 10  9  2  0  0  0  0
 11 12  2  0  0  0  0
 11 10  1  0  0  0  0
 12 13  1  0  0  0  0
 13 14  1  0  0  0  0
 13 15  2  0  0  0  0
 15 18  1  0  0  0  0
 16 11  1  0  0  0  0
 17 12  1  0  0  0  0
 18 21  1  0  0  0  0
 18 20  1  0  0  0  0
 18 19  1  0  0  0  0
 22  2  1  0  0  0  0
 22 23  1  0  0  0  0
 24 22  1  0  0  0  0
 25 22  1  0  0  0  0
 26 27  1  0  0  0  0
 26 30  1  0  0  0  0
 28 26  1  0  0  0  0
 29 36  1  0  0  0  0
 30 31  1  0  0  0  0
 30 29  2  0  0  0  0
 31 33  2  0  0  0  0
 32 31  1  0  0  0  0
 33 34  1  0  0  0  0
 33 35  1  0  0  0  0
 36 35  2  0  0  0  0
 37 38  1  0  0  0  0
 38 29  1  0  0  0  0
 38 40  2  0  0  0  0
 38 39  2  0  0  0  0
M  END
>  <minimizedAffinity>
-6.27835274

$$$$

 OpenBabel03272500233D

 40 42  0  0  0  0  0  0  0  0999 V2000
   37.4360   27.0640   33.2700 C   0  0  0  0  0  0  0  0  0  0  0  0
   36.9280   26.2860   32.2010 C   0  0  0  0  0  0  0  0  0  0  0  0
   37.5300   25.0670   31.8950 C   0  0  0  0  0  0  0  0  0  0  0  0
   38.6020   24.6800   32.6630 N   0  0  0  0  0  0  0  0  0  0  0  0
   39.0670   25.4140   33.6570 C   0  0  0  0  0  0  0  0  0  0  0  0
   38.5000   26.6060   33.9790 N   0  0  0  0  0  0  0  0  0  0  0  0
   36.9500   28.0050   33.4860 H   0  0  0  0  0  0  0  0  0  0  0  0
   38.4540   23.2740   35.7040 Cl  0  0  0  0  0  0  0  0  0  0  0  0
   40.0570   23.9450   35.4130 C   0  0  0  0  0  0  0  0  0  0  0  0
   40.2170   24.9350   34.4360 C   0  0  0  0  0  0  0  0  0  0  0  0
   41.4600   25.4990   34.1640 C   0  0  0  0  0  0  0  0  0  0  0  0
   42.5360   25.0260   34.9200 C   0  0  0  0  0  0  0  0  0  0  0  0
   42.3920   24.0560   35.8800 C   0  0  0  0  0  0  0  0  0  0  0  0
   43.8210   23.5530   36.7540 Cl  0  0  0  0  0  0  0  0  0  0  0  0
   41.1380   23.5210   36.1190 C   0  0  0  0  0  0  0  0  0  0  0  0
   41.5690   26.2600   33.4100 H   0  0  0  0  0  0  0  0  0  0  0  0
   43.4760   25.5070   34.6600 H   0  0  0  0  0  0  0  0  0  0  0  0
   40.9740   22.4720   37.1570 C   0  0  0  0  0  0  0  0  0  0  0  0
   40.3710   23.0090   38.3050 F   0  0  0  0  0  0  0  0  0  0  0  0
   42.1490   21.8560   37.4680 F   0  0  0  0  0  0  0  0  0  0  0  0
   40.1190   21.4960   36.7010 F   0  0  0  0  0  0  0  0  0  0  0  0
   35.7510   26.8310   31.4500 C   0  0  0  0  0  0  0  0  0  0  0  0
   34.7470   25.8820   31.3470 F   0  0  0  0  0  0  0  0  0  0  0  0
   35.2350   27.8830   32.1880 F   0  0  0  0  0  0  0  0  0  0  0  0
   36.0720   27.3140   30.2120 F   0  0  0  0  0  0  0  0  0  0  0  0
   37.0080   24.2680   30.7940 C   0  0  0  0  0  0  0  0  0  0  0  0
   37.6860   24.1760   29.9090 H   0  0  0  0  0  0  0  0  0  0  0  0
   36.1180   24.7940   30.3860 H   0  0  0  0  0  0  0  0  0  0  0  0
   37.5100   21.8350   30.7970 C   0  0  0  0  0  0  0  0  0  0  0  0
   36.6810   22.8730   31.1710 C   0  0  0  0  0  0  0  0  0  0  0  0
   35.5180   22.6620   31.9090 C   0  0  0  0  0  0  0  0  0  0  0  0
   34.8990   23.5160   32.1790 H   0  0  0  0  0  0  0  0  0  0  0  0
   35.1490   21.3980   32.2960 C   0  0  0  0  0  0  0  0  0  0  0  0
   34.2360   21.2930   32.8670 H   0  0  0  0  0  0  0  0  0  0  0  0
   35.9500   20.3280   31.9420 C   0  0  0  0  0  3  0  0  0  0  0  0
   37.0940   20.5790   31.2110 C   0  0  0  0  0  3  0  0  0  0  0  0
   39.0120   23.3310   29.3100 H   0  0  0  0  0  0  0  0  0  0  0  0
   38.9460   22.0670   29.8880 S   0  0  0  0  0  0  0  0  0  0  0  0
   40.1190   22.0790   30.8640 O   0  0  0  0  0  0  0  0  0  0  0  0
   39.2750   21.0090   28.9060 O   0  0  0  0  0  0  0  0  0  0  0  0
  1  7  1  0  0  0  0
  1  6  1  0  0  0  0
  2  1  2  0  0  0  0
  3  2  1  0  0  0  0
  3  4  2  0  0  0  0
  4  5  1  0  0  0  0
  5  6  2  0  0  0  0
  5 10  1  0  0  0  0
  9  8  1  0  0  0  0
  9 15  1  0  0  0  0
 10  9  2  0  0  0  0
 11 10  1  0  0  0  0
 11 12  2  0  0  0  0
 12 13  1  0  0  0  0
 13 15  2  0  0  0  0
 13 14  1  0  0  0  0
 15 18  1  0  0  0  0
 16 11  1  0  0  0  0
 17 12  1  0  0  0  0
 18 20  1  0  0  0  0
 18 19  1  0  0  0  0
 21 18  1  0  0  0  0
 22 24  1  0  0  0  0
 22  2  1  0  0  0  0
 23 22  1  0  0  0  0
 25 22  1  0  0  0  0
 26 30  1  0  0  0  0
 26  3  1  0  0  0  0
 27 26  1  0  0  0  0
 28 26  1  0  0  0  0
 29 30  2  0  0  0  0
 29 36  1  0  0  0  0
 30 31  1  0  0  0  0
 31 32  1  0  0  0  0
 31 33  2  0  0  0  0
 33 34  1  0  0  0  0
 35 33  1  0  0  0  0
 36 35  2  0  0  0  0
 37 38  1  0  0  0  0
 38 29  1  0  0  0  0
 38 39  2  0  0  0  0
 40 38  2  0  0  0  0
M  END
>  <minimizedAffinity>
-6.25823593

$$$$
