
 OpenBabel03262520473D

 37 39  0  0  1  0  0  0  0  0999 V2000
   37.4990   31.1850   46.6500 C   0  0  1  0  0  0  0  0  0  0  0  0
   38.0920   32.1840   45.6460 C   0  0  0  0  0  0  0  0  0  0  0  0
   37.9310   30.7670   45.3050 C   0  0  2  0  0  0  0  0  0  0  0  0
   36.4330   31.3310   46.8520 H   0  0  0  0  0  0  0  0  0  0  0  0
   37.4140   32.9560   45.2440 H   0  0  0  0  0  0  0  0  0  0  0  0
   39.1110   32.5810   45.8470 H   0  0  0  0  0  0  0  0  0  0  0  0
   38.8870   30.1670   45.2930 H   0  0  0  0  0  0  0  0  0  0  0  0
   38.3810   30.9390   47.8540 C   0  0  0  0  0  0  0  0  0  0  0  0
   39.1960   30.2460   47.5550 H   0  0  0  0  0  0  0  0  0  0  0  0
   38.8310   31.9240   48.1240 H   0  0  0  0  0  0  0  0  0  0  0  0
   37.3300   30.2020   51.3710 C   0  0  0  0  0  0  0  0  0  0  0  0
   38.0460   30.7220   50.2510 C   0  0  0  0  0  0  0  0  0  0  0  0
   37.6120   30.3790   48.9900 C   0  0  0  0  0  0  0  0  0  0  0  0
   36.5370   29.5740   48.8540 N   0  0  0  0  0  0  0  0  0  0  0  0
   35.8720   29.0910   49.9230 C   0  0  0  0  0  0  0  0  0  0  0  0
   36.2710   29.4080   51.1690 N   0  0  0  0  0  0  0  0  0  0  0  0
   37.7000   30.4910   52.3300 H   0  0  0  0  0  0  0  0  0  0  0  0
   38.9060   31.3650   50.3930 H   0  0  0  0  0  0  0  0  0  0  0  0
   35.0120   28.4470   49.7940 H   0  0  0  0  0  0  0  0  0  0  0  0
   36.8390   30.2560   44.4020 C   0  0  0  0  0  0  0  0  0  0  0  0
   36.4970   29.2570   44.7890 H   0  0  0  0  0  0  0  0  0  0  0  0
   35.9510   30.8940   44.4600 H   0  0  0  0  0  0  0  0  0  0  0  0
   37.2920   29.9960   42.9930 C   0  0  0  0  0  0  0  0  0  0  0  0
   38.1410   30.7260   42.8240 H   0  0  0  0  0  0  0  0  0  0  0  0
   36.5500   30.2940   42.2290 H   0  0  0  0  0  0  0  0  0  0  0  0
   39.2230   28.4500   42.5460 C   0  0  0  0  0  0  0  0  0  0  0  0
   37.8770   28.6640   42.8240 C   0  0  0  0  0  0  0  0  0  0  0  0
   37.1420   27.4890   42.9250 C   0  0  0  0  0  0  0  0  0  0  0  0
   36.0720   27.6440   43.1440 H   0  0  0  0  0  0  0  0  0  0  0  0
   37.5700   26.1880   42.7880 C   0  0  0  0  0  0  0  0  0  0  0  0
   36.8630   25.3900   42.8990 H   0  0  0  0  0  0  0  0  0  0  0  0
   38.9200   26.0450   42.5140 C   0  0  0  0  0  3  0  0  0  0  0  0
   39.7470   27.1610   42.3910 C   0  0  0  0  0  3  0  0  0  0  0  0
   40.2460   30.4890   43.5720 H   0  0  0  0  0  0  0  0  0  0  0  0
   40.3110   29.7730   42.3770 S   0  0  0  0  0  0  0  0  0  0  0  0
   41.7700   29.3410   42.3150 O   0  0  0  0  0  0  0  0  0  0  0  0
   39.9840   30.7600   41.3280 O   0  0  0  0  0  0  0  0  0  0  0  0
  1  4  1  1  0  0  0
  1  8  1  0  0  0  0
  2  6  1  0  0  0  0
  2  1  1  0  0  0  0
  3  7  1  6  0  0  0
  3  2  1  0  0  0  0
  3  1  1  0  0  0  0
  5  2  1  0  0  0  0
  8 10  1  0  0  0  0
  8 13  1  0  0  0  0
  9  8  1  0  0  0  0
 11 17  1  0  0  0  0
 12 18  1  0  0  0  0
 12 11  2  0  0  0  0
 13 12  1  0  0  0  0
 14 13  2  0  0  0  0
 14 15  1  0  0  0  0
 15 16  2  0  0  0  0
 16 11  1  0  0  0  0
 19 15  1  0  0  0  0
 20 22  1  0  0  0  0
 20 21  1  0  0  0  0
 20  3  1  0  0  0  0
 23 20  1  0  0  0  0
 24 23  1  0  0  0  0
 25 23  1  0  0  0  0
 26 27  1  0  0  0  0
 27 28  2  0  0  0  0
 27 23  1  0  0  0  0
 28 29  1  0  0  0  0
 30 31  1  0  0  0  0
 30 28  1  0  0  0  0
 32 30  2  0  0  0  0
 33 32  1  0  0  0  0
 33 26  2  0  0  0  0
 35 26  1  0  0  0  0
 35 34  1  0  0  0  0
 36 35  2  0  0  0  0
 37 35  2  0  0  0  0
M  END
>  <minimizedAffinity>
-4.96688604

>  <minimizedRMSD>
2.16242552

$$$$
