
 OpenBabel03272509463D

 28 29  0  0  0  0  0  0  0  0999 V2000
   33.9020   27.0310   48.0120 C   0  0  0  0  0  0  0  0  0  0  0  0
   34.8590   26.4530   47.9960 H   0  0  0  0  0  0  0  0  0  0  0  0
   33.2400   26.4660   48.6960 H   0  0  0  0  0  0  0  0  0  0  0  0
   33.1250   25.7390   46.1710 C   0  0  0  0  0  0  0  0  0  0  0  0
   33.3070   27.0410   46.6550 C   0  0  0  0  0  0  0  0  0  0  0  0
   32.9380   28.1100   45.8760 C   0  0  0  0  0  0  0  0  0  0  0  0
   33.1200   29.0650   46.3430 H   0  0  0  0  0  0  0  0  0  0  0  0
   32.3930   27.9170   44.6270 C   0  0  0  0  0  0  0  0  0  0  0  0
   32.1200   28.8100   44.0540 H   0  0  0  0  0  0  0  0  0  0  0  0
   32.1950   26.6550   44.1080 C   0  0  0  0  0  3  0  0  0  0  0  0
   32.5700   25.5640   44.9010 C   0  0  0  0  0  3  0  0  0  0  0  0
   34.7030   24.2450   47.5840 H   0  0  0  0  0  0  0  0  0  0  0  0
   33.5000   24.2280   46.9370 S   0  0  0  0  0  0  0  0  0  0  0  0
   32.4170   23.7610   47.8830 O   0  0  0  0  0  0  0  0  0  0  0  0
   33.6560   23.1970   45.8320 O   0  0  0  0  0  0  0  0  0  0  0  0
   34.1600   28.4140   48.5350 C   0  0  0  0  0  0  0  0  0  0  0  0
   34.9040   28.8750   47.8210 H   0  0  0  0  0  0  0  0  0  0  0  0
   33.2630   29.0390   48.4480 H   0  0  0  0  0  0  0  0  0  0  0  0
   34.7200   28.3640   49.8300 O   0  0  0  0  0  0  0  0  0  0  0  0
   37.3650   30.2360   51.4270 C   0  0  0  0  0  0  0  0  0  0  0  0
   38.0780   30.6640   50.2870 C   0  0  0  0  0  0  0  0  0  0  0  0
   37.6070   30.2830   49.0340 C   0  0  0  0  0  0  0  0  0  0  0  0
   36.4760   29.5140   48.9910 N   0  0  0  0  0  0  0  0  0  0  0  0
   35.8280   29.1300   50.1060 C   0  0  0  0  0  0  0  0  0  0  0  0
   36.2790   29.4950   51.3270 N   0  0  0  0  0  0  0  0  0  0  0  0
   37.6990   30.5110   52.4080 H   0  0  0  0  0  0  0  0  0  0  0  0
   38.9720   31.2730   50.3760 H   0  0  0  0  0  0  0  0  0  0  0  0
   38.1060   30.5750   48.1180 H   0  0  0  0  0  0  0  0  0  0  0  0
  1 16  1  0  0  0  0
  1  3  1  0  0  0  0
  2  1  1  0  0  0  0
  4  5  1  0  0  0  0
  4 13  1  0  0  0  0
  5  1  1  0  0  0  0
  6  7  1  0  0  0  0
  6  5  2  0  0  0  0
  8  6  1  0  0  0  0
  9  8  1  0  0  0  0
 10  8  2  0  0  0  0
 10 11  1  0  0  0  0
 11  4  2  0  0  0  0
 13 12  1  0  0  0  0
 13 14  2  0  0  0  0
 15 13  2  0  0  0  0
 16 19  1  0  0  0  0
 17 16  1  0  0  0  0
 18 16  1  0  0  0  0
 19 24  1  0  0  0  0
 20 26  1  0  0  0  0
 21 27  1  0  0  0  0
 21 20  2  0  0  0  0
 22 21  1  0  0  0  0
 23 22  2  0  0  0  0
 23 24  1  0  0  0  0
 24 25  2  0  0  0  0
 25 20  1  0  0  0  0
 28 22  1  0  0  0  0
M  END
>  <minimizedAffinity>
-3.75294065

>  <minimizedRMSD>
0.272072047

$$$$
