
 OpenBabel03272509463D

 28 29  0  0  0  0  0  0  0  0999 V2000
   33.2540   27.3640   48.2120 C   0  0  0  0  0  0  0  0  0  0  0  0
   33.8010   26.4320   48.5000 H   0  0  0  0  0  0  0  0  0  0  0  0
   32.3060   27.3230   48.7810 H   0  0  0  0  0  0  0  0  0  0  0  0
   31.6030   27.6060   46.5160 C   0  0  0  0  0  0  0  0  0  0  0  0
   32.9540   27.3330   46.7620 C   0  0  0  0  0  0  0  0  0  0  0  0
   33.7970   27.0850   45.7050 C   0  0  0  0  0  0  0  0  0  0  0  0
   34.8140   26.8870   46.0060 H   0  0  0  0  0  0  0  0  0  0  0  0
   33.3270   27.1030   44.4110 C   0  0  0  0  0  0  0  0  0  0  0  0
   34.0500   26.8970   43.6130 H   0  0  0  0  0  0  0  0  0  0  0  0
   32.0060   27.3670   44.1210 C   0  0  0  0  0  3  0  0  0  0  0  0
   31.1460   27.6190   45.1950 C   0  0  0  0  0  3  0  0  0  0  0  0
   30.8030   28.1990   48.9100 H   0  0  0  0  0  0  0  0  0  0  0  0
   30.3360   27.9480   47.6500 S   0  0  0  0  0  0  0  0  0  0  0  0
   29.4320   29.0760   47.2050 O   0  0  0  0  0  0  0  0  0  0  0  0
   29.5010   26.6830   47.7810 O   0  0  0  0  0  0  0  0  0  0  0  0
   34.0660   28.5630   48.6050 C   0  0  0  0  0  0  0  0  0  0  0  0
   34.7800   28.7420   47.7480 H   0  0  0  0  0  0  0  0  0  0  0  0
   33.4410   29.4640   48.6410 H   0  0  0  0  0  0  0  0  0  0  0  0
   34.8000   28.3090   49.7830 O   0  0  0  0  0  0  0  0  0  0  0  0
   37.3660   30.2480   51.4280 C   0  0  0  0  0  0  0  0  0  0  0  0
   38.0840   30.7010   50.3010 C   0  0  0  0  0  0  0  0  0  0  0  0
   37.6420   30.3140   49.0390 C   0  0  0  0  0  0  0  0  0  0  0  0
   36.5340   29.5120   48.9760 N   0  0  0  0  0  0  0  0  0  0  0  0
   35.8820   29.1040   50.0790 C   0  0  0  0  0  0  0  0  0  0  0  0
   36.3030   29.4770   51.3090 N   0  0  0  0  0  0  0  0  0  0  0  0
   37.6780   30.5280   52.4150 H   0  0  0  0  0  0  0  0  0  0  0  0
   38.9580   31.3350   50.4050 H   0  0  0  0  0  0  0  0  0  0  0  0
   38.1460   30.6240   48.1320 H   0  0  0  0  0  0  0  0  0  0  0  0
  1  2  1  0  0  0  0
  1 16  1  0  0  0  0
  1  3  1  0  0  0  0
  4  5  1  0  0  0  0
  4 13  1  0  0  0  0
  5  1  1  0  0  0  0
  6  7  1  0  0  0  0
  6  5  2  0  0  0  0
  8  6  1  0  0  0  0
  9  8  1  0  0  0  0
 10  8  2  0  0  0  0
 10 11  1  0  0  0  0
 11  4  2  0  0  0  0
 13 15  2  0  0  0  0
 13 12  1  0  0  0  0
 14 13  2  0  0  0  0
 16 18  1  0  0  0  0
 16 19  1  0  0  0  0
 17 16  1  0  0  0  0
 19 24  1  0  0  0  0
 20 26  1  0  0  0  0
 21 27  1  0  0  0  0
 21 20  2  0  0  0  0
 22 21  1  0  0  0  0
 23 22  2  0  0  0  0
 23 24  1  0  0  0  0
 24 25  2  0  0  0  0
 25 20  1  0  0  0  0
 28 22  1  0  0  0  0
M  END
>  <minimizedAffinity>
-4.07365894

>  <minimizedRMSD>
0.513272941

$$$$
