
 OpenBabel03272502253D

 33 35  0  0  0  0  0  0  0  0999 V2000
   37.1200   29.6540   50.0170 C   0  0  0  0  0  0  0  0  0  0  0  0
   37.7120   30.3760   48.9550 C   0  0  0  0  0  0  0  0  0  0  0  0
   37.0370   30.4050   47.7350 C   0  0  0  0  0  0  0  0  0  0  0  0
   35.8750   29.7450   47.6640 N   0  0  0  0  0  0  0  0  0  0  0  0
   35.3280   29.0640   48.6880 C   0  0  0  0  0  0  0  0  0  0  0  0
   35.9620   29.0250   49.8670 N   0  0  0  0  0  0  0  0  0  0  0  0
   37.6880   29.6640   50.9460 H   0  0  0  0  0  0  0  0  0  0  0  0
   38.6610   30.8990   49.0530 H   0  0  0  0  0  0  0  0  0  0  0  0
   37.5510   31.1190   46.5840 C   0  0  0  0  0  0  0  0  0  0  0  0
   36.8940   31.0280   45.3580 C   0  0  0  0  0  0  0  0  0  0  0  0
   37.3390   31.6920   44.2300 C   0  0  0  0  0  0  0  0  0  0  0  0
   38.4540   32.4600   44.3120 N   0  0  0  0  0  0  0  0  0  0  0  0
   39.0650   32.5290   45.5030 C   0  0  0  0  0  0  0  0  0  0  0  0
   38.6500   31.8930   46.6110 N   0  0  0  0  0  0  0  0  0  0  0  0
   36.0100   30.4070   45.3350 H   0  0  0  0  0  0  0  0  0  0  0  0
   36.7880   31.5850   43.3040 H   0  0  0  0  0  0  0  0  0  0  0  0
   40.2900   33.3650   45.6230 C   0  0  0  0  0  0  0  0  0  0  0  0
   40.2930   33.9400   46.9040 F   0  0  0  0  0  0  0  0  0  0  0  0
   41.4230   32.6180   45.4220 F   0  0  0  0  0  0  0  0  0  0  0  0
   40.2780   34.4280   44.7500 F   0  0  0  0  0  0  0  0  0  0  0  0
   34.1230   28.4500   48.4100 O   0  0  0  0  0  0  0  0  0  0  0  0
   32.0570   28.2220   47.3760 C   0  0  0  0  0  0  0  0  0  0  0  0
   33.2040   28.9720   47.5140 C   0  0  0  0  0  0  0  0  0  0  0  0
   33.4040   30.1270   46.8240 C   0  0  0  0  0  0  0  0  0  0  0  0
   34.3130   30.6620   46.9740 H   0  0  0  0  0  0  0  0  0  0  0  0
   32.4460   30.5880   45.9490 C   0  0  0  0  0  0  0  0  0  0  0  0
   32.6070   31.5120   45.3980 H   0  0  0  0  0  0  0  0  0  0  0  0
   31.2750   29.8830   45.7660 C   0  0  0  0  0  3  0  0  0  0  0  0
   31.1020   28.7170   46.4800 C   0  0  0  0  0  3  0  0  0  0  0  0
   32.6580   26.0660   48.7020 H   0  0  0  0  0  0  0  0  0  0  0  0
   31.6080   26.7420   48.1660 S   0  0  0  0  0  0  0  0  0  0  0  0
   30.4600   26.9250   49.1410 O   0  0  0  0  0  0  0  0  0  0  0  0
   31.0330   25.8020   47.1100 O   0  0  0  0  0  0  0  0  0  0  0  0
  1  7  1  0  0  0  0
  2  8  1  0  0  0  0
  2  1  2  0  0  0  0
  3  2  1  0  0  0  0
  4  3  2  0  0  0  0
  4  5  1  0  0  0  0
  5  6  2  0  0  0  0
  6  1  1  0  0  0  0
  9 14  1  0  0  0  0
  9  3  1  0  0  0  0
 10  9  2  0  0  0  0
 11 12  2  0  0  0  0
 11 10  1  0  0  0  0
 12 13  1  0  0  0  0
 13 17  1  0  0  0  0
 13 14  2  0  0  0  0
 15 10  1  0  0  0  0
 16 11  1  0  0  0  0
 17 18  1  0  0  0  0
 19 17  1  0  0  0  0
 20 17  1  0  0  0  0
 21  5  1  0  0  0  0
 22 23  1  0  0  0  0
 22 31  1  0  0  0  0
 23 21  1  0  0  0  0
 24 25  1  0  0  0  0
 24 23  2  0  0  0  0
 26 24  1  0  0  0  0
 27 26  1  0  0  0  0
 28 26  2  0  0  0  0
 28 29  1  0  0  0  0
 29 22  2  0  0  0  0
 31 30  1  0  0  0  0
 31 32  2  0  0  0  0
 33 31  2  0  0  0  0
M  END
>  <minimizedAffinity>
-6.10685778

>  <minimizedRMSD>
1.77822959

$$$$
