
 OpenBabel03262520203D

 24 25  0  0  0  0  0  0  0  0999 V2000
   40.4710   22.2560   35.4970 C   0  0  0  0  0  0  0  0  0  0  0  0
   40.0950   22.8210   36.7490 C   0  0  0  0  0  0  0  0  0  0  0  0
   38.7420   23.0750   36.9640 C   0  0  0  0  0  0  0  0  0  0  0  0
   37.8670   22.7720   35.9720 N   0  0  0  0  0  0  0  0  0  0  0  0
   38.2370   22.2410   34.8020 C   0  0  0  0  0  0  0  0  0  0  0  0
   39.5270   21.9920   34.5810 N   0  0  0  0  0  0  0  0  0  0  0  0
   41.5300   22.0740   35.3730 H   0  0  0  0  0  0  0  0  0  0  0  0
   40.8470   23.0330   37.4830 H   0  0  0  0  0  0  0  0  0  0  0  0
   36.9410   22.7530   32.7220 C   0  0  0  0  0  0  0  0  0  0  0  0
   37.1870   21.9660   33.8280 C   0  0  0  0  0  0  0  0  0  0  0  0
   36.3890   20.8580   34.0130 C   0  0  0  0  0  0  0  0  0  0  0  0
   36.5250   20.1840   34.8700 H   0  0  0  0  0  0  0  0  0  0  0  0
   35.3700   20.5360   33.1230 C   0  0  0  0  0  0  0  0  0  0  0  0
   34.7250   19.6830   33.2300 H   0  0  0  0  0  0  0  0  0  0  0  0
   35.1160   21.3160   32.0140 C   0  0  0  0  0  3  0  0  0  0  0  0
   35.9300   22.4370   31.8350 C   0  0  0  0  0  3  0  0  0  0  0  0
   39.2450   23.9690   32.7880 H   0  0  0  0  0  0  0  0  0  0  0  0
   37.9340   24.1690   32.4530 S   0  0  0  0  0  0  0  0  0  0  0  0
   37.8130   24.6070   31.0000 O   0  0  0  0  0  0  0  0  0  0  0  0
   37.3980   25.3100   33.2660 O   0  0  0  0  0  0  0  0  0  0  0  0
   38.3190   23.6680   38.2690 C   0  0  0  0  0  0  0  0  0  0  0  0
   37.2870   22.8900   38.7090 F   0  0  0  0  0  0  0  0  0  0  0  0
   39.3180   23.6250   39.2210 F   0  0  0  0  0  0  0  0  0  0  0  0
   37.8750   24.9710   38.1380 F   0  0  0  0  0  0  0  0  0  0  0  0
  1  2  1  0  0  0  0
  2  3  2  0  0  0  0
  2  8  1  0  0  0  0
  3 21  1  0  0  0  0
  4  3  1  0  0  0  0
  5  4  2  0  0  0  0
  6  5  1  0  0  0  0
  6  1  2  0  0  0  0
  7  1  1  0  0  0  0
  9 10  1  0  0  0  0
 10 11  2  0  0  0  0
 10  5  1  0  0  0  0
 11 12  1  0  0  0  0
 13 14  1  0  0  0  0
 13 11  1  0  0  0  0
 15 13  2  0  0  0  0
 16 15  1  0  0  0  0
 16  9  2  0  0  0  0
 18  9  1  0  0  0  0
 18 17  1  0  0  0  0
 18 20  2  0  0  0  0
 19 18  2  0  0  0  0
 21 22  1  0  0  0  0
 21 23  1  0  0  0  0
 24 21  1  0  0  0  0
M  END
>  <minimizedAffinity>
-5.39549732

$$$$

 OpenBabel03262520203D

 24 25  0  0  0  0  0  0  0  0999 V2000
   40.4640   22.2360   35.4230 C   0  0  0  0  0  0  0  0  0  0  0  0
   40.0390   22.5990   36.7340 C   0  0  0  0  0  0  0  0  0  0  0  0
   38.8220   23.2660   36.8570 C   0  0  0  0  0  0  0  0  0  0  0  0
   38.1160   23.5290   35.7270 N   0  0  0  0  0  0  0  0  0  0  0  0
   38.5300   23.1800   34.5060 C   0  0  0  0  0  0  0  0  0  0  0  0
   39.6910   22.5420   34.3700 N   0  0  0  0  0  0  0  0  0  0  0  0
   41.4130   21.7210   35.3740 H   0  0  0  0  0  0  0  0  0  0  0  0
   40.6540   22.3560   37.5780 H   0  0  0  0  0  0  0  0  0  0  0  0
   36.8440   22.6270   32.7390 C   0  0  0  0  0  0  0  0  0  0  0  0
   37.6680   23.5270   33.3810 C   0  0  0  0  0  0  0  0  0  0  0  0
   37.6700   24.8280   32.9250 C   0  0  0  0  0  0  0  0  0  0  0  0
   38.3010   25.6010   33.3850 H   0  0  0  0  0  0  0  0  0  0  0  0
   36.8740   25.2280   31.8570 C   0  0  0  0  0  0  0  0  0  0  0  0
   36.8460   26.2300   31.4700 H   0  0  0  0  0  0  0  0  0  0  0  0
   36.0460   24.3350   31.2090 C   0  0  0  0  0  3  0  0  0  0  0  0
   36.0510   23.0190   31.6780 C   0  0  0  0  0  3  0  0  0  0  0  0
   37.9510   20.6080   33.9600 H   0  0  0  0  0  0  0  0  0  0  0  0
   36.8140   20.9660   33.2910 S   0  0  0  0  0  0  0  0  0  0  0  0
   35.5860   20.7410   34.1620 O   0  0  0  0  0  0  0  0  0  0  0  0
   36.6430   20.0560   32.1100 O   0  0  0  0  0  0  0  0  0  0  0  0
   38.3520   23.6590   38.2210 C   0  0  0  0  0  0  0  0  0  0  0  0
   39.4270   23.4840   39.0450 F   0  0  0  0  0  0  0  0  0  0  0  0
   37.9750   24.9850   38.2920 F   0  0  0  0  0  0  0  0  0  0  0  0
   37.3100   22.8680   38.6680 F   0  0  0  0  0  0  0  0  0  0  0  0
  1  2  1  0  0  0  0
  2  3  2  0  0  0  0
  2  8  1  0  0  0  0
  3 21  1  0  0  0  0
  4  3  1  0  0  0  0
  5  4  2  0  0  0  0
  6  5  1  0  0  0  0
  6  1  2  0  0  0  0
  7  1  1  0  0  0  0
  9 18  1  0  0  0  0
  9 10  1  0  0  0  0
 10  5  1  0  0  0  0
 11 10  2  0  0  0  0
 11 12  1  0  0  0  0
 13 11  1  0  0  0  0
 14 13  1  0  0  0  0
 15 16  1  0  0  0  0
 15 13  2  0  0  0  0
 16  9  2  0  0  0  0
 18 17  1  0  0  0  0
 18 19  2  0  0  0  0
 20 18  2  0  0  0  0
 21 23  1  0  0  0  0
 21 24  1  0  0  0  0
 21 22  1  0  0  0  0
M  END
>  <minimizedAffinity>
-5.13642693

$$$$

 OpenBabel03262520203D

 24 25  0  0  0  0  0  0  0  0999 V2000
   40.6840   23.4460   34.8580 C   0  0  0  0  0  0  0  0  0  0  0  0
   40.2560   23.4410   36.2170 C   0  0  0  0  0  0  0  0  0  0  0  0
   38.8990   23.6330   36.4690 C   0  0  0  0  0  0  0  0  0  0  0  0
   38.0690   23.8120   35.4090 N   0  0  0  0  0  0  0  0  0  0  0  0
   38.4880   23.8130   34.1400 C   0  0  0  0  0  0  0  0  0  0  0  0
   39.7820   23.6310   33.8830 N   0  0  0  0  0  0  0  0  0  0  0  0
   41.7440   23.2940   34.7090 H   0  0  0  0  0  0  0  0  0  0  0  0
   40.9750   23.2940   36.9990 H   0  0  0  0  0  0  0  0  0  0  0  0
   37.0690   25.2600   32.6680 C   0  0  0  0  0  0  0  0  0  0  0  0
   37.4830   24.0170   33.1030 C   0  0  0  0  0  0  0  0  0  0  0  0
   36.9070   22.9120   32.5160 C   0  0  0  0  0  0  0  0  0  0  0  0
   37.1850   21.8900   32.8100 H   0  0  0  0  0  0  0  0  0  0  0  0
   35.9430   23.0330   31.5210 C   0  0  0  0  0  0  0  0  0  0  0  0
   35.4690   22.1980   31.0380 H   0  0  0  0  0  0  0  0  0  0  0  0
   35.5230   24.2700   31.0790 C   0  0  0  0  0  3  0  0  0  0  0  0
   36.1130   25.3850   31.6800 C   0  0  0  0  0  3  0  0  0  0  0  0
   39.1010   26.5240   33.7010 H   0  0  0  0  0  0  0  0  0  0  0  0
   37.7790   26.6870   33.3900 S   0  0  0  0  0  0  0  0  0  0  0  0
   37.5910   27.8760   32.4570 O   0  0  0  0  0  0  0  0  0  0  0  0
   37.0280   27.0330   34.6420 O   0  0  0  0  0  0  0  0  0  0  0  0
   38.4230   23.6330   37.8860 C   0  0  0  0  0  0  0  0  0  0  0  0
   39.4580   23.1290   38.6210 F   0  0  0  0  0  0  0  0  0  0  0  0
   38.1490   24.9020   38.3550 F   0  0  0  0  0  0  0  0  0  0  0  0
   37.3110   22.8320   38.0690 F   0  0  0  0  0  0  0  0  0  0  0  0
  1  2  1  0  0  0  0
  2  3  2  0  0  0  0
  2  8  1  0  0  0  0
  3 21  1  0  0  0  0
  4  3  1  0  0  0  0
  5  4  2  0  0  0  0
  6  5  1  0  0  0  0
  6  1  2  0  0  0  0
  7  1  1  0  0  0  0
  9 10  1  0  0  0  0
  9 18  1  0  0  0  0
 10  5  1  0  0  0  0
 11 12  1  0  0  0  0
 11 10  2  0  0  0  0
 13 11  1  0  0  0  0
 14 13  1  0  0  0  0
 15 13  2  0  0  0  0
 15 16  1  0  0  0  0
 16  9  2  0  0  0  0
 18 17  1  0  0  0  0
 18 20  2  0  0  0  0
 19 18  2  0  0  0  0
 21 24  1  0  0  0  0
 21 23  1  0  0  0  0
 21 22  1  0  0  0  0
M  END
>  <minimizedAffinity>
-5.10880709

$$$$

 OpenBabel03262520203D

 24 25  0  0  0  0  0  0  0  0999 V2000
   40.3790   24.3220   34.5140 C   0  0  0  0  0  0  0  0  0  0  0  0
   39.9520   23.8820   35.8000 C   0  0  0  0  0  0  0  0  0  0  0  0
   38.6760   24.2530   36.2200 C   0  0  0  0  0  0  0  0  0  0  0  0
   37.9190   25.0060   35.3820 N   0  0  0  0  0  0  0  0  0  0  0  0
   38.3350   25.4090   34.1780 C   0  0  0  0  0  0  0  0  0  0  0  0
   39.5520   25.0630   33.7620 N   0  0  0  0  0  0  0  0  0  0  0  0
   41.3750   24.0110   34.2300 H   0  0  0  0  0  0  0  0  0  0  0  0
   40.6110   23.2890   36.4050 H   0  0  0  0  0  0  0  0  0  0  0  0
   36.6810   25.7210   32.3230 C   0  0  0  0  0  0  0  0  0  0  0  0
   37.4140   26.2140   33.3840 C   0  0  0  0  0  0  0  0  0  0  0  0
   37.2590   27.5450   33.7030 C   0  0  0  0  0  0  0  0  0  0  0  0
   37.8080   28.0090   34.5340 H   0  0  0  0  0  0  0  0  0  0  0  0
   36.3980   28.3710   32.9880 C   0  0  0  0  0  0  0  0  0  0  0  0
   36.2470   29.4130   33.2030 H   0  0  0  0  0  0  0  0  0  0  0  0
   35.6600   27.8880   31.9270 C   0  0  0  0  0  3  0  0  0  0  0  0
   35.8250   26.5370   31.6110 C   0  0  0  0  0  3  0  0  0  0  0  0
   37.5230   23.3080   32.8340 H   0  0  0  0  0  0  0  0  0  0  0  0
   36.8520   24.0340   31.8890 S   0  0  0  0  0  0  0  0  0  0  0  0
   35.4770   23.4340   31.6290 O   0  0  0  0  0  0  0  0  0  0  0  0
   37.5900   23.9320   30.5870 O   0  0  0  0  0  0  0  0  0  0  0  0
   38.2030   23.8060   37.5650 C   0  0  0  0  0  0  0  0  0  0  0  0
   39.2430   23.1060   38.1070 F   0  0  0  0  0  0  0  0  0  0  0  0
   37.9190   24.8630   38.4070 F   0  0  0  0  0  0  0  0  0  0  0  0
   37.0980   22.9790   37.4890 F   0  0  0  0  0  0  0  0  0  0  0  0
  1  2  1  0  0  0  0
  2  3  2  0  0  0  0
  2  8  1  0  0  0  0
  3 21  1  0  0  0  0
  4  3  1  0  0  0  0
  5  4  2  0  0  0  0
  6  5  1  0  0  0  0
  6  1  2  0  0  0  0
  7  1  1  0  0  0  0
  9 10  1  0  0  0  0
 10 11  2  0  0  0  0
 10  5  1  0  0  0  0
 11 12  1  0  0  0  0
 13 14  1  0  0  0  0
 13 11  1  0  0  0  0
 15 13  2  0  0  0  0
 16 15  1  0  0  0  0
 16  9  2  0  0  0  0
 18  9  1  0  0  0  0
 18 17  1  0  0  0  0
 19 18  2  0  0  0  0
 20 18  2  0  0  0  0
 21 22  1  0  0  0  0
 21 23  1  0  0  0  0
 24 21  1  0  0  0  0
M  END
>  <minimizedAffinity>
-5.0456171

$$$$

 OpenBabel03262520203D

 24 25  0  0  0  0  0  0  0  0999 V2000
   38.2100   23.4620   37.8420 C   0  0  0  0  0  0  0  0  0  0  0  0
   39.5660   23.0350   37.9360 C   0  0  0  0  0  0  0  0  0  0  0  0
   40.0690   22.2490   36.9010 C   0  0  0  0  0  0  0  0  0  0  0  0
   39.2420   21.9390   35.8700 N   0  0  0  0  0  0  0  0  0  0  0  0
   37.9720   22.3490   35.7980 C   0  0  0  0  0  0  0  0  0  0  0  0
   37.4750   23.1010   36.7790 N   0  0  0  0  0  0  0  0  0  0  0  0
   37.8610   24.0690   38.6660 H   0  0  0  0  0  0  0  0  0  0  0  0
   40.1560   23.3210   38.7840 H   0  0  0  0  0  0  0  0  0  0  0  0
   37.2950   22.5470   33.3950 C   0  0  0  0  0  0  0  0  0  0  0  0
   37.2000   21.9400   34.6300 C   0  0  0  0  0  0  0  0  0  0  0  0
   36.3200   20.8870   34.7570 C   0  0  0  0  0  0  0  0  0  0  0  0
   36.1890   20.3540   35.7100 H   0  0  0  0  0  0  0  0  0  0  0  0
   35.5520   20.4450   33.6860 C   0  0  0  0  0  0  0  0  0  0  0  0
   34.8540   19.6290   33.7410 H   0  0  0  0  0  0  0  0  0  0  0  0
   35.6410   21.0450   32.4470 C   0  0  0  0  0  3  0  0  0  0  0  0
   36.5340   22.1110   32.3280 C   0  0  0  0  0  3  0  0  0  0  0  0
   39.5630   23.7280   33.9010 H   0  0  0  0  0  0  0  0  0  0  0  0
   38.4020   23.8880   33.1960 S   0  0  0  0  0  0  0  0  0  0  0  0
   38.6980   24.0880   31.7150 O   0  0  0  0  0  0  0  0  0  0  0  0
   37.7340   25.1520   33.6480 O   0  0  0  0  0  0  0  0  0  0  0  0
   41.4880   21.7860   36.9730 C   0  0  0  0  0  0  0  0  0  0  0  0
   42.2420   22.9230   37.0460 F   0  0  0  0  0  0  0  0  0  0  0  0
   41.7460   21.0350   38.1020 F   0  0  0  0  0  0  0  0  0  0  0  0
   41.8670   21.0670   35.8550 F   0  0  0  0  0  0  0  0  0  0  0  0
  1  2  1  0  0  0  0
  1  7  1  0  0  0  0
  2  8  1  0  0  0  0
  3 21  1  0  0  0  0
  3  2  2  0  0  0  0
  4  3  1  0  0  0  0
  5  4  2  0  0  0  0
  5  6  1  0  0  0  0
  6  1  2  0  0  0  0
  9 10  1  0  0  0  0
 10 11  2  0  0  0  0
 10  5  1  0  0  0  0
 11 12  1  0  0  0  0
 13 14  1  0  0  0  0
 13 11  1  0  0  0  0
 15 13  2  0  0  0  0
 16 15  1  0  0  0  0
 16  9  2  0  0  0  0
 18  9  1  0  0  0  0
 18 20  2  0  0  0  0
 18 17  1  0  0  0  0
 19 18  2  0  0  0  0
 21 22  1  0  0  0  0
 21 23  1  0  0  0  0
 24 21  1  0  0  0  0
M  END
>  <minimizedAffinity>
-5.02205133

$$$$

 OpenBabel03262520203D

 24 25  0  0  0  0  0  0  0  0999 V2000
   37.5990   23.4670   32.4400 C   0  0  0  0  0  0  0  0  0  0  0  0
   36.8140   22.3160   32.1440 C   0  0  0  0  0  0  0  0  0  0  0  0
   36.5770   21.4110   33.1780 C   0  0  0  0  0  0  0  0  0  0  0  0
   37.1060   21.6800   34.3990 N   0  0  0  0  0  0  0  0  0  0  0  0
   37.8400   22.7660   34.6580 C   0  0  0  0  0  0  0  0  0  0  0  0
   38.0760   23.6400   33.6810 N   0  0  0  0  0  0  0  0  0  0  0  0
   37.7570   24.1410   31.6090 H   0  0  0  0  0  0  0  0  0  0  0  0
   36.4310   22.1740   31.1520 H   0  0  0  0  0  0  0  0  0  0  0  0
   39.6420   22.6460   36.3930 C   0  0  0  0  0  0  0  0  0  0  0  0
   38.3440   22.9260   36.0180 C   0  0  0  0  0  0  0  0  0  0  0  0
   37.4830   23.3820   36.9920 C   0  0  0  0  0  0  0  0  0  0  0  0
   36.4350   23.6250   36.7690 H   0  0  0  0  0  0  0  0  0  0  0  0
   37.8970   23.5570   38.3080 C   0  0  0  0  0  0  0  0  0  0  0  0
   37.2580   23.9100   39.0970 H   0  0  0  0  0  0  0  0  0  0  0  0
   39.1920   23.2810   38.6930 C   0  0  0  0  0  3  0  0  0  0  0  0
   40.0580   22.8190   37.6990 C   0  0  0  0  0  3  0  0  0  0  0  0
   40.1780   21.2380   34.2660 H   0  0  0  0  0  0  0  0  0  0  0  0
   40.7650   22.0650   35.1830 S   0  0  0  0  0  0  0  0  0  0  0  0
   41.4250   23.2500   34.4900 O   0  0  0  0  0  0  0  0  0  0  0  0
   41.8790   21.3220   35.8590 O   0  0  0  0  0  0  0  0  0  0  0  0
   35.7570   20.1940   32.8960 C   0  0  0  0  0  0  0  0  0  0  0  0
   35.4610   19.6590   34.1170 F   0  0  0  0  0  0  0  0  0  0  0  0
   34.5650   20.4900   32.2640 F   0  0  0  0  0  0  0  0  0  0  0  0
   36.4440   19.2560   32.1480 F   0  0  0  0  0  0  0  0  0  0  0  0
  1  6  1  0  0  0  0
  2  1  2  0  0  0  0
  2  3  1  0  0  0  0
  3  4  2  0  0  0  0
  4  5  1  0  0  0  0
  5 10  1  0  0  0  0
  6  5  2  0  0  0  0
  7  1  1  0  0  0  0
  8  2  1  0  0  0  0
  9 16  1  0  0  0  0
 10  9  2  0  0  0  0
 10 11  1  0  0  0  0
 11 13  2  0  0  0  0
 12 11  1  0  0  0  0
 13 15  1  0  0  0  0
 13 14  1  0  0  0  0
 16 15  2  0  0  0  0
 17 18  1  0  0  0  0
 18 20  2  0  0  0  0
 18  9  1  0  0  0  0
 19 18  2  0  0  0  0
 21  3  1  0  0  0  0
 21 22  1  0  0  0  0
 23 21  1  0  0  0  0
 24 21  1  0  0  0  0
M  END
>  <minimizedAffinity>
-4.99037313

$$$$

 OpenBabel03262520203D

 24 25  0  0  0  0  0  0  0  0999 V2000
   37.5210   23.6280   32.4370 C   0  0  0  0  0  0  0  0  0  0  0  0
   36.5470   22.5930   32.3290 C   0  0  0  0  0  0  0  0  0  0  0  0
   36.6340   21.5270   33.2230 C   0  0  0  0  0  0  0  0  0  0  0  0
   37.6360   21.5390   34.1400 N   0  0  0  0  0  0  0  0  0  0  0  0
   38.5400   22.5190   34.2270 C   0  0  0  0  0  0  0  0  0  0  0  0
   38.4710   23.5440   33.3800 N   0  0  0  0  0  0  0  0  0  0  0  0
   37.4150   24.4340   31.7250 H   0  0  0  0  0  0  0  0  0  0  0  0
   35.7860   22.6560   31.5770 H   0  0  0  0  0  0  0  0  0  0  0  0
   39.3700   22.7730   36.5760 C   0  0  0  0  0  0  0  0  0  0  0  0
   39.5610   22.3990   35.2620 C   0  0  0  0  0  0  0  0  0  0  0  0
   40.7920   21.8840   34.9180 C   0  0  0  0  0  0  0  0  0  0  0  0
   41.0190   21.5650   33.8910 H   0  0  0  0  0  0  0  0  0  0  0  0
   41.8110   21.7430   35.8540 C   0  0  0  0  0  0  0  0  0  0  0  0
   42.7840   21.3470   35.6280 H   0  0  0  0  0  0  0  0  0  0  0  0
   41.6290   22.1130   37.1700 C   0  0  0  0  0  3  0  0  0  0  0  0
   40.3790   22.6340   37.5090 C   0  0  0  0  0  3  0  0  0  0  0  0
   36.7670   22.8010   36.4450 H   0  0  0  0  0  0  0  0  0  0  0  0
   37.8190   23.4310   37.0510 S   0  0  0  0  0  0  0  0  0  0  0  0
   37.6810   23.3670   38.5660 O   0  0  0  0  0  0  0  0  0  0  0  0
   37.7730   24.8890   36.7030 O   0  0  0  0  0  0  0  0  0  0  0  0
   35.6260   20.4270   33.1320 C   0  0  0  0  0  0  0  0  0  0  0  0
   35.1490   20.2610   34.4010 F   0  0  0  0  0  0  0  0  0  0  0  0
   34.5590   20.7490   32.3170 F   0  0  0  0  0  0  0  0  0  0  0  0
   36.1810   19.2370   32.7010 F   0  0  0  0  0  0  0  0  0  0  0  0
  1  6  1  0  0  0  0
  2  1  2  0  0  0  0
  2  3  1  0  0  0  0
  3  4  2  0  0  0  0
  4  5  1  0  0  0  0
  5 10  1  0  0  0  0
  6  5  2  0  0  0  0
  7  1  1  0  0  0  0
  8  2  1  0  0  0  0
  9 18  1  0  0  0  0
  9 16  1  0  0  0  0
 10  9  2  0  0  0  0
 11 10  1  0  0  0  0
 11 13  2  0  0  0  0
 12 11  1  0  0  0  0
 13 15  1  0  0  0  0
 14 13  1  0  0  0  0
 15 16  2  0  0  0  0
 17 18  1  0  0  0  0
 18 19  2  0  0  0  0
 20 18  2  0  0  0  0
 21  3  1  0  0  0  0
 21 22  1  0  0  0  0
 23 21  1  0  0  0  0
 24 21  1  0  0  0  0
M  END
>  <minimizedAffinity>
-4.97152424

$$$$

 OpenBabel03262520203D

 24 25  0  0  0  0  0  0  0  0999 V2000
   40.3230   22.9060   35.3860 C   0  0  0  0  0  0  0  0  0  0  0  0
   39.8670   22.9530   36.7350 C   0  0  0  0  0  0  0  0  0  0  0  0
   38.7890   23.7870   37.0250 C   0  0  0  0  0  0  0  0  0  0  0  0
   38.2390   24.5000   36.0090 N   0  0  0  0  0  0  0  0  0  0  0  0
   38.6790   24.4430   34.7490 C   0  0  0  0  0  0  0  0  0  0  0  0
   39.7090   23.6520   34.4560 N   0  0  0  0  0  0  0  0  0  0  0  0
   41.1610   22.2470   35.2070 H   0  0  0  0  0  0  0  0  0  0  0  0
   40.3560   22.3590   37.4820 H   0  0  0  0  0  0  0  0  0  0  0  0
   37.2490   24.7520   32.7170 C   0  0  0  0  0  0  0  0  0  0  0  0
   37.9910   25.2660   33.7600 C   0  0  0  0  0  0  0  0  0  0  0  0
   38.0820   26.6370   33.8640 C   0  0  0  0  0  0  0  0  0  0  0  0
   38.6550   27.1190   34.6680 H   0  0  0  0  0  0  0  0  0  0  0  0
   37.4520   27.4810   32.9560 C   0  0  0  0  0  0  0  0  0  0  0  0
   37.4960   28.5540   33.0000 H   0  0  0  0  0  0  0  0  0  0  0  0
   36.7070   26.9770   31.9100 C   0  0  0  0  0  3  0  0  0  0  0  0
   36.6210   25.5860   31.8120 C   0  0  0  0  0  3  0  0  0  0  0  0
   37.3310   22.3510   33.7270 H   0  0  0  0  0  0  0  0  0  0  0  0
   37.1110   23.0150   32.5520 S   0  0  0  0  0  0  0  0  0  0  0  0
   35.7410   22.6650   31.9880 O   0  0  0  0  0  0  0  0  0  0  0  0
   38.1020   22.5350   31.5340 O   0  0  0  0  0  0  0  0  0  0  0  0
   38.2900   23.8560   38.4320 C   0  0  0  0  0  0  0  0  0  0  0  0
   37.3230   22.8960   38.5270 F   0  0  0  0  0  0  0  0  0  0  0  0
   39.2700   23.5630   39.3590 F   0  0  0  0  0  0  0  0  0  0  0  0
   37.7330   25.0850   38.7350 F   0  0  0  0  0  0  0  0  0  0  0  0
  1  2  1  0  0  0  0
  2  3  2  0  0  0  0
  2  8  1  0  0  0  0
  3 21  1  0  0  0  0
  4  3  1  0  0  0  0
  5  4  2  0  0  0  0
  6  5  1  0  0  0  0
  6  1  2  0  0  0  0
  7  1  1  0  0  0  0
  9 10  1  0  0  0  0
 10 11  2  0  0  0  0
 10  5  1  0  0  0  0
 11 12  1  0  0  0  0
 13 14  1  0  0  0  0
 13 11  1  0  0  0  0
 15 13  2  0  0  0  0
 16 15  1  0  0  0  0
 16  9  2  0  0  0  0
 18  9  1  0  0  0  0
 18 17  1  0  0  0  0
 19 18  2  0  0  0  0
 20 18  2  0  0  0  0
 21 22  1  0  0  0  0
 21 24  1  0  0  0  0
 21 23  1  0  0  0  0
M  END
>  <minimizedAffinity>
-4.95278454

$$$$

 OpenBabel03262520203D

 24 25  0  0  0  0  0  0  0  0999 V2000
   36.2170   29.6250   31.8520 C   0  0  0  0  0  0  0  0  0  0  0  0
   36.7790   28.3580   32.1820 C   0  0  0  0  0  0  0  0  0  0  0  0
   36.6500   27.9160   33.4970 C   0  0  0  0  0  0  0  0  0  0  0  0
   35.9980   28.7140   34.3810 N   0  0  0  0  0  0  0  0  0  0  0  0
   35.4760   29.8990   34.0540 C   0  0  0  0  0  0  0  0  0  0  0  0
   35.5920   30.3370   32.8010 N   0  0  0  0  0  0  0  0  0  0  0  0
   36.3410   29.9290   30.8220 H   0  0  0  0  0  0  0  0  0  0  0  0
   37.2810   27.7860   31.4260 H   0  0  0  0  0  0  0  0  0  0  0  0
   33.4480   30.5740   35.3590 C   0  0  0  0  0  0  0  0  0  0  0  0
   34.8020   30.6500   35.1080 C   0  0  0  0  0  0  0  0  0  0  0  0
   35.5530   31.4860   35.9050 C   0  0  0  0  0  0  0  0  0  0  0  0
   36.6370   31.5990   35.7660 H   0  0  0  0  0  0  0  0  0  0  0  0
   34.9760   32.2310   36.9280 C   0  0  0  0  0  0  0  0  0  0  0  0
   35.5240   32.8950   37.5720 H   0  0  0  0  0  0  0  0  0  0  0  0
   33.6230   32.1620   37.1870 C   0  0  0  0  0  3  0  0  0  0  0  0
   32.8700   31.3120   36.3740 C   0  0  0  0  0  3  0  0  0  0  0  0
   33.1130   28.3780   33.9960 H   0  0  0  0  0  0  0  0  0  0  0  0
   32.4620   29.5220   34.3670 S   0  0  0  0  0  0  0  0  0  0  0  0
   31.1720   29.1880   35.1050 O   0  0  0  0  0  0  0  0  0  0  0  0
   32.0400   30.2600   33.1310 O   0  0  0  0  0  0  0  0  0  0  0  0
   37.2310   26.5900   33.8710 C   0  0  0  0  0  0  0  0  0  0  0  0
   36.8540   26.3760   35.1670 F   0  0  0  0  0  0  0  0  0  0  0  0
   36.7290   25.5550   33.1080 F   0  0  0  0  0  0  0  0  0  0  0  0
   38.6110   26.5790   33.7970 F   0  0  0  0  0  0  0  0  0  0  0  0
  1  2  2  0  0  0  0
  1  6  1  0  0  0  0
  2  3  1  0  0  0  0
  3 21  1  0  0  0  0
  3  4  2  0  0  0  0
  5  4  1  0  0  0  0
  5 10  1  0  0  0  0
  6  5  2  0  0  0  0
  7  1  1  0  0  0  0
  8  2  1  0  0  0  0
  9 16  1  0  0  0  0
 10  9  2  0  0  0  0
 10 11  1  0  0  0  0
 11 13  2  0  0  0  0
 12 11  1  0  0  0  0
 13 15  1  0  0  0  0
 13 14  1  0  0  0  0
 16 15  2  0  0  0  0
 17 18  1  0  0  0  0
 18 19  2  0  0  0  0
 18  9  1  0  0  0  0
 20 18  2  0  0  0  0
 21 22  1  0  0  0  0
 23 21  1  0  0  0  0
 24 21  1  0  0  0  0
M  END
>  <minimizedAffinity>
-4.92477179

$$$$
