
 OpenBabel03272505383D

 34 36  0  0  0  0  0  0  0  0999 V2000
   36.1940   30.1890   46.2360 C   0  0  0  0  0  0  0  0  0  0  0  0
   34.9290   29.6720   46.1520 C   0  0  0  0  0  0  0  0  0  0  0  0
   34.4320   29.2040   44.9660 C   0  0  0  0  0  0  0  0  0  0  0  0
   35.1780   29.2260   43.7830 C   0  0  0  0  0  0  0  0  0  0  0  0
   36.4680   29.7460   43.8390 C   0  0  0  0  0  0  0  0  0  0  0  0
   36.9010   30.1970   45.0620 C   0  0  0  0  0  0  0  0  0  0  0  0
   34.2770   29.6140   47.0130 H   0  0  0  0  0  0  0  0  0  0  0  0
   33.4200   28.7910   44.8970 H   0  0  0  0  0  0  0  0  0  0  0  0
   34.7620   28.8490   42.8580 H   0  0  0  0  0  0  0  0  0  0  0  0
   37.0340   29.7600   42.9320 H   0  0  0  0  0  0  0  0  0  0  0  0
   37.1680   30.4320   49.7450 C   0  0  0  0  0  0  0  0  0  0  0  0
   37.7740   31.6870   49.8250 C   0  0  0  0  0  0  0  0  0  0  0  0
   37.8430   32.4480   48.6510 C   0  0  0  0  0  0  0  0  0  0  0  0
   37.3170   31.9130   47.5200 N   0  0  0  0  0  0  0  0  0  0  0  0
   36.7400   30.6970   47.4770 C   0  0  0  0  0  0  0  0  0  0  0  0
   36.6700   29.9640   48.5950 N   0  0  0  0  0  0  0  0  0  0  0  0
   38.1880   32.1100   50.7180 H   0  0  0  0  0  0  0  0  0  0  0  0
   38.3040   33.4320   48.6570 H   0  0  0  0  0  0  0  0  0  0  0  0
   37.0910   29.6090   51.0100 C   0  0  0  0  0  0  0  0  0  0  0  0
   35.7480   29.3350   51.2990 F   0  0  0  0  0  0  0  0  0  0  0  0
   37.8350   28.4970   50.8340 F   0  0  0  0  0  0  0  0  0  0  0  0
   37.5470   30.4120   52.0560 F   0  0  0  0  0  0  0  0  0  0  0  0
   38.4850   31.6050   43.9550 C   0  0  0  0  0  0  0  0  0  0  0  0
   38.2800   30.7250   45.0070 C   0  0  0  0  0  0  0  0  0  0  0  0
   39.3080   30.4280   45.8710 C   0  0  0  0  0  0  0  0  0  0  0  0
   39.0650   29.7430   46.6530 H   0  0  0  0  0  0  0  0  0  0  0  0
   40.5490   31.0030   45.6940 C   0  0  0  0  0  0  0  0  0  0  0  0
   41.3410   30.7520   46.3870 H   0  0  0  0  0  0  0  0  0  0  0  0
   40.8180   31.8890   44.6620 C   0  0  0  0  0  3  0  0  0  0  0  0
   39.7670   32.1510   43.8340 C   0  0  0  0  0  3  0  0  0  0  0  0
   36.3970   30.9620   42.5590 H   0  0  0  0  0  0  0  0  0  0  0  0
   37.2130   32.0350   42.8080 S   0  0  0  0  0  0  0  0  0  0  0  0
   36.4190   33.1530   43.4050 O   0  0  0  0  0  0  0  0  0  0  0  0
   37.8210   32.4950   41.5110 O   0  0  0  0  0  0  0  0  0  0  0  0
  1 15  1  0  0  0  0
  2  1  1  0  0  0  0
  2  7  1  0  0  0  0
  3  2  2  0  0  0  0
  4  5  2  0  0  0  0
  4  3  1  0  0  0  0
  5  6  1  0  0  0  0
  6  1  2  0  0  0  0
  8  3  1  0  0  0  0
  9  4  1  0  0  0  0
 10  5  1  0  0  0  0
 11 12  1  0  0  0  0
 11 19  1  0  0  0  0
 12 17  1  0  0  0  0
 13 18  1  0  0  0  0
 13 12  2  0  0  0  0
 14 13  1  0  0  0  0
 15 14  2  0  0  0  0
 15 16  1  0  0  0  0
 16 11  2  0  0  0  0
 19 20  1  0  0  0  0
 19 22  1  0  0  0  0
 21 19  1  0  0  0  0
 23 24  1  0  0  0  0
 24  6  1  0  0  0  0
 24 25  2  0  0  0  0
 25 26  1  0  0  0  0
 27 25  1  0  0  0  0
 27 28  1  0  0  0  0
 29 27  2  0  0  0  0
 30 23  2  0  0  0  0
 30 29  1  0  0  0  0
 31 32  1  0  0  0  0
 32 33  2  0  0  0  0
 32 23  1  0  0  0  0
 34 32  2  0  0  0  0
M  END
>  <minimizedAffinity>
-6.08330679

>  <minimizedRMSD>
0.754432499

$$$$
