
 OpenBabel03272507583D

 35 37  0  0  0  0  0  0  0  0999 V2000
   36.9460   31.2560   48.5090 C   0  0  0  0  0  0  0  0  0  0  0  0
   37.2480   32.0610   49.5930 C   0  0  0  0  0  0  0  0  0  0  0  0
   38.1850   33.0720   49.4520 C   0  0  0  0  0  0  0  0  0  0  0  0
   38.8070   33.2630   48.2260 C   0  0  0  0  0  0  0  0  0  0  0  0
   38.4900   32.4510   47.1650 C   0  0  0  0  0  0  0  0  0  0  0  0
   37.5820   31.4950   47.3610 N   0  0  0  0  0  0  0  0  0  0  0  0
   36.8150   31.9950   50.5930 H   0  0  0  0  0  0  0  0  0  0  0  0
   38.4490   33.7290   50.2900 H   0  0  0  0  0  0  0  0  0  0  0  0
   39.5180   34.0480   48.1640 H   0  0  0  0  0  0  0  0  0  0  0  0
   35.1890   28.3660   50.1320 C   0  0  0  0  0  0  0  0  0  0  0  0
   36.1870   29.3450   49.8540 C   0  0  0  0  0  0  0  0  0  0  0  0
   35.9500   30.2440   48.8220 C   0  0  0  0  0  0  0  0  0  0  0  0
   34.7770   30.1460   48.1280 N   0  0  0  0  0  0  0  0  0  0  0  0
   33.8520   29.1900   48.4340 C   0  0  0  0  0  0  0  0  0  0  0  0
   34.0500   28.3150   49.4160 N   0  0  0  0  0  0  0  0  0  0  0  0
   32.7250   29.2910   47.5800 N   0  0  0  0  0  0  0  0  0  0  0  0
   35.3650   27.6580   50.9370 H   0  0  0  0  0  0  0  0  0  0  0  0
   32.4200   28.5680   46.9150 H   0  0  0  0  0  0  0  0  0  0  0  0
   32.1380   30.1600   47.6080 H   0  0  0  0  0  0  0  0  0  0  0  0
   37.4260   29.3500   50.6820 C   0  0  0  0  0  0  0  0  0  0  0  0
   38.5150   29.7880   49.9580 F   0  0  0  0  0  0  0  0  0  0  0  0
   37.2310   30.2260   51.7290 F   0  0  0  0  0  0  0  0  0  0  0  0
   37.7360   28.1230   51.2110 F   0  0  0  0  0  0  0  0  0  0  0  0
   38.9910   31.6190   44.9030 C   0  0  0  0  0  0  0  0  0  0  0  0
   39.1120   32.6070   45.8570 C   0  0  0  0  0  0  0  0  0  0  0  0
   39.8390   33.7310   45.5210 C   0  0  0  0  0  0  0  0  0  0  0  0
   39.9820   34.5430   46.2020 H   0  0  0  0  0  0  0  0  0  0  0  0
   40.4370   33.9090   44.2980 C   0  0  0  0  0  0  0  0  0  0  0  0
   41.0090   34.7950   44.0350 H   0  0  0  0  0  0  0  0  0  0  0  0
   40.3330   32.9450   43.3310 C   0  0  0  0  0  3  0  0  0  0  0  0
   39.6090   31.8200   43.6620 C   0  0  0  0  0  3  0  0  0  0  0  0
   38.0880   29.8160   46.5100 H   0  0  0  0  0  0  0  0  0  0  0  0
   38.1060   30.1440   45.1800 S   0  0  0  0  0  0  0  0  0  0  0  0
   38.8390   28.9950   44.5030 O   0  0  0  0  0  0  0  0  0  0  0  0
   36.7290   30.1620   44.5790 O   0  0  0  0  0  0  0  0  0  0  0  0
  1 12  1  0  0  0  0
  1  2  1  0  0  0  0
  2  7  1  0  0  0  0
  3  2  2  0  0  0  0
  3  8  1  0  0  0  0
  4  3  1  0  0  0  0
  5  6  1  0  0  0  0
  5  4  2  0  0  0  0
  6  1  2  0  0  0  0
  9  4  1  0  0  0  0
 10 17  1  0  0  0  0
 11 10  1  0  0  0  0
 11 20  1  0  0  0  0
 12 11  2  0  0  0  0
 13 14  2  0  0  0  0
 13 12  1  0  0  0  0
 14 15  1  0  0  0  0
 15 10  2  0  0  0  0
 16 19  1  0  0  0  0
 16 14  1  0  0  0  0
 18 16  1  0  0  0  0
 20 23  1  0  0  0  0
 20 22  1  0  0  0  0
 21 20  1  0  0  0  0
 24 33  1  0  0  0  0
 24 25  1  0  0  0  0
 25  5  1  0  0  0  0
 26 25  2  0  0  0  0
 26 27  1  0  0  0  0
 28 26  1  0  0  0  0
 29 28  1  0  0  0  0
 30 31  1  0  0  0  0
 30 28  2  0  0  0  0
 31 24  2  0  0  0  0
 33 32  1  0  0  0  0
 34 33  2  0  0  0  0
 35 33  2  0  0  0  0
M  END
>  <minimizedAffinity>
-6.32989311

>  <minimizedRMSD>
1.28015459

$$$$
