
 OpenBabel03272510103D

 31 33  0  0  0  0  0  0  0  0999 V2000
   36.9040   30.7090   46.8870 C   0  0  0  0  0  0  0  0  0  0  0  0
   37.6710   31.8250   46.7640 C   0  0  0  0  0  0  0  0  0  0  0  0
   38.1590   32.2890   45.5520 C   0  0  0  0  0  0  0  0  0  0  0  0
   37.8750   31.6090   44.3850 C   0  0  0  0  0  0  0  0  0  0  0  0
   37.0910   30.4750   44.5330 C   0  0  0  0  0  0  0  0  0  0  0  0
   36.6400   30.0630   45.7340 N   0  0  0  0  0  0  0  0  0  0  0  0
   37.9350   32.4090   47.6310 H   0  0  0  0  0  0  0  0  0  0  0  0
   38.7720   33.1800   45.4480 H   0  0  0  0  0  0  0  0  0  0  0  0
   36.7980   29.8540   43.7030 H   0  0  0  0  0  0  0  0  0  0  0  0
   37.1920   29.6930   49.1710 C   0  0  0  0  0  0  0  0  0  0  0  0
   36.3930   30.2250   48.1560 C   0  0  0  0  0  0  0  0  0  0  0  0
   35.0180   30.2940   48.3810 C   0  0  0  0  0  0  0  0  0  0  0  0
   34.5150   29.8450   49.5680 N   0  0  0  0  0  0  0  0  0  0  0  0
   35.3250   29.3390   50.5190 C   0  0  0  0  0  0  0  0  0  0  0  0
   36.6640   29.2580   50.3310 N   0  0  0  0  0  0  0  0  0  0  0  0
   38.2440   29.6670   48.9360 H   0  0  0  0  0  0  0  0  0  0  0  0
   34.2920   30.6880   47.6680 H   0  0  0  0  0  0  0  0  0  0  0  0
   34.8920   28.9880   51.4550 H   0  0  0  0  0  0  0  0  0  0  0  0
   38.3120   31.9870   43.1250 O   0  0  0  0  0  0  0  0  0  0  0  0
   39.3830   31.5930   41.0660 C   0  0  0  0  0  0  0  0  0  0  0  0
   39.3030   31.3580   42.4240 C   0  0  0  0  0  0  0  0  0  0  0  0
   40.2050   30.5090   43.0390 C   0  0  0  0  0  0  0  0  0  0  0  0
   40.1560   30.3110   44.1180 H   0  0  0  0  0  0  0  0  0  0  0  0
   41.1840   29.9070   42.2550 C   0  0  0  0  0  0  0  0  0  0  0  0
   41.9070   29.2300   42.7330 H   0  0  0  0  0  0  0  0  0  0  0  0
   41.2900   30.1240   40.8890 C   0  0  0  0  0  3  0  0  0  0  0  0
   40.3730   30.9800   40.2950 C   0  0  0  0  0  3  0  0  0  0  0  0
   38.6520   32.9520   39.0120 H   0  0  0  0  0  0  0  0  0  0  0  0
   38.2380   32.6680   40.2970 S   0  0  0  0  0  0  0  0  0  0  0  0
   36.9010   31.9840   40.3090 O   0  0  0  0  0  0  0  0  0  0  0  0
   38.1180   33.9230   41.1090 O   0  0  0  0  0  0  0  0  0  0  0  0
  1 11  1  0  0  0  0
  2  1  1  0  0  0  0
  2  7  1  0  0  0  0
  3  2  2  0  0  0  0
  4  5  2  0  0  0  0
  4  3  1  0  0  0  0
  5  6  1  0  0  0  0
  6  1  2  0  0  0  0
  8  3  1  0  0  0  0
  9  5  1  0  0  0  0
 10 15  1  0  0  0  0
 11 12  1  0  0  0  0
 11 10  2  0  0  0  0
 12 13  2  0  0  0  0
 13 14  1  0  0  0  0
 14 18  1  0  0  0  0
 15 14  2  0  0  0  0
 16 10  1  0  0  0  0
 17 12  1  0  0  0  0
 19  4  1  0  0  0  0
 20 21  1  0  0  0  0
 21 22  2  0  0  0  0
 21 19  1  0  0  0  0
 22 23  1  0  0  0  0
 24 25  1  0  0  0  0
 24 22  1  0  0  0  0
 26 24  2  0  0  0  0
 27 26  1  0  0  0  0
 27 20  2  0  0  0  0
 28 29  1  0  0  0  0
 29 30  2  0  0  0  0
 29 20  1  0  0  0  0
 29 31  2  0  0  0  0
M  END
>  <minimizedAffinity>
-4.51163626

>  <minimizedRMSD>
5.40749311

$$$$
