
 OpenBabel03272505273D

 34 36  0  0  0  0  0  0  0  0999 V2000
   37.4480   31.1640   46.8960 N   0  0  0  0  0  0  0  0  0  0  0  0
   36.9420   30.8540   45.6720 C   0  0  0  0  0  0  0  0  0  0  0  0
   37.4790   31.3770   44.5030 C   0  0  0  0  0  0  0  0  0  0  0  0
   38.5760   32.2490   44.6310 C   0  0  0  0  0  0  0  0  0  0  0  0
   39.0880   32.7420   43.6000 O   0  0  0  0  0  0  0  0  0  0  0  0
   39.0760   32.5530   45.8610 N   0  0  0  0  0  0  0  0  0  0  0  0
   38.4760   31.9880   46.9150 C   0  0  0  0  0  0  0  0  0  0  0  0
   38.9610   32.2930   48.0240 O   0  0  0  0  0  0  0  0  0  0  0  0
   36.0940   30.1770   45.6140 H   0  0  0  0  0  0  0  0  0  0  0  0
   37.0770   29.4030   50.1460 C   0  0  0  0  0  0  0  0  0  0  0  0
   37.6450   29.9240   48.9720 C   0  0  0  0  0  0  0  0  0  0  0  0
   36.8970   30.6320   48.0670 C   0  0  0  0  0  0  0  0  0  0  0  0
   35.5710   30.8140   48.3480 N   0  0  0  0  0  0  0  0  0  0  0  0
   34.9970   30.3170   49.4830 C   0  0  0  0  0  0  0  0  0  0  0  0
   35.7620   29.6140   50.3720 N   0  0  0  0  0  0  0  0  0  0  0  0
   37.6020   28.8450   50.8900 H   0  0  0  0  0  0  0  0  0  0  0  0
   38.6880   29.6730   48.9170 H   0  0  0  0  0  0  0  0  0  0  0  0
   33.9340   30.4880   49.6630 H   0  0  0  0  0  0  0  0  0  0  0  0
   37.4340   30.1090   42.3070 C   0  0  0  0  0  0  0  0  0  0  0  0
   36.9330   31.0430   43.1920 C   0  0  0  0  0  0  0  0  0  0  0  0
   35.7910   31.7670   42.8410 C   0  0  0  0  0  0  0  0  0  0  0  0
   35.3130   32.5190   43.4520 H   0  0  0  0  0  0  0  0  0  0  0  0
   35.1690   31.5590   41.6340 C   0  0  0  0  0  0  0  0  0  0  0  0
   34.2800   32.0950   41.3160 H   0  0  0  0  0  0  0  0  0  0  0  0
   35.6650   30.6250   40.7440 C   0  0  0  0  0  3  0  0  0  0  0  0
   36.7990   29.9060   41.0890 C   0  0  0  0  0  3  0  0  0  0  0  0
   38.9660   28.0520   42.1150 H   0  0  0  0  0  0  0  0  0  0  0  0
   38.8580   29.2480   42.8120 S   0  0  0  0  0  0  0  0  0  0  0  0
   40.0690   30.0510   42.4740 O   0  0  0  0  0  0  0  0  0  0  0  0
   38.8240   28.8820   44.2650 O   0  0  0  0  0  0  0  0  0  0  0  0
   40.2090   33.4490   45.9940 C   0  0  0  0  0  0  0  0  0  0  0  0
   40.1030   34.4670   45.1040 F   0  0  0  0  0  0  0  0  0  0  0  0
   41.4200   32.8270   45.7280 F   0  0  0  0  0  0  0  0  0  0  0  0
   40.2160   33.9840   47.2760 F   0  0  0  0  0  0  0  0  0  0  0  0
  1  7  1  0  0  0  0
  1 12  1  0  0  0  0
  2  1  1  0  0  0  0
  3  4  1  0  0  0  0
  3  2  2  0  0  0  0
  4  6  1  0  0  0  0
  5  4  2  0  0  0  0
  6 31  1  0  0  0  0
  6  7  1  0  0  0  0
  7  8  2  0  0  0  0
  9  2  1  0  0  0  0
 10 15  1  0  0  0  0
 10 16  1  0  0  0  0
 11 10  2  0  0  0  0
 12 13  2  0  0  0  0
 12 11  1  0  0  0  0
 13 14  1  0  0  0  0
 14 18  1  0  0  0  0
 14 15  2  0  0  0  0
 17 11  1  0  0  0  0
 19 28  1  0  0  0  0
 19 20  1  0  0  0  0
 20  3  1  0  0  0  0
 21 20  2  0  0  0  0
 21 22  1  0  0  0  0
 23 21  1  0  0  0  0
 24 23  1  0  0  0  0
 25 26  1  0  0  0  0
 25 23  2  0  0  0  0
 26 19  2  0  0  0  0
 27 28  1  0  0  0  0
 28 30  2  0  0  0  0
 29 28  2  0  0  0  0
 31 34  1  0  0  0  0
 32 31  1  0  0  0  0
 33 31  1  0  0  0  0
M  END
>  <minimizedAffinity>
-6.03507566

>  <minimizedRMSD>
1.453493

$$$$
