
 OpenBabel03272509463D

 28 29  0  0  0  0  0  0  0  0999 V2000
   32.8690   27.5870   48.4610 C   0  0  0  0  0  0  0  0  0  0  0  0
   33.1840   27.5700   47.3880 H   0  0  0  0  0  0  0  0  0  0  0  0
   33.0750   26.5660   48.8340 H   0  0  0  0  0  0  0  0  0  0  0  0
   30.9160   28.3510   47.3340 C   0  0  0  0  0  0  0  0  0  0  0  0
   31.4130   27.8520   48.5440 C   0  0  0  0  0  0  0  0  0  0  0  0
   30.5570   27.6710   49.6030 C   0  0  0  0  0  0  0  0  0  0  0  0
   31.0410   27.2820   50.4860 H   0  0  0  0  0  0  0  0  0  0  0  0
   29.2200   27.9750   49.4880 C   0  0  0  0  0  0  0  0  0  0  0  0
   28.5880   27.8090   50.3690 H   0  0  0  0  0  0  0  0  0  0  0  0
   28.6850   28.4700   48.3170 C   0  0  0  0  0  3  0  0  0  0  0  0
   29.5560   28.6550   47.2370 C   0  0  0  0  0  3  0  0  0  0  0  0
   32.9990   29.2290   46.0630 H   0  0  0  0  0  0  0  0  0  0  0  0
   31.7670   28.6750   45.8570 S   0  0  0  0  0  0  0  0  0  0  0  0
   31.8960   27.4550   44.9720 O   0  0  0  0  0  0  0  0  0  0  0  0
   30.9740   29.7350   45.1090 O   0  0  0  0  0  0  0  0  0  0  0  0
   33.6810   28.6060   49.2040 C   0  0  0  0  0  0  0  0  0  0  0  0
   33.7520   29.5000   48.5170 H   0  0  0  0  0  0  0  0  0  0  0  0
   33.1370   28.9730   50.0850 H   0  0  0  0  0  0  0  0  0  0  0  0
   34.9760   28.1160   49.4750 O   0  0  0  0  0  0  0  0  0  0  0  0
   37.2160   30.2300   51.3610 C   0  0  0  0  0  0  0  0  0  0  0  0
   37.9710   30.7840   50.3050 C   0  0  0  0  0  0  0  0  0  0  0  0
   37.6640   30.3970   49.0030 C   0  0  0  0  0  0  0  0  0  0  0  0
   36.6450   29.5000   48.8350 N   0  0  0  0  0  0  0  0  0  0  0  0
   35.9530   28.9980   49.8730 C   0  0  0  0  0  0  0  0  0  0  0  0
   36.2440   29.3690   51.1410 N   0  0  0  0  0  0  0  0  0  0  0  0
   37.4250   30.5070   52.3760 H   0  0  0  0  0  0  0  0  0  0  0  0
   38.7710   31.4920   50.4930 H   0  0  0  0  0  0  0  0  0  0  0  0
   38.2030   30.7820   48.1470 H   0  0  0  0  0  0  0  0  0  0  0  0
  1  5  1  0  0  0  0
  1  3  1  0  0  0  0
  1 16  1  0  0  0  0
  2  1  1  0  0  0  0
  4  5  1  0  0  0  0
  5  6  2  0  0  0  0
  6  7  1  0  0  0  0
  8  6  1  0  0  0  0
  8  9  1  0  0  0  0
 10  8  2  0  0  0  0
 11  4  2  0  0  0  0
 11 10  1  0  0  0  0
 13 12  1  0  0  0  0
 13  4  1  0  0  0  0
 14 13  2  0  0  0  0
 15 13  2  0  0  0  0
 16 19  1  0  0  0  0
 16 18  1  0  0  0  0
 17 16  1  0  0  0  0
 19 24  1  0  0  0  0
 20 26  1  0  0  0  0
 21 27  1  0  0  0  0
 21 20  2  0  0  0  0
 22 21  1  0  0  0  0
 23 22  2  0  0  0  0
 23 24  1  0  0  0  0
 24 25  2  0  0  0  0
 25 20  1  0  0  0  0
 28 22  1  0  0  0  0
M  END
>  <minimizedAffinity>
-4.49317265

>  <minimizedRMSD>
2.93512249

$$$$
