
 OpenBabel03272510103D

 31 33  0  0  0  0  0  0  0  0999 V2000
   37.7130   31.0580   47.9620 C   0  0  0  0  0  0  0  0  0  0  0  0
   38.7810   31.8960   47.8910 C   0  0  0  0  0  0  0  0  0  0  0  0
   39.2690   32.4160   46.7020 C   0  0  0  0  0  0  0  0  0  0  0  0
   38.6660   32.0890   45.5050 C   0  0  0  0  0  0  0  0  0  0  0  0
   37.5780   31.2340   45.5990 C   0  0  0  0  0  0  0  0  0  0  0  0
   37.1410   30.7540   46.7800 N   0  0  0  0  0  0  0  0  0  0  0  0
   39.3050   32.1960   48.7840 H   0  0  0  0  0  0  0  0  0  0  0  0
   40.1220   33.0850   46.6400 H   0  0  0  0  0  0  0  0  0  0  0  0
   37.0200   30.9010   44.7410 H   0  0  0  0  0  0  0  0  0  0  0  0
   37.7900   30.7330   50.4560 C   0  0  0  0  0  0  0  0  0  0  0  0
   37.2030   30.5150   49.2080 C   0  0  0  0  0  0  0  0  0  0  0  0
   36.0540   29.7240   49.1590 C   0  0  0  0  0  0  0  0  0  0  0  0
   35.5560   29.2030   50.3190 N   0  0  0  0  0  0  0  0  0  0  0  0
   36.1570   29.4400   51.5010 C   0  0  0  0  0  0  0  0  0  0  0  0
   37.2730   30.2030   51.5810 N   0  0  0  0  0  0  0  0  0  0  0  0
   38.6730   31.3500   50.4260 H   0  0  0  0  0  0  0  0  0  0  0  0
   35.5060   29.4830   48.2470 H   0  0  0  0  0  0  0  0  0  0  0  0
   35.7350   29.0090   52.4090 H   0  0  0  0  0  0  0  0  0  0  0  0
   39.0740   32.5530   44.2640 O   0  0  0  0  0  0  0  0  0  0  0  0
   39.1730   31.9660   41.9850 C   0  0  0  0  0  0  0  0  0  0  0  0
   39.6150   31.7720   43.2800 C   0  0  0  0  0  0  0  0  0  0  0  0
   40.5750   30.8170   43.5530 C   0  0  0  0  0  0  0  0  0  0  0  0
   40.9370   30.6500   44.5760 H   0  0  0  0  0  0  0  0  0  0  0  0
   41.0760   30.0640   42.4950 C   0  0  0  0  0  0  0  0  0  0  0  0
   41.8410   29.2990   42.7010 H   0  0  0  0  0  0  0  0  0  0  0  0
   40.6520   30.2340   41.1860 C   0  0  0  0  0  0  0  0  0  0  0  0
   39.6870   31.2020   40.9370 C   0  0  0  0  0  0  0  0  0  0  0  0
   37.3560   33.5750   42.8260 H   0  0  0  0  0  0  0  0  0  0  0  0
   37.9580   33.1780   41.6500 S   0  0  0  0  0  0  0  0  0  0  0  0
   38.6420   34.3240   40.9630 O   0  0  0  0  0  0  0  0  0  0  0  0
   36.9470   32.6120   40.6990 O   0  0  0  0  0  0  0  0  0  0  0  0
  1 11  1  0  0  0  0
  2  1  1  0  0  0  0
  2  7  1  0  0  0  0
  3  2  2  0  0  0  0
  4  5  2  0  0  0  0
  4  3  1  0  0  0  0
  5  6  1  0  0  0  0
  6  1  2  0  0  0  0
  8  3  1  0  0  0  0
  9  5  1  0  0  0  0
 10 15  1  0  0  0  0
 11 10  2  0  0  0  0
 12 11  1  0  0  0  0
 12 13  2  0  0  0  0
 13 14  1  0  0  0  0
 14 15  2  0  0  0  0
 14 18  1  0  0  0  0
 16 10  1  0  0  0  0
 17 12  1  0  0  0  0
 19  4  1  0  0  0  0
 20 21  1  0  0  0  0
 21 22  2  0  0  0  0
 21 19  1  0  0  0  0
 22 23  1  0  0  0  0
 24 25  1  0  0  0  0
 24 22  1  0  0  0  0
 26 24  2  0  0  0  0
 27 26  1  0  0  0  0
 27 20  2  0  0  0  0
 29 20  1  0  0  0  0
 29 28  1  0  0  0  0
 30 29  2  0  0  0  0
 31 29  2  0  0  0  0
M  END
>  <minimizedAffinity>
-5.58997297

>  <minimizedRMSD>
3.64602685

$$$$
