
 OpenBabel03272504243D

 42 45  0  0  0  0  0  0  0  0999 V2000
   31.3830   28.2170   46.3930 C   0  0  0  0  0  0  0  0  0  0  0  0
   32.6720   28.6870   46.1370 C   0  0  0  0  0  0  0  0  0  0  0  0
   33.0750   29.1220   44.9110 C   0  0  0  0  0  0  0  0  0  0  0  0
   32.1830   29.1040   43.8540 C   0  0  0  0  0  0  0  0  0  0  0  0
   30.8990   28.6450   44.0410 C   0  0  0  0  0  0  0  0  0  0  0  0
   30.5600   28.2210   45.3070 C   0  0  0  0  0  0  0  0  0  0  0  0
   34.0940   29.4690   44.8150 H   0  0  0  0  0  0  0  0  0  0  0  0
   32.6010   29.4700   42.9410 H   0  0  0  0  0  0  0  0  0  0  0  0
   30.2830   28.6710   43.1700 H   0  0  0  0  0  0  0  0  0  0  0  0
   29.5010   27.8910   45.2030 H   0  0  0  0  0  0  0  0  0  0  0  0
   35.3930   29.6690   48.3750 C   0  0  0  0  0  0  0  0  0  0  0  0
   35.2860   28.7080   49.3000 C   0  0  0  0  0  0  0  0  0  0  0  0
   34.3450   27.7410   49.2300 C   0  0  0  0  0  0  0  0  0  0  0  0
   33.4720   27.7390   48.1800 N   0  0  0  0  0  0  0  0  0  0  0  0
   33.6040   28.7180   47.2620 C   0  0  0  0  0  0  0  0  0  0  0  0
   34.5410   29.6760   47.3400 N   0  0  0  0  0  0  0  0  0  0  0  0
   35.9690   28.6780   50.1540 H   0  0  0  0  0  0  0  0  0  0  0  0
   34.2760   26.9740   49.9880 H   0  0  0  0  0  0  0  0  0  0  0  0
   37.4840   32.4420   49.6040 C   0  0  0  0  0  0  0  0  0  0  0  0
   38.2890   32.7320   48.4970 C   0  0  0  0  0  0  0  0  0  0  0  0
   38.0950   31.9590   47.3380 C   0  0  0  0  0  0  0  0  0  0  0  0
   37.1480   30.9840   47.3580 N   0  0  0  0  0  0  0  0  0  0  0  0
   36.3950   30.7320   48.4300 C   0  0  0  0  0  0  0  0  0  0  0  0
   36.5710   31.4680   49.5550 N   0  0  0  0  0  0  0  0  0  0  0  0
   37.6790   33.0620   50.4490 H   0  0  0  0  0  0  0  0  0  0  0  0
   39.0530   33.4610   48.3640 H   0  0  0  0  0  0  0  0  0  0  0  0
   38.6370   32.0640   46.4080 H   0  0  0  0  0  0  0  0  0  0  0  0
   30.7100   27.7290   47.8230 S   0  0  0  0  0  0  0  0  0  0  0  0
   29.9200   26.3990   47.5880 O   0  0  0  0  0  0  0  0  0  0  0  0
   30.6220   28.3570   49.0290 O   0  0  0  0  0  0  0  0  0  0  0  0
   28.1300   28.3750   48.8270 C   0  0  0  0  0  0  0  0  0  0  0  0
   29.1260   28.6150   47.8160 C   0  0  0  0  0  0  0  0  0  0  0  0
   28.7980   29.5410   46.9690 C   0  0  0  0  0  0  0  0  0  0  0  0
   29.4510   29.8100   46.1530 H   0  0  0  0  0  0  0  0  0  0  0  0
   27.6190   30.2590   46.9960 C   0  0  0  0  0  0  0  0  0  0  0  0
   27.4550   31.0080   46.2380 H   0  0  0  0  0  0  0  0  0  0  0  0
   26.7070   29.9950   47.9770 C   0  0  0  0  0  3  0  0  0  0  0  0
   26.8950   29.0470   48.9500 C   0  0  0  0  0  3  0  0  0  0  0  0
   29.5680   26.5150   49.6590 H   0  0  0  0  0  0  0  0  0  0  0  0
   28.3530   27.1310   50.0270 S   0  0  0  0  0  0  0  0  0  0  0  0
   27.3720   25.9960   49.8570 O   0  0  0  0  0  0  0  0  0  0  0  0
   28.5170   27.4590   51.4100 O   0  0  0  0  0  0  0  0  0  0  0  0
  1 28  1  0  0  0  0
  2  1  1  0  0  0  0
  2 15  1  0  0  0  0
  3  2  2  0  0  0  0
  4  5  2  0  0  0  0
  4  3  1  0  0  0  0
  5  6  1  0  0  0  0
  6  1  2  0  0  0  0
  7  3  1  0  0  0  0
  8  4  1  0  0  0  0
  9  5  1  0  0  0  0
 10  6  1  0  0  0  0
 11 23  1  0  0  0  0
 11 12  1  0  0  0  0
 12 17  1  0  0  0  0
 13 12  2  0  0  0  0
 13 18  1  0  0  0  0
 14 13  1  0  0  0  0
 15 16  1  0  0  0  0
 15 14  2  0  0  0  0
 16 11  2  0  0  0  0
 19 25  1  0  0  0  0
 20 19  2  0  0  0  0
 21 22  2  0  0  0  0
 21 20  1  0  0  0  0
 22 23  1  0  0  0  0
 23 24  2  0  0  0  0
 24 19  1  0  0  0  0
 26 20  1  0  0  0  0
 27 21  1  0  0  0  0
 28 30  2  0  0  0  0
 29 28  2  0  0  0  0
 31 38  1  0  0  0  0
 31 40  1  0  0  0  0
 32 28  1  0  0  0  0
 32 31  2  0  0  0  0
 33 35  2  0  0  0  0
 33 32  1  0  0  0  0
 34 33  1  0  0  0  0
 35 37  1  0  0  0  0
 36 35  1  0  0  0  0
 37 38  2  0  0  0  0
 39 40  1  0  0  0  0
 40 42  2  0  0  0  0
 41 40  2  0  0  0  0
M  END
>  <minimizedAffinity>
-5.95693731

>  <minimizedRMSD>
2.3582015

$$$$
