
 OpenBabel03272510013D

 24 25  0  0  0  0  0  0  0  0999 V2000
   38.0420   31.3590   49.9060 C   0  0  0  0  0  0  0  0  0  0  0  0
   38.0850   31.3790   48.4940 C   0  0  0  0  0  0  0  0  0  0  0  0
   37.1020   30.6990   47.7940 C   0  0  0  0  0  0  0  0  0  0  0  0
   36.1690   30.0610   48.5380 N   0  0  0  0  0  0  0  0  0  0  0  0
   36.1370   30.0480   49.8710 C   0  0  0  0  0  0  0  0  0  0  0  0
   37.0760   30.6980   50.5480 N   0  0  0  0  0  0  0  0  0  0  0  0
   38.7630   31.8570   50.5070 H   0  0  0  0  0  0  0  0  0  0  0  0
   38.8730   31.9170   47.9970 H   0  0  0  0  0  0  0  0  0  0  0  0
   35.9230   30.2940   45.6770 C   0  0  0  0  0  0  0  0  0  0  0  0
   37.0630   30.6630   46.3390 C   0  0  0  0  0  0  0  0  0  0  0  0
   38.1440   30.9910   45.5650 C   0  0  0  0  0  0  0  0  0  0  0  0
   39.0890   31.2950   45.9920 H   0  0  0  0  0  0  0  0  0  0  0  0
   38.1580   30.9730   44.1860 C   0  0  0  0  0  0  0  0  0  0  0  0
   39.0170   31.2340   43.5900 H   0  0  0  0  0  0  0  0  0  0  0  0
   37.0140   30.6030   43.5120 C   0  0  0  0  0  3  0  0  0  0  0  0
   35.9200   30.2710   44.2820 C   0  0  0  0  0  3  0  0  0  0  0  0
   34.4520   30.2360   47.8190 H   0  0  0  0  0  0  0  0  0  0  0  0
   34.4580   29.8470   46.5200 S   0  0  0  0  0  0  0  0  0  0  0  0
   34.1790   28.3580   46.3530 O   0  0  0  0  0  0  0  0  0  0  0  0
   33.2700   30.5260   45.8740 O   0  0  0  0  0  0  0  0  0  0  0  0
   35.0410   29.3000   50.5280 C   0  0  0  0  0  0  0  0  0  0  0  0
   35.2830   29.0900   51.8840 F   0  0  0  0  0  0  0  0  0  0  0  0
   33.8320   30.0120   50.4730 F   0  0  0  0  0  0  0  0  0  0  0  0
   34.7770   28.0770   49.9880 F   0  0  0  0  0  0  0  0  0  0  0  0
  1  7  1  0  0  0  0
  1  6  1  0  0  0  0
  2  1  2  0  0  0  0
  3  2  1  0  0  0  0
  3  4  2  0  0  0  0
  4  5  1  0  0  0  0
  5 21  1  0  0  0  0
  5  6  2  0  0  0  0
  8  2  1  0  0  0  0
  9 10  1  0  0  0  0
  9 18  1  0  0  0  0
 10  3  1  0  0  0  0
 11 12  1  0  0  0  0
 11 10  2  0  0  0  0
 13 11  1  0  0  0  0
 14 13  1  0  0  0  0
 15 13  2  0  0  0  0
 15 16  1  0  0  0  0
 16  9  2  0  0  0  0
 18 17  1  0  0  0  0
 19 18  2  0  0  0  0
 20 18  2  0  0  0  0
 21 22  1  0  0  0  0
 23 21  1  0  0  0  0
 24 21  1  0  0  0  0
M  END
>  <minimizedAffinity>
-5.28472519

>  <minimizedRMSD>
1.03974271

$$$$
