
 OpenBabel03272502263D

 33 35  0  0  0  0  0  0  0  0999 V2000
   37.6030   27.1610   31.9700 C   0  0  0  0  0  0  0  0  0  0  0  0
   37.9600   25.9780   32.6580 C   0  0  0  0  0  0  0  0  0  0  0  0
   37.6530   25.8990   34.0150 C   0  0  0  0  0  0  0  0  0  0  0  0
   37.0410   26.9540   34.5660 N   0  0  0  0  0  0  0  0  0  0  0  0
   36.7090   28.0720   33.8920 C   0  0  0  0  0  0  0  0  0  0  0  0
   36.9960   28.1650   32.5880 N   0  0  0  0  0  0  0  0  0  0  0  0
   37.8660   27.1700   30.9130 H   0  0  0  0  0  0  0  0  0  0  0  0
   38.4590   25.1410   32.1730 H   0  0  0  0  0  0  0  0  0  0  0  0
   37.9670   24.7310   34.8130 C   0  0  0  0  0  0  0  0  0  0  0  0
   38.2630   23.5200   34.1880 C   0  0  0  0  0  0  0  0  0  0  0  0
   38.5740   22.3780   34.9010 C   0  0  0  0  0  0  0  0  0  0  0  0
   38.5940   22.4290   36.2560 N   0  0  0  0  0  0  0  0  0  0  0  0
   38.3060   23.6050   36.8290 C   0  0  0  0  0  0  0  0  0  0  0  0
   38.0010   24.7270   36.1560 N   0  0  0  0  0  0  0  0  0  0  0  0
   38.2360   23.5220   33.1080 H   0  0  0  0  0  0  0  0  0  0  0  0
   38.7960   21.4650   34.3620 H   0  0  0  0  0  0  0  0  0  0  0  0
   38.3200   23.6920   38.3140 C   0  0  0  0  0  0  0  0  0  0  0  0
   37.3070   22.8540   38.8040 F   0  0  0  0  0  0  0  0  0  0  0  0
   39.5420   23.3270   38.8210 F   0  0  0  0  0  0  0  0  0  0  0  0
   37.9950   24.9520   38.7620 F   0  0  0  0  0  0  0  0  0  0  0  0
   36.0830   29.0480   34.6430 O   0  0  0  0  0  0  0  0  0  0  0  0
   34.7040   30.9040   34.8460 C   0  0  0  0  0  0  0  0  0  0  0  0
   34.9380   29.7020   34.2170 C   0  0  0  0  0  0  0  0  0  0  0  0
   34.1060   29.2090   33.2610 C   0  0  0  0  0  0  0  0  0  0  0  0
   34.3410   28.2710   32.8120 H   0  0  0  0  0  0  0  0  0  0  0  0
   32.9840   29.9130   32.8870 C   0  0  0  0  0  0  0  0  0  0  0  0
   32.3190   29.5180   32.1210 H   0  0  0  0  0  0  0  0  0  0  0  0
   32.6940   31.1250   33.4790 C   0  0  0  0  0  3  0  0  0  0  0  0
   33.5560   31.5970   34.4440 C   0  0  0  0  0  3  0  0  0  0  0  0
   36.2180   30.8590   36.9620 H   0  0  0  0  0  0  0  0  0  0  0  0
   35.6400   31.7060   36.0710 S   0  0  0  0  0  0  0  0  0  0  0  0
   36.6150   32.7160   35.4940 O   0  0  0  0  0  0  0  0  0  0  0  0
   34.6900   32.5640   36.9020 O   0  0  0  0  0  0  0  0  0  0  0  0
  1  6  2  0  0  0  0
  1  2  1  0  0  0  0
  2  3  2  0  0  0  0
  3  4  1  0  0  0  0
  3  9  1  0  0  0  0
  5  4  2  0  0  0  0
  5 21  1  0  0  0  0
  6  5  1  0  0  0  0
  7  1  1  0  0  0  0
  8  2  1  0  0  0  0
  9 14  1  0  0  0  0
 10  9  2  0  0  0  0
 10 11  1  0  0  0  0
 11 12  2  0  0  0  0
 12 13  1  0  0  0  0
 13 17  1  0  0  0  0
 14 13  2  0  0  0  0
 15 10  1  0  0  0  0
 16 11  1  0  0  0  0
 17 20  1  0  0  0  0
 17 18  1  0  0  0  0
 17 19  1  0  0  0  0
 22 31  1  0  0  0  0
 23 21  1  0  0  0  0
 23 22  2  0  0  0  0
 24 23  1  0  0  0  0
 25 24  1  0  0  0  0
 26 24  2  0  0  0  0
 26 28  1  0  0  0  0
 27 26  1  0  0  0  0
 28 29  2  0  0  0  0
 29 22  1  0  0  0  0
 31 33  2  0  0  0  0
 31 30  1  0  0  0  0
 32 31  2  0  0  0  0
M  END
>  <minimizedAffinity>
-6.11323261

$$$$

 OpenBabel03272502263D

 33 35  0  0  0  0  0  0  0  0999 V2000
   37.7350   27.7220   32.0650 C   0  0  0  0  0  0  0  0  0  0  0  0
   38.3240   26.6490   32.7750 C   0  0  0  0  0  0  0  0  0  0  0  0
   37.8510   26.3840   34.0590 C   0  0  0  0  0  0  0  0  0  0  0  0
   36.8730   27.1690   34.5250 N   0  0  0  0  0  0  0  0  0  0  0  0
   36.3260   28.1860   33.8320 C   0  0  0  0  0  0  0  0  0  0  0  0
   36.7670   28.4550   32.5980 N   0  0  0  0  0  0  0  0  0  0  0  0
   38.1410   27.8850   31.0680 H   0  0  0  0  0  0  0  0  0  0  0  0
   39.1200   26.0340   32.3600 H   0  0  0  0  0  0  0  0  0  0  0  0
   38.3790   25.3050   34.8700 C   0  0  0  0  0  0  0  0  0  0  0  0
   39.2480   24.3720   34.3070 C   0  0  0  0  0  0  0  0  0  0  0  0
   39.7840   23.3270   35.0360 C   0  0  0  0  0  0  0  0  0  0  0  0
   39.4550   23.1980   36.3450 N   0  0  0  0  0  0  0  0  0  0  0  0
   38.6170   24.1090   36.8600 C   0  0  0  0  0  0  0  0  0  0  0  0
   38.0860   25.1310   36.1700 N   0  0  0  0  0  0  0  0  0  0  0  0
   39.4850   24.5100   33.2610 H   0  0  0  0  0  0  0  0  0  0  0  0
   40.4550   22.6320   34.5460 H   0  0  0  0  0  0  0  0  0  0  0  0
   38.2390   23.9930   38.2940 C   0  0  0  0  0  0  0  0  0  0  0  0
   39.3510   23.4990   38.9930 F   0  0  0  0  0  0  0  0  0  0  0  0
   37.8440   25.2050   38.8020 F   0  0  0  0  0  0  0  0  0  0  0  0
   37.2450   23.0640   38.4930 F   0  0  0  0  0  0  0  0  0  0  0  0
   35.3280   28.8770   34.4910 O   0  0  0  0  0  0  0  0  0  0  0  0
   34.5470   30.9400   33.7680 C   0  0  0  0  0  0  0  0  0  0  0  0
   35.3490   30.2540   34.6510 C   0  0  0  0  0  0  0  0  0  0  0  0
   36.0950   30.8860   35.5960 C   0  0  0  0  0  0  0  0  0  0  0  0
   36.6970   30.2980   36.2510 H   0  0  0  0  0  0  0  0  0  0  0  0
   36.0680   32.2580   35.6990 C   0  0  0  0  0  0  0  0  0  0  0  0
   36.6650   32.7630   36.4570 H   0  0  0  0  0  0  0  0  0  0  0  0
   35.2840   33.0040   34.8440 C   0  0  0  0  0  3  0  0  0  0  0  0
   34.5390   32.3340   33.8970 C   0  0  0  0  0  3  0  0  0  0  0  0
   34.1960   29.7600   31.4760 H   0  0  0  0  0  0  0  0  0  0  0  0
   33.5190   30.3270   32.5090 S   0  0  0  0  0  0  0  0  0  0  0  0
   32.4030   29.4480   33.0420 O   0  0  0  0  0  0  0  0  0  0  0  0
   32.7770   31.5090   31.8900 O   0  0  0  0  0  0  0  0  0  0  0  0
  1  6  2  0  0  0  0
  1  2  1  0  0  0  0
  2  3  2  0  0  0  0
  3  4  1  0  0  0  0
  3  9  1  0  0  0  0
  5 21  1  0  0  0  0
  5  4  2  0  0  0  0
  6  5  1  0  0  0  0
  7  1  1  0  0  0  0
  8  2  1  0  0  0  0
  9 14  1  0  0  0  0
 10  9  2  0  0  0  0
 10 11  1  0  0  0  0
 11 12  2  0  0  0  0
 12 13  1  0  0  0  0
 13 17  1  0  0  0  0
 14 13  2  0  0  0  0
 15 10  1  0  0  0  0
 16 11  1  0  0  0  0
 17 20  1  0  0  0  0
 17 19  1  0  0  0  0
 17 18  1  0  0  0  0
 21 23  1  0  0  0  0
 22 29  2  0  0  0  0
 22 23  1  0  0  0  0
 23 24  2  0  0  0  0
 24 26  1  0  0  0  0
 24 25  1  0  0  0  0
 26 27  1  0  0  0  0
 28 26  2  0  0  0  0
 29 28  1  0  0  0  0
 30 31  1  0  0  0  0
 31 32  2  0  0  0  0
 31 22  1  0  0  0  0
 33 31  2  0  0  0  0
M  END
>  <minimizedAffinity>
-6.05957222

$$$$

 OpenBabel03272502263D

 33 35  0  0  0  0  0  0  0  0999 V2000
   36.8030   23.9080   32.1380 C   0  0  0  0  0  0  0  0  0  0  0  0
   36.3060   25.2190   31.9450 C   0  0  0  0  0  0  0  0  0  0  0  0
   36.8720   26.2440   32.7010 C   0  0  0  0  0  0  0  0  0  0  0  0
   37.8470   25.9090   33.5540 N   0  0  0  0  0  0  0  0  0  0  0  0
   38.3060   24.6540   33.7220 C   0  0  0  0  0  0  0  0  0  0  0  0
   37.7740   23.6560   33.0050 N   0  0  0  0  0  0  0  0  0  0  0  0
   36.3260   23.1460   31.5240 H   0  0  0  0  0  0  0  0  0  0  0  0
   35.5100   25.4500   31.2410 H   0  0  0  0  0  0  0  0  0  0  0  0
   36.4430   27.6220   32.5770 C   0  0  0  0  0  0  0  0  0  0  0  0
   36.3300   28.2060   31.3170 C   0  0  0  0  0  0  0  0  0  0  0  0
   35.9200   29.5150   31.1420 C   0  0  0  0  0  0  0  0  0  0  0  0
   35.6180   30.2630   32.2320 N   0  0  0  0  0  0  0  0  0  0  0  0
   35.7370   29.6770   33.4310 C   0  0  0  0  0  0  0  0  0  0  0  0
   36.1320   28.4070   33.6230 N   0  0  0  0  0  0  0  0  0  0  0  0
   36.5800   27.5760   30.4750 H   0  0  0  0  0  0  0  0  0  0  0  0
   35.8500   29.9160   30.1390 H   0  0  0  0  0  0  0  0  0  0  0  0
   35.4110   30.4730   34.6450 C   0  0  0  0  0  0  0  0  0  0  0  0
   35.4170   31.8290   34.2830 F   0  0  0  0  0  0  0  0  0  0  0  0
   34.1940   30.1120   35.1640 F   0  0  0  0  0  0  0  0  0  0  0  0
   36.3790   30.3550   35.6150 F   0  0  0  0  0  0  0  0  0  0  0  0
   39.3160   24.5160   34.6530 O   0  0  0  0  0  0  0  0  0  0  0  0
   39.9080   23.1940   36.4670 C   0  0  0  0  0  0  0  0  0  0  0  0
   39.0770   24.1750   35.9750 C   0  0  0  0  0  0  0  0  0  0  0  0
   38.1060   24.7520   36.7330 C   0  0  0  0  0  0  0  0  0  0  0  0
   37.4940   25.5050   36.2940 H   0  0  0  0  0  0  0  0  0  0  0  0
   37.9240   24.3630   38.0410 C   0  0  0  0  0  0  0  0  0  0  0  0
   37.1470   24.8260   38.6470 H   0  0  0  0  0  0  0  0  0  0  0  0
   38.7250   23.3860   38.5940 C   0  0  0  0  0  3  0  0  0  0  0  0
   39.6990   22.8210   37.8000 C   0  0  0  0  0  3  0  0  0  0  0  0
   40.8200   21.6920   34.5480 H   0  0  0  0  0  0  0  0  0  0  0  0
   41.2030   22.3480   35.6750 S   0  0  0  0  0  0  0  0  0  0  0  0
   42.4290   23.2170   35.4680 O   0  0  0  0  0  0  0  0  0  0  0  0
   41.6960   21.2550   36.6180 O   0  0  0  0  0  0  0  0  0  0  0  0
  1  6  1  0  0  0  0
  2  1  2  0  0  0  0
  2  3  1  0  0  0  0
  3  4  2  0  0  0  0
  4  5  1  0  0  0  0
  5 21  1  0  0  0  0
  6  5  2  0  0  0  0
  7  1  1  0  0  0  0
  8  2  1  0  0  0  0
  9  3  1  0  0  0  0
  9 14  1  0  0  0  0
 10  9  2  0  0  0  0
 11 10  1  0  0  0  0
 11 12  2  0  0  0  0
 12 13  1  0  0  0  0
 13 14  2  0  0  0  0
 13 17  1  0  0  0  0
 15 10  1  0  0  0  0
 16 11  1  0  0  0  0
 17 19  1  0  0  0  0
 17 20  1  0  0  0  0
 18 17  1  0  0  0  0
 21 23  1  0  0  0  0
 22 29  1  0  0  0  0
 23 22  2  0  0  0  0
 23 24  1  0  0  0  0
 24 26  2  0  0  0  0
 25 24  1  0  0  0  0
 26 28  1  0  0  0  0
 26 27  1  0  0  0  0
 29 28  2  0  0  0  0
 30 31  1  0  0  0  0
 31 22  1  0  0  0  0
 31 33  2  0  0  0  0
 32 31  2  0  0  0  0
M  END
>  <minimizedAffinity>
-5.97157192

$$$$

 OpenBabel03272502263D

 33 35  0  0  0  0  0  0  0  0999 V2000
   36.7130   23.8970   31.5490 C   0  0  0  0  0  0  0  0  0  0  0  0
   37.3960   23.3010   32.6340 C   0  0  0  0  0  0  0  0  0  0  0  0
   37.7960   24.1290   33.6820 C   0  0  0  0  0  0  0  0  0  0  0  0
   37.5020   25.4310   33.5790 N   0  0  0  0  0  0  0  0  0  0  0  0
   36.8490   25.9780   32.5370 C   0  0  0  0  0  0  0  0  0  0  0  0
   36.4570   25.1980   31.5220 N   0  0  0  0  0  0  0  0  0  0  0  0
   36.4230   23.2060   30.7590 H   0  0  0  0  0  0  0  0  0  0  0  0
   37.6180   22.2370   32.6790 H   0  0  0  0  0  0  0  0  0  0  0  0
   38.4970   23.6220   34.8440 C   0  0  0  0  0  0  0  0  0  0  0  0
   39.6240   22.8180   34.6820 C   0  0  0  0  0  0  0  0  0  0  0  0
   40.3310   22.3120   35.7560 C   0  0  0  0  0  0  0  0  0  0  0  0
   39.9200   22.6030   37.0150 N   0  0  0  0  0  0  0  0  0  0  0  0
   38.8330   23.3770   37.1410 C   0  0  0  0  0  0  0  0  0  0  0  0
   38.1320   23.8790   36.1110 N   0  0  0  0  0  0  0  0  0  0  0  0
   39.9190   22.6090   33.6630 H   0  0  0  0  0  0  0  0  0  0  0  0
   41.2000   21.6920   35.5700 H   0  0  0  0  0  0  0  0  0  0  0  0
   38.3580   23.7140   38.5100 C   0  0  0  0  0  0  0  0  0  0  0  0
   37.9270   25.0500   38.4980 F   0  0  0  0  0  0  0  0  0  0  0  0
   37.3450   22.8780   38.9040 F   0  0  0  0  0  0  0  0  0  0  0  0
   39.3760   23.6720   39.4350 F   0  0  0  0  0  0  0  0  0  0  0  0
   36.6430   27.3410   32.6210 O   0  0  0  0  0  0  0  0  0  0  0  0
   36.3540   29.4050   31.5970 C   0  0  0  0  0  0  0  0  0  0  0  0
   37.0630   28.2250   31.6390 C   0  0  0  0  0  0  0  0  0  0  0  0
   38.0860   27.9620   30.7830 C   0  0  0  0  0  0  0  0  0  0  0  0
   38.5960   27.0300   30.8660 H   0  0  0  0  0  0  0  0  0  0  0  0
   38.4510   28.8870   29.8320 C   0  0  0  0  0  0  0  0  0  0  0  0
   39.2710   28.6770   29.1480 H   0  0  0  0  0  0  0  0  0  0  0  0
   37.7810   30.0890   29.7380 C   0  0  0  0  0  3  0  0  0  0  0  0
   36.7480   30.3260   30.6200 C   0  0  0  0  0  3  0  0  0  0  0  0
   34.6420   31.2110   32.3570 H   0  0  0  0  0  0  0  0  0  0  0  0
   35.0350   29.9330   32.5970 S   0  0  0  0  0  0  0  0  0  0  0  0
   33.8790   28.9490   32.6070 O   0  0  0  0  0  0  0  0  0  0  0  0
   35.5150   29.9330   34.0460 O   0  0  0  0  0  0  0  0  0  0  0  0
  1  2  1  0  0  0  0
  2  8  1  0  0  0  0
  2  3  2  0  0  0  0
  3  9  1  0  0  0  0
  4  3  1  0  0  0  0
  5 21  1  0  0  0  0
  5  4  2  0  0  0  0
  6  1  2  0  0  0  0
  6  5  1  0  0  0  0
  7  1  1  0  0  0  0
  9 14  1  0  0  0  0
 10  9  2  0  0  0  0
 10 11  1  0  0  0  0
 11 12  2  0  0  0  0
 12 13  1  0  0  0  0
 13 17  1  0  0  0  0
 14 13  2  0  0  0  0
 15 10  1  0  0  0  0
 16 11  1  0  0  0  0
 17 19  1  0  0  0  0
 17 20  1  0  0  0  0
 18 17  1  0  0  0  0
 22 23  1  0  0  0  0
 22 31  1  0  0  0  0
 23 21  1  0  0  0  0
 24 25  1  0  0  0  0
 24 23  2  0  0  0  0
 26 24  1  0  0  0  0
 27 26  1  0  0  0  0
 28 26  2  0  0  0  0
 28 29  1  0  0  0  0
 29 22  2  0  0  0  0
 30 31  1  0  0  0  0
 31 32  2  0  0  0  0
 31 33  2  0  0  0  0
M  END
>  <minimizedAffinity>
-5.88750792

$$$$

 OpenBabel03272502263D

 33 35  0  0  0  0  0  0  0  0999 V2000
   37.3560   28.4950   31.4300 C   0  0  0  0  0  0  0  0  0  0  0  0
   38.1390   27.5390   32.1190 C   0  0  0  0  0  0  0  0  0  0  0  0
   37.7200   27.1550   33.3920 C   0  0  0  0  0  0  0  0  0  0  0  0
   36.6060   27.7230   33.8680 N   0  0  0  0  0  0  0  0  0  0  0  0
   35.8750   28.6320   33.1950 C   0  0  0  0  0  0  0  0  0  0  0  0
   36.2610   29.0130   31.9710 N   0  0  0  0  0  0  0  0  0  0  0  0
   37.7260   28.7590   30.4410 H   0  0  0  0  0  0  0  0  0  0  0  0
   39.0400   27.1000   31.6970 H   0  0  0  0  0  0  0  0  0  0  0  0
   38.4440   26.1790   34.1810 C   0  0  0  0  0  0  0  0  0  0  0  0
   39.6900   25.7220   33.7540 C   0  0  0  0  0  0  0  0  0  0  0  0
   40.4240   24.7960   34.4710 C   0  0  0  0  0  0  0  0  0  0  0  0
   39.9190   24.3080   35.6310 N   0  0  0  0  0  0  0  0  0  0  0  0
   38.7190   24.7640   36.0180 C   0  0  0  0  0  0  0  0  0  0  0  0
   37.9900   25.6630   35.3370 N   0  0  0  0  0  0  0  0  0  0  0  0
   40.0560   26.1360   32.8250 H   0  0  0  0  0  0  0  0  0  0  0  0
   41.3870   24.4780   34.0900 H   0  0  0  0  0  0  0  0  0  0  0  0
   38.1410   24.2480   37.2870 C   0  0  0  0  0  0  0  0  0  0  0  0
   38.0530   25.3210   38.1870 F   0  0  0  0  0  0  0  0  0  0  0  0
   36.9070   23.6850   37.0780 F   0  0  0  0  0  0  0  0  0  0  0  0
   38.9670   23.3320   37.8970 F   0  0  0  0  0  0  0  0  0  0  0  0
   34.7590   29.1000   33.8600 O   0  0  0  0  0  0  0  0  0  0  0  0
   33.6320   30.3540   35.4560 C   0  0  0  0  0  0  0  0  0  0  0  0
   34.8160   30.1240   34.7920 C   0  0  0  0  0  0  0  0  0  0  0  0
   35.9400   30.8500   35.0390 C   0  0  0  0  0  0  0  0  0  0  0  0
   36.8250   30.6240   34.4910 H   0  0  0  0  0  0  0  0  0  0  0  0
   35.9240   31.8550   35.9800 C   0  0  0  0  0  0  0  0  0  0  0  0
   36.8240   32.4340   36.1770 H   0  0  0  0  0  0  0  0  0  0  0  0
   34.7690   32.1340   36.6800 C   0  0  0  0  0  3  0  0  0  0  0  0
   33.6470   31.3810   36.4070 C   0  0  0  0  0  3  0  0  0  0  0  0
   32.1010   28.5600   34.3560 H   0  0  0  0  0  0  0  0  0  0  0  0
   32.1050   29.5400   35.2970 S   0  0  0  0  0  0  0  0  0  0  0  0
   31.5440   29.0840   36.6310 O   0  0  0  0  0  0  0  0  0  0  0  0
   31.0790   30.5590   34.8080 O   0  0  0  0  0  0  0  0  0  0  0  0
  1  6  2  0  0  0  0
  1  2  1  0  0  0  0
  2  3  2  0  0  0  0
  3  4  1  0  0  0  0
  3  9  1  0  0  0  0
  5 21  1  0  0  0  0
  5  4  2  0  0  0  0
  6  5  1  0  0  0  0
  7  1  1  0  0  0  0
  8  2  1  0  0  0  0
  9 14  1  0  0  0  0
 10  9  2  0  0  0  0
 10 11  1  0  0  0  0
 11 12  2  0  0  0  0
 12 13  1  0  0  0  0
 13 17  1  0  0  0  0
 14 13  2  0  0  0  0
 15 10  1  0  0  0  0
 16 11  1  0  0  0  0
 17 20  1  0  0  0  0
 17 18  1  0  0  0  0
 19 17  1  0  0  0  0
 21 23  1  0  0  0  0
 22 29  1  0  0  0  0
 23 24  1  0  0  0  0
 23 22  2  0  0  0  0
 24 26  2  0  0  0  0
 25 24  1  0  0  0  0
 26 27  1  0  0  0  0
 26 28  1  0  0  0  0
 29 28  2  0  0  0  0
 30 31  1  0  0  0  0
 31 22  1  0  0  0  0
 31 32  2  0  0  0  0
 33 31  2  0  0  0  0
M  END
>  <minimizedAffinity>
-5.83918285

$$$$

 OpenBabel03272502263D

 33 35  0  0  0  0  0  0  0  0999 V2000
   41.3200   27.4090   33.2380 C   0  0  0  0  0  0  0  0  0  0  0  0
   41.2500   26.5270   34.3420 C   0  0  0  0  0  0  0  0  0  0  0  0
   40.4490   25.3930   34.2150 C   0  0  0  0  0  0  0  0  0  0  0  0
   39.8040   25.2260   33.0550 N   0  0  0  0  0  0  0  0  0  0  0  0
   39.8840   26.0780   32.0160 C   0  0  0  0  0  0  0  0  0  0  0  0
   40.6490   27.1720   32.1180 N   0  0  0  0  0  0  0  0  0  0  0  0
   41.9590   28.2780   33.3890 H   0  0  0  0  0  0  0  0  0  0  0  0
   41.7900   26.7000   35.2700 H   0  0  0  0  0  0  0  0  0  0  0  0
   40.3120   24.4210   35.2810 C   0  0  0  0  0  0  0  0  0  0  0  0
   41.3080   23.4670   35.4860 C   0  0  0  0  0  0  0  0  0  0  0  0
   41.2290   22.5210   36.4900 C   0  0  0  0  0  0  0  0  0  0  0  0
   40.1470   22.5140   37.3080 N   0  0  0  0  0  0  0  0  0  0  0  0
   39.2060   23.4420   37.0880 C   0  0  0  0  0  0  0  0  0  0  0  0
   39.2620   24.3700   36.1190 N   0  0  0  0  0  0  0  0  0  0  0  0
   42.1530   23.5070   34.8130 H   0  0  0  0  0  0  0  0  0  0  0  0
   42.0330   21.8040   36.6030 H   0  0  0  0  0  0  0  0  0  0  0  0
   38.0080   23.4590   37.9700 C   0  0  0  0  0  0  0  0  0  0  0  0
   36.9070   23.0380   37.2080 F   0  0  0  0  0  0  0  0  0  0  0  0
   38.1840   22.6470   39.0620 F   0  0  0  0  0  0  0  0  0  0  0  0
   37.6930   24.7310   38.3880 F   0  0  0  0  0  0  0  0  0  0  0  0
   39.1410   25.7270   30.9070 O   0  0  0  0  0  0  0  0  0  0  0  0
   36.9400   26.4620   30.9950 C   0  0  0  0  0  0  0  0  0  0  0  0
   37.7990   25.3860   30.9810 C   0  0  0  0  0  0  0  0  0  0  0  0
   37.3550   24.1010   31.0350 C   0  0  0  0  0  0  0  0  0  0  0  0
   38.0710   23.3120   31.0210 H   0  0  0  0  0  0  0  0  0  0  0  0
   36.0070   23.8350   31.1080 C   0  0  0  0  0  0  0  0  0  0  0  0
   35.6530   22.8070   31.1500 H   0  0  0  0  0  0  0  0  0  0  0  0
   35.0940   24.8690   31.1250 C   0  0  0  0  0  3  0  0  0  0  0  0
   35.5750   26.1600   31.0680 C   0  0  0  0  0  3  0  0  0  0  0  0
   38.5630   28.4700   31.3210 H   0  0  0  0  0  0  0  0  0  0  0  0
   37.3010   28.1600   30.9220 S   0  0  0  0  0  0  0  0  0  0  0  0
   36.9310   28.7790   29.5880 O   0  0  0  0  0  0  0  0  0  0  0  0
   36.3880   28.8770   31.9140 O   0  0  0  0  0  0  0  0  0  0  0  0
  1  7  1  0  0  0  0
  1  2  1  0  0  0  0
  2  8  1  0  0  0  0
  3  2  2  0  0  0  0
  3  9  1  0  0  0  0
  4  3  1  0  0  0  0
  5  6  1  0  0  0  0
  5  4  2  0  0  0  0
  6  1  2  0  0  0  0
  9 10  2  0  0  0  0
  9 14  1  0  0  0  0
 10 11  1  0  0  0  0
 11 16  1  0  0  0  0
 11 12  2  0  0  0  0
 13 12  1  0  0  0  0
 13 17  1  0  0  0  0
 14 13  2  0  0  0  0
 15 10  1  0  0  0  0
 17 20  1  0  0  0  0
 17 19  1  0  0  0  0
 18 17  1  0  0  0  0
 21 23  1  0  0  0  0
 21  5  1  0  0  0  0
 22 29  1  0  0  0  0
 23 22  2  0  0  0  0
 23 24  1  0  0  0  0
 24 26  2  0  0  0  0
 25 24  1  0  0  0  0
 26 28  1  0  0  0  0
 26 27  1  0  0  0  0
 29 28  2  0  0  0  0
 31 22  1  0  0  0  0
 31 30  1  0  0  0  0
 31 33  2  0  0  0  0
 32 31  2  0  0  0  0
M  END
>  <minimizedAffinity>
-5.8121109

$$$$

 OpenBabel03272502263D

 33 35  0  0  0  0  0  0  0  0999 V2000
   39.7630   26.9080   32.1450 C   0  0  0  0  0  0  0  0  0  0  0  0
   39.6880   25.8200   33.0460 C   0  0  0  0  0  0  0  0  0  0  0  0
   38.4340   25.4870   33.5570 C   0  0  0  0  0  0  0  0  0  0  0  0
   37.3940   26.2260   33.1550 N   0  0  0  0  0  0  0  0  0  0  0  0
   37.4870   27.2580   32.2960 C   0  0  0  0  0  0  0  0  0  0  0  0
   38.6820   27.5930   31.7940 N   0  0  0  0  0  0  0  0  0  0  0  0
   40.7640   27.1250   31.7760 H   0  0  0  0  0  0  0  0  0  0  0  0
   40.5590   25.2440   33.3490 H   0  0  0  0  0  0  0  0  0  0  0  0
   38.2440   24.3870   34.4810 C   0  0  0  0  0  0  0  0  0  0  0  0
   37.9420   23.1150   33.9970 C   0  0  0  0  0  0  0  0  0  0  0  0
   37.7550   22.0310   34.8330 C   0  0  0  0  0  0  0  0  0  0  0  0
   37.8670   22.2040   36.1740 N   0  0  0  0  0  0  0  0  0  0  0  0
   38.1560   23.4370   36.6110 C   0  0  0  0  0  0  0  0  0  0  0  0
   38.3420   24.5040   35.8160 N   0  0  0  0  0  0  0  0  0  0  0  0
   37.8630   23.0200   32.9230 H   0  0  0  0  0  0  0  0  0  0  0  0
   37.5240   21.0650   34.4010 H   0  0  0  0  0  0  0  0  0  0  0  0
   38.2850   23.6570   38.0770 C   0  0  0  0  0  0  0  0  0  0  0  0
   37.2830   22.9090   38.7130 F   0  0  0  0  0  0  0  0  0  0  0  0
   39.5280   23.2880   38.5270 F   0  0  0  0  0  0  0  0  0  0  0  0
   38.0380   24.9640   38.4270 F   0  0  0  0  0  0  0  0  0  0  0  0
   36.2950   27.8950   32.0080 O   0  0  0  0  0  0  0  0  0  0  0  0
   35.8790   30.0440   32.7810 C   0  0  0  0  0  0  0  0  0  0  0  0
   36.2200   29.2460   31.7110 C   0  0  0  0  0  0  0  0  0  0  0  0
   36.4590   29.7550   30.4730 C   0  0  0  0  0  0  0  0  0  0  0  0
   36.7190   29.0860   29.6860 H   0  0  0  0  0  0  0  0  0  0  0  0
   36.3660   31.1100   30.2490 C   0  0  0  0  0  0  0  0  0  0  0  0
   36.5590   31.5170   29.2590 H   0  0  0  0  0  0  0  0  0  0  0  0
   36.0290   31.9640   31.2800 C   0  0  0  0  0  3  0  0  0  0  0  0
   35.7930   31.4170   32.5230 C   0  0  0  0  0  3  0  0  0  0  0  0
   36.0190   28.3680   34.7660 H   0  0  0  0  0  0  0  0  0  0  0  0
   35.5470   29.5960   34.4270 S   0  0  0  0  0  0  0  0  0  0  0  0
   35.9390   30.6770   35.4160 O   0  0  0  0  0  0  0  0  0  0  0  0
   34.0330   29.4950   34.5900 O   0  0  0  0  0  0  0  0  0  0  0  0
  1  2  1  0  0  0  0
  2  8  1  0  0  0  0
  2  3  2  0  0  0  0
  3  9  1  0  0  0  0
  4  3  1  0  0  0  0
  5  4  2  0  0  0  0
  6  1  2  0  0  0  0
  6  5  1  0  0  0  0
  7  1  1  0  0  0  0
  9 14  1  0  0  0  0
 10  9  2  0  0  0  0
 10 11  1  0  0  0  0
 11 12  2  0  0  0  0
 12 13  1  0  0  0  0
 13 17  1  0  0  0  0
 14 13  2  0  0  0  0
 15 10  1  0  0  0  0
 16 11  1  0  0  0  0
 17 20  1  0  0  0  0
 17 19  1  0  0  0  0
 17 18  1  0  0  0  0
 21  5  1  0  0  0  0
 22 31  1  0  0  0  0
 23 21  1  0  0  0  0
 23 22  2  0  0  0  0
 24 23  1  0  0  0  0
 25 24  1  0  0  0  0
 26 24  2  0  0  0  0
 26 28  1  0  0  0  0
 27 26  1  0  0  0  0
 28 29  2  0  0  0  0
 29 22  1  0  0  0  0
 31 33  2  0  0  0  0
 31 30  1  0  0  0  0
 31 32  2  0  0  0  0
M  END
>  <minimizedAffinity>
-5.80446625

$$$$

 OpenBabel03272502263D

 33 35  0  0  0  0  0  0  0  0999 V2000
   36.8490   27.6260   33.4070 C   0  0  0  0  0  0  0  0  0  0  0  0
   37.5000   26.9270   34.4500 C   0  0  0  0  0  0  0  0  0  0  0  0
   37.7920   25.5790   34.2440 C   0  0  0  0  0  0  0  0  0  0  0  0
   37.4310   25.0480   33.0700 N   0  0  0  0  0  0  0  0  0  0  0  0
   36.8120   25.7330   32.0890 C   0  0  0  0  0  0  0  0  0  0  0  0
   36.5250   27.0280   32.2690 N   0  0  0  0  0  0  0  0  0  0  0  0
   36.6460   28.6750   33.6200 H   0  0  0  0  0  0  0  0  0  0  0  0
   37.7760   27.3950   35.3930 H   0  0  0  0  0  0  0  0  0  0  0  0
   38.4610   24.7710   35.2430 C   0  0  0  0  0  0  0  0  0  0  0  0
   39.5700   24.0040   34.8890 C   0  0  0  0  0  0  0  0  0  0  0  0
   40.2480   23.2200   35.8030 C   0  0  0  0  0  0  0  0  0  0  0  0
   39.8250   23.1900   37.0910 N   0  0  0  0  0  0  0  0  0  0  0  0
   38.7570   23.9370   37.4030 C   0  0  0  0  0  0  0  0  0  0  0  0
   38.0840   24.7060   36.5310 N   0  0  0  0  0  0  0  0  0  0  0  0
   39.8750   24.0550   33.8530 H   0  0  0  0  0  0  0  0  0  0  0  0
   41.1040   22.6440   35.4710 H   0  0  0  0  0  0  0  0  0  0  0  0
   38.2700   23.9250   38.8080 C   0  0  0  0  0  0  0  0  0  0  0  0
   37.3520   22.8710   38.9370 F   0  0  0  0  0  0  0  0  0  0  0  0
   39.3080   23.7780   39.6930 F   0  0  0  0  0  0  0  0  0  0  0  0
   37.5590   25.0610   39.1190 F   0  0  0  0  0  0  0  0  0  0  0  0
   36.5230   25.0030   30.9530 O   0  0  0  0  0  0  0  0  0  0  0  0
   37.8180   23.1400   30.4580 C   0  0  0  0  0  0  0  0  0  0  0  0
   36.6080   23.6200   30.9090 C   0  0  0  0  0  0  0  0  0  0  0  0
   35.5910   22.7950   31.2760 C   0  0  0  0  0  0  0  0  0  0  0  0
   34.6790   23.2280   31.6160 H   0  0  0  0  0  0  0  0  0  0  0  0
   35.7450   21.4290   31.2070 C   0  0  0  0  0  0  0  0  0  0  0  0
   34.9310   20.7700   31.5020 H   0  0  0  0  0  0  0  0  0  0  0  0
   36.9330   20.8850   30.7640 C   0  0  0  0  0  3  0  0  0  0  0  0
   37.9450   21.7470   30.3990 C   0  0  0  0  0  3  0  0  0  0  0  0
   38.9690   25.0390   29.1020 H   0  0  0  0  0  0  0  0  0  0  0  0
   39.2320   24.0160   29.9570 S   0  0  0  0  0  0  0  0  0  0  0  0
   40.1080   24.4280   31.1250 O   0  0  0  0  0  0  0  0  0  0  0  0
   40.1200   23.0600   29.1650 O   0  0  0  0  0  0  0  0  0  0  0  0
  1  7  1  0  0  0  0
  1  2  1  0  0  0  0
  2  8  1  0  0  0  0
  3  2  2  0  0  0  0
  3  9  1  0  0  0  0
  4  3  1  0  0  0  0
  5  6  1  0  0  0  0
  5  4  2  0  0  0  0
  6  1  2  0  0  0  0
  9 14  1  0  0  0  0
 10  9  2  0  0  0  0
 10 11  1  0  0  0  0
 11 12  2  0  0  0  0
 12 13  1  0  0  0  0
 13 17  1  0  0  0  0
 14 13  2  0  0  0  0
 15 10  1  0  0  0  0
 16 11  1  0  0  0  0
 17 18  1  0  0  0  0
 17 20  1  0  0  0  0
 17 19  1  0  0  0  0
 21  5  1  0  0  0  0
 22 23  1  0  0  0  0
 23 21  1  0  0  0  0
 23 24  2  0  0  0  0
 24 25  1  0  0  0  0
 26 24  1  0  0  0  0
 26 27  1  0  0  0  0
 28 26  2  0  0  0  0
 29 22  2  0  0  0  0
 29 28  1  0  0  0  0
 30 31  1  0  0  0  0
 31 22  1  0  0  0  0
 31 32  2  0  0  0  0
 33 31  2  0  0  0  0
M  END
>  <minimizedAffinity>
-5.80078936

$$$$

 OpenBabel03272502263D

 33 35  0  0  0  0  0  0  0  0999 V2000
   37.0070   27.3880   34.0950 C   0  0  0  0  0  0  0  0  0  0  0  0
   37.4620   26.6660   35.2240 C   0  0  0  0  0  0  0  0  0  0  0  0
   37.9170   25.3640   35.0200 C   0  0  0  0  0  0  0  0  0  0  0  0
   37.8880   24.8960   33.7670 N   0  0  0  0  0  0  0  0  0  0  0  0
   37.4510   25.6000   32.7060 C   0  0  0  0  0  0  0  0  0  0  0  0
   37.0110   26.8520   32.8820 N   0  0  0  0  0  0  0  0  0  0  0  0
   36.6640   28.3990   34.3100 H   0  0  0  0  0  0  0  0  0  0  0  0
   37.4680   27.0840   36.2280 H   0  0  0  0  0  0  0  0  0  0  0  0
   38.4100   24.5390   36.1040 C   0  0  0  0  0  0  0  0  0  0  0  0
   37.7040   24.4710   37.3040 C   0  0  0  0  0  0  0  0  0  0  0  0
   38.1280   23.6960   38.3670 C   0  0  0  0  0  0  0  0  0  0  0  0
   39.2700   22.9760   38.2460 N   0  0  0  0  0  0  0  0  0  0  0  0
   39.9290   23.0610   37.0820 C   0  0  0  0  0  0  0  0  0  0  0  0
   39.5350   23.8070   36.0370 N   0  0  0  0  0  0  0  0  0  0  0  0
   36.7990   25.0590   37.3590 H   0  0  0  0  0  0  0  0  0  0  0  0
   37.5380   23.6810   39.2760 H   0  0  0  0  0  0  0  0  0  0  0  0
   41.1850   22.2810   36.9200 C   0  0  0  0  0  0  0  0  0  0  0  0
   42.2540   23.1900   36.8870 F   0  0  0  0  0  0  0  0  0  0  0  0
   41.3450   21.3790   37.9410 F   0  0  0  0  0  0  0  0  0  0  0  0
   41.2330   21.6240   35.7130 F   0  0  0  0  0  0  0  0  0  0  0  0
   37.5010   24.9360   31.4960 O   0  0  0  0  0  0  0  0  0  0  0  0
   38.0920   22.7370   31.0430 C   0  0  0  0  0  0  0  0  0  0  0  0
   37.0820   23.6240   31.3440 C   0  0  0  0  0  0  0  0  0  0  0  0
   35.7870   23.2310   31.4770 C   0  0  0  0  0  0  0  0  0  0  0  0
   35.0510   23.9660   31.7100 H   0  0  0  0  0  0  0  0  0  0  0  0
   35.4410   21.9090   31.3120 C   0  0  0  0  0  0  0  0  0  0  0  0
   34.4050   21.5960   31.4190 H   0  0  0  0  0  0  0  0  0  0  0  0
   36.4070   20.9710   31.0100 C   0  0  0  0  0  3  0  0  0  0  0  0
   37.7100   21.4000   30.8810 C   0  0  0  0  0  3  0  0  0  0  0  0
   40.0820   23.9280   29.8630 H   0  0  0  0  0  0  0  0  0  0  0  0
   39.7920   23.0320   30.8430 S   0  0  0  0  0  0  0  0  0  0  0  0
   40.4900   23.3390   32.1550 O   0  0  0  0  0  0  0  0  0  0  0  0
   40.4450   21.7290   30.3890 O   0  0  0  0  0  0  0  0  0  0  0  0
  1  7  1  0  0  0  0
  1  2  1  0  0  0  0
  2  8  1  0  0  0  0
  3  2  2  0  0  0  0
  3  9  1  0  0  0  0
  4  3  1  0  0  0  0
  5  6  1  0  0  0  0
  5  4  2  0  0  0  0
  6  1  2  0  0  0  0
  9 10  1  0  0  0  0
 10 15  1  0  0  0  0
 10 11  2  0  0  0  0
 11 16  1  0  0  0  0
 12 11  1  0  0  0  0
 13 12  2  0  0  0  0
 14  9  2  0  0  0  0
 14 13  1  0  0  0  0
 17 13  1  0  0  0  0
 17 19  1  0  0  0  0
 18 17  1  0  0  0  0
 20 17  1  0  0  0  0
 21  5  1  0  0  0  0
 22 23  1  0  0  0  0
 23 24  2  0  0  0  0
 23 21  1  0  0  0  0
 24 25  1  0  0  0  0
 26 27  1  0  0  0  0
 26 24  1  0  0  0  0
 28 26  2  0  0  0  0
 29 28  1  0  0  0  0
 29 22  2  0  0  0  0
 30 31  1  0  0  0  0
 31 22  1  0  0  0  0
 31 32  2  0  0  0  0
 33 31  2  0  0  0  0
M  END
>  <minimizedAffinity>
-5.7415061

$$$$
