
 OpenBabel03272506553D

 23 24  0  0  0  0  0  0  0  0999 V2000
   33.6080   28.4240   48.0750 C   0  0  0  0  0  0  0  0  0  0  0  0
   33.7550   28.3920   46.7150 C   0  0  0  0  0  0  0  0  0  0  0  0
   33.0970   27.4410   45.9480 C   0  0  0  0  0  0  0  0  0  0  0  0
   33.1930   27.3910   44.8740 H   0  0  0  0  0  0  0  0  0  0  0  0
   32.2670   26.4910   46.5240 C   0  0  0  0  0  0  0  0  0  0  0  0
   31.7250   25.7240   45.9900 H   0  0  0  0  0  0  0  0  0  0  0  0
   32.1380   26.5490   47.8970 C   0  0  0  0  0  3  0  0  0  0  0  0
   32.7750   27.4750   48.6760 C   0  0  0  0  0  3  0  0  0  0  0  0
   36.6000   30.5040   45.7080 C   0  0  0  0  0  0  0  0  0  0  0  0
   36.1260   31.1530   44.5670 C   0  0  0  0  0  0  0  0  0  0  0  0
   34.8190   30.8440   44.1640 C   0  0  0  0  0  0  0  0  0  0  0  0
   34.1140   29.9480   44.9020 N   0  0  0  0  0  0  0  0  0  0  0  0
   34.6060   29.3460   45.9920 C   0  0  0  0  0  0  0  0  0  0  0  0
   35.8610   29.6210   46.4060 N   0  0  0  0  0  0  0  0  0  0  0  0
   37.5960   30.6820   46.0870 H   0  0  0  0  0  0  0  0  0  0  0  0
   34.4380   31.3390   43.2840 H   0  0  0  0  0  0  0  0  0  0  0  0
   36.9520   32.0800   43.8640 N   0  0  0  0  0  0  0  0  0  0  0  0
   37.9670   32.0180   44.0150 H   0  0  0  0  0  0  0  0  0  0  0  0
   36.4890   32.7720   43.2320 H   0  0  0  0  0  0  0  0  0  0  0  0
   34.3210   30.8870   48.5030 H   0  0  0  0  0  0  0  0  0  0  0  0
   34.4370   29.6190   49.0290 S   0  0  0  0  0  0  0  0  0  0  0  0
   33.7600   29.6950   50.3870 O   0  0  0  0  0  0  0  0  0  0  0  0
   35.8700   29.2630   49.2840 O   0  0  0  0  0  0  0  0  0  0  0  0
  1  8  1  0  0  0  0
  1 21  1  0  0  0  0
  2  1  2  0  0  0  0
  3  5  2  0  0  0  0
  3  2  1  0  0  0  0
  4  3  1  0  0  0  0
  5  7  1  0  0  0  0
  6  5  1  0  0  0  0
  7  8  2  0  0  0  0
  9 15  1  0  0  0  0
  9 14  1  0  0  0  0
 10  9  2  0  0  0  0
 11 10  1  0  0  0  0
 11 12  2  0  0  0  0
 12 13  1  0  0  0  0
 13 14  2  0  0  0  0
 13  2  1  0  0  0  0
 16 11  1  0  0  0  0
 17 18  1  0  0  0  0
 17 10  1  0  0  0  0
 19 17  1  0  0  0  0
 20 21  1  0  0  0  0
 21 23  2  0  0  0  0
 21 22  2  0  0  0  0
M  END
>  <minimizedAffinity>
-2.42203426

>  <minimizedRMSD>
4.1359477

$$$$
