
 OpenBabel03272504243D

 42 44  0  0  1  0  0  0  0  0999 V2000
   37.6580   26.0480   34.7100 C   0  0  2  0  0  0  0  0  0  0  0  0
   37.1270   26.0680   33.2950 C   0  0  1  0  0  0  0  0  0  0  0  0
   37.6530   27.4460   32.8750 C   0  0  0  0  0  0  0  0  0  0  0  0
   38.9830   27.3530   33.2610 O   0  0  0  0  0  0  0  0  0  0  0  0
   39.0080   26.7220   34.4800 C   0  0  0  0  0  0  0  0  0  0  0  0
   37.0020   26.6490   35.3460 H   0  0  0  0  0  0  0  0  0  0  0  0
   36.0450   25.9890   33.2150 H   0  0  0  0  0  0  0  0  0  0  0  0
   37.1360   28.2400   33.4250 H   0  0  0  0  0  0  0  0  0  0  0  0
   37.6010   27.5540   31.7740 H   0  0  0  0  0  0  0  0  0  0  0  0
   39.8620   26.0470   34.6550 H   0  0  0  0  0  0  0  0  0  0  0  0
   39.0880   27.5180   35.2540 H   0  0  0  0  0  0  0  0  0  0  0  0
   37.8250   25.0930   32.5930 O   0  0  0  0  0  0  0  0  0  0  0  0
   35.7840   25.3960   31.0080 O   0  0  0  0  0  0  0  0  0  0  0  0
   37.1460   24.7620   31.0940 P   0  0  1  0  0  0  0  0  0  0  0  0
   38.1200   25.4430   29.8550 O   0  0  0  0  0  0  0  0  0  0  0  0
   39.0540   25.2680   30.1610 H   0  0  0  0  0  0  0  0  0  0  0  0
   37.0380   23.0860   30.8580 O   0  0  0  0  0  0  0  0  0  0  0  0
   36.0830   22.6130   31.7390 C   0  0  0  0  0  0  0  0  0  0  0  0
   35.0660   22.9660   31.4090 H   0  0  0  0  0  0  0  0  0  0  0  0
   36.2280   22.9590   32.7880 H   0  0  0  0  0  0  0  0  0  0  0  0
   35.9970   21.1350   31.7760 C   0  0  0  0  0  0  0  0  0  0  0  0
   35.5470   20.5690   32.9440 C   0  0  0  0  0  0  0  0  0  0  0  0
   35.4440   19.1790   33.0390 C   0  0  0  0  0  0  0  0  0  0  0  0
   35.8060   18.4550   31.9410 N   0  0  0  0  0  0  0  0  0  0  0  0
   36.2460   19.0330   30.8040 C   0  0  0  0  0  0  0  0  0  0  0  0
   36.3440   20.3830   30.7150 N   0  0  0  0  0  0  0  0  0  0  0  0
   35.2430   21.0520   33.8510 H   0  0  0  0  0  0  0  0  0  0  0  0
   35.0990   18.6570   33.9210 H   0  0  0  0  0  0  0  0  0  0  0  0
   36.5210   18.4010   29.9600 H   0  0  0  0  0  0  0  0  0  0  0  0
   37.7690   24.7430   35.1190 O   0  0  0  0  0  0  0  0  0  0  0  0
   39.2570   23.2700   36.1640 C   0  0  0  0  0  0  0  0  0  0  0  0
   38.2650   24.2220   36.2750 C   0  0  0  0  0  0  0  0  0  0  0  0
   37.8740   24.5520   37.5580 C   0  0  0  0  0  0  0  0  0  0  0  0
   37.0870   25.3070   37.6380 H   0  0  0  0  0  0  0  0  0  0  0  0
   38.4170   23.9860   38.6870 C   0  0  0  0  0  0  0  0  0  0  0  0
   38.1060   24.2500   39.6760 H   0  0  0  0  0  0  0  0  0  0  0  0
   39.3980   23.0470   38.4960 C   0  0  0  0  0  3  0  0  0  0  0  0
   39.8550   22.6520   37.2440 C   0  0  0  0  0  3  0  0  0  0  0  0
   40.0800   23.8900   33.7970 H   0  0  0  0  0  0  0  0  0  0  0  0
   39.8350   22.7710   34.5840 S   0  0  0  0  0  0  0  0  0  0  0  0
   41.1500   22.0780   34.7400 O   0  0  0  0  0  0  0  0  0  0  0  0
   38.8790   21.8830   33.8830 O   0  0  0  0  0  0  0  0  0  0  0  0
  1 30  1  0  0  0  0
  1  6  1  1  0  0  0
  2  7  1  6  0  0  0
  2  1  1  0  0  0  0
  3  4  1  0  0  0  0
  3  2  1  0  0  0  0
  3  8  1  0  0  0  0
  4  5  1  0  0  0  0
  5 10  1  0  0  0  0
  5  1  1  0  0  0  0
  5 11  1  0  0  0  0
  9  3  1  0  0  0  0
 12  2  1  0  0  0  0
 14 13  2  6  0  0  0
 14 12  1  0  0  0  0
 15 16  1  0  0  0  0
 15 14  1  0  0  0  0
 17 14  1  0  0  0  0
 17 18  1  0  0  0  0
 18 21  1  0  0  0  0
 18 20  1  0  0  0  0
 19 18  1  0  0  0  0
 21 22  1  0  0  0  0
 22 23  2  0  0  0  0
 22 27  1  0  0  0  0
 23 28  1  0  0  0  0
 24 23  1  0  0  0  0
 25 24  2  0  0  0  0
 26 25  1  0  0  0  0
 26 21  2  0  0  0  0
 29 25  1  0  0  0  0
 30 32  1  0  0  0  0
 31 32  2  0  0  0  0
 31 38  1  0  0  0  0
 32 33  1  0  0  0  0
 33 34  1  0  0  0  0
 33 35  2  0  0  0  0
 35 36  1  0  0  0  0
 37 35  1  0  0  0  0
 38 37  2  0  0  0  0
 39 40  1  0  0  0  0
 40 41  2  0  0  0  0
 40 31  1  0  0  0  0
 42 40  2  0  0  0  0
M  END
>  <minimizedAffinity>
-5.33592606

$$$$

 OpenBabel03272504243D

 42 44  0  0  1  0  0  0  0  0999 V2000
   34.9000   29.1220   32.6870 C   0  0  2  0  0  0  0  0  0  0  0  0
   35.9080   28.0470   32.3460 C   0  0  1  0  0  0  0  0  0  0  0  0
   36.3670   28.5910   30.9870 C   0  0  0  0  0  0  0  0  0  0  0  0
   36.6390   29.9140   31.3070 O   0  0  0  0  0  0  0  0  0  0  0  0
   35.6420   30.3420   32.1480 C   0  0  0  0  0  0  0  0  0  0  0  0
   33.9730   28.9280   32.1380 H   0  0  0  0  0  0  0  0  0  0  0  0
   35.4960   27.0430   32.2800 H   0  0  0  0  0  0  0  0  0  0  0  0
   35.5590   28.5200   30.2510 H   0  0  0  0  0  0  0  0  0  0  0  0
   37.3050   28.0920   30.6760 H   0  0  0  0  0  0  0  0  0  0  0  0
   35.9490   31.0440   32.9400 H   0  0  0  0  0  0  0  0  0  0  0  0
   34.9060   30.8940   31.5210 H   0  0  0  0  0  0  0  0  0  0  0  0
   36.9520   28.1790   33.2540 O   0  0  0  0  0  0  0  0  0  0  0  0
   37.0230   25.5920   32.9850 O   0  0  0  0  0  0  0  0  0  0  0  0
   37.8540   26.7720   33.4130 P   0  0  1  0  0  0  0  0  0  0  0  0
   39.2280   26.8460   32.3870 O   0  0  0  0  0  0  0  0  0  0  0  0
   39.5400   27.7910   32.4720 H   0  0  0  0  0  0  0  0  0  0  0  0
   38.3680   26.5860   35.0180 O   0  0  0  0  0  0  0  0  0  0  0  0
   37.5500   25.6330   35.5990 C   0  0  0  0  0  0  0  0  0  0  0  0
   37.0510   25.0300   34.7900 H   0  0  0  0  0  0  0  0  0  0  0  0
   36.7440   26.0620   36.2360 H   0  0  0  0  0  0  0  0  0  0  0  0
   38.2870   24.6520   36.4280 C   0  0  0  0  0  0  0  0  0  0  0  0
   39.3390   24.0020   35.8300 C   0  0  0  0  0  0  0  0  0  0  0  0
   40.0720   23.0660   36.5630 C   0  0  0  0  0  0  0  0  0  0  0  0
   39.6890   22.8510   37.8540 N   0  0  0  0  0  0  0  0  0  0  0  0
   38.6520   23.5020   38.4210 C   0  0  0  0  0  0  0  0  0  0  0  0
   37.9420   24.4120   37.7060 N   0  0  0  0  0  0  0  0  0  0  0  0
   39.7110   24.1030   34.8310 H   0  0  0  0  0  0  0  0  0  0  0  0
   40.9140   22.5110   36.1670 H   0  0  0  0  0  0  0  0  0  0  0  0
   38.3930   23.2880   39.4570 H   0  0  0  0  0  0  0  0  0  0  0  0
   34.7320   29.1490   34.0480 O   0  0  0  0  0  0  0  0  0  0  0  0
   33.5270   30.5950   35.4410 C   0  0  0  0  0  0  0  0  0  0  0  0
   34.7400   30.2010   34.9140 C   0  0  0  0  0  0  0  0  0  0  0  0
   35.8470   30.9180   35.3220 C   0  0  0  0  0  0  0  0  0  0  0  0
   36.8050   30.6000   34.9000 H   0  0  0  0  0  0  0  0  0  0  0  0
   35.7880   31.9720   36.2020 C   0  0  0  0  0  0  0  0  0  0  0  0
   36.6520   32.5210   36.5120 H   0  0  0  0  0  0  0  0  0  0  0  0
   34.5470   32.3060   36.6830 C   0  0  0  0  0  3  0  0  0  0  0  0
   33.3780   31.6410   36.3280 C   0  0  0  0  0  3  0  0  0  0  0  0
   32.3630   28.5890   34.3100 H   0  0  0  0  0  0  0  0  0  0  0  0
   32.0520   29.7570   34.9940 S   0  0  0  0  0  0  0  0  0  0  0  0
   31.3350   29.3340   36.2350 O   0  0  0  0  0  0  0  0  0  0  0  0
   31.1570   30.5880   34.1560 O   0  0  0  0  0  0  0  0  0  0  0  0
  1  6  1  6  0  0  0
  1 30  1  0  0  0  0
  2  7  1  6  0  0  0
  2  1  1  0  0  0  0
  2 12  1  0  0  0  0
  3  4  1  0  0  0  0
  3  2  1  0  0  0  0
  4  5  1  0  0  0  0
  5  1  1  0  0  0  0
  5 10  1  0  0  0  0
  8  3  1  0  0  0  0
  9  3  1  0  0  0  0
 11  5  1  0  0  0  0
 12 14  1  0  0  0  0
 14 13  2  6  0  0  0
 14 17  1  0  0  0  0
 15 16  1  0  0  0  0
 15 14  1  0  0  0  0
 17 18  1  0  0  0  0
 18 20  1  0  0  0  0
 18 21  1  0  0  0  0
 19 18  1  0  0  0  0
 21 26  1  0  0  0  0
 22 21  2  0  0  0  0
 22 23  1  0  0  0  0
 23 24  2  0  0  0  0
 24 25  1  0  0  0  0
 25 29  1  0  0  0  0
 26 25  2  0  0  0  0
 27 22  1  0  0  0  0
 28 23  1  0  0  0  0
 30 32  1  0  0  0  0
 31 38  1  0  0  0  0
 32 33  1  0  0  0  0
 32 31  2  0  0  0  0
 33 35  2  0  0  0  0
 34 33  1  0  0  0  0
 35 36  1  0  0  0  0
 35 37  1  0  0  0  0
 38 37  2  0  0  0  0
 39 40  1  0  0  0  0
 40 31  1  0  0  0  0
 40 41  2  0  0  0  0
 42 40  2  0  0  0  0
M  END
>  <minimizedAffinity>
-5.32570601

$$$$

 OpenBabel03272504243D

 42 44  0  0  1  0  0  0  0  0999 V2000
   36.4950   24.3990   31.1020 C   0  0  2  0  0  0  0  0  0  0  0  0
   37.2320   25.6490   31.5280 C   0  0  1  0  0  0  0  0  0  0  0  0
   36.3860   26.6790   30.7700 C   0  0  0  0  0  0  0  0  0  0  0  0
   35.1050   26.3020   31.1450 O   0  0  0  0  0  0  0  0  0  0  0  0
   35.0640   24.9300   31.1280 C   0  0  0  0  0  0  0  0  0  0  0  0
   36.8130   24.1250   30.0910 H   0  0  0  0  0  0  0  0  0  0  0  0
   38.2810   25.6750   31.2450 H   0  0  0  0  0  0  0  0  0  0  0  0
   36.5290   26.5740   29.6880 H   0  0  0  0  0  0  0  0  0  0  0  0
   36.5930   27.6970   31.1540 H   0  0  0  0  0  0  0  0  0  0  0  0
   34.4440   24.4580   31.9080 H   0  0  0  0  0  0  0  0  0  0  0  0
   34.6100   24.6320   30.1570 H   0  0  0  0  0  0  0  0  0  0  0  0
   37.0020   25.8010   32.8900 O   0  0  0  0  0  0  0  0  0  0  0  0
   39.0820   27.3580   32.7510 O   0  0  0  0  0  0  0  0  0  0  0  0
   38.3110   26.4760   33.6960 P   0  0  1  0  0  0  0  0  0  0  0  0
   37.7510   27.4560   34.9900 O   0  0  0  0  0  0  0  0  0  0  0  0
   36.9920   26.9340   35.3750 H   0  0  0  0  0  0  0  0  0  0  0  0
   39.3090   25.2530   34.3170 O   0  0  0  0  0  0  0  0  0  0  0  0
   38.4790   24.2440   34.7700 C   0  0  0  0  0  0  0  0  0  0  0  0
   38.6920   23.3020   34.1910 H   0  0  0  0  0  0  0  0  0  0  0  0
   37.3950   24.4660   34.6510 H   0  0  0  0  0  0  0  0  0  0  0  0
   38.7000   23.8940   36.1920 C   0  0  0  0  0  0  0  0  0  0  0  0
   37.8200   24.4250   37.1040 C   0  0  0  0  0  0  0  0  0  0  0  0
   37.9770   24.1310   38.4600 C   0  0  0  0  0  0  0  0  0  0  0  0
   39.0170   23.3180   38.8020 N   0  0  0  0  0  0  0  0  0  0  0  0
   39.8700   22.8080   37.8880 C   0  0  0  0  0  0  0  0  0  0  0  0
   39.7140   23.0950   36.5710 N   0  0  0  0  0  0  0  0  0  0  0  0
   36.9810   25.0680   36.9320 H   0  0  0  0  0  0  0  0  0  0  0  0
   37.3280   24.5080   39.2400 H   0  0  0  0  0  0  0  0  0  0  0  0
   40.6820   22.1650   38.2230 H   0  0  0  0  0  0  0  0  0  0  0  0
   36.7240   23.4160   32.0310 O   0  0  0  0  0  0  0  0  0  0  0  0
   37.3360   21.1570   31.9950 C   0  0  0  0  0  0  0  0  0  0  0  0
   36.3390   22.1090   32.0430 C   0  0  0  0  0  0  0  0  0  0  0  0
   35.0420   21.6370   32.0970 C   0  0  0  0  0  0  0  0  0  0  0  0
   34.2580   22.3980   32.1340 H   0  0  0  0  0  0  0  0  0  0  0  0
   34.7200   20.3010   32.1060 C   0  0  0  0  0  0  0  0  0  0  0  0
   33.7120   19.9460   32.1490 H   0  0  0  0  0  0  0  0  0  0  0  0
   35.7650   19.4140   32.0560 C   0  0  0  0  0  3  0  0  0  0  0  0
   37.1010   19.7970   32.0000 C   0  0  0  0  0  3  0  0  0  0  0  0
   39.1100   23.0160   31.7610 H   0  0  0  0  0  0  0  0  0  0  0  0
   39.0210   21.6390   31.9230 S   0  0  0  0  0  0  0  0  0  0  0  0
   39.6740   21.3320   33.2320 O   0  0  0  0  0  0  0  0  0  0  0  0
   39.7580   20.9710   30.8260 O   0  0  0  0  0  0  0  0  0  0  0  0
  1  6  1  6  0  0  0
  1  5  1  0  0  0  0
  1  2  1  0  0  0  0
  1 30  1  0  0  0  0
  2  7  1  6  0  0  0
  2 12  1  0  0  0  0
  3  4  1  0  0  0  0
  3  9  1  0  0  0  0
  3  2  1  0  0  0  0
  5  4  1  0  0  0  0
  5 10  1  0  0  0  0
  8  3  1  0  0  0  0
 11  5  1  0  0  0  0
 12 14  1  0  0  0  0
 14 13  2  6  0  0  0
 14 17  1  0  0  0  0
 14 15  1  0  0  0  0
 15 16  1  0  0  0  0
 17 18  1  0  0  0  0
 18 21  1  0  0  0  0
 19 18  1  0  0  0  0
 20 18  1  0  0  0  0
 21 26  2  0  0  0  0
 21 22  1  0  0  0  0
 22 23  2  0  0  0  0
 23 24  1  0  0  0  0
 23 28  1  0  0  0  0
 25 29  1  0  0  0  0
 25 24  2  0  0  0  0
 26 25  1  0  0  0  0
 27 22  1  0  0  0  0
 30 32  1  0  0  0  0
 31 38  2  0  0  0  0
 31 32  1  0  0  0  0
 32 33  2  0  0  0  0
 33 35  1  0  0  0  0
 33 34  1  0  0  0  0
 35 36  1  0  0  0  0
 37 35  2  0  0  0  0
 38 37  1  0  0  0  0
 39 40  1  0  0  0  0
 40 31  1  0  0  0  0
 40 41  2  0  0  0  0
 42 40  2  0  0  0  0
M  END
>  <minimizedAffinity>
-5.24985838

$$$$

 OpenBabel03272504243D

 42 44  0  0  1  0  0  0  0  0999 V2000
   37.9440   22.9890   35.2410 C   0  0  2  0  0  0  0  0  0  0  0  0
   38.1190   24.3550   35.8650 C   0  0  1  0  0  0  0  0  0  0  0  0
   38.4450   23.9100   37.2960 C   0  0  0  0  0  0  0  0  0  0  0  0
   39.4400   22.9700   37.0630 O   0  0  0  0  0  0  0  0  0  0  0  0
   39.0570   22.2370   35.9670 C   0  0  0  0  0  0  0  0  0  0  0  0
   36.9530   22.6040   35.4980 H   0  0  0  0  0  0  0  0  0  0  0  0
   37.2400   24.9930   35.8140 H   0  0  0  0  0  0  0  0  0  0  0  0
   37.5690   23.4500   37.7660 H   0  0  0  0  0  0  0  0  0  0  0  0
   38.8720   24.7550   37.8700 H   0  0  0  0  0  0  0  0  0  0  0  0
   39.8700   21.9180   35.2940 H   0  0  0  0  0  0  0  0  0  0  0  0
   38.5940   21.3010   36.3500 H   0  0  0  0  0  0  0  0  0  0  0  0
   39.2610   24.9080   35.3000 O   0  0  0  0  0  0  0  0  0  0  0  0
   38.6040   27.1500   36.4460 O   0  0  0  0  0  0  0  0  0  0  0  0
   39.1790   26.5800   35.1770 P   0  0  1  0  0  0  0  0  0  0  0  0
   40.7580   27.2240   34.9810 O   0  0  0  0  0  0  0  0  0  0  0  0
   41.2030   26.5820   34.3600 H   0  0  0  0  0  0  0  0  0  0  0  0
   38.2280   27.0220   33.8430 O   0  0  0  0  0  0  0  0  0  0  0  0
   37.0740   27.5990   34.3400 C   0  0  0  0  0  0  0  0  0  0  0  0
   37.3420   28.3030   35.1760 H   0  0  0  0  0  0  0  0  0  0  0  0
   36.3440   26.8640   34.7480 H   0  0  0  0  0  0  0  0  0  0  0  0
   36.3530   28.4230   33.3430 C   0  0  0  0  0  0  0  0  0  0  0  0
   36.8790   28.4630   32.0740 C   0  0  0  0  0  0  0  0  0  0  0  0
   36.2420   29.2230   31.0910 C   0  0  0  0  0  0  0  0  0  0  0  0
   35.1130   29.8930   31.4600 N   0  0  0  0  0  0  0  0  0  0  0  0
   34.6150   29.8400   32.7130 C   0  0  0  0  0  0  0  0  0  0  0  0
   35.2350   29.1000   33.6660 N   0  0  0  0  0  0  0  0  0  0  0  0
   37.7530   27.9740   31.6950 H   0  0  0  0  0  0  0  0  0  0  0  0
   36.5910   29.3060   30.0700 H   0  0  0  0  0  0  0  0  0  0  0  0
   33.7090   30.3980   32.9470 H   0  0  0  0  0  0  0  0  0  0  0  0
   38.1550   23.0940   33.8900 O   0  0  0  0  0  0  0  0  0  0  0  0
   36.5060   22.3470   32.4050 C   0  0  0  0  0  0  0  0  0  0  0  0
   37.2840   23.3820   32.8830 C   0  0  0  0  0  0  0  0  0  0  0  0
   37.0980   24.6140   32.2870 C   0  0  0  0  0  0  0  0  0  0  0  0
   37.7180   25.4290   32.6720 H   0  0  0  0  0  0  0  0  0  0  0  0
   36.1990   24.8400   31.2720 C   0  0  0  0  0  0  0  0  0  0  0  0
   36.0640   25.7990   30.8180 H   0  0  0  0  0  0  0  0  0  0  0  0
   35.4630   23.7630   30.8490 C   0  0  0  0  0  3  0  0  0  0  0  0
   35.5820   22.4870   31.3890 C   0  0  0  0  0  3  0  0  0  0  0  0
   37.8620   20.6240   33.7650 H   0  0  0  0  0  0  0  0  0  0  0  0
   36.6560   20.7370   33.0850 S   0  0  0  0  0  0  0  0  0  0  0  0
   35.5830   20.5370   34.1060 O   0  0  0  0  0  0  0  0  0  0  0  0
   36.5750   19.6750   32.0560 O   0  0  0  0  0  0  0  0  0  0  0  0
  1  6  1  1  0  0  0
  1  2  1  0  0  0  0
  1  5  1  0  0  0  0
  2  7  1  6  0  0  0
  2  3  1  0  0  0  0
  3  8  1  0  0  0  0
  3  9  1  0  0  0  0
  4  3  1  0  0  0  0
  5 11  1  0  0  0  0
  5  4  1  0  0  0  0
 10  5  1  0  0  0  0
 12  2  1  0  0  0  0
 14 12  1  0  0  0  0
 14 13  2  1  0  0  0
 15 14  1  0  0  0  0
 16 15  1  0  0  0  0
 17 18  1  0  0  0  0
 17 14  1  0  0  0  0
 18 20  1  0  0  0  0
 18 19  1  0  0  0  0
 21 26  1  0  0  0  0
 21 18  1  0  0  0  0
 22 21  2  0  0  0  0
 23 24  2  0  0  0  0
 23 22  1  0  0  0  0
 24 25  1  0  0  0  0
 25 29  1  0  0  0  0
 25 26  2  0  0  0  0
 27 22  1  0  0  0  0
 28 23  1  0  0  0  0
 30  1  1  0  0  0  0
 31 32  1  0  0  0  0
 31 40  1  0  0  0  0
 32 30  1  0  0  0  0
 33 34  1  0  0  0  0
 33 32  2  0  0  0  0
 35 33  1  0  0  0  0
 36 35  1  0  0  0  0
 37 35  2  0  0  0  0
 37 38  1  0  0  0  0
 38 31  2  0  0  0  0
 40 39  1  0  0  0  0
 40 41  2  0  0  0  0
 42 40  2  0  0  0  0
M  END
>  <minimizedAffinity>
-5.24556112

$$$$

 OpenBabel03272504243D

 42 44  0  0  1  0  0  0  0  0999 V2000
   37.8370   22.7600   35.5540 C   0  0  2  0  0  0  0  0  0  0  0  0
   37.8830   24.2080   35.9890 C   0  0  1  0  0  0  0  0  0  0  0  0
   38.6320   24.0210   37.3140 C   0  0  0  0  0  0  0  0  0  0  0  0
   39.7070   23.2430   36.9060 O   0  0  0  0  0  0  0  0  0  0  0  0
   39.2210   22.3150   36.0190 C   0  0  0  0  0  0  0  0  0  0  0  0
   37.0370   22.2500   36.0970 H   0  0  0  0  0  0  0  0  0  0  0  0
   36.9090   24.6740   36.1190 H   0  0  0  0  0  0  0  0  0  0  0  0
   38.0080   23.4860   38.0380 H   0  0  0  0  0  0  0  0  0  0  0  0
   39.0090   24.9970   37.6790 H   0  0  0  0  0  0  0  0  0  0  0  0
   39.8910   22.0510   35.1840 H   0  0  0  0  0  0  0  0  0  0  0  0
   39.0630   21.3730   36.5900 H   0  0  0  0  0  0  0  0  0  0  0  0
   38.7180   24.8660   35.0950 O   0  0  0  0  0  0  0  0  0  0  0  0
   36.8000   26.6200   34.9630 O   0  0  0  0  0  0  0  0  0  0  0  0
   38.2960   26.4780   34.8820 P   0  0  1  0  0  0  0  0  0  0  0  0
   38.9830   27.4260   36.1370 O   0  0  0  0  0  0  0  0  0  0  0  0
   39.8940   27.0380   36.2590 H   0  0  0  0  0  0  0  0  0  0  0  0
   38.8670   27.0380   33.3860 O   0  0  0  0  0  0  0  0  0  0  0  0
   37.8100   27.6730   32.7600 C   0  0  0  0  0  0  0  0  0  0  0  0
   37.6820   28.7010   33.1990 H   0  0  0  0  0  0  0  0  0  0  0  0
   36.8370   27.1420   32.8720 H   0  0  0  0  0  0  0  0  0  0  0  0
   38.0270   27.8850   31.3100 C   0  0  0  0  0  0  0  0  0  0  0  0
   37.1890   28.7740   30.6820 C   0  0  0  0  0  0  0  0  0  0  0  0
   37.3450   29.0160   29.3150 C   0  0  0  0  0  0  0  0  0  0  0  0
   38.3410   28.3390   28.6760 N   0  0  0  0  0  0  0  0  0  0  0  0
   39.1530   27.4690   29.3140 C   0  0  0  0  0  0  0  0  0  0  0  0
   38.9990   27.2370   30.6420 N   0  0  0  0  0  0  0  0  0  0  0  0
   36.3850   29.3470   31.0970 H   0  0  0  0  0  0  0  0  0  0  0  0
   36.7280   29.7000   28.7470 H   0  0  0  0  0  0  0  0  0  0  0  0
   39.9310   26.9580   28.7490 H   0  0  0  0  0  0  0  0  0  0  0  0
   37.6850   22.7170   34.1910 O   0  0  0  0  0  0  0  0  0  0  0  0
   36.4190   22.5230   32.2320 C   0  0  0  0  0  0  0  0  0  0  0  0
   36.8430   21.9710   33.4230 C   0  0  0  0  0  0  0  0  0  0  0  0
   36.3640   20.7090   33.7180 C   0  0  0  0  0  0  0  0  0  0  0  0
   36.7040   20.2790   34.6640 H   0  0  0  0  0  0  0  0  0  0  0  0
   35.5130   20.0090   32.8970 C   0  0  0  0  0  0  0  0  0  0  0  0
   35.1490   19.0310   33.1350 H   0  0  0  0  0  0  0  0  0  0  0  0
   35.1360   20.6230   31.7300 C   0  0  0  0  0  3  0  0  0  0  0  0
   35.5660   21.8900   31.3510 C   0  0  0  0  0  3  0  0  0  0  0  0
   37.9530   24.5620   32.6200 H   0  0  0  0  0  0  0  0  0  0  0  0
   36.9610   24.1220   31.7520 S   0  0  0  0  0  0  0  0  0  0  0  0
   37.5970   24.0380   30.4030 O   0  0  0  0  0  0  0  0  0  0  0  0
   35.8600   25.1130   31.7280 O   0  0  0  0  0  0  0  0  0  0  0  0
  1  2  1  0  0  0  0
  1  5  1  0  0  0  0
  1  6  1  1  0  0  0
  2  7  1  1  0  0  0
  2  3  1  0  0  0  0
  3  9  1  0  0  0  0
  3  8  1  0  0  0  0
  4  3  1  0  0  0  0
  5 11  1  0  0  0  0
  5  4  1  0  0  0  0
 10  5  1  0  0  0  0
 12  2  1  0  0  0  0
 14 13  2  1  0  0  0
 14 12  1  0  0  0  0
 14 15  1  0  0  0  0
 15 16  1  0  0  0  0
 17 14  1  0  0  0  0
 18 20  1  0  0  0  0
 18 19  1  0  0  0  0
 18 17  1  0  0  0  0
 21 18  1  0  0  0  0
 22 27  1  0  0  0  0
 22 21  1  0  0  0  0
 23 22  2  0  0  0  0
 24 25  2  0  0  0  0
 24 23  1  0  0  0  0
 25 26  1  0  0  0  0
 26 21  2  0  0  0  0
 28 23  1  0  0  0  0
 29 25  1  0  0  0  0
 30  1  1  0  0  0  0
 31 32  1  0  0  0  0
 32 33  2  0  0  0  0
 32 30  1  0  0  0  0
 33 34  1  0  0  0  0
 35 36  1  0  0  0  0
 35 33  1  0  0  0  0
 37 35  2  0  0  0  0
 38 37  1  0  0  0  0
 38 31  2  0  0  0  0
 40 31  1  0  0  0  0
 40 39  1  0  0  0  0
 41 40  2  0  0  0  0
 42 40  2  0  0  0  0
M  END
>  <minimizedAffinity>
-5.23705053

$$$$

 OpenBabel03272504243D

 42 44  0  0  1  0  0  0  0  0999 V2000
   37.9530   25.5210   34.9720 C   0  0  2  0  0  0  0  0  0  0  0  0
   37.4000   25.7590   33.5840 C   0  0  1  0  0  0  0  0  0  0  0  0
   37.7950   27.2330   33.4330 C   0  0  0  0  0  0  0  0  0  0  0  0
   39.1340   27.1900   33.7970 O   0  0  0  0  0  0  0  0  0  0  0  0
   39.2340   26.3460   34.8750 C   0  0  0  0  0  0  0  0  0  0  0  0
   37.2550   25.9300   35.7080 H   0  0  0  0  0  0  0  0  0  0  0  0
   36.3290   25.5990   33.4890 H   0  0  0  0  0  0  0  0  0  0  0  0
   37.2180   27.8600   34.1220 H   0  0  0  0  0  0  0  0  0  0  0  0
   37.7170   27.5410   32.3720 H   0  0  0  0  0  0  0  0  0  0  0  0
   40.1470   25.7300   34.9210 H   0  0  0  0  0  0  0  0  0  0  0  0
   39.2540   26.9870   35.7850 H   0  0  0  0  0  0  0  0  0  0  0  0
   38.1720   25.0000   32.7130 O   0  0  0  0  0  0  0  0  0  0  0  0
   35.9010   24.7360   31.4700 O   0  0  0  0  0  0  0  0  0  0  0  0
   37.3900   24.6870   31.2600 P   0  0  1  0  0  0  0  0  0  0  0  0
   37.7980   25.8960   30.1110 O   0  0  0  0  0  0  0  0  0  0  0  0
   38.7720   26.0550   30.2660 H   0  0  0  0  0  0  0  0  0  0  0  0
   37.8560   23.1710   30.6600 O   0  0  0  0  0  0  0  0  0  0  0  0
   38.1630   22.3790   31.7520 C   0  0  0  0  0  0  0  0  0  0  0  0
   38.2940   23.0330   32.6590 H   0  0  0  0  0  0  0  0  0  0  0  0
   39.1010   21.7900   31.6310 H   0  0  0  0  0  0  0  0  0  0  0  0
   37.0890   21.4220   32.1050 C   0  0  0  0  0  0  0  0  0  0  0  0
   36.6660   21.4210   33.4120 C   0  0  0  0  0  0  0  0  0  0  0  0
   35.6550   20.5400   33.8050 C   0  0  0  0  0  0  0  0  0  0  0  0
   35.1410   19.7190   32.8450 N   0  0  0  0  0  0  0  0  0  0  0  0
   35.5730   19.7380   31.5660 C   0  0  0  0  0  0  0  0  0  0  0  0
   36.5550   20.5950   31.1880 N   0  0  0  0  0  0  0  0  0  0  0  0
   37.0070   22.0240   34.2290 H   0  0  0  0  0  0  0  0  0  0  0  0
   35.2650   20.4770   34.8120 H   0  0  0  0  0  0  0  0  0  0  0  0
   35.1240   19.0570   30.8450 H   0  0  0  0  0  0  0  0  0  0  0  0
   38.1850   24.1790   35.1270 O   0  0  0  0  0  0  0  0  0  0  0  0
   39.1830   23.2830   37.0460 C   0  0  0  0  0  0  0  0  0  0  0  0
   39.2420   23.5280   35.6890 C   0  0  0  0  0  0  0  0  0  0  0  0
   40.3750   23.0860   35.0360 C   0  0  0  0  0  0  0  0  0  0  0  0
   40.4150   23.2850   33.9610 H   0  0  0  0  0  0  0  0  0  0  0  0
   41.4090   22.4330   35.6640 C   0  0  0  0  0  0  0  0  0  0  0  0
   42.2820   22.0940   35.1470 H   0  0  0  0  0  0  0  0  0  0  0  0
   41.2790   22.2260   37.0130 C   0  0  0  0  0  3  0  0  0  0  0  0
   40.1750   22.6360   37.7540 C   0  0  0  0  0  3  0  0  0  0  0  0
   36.7680   24.1890   37.1260 H   0  0  0  0  0  0  0  0  0  0  0  0
   37.7910   23.7990   37.9810 S   0  0  0  0  0  0  0  0  0  0  0  0
   37.2640   22.6350   38.7570 O   0  0  0  0  0  0  0  0  0  0  0  0
   38.1070   24.9150   38.9030 O   0  0  0  0  0  0  0  0  0  0  0  0
  1 30  1  0  0  0  0
  1  6  1  1  0  0  0
  2  7  1  6  0  0  0
  2  1  1  0  0  0  0
  3  2  1  0  0  0  0
  3  4  1  0  0  0  0
  3  8  1  0  0  0  0
  4  5  1  0  0  0  0
  5 10  1  0  0  0  0
  5  1  1  0  0  0  0
  5 11  1  0  0  0  0
  9  3  1  0  0  0  0
 12  2  1  0  0  0  0
 14 13  2  1  0  0  0
 14 12  1  0  0  0  0
 15 16  1  0  0  0  0
 15 14  1  0  0  0  0
 17 14  1  0  0  0  0
 17 18  1  0  0  0  0
 18 21  1  0  0  0  0
 18 19  1  0  0  0  0
 20 18  1  0  0  0  0
 21 22  1  0  0  0  0
 22 23  2  0  0  0  0
 22 27  1  0  0  0  0
 23 28  1  0  0  0  0
 24 23  1  0  0  0  0
 25 24  2  0  0  0  0
 26 25  1  0  0  0  0
 26 21  2  0  0  0  0
 29 25  1  0  0  0  0
 30 32  1  0  0  0  0
 31 38  1  0  0  0  0
 31 40  1  0  0  0  0
 32 31  2  0  0  0  0
 33 35  2  0  0  0  0
 33 32  1  0  0  0  0
 34 33  1  0  0  0  0
 35 37  1  0  0  0  0
 36 35  1  0  0  0  0
 37 38  2  0  0  0  0
 39 40  1  0  0  0  0
 40 41  2  0  0  0  0
 40 42  2  0  0  0  0
M  END
>  <minimizedAffinity>
-5.22029829

$$$$

 OpenBabel03272504243D

 42 44  0  0  1  0  0  0  0  0999 V2000
   35.5800   28.2320   32.2440 C   0  0  2  0  0  0  0  0  0  0  0  0
   36.7000   27.3160   32.6870 C   0  0  1  0  0  0  0  0  0  0  0  0
   37.3930   27.1330   31.3310 C   0  0  0  0  0  0  0  0  0  0  0  0
   37.5140   28.4510   30.9130 O   0  0  0  0  0  0  0  0  0  0  0  0
   36.3420   29.0890   31.2360 C   0  0  0  0  0  0  0  0  0  0  0  0
   34.7990   27.6330   31.7660 H   0  0  0  0  0  0  0  0  0  0  0  0
   36.3710   26.3750   33.1220 H   0  0  0  0  0  0  0  0  0  0  0  0
   36.7570   26.5580   30.6480 H   0  0  0  0  0  0  0  0  0  0  0  0
   38.4030   26.7030   31.4750 H   0  0  0  0  0  0  0  0  0  0  0  0
   36.4390   30.1410   31.5530 H   0  0  0  0  0  0  0  0  0  0  0  0
   35.7180   29.1050   30.3150 H   0  0  0  0  0  0  0  0  0  0  0  0
   37.5270   28.0690   33.5110 O   0  0  0  0  0  0  0  0  0  0  0  0
   39.9570   27.1840   33.7970 O   0  0  0  0  0  0  0  0  0  0  0  0
   38.5830   27.1220   34.4080 P   0  0  1  0  0  0  0  0  0  0  0  0
   38.6930   27.7340   36.0080 O   0  0  0  0  0  0  0  0  0  0  0  0
   37.7540   27.9910   36.2310 H   0  0  0  0  0  0  0  0  0  0  0  0
   38.0280   25.5200   34.4630 O   0  0  0  0  0  0  0  0  0  0  0  0
   37.5630   25.2950   35.7460 C   0  0  0  0  0  0  0  0  0  0  0  0
   36.5550   24.7970   35.6930 H   0  0  0  0  0  0  0  0  0  0  0  0
   37.4420   26.2240   36.3490 H   0  0  0  0  0  0  0  0  0  0  0  0
   38.4200   24.3750   36.5290 C   0  0  0  0  0  0  0  0  0  0  0  0
   38.0900   24.1960   37.8510 C   0  0  0  0  0  0  0  0  0  0  0  0
   38.8610   23.3400   38.6400 C   0  0  0  0  0  0  0  0  0  0  0  0
   39.9160   22.7210   38.0360 N   0  0  0  0  0  0  0  0  0  0  0  0
   40.2210   22.9130   36.7350 C   0  0  0  0  0  0  0  0  0  0  0  0
   39.4700   23.7450   35.9710 N   0  0  0  0  0  0  0  0  0  0  0  0
   37.2880   24.6350   38.4080 H   0  0  0  0  0  0  0  0  0  0  0  0
   38.6690   23.1450   39.6870 H   0  0  0  0  0  0  0  0  0  0  0  0
   41.0770   22.3910   36.3100 H   0  0  0  0  0  0  0  0  0  0  0  0
   35.1370   28.9400   33.3300 O   0  0  0  0  0  0  0  0  0  0  0  0
   33.9190   30.6000   34.4450 C   0  0  0  0  0  0  0  0  0  0  0  0
   33.9360   29.5430   33.5580 C   0  0  0  0  0  0  0  0  0  0  0  0
   32.7260   29.2010   32.9890 C   0  0  0  0  0  0  0  0  0  0  0  0
   32.7480   28.3620   32.2870 H   0  0  0  0  0  0  0  0  0  0  0  0
   31.5460   29.8510   33.2620 C   0  0  0  0  0  0  0  0  0  0  0  0
   30.6140   29.5780   32.8140 H   0  0  0  0  0  0  0  0  0  0  0  0
   31.6080   30.8910   34.1540 C   0  0  0  0  0  3  0  0  0  0  0  0
   32.7800   31.3060   34.7760 C   0  0  0  0  0  3  0  0  0  0  0  0
   36.3080   30.0750   35.2660 H   0  0  0  0  0  0  0  0  0  0  0  0
   35.3970   31.1230   35.2310 S   0  0  0  0  0  0  0  0  0  0  0  0
   36.0320   32.1990   34.4110 O   0  0  0  0  0  0  0  0  0  0  0  0
   35.1660   31.6140   36.6100 O   0  0  0  0  0  0  0  0  0  0  0  0
  1  6  1  6  0  0  0
  1  2  1  0  0  0  0
  1 30  1  0  0  0  0
  2  7  1  1  0  0  0
  2 12  1  0  0  0  0
  3  9  1  0  0  0  0
  3  2  1  0  0  0  0
  4  5  1  0  0  0  0
  4  3  1  0  0  0  0
  5 10  1  0  0  0  0
  5  1  1  0  0  0  0
  8  3  1  0  0  0  0
 11  5  1  0  0  0  0
 12 14  1  0  0  0  0
 14 13  2  6  0  0  0
 14 17  1  0  0  0  0
 14 15  1  0  0  0  0
 15 16  1  0  0  0  0
 17 18  1  0  0  0  0
 18 20  1  0  0  0  0
 18 21  1  0  0  0  0
 19 18  1  0  0  0  0
 21 22  1  0  0  0  0
 22 27  1  0  0  0  0
 22 23  2  0  0  0  0
 23 28  1  0  0  0  0
 24 23  1  0  0  0  0
 25 24  2  0  0  0  0
 26 21  2  0  0  0  0
 26 25  1  0  0  0  0
 29 25  1  0  0  0  0
 30 32  1  0  0  0  0
 31 38  1  0  0  0  0
 31 40  1  0  0  0  0
 32 31  2  0  0  0  0
 33 35  2  0  0  0  0
 33 32  1  0  0  0  0
 34 33  1  0  0  0  0
 35 37  1  0  0  0  0
 36 35  1  0  0  0  0
 37 38  2  0  0  0  0
 40 39  1  0  0  0  0
 40 42  2  0  0  0  0
 41 40  2  0  0  0  0
M  END
>  <minimizedAffinity>
-5.21142864

$$$$

 OpenBabel03272504243D

 42 44  0  0  1  0  0  0  0  0999 V2000
   38.1240   27.3410   34.4490 C   0  0  2  0  0  0  0  0  0  0  0  0
   38.7040   26.0880   33.8310 C   0  0  1  0  0  0  0  0  0  0  0  0
   39.7880   25.8010   34.8780 C   0  0  0  0  0  0  0  0  0  0  0  0
   39.0540   25.8840   36.0530 O   0  0  0  0  0  0  0  0  0  0  0  0
   38.2010   26.9510   35.9230 C   0  0  0  0  0  0  0  0  0  0  0  0
   38.7750   28.1880   34.2140 H   0  0  0  0  0  0  0  0  0  0  0  0
   39.1100   26.2210   32.8310 H   0  0  0  0  0  0  0  0  0  0  0  0
   40.5690   26.5690   34.8440 H   0  0  0  0  0  0  0  0  0  0  0  0
   40.1680   24.7670   34.7590 H   0  0  0  0  0  0  0  0  0  0  0  0
   37.2080   26.8320   36.3890 H   0  0  0  0  0  0  0  0  0  0  0  0
   38.6780   27.8120   36.4420 H   0  0  0  0  0  0  0  0  0  0  0  0
   37.7250   25.1070   33.9250 O   0  0  0  0  0  0  0  0  0  0  0  0
   36.6290   23.4110   32.2840 O   0  0  0  0  0  0  0  0  0  0  0  0
   37.9580   23.8520   32.8350 P   0  0  1  0  0  0  0  0  0  0  0  0
   38.9170   24.3980   31.5200 O   0  0  0  0  0  0  0  0  0  0  0  0
   39.6070   24.9770   31.9510 H   0  0  0  0  0  0  0  0  0  0  0  0
   38.7450   22.5560   33.5960 O   0  0  0  0  0  0  0  0  0  0  0  0
   37.8940   22.0860   34.5800 C   0  0  0  0  0  0  0  0  0  0  0  0
   37.9100   20.9600   34.5760 H   0  0  0  0  0  0  0  0  0  0  0  0
   36.8350   22.4020   34.4460 H   0  0  0  0  0  0  0  0  0  0  0  0
   38.2990   22.4840   35.9480 C   0  0  0  0  0  0  0  0  0  0  0  0
   39.6240   22.3250   36.2720 C   0  0  0  0  0  0  0  0  0  0  0  0
   40.0660   22.6840   37.5480 C   0  0  0  0  0  0  0  0  0  0  0  0
   39.1330   23.1810   38.4100 N   0  0  0  0  0  0  0  0  0  0  0  0
   37.8350   23.3270   38.0680 C   0  0  0  0  0  0  0  0  0  0  0  0
   37.4100   22.9780   36.8290 N   0  0  0  0  0  0  0  0  0  0  0  0
   40.4230   21.9470   35.6680 H   0  0  0  0  0  0  0  0  0  0  0  0
   41.0910   22.5910   37.8820 H   0  0  0  0  0  0  0  0  0  0  0  0
   37.1360   23.7290   38.8010 H   0  0  0  0  0  0  0  0  0  0  0  0
   36.8390   27.4980   33.9970 O   0  0  0  0  0  0  0  0  0  0  0  0
   35.9940   28.7940   32.2410 C   0  0  0  0  0  0  0  0  0  0  0  0
   36.1780   28.6190   33.5970 C   0  0  0  0  0  0  0  0  0  0  0  0
   35.6690   29.6080   34.4160 C   0  0  0  0  0  0  0  0  0  0  0  0
   35.8190   29.4620   35.4900 H   0  0  0  0  0  0  0  0  0  0  0  0
   35.0100   30.7190   33.9470 C   0  0  0  0  0  0  0  0  0  0  0  0
   34.6190   31.4790   34.5920 H   0  0  0  0  0  0  0  0  0  0  0  0
   34.8660   30.8230   32.5870 C   0  0  0  0  0  3  0  0  0  0  0  0
   35.3450   29.8790   31.6860 C   0  0  0  0  0  3  0  0  0  0  0  0
   37.7860   27.0600   31.5770 H   0  0  0  0  0  0  0  0  0  0  0  0
   36.5980   27.6030   31.1030 S   0  0  0  0  0  0  0  0  0  0  0  0
   35.6270   26.4700   31.0200 O   0  0  0  0  0  0  0  0  0  0  0  0
   36.8270   28.1690   29.7530 O   0  0  0  0  0  0  0  0  0  0  0  0
  1  6  1  6  0  0  0
  1  5  1  0  0  0  0
  2  7  1  6  0  0  0
  2 12  1  0  0  0  0
  2  1  1  0  0  0  0
  2  3  1  0  0  0  0
  3  4  1  0  0  0  0
  5  4  1  0  0  0  0
  5 10  1  0  0  0  0
  5 11  1  0  0  0  0
  8  3  1  0  0  0  0
  9  3  1  0  0  0  0
 14 13  2  6  0  0  0
 14 17  1  0  0  0  0
 14 12  1  0  0  0  0
 15 16  1  0  0  0  0
 15 14  1  0  0  0  0
 17 18  1  0  0  0  0
 18 21  1  0  0  0  0
 19 18  1  0  0  0  0
 20 18  1  0  0  0  0
 21 22  2  0  0  0  0
 21 26  1  0  0  0  0
 22 23  1  0  0  0  0
 23 28  1  0  0  0  0
 23 24  2  0  0  0  0
 25 24  1  0  0  0  0
 25 29  1  0  0  0  0
 26 25  2  0  0  0  0
 27 22  1  0  0  0  0
 30  1  1  0  0  0  0
 31 32  1  0  0  0  0
 32 30  1  0  0  0  0
 32 33  2  0  0  0  0
 33 34  1  0  0  0  0
 35 33  1  0  0  0  0
 35 36  1  0  0  0  0
 37 35  2  0  0  0  0
 38 31  2  0  0  0  0
 38 37  1  0  0  0  0
 40 39  1  0  0  0  0
 40 31  1  0  0  0  0
 41 40  2  0  0  0  0
 42 40  2  0  0  0  0
M  END
>  <minimizedAffinity>
-5.14788342

$$$$

 OpenBabel03272504243D

 42 44  0  0  1  0  0  0  0  0999 V2000
   37.8540   22.6390   35.5900 C   0  0  2  0  0  0  0  0  0  0  0  0
   37.9210   24.1230   35.8740 C   0  0  1  0  0  0  0  0  0  0  0  0
   38.5720   24.0590   37.2610 C   0  0  0  0  0  0  0  0  0  0  0  0
   39.6430   23.2110   37.0150 O   0  0  0  0  0  0  0  0  0  0  0  0
   39.1860   22.2080   36.1970 C   0  0  0  0  0  0  0  0  0  0  0  0
   37.0010   22.2120   36.1250 H   0  0  0  0  0  0  0  0  0  0  0  0
   36.9580   24.6270   35.8840 H   0  0  0  0  0  0  0  0  0  0  0  0
   37.8810   23.6210   37.9910 H   0  0  0  0  0  0  0  0  0  0  0  0
   38.9560   25.0570   37.5480 H   0  0  0  0  0  0  0  0  0  0  0  0
   39.9020   21.8380   35.4440 H   0  0  0  0  0  0  0  0  0  0  0  0
   38.9560   21.3370   36.8500 H   0  0  0  0  0  0  0  0  0  0  0  0
   38.8380   24.6590   34.9780 O   0  0  0  0  0  0  0  0  0  0  0  0
   39.4440   27.0970   35.6540 O   0  0  0  0  0  0  0  0  0  0  0  0
   38.5940   26.2980   34.7040 P   0  0  1  0  0  0  0  0  0  0  0  0
   39.0760   26.6950   33.1050 O   0  0  0  0  0  0  0  0  0  0  0  0
   38.7540   25.9240   32.5590 H   0  0  0  0  0  0  0  0  0  0  0  0
   36.9550   26.6860   34.9030 O   0  0  0  0  0  0  0  0  0  0  0  0
   36.8700   28.0640   34.9770 C   0  0  0  0  0  0  0  0  0  0  0  0
   37.9070   28.5010   34.9520 H   0  0  0  0  0  0  0  0  0  0  0  0
   36.3780   28.4350   35.9040 H   0  0  0  0  0  0  0  0  0  0  0  0
   36.1550   28.6710   33.8310 C   0  0  0  0  0  0  0  0  0  0  0  0
   35.0040   29.3650   34.1160 C   0  0  0  0  0  0  0  0  0  0  0  0
   34.2860   29.9610   33.0760 C   0  0  0  0  0  0  0  0  0  0  0  0
   34.7840   29.8130   31.8150 N   0  0  0  0  0  0  0  0  0  0  0  0
   35.9170   29.1260   31.5590 C   0  0  0  0  0  0  0  0  0  0  0  0
   36.6120   28.5490   32.5710 N   0  0  0  0  0  0  0  0  0  0  0  0
   34.5400   29.5340   35.0660 H   0  0  0  0  0  0  0  0  0  0  0  0
   33.3730   30.5240   33.2160 H   0  0  0  0  0  0  0  0  0  0  0  0
   36.2650   29.0410   30.5300 H   0  0  0  0  0  0  0  0  0  0  0  0
   37.7930   22.4550   34.2320 O   0  0  0  0  0  0  0  0  0  0  0  0
   36.5450   22.4160   32.2520 C   0  0  0  0  0  0  0  0  0  0  0  0
   36.8480   21.8400   33.4690 C   0  0  0  0  0  0  0  0  0  0  0  0
   36.1540   20.6900   33.7910 C   0  0  0  0  0  0  0  0  0  0  0  0
   36.3990   20.2400   34.7570 H   0  0  0  0  0  0  0  0  0  0  0  0
   35.2080   20.1190   32.9730 C   0  0  0  0  0  0  0  0  0  0  0  0
   34.6770   19.2270   33.2330 H   0  0  0  0  0  0  0  0  0  0  0  0
   34.9620   20.7490   31.7800 C   0  0  0  0  0  3  0  0  0  0  0  0
   35.6110   21.9090   31.3720 C   0  0  0  0  0  3  0  0  0  0  0  0
   38.5920   23.9830   32.3760 H   0  0  0  0  0  0  0  0  0  0  0  0
   37.3630   23.8810   31.7360 S   0  0  0  0  0  0  0  0  0  0  0  0
   37.6610   23.7850   30.2750 O   0  0  0  0  0  0  0  0  0  0  0  0
   36.5690   25.1020   32.0080 O   0  0  0  0  0  0  0  0  0  0  0  0
  1  2  1  0  0  0  0
  1  6  1  1  0  0  0
  1  5  1  0  0  0  0
  2  7  1  6  0  0  0
  2  3  1  0  0  0  0
  3  9  1  0  0  0  0
  3  8  1  0  0  0  0
  4  3  1  0  0  0  0
  5 11  1  0  0  0  0
  5  4  1  0  0  0  0
 10  5  1  0  0  0  0
 12  2  1  0  0  0  0
 14 17  1  0  0  0  0
 14 12  1  0  0  0  0
 14 13  2  1  0  0  0
 15 14  1  0  0  0  0
 16 15  1  0  0  0  0
 17 18  1  0  0  0  0
 18 20  1  0  0  0  0
 19 18  1  0  0  0  0
 21 22  1  0  0  0  0
 21 18  1  0  0  0  0
 22 27  1  0  0  0  0
 23 28  1  0  0  0  0
 23 22  2  0  0  0  0
 24 23  1  0  0  0  0
 25 24  2  0  0  0  0
 25 26  1  0  0  0  0
 26 21  2  0  0  0  0
 29 25  1  0  0  0  0
 30  1  1  0  0  0  0
 31 32  1  0  0  0  0
 32 33  2  0  0  0  0
 32 30  1  0  0  0  0
 33 34  1  0  0  0  0
 35 36  1  0  0  0  0
 35 33  1  0  0  0  0
 37 35  2  0  0  0  0
 38 37  1  0  0  0  0
 38 31  2  0  0  0  0
 40 42  2  0  0  0  0
 40 31  1  0  0  0  0
 40 39  1  0  0  0  0
 41 40  2  0  0  0  0
M  END
>  <minimizedAffinity>
-5.14526844

$$$$
