
 OpenBabel03272504563D

 36 38  0  0  1  0  0  0  0  0999 V2000
   37.0050   31.5260   48.6860 C   0  0  1  0  0  0  0  0  0  0  0  0
   36.1810   30.9490   47.6440 C   0  0  0  0  0  0  0  0  0  0  0  0
   37.1560   30.1070   48.3630 C   0  0  2  0  0  0  0  0  0  0  0  0
   36.6190   31.7100   49.7460 H   0  0  0  0  0  0  0  0  0  0  0  0
   36.4710   31.2140   46.5980 H   0  0  0  0  0  0  0  0  0  0  0  0
   35.1860   31.2790   47.8080 H   0  0  0  0  0  0  0  0  0  0  0  0
   37.8570   29.6500   47.6860 H   0  0  0  0  0  0  0  0  0  0  0  0
   38.1490   32.4290   48.3320 C   0  0  0  0  0  0  0  0  0  0  0  0
   38.5130   33.3740   49.3210 C   0  0  0  0  0  0  0  0  0  0  0  0
   39.5720   34.1840   48.9690 C   0  0  0  0  0  0  0  0  0  0  0  0
   40.1830   34.0400   47.7510 N   0  0  0  0  0  0  0  0  0  0  0  0
   39.7960   33.1230   46.8460 C   0  0  0  0  0  0  0  0  0  0  0  0
   38.7480   32.2980   47.1520 N   0  0  0  0  0  0  0  0  0  0  0  0
   40.4220   32.9550   45.6060 N   0  0  0  0  0  0  0  0  0  0  0  0
   38.0230   33.4750   50.2760 H   0  0  0  0  0  0  0  0  0  0  0  0
   39.9250   34.9450   49.6710 H   0  0  0  0  0  0  0  0  0  0  0  0
   40.9080   33.8160   45.2250 H   0  0  0  0  0  0  0  0  0  0  0  0
   40.3920   32.0320   45.1160 H   0  0  0  0  0  0  0  0  0  0  0  0
   36.6410   29.2030   49.2900 O   0  0  0  0  0  0  0  0  0  0  0  0
   34.6370   27.6800   49.7470 O   0  0  0  0  0  0  0  0  0  0  0  0
   34.9840   28.9610   49.0000 P   0  0  1  0  0  0  0  0  0  0  0  0
   34.1320   30.1650   49.8200 O   0  0  0  0  0  0  0  0  0  0  0  0
   34.4320   31.0630   49.7770 H   0  0  0  0  0  0  0  0  0  0  0  0
   34.7270   28.8920   47.3910 O   0  0  0  0  0  0  0  0  0  0  0  0
   33.6980   28.8330   45.1100 C   0  0  0  0  0  0  0  0  0  0  0  0
   33.8000   28.7560   46.4730 C   0  0  0  0  0  0  0  0  0  0  0  0
   32.5950   28.4470   47.1340 C   0  0  0  0  0  0  0  0  0  0  0  0
   32.3830   28.3250   48.1930 H   0  0  0  0  0  0  0  0  0  0  0  0
   31.3950   28.2370   46.4340 C   0  0  0  0  0  0  0  0  0  0  0  0
   30.4290   27.9980   46.8410 H   0  0  0  0  0  0  0  0  0  0  0  0
   31.4270   28.3430   45.0530 C   0  0  0  0  0  3  0  0  0  0  0  0
   32.5720   28.6420   44.3500 C   0  0  0  0  0  3  0  0  0  0  0  0
   36.2900   28.6960   44.8850 H   0  0  0  0  0  0  0  0  0  0  0  0
   35.1860   29.2130   44.3240 S   0  0  0  0  0  0  0  0  0  0  0  0
   35.1800   28.6960   42.8830 O   0  0  0  0  0  0  0  0  0  0  0  0
   35.2320   30.7240   44.1760 O   0  0  0  0  0  0  0  0  0  0  0  0
  1  4  1  1  0  0  0
  2  6  1  0  0  0  0
  2  3  1  0  0  0  0
  2  1  1  0  0  0  0
  3  7  1  6  0  0  0
  3  1  1  0  0  0  0
  3 19  1  0  0  0  0
  5  2  1  0  0  0  0
  8  1  1  0  0  0  0
  8  9  1  0  0  0  0
  9 15  1  0  0  0  0
 10  9  2  0  0  0  0
 10 16  1  0  0  0  0
 11 10  1  0  0  0  0
 12 13  1  0  0  0  0
 12 11  2  0  0  0  0
 13  8  2  0  0  0  0
 14 12  1  0  0  0  0
 17 14  1  0  0  0  0
 18 14  1  0  0  0  0
 21 19  1  0  0  0  0
 21 20  2  1  0  0  0
 21 22  1  0  0  0  0
 23 22  1  0  0  0  0
 24 21  1  0  0  0  0
 25 26  1  0  0  0  0
 26 27  2  0  0  0  0
 26 24  1  0  0  0  0
 27 28  1  0  0  0  0
 29 30  1  0  0  0  0
 29 27  1  0  0  0  0
 31 29  2  0  0  0  0
 32 31  1  0  0  0  0
 32 25  2  0  0  0  0
 34 33  1  0  0  0  0
 34 25  1  0  0  0  0
 35 34  2  0  0  0  0
 36 34  2  0  0  0  0
M  END
>  <minimizedAffinity>
-4.52320194

>  <minimizedRMSD>
0.364237696

$$$$
