
 OpenBabel03272504563D

 36 38  0  0  1  0  0  0  0  0999 V2000
   37.8610   31.3980   49.5160 C   0  0  1  0  0  0  0  0  0  0  0  0
   36.9400   32.3420   50.1130 C   0  0  0  0  0  0  0  0  0  0  0  0
   36.4230   31.1450   49.4240 C   0  0  2  0  0  0  0  0  0  0  0  0
   38.4200   30.6110   50.1270 H   0  0  0  0  0  0  0  0  0  0  0  0
   36.8030   33.3000   49.5560 H   0  0  0  0  0  0  0  0  0  0  0  0
   37.3050   32.5690   51.0840 H   0  0  0  0  0  0  0  0  0  0  0  0
   35.7510   31.4090   48.6260 H   0  0  0  0  0  0  0  0  0  0  0  0
   38.5740   31.7390   48.2410 C   0  0  0  0  0  0  0  0  0  0  0  0
   39.0740   33.0600   48.1520 C   0  0  0  0  0  0  0  0  0  0  0  0
   39.7290   33.3410   46.9720 C   0  0  0  0  0  0  0  0  0  0  0  0
   39.8560   32.3810   46.0020 N   0  0  0  0  0  0  0  0  0  0  0  0
   39.3620   31.1380   46.1390 C   0  0  0  0  0  0  0  0  0  0  0  0
   38.7020   30.8150   47.2930 N   0  0  0  0  0  0  0  0  0  0  0  0
   39.5000   30.1450   45.1630 N   0  0  0  0  0  0  0  0  0  0  0  0
   38.9660   33.8040   48.9240 H   0  0  0  0  0  0  0  0  0  0  0  0
   40.1500   34.3380   46.8130 H   0  0  0  0  0  0  0  0  0  0  0  0
   39.6160   30.4990   44.1710 H   0  0  0  0  0  0  0  0  0  0  0  0
   39.4830   29.1340   45.4280 H   0  0  0  0  0  0  0  0  0  0  0  0
   35.9210   30.1240   50.2290 O   0  0  0  0  0  0  0  0  0  0  0  0
   34.7260   27.9570   49.5810 O   0  0  0  0  0  0  0  0  0  0  0  0
   34.5230   29.4660   49.5200 P   0  0  1  0  0  0  0  0  0  0  0  0
   33.2270   29.7550   50.5610 O   0  0  0  0  0  0  0  0  0  0  0  0
   33.1260   30.6100   50.9560 H   0  0  0  0  0  0  0  0  0  0  0  0
   34.3580   30.0630   48.0110 O   0  0  0  0  0  0  0  0  0  0  0  0
   33.3810   29.1260   45.9060 C   0  0  0  0  0  0  0  0  0  0  0  0
   34.2790   29.7290   46.7450 C   0  0  0  0  0  0  0  0  0  0  0  0
   35.4820   30.1270   46.1280 C   0  0  0  0  0  0  0  0  0  0  0  0
   36.3580   30.6190   46.5430 H   0  0  0  0  0  0  0  0  0  0  0  0
   35.7240   29.9140   44.7610 C   0  0  0  0  0  0  0  0  0  0  0  0
   36.6000   30.1770   44.1990 H   0  0  0  0  0  0  0  0  0  0  0  0
   34.7310   29.2910   44.0210 C   0  0  0  0  0  0  0  0  0  0  0  0
   33.5340   28.8800   44.5630 C   0  0  0  0  0  0  0  0  0  0  0  0
   31.3370   29.5820   47.4540 H   0  0  0  0  0  0  0  0  0  0  0  0
   31.9170   28.6490   46.6830 S   0  0  0  0  0  0  0  0  0  0  0  0
   30.8600   28.2590   45.6460 O   0  0  0  0  0  0  0  0  0  0  0  0
   32.2120   27.3530   47.4190 O   0  0  0  0  0  0  0  0  0  0  0  0
  1  2  1  0  0  0  0
  1  4  1  1  0  0  0
  2  6  1  0  0  0  0
  3  7  1  6  0  0  0
  3  1  1  0  0  0  0
  3  2  1  0  0  0  0
  3 19  1  0  0  0  0
  5  2  1  0  0  0  0
  8  1  1  0  0  0  0
  9  8  1  0  0  0  0
  9 15  1  0  0  0  0
 10  9  2  0  0  0  0
 11 12  2  0  0  0  0
 11 10  1  0  0  0  0
 12 13  1  0  0  0  0
 13  8  2  0  0  0  0
 14 18  1  0  0  0  0
 14 12  1  0  0  0  0
 16 10  1  0  0  0  0
 17 14  1  0  0  0  0
 21 20  2  6  0  0  0
 21 19  1  0  0  0  0
 21 22  1  0  0  0  0
 22 23  1  0  0  0  0
 24 21  1  0  0  0  0
 25 34  1  0  0  0  0
 25 26  1  0  0  0  0
 26 24  1  0  0  0  0
 27 28  1  0  0  0  0
 27 26  2  0  0  0  0
 29 27  1  0  0  0  0
 30 29  1  0  0  0  0
 31 32  1  0  0  0  0
 31 29  2  0  0  0  0
 32 25  2  0  0  0  0
 34 36  2  0  0  0  0
 34 33  1  0  0  0  0
 35 34  2  0  0  0  0
M  END
>  <minimizedAffinity>
-5.35501766

>  <minimizedRMSD>
1.92448783

$$$$
