
 OpenBabel03272507163D

 29 31  0  0  1  0  0  0  0  0999 V2000
   35.9990   31.1460   49.9580 C   0  0  1  0  0  0  0  0  0  0  0  0
   34.8670   30.2850   49.5720 C   0  0  2  0  0  0  0  0  0  0  0  0
   35.9590   29.6990   50.4550 C   0  0  0  0  0  0  0  0  0  0  0  0
   35.9410   31.9240   50.7490 H   0  0  0  0  0  0  0  0  0  0  0  0
   33.9080   30.5750   50.0730 H   0  0  0  0  0  0  0  0  0  0  0  0
   35.6650   29.5780   51.5050 H   0  0  0  0  0  0  0  0  0  0  0  0
   36.6400   28.9710   50.0030 H   0  0  0  0  0  0  0  0  0  0  0  0
   37.1170   31.3970   48.9880 C   0  0  0  0  0  0  0  0  0  0  0  0
   37.8290   32.5790   49.1910 C   0  0  0  0  0  0  0  0  0  0  0  0
   38.8580   32.8360   48.2680 C   0  0  0  0  0  0  0  0  0  0  0  0
   39.0940   31.9340   47.2510 N   0  0  0  0  0  0  0  0  0  0  0  0
   38.3720   30.8020   47.1020 C   0  0  0  0  0  0  0  0  0  0  0  0
   37.3670   30.5290   47.9860 N   0  0  0  0  0  0  0  0  0  0  0  0
   37.6020   33.2520   50.0060 H   0  0  0  0  0  0  0  0  0  0  0  0
   39.4520   33.7340   48.3630 H   0  0  0  0  0  0  0  0  0  0  0  0
   38.6230   30.1500   46.2760 H   0  0  0  0  0  0  0  0  0  0  0  0
   34.7910   29.7920   48.3150 O   0  0  0  0  0  0  0  0  0  0  0  0
   33.5200   28.8140   46.3890 C   0  0  0  0  0  0  0  0  0  0  0  0
   34.1780   28.8800   47.5840 C   0  0  0  0  0  0  0  0  0  0  0  0
   34.2560   27.6600   48.2810 C   0  0  0  0  0  0  0  0  0  0  0  0
   34.7210   27.4300   49.2520 H   0  0  0  0  0  0  0  0  0  0  0  0
   33.7110   26.4770   47.8030 C   0  0  0  0  0  0  0  0  0  0  0  0
   33.7110   25.5000   48.2420 H   0  0  0  0  0  0  0  0  0  0  0  0
   33.0640   26.5190   46.5770 C   0  0  0  0  0  0  0  0  0  0  0  0
   32.9600   27.6870   45.8550 C   0  0  0  0  0  0  0  0  0  0  0  0
   34.6200   30.9640   45.4880 H   0  0  0  0  0  0  0  0  0  0  0  0
   33.4350   30.3190   45.5420 S   0  0  0  0  0  0  0  0  0  0  0  0
   32.3200   31.2050   46.0450 O   0  0  0  0  0  0  0  0  0  0  0  0
   33.0630   30.0360   44.0900 O   0  0  0  0  0  0  0  0  0  0  0  0
  1  3  1  0  0  0  0
  1  4  1  1  0  0  0
  2  1  1  0  0  0  0
  2  5  1  1  0  0  0
  2  3  1  0  0  0  0
  3  6  1  0  0  0  0
  7  3  1  0  0  0  0
  8  9  1  0  0  0  0
  8  1  1  0  0  0  0
  9 14  1  0  0  0  0
 10 15  1  0  0  0  0
 10  9  2  0  0  0  0
 11 10  1  0  0  0  0
 12 11  2  0  0  0  0
 12 13  1  0  0  0  0
 13  8  2  0  0  0  0
 16 12  1  0  0  0  0
 17  2  1  0  0  0  0
 18 19  1  0  0  0  0
 19 20  2  0  0  0  0
 19 17  1  0  0  0  0
 20 21  1  0  0  0  0
 22 23  1  0  0  0  0
 22 20  1  0  0  0  0
 24 22  2  0  0  0  0
 25 18  2  0  0  0  0
 25 24  1  0  0  0  0
 26 27  1  0  0  0  0
 27 28  2  0  0  0  0
 27 18  1  0  0  0  0
 29 27  2  0  0  0  0
M  END
>  <minimizedAffinity>
-4.98248863

>  <minimizedRMSD>
2.00070238

$$$$
