
 OpenBabel03272504083D

 36 38  0  0  0  0  0  0  0  0999 V2000
   37.1630   30.6410   50.0750 C   0  0  0  0  0  0  0  0  0  0  0  0
   36.8740   30.5940   48.7240 C   0  0  0  0  0  0  0  0  0  0  0  0
   35.6540   30.0160   48.2800 C   0  0  0  0  0  0  0  0  0  0  0  0
   34.8300   29.5370   49.2290 N   0  0  0  0  0  0  0  0  0  0  0  0
   35.1390   29.5970   50.5610 C   0  0  0  0  0  0  0  0  0  0  0  0
   36.2960   30.1450   50.9640 N   0  0  0  0  0  0  0  0  0  0  0  0
   34.1920   29.0640   51.4890 N   0  0  0  0  0  0  0  0  0  0  0  0
   38.1170   31.0970   50.3910 H   0  0  0  0  0  0  0  0  0  0  0  0
   33.9860   28.0750   51.6760 H   0  0  0  0  0  0  0  0  0  0  0  0
   33.7590   29.9220   51.9330 H   0  0  0  0  0  0  0  0  0  0  0  0
   38.0040   33.3910   49.1370 Cl  0  0  0  0  0  0  0  0  0  0  0  0
   38.4730   32.3890   47.7950 C   0  0  0  0  0  0  0  0  0  0  0  0
   37.8650   31.1630   47.7850 C   0  0  0  0  0  0  0  0  0  0  0  0
   38.1930   30.2850   46.7440 C   0  0  0  0  0  0  0  0  0  0  0  0
   39.0700   30.6030   45.7680 C   0  0  0  0  0  0  0  0  0  0  0  0
   39.6750   31.8540   45.7980 C   0  0  0  0  0  0  0  0  0  0  0  0
   40.8160   32.3210   44.5660 Cl  0  0  0  0  0  0  0  0  0  0  0  0
   39.3720   32.7150   46.7950 C   0  0  0  0  0  0  0  0  0  0  0  0
   37.7920   29.2850   46.6350 H   0  0  0  0  0  0  0  0  0  0  0  0
   39.3600   29.9590   44.9380 H   0  0  0  0  0  0  0  0  0  0  0  0
   39.8150   33.7220   46.8760 H   0  0  0  0  0  0  0  0  0  0  0  0
   35.3670   29.9970   46.8490 C   0  0  0  0  0  0  0  0  0  0  0  0
   35.7500   30.9340   46.4000 H   0  0  0  0  0  0  0  0  0  0  0  0
   35.9780   29.1840   46.3740 H   0  0  0  0  0  0  0  0  0  0  0  0
   33.2270   28.6510   46.4660 C   0  0  0  0  0  0  0  0  0  0  0  0
   33.9320   29.8350   46.5060 C   0  0  0  0  0  0  0  0  0  0  0  0
   33.1960   30.9800   46.2180 C   0  0  0  0  0  0  0  0  0  0  0  0
   33.7210   31.9470   46.2420 H   0  0  0  0  0  0  0  0  0  0  0  0
   31.8560   31.0220   45.9070 C   0  0  0  0  0  0  0  0  0  0  0  0
   31.3880   31.9980   45.6990 H   0  0  0  0  0  0  0  0  0  0  0  0
   31.1650   29.8200   45.8730 C   0  0  0  0  0  3  0  0  0  0  0  0
   31.8870   28.6730   46.1570 C   0  0  0  0  0  3  0  0  0  0  0  0
   35.3230   27.4510   47.2500 H   0  0  0  0  0  0  0  0  0  0  0  0
   34.0780   27.1730   46.7860 S   0  0  0  0  0  0  0  0  0  0  0  0
   33.3560   26.4150   47.8980 O   0  0  0  0  0  0  0  0  0  0  0  0
   34.0710   26.2300   45.6160 O   0  0  0  0  0  0  0  0  0  0  0  0
  1  8  1  0  0  0  0
  1  6  1  0  0  0  0
  2  1  2  0  0  0  0
  3  2  1  0  0  0  0
  3  4  2  0  0  0  0
  4  5  1  0  0  0  0
  5  6  2  0  0  0  0
  5  7  1  0  0  0  0
  7  9  1  0  0  0  0
  7 10  1  0  0  0  0
 12 11  1  0  0  0  0
 13 12  1  0  0  0  0
 13  2  1  0  0  0  0
 14 13  2  0  0  0  0
 15 16  2  0  0  0  0
 15 14  1  0  0  0  0
 16 18  1  0  0  0  0
 17 16  1  0  0  0  0
 18 21  1  0  0  0  0
 18 12  2  0  0  0  0
 19 14  1  0  0  0  0
 20 15  1  0  0  0  0
 22  3  1  0  0  0  0
 23 22  1  0  0  0  0
 24 22  1  0  0  0  0
 25 26  1  0  0  0  0
 25 34  1  0  0  0  0
 26 22  1  0  0  0  0
 27 28  1  0  0  0  0
 27 26  2  0  0  0  0
 29 27  1  0  0  0  0
 30 29  1  0  0  0  0
 31 29  2  0  0  0  0
 31 32  1  0  0  0  0
 32 25  2  0  0  0  0
 34 33  1  0  0  0  0
 34 35  2  0  0  0  0
 36 34  2  0  0  0  0
M  END
>  <minimizedAffinity>
-5.28512287

>  <minimizedRMSD>
0.852517903

$$$$
