
 OpenBabel03272509463D

 28 29  0  0  0  0  0  0  0  0999 V2000
   33.5080   27.1580   48.0350 C   0  0  0  0  0  0  0  0  0  0  0  0
   34.0270   26.2100   48.3230 H   0  0  0  0  0  0  0  0  0  0  0  0
   32.6050   27.1930   48.6730 H   0  0  0  0  0  0  0  0  0  0  0  0
   31.7530   27.4420   46.4530 C   0  0  0  0  0  0  0  0  0  0  0  0
   33.0980   27.0860   46.6130 C   0  0  0  0  0  0  0  0  0  0  0  0
   33.8390   26.7350   45.5120 C   0  0  0  0  0  0  0  0  0  0  0  0
   34.8620   26.4780   45.7470 H   0  0  0  0  0  0  0  0  0  0  0  0
   33.2770   26.7280   44.2560 C   0  0  0  0  0  0  0  0  0  0  0  0
   33.9220   26.4380   43.4180 H   0  0  0  0  0  0  0  0  0  0  0  0
   31.9580   27.0710   44.0490 C   0  0  0  0  0  3  0  0  0  0  0  0
   31.2000   27.4300   45.1690 C   0  0  0  0  0  3  0  0  0  0  0  0
   31.1860   28.2950   48.8340 H   0  0  0  0  0  0  0  0  0  0  0  0
   30.6000   27.9190   47.6580 S   0  0  0  0  0  0  0  0  0  0  0  0
   29.6640   29.0070   47.1810 O   0  0  0  0  0  0  0  0  0  0  0  0
   29.7780   26.6880   48.0000 O   0  0  0  0  0  0  0  0  0  0  0  0
   34.4080   28.3260   48.3130 C   0  0  0  0  0  0  0  0  0  0  0  0
   35.2790   28.2160   47.6020 H   0  0  0  0  0  0  0  0  0  0  0  0
   33.9270   29.2690   48.0240 H   0  0  0  0  0  0  0  0  0  0  0  0
   34.8800   28.2900   49.6430 O   0  0  0  0  0  0  0  0  0  0  0  0
   37.3430   30.2380   51.4290 C   0  0  0  0  0  0  0  0  0  0  0  0
   38.0910   30.7350   50.3410 C   0  0  0  0  0  0  0  0  0  0  0  0
   37.7040   30.3710   49.0540 C   0  0  0  0  0  0  0  0  0  0  0  0
   36.6160   29.5500   48.9300 N   0  0  0  0  0  0  0  0  0  0  0  0
   35.9330   29.1000   49.9990 C   0  0  0  0  0  0  0  0  0  0  0  0
   36.3030   29.4490   51.2510 N   0  0  0  0  0  0  0  0  0  0  0  0
   37.6140   30.4980   52.4330 H   0  0  0  0  0  0  0  0  0  0  0  0
   38.9480   31.3840   50.4930 H   0  0  0  0  0  0  0  0  0  0  0  0
   38.2330   30.7150   48.1740 H   0  0  0  0  0  0  0  0  0  0  0  0
  1 16  1  0  0  0  0
  1  2  1  0  0  0  0
  1  3  1  0  0  0  0
  4  5  1  0  0  0  0
  4 13  1  0  0  0  0
  5  1  1  0  0  0  0
  6  7  1  0  0  0  0
  6  5  2  0  0  0  0
  8  6  1  0  0  0  0
  9  8  1  0  0  0  0
 10  8  2  0  0  0  0
 10 11  1  0  0  0  0
 11  4  2  0  0  0  0
 13 15  2  0  0  0  0
 13 12  1  0  0  0  0
 14 13  2  0  0  0  0
 16 19  1  0  0  0  0
 17 16  1  0  0  0  0
 18 16  1  0  0  0  0
 19 24  1  0  0  0  0
 20 26  1  0  0  0  0
 21 27  1  0  0  0  0
 21 20  2  0  0  0  0
 22 21  1  0  0  0  0
 23 22  2  0  0  0  0
 23 24  1  0  0  0  0
 24 25  2  0  0  0  0
 25 20  1  0  0  0  0
 28 22  1  0  0  0  0
M  END
>  <minimizedAffinity>
-4.0732336

>  <minimizedRMSD>
0.638328373

$$$$
