
 OpenBabel03272507153D

 43 47  0  0  0  0  0  0  0  0999 V2000
   37.3610   26.1750   32.8780 C   0  0  0  0  0  0  0  0  0  0  0  0
   36.8620   25.2730   32.1550 O   0  0  0  0  0  0  0  0  0  0  0  0
   38.6250   26.0400   33.5580 C   0  0  0  0  0  0  0  0  0  0  0  0
   39.5360   27.0920   33.4230 C   0  0  0  0  0  0  0  0  0  0  0  0
   40.7680   27.0110   34.0600 C   0  0  0  0  0  0  0  0  0  0  0  0
   41.0020   25.8810   34.7920 N   0  0  0  0  0  0  0  0  0  0  0  0
   40.1200   24.8850   34.9110 C   0  0  0  0  0  0  0  0  0  0  0  0
   38.9410   24.9670   34.2980 N   0  0  0  0  0  0  0  0  0  0  0  0
   39.3410   27.9710   32.8470 H   0  0  0  0  0  0  0  0  0  0  0  0
   41.5140   27.7740   34.0040 H   0  0  0  0  0  0  0  0  0  0  0  0
   39.8390   23.2290   36.7800 C   0  0  0  0  0  0  0  0  0  0  0  0
   40.5550   23.7670   35.7360 C   0  0  0  0  0  0  0  0  0  0  0  0
   41.7690   23.1640   35.4960 C   0  0  0  0  0  0  0  0  0  0  0  0
   42.4410   23.4950   34.6930 H   0  0  0  0  0  0  0  0  0  0  0  0
   42.2510   22.0950   36.2410 C   0  0  0  0  0  0  0  0  0  0  0  0
   43.2010   21.6480   36.0290 H   0  0  0  0  0  0  0  0  0  0  0  0
   41.5070   21.5820   37.2790 C   0  0  0  0  0  3  0  0  0  0  0  0
   40.2890   22.1750   37.5300 C   0  0  0  0  0  3  0  0  0  0  0  0
   38.0590   25.0000   36.3980 H   0  0  0  0  0  0  0  0  0  0  0  0
   38.2930   23.9090   37.1710 S   0  0  0  0  0  0  0  0  0  0  0  0
   38.2320   24.3400   38.6180 O   0  0  0  0  0  0  0  0  0  0  0  0
   37.1970   22.9180   36.9480 O   0  0  0  0  0  0  0  0  0  0  0  0
   36.6410   27.4270   33.0470 C   0  0  0  0  0  0  0  0  0  0  0  0
   36.1730   28.1410   31.9990 C   0  0  0  0  0  0  0  0  0  0  0  0
   35.5380   29.2770   32.5200 C   0  0  0  0  0  0  0  0  0  0  0  0
   35.6720   29.1660   33.9060 C   0  0  0  0  0  0  0  0  0  0  0  0
   36.3230   28.0670   34.1240 O   0  0  0  0  0  0  0  0  0  0  0  0
   36.2550   27.9080   30.9320 H   0  0  0  0  0  0  0  0  0  0  0  0
   35.0720   30.0200   31.8930 H   0  0  0  0  0  0  0  0  0  0  0  0
   35.9380   30.9960   35.5710 C   0  0  0  0  0  0  0  0  0  0  0  0
   35.1330   30.1690   34.8320 C   0  0  0  0  0  0  0  0  0  0  0  0
   33.7640   30.2330   34.9070 C   0  0  0  0  0  0  0  0  0  0  0  0
   33.2050   31.1630   35.7570 C   0  0  0  0  0  0  0  0  0  0  0  0
   31.9150   31.4570   36.0330 N   0  0  0  0  0  0  0  0  0  0  0  0
   31.9090   32.4450   36.9230 N   0  0  0  0  0  0  0  0  0  0  0  0
   33.1660   32.7820   37.2160 C   0  0  0  0  0  0  0  0  0  0  0  0
   34.0320   31.9830   36.4870 C   0  0  0  0  0  0  0  0  0  0  0  0
   35.4130   31.9300   36.4240 C   0  0  0  0  0  0  0  0  0  0  0  0
   37.0190   30.9110   35.4820 H   0  0  0  0  0  0  0  0  0  0  0  0
   33.0500   29.6050   34.3480 H   0  0  0  0  0  0  0  0  0  0  0  0
   31.0530   30.9920   35.6220 H   0  0  0  0  0  0  0  0  0  0  0  0
   33.4410   33.5740   37.9280 H   0  0  0  0  0  0  0  0  0  0  0  0
   36.0270   32.5980   37.0210 H   0  0  0  0  0  0  0  0  0  0  0  0
  1 23  1  0  0  0  0
  1  3  1  0  0  0  0
  2  1  2  0  0  0  0
  3  8  1  0  0  0  0
  4  3  2  0  0  0  0
  4  5  1  0  0  0  0
  5  6  2  0  0  0  0
  6  7  1  0  0  0  0
  7 12  1  0  0  0  0
  8  7  2  0  0  0  0
  9  4  1  0  0  0  0
 10  5  1  0  0  0  0
 11 20  1  0  0  0  0
 11 18  1  0  0  0  0
 12 11  2  0  0  0  0
 13 12  1  0  0  0  0
 13 15  2  0  0  0  0
 14 13  1  0  0  0  0
 15 17  1  0  0  0  0
 16 15  1  0  0  0  0
 17 18  2  0  0  0  0
 19 20  1  0  0  0  0
 20 21  2  0  0  0  0
 22 20  2  0  0  0  0
 23 27  1  0  0  0  0
 24 25  1  0  0  0  0
 24 23  2  0  0  0  0
 25 26  2  0  0  0  0
 26 27  1  0  0  0  0
 26 31  1  0  0  0  0
 28 24  1  0  0  0  0
 29 25  1  0  0  0  0
 30 38  1  0  0  0  0
 31 32  1  0  0  0  0
 31 30  2  0  0  0  0
 32 33  2  0  0  0  0
 33 34  1  0  0  0  0
 33 37  1  0  0  0  0
 34 35  1  0  0  0  0
 35 36  2  0  0  0  0
 36 42  1  0  0  0  0
 37 36  1  0  0  0  0
 38 37  2  0  0  0  0
 38 43  1  0  0  0  0
 39 30  1  0  0  0  0
 40 32  1  0  0  0  0
 41 34  1  0  0  0  0
M  END
>  <minimizedAffinity>
-7.30780268

$$$$

 OpenBabel03272507153D

 43 47  0  0  0  0  0  0  0  0999 V2000
   36.9880   26.5490   32.9100 C   0  0  0  0  0  0  0  0  0  0  0  0
   36.3910   25.6230   32.3020 O   0  0  0  0  0  0  0  0  0  0  0  0
   36.5590   27.9250   32.8810 C   0  0  0  0  0  0  0  0  0  0  0  0
   36.7870   28.6380   31.7000 C   0  0  0  0  0  0  0  0  0  0  0  0
   36.3920   29.9670   31.6200 C   0  0  0  0  0  0  0  0  0  0  0  0
   35.7920   30.4910   32.7310 N   0  0  0  0  0  0  0  0  0  0  0  0
   35.5820   29.7960   33.8510 C   0  0  0  0  0  0  0  0  0  0  0  0
   35.9640   28.5230   33.9230 N   0  0  0  0  0  0  0  0  0  0  0  0
   37.2570   28.2160   30.8370 H   0  0  0  0  0  0  0  0  0  0  0  0
   36.5320   30.5750   30.7530 H   0  0  0  0  0  0  0  0  0  0  0  0
   33.5790   30.5010   35.1960 C   0  0  0  0  0  0  0  0  0  0  0  0
   34.9270   30.5310   34.9240 C   0  0  0  0  0  0  0  0  0  0  0  0
   35.6670   31.3360   35.7610 C   0  0  0  0  0  0  0  0  0  0  0  0
   36.7540   31.4520   35.6550 H   0  0  0  0  0  0  0  0  0  0  0  0
   35.1130   32.0680   36.8030 C   0  0  0  0  0  0  0  0  0  0  0  0
   35.7170   32.6850   37.4370 H   0  0  0  0  0  0  0  0  0  0  0  0
   33.7600   32.0130   37.0460 C   0  0  0  0  0  3  0  0  0  0  0  0
   33.0060   31.2110   36.2160 C   0  0  0  0  0  3  0  0  0  0  0  0
   33.1620   28.3390   33.9300 H   0  0  0  0  0  0  0  0  0  0  0  0
   32.5500   29.5180   34.2050 S   0  0  0  0  0  0  0  0  0  0  0  0
   32.2360   30.1990   32.8930 O   0  0  0  0  0  0  0  0  0  0  0  0
   31.2510   29.2380   34.8900 O   0  0  0  0  0  0  0  0  0  0  0  0
   38.1760   26.2350   33.6880 C   0  0  0  0  0  0  0  0  0  0  0  0
   38.9100   27.1870   34.3060 C   0  0  0  0  0  0  0  0  0  0  0  0
   39.9690   26.5390   34.9570 C   0  0  0  0  0  0  0  0  0  0  0  0
   39.7940   25.1820   34.6750 C   0  0  0  0  0  0  0  0  0  0  0  0
   38.7340   25.0950   33.9360 O   0  0  0  0  0  0  0  0  0  0  0  0
   38.7400   28.2690   34.3180 H   0  0  0  0  0  0  0  0  0  0  0  0
   40.7100   27.0720   35.5300 H   0  0  0  0  0  0  0  0  0  0  0  0
   41.9580   23.9530   34.6580 C   0  0  0  0  0  0  0  0  0  0  0  0
   40.7060   24.1500   35.1800 C   0  0  0  0  0  0  0  0  0  0  0  0
   40.2280   23.3920   36.2200 C   0  0  0  0  0  0  0  0  0  0  0  0
   41.0480   22.4120   36.7380 C   0  0  0  0  0  0  0  0  0  0  0  0
   40.8570   21.5300   37.7440 N   0  0  0  0  0  0  0  0  0  0  0  0
   41.9620   20.7980   37.8520 N   0  0  0  0  0  0  0  0  0  0  0  0
   42.8460   21.1970   36.9370 C   0  0  0  0  0  0  0  0  0  0  0  0
   42.2990   22.2340   36.1980 C   0  0  0  0  0  0  0  0  0  0  0  0
   42.7950   22.9880   35.1490 C   0  0  0  0  0  0  0  0  0  0  0  0
   42.2970   24.5760   33.8320 H   0  0  0  0  0  0  0  0  0  0  0  0
   39.2370   23.4870   36.6940 H   0  0  0  0  0  0  0  0  0  0  0  0
   39.9890   21.4290   38.3480 H   0  0  0  0  0  0  0  0  0  0  0  0
   43.8450   20.7530   36.8120 H   0  0  0  0  0  0  0  0  0  0  0  0
   43.7910   22.8100   34.7540 H   0  0  0  0  0  0  0  0  0  0  0  0
  1 23  1  0  0  0  0
  2  1  2  0  0  0  0
  3  1  1  0  0  0  0
  3  8  1  0  0  0  0
  4  3  2  0  0  0  0
  5  4  1  0  0  0  0
  5  6  2  0  0  0  0
  6  7  1  0  0  0  0
  7  8  2  0  0  0  0
  7 12  1  0  0  0  0
  9  4  1  0  0  0  0
 10  5  1  0  0  0  0
 11 18  1  0  0  0  0
 12 11  2  0  0  0  0
 12 13  1  0  0  0  0
 13 15  2  0  0  0  0
 14 13  1  0  0  0  0
 15 17  1  0  0  0  0
 15 16  1  0  0  0  0
 18 17  2  0  0  0  0
 19 20  1  0  0  0  0
 20 22  2  0  0  0  0
 20 11  1  0  0  0  0
 21 20  2  0  0  0  0
 23 27  1  0  0  0  0
 23 24  2  0  0  0  0
 24 28  1  0  0  0  0
 24 25  1  0  0  0  0
 25 29  1  0  0  0  0
 26 25  2  0  0  0  0
 26 31  1  0  0  0  0
 27 26  1  0  0  0  0
 30 38  2  0  0  0  0
 30 31  1  0  0  0  0
 31 32  2  0  0  0  0
 32 40  1  0  0  0  0
 32 33  1  0  0  0  0
 33 34  1  0  0  0  0
 34 35  1  0  0  0  0
 34 41  1  0  0  0  0
 36 35  2  0  0  0  0
 37 33  2  0  0  0  0
 37 36  1  0  0  0  0
 38 37  1  0  0  0  0
 39 30  1  0  0  0  0
 42 36  1  0  0  0  0
 43 38  1  0  0  0  0
M  END
>  <minimizedAffinity>
-7.18755341

$$$$

 OpenBabel03272507153D

 43 47  0  0  0  0  0  0  0  0999 V2000
   38.2970   26.8700   32.1510 C   0  0  0  0  0  0  0  0  0  0  0  0
   39.2730   27.1480   31.4070 O   0  0  0  0  0  0  0  0  0  0  0  0
   38.1230   25.5900   32.7910 C   0  0  0  0  0  0  0  0  0  0  0  0
   37.6220   24.5480   32.0040 C   0  0  0  0  0  0  0  0  0  0  0  0
   37.4370   23.2940   32.5730 C   0  0  0  0  0  0  0  0  0  0  0  0
   37.7700   23.1700   33.8930 N   0  0  0  0  0  0  0  0  0  0  0  0
   38.2470   24.1760   34.6300 C   0  0  0  0  0  0  0  0  0  0  0  0
   38.4210   25.3760   34.0800 N   0  0  0  0  0  0  0  0  0  0  0  0
   37.3660   24.6590   30.9720 H   0  0  0  0  0  0  0  0  0  0  0  0
   37.0600   22.4510   32.0360 H   0  0  0  0  0  0  0  0  0  0  0  0
   39.6610   23.1660   36.4460 C   0  0  0  0  0  0  0  0  0  0  0  0
   38.5430   23.8430   36.0160 C   0  0  0  0  0  0  0  0  0  0  0  0
   37.6700   24.2090   37.0150 C   0  0  0  0  0  0  0  0  0  0  0  0
   36.7380   24.7540   36.8110 H   0  0  0  0  0  0  0  0  0  0  0  0
   37.8840   23.9250   38.3580 C   0  0  0  0  0  0  0  0  0  0  0  0
   37.1840   24.2240   39.1120 H   0  0  0  0  0  0  0  0  0  0  0  0
   39.0150   23.2470   38.7520 C   0  0  0  0  0  3  0  0  0  0  0  0
   39.8980   22.8740   37.7620 C   0  0  0  0  0  3  0  0  0  0  0  0
   40.2050   22.2540   34.1380 H   0  0  0  0  0  0  0  0  0  0  0  0
   40.8320   22.6580   35.2720 S   0  0  0  0  0  0  0  0  0  0  0  0
   41.6590   21.5010   35.7850 O   0  0  0  0  0  0  0  0  0  0  0  0
   41.7710   23.7690   34.9320 O   0  0  0  0  0  0  0  0  0  0  0  0
   37.2780   27.8810   32.3900 C   0  0  0  0  0  0  0  0  0  0  0  0
   36.7720   28.6480   31.3990 C   0  0  0  0  0  0  0  0  0  0  0  0
   35.8230   29.5030   31.9780 C   0  0  0  0  0  0  0  0  0  0  0  0
   35.8220   29.1780   33.3370 C   0  0  0  0  0  0  0  0  0  0  0  0
   36.6920   28.2310   33.4880 O   0  0  0  0  0  0  0  0  0  0  0  0
   37.0300   28.6340   30.3350 H   0  0  0  0  0  0  0  0  0  0  0  0
   35.2650   30.2240   31.4030 H   0  0  0  0  0  0  0  0  0  0  0  0
   33.6060   29.6110   34.3830 C   0  0  0  0  0  0  0  0  0  0  0  0
   34.9520   29.8540   34.3060 C   0  0  0  0  0  0  0  0  0  0  0  0
   35.5760   30.7460   35.1430 C   0  0  0  0  0  0  0  0  0  0  0  0
   34.8070   31.4030   36.0790 C   0  0  0  0  0  0  0  0  0  0  0  0
   35.1350   32.3150   37.0210 N   0  0  0  0  0  0  0  0  0  0  0  0
   34.0220   32.6360   37.6740 N   0  0  0  0  0  0  0  0  0  0  0  0
   32.9980   31.9490   37.1660 C   0  0  0  0  0  0  0  0  0  0  0  0
   33.4590   31.1430   36.1370 C   0  0  0  0  0  0  0  0  0  0  0  0
   32.8140   30.2480   35.3010 C   0  0  0  0  0  0  0  0  0  0  0  0
   33.1500   28.8970   33.6990 H   0  0  0  0  0  0  0  0  0  0  0  0
   36.6500   30.9960   35.1440 H   0  0  0  0  0  0  0  0  0  0  0  0
   36.1010   32.7120   37.2170 H   0  0  0  0  0  0  0  0  0  0  0  0
   31.9630   32.0300   37.5270 H   0  0  0  0  0  0  0  0  0  0  0  0
   31.7450   30.0750   35.3830 H   0  0  0  0  0  0  0  0  0  0  0  0
  1 23  1  0  0  0  0
  1  3  1  0  0  0  0
  2  1  2  0  0  0  0
  3  8  1  0  0  0  0
  4  5  1  0  0  0  0
  4  3  2  0  0  0  0
  5  6  2  0  0  0  0
  6  7  1  0  0  0  0
  7 12  1  0  0  0  0
  8  7  2  0  0  0  0
  9  4  1  0  0  0  0
 10  5  1  0  0  0  0
 11 18  1  0  0  0  0
 12 11  2  0  0  0  0
 12 13  1  0  0  0  0
 13 15  2  0  0  0  0
 14 13  1  0  0  0  0
 15 17  1  0  0  0  0
 15 16  1  0  0  0  0
 18 17  2  0  0  0  0
 19 20  1  0  0  0  0
 20 21  2  0  0  0  0
 20 11  1  0  0  0  0
 22 20  2  0  0  0  0
 23 27  1  0  0  0  0
 24 25  1  0  0  0  0
 24 23  2  0  0  0  0
 25 26  2  0  0  0  0
 26 27  1  0  0  0  0
 26 31  1  0  0  0  0
 28 24  1  0  0  0  0
 29 25  1  0  0  0  0
 30 38  1  0  0  0  0
 31 30  2  0  0  0  0
 31 32  1  0  0  0  0
 32 40  1  0  0  0  0
 32 33  2  0  0  0  0
 33 37  1  0  0  0  0
 33 34  1  0  0  0  0
 34 41  1  0  0  0  0
 34 35  1  0  0  0  0
 36 42  1  0  0  0  0
 36 35  2  0  0  0  0
 37 36  1  0  0  0  0
 38 43  1  0  0  0  0
 38 37  2  0  0  0  0
 39 30  1  0  0  0  0
M  END
>  <minimizedAffinity>
-7.13625431

$$$$

 OpenBabel03272507153D

 43 47  0  0  0  0  0  0  0  0999 V2000
   38.5350   26.8090   32.2120 C   0  0  0  0  0  0  0  0  0  0  0  0
   39.5650   27.1960   31.6020 O   0  0  0  0  0  0  0  0  0  0  0  0
   38.3730   25.4740   32.7320 C   0  0  0  0  0  0  0  0  0  0  0  0
   37.4040   24.6680   32.1270 C   0  0  0  0  0  0  0  0  0  0  0  0
   37.2100   23.3720   32.5900 C   0  0  0  0  0  0  0  0  0  0  0  0
   38.0030   22.9730   33.6300 N   0  0  0  0  0  0  0  0  0  0  0  0
   38.9240   23.7560   34.1960 C   0  0  0  0  0  0  0  0  0  0  0  0
   39.1050   24.9960   33.7490 N   0  0  0  0  0  0  0  0  0  0  0  0
   36.7900   24.9930   31.3140 H   0  0  0  0  0  0  0  0  0  0  0  0
   36.4910   22.6990   32.1780 H   0  0  0  0  0  0  0  0  0  0  0  0
   39.3510   23.2600   36.6230 C   0  0  0  0  0  0  0  0  0  0  0  0
   39.6680   23.1460   35.2890 C   0  0  0  0  0  0  0  0  0  0  0  0
   40.7850   22.3860   35.0240 C   0  0  0  0  0  0  0  0  0  0  0  0
   41.1500   22.2140   34.0020 H   0  0  0  0  0  0  0  0  0  0  0  0
   41.5450   21.7750   36.0130 C   0  0  0  0  0  0  0  0  0  0  0  0
   42.4100   21.1900   35.7730 H   0  0  0  0  0  0  0  0  0  0  0  0
   41.1980   21.9110   37.3380 C   0  0  0  0  0  3  0  0  0  0  0  0
   40.0820   22.6690   37.6180 C   0  0  0  0  0  3  0  0  0  0  0  0
   36.9030   23.8540   36.2950 H   0  0  0  0  0  0  0  0  0  0  0  0
   37.9610   24.1940   37.0730 S   0  0  0  0  0  0  0  0  0  0  0  0
   38.2130   25.6740   36.8980 O   0  0  0  0  0  0  0  0  0  0  0  0
   37.5990   23.9650   38.5050 O   0  0  0  0  0  0  0  0  0  0  0  0
   37.4370   27.7420   32.4130 C   0  0  0  0  0  0  0  0  0  0  0  0
   36.7790   28.3190   31.3840 C   0  0  0  0  0  0  0  0  0  0  0  0
   35.7930   29.1500   31.9340 C   0  0  0  0  0  0  0  0  0  0  0  0
   35.9300   29.0120   33.3170 C   0  0  0  0  0  0  0  0  0  0  0  0
   36.9040   28.1790   33.5080 O   0  0  0  0  0  0  0  0  0  0  0  0
   36.9540   28.1860   30.3110 H   0  0  0  0  0  0  0  0  0  0  0  0
   35.1200   29.7330   31.3260 H   0  0  0  0  0  0  0  0  0  0  0  0
   33.7300   29.4710   34.3860 C   0  0  0  0  0  0  0  0  0  0  0  0
   35.0720   29.7260   34.2690 C   0  0  0  0  0  0  0  0  0  0  0  0
   35.7000   30.6680   35.0450 C   0  0  0  0  0  0  0  0  0  0  0  0
   34.9410   31.3640   35.9600 C   0  0  0  0  0  0  0  0  0  0  0  0
   35.2770   32.3280   36.8470 N   0  0  0  0  0  0  0  0  0  0  0  0
   34.1740   32.6690   37.5060 N   0  0  0  0  0  0  0  0  0  0  0  0
   33.1490   31.9430   37.0560 C   0  0  0  0  0  0  0  0  0  0  0  0
   33.5980   31.0900   36.0610 C   0  0  0  0  0  0  0  0  0  0  0  0
   32.9490   30.1460   35.2860 C   0  0  0  0  0  0  0  0  0  0  0  0
   33.2710   28.7160   33.7500 H   0  0  0  0  0  0  0  0  0  0  0  0
   36.7710   30.9320   35.0100 H   0  0  0  0  0  0  0  0  0  0  0  0
   36.2410   32.7460   37.0010 H   0  0  0  0  0  0  0  0  0  0  0  0
   32.1190   32.0310   37.4350 H   0  0  0  0  0  0  0  0  0  0  0  0
   31.8850   29.9640   35.4000 H   0  0  0  0  0  0  0  0  0  0  0  0
  1 23  1  0  0  0  0
  1  3  1  0  0  0  0
  2  1  2  0  0  0  0
  3  8  1  0  0  0  0
  4  5  1  0  0  0  0
  4  3  2  0  0  0  0
  5  6  2  0  0  0  0
  6  7  1  0  0  0  0
  7 12  1  0  0  0  0
  8  7  2  0  0  0  0
  9  4  1  0  0  0  0
 10  5  1  0  0  0  0
 11 20  1  0  0  0  0
 11 18  1  0  0  0  0
 12 11  2  0  0  0  0
 13 12  1  0  0  0  0
 13 15  2  0  0  0  0
 14 13  1  0  0  0  0
 15 17  1  0  0  0  0
 16 15  1  0  0  0  0
 17 18  2  0  0  0  0
 19 20  1  0  0  0  0
 20 22  2  0  0  0  0
 21 20  2  0  0  0  0
 23 27  1  0  0  0  0
 24 25  1  0  0  0  0
 24 23  2  0  0  0  0
 25 26  2  0  0  0  0
 26 27  1  0  0  0  0
 26 31  1  0  0  0  0
 28 24  1  0  0  0  0
 29 25  1  0  0  0  0
 30 38  1  0  0  0  0
 31 30  2  0  0  0  0
 31 32  1  0  0  0  0
 32 33  2  0  0  0  0
 33 37  1  0  0  0  0
 33 34  1  0  0  0  0
 34 41  1  0  0  0  0
 34 35  1  0  0  0  0
 36 42  1  0  0  0  0
 36 35  2  0  0  0  0
 37 36  1  0  0  0  0
 38 43  1  0  0  0  0
 38 37  2  0  0  0  0
 39 30  1  0  0  0  0
 40 32  1  0  0  0  0
M  END
>  <minimizedAffinity>
-7.01302052

$$$$

 OpenBabel03272507153D

 43 47  0  0  0  0  0  0  0  0999 V2000
   36.7940   27.7060   31.1200 C   0  0  0  0  0  0  0  0  0  0  0  0
   36.5260   28.4470   30.1390 O   0  0  0  0  0  0  0  0  0  0  0  0
   37.3310   26.3750   30.9890 C   0  0  0  0  0  0  0  0  0  0  0  0
   38.5170   26.2370   30.2610 C   0  0  0  0  0  0  0  0  0  0  0  0
   39.0770   24.9750   30.1050 C   0  0  0  0  0  0  0  0  0  0  0  0
   38.4100   23.9370   30.6920 N   0  0  0  0  0  0  0  0  0  0  0  0
   37.2780   24.0860   31.3840 C   0  0  0  0  0  0  0  0  0  0  0  0
   36.7450   25.2970   31.5290 N   0  0  0  0  0  0  0  0  0  0  0  0
   39.0300   27.0580   29.8070 H   0  0  0  0  0  0  0  0  0  0  0  0
   39.9800   24.7920   29.5640 H   0  0  0  0  0  0  0  0  0  0  0  0
   37.1410   22.2470   33.0920 C   0  0  0  0  0  0  0  0  0  0  0  0
   36.7200   22.8590   31.9330 C   0  0  0  0  0  0  0  0  0  0  0  0
   35.6900   22.2170   31.2830 C   0  0  0  0  0  0  0  0  0  0  0  0
   35.2590   22.5960   30.3470 H   0  0  0  0  0  0  0  0  0  0  0  0
   35.1100   21.0420   31.7450 C   0  0  0  0  0  0  0  0  0  0  0  0
   34.3090   20.5670   31.2150 H   0  0  0  0  0  0  0  0  0  0  0  0
   35.5560   20.4590   32.9090 C   0  0  0  0  0  3  0  0  0  0  0  0
   36.5870   21.0910   33.5710 C   0  0  0  0  0  3  0  0  0  0  0  0
   39.3220   23.5480   33.1480 H   0  0  0  0  0  0  0  0  0  0  0  0
   38.4330   22.9710   33.9950 S   0  0  0  0  0  0  0  0  0  0  0  0
   39.1720   21.9410   34.8180 O   0  0  0  0  0  0  0  0  0  0  0  0
   37.9160   24.0120   34.9330 O   0  0  0  0  0  0  0  0  0  0  0  0
   36.5550   28.2000   32.4680 C   0  0  0  0  0  0  0  0  0  0  0  0
   37.0730   27.6000   33.5620 C   0  0  0  0  0  0  0  0  0  0  0  0
   36.6470   28.3320   34.6790 C   0  0  0  0  0  0  0  0  0  0  0  0
   35.8680   29.3680   34.1600 C   0  0  0  0  0  0  0  0  0  0  0  0
   35.8660   29.2170   32.8730 O   0  0  0  0  0  0  0  0  0  0  0  0
   37.7100   26.7100   33.6060 H   0  0  0  0  0  0  0  0  0  0  0  0
   36.9220   28.0650   35.6870 H   0  0  0  0  0  0  0  0  0  0  0  0
   35.9430   31.2920   35.7370 C   0  0  0  0  0  0  0  0  0  0  0  0
   35.2260   30.3740   35.0140 C   0  0  0  0  0  0  0  0  0  0  0  0
   33.8540   30.3440   35.0390 C   0  0  0  0  0  0  0  0  0  0  0  0
   33.2000   31.2730   35.8210 C   0  0  0  0  0  0  0  0  0  0  0  0
   31.8840   31.4860   36.0370 N   0  0  0  0  0  0  0  0  0  0  0  0
   31.7750   32.5140   36.8740 N   0  0  0  0  0  0  0  0  0  0  0  0
   32.9940   32.9540   37.1920 C   0  0  0  0  0  0  0  0  0  0  0  0
   33.9400   32.1840   36.5360 C   0  0  0  0  0  0  0  0  0  0  0  0
   35.3230   32.2270   36.5220 C   0  0  0  0  0  0  0  0  0  0  0  0
   37.0300   31.2800   35.6890 H   0  0  0  0  0  0  0  0  0  0  0  0
   33.2080   29.6400   34.4900 H   0  0  0  0  0  0  0  0  0  0  0  0
   31.0720   30.9420   35.6210 H   0  0  0  0  0  0  0  0  0  0  0  0
   33.1850   33.7980   37.8710 H   0  0  0  0  0  0  0  0  0  0  0  0
   35.8660   32.9660   37.1040 H   0  0  0  0  0  0  0  0  0  0  0  0
  1 23  1  0  0  0  0
  2  1  2  0  0  0  0
  3  1  1  0  0  0  0
  3  8  1  0  0  0  0
  4  3  2  0  0  0  0
  5  4  1  0  0  0  0
  5  6  2  0  0  0  0
  6  7  1  0  0  0  0
  7  8  2  0  0  0  0
  7 12  1  0  0  0  0
  9  4  1  0  0  0  0
 10  5  1  0  0  0  0
 11 18  1  0  0  0  0
 11 20  1  0  0  0  0
 12 11  2  0  0  0  0
 13 15  2  0  0  0  0
 13 12  1  0  0  0  0
 14 13  1  0  0  0  0
 15 17  1  0  0  0  0
 16 15  1  0  0  0  0
 17 18  2  0  0  0  0
 19 20  1  0  0  0  0
 20 21  2  0  0  0  0
 20 22  2  0  0  0  0
 23 27  1  0  0  0  0
 23 24  2  0  0  0  0
 24 28  1  0  0  0  0
 24 25  1  0  0  0  0
 25 29  1  0  0  0  0
 26 25  2  0  0  0  0
 26 31  1  0  0  0  0
 27 26  1  0  0  0  0
 30 38  1  0  0  0  0
 31 32  1  0  0  0  0
 31 30  2  0  0  0  0
 32 33  2  0  0  0  0
 33 34  1  0  0  0  0
 33 37  1  0  0  0  0
 34 35  1  0  0  0  0
 35 36  2  0  0  0  0
 36 42  1  0  0  0  0
 37 36  1  0  0  0  0
 38 37  2  0  0  0  0
 38 43  1  0  0  0  0
 39 30  1  0  0  0  0
 40 32  1  0  0  0  0
 41 34  1  0  0  0  0
M  END
>  <minimizedAffinity>
-6.77946663

$$$$

 OpenBabel03272507153D

 43 47  0  0  0  0  0  0  0  0999 V2000
   36.1380   27.5230   31.6540 C   0  0  0  0  0  0  0  0  0  0  0  0
   35.8690   26.8780   30.6070 O   0  0  0  0  0  0  0  0  0  0  0  0
   35.4590   28.7350   32.0380 C   0  0  0  0  0  0  0  0  0  0  0  0
   35.5580   29.8240   31.1670 C   0  0  0  0  0  0  0  0  0  0  0  0
   34.9210   31.0150   31.4910 C   0  0  0  0  0  0  0  0  0  0  0  0
   34.2240   31.0320   32.6670 N   0  0  0  0  0  0  0  0  0  0  0  0
   34.1390   29.9820   33.4880 C   0  0  0  0  0  0  0  0  0  0  0  0
   34.7530   28.8440   33.1730 N   0  0  0  0  0  0  0  0  0  0  0  0
   36.1070   29.7980   30.2500 H   0  0  0  0  0  0  0  0  0  0  0  0
   34.9510   31.8880   30.8760 H   0  0  0  0  0  0  0  0  0  0  0  0
   33.7140   31.0070   35.7430 C   0  0  0  0  0  0  0  0  0  0  0  0
   33.3490   30.1990   34.6910 C   0  0  0  0  0  0  0  0  0  0  0  0
   32.1330   29.5710   34.8410 C   0  0  0  0  0  0  0  0  0  0  0  0
   31.7220   28.8970   34.0770 H   0  0  0  0  0  0  0  0  0  0  0  0
   31.3250   29.7270   35.9600 C   0  0  0  0  0  0  0  0  0  0  0  0
   30.3840   29.2230   36.0450 H   0  0  0  0  0  0  0  0  0  0  0  0
   31.7230   30.5440   36.9930 C   0  0  0  0  0  3  0  0  0  0  0  0
   32.9380   31.1800   36.8570 C   0  0  0  0  0  3  0  0  0  0  0  0
   35.3640   32.4390   34.4460 H   0  0  0  0  0  0  0  0  0  0  0  0
   35.2270   31.8500   35.6610 S   0  0  0  0  0  0  0  0  0  0  0  0
   36.3930   30.9090   35.8580 O   0  0  0  0  0  0  0  0  0  0  0  0
   35.3140   32.9030   36.7180 O   0  0  0  0  0  0  0  0  0  0  0  0
   37.1880   27.0360   32.5360 C   0  0  0  0  0  0  0  0  0  0  0  0
   38.4590   27.4900   32.4680 C   0  0  0  0  0  0  0  0  0  0  0  0
   39.1950   26.8150   33.4520 C   0  0  0  0  0  0  0  0  0  0  0  0
   38.2780   25.9630   34.0720 C   0  0  0  0  0  0  0  0  0  0  0  0
   37.1410   26.1540   33.4800 O   0  0  0  0  0  0  0  0  0  0  0  0
   38.8720   28.2430   31.7880 H   0  0  0  0  0  0  0  0  0  0  0  0
   40.2460   26.9910   33.6140 H   0  0  0  0  0  0  0  0  0  0  0  0
   37.9040   24.9530   36.3150 C   0  0  0  0  0  0  0  0  0  0  0  0
   38.6530   25.0690   35.1740 C   0  0  0  0  0  0  0  0  0  0  0  0
   39.8050   24.3470   34.9860 C   0  0  0  0  0  0  0  0  0  0  0  0
   40.2000   23.4860   35.9880 C   0  0  0  0  0  0  0  0  0  0  0  0
   41.2640   22.6580   36.0830 N   0  0  0  0  0  0  0  0  0  0  0  0
   41.1850   22.0360   37.2550 N   0  0  0  0  0  0  0  0  0  0  0  0
   40.0960   22.4520   37.9030 C   0  0  0  0  0  0  0  0  0  0  0  0
   39.4320   23.3850   37.1230 C   0  0  0  0  0  0  0  0  0  0  0  0
   38.2700   24.1070   37.3280 C   0  0  0  0  0  0  0  0  0  0  0  0
   36.9970   25.5450   36.4240 H   0  0  0  0  0  0  0  0  0  0  0  0
   40.4610   24.3840   34.1010 H   0  0  0  0  0  0  0  0  0  0  0  0
   42.0310   22.5190   35.3620 H   0  0  0  0  0  0  0  0  0  0  0  0
   39.7970   22.0920   38.8990 H   0  0  0  0  0  0  0  0  0  0  0  0
   37.6950   23.9950   38.2430 H   0  0  0  0  0  0  0  0  0  0  0  0
  1  3  1  0  0  0  0
  1 23  1  0  0  0  0
  2  1  2  0  0  0  0
  3  8  1  0  0  0  0
  4  5  1  0  0  0  0
  4  3  2  0  0  0  0
  5  6  2  0  0  0  0
  6  7  1  0  0  0  0
  7 12  1  0  0  0  0
  8  7  2  0  0  0  0
  9  4  1  0  0  0  0
 10  5  1  0  0  0  0
 11 18  1  0  0  0  0
 12 13  1  0  0  0  0
 12 11  2  0  0  0  0
 13 15  2  0  0  0  0
 14 13  1  0  0  0  0
 15 16  1  0  0  0  0
 15 17  1  0  0  0  0
 18 17  2  0  0  0  0
 19 20  1  0  0  0  0
 20 11  1  0  0  0  0
 20 21  2  0  0  0  0
 20 22  2  0  0  0  0
 23 27  1  0  0  0  0
 24 23  2  0  0  0  0
 24 25  1  0  0  0  0
 25 29  1  0  0  0  0
 25 26  2  0  0  0  0
 26 31  1  0  0  0  0
 27 26  1  0  0  0  0
 28 24  1  0  0  0  0
 30 39  1  0  0  0  0
 30 38  1  0  0  0  0
 31 30  2  0  0  0  0
 32 31  1  0  0  0  0
 32 33  2  0  0  0  0
 33 34  1  0  0  0  0
 33 37  1  0  0  0  0
 34 35  1  0  0  0  0
 35 36  2  0  0  0  0
 36 42  1  0  0  0  0
 37 38  2  0  0  0  0
 37 36  1  0  0  0  0
 38 43  1  0  0  0  0
 40 32  1  0  0  0  0
 41 34  1  0  0  0  0
M  END
>  <minimizedAffinity>
-6.6411171

$$$$

 OpenBabel03272507153D

 43 47  0  0  0  0  0  0  0  0999 V2000
   38.0960   26.3130   32.3530 C   0  0  0  0  0  0  0  0  0  0  0  0
   37.9100   25.6650   31.2900 O   0  0  0  0  0  0  0  0  0  0  0  0
   39.2530   26.1430   33.1960 C   0  0  0  0  0  0  0  0  0  0  0  0
   40.2110   27.1610   33.1730 C   0  0  0  0  0  0  0  0  0  0  0  0
   41.3450   27.0470   33.9690 C   0  0  0  0  0  0  0  0  0  0  0  0
   41.4390   25.9180   34.7340 N   0  0  0  0  0  0  0  0  0  0  0  0
   40.5140   24.9550   34.7430 C   0  0  0  0  0  0  0  0  0  0  0  0
   39.4310   25.0690   33.9790 N   0  0  0  0  0  0  0  0  0  0  0  0
   40.1250   28.0400   32.5700 H   0  0  0  0  0  0  0  0  0  0  0  0
   42.1180   27.7820   34.0050 H   0  0  0  0  0  0  0  0  0  0  0  0
   39.8840   23.2390   36.4680 C   0  0  0  0  0  0  0  0  0  0  0  0
   40.7960   23.8330   35.6270 C   0  0  0  0  0  0  0  0  0  0  0  0
   42.0580   23.2850   35.6650 C   0  0  0  0  0  0  0  0  0  0  0  0
   42.8830   23.6630   35.0450 H   0  0  0  0  0  0  0  0  0  0  0  0
   42.4030   22.2160   36.4830 C   0  0  0  0  0  0  0  0  0  0  0  0
   43.3950   21.8120   36.4890 H   0  0  0  0  0  0  0  0  0  0  0  0
   41.4630   21.6460   37.3110 C   0  0  0  0  0  3  0  0  0  0  0  0
   40.1950   22.1840   37.2830 C   0  0  0  0  0  3  0  0  0  0  0  0
   37.8650   24.1790   35.2460 H   0  0  0  0  0  0  0  0  0  0  0  0
   38.2600   23.8470   36.5010 S   0  0  0  0  0  0  0  0  0  0  0  0
   38.1540   25.0820   37.3660 O   0  0  0  0  0  0  0  0  0  0  0  0
   37.3150   22.8290   37.0500 O   0  0  0  0  0  0  0  0  0  0  0  0
   37.1020   27.2900   32.7700 C   0  0  0  0  0  0  0  0  0  0  0  0
   36.9610   27.6750   34.0570 C   0  0  0  0  0  0  0  0  0  0  0  0
   35.9240   28.6180   34.0990 C   0  0  0  0  0  0  0  0  0  0  0  0
   35.4920   28.7430   32.7760 C   0  0  0  0  0  0  0  0  0  0  0  0
   36.2270   27.9390   32.0730 O   0  0  0  0  0  0  0  0  0  0  0  0
   37.5300   27.3380   34.9300 H   0  0  0  0  0  0  0  0  0  0  0  0
   35.6050   29.0900   35.0140 H   0  0  0  0  0  0  0  0  0  0  0  0
   34.6070   30.7400   31.5850 C   0  0  0  0  0  0  0  0  0  0  0  0
   34.4040   29.6460   32.3850 C   0  0  0  0  0  0  0  0  0  0  0  0
   33.1600   29.3220   32.8660 C   0  0  0  0  0  0  0  0  0  0  0  0
   32.1010   30.1330   32.5230 C   0  0  0  0  0  0  0  0  0  0  0  0
   30.7880   30.0650   32.8360 N   0  0  0  0  0  0  0  0  0  0  0  0
   30.1800   31.0910   32.2470 N   0  0  0  0  0  0  0  0  0  0  0  0
   31.0800   31.8060   31.5680 C   0  0  0  0  0  0  0  0  0  0  0  0
   32.3290   31.2250   31.7190 C   0  0  0  0  0  0  0  0  0  0  0  0
   33.5760   31.5660   31.2260 C   0  0  0  0  0  0  0  0  0  0  0  0
   35.6100   30.9620   31.2250 H   0  0  0  0  0  0  0  0  0  0  0  0
   32.9160   28.4620   33.5130 H   0  0  0  0  0  0  0  0  0  0  0  0
   30.3130   29.3330   33.4410 H   0  0  0  0  0  0  0  0  0  0  0  0
   30.8380   32.7100   30.9900 H   0  0  0  0  0  0  0  0  0  0  0  0
   33.7080   32.4390   30.5940 H   0  0  0  0  0  0  0  0  0  0  0  0
  1 23  1  0  0  0  0
  1  3  1  0  0  0  0
  2  1  2  0  0  0  0
  3  8  1  0  0  0  0
  4  3  2  0  0  0  0
  4  5  1  0  0  0  0
  5 10  1  0  0  0  0
  5  6  2  0  0  0  0
  6  7  1  0  0  0  0
  7 12  1  0  0  0  0
  8  7  2  0  0  0  0
  9  4  1  0  0  0  0
 11 20  1  0  0  0  0
 11 18  1  0  0  0  0
 12 13  1  0  0  0  0
 12 11  2  0  0  0  0
 13 15  2  0  0  0  0
 14 13  1  0  0  0  0
 15 16  1  0  0  0  0
 15 17  1  0  0  0  0
 18 17  2  0  0  0  0
 19 20  1  0  0  0  0
 20 22  2  0  0  0  0
 20 21  2  0  0  0  0
 23 24  2  0  0  0  0
 24 25  1  0  0  0  0
 24 28  1  0  0  0  0
 25 29  1  0  0  0  0
 26 25  2  0  0  0  0
 27 23  1  0  0  0  0
 27 26  1  0  0  0  0
 30 31  1  0  0  0  0
 31 26  1  0  0  0  0
 31 32  2  0  0  0  0
 32 40  1  0  0  0  0
 33 34  1  0  0  0  0
 33 32  1  0  0  0  0
 34 41  1  0  0  0  0
 35 34  1  0  0  0  0
 36 37  1  0  0  0  0
 36 35  2  0  0  0  0
 37 33  2  0  0  0  0
 38 30  2  0  0  0  0
 38 37  1  0  0  0  0
 39 30  1  0  0  0  0
 42 36  1  0  0  0  0
 43 38  1  0  0  0  0
M  END
>  <minimizedAffinity>
-6.50665045

$$$$

 OpenBabel03272507153D

 43 47  0  0  0  0  0  0  0  0999 V2000
   39.1400   26.7360   32.3200 C   0  0  0  0  0  0  0  0  0  0  0  0
   40.2700   27.1560   31.9610 O   0  0  0  0  0  0  0  0  0  0  0  0
   38.9100   25.4080   32.8320 C   0  0  0  0  0  0  0  0  0  0  0  0
   37.8970   24.6590   32.2250 C   0  0  0  0  0  0  0  0  0  0  0  0
   37.6360   23.3720   32.6800 C   0  0  0  0  0  0  0  0  0  0  0  0
   38.4100   22.9240   33.7130 N   0  0  0  0  0  0  0  0  0  0  0  0
   39.3740   23.6530   34.2820 C   0  0  0  0  0  0  0  0  0  0  0  0
   39.6190   24.8850   33.8430 N   0  0  0  0  0  0  0  0  0  0  0  0
   37.2980   25.0210   31.4170 H   0  0  0  0  0  0  0  0  0  0  0  0
   36.8800   22.7410   32.2660 H   0  0  0  0  0  0  0  0  0  0  0  0
   39.6870   22.9810   36.6830 C   0  0  0  0  0  0  0  0  0  0  0  0
   40.0880   22.9970   35.3670 C   0  0  0  0  0  0  0  0  0  0  0  0
   41.2630   22.3260   35.1140 C   0  0  0  0  0  0  0  0  0  0  0  0
   41.6980   22.2610   34.1070 H   0  0  0  0  0  0  0  0  0  0  0  0
   42.0010   21.6780   36.0970 C   0  0  0  0  0  0  0  0  0  0  0  0
   42.9120   21.1650   35.8670 H   0  0  0  0  0  0  0  0  0  0  0  0
   41.5690   21.6830   37.4040 C   0  0  0  0  0  3  0  0  0  0  0  0
   40.3930   22.3500   37.6720 C   0  0  0  0  0  3  0  0  0  0  0  0
   38.0430   24.8850   36.3300 H   0  0  0  0  0  0  0  0  0  0  0  0
   38.2190   23.7940   37.1180 S   0  0  0  0  0  0  0  0  0  0  0  0
   38.2510   24.2570   38.5560 O   0  0  0  0  0  0  0  0  0  0  0  0
   37.0370   22.8920   36.9600 O   0  0  0  0  0  0  0  0  0  0  0  0
   37.9910   27.6220   32.2220 C   0  0  0  0  0  0  0  0  0  0  0  0
   37.7290   28.3490   31.1130 C   0  0  0  0  0  0  0  0  0  0  0  0
   36.5600   29.0820   31.3610 C   0  0  0  0  0  0  0  0  0  0  0  0
   36.1800   28.7320   32.6580 C   0  0  0  0  0  0  0  0  0  0  0  0
   37.0620   27.8840   33.0830 O   0  0  0  0  0  0  0  0  0  0  0  0
   38.3000   28.3850   30.1780 H   0  0  0  0  0  0  0  0  0  0  0  0
   36.1280   29.7490   30.6320 H   0  0  0  0  0  0  0  0  0  0  0  0
   35.0390   29.9480   34.5060 C   0  0  0  0  0  0  0  0  0  0  0  0
   34.9860   29.2880   33.3060 C   0  0  0  0  0  0  0  0  0  0  0  0
   33.8060   29.1120   32.6280 C   0  0  0  0  0  0  0  0  0  0  0  0
   32.6550   29.6220   33.1890 C   0  0  0  0  0  0  0  0  0  0  0  0
   31.3730   29.6080   32.7610 N   0  0  0  0  0  0  0  0  0  0  0  0
   30.6380   30.2440   33.6680 N   0  0  0  0  0  0  0  0  0  0  0  0
   31.4270   30.6600   34.6610 C   0  0  0  0  0  0  0  0  0  0  0  0
   32.7330   30.2800   34.3920 C   0  0  0  0  0  0  0  0  0  0  0  0
   33.9140   30.4650   35.0890 C   0  0  0  0  0  0  0  0  0  0  0  0
   35.9970   30.0640   35.0110 H   0  0  0  0  0  0  0  0  0  0  0  0
   33.6800   28.5950   31.6620 H   0  0  0  0  0  0  0  0  0  0  0  0
   31.0040   29.1730   31.8650 H   0  0  0  0  0  0  0  0  0  0  0  0
   31.0690   31.2130   35.5410 H   0  0  0  0  0  0  0  0  0  0  0  0
   33.9270   30.9920   36.0390 H   0  0  0  0  0  0  0  0  0  0  0  0
  1  3  1  0  0  0  0
  2  1  2  0  0  0  0
  3  8  1  0  0  0  0
  4  5  1  0  0  0  0
  4  3  2  0  0  0  0
  5  6  2  0  0  0  0
  6  7  1  0  0  0  0
  7 12  1  0  0  0  0
  8  7  2  0  0  0  0
  9  4  1  0  0  0  0
 10  5  1  0  0  0  0
 11 20  1  0  0  0  0
 11 18  1  0  0  0  0
 12 11  2  0  0  0  0
 13 12  1  0  0  0  0
 13 15  2  0  0  0  0
 14 13  1  0  0  0  0
 15 17  1  0  0  0  0
 16 15  1  0  0  0  0
 17 18  2  0  0  0  0
 19 20  1  0  0  0  0
 20 21  2  0  0  0  0
 22 20  2  0  0  0  0
 23  1  1  0  0  0  0
 23 27  1  0  0  0  0
 24 25  1  0  0  0  0
 24 23  2  0  0  0  0
 25 26  2  0  0  0  0
 26 27  1  0  0  0  0
 26 31  1  0  0  0  0
 28 24  1  0  0  0  0
 29 25  1  0  0  0  0
 30 39  1  0  0  0  0
 30 38  1  0  0  0  0
 31 30  2  0  0  0  0
 32 33  2  0  0  0  0
 32 31  1  0  0  0  0
 33 37  1  0  0  0  0
 34 33  1  0  0  0  0
 34 35  1  0  0  0  0
 35 36  2  0  0  0  0
 36 42  1  0  0  0  0
 37 36  1  0  0  0  0
 37 38  2  0  0  0  0
 38 43  1  0  0  0  0
 40 32  1  0  0  0  0
 41 34  1  0  0  0  0
M  END
>  <minimizedAffinity>
-6.42733526

$$$$

 OpenBabel03272507153D

 43 47  0  0  0  0  0  0  0  0999 V2000
   38.6260   26.7440   32.0150 C   0  0  0  0  0  0  0  0  0  0  0  0
   39.6960   27.0190   31.4130 O   0  0  0  0  0  0  0  0  0  0  0  0
   38.3860   25.4860   32.6760 C   0  0  0  0  0  0  0  0  0  0  0  0
   37.8740   24.4450   31.8960 C   0  0  0  0  0  0  0  0  0  0  0  0
   37.6260   23.2110   32.4860 C   0  0  0  0  0  0  0  0  0  0  0  0
   37.9110   23.1060   33.8180 N   0  0  0  0  0  0  0  0  0  0  0  0
   38.4000   24.1110   34.5490 C   0  0  0  0  0  0  0  0  0  0  0  0
   38.6340   25.2910   33.9790 N   0  0  0  0  0  0  0  0  0  0  0  0
   37.6550   24.5400   30.8540 H   0  0  0  0  0  0  0  0  0  0  0  0
   37.2370   22.3700   31.9550 H   0  0  0  0  0  0  0  0  0  0  0  0
   39.8140   23.3010   36.4620 C   0  0  0  0  0  0  0  0  0  0  0  0
   38.6380   23.7990   35.9510 C   0  0  0  0  0  0  0  0  0  0  0  0
   37.6440   23.9990   36.8810 C   0  0  0  0  0  0  0  0  0  0  0  0
   36.6540   24.3920   36.6090 H   0  0  0  0  0  0  0  0  0  0  0  0
   37.7970   23.7240   38.2350 C   0  0  0  0  0  0  0  0  0  0  0  0
   37.0020   23.8910   38.9330 H   0  0  0  0  0  0  0  0  0  0  0  0
   38.9880   23.2270   38.7100 C   0  0  0  0  0  3  0  0  0  0  0  0
   39.9940   23.0220   37.7900 C   0  0  0  0  0  3  0  0  0  0  0  0
   41.1820   23.9840   34.4330 H   0  0  0  0  0  0  0  0  0  0  0  0
   41.1380   23.0120   35.3790 S   0  0  0  0  0  0  0  0  0  0  0  0
   40.9930   21.6820   34.6770 O   0  0  0  0  0  0  0  0  0  0  0  0
   42.4400   22.9960   36.1130 O   0  0  0  0  0  0  0  0  0  0  0  0
   37.5610   27.7350   32.0570 C   0  0  0  0  0  0  0  0  0  0  0  0
   37.4470   28.7150   31.1330 C   0  0  0  0  0  0  0  0  0  0  0  0
   36.3230   29.4800   31.4750 C   0  0  0  0  0  0  0  0  0  0  0  0
   35.8140   28.8830   32.6310 C   0  0  0  0  0  0  0  0  0  0  0  0
   36.5910   27.8810   32.8990 O   0  0  0  0  0  0  0  0  0  0  0  0
   38.0900   28.9060   30.2680 H   0  0  0  0  0  0  0  0  0  0  0  0
   36.0030   30.3320   30.8970 H   0  0  0  0  0  0  0  0  0  0  0  0
   34.6810   30.0080   34.5400 C   0  0  0  0  0  0  0  0  0  0  0  0
   34.6210   29.3890   33.3190 C   0  0  0  0  0  0  0  0  0  0  0  0
   33.4320   29.2110   32.6560 C   0  0  0  0  0  0  0  0  0  0  0  0
   32.2810   29.6740   33.2540 C   0  0  0  0  0  0  0  0  0  0  0  0
   30.9920   29.6460   32.8480 N   0  0  0  0  0  0  0  0  0  0  0  0
   30.2600   30.2330   33.7900 N   0  0  0  0  0  0  0  0  0  0  0  0
   31.0580   30.6320   34.7830 C   0  0  0  0  0  0  0  0  0  0  0  0
   32.3660   30.2920   34.4780 C   0  0  0  0  0  0  0  0  0  0  0  0
   33.5550   30.4800   35.1600 C   0  0  0  0  0  0  0  0  0  0  0  0
   35.6450   30.1290   35.0330 H   0  0  0  0  0  0  0  0  0  0  0  0
   33.3010   28.7240   31.6750 H   0  0  0  0  0  0  0  0  0  0  0  0
   30.6160   29.2340   31.9440 H   0  0  0  0  0  0  0  0  0  0  0  0
   30.7030   31.1460   35.6880 H   0  0  0  0  0  0  0  0  0  0  0  0
   33.5740   30.9740   36.1280 H   0  0  0  0  0  0  0  0  0  0  0  0
  1 23  1  0  0  0  0
  1  3  1  0  0  0  0
  2  1  2  0  0  0  0
  3  8  1  0  0  0  0
  4  5  1  0  0  0  0
  4  3  2  0  0  0  0
  5  6  2  0  0  0  0
  6  7  1  0  0  0  0
  7 12  1  0  0  0  0
  8  7  2  0  0  0  0
  9  4  1  0  0  0  0
 10  5  1  0  0  0  0
 11 18  1  0  0  0  0
 12 11  2  0  0  0  0
 12 13  1  0  0  0  0
 13 15  2  0  0  0  0
 14 13  1  0  0  0  0
 15 17  1  0  0  0  0
 15 16  1  0  0  0  0
 18 17  2  0  0  0  0
 19 20  1  0  0  0  0
 20 22  2  0  0  0  0
 20 11  1  0  0  0  0
 21 20  2  0  0  0  0
 23 27  1  0  0  0  0
 24 25  1  0  0  0  0
 24 23  2  0  0  0  0
 25 26  2  0  0  0  0
 26 27  1  0  0  0  0
 26 31  1  0  0  0  0
 28 24  1  0  0  0  0
 29 25  1  0  0  0  0
 30 39  1  0  0  0  0
 30 38  1  0  0  0  0
 31 30  2  0  0  0  0
 32 33  2  0  0  0  0
 32 31  1  0  0  0  0
 33 37  1  0  0  0  0
 34 33  1  0  0  0  0
 34 35  1  0  0  0  0
 35 36  2  0  0  0  0
 36 42  1  0  0  0  0
 37 36  1  0  0  0  0
 37 38  2  0  0  0  0
 38 43  1  0  0  0  0
 40 32  1  0  0  0  0
 41 34  1  0  0  0  0
M  END
>  <minimizedAffinity>
-6.41611767

$$$$
