
 OpenBabel03272507583D

 35 37  0  0  0  0  0  0  0  0999 V2000
   37.0160   30.7010   47.6520 C   0  0  0  0  0  0  0  0  0  0  0  0
   37.5190   31.7980   48.3280 C   0  0  0  0  0  0  0  0  0  0  0  0
   38.5640   32.5200   47.7750 C   0  0  0  0  0  0  0  0  0  0  0  0
   39.0920   32.1310   46.5510 C   0  0  0  0  0  0  0  0  0  0  0  0
   38.5760   31.0380   45.9000 C   0  0  0  0  0  0  0  0  0  0  0  0
   37.5720   30.3830   46.4820 N   0  0  0  0  0  0  0  0  0  0  0  0
   37.1730   32.1850   49.2890 H   0  0  0  0  0  0  0  0  0  0  0  0
   38.9870   33.3960   48.2830 H   0  0  0  0  0  0  0  0  0  0  0  0
   39.8920   32.7130   46.1660 H   0  0  0  0  0  0  0  0  0  0  0  0
   35.0270   29.0120   50.3490 C   0  0  0  0  0  0  0  0  0  0  0  0
   36.1160   29.6450   49.6810 C   0  0  0  0  0  0  0  0  0  0  0  0
   35.9270   30.0520   48.3650 C   0  0  0  0  0  0  0  0  0  0  0  0
   34.7130   29.8280   47.7810 N   0  0  0  0  0  0  0  0  0  0  0  0
   33.7010   29.2180   48.4640 C   0  0  0  0  0  0  0  0  0  0  0  0
   33.8500   28.8160   49.7240 N   0  0  0  0  0  0  0  0  0  0  0  0
   32.5460   29.1000   47.6510 N   0  0  0  0  0  0  0  0  0  0  0  0
   35.1650   28.6900   51.3760 H   0  0  0  0  0  0  0  0  0  0  0  0
   32.1200   28.2110   47.3540 H   0  0  0  0  0  0  0  0  0  0  0  0
   32.0680   29.9690   47.3110 H   0  0  0  0  0  0  0  0  0  0  0  0
   37.3920   29.8340   50.4260 C   0  0  0  0  0  0  0  0  0  0  0  0
   38.4860   29.6780   49.6000 F   0  0  0  0  0  0  0  0  0  0  0  0
   37.4090   31.1210   50.9170 F   0  0  0  0  0  0  0  0  0  0  0  0
   37.5390   28.9760   51.4860 F   0  0  0  0  0  0  0  0  0  0  0  0
   39.4590   31.5020   43.6490 C   0  0  0  0  0  0  0  0  0  0  0  0
   39.0930   30.5870   44.6150 C   0  0  0  0  0  0  0  0  0  0  0  0
   39.2360   29.2490   44.3120 C   0  0  0  0  0  0  0  0  0  0  0  0
   38.9770   28.4760   45.0030 H   0  0  0  0  0  0  0  0  0  0  0  0
   39.7200   28.7910   43.1110 C   0  0  0  0  0  0  0  0  0  0  0  0
   39.8330   27.7370   42.8730 H   0  0  0  0  0  0  0  0  0  0  0  0
   40.0920   29.6770   42.1330 C   0  0  0  0  0  3  0  0  0  0  0  0
   39.9500   31.0150   42.4310 C   0  0  0  0  0  3  0  0  0  0  0  0
   38.1410   33.5620   44.4660 H   0  0  0  0  0  0  0  0  0  0  0  0
   39.3350   33.2220   43.8860 S   0  0  0  0  0  0  0  0  0  0  0  0
   39.3180   33.9070   42.5260 O   0  0  0  0  0  0  0  0  0  0  0  0
   40.5100   33.8040   44.6210 O   0  0  0  0  0  0  0  0  0  0  0  0
  1  2  1  0  0  0  0
  1 12  1  0  0  0  0
  2  7  1  0  0  0  0
  3  8  1  0  0  0  0
  3  2  2  0  0  0  0
  4  3  1  0  0  0  0
  5  6  1  0  0  0  0
  5  4  2  0  0  0  0
  6  1  2  0  0  0  0
  9  4  1  0  0  0  0
 10 17  1  0  0  0  0
 11 10  2  0  0  0  0
 11 20  1  0  0  0  0
 12 11  1  0  0  0  0
 13 12  2  0  0  0  0
 13 14  1  0  0  0  0
 14 15  2  0  0  0  0
 15 10  1  0  0  0  0
 16 14  1  0  0  0  0
 18 16  1  0  0  0  0
 19 16  1  0  0  0  0
 20 22  1  0  0  0  0
 20 23  1  0  0  0  0
 21 20  1  0  0  0  0
 24 33  1  0  0  0  0
 24 25  1  0  0  0  0
 25  5  1  0  0  0  0
 26 25  2  0  0  0  0
 26 27  1  0  0  0  0
 28 26  1  0  0  0  0
 29 28  1  0  0  0  0
 30 31  1  0  0  0  0
 30 28  2  0  0  0  0
 31 24  2  0  0  0  0
 33 32  1  0  0  0  0
 33 35  2  0  0  0  0
 34 33  2  0  0  0  0
M  END
>  <minimizedAffinity>
-6.46978521

>  <minimizedRMSD>
2.51691937

$$$$
