
 OpenBabel03272508353D

 34 36  0  0  0  0  0  0  0  0999 V2000
   39.9160   32.6890   45.4220 C   0  0  0  0  0  0  0  0  0  0  0  0
   40.0100   33.7230   45.8300 H   0  0  0  0  0  0  0  0  0  0  0  0
   40.9090   32.2400   45.5100 H   0  0  0  0  0  0  0  0  0  0  0  0
   37.7780   31.0150   47.8060 C   0  0  0  0  0  0  0  0  0  0  0  0
   37.0450   30.9160   46.6490 C   0  0  0  0  0  0  0  0  0  0  0  0
   37.7430   31.5210   45.6200 C   0  0  0  0  0  0  0  0  0  0  0  0
   38.8930   31.9750   46.1840 N   0  0  0  0  0  0  0  0  0  0  0  0
   38.9000   31.6690   47.4740 N   0  0  0  0  0  0  0  0  0  0  0  0
   36.0640   30.4570   46.4730 H   0  0  0  0  0  0  0  0  0  0  0  0
   37.4260   31.6070   44.5890 H   0  0  0  0  0  0  0  0  0  0  0  0
   37.4280   30.1960   51.4530 C   0  0  0  0  0  0  0  0  0  0  0  0
   37.9450   30.7540   50.2810 C   0  0  0  0  0  0  0  0  0  0  0  0
   37.3100   30.4780   49.0600 C   0  0  0  0  0  0  0  0  0  0  0  0
   36.2200   29.6730   49.1050 N   0  0  0  0  0  0  0  0  0  0  0  0
   35.7430   29.1470   50.2550 C   0  0  0  0  0  0  0  0  0  0  0  0
   36.3450   29.4100   51.4160 N   0  0  0  0  0  0  0  0  0  0  0  0
   37.9240   30.4100   52.4080 H   0  0  0  0  0  0  0  0  0  0  0  0
   38.8160   31.3920   50.2780 H   0  0  0  0  0  0  0  0  0  0  0  0
   34.8700   28.5050   50.2710 H   0  0  0  0  0  0  0  0  0  0  0  0
   39.4890   32.8480   43.9890 C   0  0  0  0  0  0  0  0  0  0  0  0
   38.4220   33.1150   43.9380 H   0  0  0  0  0  0  0  0  0  0  0  0
   40.0200   33.7710   43.6190 H   0  0  0  0  0  0  0  0  0  0  0  0
   39.2770   31.7620   41.8370 C   0  0  0  0  0  0  0  0  0  0  0  0
   39.8730   31.7500   43.1030 C   0  0  0  0  0  0  0  0  0  0  0  0
   40.7540   30.7100   43.3580 C   0  0  0  0  0  0  0  0  0  0  0  0
   41.2060   30.7180   44.3320 H   0  0  0  0  0  0  0  0  0  0  0  0
   41.0380   29.7430   42.4370 C   0  0  0  0  0  0  0  0  0  0  0  0
   41.7350   28.9420   42.6740 H   0  0  0  0  0  0  0  0  0  0  0  0
   40.4690   29.7270   41.1850 C   0  0  0  0  0  0  0  0  0  0  0  0
   39.5960   30.7530   40.9230 C   0  0  0  0  0  0  0  0  0  0  0  0
   37.6000   32.7170   40.1770 H   0  0  0  0  0  0  0  0  0  0  0  0
   38.1390   33.0180   41.3800 S   0  0  0  0  0  0  0  0  0  0  0  0
   38.8410   34.3290   41.2570 O   0  0  0  0  0  0  0  0  0  0  0  0
   37.0340   33.1230   42.3900 O   0  0  0  0  0  0  0  0  0  0  0  0
  1  3  1  0  0  0  0
  1  2  1  0  0  0  0
  1  7  1  0  0  0  0
  4 13  1  0  0  0  0
  5  4  1  0  0  0  0
  6  7  1  0  0  0  0
  6  5  2  0  0  0  0
  7  8  1  0  0  0  0
  8  4  2  0  0  0  0
  9  5  1  0  0  0  0
 10  6  1  0  0  0  0
 11 17  1  0  0  0  0
 12 11  2  0  0  0  0
 13 14  2  0  0  0  0
 13 12  1  0  0  0  0
 14 15  1  0  0  0  0
 15 19  1  0  0  0  0
 15 16  2  0  0  0  0
 16 11  1  0  0  0  0
 18 12  1  0  0  0  0
 20  1  1  0  0  0  0
 21 20  1  0  0  0  0
 22 20  1  0  0  0  0
 23 24  1  0  0  0  0
 24 25  2  0  0  0  0
 24 20  1  0  0  0  0
 25 26  1  0  0  0  0
 27 28  1  0  0  0  0
 27 25  1  0  0  0  0
 29 27  2  0  0  0  0
 30 29  1  0  0  0  0
 30 23  2  0  0  0  0
 31 32  1  0  0  0  0
 32 23  1  0  0  0  0
 32 34  2  0  0  0  0
 33 32  2  0  0  0  0
M  END
>  <minimizedAffinity>
-5.50132418

>  <minimizedRMSD>
0.862332523

$$$$
