
 OpenBabel03272504243D

 42 45  0  0  0  0  0  0  0  0999 V2000
   31.8310   28.8530   46.9970 C   0  0  0  0  0  0  0  0  0  0  0  0
   32.9360   29.6700   46.7500 C   0  0  0  0  0  0  0  0  0  0  0  0
   32.9720   30.5890   45.7450 C   0  0  0  0  0  0  0  0  0  0  0  0
   31.8750   30.7340   44.9150 C   0  0  0  0  0  0  0  0  0  0  0  0
   30.7580   29.9520   45.1030 C   0  0  0  0  0  0  0  0  0  0  0  0
   30.7910   29.0450   46.1390 C   0  0  0  0  0  0  0  0  0  0  0  0
   33.8730   31.1750   45.6370 H   0  0  0  0  0  0  0  0  0  0  0  0
   32.0080   31.4840   44.1640 H   0  0  0  0  0  0  0  0  0  0  0  0
   29.9610   30.1370   44.4160 H   0  0  0  0  0  0  0  0  0  0  0  0
   29.8030   28.5350   46.0770 H   0  0  0  0  0  0  0  0  0  0  0  0
   36.0920   30.2930   48.4900 C   0  0  0  0  0  0  0  0  0  0  0  0
   36.1570   29.1890   49.2450 C   0  0  0  0  0  0  0  0  0  0  0  0
   35.1980   28.2380   49.2180 C   0  0  0  0  0  0  0  0  0  0  0  0
   34.1230   28.4030   48.3920 N   0  0  0  0  0  0  0  0  0  0  0  0
   34.0840   29.5230   47.6410 C   0  0  0  0  0  0  0  0  0  0  0  0
   35.0410   30.4630   47.6760 N   0  0  0  0  0  0  0  0  0  0  0  0
   37.0040   29.0240   49.9190 H   0  0  0  0  0  0  0  0  0  0  0  0
   35.2710   27.3550   49.8360 H   0  0  0  0  0  0  0  0  0  0  0  0
   38.1280   33.1720   49.5560 C   0  0  0  0  0  0  0  0  0  0  0  0
   39.0380   33.3080   48.5010 C   0  0  0  0  0  0  0  0  0  0  0  0
   38.9340   32.3970   47.4350 C   0  0  0  0  0  0  0  0  0  0  0  0
   37.9650   31.4450   47.4880 N   0  0  0  0  0  0  0  0  0  0  0  0
   37.1100   31.3410   48.5070 C   0  0  0  0  0  0  0  0  0  0  0  0
   37.2000   32.2120   49.5420 N   0  0  0  0  0  0  0  0  0  0  0  0
   38.2600   33.8920   50.3310 H   0  0  0  0  0  0  0  0  0  0  0  0
   39.8300   34.0050   48.3510 H   0  0  0  0  0  0  0  0  0  0  0  0
   39.5610   32.3760   46.5550 H   0  0  0  0  0  0  0  0  0  0  0  0
   31.5910   27.7530   48.2080 S   0  0  0  0  0  0  0  0  0  0  0  0
   31.7130   26.3090   47.6180 O   0  0  0  0  0  0  0  0  0  0  0  0
   31.1790   27.9180   49.4960 O   0  0  0  0  0  0  0  0  0  0  0  0
   29.1500   26.5820   47.3440 C   0  0  0  0  0  0  0  0  0  0  0  0
   29.7870   27.5580   48.1880 C   0  0  0  0  0  0  0  0  0  0  0  0
   28.9620   28.2120   48.9440 C   0  0  0  0  0  0  0  0  0  0  0  0
   29.3100   28.9830   49.6170 H   0  0  0  0  0  0  0  0  0  0  0  0
   27.5950   28.0260   48.9760 C   0  0  0  0  0  0  0  0  0  0  0  0
   27.0080   28.6290   49.6490 H   0  0  0  0  0  0  0  0  0  0  0  0
   27.0390   27.0850   48.1580 C   0  0  0  0  0  3  0  0  0  0  0  0
   27.7650   26.3060   47.2950 C   0  0  0  0  0  3  0  0  0  0  0  0
   29.1240   24.7620   45.6400 H   0  0  0  0  0  0  0  0  0  0  0  0
   30.0760   25.6330   46.2110 S   0  0  0  0  0  0  0  0  0  0  0  0
   30.9980   24.6630   46.9060 O   0  0  0  0  0  0  0  0  0  0  0  0
   30.7250   26.2450   45.0940 O   0  0  0  0  0  0  0  0  0  0  0  0
  1 28  1  0  0  0  0
  2  1  1  0  0  0  0
  2 15  1  0  0  0  0
  3  2  2  0  0  0  0
  4  5  2  0  0  0  0
  4  3  1  0  0  0  0
  5  6  1  0  0  0  0
  6  1  2  0  0  0  0
  7  3  1  0  0  0  0
  8  4  1  0  0  0  0
  9  5  1  0  0  0  0
 10  6  1  0  0  0  0
 11 23  1  0  0  0  0
 11 12  1  0  0  0  0
 12 17  1  0  0  0  0
 13 12  2  0  0  0  0
 13 18  1  0  0  0  0
 14 13  1  0  0  0  0
 15 16  1  0  0  0  0
 15 14  2  0  0  0  0
 16 11  2  0  0  0  0
 19 25  1  0  0  0  0
 20 19  2  0  0  0  0
 21 22  2  0  0  0  0
 21 20  1  0  0  0  0
 22 23  1  0  0  0  0
 23 24  2  0  0  0  0
 24 19  1  0  0  0  0
 26 20  1  0  0  0  0
 27 21  1  0  0  0  0
 28 30  2  0  0  0  0
 29 28  2  0  0  0  0
 31 32  1  0  0  0  0
 32 28  1  0  0  0  0
 32 33  2  0  0  0  0
 33 35  1  0  0  0  0
 33 34  1  0  0  0  0
 35 36  1  0  0  0  0
 37 35  2  0  0  0  0
 38 31  2  0  0  0  0
 38 37  1  0  0  0  0
 39 40  1  0  0  0  0
 40 41  2  0  0  0  0
 40 31  1  0  0  0  0
 42 40  2  0  0  0  0
M  END
>  <minimizedAffinity>
-6.18753529

>  <minimizedRMSD>
0.60303098

$$$$
