
 OpenBabel03272504453D

 33 35  0  0  0  0  0  0  0  0999 V2000
   35.5180   28.3330   49.7490 C   0  0  0  0  0  0  0  0  0  0  0  0
   36.5050   29.3000   49.5280 C   0  0  0  0  0  0  0  0  0  0  0  0
   36.4050   30.2730   48.5550 C   0  0  0  0  0  0  0  0  0  0  0  0
   35.2750   30.2320   47.8160 N   0  0  0  0  0  0  0  0  0  0  0  0
   34.3260   29.3060   48.0250 C   0  0  0  0  0  0  0  0  0  0  0  0
   34.4420   28.3860   48.9610 N   0  0  0  0  0  0  0  0  0  0  0  0
   35.6220   27.5810   50.5210 H   0  0  0  0  0  0  0  0  0  0  0  0
   36.3000   32.5120   50.4800 Cl  0  0  0  0  0  0  0  0  0  0  0  0
   37.4620   32.3620   49.1910 C   0  0  0  0  0  0  0  0  0  0  0  0
   37.4400   31.2780   48.3310 C   0  0  0  0  0  0  0  0  0  0  0  0
   38.3920   31.2500   47.3510 C   0  0  0  0  0  0  0  0  0  0  0  0
   39.3480   32.2190   47.1800 C   0  0  0  0  0  0  0  0  0  0  0  0
   39.3300   33.3050   48.0800 C   0  0  0  0  0  0  0  0  0  0  0  0
   40.5500   34.5280   47.8500 Cl  0  0  0  0  0  0  0  0  0  0  0  0
   38.3920   33.3840   49.0870 C   0  0  0  0  0  0  0  0  0  0  0  0
   38.3680   30.3990   46.6850 H   0  0  0  0  0  0  0  0  0  0  0  0
   40.0870   32.1780   46.4040 H   0  0  0  0  0  0  0  0  0  0  0  0
   38.3990   34.2260   49.7650 H   0  0  0  0  0  0  0  0  0  0  0  0
   32.1690   28.4340   47.0540 C   0  0  0  0  0  0  0  0  0  0  0  0
   33.1610   29.3870   47.1490 C   0  0  0  0  0  0  0  0  0  0  0  0
   32.9820   30.4850   46.3250 C   0  0  0  0  0  0  0  0  0  0  0  0
   33.6970   31.2980   46.3140 H   0  0  0  0  0  0  0  0  0  0  0  0
   31.9120   30.6620   45.4570 C   0  0  0  0  0  0  0  0  0  0  0  0
   31.8160   31.5310   44.8350 H   0  0  0  0  0  0  0  0  0  0  0  0
   30.9560   29.6840   45.4020 C   0  0  0  0  0  0  0  0  0  0  0  0
   31.0910   28.5700   46.2060 C   0  0  0  0  0  0  0  0  0  0  0  0
   33.2760   27.1810   49.0550 H   0  0  0  0  0  0  0  0  0  0  0  0
   32.3300   27.0110   48.0720 S   0  0  0  0  0  0  0  0  0  0  0  0
   31.0020   26.5950   48.6370 O   0  0  0  0  0  0  0  0  0  0  0  0
   32.8100   25.8300   47.2570 O   0  0  0  0  0  0  0  0  0  0  0  0
   37.6660   29.2530   50.3690 N   0  0  0  0  0  0  0  0  0  0  0  0
   38.1970   28.4330   50.0500 H   0  0  0  0  0  0  0  0  0  0  0  0
   37.9580   29.8850   51.1460 H   0  0  0  0  0  0  0  0  0  0  0  0
  1  7  1  0  0  0  0
  2  1  1  0  0  0  0
  2 31  1  0  0  0  0
  3  2  2  0  0  0  0
  4  5  2  0  0  0  0
  4  3  1  0  0  0  0
  5  6  1  0  0  0  0
  6  1  2  0  0  0  0
  9  8  1  0  0  0  0
 10  3  1  0  0  0  0
 10  9  2  0  0  0  0
 11 10  1  0  0  0  0
 12 11  2  0  0  0  0
 12 13  1  0  0  0  0
 13 15  2  0  0  0  0
 14 13  1  0  0  0  0
 15  9  1  0  0  0  0
 15 18  1  0  0  0  0
 16 11  1  0  0  0  0
 17 12  1  0  0  0  0
 19 20  1  0  0  0  0
 19 28  1  0  0  0  0
 20  5  1  0  0  0  0
 21 20  2  0  0  0  0
 22 21  1  0  0  0  0
 23 21  1  0  0  0  0
 24 23  1  0  0  0  0
 25 23  2  0  0  0  0
 25 26  1  0  0  0  0
 26 19  2  0  0  0  0
 28 29  2  0  0  0  0
 28 27  1  0  0  0  0
 30 28  2  0  0  0  0
 31 33  1  0  0  0  0
 32 31  1  0  0  0  0
M  END
>  <minimizedAffinity>
-5.85492754

>  <minimizedRMSD>
2.02267385

$$$$
