
 OpenBabel03262522413D

 44 48  0  0  0  0  0  0  0  0999 V2000
   37.1330   26.7040   32.5390 C   0  0  0  0  0  0  0  0  0  0  0  0
   37.6220   27.2950   31.3960 C   0  0  0  0  0  0  0  0  0  0  0  0
   37.3750   28.6080   31.0600 C   0  0  0  0  0  0  0  0  0  0  0  0
   36.6110   29.3880   31.8820 C   0  0  0  0  0  0  0  0  0  0  0  0
   36.1380   28.7680   33.0150 C   0  0  0  0  0  0  0  0  0  0  0  0
   36.3770   27.5020   33.3370 N   0  0  0  0  0  0  0  0  0  0  0  0
   38.2270   26.6380   30.7700 H   0  0  0  0  0  0  0  0  0  0  0  0
   37.8160   28.9560   30.1340 H   0  0  0  0  0  0  0  0  0  0  0  0
   36.4240   30.4200   31.6070 H   0  0  0  0  0  0  0  0  0  0  0  0
   33.9320   29.4900   33.9870 C   0  0  0  0  0  0  0  0  0  0  0  0
   35.3170   29.5460   33.9320 C   0  0  0  0  0  0  0  0  0  0  0  0
   35.8470   30.4320   34.8520 C   0  0  0  0  0  0  0  0  0  0  0  0
   35.1300   31.1940   35.7430 C   0  0  0  0  0  0  0  0  0  0  0  0
   35.4790   32.0850   36.6850 N   0  0  0  0  0  0  0  0  0  0  0  0
   34.3600   32.5340   37.2690 C   0  0  0  0  0  0  0  0  0  0  0  0
   33.2630   31.9330   36.7060 C   0  0  0  0  0  0  0  0  0  0  0  0
   33.7690   31.0820   35.7360 C   0  0  0  0  0  0  0  0  0  0  0  0
   33.1650   30.2260   34.8540 C   0  0  0  0  0  0  0  0  0  0  0  0
   33.4230   28.8100   33.2890 H   0  0  0  0  0  0  0  0  0  0  0  0
   36.9360   30.5480   34.8880 H   0  0  0  0  0  0  0  0  0  0  0  0
   36.4710   32.3720   36.9150 H   0  0  0  0  0  0  0  0  0  0  0  0
   34.3290   33.2660   38.0690 H   0  0  0  0  0  0  0  0  0  0  0  0
   32.2200   32.0920   36.9690 H   0  0  0  0  0  0  0  0  0  0  0  0
   32.0860   30.1460   34.8580 H   0  0  0  0  0  0  0  0  0  0  0  0
   37.5820   22.9690   32.4690 C   0  0  0  0  0  0  0  0  0  0  0  0
   37.2950   24.2530   31.9980 C   0  0  0  0  0  0  0  0  0  0  0  0
   37.3990   25.3230   32.8830 C   0  0  0  0  0  0  0  0  0  0  0  0
   37.7750   25.0380   34.1530 N   0  0  0  0  0  0  0  0  0  0  0  0
   38.0490   23.7870   34.5890 C   0  0  0  0  0  0  0  0  0  0  0  0
   37.9480   22.7620   33.7360 N   0  0  0  0  0  0  0  0  0  0  0  0
   37.4810   22.1790   31.7260 H   0  0  0  0  0  0  0  0  0  0  0  0
   36.9910   24.4780   30.9680 H   0  0  0  0  0  0  0  0  0  0  0  0
   39.6260   23.0260   36.3430 C   0  0  0  0  0  0  0  0  0  0  0  0
   38.4440   23.6230   35.9860 C   0  0  0  0  0  0  0  0  0  0  0  0
   37.5830   24.0890   36.9580 C   0  0  0  0  0  0  0  0  0  0  0  0
   36.6340   24.5710   36.7670 H   0  0  0  0  0  0  0  0  0  0  0  0
   37.8850   23.9720   38.3040 C   0  0  0  0  0  0  0  0  0  0  0  0
   37.2490   24.3190   39.1210 H   0  0  0  0  0  0  0  0  0  0  0  0
   39.0670   23.3760   38.6990 C   0  0  0  0  0  3  0  0  0  0  0  0
   39.8990   22.9240   37.7100 C   0  0  0  0  0  3  0  0  0  0  0  0
   40.1080   21.7150   34.1430 H   0  0  0  0  0  0  0  0  0  0  0  0
   40.7290   22.4290   35.1300 S   0  0  0  0  0  0  0  0  0  0  0  0
   41.7110   21.4780   35.7920 O   0  0  0  0  0  0  0  0  0  0  0  0
   41.5730   23.5560   34.5980 O   0  0  0  0  0  0  0  0  0  0  0  0
  1 27  1  0  0  0  0
  1  6  1  0  0  0  0
  2  1  2  0  0  0  0
  3  2  1  0  0  0  0
  3  4  2  0  0  0  0
  4  5  1  0  0  0  0
  5  6  2  0  0  0  0
  5 11  1  0  0  0  0
  7  2  1  0  0  0  0
  8  3  1  0  0  0  0
  9  4  1  0  0  0  0
 10 18  1  0  0  0  0
 11 10  2  0  0  0  0
 11 12  1  0  0  0  0
 12 20  1  0  0  0  0
 12 13  2  0  0  0  0
 13 14  1  0  0  0  0
 14 21  1  0  0  0  0
 14 15  1  0  0  0  0
 15 22  1  0  0  0  0
 16 23  1  0  0  0  0
 16 15  2  0  0  0  0
 17 13  1  0  0  0  0
 17 16  1  0  0  0  0
 18 24  1  0  0  0  0
 18 17  2  0  0  0  0
 19 10  1  0  0  0  0
 25 30  1  0  0  0  0
 26 25  2  0  0  0  0
 26 27  1  0  0  0  0
 27 28  2  0  0  0  0
 28 29  1  0  0  0  0
 29 34  1  0  0  0  0
 30 29  2  0  0  0  0
 31 25  1  0  0  0  0
 32 26  1  0  0  0  0
 33 40  1  0  0  0  0
 34 33  2  0  0  0  0
 34 35  1  0  0  0  0
 35 37  2  0  0  0  0
 36 35  1  0  0  0  0
 37 39  1  0  0  0  0
 37 38  1  0  0  0  0
 40 39  2  0  0  0  0
 41 42  1  0  0  0  0
 42 43  2  0  0  0  0
 42 33  1  0  0  0  0
 44 42  2  0  0  0  0
M  END
>  <minimizedAffinity>
-7.27261066

$$$$

 OpenBabel03262522413D

 44 48  0  0  0  0  0  0  0  0999 V2000
   36.9610   27.0370   32.6910 C   0  0  0  0  0  0  0  0  0  0  0  0
   37.3160   27.6470   31.5090 C   0  0  0  0  0  0  0  0  0  0  0  0
   37.0600   28.9720   31.2370 C   0  0  0  0  0  0  0  0  0  0  0  0
   36.4230   29.7470   32.1650 C   0  0  0  0  0  0  0  0  0  0  0  0
   36.0810   29.1080   33.3340 C   0  0  0  0  0  0  0  0  0  0  0  0
   36.3290   27.8300   33.5950 N   0  0  0  0  0  0  0  0  0  0  0  0
   37.8230   26.9930   30.7970 H   0  0  0  0  0  0  0  0  0  0  0  0
   37.3900   29.3350   30.2710 H   0  0  0  0  0  0  0  0  0  0  0  0
   36.2270   30.7900   31.9390 H   0  0  0  0  0  0  0  0  0  0  0  0
   36.0250   30.7740   35.2200 C   0  0  0  0  0  0  0  0  0  0  0  0
   35.3990   29.8790   34.3640 C   0  0  0  0  0  0  0  0  0  0  0  0
   34.0380   29.7910   34.5950 C   0  0  0  0  0  0  0  0  0  0  0  0
   33.3360   30.4890   35.5470 C   0  0  0  0  0  0  0  0  0  0  0  0
   32.0400   30.5230   35.8980 N   0  0  0  0  0  0  0  0  0  0  0  0
   31.9040   31.3930   36.9070 C   0  0  0  0  0  0  0  0  0  0  0  0
   33.1220   31.9370   37.2260 C   0  0  0  0  0  0  0  0  0  0  0  0
   34.0240   31.3530   36.3510 C   0  0  0  0  0  0  0  0  0  0  0  0
   35.3760   31.4960   36.1880 C   0  0  0  0  0  0  0  0  0  0  0  0
   37.1100   30.9080   35.1090 H   0  0  0  0  0  0  0  0  0  0  0  0
   33.4530   29.1100   33.9690 H   0  0  0  0  0  0  0  0  0  0  0  0
   31.2710   29.9550   35.4440 H   0  0  0  0  0  0  0  0  0  0  0  0
   30.9660   31.6300   37.4000 H   0  0  0  0  0  0  0  0  0  0  0  0
   33.3310   32.6720   37.9990 H   0  0  0  0  0  0  0  0  0  0  0  0
   35.9100   32.1840   36.8300 H   0  0  0  0  0  0  0  0  0  0  0  0
   37.4040   23.3080   32.4480 C   0  0  0  0  0  0  0  0  0  0  0  0
   37.1040   24.6110   32.0410 C   0  0  0  0  0  0  0  0  0  0  0  0
   37.2350   25.6430   32.9680 C   0  0  0  0  0  0  0  0  0  0  0  0
   37.6470   25.3040   34.2130 N   0  0  0  0  0  0  0  0  0  0  0  0
   37.9330   24.0350   34.5870 C   0  0  0  0  0  0  0  0  0  0  0  0
   37.8060   23.0480   33.6940 N   0  0  0  0  0  0  0  0  0  0  0  0
   37.2800   22.5510   31.6750 H   0  0  0  0  0  0  0  0  0  0  0  0
   36.7710   24.8800   31.0310 H   0  0  0  0  0  0  0  0  0  0  0  0
   39.5480   23.1790   36.2600 C   0  0  0  0  0  0  0  0  0  0  0  0
   38.3680   23.8120   35.9640 C   0  0  0  0  0  0  0  0  0  0  0  0
   37.5480   24.2590   36.9790 C   0  0  0  0  0  0  0  0  0  0  0  0
   36.6040   24.7670   36.8360 H   0  0  0  0  0  0  0  0  0  0  0  0
   37.8900   24.0860   38.3090 C   0  0  0  0  0  0  0  0  0  0  0  0
   37.2870   24.4160   39.1580 H   0  0  0  0  0  0  0  0  0  0  0  0
   39.0700   23.4530   38.6440 C   0  0  0  0  0  3  0  0  0  0  0  0
   39.8610   23.0200   37.6130 C   0  0  0  0  0  3  0  0  0  0  0  0
   39.9290   21.9570   33.9910 H   0  0  0  0  0  0  0  0  0  0  0  0
   40.5980   22.6050   34.9910 S   0  0  0  0  0  0  0  0  0  0  0  0
   41.5660   21.5940   35.5820 O   0  0  0  0  0  0  0  0  0  0  0  0
   41.4650   23.7290   34.4880 O   0  0  0  0  0  0  0  0  0  0  0  0
  1 27  1  0  0  0  0
  1  6  1  0  0  0  0
  2  1  2  0  0  0  0
  3  2  1  0  0  0  0
  3  4  2  0  0  0  0
  4  5  1  0  0  0  0
  5  6  2  0  0  0  0
  5 11  1  0  0  0  0
  7  2  1  0  0  0  0
  8  3  1  0  0  0  0
  9  4  1  0  0  0  0
 10 18  1  0  0  0  0
 11 12  1  0  0  0  0
 11 10  2  0  0  0  0
 12 13  2  0  0  0  0
 13 14  1  0  0  0  0
 13 17  1  0  0  0  0
 14 15  1  0  0  0  0
 15 16  2  0  0  0  0
 15 22  1  0  0  0  0
 16 23  1  0  0  0  0
 17 16  1  0  0  0  0
 18 17  2  0  0  0  0
 18 24  1  0  0  0  0
 19 10  1  0  0  0  0
 20 12  1  0  0  0  0
 21 14  1  0  0  0  0
 25 30  1  0  0  0  0
 26 25  2  0  0  0  0
 26 27  1  0  0  0  0
 27 28  2  0  0  0  0
 28 29  1  0  0  0  0
 29 34  1  0  0  0  0
 30 29  2  0  0  0  0
 31 25  1  0  0  0  0
 32 26  1  0  0  0  0
 33 40  1  0  0  0  0
 34 33  2  0  0  0  0
 34 35  1  0  0  0  0
 35 37  2  0  0  0  0
 36 35  1  0  0  0  0
 37 39  1  0  0  0  0
 37 38  1  0  0  0  0
 40 39  2  0  0  0  0
 41 42  1  0  0  0  0
 42 43  2  0  0  0  0
 42 33  1  0  0  0  0
 44 42  2  0  0  0  0
M  END
>  <minimizedAffinity>
-7.24589539

$$$$

 OpenBabel03262522413D

 44 48  0  0  0  0  0  0  0  0999 V2000
   36.4180   26.5790   32.0300 C   0  0  0  0  0  0  0  0  0  0  0  0
   35.7290   25.6420   31.2940 C   0  0  0  0  0  0  0  0  0  0  0  0
   35.9690   24.2890   31.3790 C   0  0  0  0  0  0  0  0  0  0  0  0
   36.9330   23.8210   32.2270 C   0  0  0  0  0  0  0  0  0  0  0  0
   37.6030   24.7820   32.9480 C   0  0  0  0  0  0  0  0  0  0  0  0
   37.3700   26.0870   32.8650 N   0  0  0  0  0  0  0  0  0  0  0  0
   34.9690   26.0580   30.6300 H   0  0  0  0  0  0  0  0  0  0  0  0
   35.3590   23.6540   30.7480 H   0  0  0  0  0  0  0  0  0  0  0  0
   37.1120   22.7530   32.2860 H   0  0  0  0  0  0  0  0  0  0  0  0
   39.9830   24.6860   33.7590 C   0  0  0  0  0  0  0  0  0  0  0  0
   38.6420   24.3480   33.8710 C   0  0  0  0  0  0  0  0  0  0  0  0
   38.3900   23.5410   34.9660 C   0  0  0  0  0  0  0  0  0  0  0  0
   39.3230   23.0980   35.8720 C   0  0  0  0  0  0  0  0  0  0  0  0
   39.2500   22.3270   36.9690 N   0  0  0  0  0  0  0  0  0  0  0  0
   40.4820   22.2130   37.4810 C   0  0  0  0  0  0  0  0  0  0  0  0
   41.3760   22.9170   36.7150 C   0  0  0  0  0  0  0  0  0  0  0  0
   40.6240   23.4750   35.6940 C   0  0  0  0  0  0  0  0  0  0  0  0
   40.9570   24.2730   34.6320 C   0  0  0  0  0  0  0  0  0  0  0  0
   40.2770   25.3250   32.9150 H   0  0  0  0  0  0  0  0  0  0  0  0
   37.3580   23.2200   35.1420 H   0  0  0  0  0  0  0  0  0  0  0  0
   38.3640   21.8910   37.3500 H   0  0  0  0  0  0  0  0  0  0  0  0
   40.7340   21.6470   38.3730 H   0  0  0  0  0  0  0  0  0  0  0  0
   42.4470   23.0140   36.8780 H   0  0  0  0  0  0  0  0  0  0  0  0
   41.9900   24.5650   34.5020 H   0  0  0  0  0  0  0  0  0  0  0  0
   36.0600   30.1290   30.8360 C   0  0  0  0  0  0  0  0  0  0  0  0
   36.3540   28.7640   30.7860 C   0  0  0  0  0  0  0  0  0  0  0  0
   36.1580   28.0000   31.9330 C   0  0  0  0  0  0  0  0  0  0  0  0
   35.6910   28.6440   33.0300 N   0  0  0  0  0  0  0  0  0  0  0  0
   35.4120   29.9670   33.0580 C   0  0  0  0  0  0  0  0  0  0  0  0
   35.6010   30.6980   31.9540 N   0  0  0  0  0  0  0  0  0  0  0  0
   36.2360   30.6670   29.9050 H   0  0  0  0  0  0  0  0  0  0  0  0
   36.7320   28.2470   29.8940 H   0  0  0  0  0  0  0  0  0  0  0  0
   33.5920   30.4540   34.6680 C   0  0  0  0  0  0  0  0  0  0  0  0
   34.9130   30.5330   34.3090 C   0  0  0  0  0  0  0  0  0  0  0  0
   35.8190   31.1620   35.1380 C   0  0  0  0  0  0  0  0  0  0  0  0
   36.8760   31.2690   34.9340 H   0  0  0  0  0  0  0  0  0  0  0  0
   35.4260   31.7230   36.3410 C   0  0  0  0  0  0  0  0  0  0  0  0
   36.0910   32.2330   37.0410 H   0  0  0  0  0  0  0  0  0  0  0  0
   34.1040   31.6620   36.7340 C   0  0  0  0  0  3  0  0  0  0  0  0
   33.2290   31.0310   35.8880 C   0  0  0  0  0  3  0  0  0  0  0  0
   32.9500   28.5950   32.9600 H   0  0  0  0  0  0  0  0  0  0  0  0
   32.4300   29.6640   33.6340 S   0  0  0  0  0  0  0  0  0  0  0  0
   31.9690   30.6530   32.5770 O   0  0  0  0  0  0  0  0  0  0  0  0
   31.1900   29.3200   34.4170 O   0  0  0  0  0  0  0  0  0  0  0  0
  1  6  1  0  0  0  0
  2  3  1  0  0  0  0
  2  1  2  0  0  0  0
  3  4  2  0  0  0  0
  4  9  1  0  0  0  0
  4  5  1  0  0  0  0
  5 11  1  0  0  0  0
  6  5  2  0  0  0  0
  7  2  1  0  0  0  0
  8  3  1  0  0  0  0
 10 11  2  0  0  0  0
 10 18  1  0  0  0  0
 11 12  1  0  0  0  0
 12 20  1  0  0  0  0
 12 13  2  0  0  0  0
 13 14  1  0  0  0  0
 14 21  1  0  0  0  0
 14 15  1  0  0  0  0
 15 22  1  0  0  0  0
 16 23  1  0  0  0  0
 16 15  2  0  0  0  0
 17 13  1  0  0  0  0
 17 16  1  0  0  0  0
 18 17  2  0  0  0  0
 19 10  1  0  0  0  0
 24 18  1  0  0  0  0
 25 30  1  0  0  0  0
 26 25  2  0  0  0  0
 26 27  1  0  0  0  0
 27  1  1  0  0  0  0
 27 28  2  0  0  0  0
 28 29  1  0  0  0  0
 29 34  1  0  0  0  0
 30 29  2  0  0  0  0
 31 25  1  0  0  0  0
 32 26  1  0  0  0  0
 33 40  1  0  0  0  0
 34 33  2  0  0  0  0
 34 35  1  0  0  0  0
 35 37  2  0  0  0  0
 36 35  1  0  0  0  0
 37 39  1  0  0  0  0
 37 38  1  0  0  0  0
 40 39  2  0  0  0  0
 41 42  1  0  0  0  0
 42 44  2  0  0  0  0
 42 33  1  0  0  0  0
 43 42  2  0  0  0  0
M  END
>  <minimizedAffinity>
-7.15677214

$$$$

 OpenBabel03262522413D

 44 48  0  0  0  0  0  0  0  0999 V2000
   37.3680   26.6610   33.5160 C   0  0  0  0  0  0  0  0  0  0  0  0
   38.2790   26.5570   34.5420 C   0  0  0  0  0  0  0  0  0  0  0  0
   38.8420   25.3630   34.9340 C   0  0  0  0  0  0  0  0  0  0  0  0
   38.4980   24.2060   34.2930 C   0  0  0  0  0  0  0  0  0  0  0  0
   37.5860   24.3440   33.2730 C   0  0  0  0  0  0  0  0  0  0  0  0
   37.0440   25.4970   32.8960 N   0  0  0  0  0  0  0  0  0  0  0  0
   38.5260   27.5040   35.0270 H   0  0  0  0  0  0  0  0  0  0  0  0
   39.5470   25.4120   35.7550 H   0  0  0  0  0  0  0  0  0  0  0  0
   38.9480   23.2720   34.6110 H   0  0  0  0  0  0  0  0  0  0  0  0
   36.0410   23.0570   31.7600 C   0  0  0  0  0  0  0  0  0  0  0  0
   37.1780   23.1480   32.5490 C   0  0  0  0  0  0  0  0  0  0  0  0
   37.8970   21.9660   32.5800 C   0  0  0  0  0  0  0  0  0  0  0  0
   37.5680   20.8060   31.9220 C   0  0  0  0  0  0  0  0  0  0  0  0
   38.1420   19.5950   31.8450 N   0  0  0  0  0  0  0  0  0  0  0  0
   37.3860   18.8250   31.0510 C   0  0  0  0  0  0  0  0  0  0  0  0
   36.3030   19.5360   30.6010 C   0  0  0  0  0  0  0  0  0  0  0  0
   36.4320   20.7960   31.1630 C   0  0  0  0  0  0  0  0  0  0  0  0
   35.6630   21.9260   31.0810 C   0  0  0  0  0  0  0  0  0  0  0  0
   35.4070   23.9500   31.6770 H   0  0  0  0  0  0  0  0  0  0  0  0
   38.8140   21.9370   33.1780 H   0  0  0  0  0  0  0  0  0  0  0  0
   39.0380   19.3130   32.3330 H   0  0  0  0  0  0  0  0  0  0  0  0
   37.6010   17.7900   30.8020 H   0  0  0  0  0  0  0  0  0  0  0  0
   35.5140   19.1830   29.9420 H   0  0  0  0  0  0  0  0  0  0  0  0
   34.7660   21.9060   30.4770 H   0  0  0  0  0  0  0  0  0  0  0  0
   36.2220   29.6730   31.5720 C   0  0  0  0  0  0  0  0  0  0  0  0
   36.8320   28.4400   31.8200 C   0  0  0  0  0  0  0  0  0  0  0  0
   36.7830   27.9230   33.1120 C   0  0  0  0  0  0  0  0  0  0  0  0
   36.1400   28.6620   34.0470 N   0  0  0  0  0  0  0  0  0  0  0  0
   35.5550   29.8540   33.7870 C   0  0  0  0  0  0  0  0  0  0  0  0
   35.6040   30.3470   32.5440 N   0  0  0  0  0  0  0  0  0  0  0  0
   36.2980   30.0190   30.5420 H   0  0  0  0  0  0  0  0  0  0  0  0
   37.3520   27.8450   31.0570 H   0  0  0  0  0  0  0  0  0  0  0  0
   33.5480   30.4240   35.1250 C   0  0  0  0  0  0  0  0  0  0  0  0
   34.8940   30.5450   34.8910 C   0  0  0  0  0  0  0  0  0  0  0  0
   35.6700   31.3400   35.7090 C   0  0  0  0  0  0  0  0  0  0  0  0
   36.7350   31.4920   35.5980 H   0  0  0  0  0  0  0  0  0  0  0  0
   35.1190   32.0280   36.7770 C   0  0  0  0  0  0  0  0  0  0  0  0
   35.6760   32.6720   37.4610 H   0  0  0  0  0  0  0  0  0  0  0  0
   33.7680   31.9290   37.0410 C   0  0  0  0  0  3  0  0  0  0  0  0
   33.0250   31.1320   36.2100 C   0  0  0  0  0  3  0  0  0  0  0  0
   33.2130   28.3430   33.5930 H   0  0  0  0  0  0  0  0  0  0  0  0
   32.5490   29.4240   34.1020 S   0  0  0  0  0  0  0  0  0  0  0  0
   32.0980   30.2480   32.9080 O   0  0  0  0  0  0  0  0  0  0  0  0
   31.2810   29.0510   34.8220 O   0  0  0  0  0  0  0  0  0  0  0  0
  1  2  1  0  0  0  0
  2  3  2  0  0  0  0
  2  7  1  0  0  0  0
  3  8  1  0  0  0  0
  4  9  1  0  0  0  0
  4  3  1  0  0  0  0
  5  4  2  0  0  0  0
  6  5  1  0  0  0  0
  6  1  2  0  0  0  0
 10 11  1  0  0  0  0
 11 12  2  0  0  0  0
 11  5  1  0  0  0  0
 12 20  1  0  0  0  0
 13 12  1  0  0  0  0
 14 13  1  0  0  0  0
 14 21  1  0  0  0  0
 15 14  1  0  0  0  0
 16 15  2  0  0  0  0
 16 17  1  0  0  0  0
 17 13  2  0  0  0  0
 18 17  1  0  0  0  0
 18 10  2  0  0  0  0
 19 10  1  0  0  0  0
 22 15  1  0  0  0  0
 23 16  1  0  0  0  0
 24 18  1  0  0  0  0
 25 26  2  0  0  0  0
 25 30  1  0  0  0  0
 26 27  1  0  0  0  0
 27  1  1  0  0  0  0
 27 28  2  0  0  0  0
 29 28  1  0  0  0  0
 29 34  1  0  0  0  0
 30 29  2  0  0  0  0
 31 25  1  0  0  0  0
 32 26  1  0  0  0  0
 33 40  1  0  0  0  0
 34 33  2  0  0  0  0
 34 35  1  0  0  0  0
 35 37  2  0  0  0  0
 36 35  1  0  0  0  0
 37 39  1  0  0  0  0
 37 38  1  0  0  0  0
 40 39  2  0  0  0  0
 41 42  1  0  0  0  0
 42 44  2  0  0  0  0
 42 33  1  0  0  0  0
 43 42  2  0  0  0  0
M  END
>  <minimizedAffinity>
-6.90699768

$$$$

 OpenBabel03262522413D

 44 48  0  0  0  0  0  0  0  0999 V2000
   37.3970   25.9120   32.3300 C   0  0  0  0  0  0  0  0  0  0  0  0
   38.0700   26.4080   31.2370 C   0  0  0  0  0  0  0  0  0  0  0  0
   38.0120   27.7280   30.8500 C   0  0  0  0  0  0  0  0  0  0  0  0
   37.2580   28.6150   31.5650 C   0  0  0  0  0  0  0  0  0  0  0  0
   36.5980   28.0880   32.6510 C   0  0  0  0  0  0  0  0  0  0  0  0
   36.6540   26.8140   33.0230 N   0  0  0  0  0  0  0  0  0  0  0  0
   38.6610   25.6670   30.6950 H   0  0  0  0  0  0  0  0  0  0  0  0
   38.5880   27.9960   29.9720 H   0  0  0  0  0  0  0  0  0  0  0  0
   37.2200   29.6520   31.2510 H   0  0  0  0  0  0  0  0  0  0  0  0
   34.4120   29.1650   33.2810 C   0  0  0  0  0  0  0  0  0  0  0  0
   35.7760   28.9810   33.4560 C   0  0  0  0  0  0  0  0  0  0  0  0
   36.2850   29.7480   34.4890 C   0  0  0  0  0  0  0  0  0  0  0  0
   35.5660   30.6070   35.2840 C   0  0  0  0  0  0  0  0  0  0  0  0
   35.8950   31.4100   36.3090 N   0  0  0  0  0  0  0  0  0  0  0  0
   34.7850   32.0360   36.7210 C   0  0  0  0  0  0  0  0  0  0  0  0
   33.7140   31.6430   35.9610 C   0  0  0  0  0  0  0  0  0  0  0  0
   34.2260   30.7330   35.0490 C   0  0  0  0  0  0  0  0  0  0  0  0
   33.6450   30.0090   34.0430 C   0  0  0  0  0  0  0  0  0  0  0  0
   33.9210   28.5950   32.4800 H   0  0  0  0  0  0  0  0  0  0  0  0
   37.3550   29.6730   34.7070 H   0  0  0  0  0  0  0  0  0  0  0  0
   36.8690   31.5170   36.7100 H   0  0  0  0  0  0  0  0  0  0  0  0
   34.7430   32.7500   37.5380 H   0  0  0  0  0  0  0  0  0  0  0  0
   32.6830   31.9750   36.0560 H   0  0  0  0  0  0  0  0  0  0  0  0
   32.5830   30.1160   33.8670 H   0  0  0  0  0  0  0  0  0  0  0  0
   36.8320   22.2090   32.6930 C   0  0  0  0  0  0  0  0  0  0  0  0
   36.6570   23.5100   32.2140 C   0  0  0  0  0  0  0  0  0  0  0  0
   37.4640   24.5210   32.7290 C   0  0  0  0  0  0  0  0  0  0  0  0
   38.3720   24.1660   33.6690 N   0  0  0  0  0  0  0  0  0  0  0  0
   38.5270   22.9000   34.1200 C   0  0  0  0  0  0  0  0  0  0  0  0
   37.7500   21.9310   33.6220 N   0  0  0  0  0  0  0  0  0  0  0  0
   36.1690   21.4680   32.2490 H   0  0  0  0  0  0  0  0  0  0  0  0
   35.9200   23.7920   31.4520 H   0  0  0  0  0  0  0  0  0  0  0  0
   39.3000   22.8470   36.4730 C   0  0  0  0  0  0  0  0  0  0  0  0
   39.5460   22.6570   35.1380 C   0  0  0  0  0  0  0  0  0  0  0  0
   40.7870   22.2260   34.7170 C   0  0  0  0  0  0  0  0  0  0  0  0
   41.0660   22.0510   33.6870 H   0  0  0  0  0  0  0  0  0  0  0  0
   41.8060   21.9740   35.6190 C   0  0  0  0  0  0  0  0  0  0  0  0
   42.8080   21.6320   35.3520 H   0  0  0  0  0  0  0  0  0  0  0  0
   41.5930   22.1550   36.9720 C   0  0  0  0  0  3  0  0  0  0  0  0
   40.3510   22.5840   37.3570 C   0  0  0  0  0  3  0  0  0  0  0  0
   36.7030   22.9130   36.2740 H   0  0  0  0  0  0  0  0  0  0  0  0
   37.7380   23.3930   37.0270 S   0  0  0  0  0  0  0  0  0  0  0  0
   37.6840   24.9070   36.9110 O   0  0  0  0  0  0  0  0  0  0  0  0
   37.5800   23.1070   38.4960 O   0  0  0  0  0  0  0  0  0  0  0  0
  1 27  1  0  0  0  0
  1  6  1  0  0  0  0
  2  1  2  0  0  0  0
  3  2  1  0  0  0  0
  3  4  2  0  0  0  0
  4  5  1  0  0  0  0
  5  6  2  0  0  0  0
  5 11  1  0  0  0  0
  7  2  1  0  0  0  0
  8  3  1  0  0  0  0
  9  4  1  0  0  0  0
 10 11  2  0  0  0  0
 10 18  1  0  0  0  0
 11 12  1  0  0  0  0
 12 20  1  0  0  0  0
 12 13  2  0  0  0  0
 13 14  1  0  0  0  0
 14 21  1  0  0  0  0
 14 15  1  0  0  0  0
 15 22  1  0  0  0  0
 16 23  1  0  0  0  0
 16 15  2  0  0  0  0
 17 13  1  0  0  0  0
 17 16  1  0  0  0  0
 18 17  2  0  0  0  0
 19 10  1  0  0  0  0
 24 18  1  0  0  0  0
 25 30  1  0  0  0  0
 26 25  2  0  0  0  0
 26 27  1  0  0  0  0
 27 28  2  0  0  0  0
 28 29  1  0  0  0  0
 29 34  1  0  0  0  0
 30 29  2  0  0  0  0
 31 25  1  0  0  0  0
 32 26  1  0  0  0  0
 33 42  1  0  0  0  0
 33 40  1  0  0  0  0
 34 33  2  0  0  0  0
 35 34  1  0  0  0  0
 35 37  2  0  0  0  0
 36 35  1  0  0  0  0
 37 39  1  0  0  0  0
 38 37  1  0  0  0  0
 39 40  2  0  0  0  0
 41 42  1  0  0  0  0
 42 44  2  0  0  0  0
 43 42  2  0  0  0  0
M  END
>  <minimizedAffinity>
-6.78526115

$$$$

 OpenBabel03262522413D

 44 48  0  0  0  0  0  0  0  0999 V2000
   37.1880   27.9470   31.8940 C   0  0  0  0  0  0  0  0  0  0  0  0
   37.0050   28.5630   30.6770 C   0  0  0  0  0  0  0  0  0  0  0  0
   36.2510   29.7040   30.5150 C   0  0  0  0  0  0  0  0  0  0  0  0
   35.6400   30.2760   31.5950 C   0  0  0  0  0  0  0  0  0  0  0  0
   35.8430   29.6360   32.7960 C   0  0  0  0  0  0  0  0  0  0  0  0
   36.5700   28.5350   32.9510 N   0  0  0  0  0  0  0  0  0  0  0  0
   37.5090   28.0750   29.8420 H   0  0  0  0  0  0  0  0  0  0  0  0
   36.1830   30.0940   29.5060 H   0  0  0  0  0  0  0  0  0  0  0  0
   35.0490   31.1740   31.4550 H   0  0  0  0  0  0  0  0  0  0  0  0
   35.8700   30.9990   34.9110 C   0  0  0  0  0  0  0  0  0  0  0  0
   35.2190   30.1950   33.9870 C   0  0  0  0  0  0  0  0  0  0  0  0
   33.8940   29.9750   34.3190 C   0  0  0  0  0  0  0  0  0  0  0  0
   33.2470   30.4720   35.4240 C   0  0  0  0  0  0  0  0  0  0  0  0
   31.9910   30.3590   35.8870 N   0  0  0  0  0  0  0  0  0  0  0  0
   31.9020   31.0600   37.0250 C   0  0  0  0  0  0  0  0  0  0  0  0
   33.1100   31.6400   37.3150 C   0  0  0  0  0  0  0  0  0  0  0  0
   33.9570   31.2580   36.2870 C   0  0  0  0  0  0  0  0  0  0  0  0
   35.2760   31.5230   36.0310 C   0  0  0  0  0  0  0  0  0  0  0  0
   36.9290   31.2280   34.7280 H   0  0  0  0  0  0  0  0  0  0  0  0
   33.2930   29.3500   33.6500 H   0  0  0  0  0  0  0  0  0  0  0  0
   31.2170   29.8080   35.4200 H   0  0  0  0  0  0  0  0  0  0  0  0
   31.0030   31.1520   37.6270 H   0  0  0  0  0  0  0  0  0  0  0  0
   33.3490   32.2680   38.1700 H   0  0  0  0  0  0  0  0  0  0  0  0
   35.8270   32.1470   36.7210 H   0  0  0  0  0  0  0  0  0  0  0  0
   40.0110   25.4920   32.3000 C   0  0  0  0  0  0  0  0  0  0  0  0
   39.3730   26.7260   32.1470 C   0  0  0  0  0  0  0  0  0  0  0  0
   37.9840   26.7470   32.0540 C   0  0  0  0  0  0  0  0  0  0  0  0
   37.3430   25.5560   32.1190 N   0  0  0  0  0  0  0  0  0  0  0  0
   37.9800   24.3710   32.2680 C   0  0  0  0  0  0  0  0  0  0  0  0
   39.3140   24.3550   32.3570 N   0  0  0  0  0  0  0  0  0  0  0  0
   41.0970   25.5470   32.3650 H   0  0  0  0  0  0  0  0  0  0  0  0
   39.8970   27.6890   32.0950 H   0  0  0  0  0  0  0  0  0  0  0  0
   37.1470   22.3440   33.4250 C   0  0  0  0  0  0  0  0  0  0  0  0
   37.1640   23.1600   32.3220 C   0  0  0  0  0  0  0  0  0  0  0  0
   36.3980   22.8500   31.2190 C   0  0  0  0  0  0  0  0  0  0  0  0
   36.3510   23.4350   30.3110 H   0  0  0  0  0  0  0  0  0  0  0  0
   35.5980   21.7200   31.1920 C   0  0  0  0  0  0  0  0  0  0  0  0
   34.9690   21.4180   30.3520 H   0  0  0  0  0  0  0  0  0  0  0  0
   35.5560   20.8750   32.2840 C   0  0  0  0  0  3  0  0  0  0  0  0
   36.3290   21.2120   33.3640 C   0  0  0  0  0  3  0  0  0  0  0  0
   38.4430   24.0410   34.9170 H   0  0  0  0  0  0  0  0  0  0  0  0
   38.1100   22.7180   34.8300 S   0  0  0  0  0  0  0  0  0  0  0  0
   39.4190   21.9530   34.7410 O   0  0  0  0  0  0  0  0  0  0  0  0
   37.4360   22.1980   36.0720 O   0  0  0  0  0  0  0  0  0  0  0  0
  1 27  1  0  0  0  0
  1  6  1  0  0  0  0
  2  1  2  0  0  0  0
  3  2  1  0  0  0  0
  3  4  2  0  0  0  0
  4  5  1  0  0  0  0
  5  6  2  0  0  0  0
  5 11  1  0  0  0  0
  7  2  1  0  0  0  0
  8  3  1  0  0  0  0
  9  4  1  0  0  0  0
 10 18  1  0  0  0  0
 11 12  1  0  0  0  0
 11 10  2  0  0  0  0
 12 13  2  0  0  0  0
 13 14  1  0  0  0  0
 13 17  1  0  0  0  0
 14 15  1  0  0  0  0
 15 16  2  0  0  0  0
 15 22  1  0  0  0  0
 16 23  1  0  0  0  0
 17 16  1  0  0  0  0
 18 17  2  0  0  0  0
 18 24  1  0  0  0  0
 19 10  1  0  0  0  0
 20 12  1  0  0  0  0
 21 14  1  0  0  0  0
 25 30  1  0  0  0  0
 25 31  1  0  0  0  0
 26 25  2  0  0  0  0
 27 28  2  0  0  0  0
 27 26  1  0  0  0  0
 28 29  1  0  0  0  0
 29 34  1  0  0  0  0
 29 30  2  0  0  0  0
 32 26  1  0  0  0  0
 33 42  1  0  0  0  0
 34 33  2  0  0  0  0
 35 34  1  0  0  0  0
 36 35  1  0  0  0  0
 37 35  2  0  0  0  0
 37 39  1  0  0  0  0
 38 37  1  0  0  0  0
 39 40  2  0  0  0  0
 40 33  1  0  0  0  0
 42 41  1  0  0  0  0
 42 44  2  0  0  0  0
 43 42  2  0  0  0  0
M  END
>  <minimizedAffinity>
-6.70267725

$$$$

 OpenBabel03262522413D

 44 48  0  0  0  0  0  0  0  0999 V2000
   36.8830   28.2650   32.2400 C   0  0  0  0  0  0  0  0  0  0  0  0
   37.8170   28.2190   31.2290 C   0  0  0  0  0  0  0  0  0  0  0  0
   38.8450   27.3040   31.1930 C   0  0  0  0  0  0  0  0  0  0  0  0
   38.9720   26.3820   32.1940 C   0  0  0  0  0  0  0  0  0  0  0  0
   38.0240   26.4550   33.1880 C   0  0  0  0  0  0  0  0  0  0  0  0
   37.0330   27.3390   33.2220 N   0  0  0  0  0  0  0  0  0  0  0  0
   37.6790   28.9710   30.4510 H   0  0  0  0  0  0  0  0  0  0  0  0
   39.5150   27.3700   30.3440 H   0  0  0  0  0  0  0  0  0  0  0  0
   39.7860   25.6660   32.1530 H   0  0  0  0  0  0  0  0  0  0  0  0
   38.2780   24.1330   34.1240 C   0  0  0  0  0  0  0  0  0  0  0  0
   38.1040   25.5000   34.2840 C   0  0  0  0  0  0  0  0  0  0  0  0
   38.0100   25.8700   35.6140 C   0  0  0  0  0  0  0  0  0  0  0  0
   38.0780   25.0210   36.6920 C   0  0  0  0  0  0  0  0  0  0  0  0
   38.0080   25.2080   38.0200 N   0  0  0  0  0  0  0  0  0  0  0  0
   38.1340   24.0170   38.6170 C   0  0  0  0  0  0  0  0  0  0  0  0
   38.2900   23.0330   37.6740 C   0  0  0  0  0  0  0  0  0  0  0  0
   38.2520   23.6870   36.4530 C   0  0  0  0  0  0  0  0  0  0  0  0
   38.3520   23.2400   35.1630 C   0  0  0  0  0  0  0  0  0  0  0  0
   38.3620   23.7480   33.0990 H   0  0  0  0  0  0  0  0  0  0  0  0
   37.8710   26.9310   35.8450 H   0  0  0  0  0  0  0  0  0  0  0  0
   37.8750   26.1440   38.4970 H   0  0  0  0  0  0  0  0  0  0  0  0
   38.1170   23.8550   39.6910 H   0  0  0  0  0  0  0  0  0  0  0  0
   38.4160   21.9680   37.8500 H   0  0  0  0  0  0  0  0  0  0  0  0
   38.4900   22.1810   34.9860 H   0  0  0  0  0  0  0  0  0  0  0  0
   34.4020   30.9600   31.3810 C   0  0  0  0  0  0  0  0  0  0  0  0
   35.4690   30.0730   31.2120 C   0  0  0  0  0  0  0  0  0  0  0  0
   35.8060   29.2320   32.2690 C   0  0  0  0  0  0  0  0  0  0  0  0
   35.0660   29.3360   33.3990 N   0  0  0  0  0  0  0  0  0  0  0  0
   34.0360   30.2010   33.5430 C   0  0  0  0  0  0  0  0  0  0  0  0
   33.7150   31.0070   32.5250 N   0  0  0  0  0  0  0  0  0  0  0  0
   34.1920   31.5890   30.5160 H   0  0  0  0  0  0  0  0  0  0  0  0
   36.0640   29.9940   30.2940 H   0  0  0  0  0  0  0  0  0  0  0  0
   33.6780   31.0440   35.8450 C   0  0  0  0  0  0  0  0  0  0  0  0
   33.3230   30.2070   34.8180 C   0  0  0  0  0  0  0  0  0  0  0  0
   32.2660   29.3350   34.9680 C   0  0  0  0  0  0  0  0  0  0  0  0
   31.9190   28.6430   34.2130 H   0  0  0  0  0  0  0  0  0  0  0  0
   31.5390   29.2800   36.1460 C   0  0  0  0  0  0  0  0  0  0  0  0
   30.6930   28.6150   36.3290 H   0  0  0  0  0  0  0  0  0  0  0  0
   31.8680   30.1080   37.2010 C   0  0  0  0  0  3  0  0  0  0  0  0
   32.9240   30.9620   37.0200 C   0  0  0  0  0  3  0  0  0  0  0  0
   35.1020   32.7000   34.4260 H   0  0  0  0  0  0  0  0  0  0  0  0
   35.0120   32.1540   35.6760 S   0  0  0  0  0  0  0  0  0  0  0  0
   36.3080   31.3940   35.9040 O   0  0  0  0  0  0  0  0  0  0  0  0
   34.9670   33.1890   36.7680 O   0  0  0  0  0  0  0  0  0  0  0  0
  1 27  1  0  0  0  0
  1  6  1  0  0  0  0
  2  1  2  0  0  0  0
  3  2  1  0  0  0  0
  3  4  2  0  0  0  0
  4  5  1  0  0  0  0
  5  6  2  0  0  0  0
  5 11  1  0  0  0  0
  7  2  1  0  0  0  0
  8  3  1  0  0  0  0
  9  4  1  0  0  0  0
 10 11  2  0  0  0  0
 10 18  1  0  0  0  0
 11 12  1  0  0  0  0
 12 20  1  0  0  0  0
 12 13  2  0  0  0  0
 13 14  1  0  0  0  0
 14 21  1  0  0  0  0
 14 15  1  0  0  0  0
 15 22  1  0  0  0  0
 16 23  1  0  0  0  0
 16 15  2  0  0  0  0
 17 13  1  0  0  0  0
 17 16  1  0  0  0  0
 18 17  2  0  0  0  0
 19 10  1  0  0  0  0
 24 18  1  0  0  0  0
 25 30  1  0  0  0  0
 26 25  2  0  0  0  0
 26 27  1  0  0  0  0
 27 28  2  0  0  0  0
 28 29  1  0  0  0  0
 29 34  1  0  0  0  0
 30 29  2  0  0  0  0
 31 25  1  0  0  0  0
 32 26  1  0  0  0  0
 33 40  1  0  0  0  0
 34 35  1  0  0  0  0
 34 33  2  0  0  0  0
 35 37  2  0  0  0  0
 36 35  1  0  0  0  0
 37 38  1  0  0  0  0
 37 39  1  0  0  0  0
 40 39  2  0  0  0  0
 41 42  1  0  0  0  0
 42 33  1  0  0  0  0
 42 43  2  0  0  0  0
 42 44  2  0  0  0  0
M  END
>  <minimizedAffinity>
-6.68179083

$$$$

 OpenBabel03262522413D

 44 48  0  0  0  0  0  0  0  0999 V2000
   36.9960   27.0460   32.9600 C   0  0  0  0  0  0  0  0  0  0  0  0
   37.0040   27.4500   31.6440 C   0  0  0  0  0  0  0  0  0  0  0  0
   36.4750   28.6480   31.2190 C   0  0  0  0  0  0  0  0  0  0  0  0
   35.9060   29.5000   32.1240 C   0  0  0  0  0  0  0  0  0  0  0  0
   35.9140   29.0670   33.4300 C   0  0  0  0  0  0  0  0  0  0  0  0
   36.4250   27.9100   33.8380 N   0  0  0  0  0  0  0  0  0  0  0  0
   37.4670   26.7410   30.9560 H   0  0  0  0  0  0  0  0  0  0  0  0
   36.5430   28.8520   30.1570 H   0  0  0  0  0  0  0  0  0  0  0  0
   35.4940   30.4410   31.7770 H   0  0  0  0  0  0  0  0  0  0  0  0
   36.0450   30.7790   35.2690 C   0  0  0  0  0  0  0  0  0  0  0  0
   35.3240   29.9290   34.4430 C   0  0  0  0  0  0  0  0  0  0  0  0
   33.9630   29.9850   34.6860 C   0  0  0  0  0  0  0  0  0  0  0  0
   33.3430   30.7750   35.6240 C   0  0  0  0  0  0  0  0  0  0  0  0
   32.0610   30.9480   35.9840 N   0  0  0  0  0  0  0  0  0  0  0  0
   32.0230   31.8530   36.9690 C   0  0  0  0  0  0  0  0  0  0  0  0
   33.2920   32.2810   37.2640 C   0  0  0  0  0  0  0  0  0  0  0  0
   34.1230   31.5860   36.3990 C   0  0  0  0  0  0  0  0  0  0  0  0
   35.4810   31.5890   36.2220 C   0  0  0  0  0  0  0  0  0  0  0  0
   37.1360   30.8010   35.1460 H   0  0  0  0  0  0  0  0  0  0  0  0
   33.3060   29.3490   34.0830 H   0  0  0  0  0  0  0  0  0  0  0  0
   31.2340   30.4480   35.5510 H   0  0  0  0  0  0  0  0  0  0  0  0
   31.1180   32.1960   37.4620 H   0  0  0  0  0  0  0  0  0  0  0  0
   33.5820   33.0120   38.0150 H   0  0  0  0  0  0  0  0  0  0  0  0
   36.0870   32.2360   36.8410 H   0  0  0  0  0  0  0  0  0  0  0  0
   38.9550   24.3610   34.7240 C   0  0  0  0  0  0  0  0  0  0  0  0
   38.5030   25.6450   34.4070 C   0  0  0  0  0  0  0  0  0  0  0  0
   37.5550   25.7830   33.3960 C   0  0  0  0  0  0  0  0  0  0  0  0
   37.1350   24.6490   32.7850 N   0  0  0  0  0  0  0  0  0  0  0  0
   37.5850   23.4150   33.1080 C   0  0  0  0  0  0  0  0  0  0  0  0
   38.4960   23.2860   34.0790 N   0  0  0  0  0  0  0  0  0  0  0  0
   39.6960   24.3240   35.5220 H   0  0  0  0  0  0  0  0  0  0  0  0
   38.8470   26.5600   34.9050 H   0  0  0  0  0  0  0  0  0  0  0  0
   37.5980   21.8500   31.1870 C   0  0  0  0  0  0  0  0  0  0  0  0
   37.0460   22.2770   32.3670 C   0  0  0  0  0  0  0  0  0  0  0  0
   35.9470   21.6300   32.8920 C   0  0  0  0  0  0  0  0  0  0  0  0
   35.4500   21.8990   33.8140 H   0  0  0  0  0  0  0  0  0  0  0  0
   35.3770   20.5430   32.2500 C   0  0  0  0  0  0  0  0  0  0  0  0
   34.5080   19.9880   32.6110 H   0  0  0  0  0  0  0  0  0  0  0  0
   35.9070   20.0860   31.0600 C   0  0  0  0  0  3  0  0  0  0  0  0
   36.9980   20.7510   30.5660 C   0  0  0  0  0  3  0  0  0  0  0  0
   39.8300   23.1670   31.4530 H   0  0  0  0  0  0  0  0  0  0  0  0
   38.9880   22.6540   30.5060 S   0  0  0  0  0  0  0  0  0  0  0  0
   38.5090   23.8330   29.6760 O   0  0  0  0  0  0  0  0  0  0  0  0
   39.6860   21.7460   29.5290 O   0  0  0  0  0  0  0  0  0  0  0  0
  1 27  1  0  0  0  0
  1  6  1  0  0  0  0
  2  1  2  0  0  0  0
  3  2  1  0  0  0  0
  3  4  2  0  0  0  0
  4  5  1  0  0  0  0
  5  6  2  0  0  0  0
  5 11  1  0  0  0  0
  7  2  1  0  0  0  0
  8  3  1  0  0  0  0
  9  4  1  0  0  0  0
 10 18  1  0  0  0  0
 11 12  1  0  0  0  0
 11 10  2  0  0  0  0
 12 13  2  0  0  0  0
 13 14  1  0  0  0  0
 13 17  1  0  0  0  0
 14 15  1  0  0  0  0
 15 16  2  0  0  0  0
 15 22  1  0  0  0  0
 16 23  1  0  0  0  0
 17 16  1  0  0  0  0
 18 17  2  0  0  0  0
 18 24  1  0  0  0  0
 19 10  1  0  0  0  0
 20 12  1  0  0  0  0
 21 14  1  0  0  0  0
 25 31  1  0  0  0  0
 26 25  1  0  0  0  0
 26 32  1  0  0  0  0
 27 26  2  0  0  0  0
 28 29  2  0  0  0  0
 28 27  1  0  0  0  0
 29 30  1  0  0  0  0
 30 25  2  0  0  0  0
 33 34  1  0  0  0  0
 34 35  2  0  0  0  0
 34 29  1  0  0  0  0
 35 36  1  0  0  0  0
 37 38  1  0  0  0  0
 37 35  1  0  0  0  0
 39 37  2  0  0  0  0
 40 39  1  0  0  0  0
 40 33  2  0  0  0  0
 42 33  1  0  0  0  0
 42 41  1  0  0  0  0
 43 42  2  0  0  0  0
 44 42  2  0  0  0  0
M  END
>  <minimizedAffinity>
-6.66923094

$$$$

 OpenBabel03262522413D

 44 48  0  0  0  0  0  0  0  0999 V2000
   37.6590   25.6690   32.3520 C   0  0  0  0  0  0  0  0  0  0  0  0
   38.5510   26.1920   31.4430 C   0  0  0  0  0  0  0  0  0  0  0  0
   38.5230   27.5050   31.0290 C   0  0  0  0  0  0  0  0  0  0  0  0
   37.5760   28.3560   31.5250 C   0  0  0  0  0  0  0  0  0  0  0  0
   36.7000   27.8020   32.4300 C   0  0  0  0  0  0  0  0  0  0  0  0
   36.7290   26.5350   32.8290 N   0  0  0  0  0  0  0  0  0  0  0  0
   39.2900   25.4800   31.0730 H   0  0  0  0  0  0  0  0  0  0  0  0
   39.2790   27.7960   30.3100 H   0  0  0  0  0  0  0  0  0  0  0  0
   37.5640   29.3880   31.1910 H   0  0  0  0  0  0  0  0  0  0  0  0
   35.7890   29.3520   34.1910 C   0  0  0  0  0  0  0  0  0  0  0  0
   35.6660   28.6570   32.9970 C   0  0  0  0  0  0  0  0  0  0  0  0
   34.4400   28.8600   32.3900 C   0  0  0  0  0  0  0  0  0  0  0  0
   33.4250   29.6510   32.8700 C   0  0  0  0  0  0  0  0  0  0  0  0
   32.1970   29.9540   32.4170 N   0  0  0  0  0  0  0  0  0  0  0  0
   31.6220   30.7850   33.2950 C   0  0  0  0  0  0  0  0  0  0  0  0
   32.4780   31.0340   34.3370 C   0  0  0  0  0  0  0  0  0  0  0  0
   33.6230   30.3050   34.0530 C   0  0  0  0  0  0  0  0  0  0  0  0
   34.8100   30.1550   34.7180 C   0  0  0  0  0  0  0  0  0  0  0  0
   36.7330   29.2490   34.7440 H   0  0  0  0  0  0  0  0  0  0  0  0
   34.2460   28.3530   31.4390 H   0  0  0  0  0  0  0  0  0  0  0  0
   31.7720   29.5890   31.5180 H   0  0  0  0  0  0  0  0  0  0  0  0
   30.6240   31.2000   33.1940 H   0  0  0  0  0  0  0  0  0  0  0  0
   32.2950   31.6680   35.2010 H   0  0  0  0  0  0  0  0  0  0  0  0
   34.9550   30.6780   35.6540 H   0  0  0  0  0  0  0  0  0  0  0  0
   37.0390   21.9820   32.7740 C   0  0  0  0  0  0  0  0  0  0  0  0
   36.8950   23.2740   32.2620 C   0  0  0  0  0  0  0  0  0  0  0  0
   37.6970   24.2870   32.7820 C   0  0  0  0  0  0  0  0  0  0  0  0
   38.5700   23.9410   33.7580 N   0  0  0  0  0  0  0  0  0  0  0  0
   38.6950   22.6830   34.2400 C   0  0  0  0  0  0  0  0  0  0  0  0
   37.9230   21.7130   33.7380 N   0  0  0  0  0  0  0  0  0  0  0  0
   36.3810   21.2390   32.3240 H   0  0  0  0  0  0  0  0  0  0  0  0
   36.1860   23.5480   31.4710 H   0  0  0  0  0  0  0  0  0  0  0  0
   39.4060   22.7140   36.6140 C   0  0  0  0  0  0  0  0  0  0  0  0
   39.6780   22.4510   35.2950 C   0  0  0  0  0  0  0  0  0  0  0  0
   40.9110   21.9520   34.9280 C   0  0  0  0  0  0  0  0  0  0  0  0
   41.2090   21.7170   33.9160 H   0  0  0  0  0  0  0  0  0  0  0  0
   41.8960   21.7050   35.8690 C   0  0  0  0  0  0  0  0  0  0  0  0
   42.8900   21.3120   35.6450 H   0  0  0  0  0  0  0  0  0  0  0  0
   41.6570   21.9580   37.2050 C   0  0  0  0  0  3  0  0  0  0  0  0
   40.4230   22.4530   37.5360 C   0  0  0  0  0  3  0  0  0  0  0  0
   36.8250   22.9040   36.3140 H   0  0  0  0  0  0  0  0  0  0  0  0
   37.8540   23.3450   37.0980 S   0  0  0  0  0  0  0  0  0  0  0  0
   37.8800   24.8580   36.9590 O   0  0  0  0  0  0  0  0  0  0  0  0
   37.6270   23.0910   38.5650 O   0  0  0  0  0  0  0  0  0  0  0  0
  1 27  1  0  0  0  0
  1  6  1  0  0  0  0
  2  1  2  0  0  0  0
  3  2  1  0  0  0  0
  3  4  2  0  0  0  0
  4  5  1  0  0  0  0
  5  6  2  0  0  0  0
  5 11  1  0  0  0  0
  7  2  1  0  0  0  0
  8  3  1  0  0  0  0
  9  4  1  0  0  0  0
 10 18  1  0  0  0  0
 10 19  1  0  0  0  0
 11 10  2  0  0  0  0
 12 13  2  0  0  0  0
 12 11  1  0  0  0  0
 13 17  1  0  0  0  0
 14 13  1  0  0  0  0
 14 15  1  0  0  0  0
 15 16  2  0  0  0  0
 16 23  1  0  0  0  0
 17 16  1  0  0  0  0
 17 18  2  0  0  0  0
 18 24  1  0  0  0  0
 20 12  1  0  0  0  0
 21 14  1  0  0  0  0
 22 15  1  0  0  0  0
 25 30  1  0  0  0  0
 26 25  2  0  0  0  0
 26 27  1  0  0  0  0
 27 28  2  0  0  0  0
 28 29  1  0  0  0  0
 29 34  1  0  0  0  0
 30 29  2  0  0  0  0
 31 25  1  0  0  0  0
 32 26  1  0  0  0  0
 33 42  1  0  0  0  0
 33 40  1  0  0  0  0
 34 33  2  0  0  0  0
 35 34  1  0  0  0  0
 35 37  2  0  0  0  0
 36 35  1  0  0  0  0
 37 39  1  0  0  0  0
 38 37  1  0  0  0  0
 39 40  2  0  0  0  0
 41 42  1  0  0  0  0
 42 44  2  0  0  0  0
 43 42  2  0  0  0  0
M  END
>  <minimizedAffinity>
-6.65827227

$$$$
