
 OpenBabel03272504223D

 42 44  0  0  1  0  0  0  0  0999 V2000
   38.9400   32.1650   47.7240 C   0  0  2  0  0  0  0  0  0  0  0  0
   38.1370   31.3240   48.6920 C   0  0  1  0  0  0  0  0  0  0  0  0
   38.4180   32.1220   49.9710 C   0  0  0  0  0  0  0  0  0  0  0  0
   38.1250   33.4120   49.5510 O   0  0  0  0  0  0  0  0  0  0  0  0
   38.6340   33.5510   48.2840 C   0  0  0  0  0  0  0  0  0  0  0  0
   39.9980   31.9060   47.8200 H   0  0  0  0  0  0  0  0  0  0  0  0
   38.4560   30.2870   48.7640 H   0  0  0  0  0  0  0  0  0  0  0  0
   39.4710   32.0290   50.2590 H   0  0  0  0  0  0  0  0  0  0  0  0
   37.7060   31.8280   50.7660 H   0  0  0  0  0  0  0  0  0  0  0  0
   38.0400   34.1730   47.5930 H   0  0  0  0  0  0  0  0  0  0  0  0
   39.6170   34.0640   48.3840 H   0  0  0  0  0  0  0  0  0  0  0  0
   36.8010   31.4890   48.3490 O   0  0  0  0  0  0  0  0  0  0  0  0
   35.9140   29.5010   46.9240 O   0  0  0  0  0  0  0  0  0  0  0  0
   35.9540   30.0400   48.3290 P   0  0  1  0  0  0  0  0  0  0  0  0
   36.7580   28.8850   49.3120 O   0  0  0  0  0  0  0  0  0  0  0  0
   37.0590   29.4130   50.1040 H   0  0  0  0  0  0  0  0  0  0  0  0
   34.3810   30.2740   48.9210 O   0  0  0  0  0  0  0  0  0  0  0  0
   34.0810   29.1840   49.7170 C   0  0  0  0  0  0  0  0  0  0  0  0
   33.4960   29.5300   50.6140 H   0  0  0  0  0  0  0  0  0  0  0  0
   34.9780   28.6440   50.0960 H   0  0  0  0  0  0  0  0  0  0  0  0
   33.2210   28.1830   49.0440 C   0  0  0  0  0  0  0  0  0  0  0  0
   33.8510   27.2670   48.2370 C   0  0  0  0  0  0  0  0  0  0  0  0
   33.0930   26.2980   47.5760 C   0  0  0  0  0  0  0  0  0  0  0  0
   31.7440   26.3230   47.7780 N   0  0  0  0  0  0  0  0  0  0  0  0
   31.1470   27.2340   48.5750 C   0  0  0  0  0  0  0  0  0  0  0  0
   31.8860   28.1730   49.2160 N   0  0  0  0  0  0  0  0  0  0  0  0
   34.8960   27.1710   48.0200 H   0  0  0  0  0  0  0  0  0  0  0  0
   33.5120   25.5430   46.9250 H   0  0  0  0  0  0  0  0  0  0  0  0
   30.0650   27.2030   48.6960 H   0  0  0  0  0  0  0  0  0  0  0  0
   38.4450   31.9710   46.4600 O   0  0  0  0  0  0  0  0  0  0  0  0
   38.3010   31.4430   44.1830 C   0  0  0  0  0  0  0  0  0  0  0  0
   39.0680   31.5440   45.3260 C   0  0  0  0  0  0  0  0  0  0  0  0
   40.4000   31.2000   45.2030 C   0  0  0  0  0  0  0  0  0  0  0  0
   41.0010   31.2820   46.1130 H   0  0  0  0  0  0  0  0  0  0  0  0
   40.9690   30.7750   44.0260 C   0  0  0  0  0  0  0  0  0  0  0  0
   42.0020   30.5100   43.9420 H   0  0  0  0  0  0  0  0  0  0  0  0
   40.1440   30.7000   42.9340 C   0  0  0  0  0  3  0  0  0  0  0  0
   38.7920   31.0260   42.9630 C   0  0  0  0  0  3  0  0  0  0  0  0
   36.2790   32.4400   45.4390 H   0  0  0  0  0  0  0  0  0  0  0  0
   36.5960   31.8550   44.2190 S   0  0  0  0  0  0  0  0  0  0  0  0
   36.3200   32.8890   43.1770 O   0  0  0  0  0  0  0  0  0  0  0  0
   35.7220   30.6780   44.0040 O   0  0  0  0  0  0  0  0  0  0  0  0
  1  6  1  1  0  0  0
  1  5  1  0  0  0  0
  1  2  1  0  0  0  0
  2  7  1  1  0  0  0
  2  3  1  0  0  0  0
  3  8  1  0  0  0  0
  3  9  1  0  0  0  0
  4  3  1  0  0  0  0
  5 11  1  0  0  0  0
  5  4  1  0  0  0  0
 10  5  1  0  0  0  0
 12  2  1  0  0  0  0
 14 13  2  6  0  0  0
 14 12  1  0  0  0  0
 14 17  1  0  0  0  0
 14 15  1  0  0  0  0
 15 16  1  0  0  0  0
 17 18  1  0  0  0  0
 18 20  1  0  0  0  0
 18 19  1  0  0  0  0
 21 26  1  0  0  0  0
 21 18  1  0  0  0  0
 22 21  2  0  0  0  0
 23 24  2  0  0  0  0
 23 22  1  0  0  0  0
 24 25  1  0  0  0  0
 25 29  1  0  0  0  0
 25 26  2  0  0  0  0
 27 22  1  0  0  0  0
 28 23  1  0  0  0  0
 30  1  1  0  0  0  0
 31 40  1  0  0  0  0
 31 32  1  0  0  0  0
 32 30  1  0  0  0  0
 33 32  2  0  0  0  0
 33 34  1  0  0  0  0
 35 33  1  0  0  0  0
 36 35  1  0  0  0  0
 37 38  1  0  0  0  0
 37 35  2  0  0  0  0
 38 31  2  0  0  0  0
 40 39  1  0  0  0  0
 41 40  2  0  0  0  0
 42 40  2  0  0  0  0
M  END
>  <minimizedAffinity>
-4.30235624

>  <minimizedRMSD>
0.834834397

$$$$
