
 OpenBabel03272507163D

 29 31  0  0  1  0  0  0  0  0999 V2000
   36.0890   30.9900   49.9660 C   0  0  1  0  0  0  0  0  0  0  0  0
   35.0510   29.9910   49.6540 C   0  0  2  0  0  0  0  0  0  0  0  0
   36.3120   29.5310   50.3690 C   0  0  0  0  0  0  0  0  0  0  0  0
   36.0170   31.7120   50.8070 H   0  0  0  0  0  0  0  0  0  0  0  0
   34.1280   30.1120   50.2780 H   0  0  0  0  0  0  0  0  0  0  0  0
   36.1670   29.3170   51.4360 H   0  0  0  0  0  0  0  0  0  0  0  0
   37.0300   28.9340   49.7970 H   0  0  0  0  0  0  0  0  0  0  0  0
   37.0340   31.4500   48.8950 C   0  0  0  0  0  0  0  0  0  0  0  0
   38.0040   32.3640   49.3070 C   0  0  0  0  0  0  0  0  0  0  0  0
   38.8750   32.8210   48.3030 C   0  0  0  0  0  0  0  0  0  0  0  0
   38.7240   32.3560   47.0120 N   0  0  0  0  0  0  0  0  0  0  0  0
   37.7640   31.4680   46.6690 C   0  0  0  0  0  0  0  0  0  0  0  0
   36.9060   31.0070   47.6260 N   0  0  0  0  0  0  0  0  0  0  0  0
   38.0800   32.6960   50.3330 H   0  0  0  0  0  0  0  0  0  0  0  0
   39.6520   33.5310   48.5480 H   0  0  0  0  0  0  0  0  0  0  0  0
   37.7150   31.1560   45.6340 H   0  0  0  0  0  0  0  0  0  0  0  0
   34.8940   29.5540   48.3850 O   0  0  0  0  0  0  0  0  0  0  0  0
   33.4900   28.7540   46.4690 C   0  0  0  0  0  0  0  0  0  0  0  0
   34.1840   28.7230   47.6440 C   0  0  0  0  0  0  0  0  0  0  0  0
   34.1760   27.4780   48.2980 C   0  0  0  0  0  0  0  0  0  0  0  0
   34.6470   27.1750   49.2470 H   0  0  0  0  0  0  0  0  0  0  0  0
   33.5190   26.3620   47.8010 C   0  0  0  0  0  0  0  0  0  0  0  0
   33.4460   25.3750   48.2090 H   0  0  0  0  0  0  0  0  0  0  0  0
   32.8420   26.5010   46.5970 C   0  0  0  0  0  3  0  0  0  0  0  0
   32.8200   27.6980   45.9180 C   0  0  0  0  0  3  0  0  0  0  0  0
   34.6780   30.9480   45.8260 H   0  0  0  0  0  0  0  0  0  0  0  0
   33.5090   30.2890   45.6720 S   0  0  0  0  0  0  0  0  0  0  0  0
   32.3160   31.1440   46.0320 O   0  0  0  0  0  0  0  0  0  0  0  0
   33.3690   30.0580   44.1720 O   0  0  0  0  0  0  0  0  0  0  0  0
  1  3  1  0  0  0  0
  1  4  1  1  0  0  0
  2  1  1  0  0  0  0
  2  5  1  1  0  0  0
  2  3  1  0  0  0  0
  3  6  1  0  0  0  0
  7  3  1  0  0  0  0
  8  9  1  0  0  0  0
  8  1  1  0  0  0  0
  9 14  1  0  0  0  0
 10 15  1  0  0  0  0
 10  9  2  0  0  0  0
 11 10  1  0  0  0  0
 12 11  2  0  0  0  0
 12 13  1  0  0  0  0
 13  8  2  0  0  0  0
 16 12  1  0  0  0  0
 17  2  1  0  0  0  0
 18 19  1  0  0  0  0
 19 20  2  0  0  0  0
 19 17  1  0  0  0  0
 20 21  1  0  0  0  0
 22 23  1  0  0  0  0
 22 20  1  0  0  0  0
 24 22  2  0  0  0  0
 25 18  2  0  0  0  0
 25 24  1  0  0  0  0
 27 26  1  0  0  0  0
 27 28  2  0  0  0  0
 27 18  1  0  0  0  0
 29 27  2  0  0  0  0
M  END
>  <minimizedAffinity>
-4.8658185

>  <minimizedRMSD>
2.11777759

$$$$
