
 OpenBabel03272509353D

 50 54  0  0  1  0  0  0  0  0999 V2000
   31.8380   27.9490   46.9050 C   0  0  0  0  0  0  0  0  0  0  0  0
   31.3940   28.4180   45.6360 C   0  0  0  0  0  0  0  0  0  0  0  0
   32.1030   29.3920   45.0030 C   0  0  0  0  0  0  0  0  0  0  0  0
   33.2260   29.8580   45.6630 N   0  0  0  0  0  0  0  0  0  0  0  0
   33.6310   29.4080   46.8550 C   0  0  0  0  0  0  0  0  0  0  0  0
   32.9470   28.4490   47.4960 N   0  0  0  0  0  0  0  0  0  0  0  0
   31.2800   27.1730   47.4150 H   0  0  0  0  0  0  0  0  0  0  0  0
   30.5050   27.9670   45.2410 H   0  0  0  0  0  0  0  0  0  0  0  0
   31.6540   29.9100   43.6860 C   0  0  1  0  0  0  0  0  0  0  0  0
   32.6600   30.6370   42.8680 C   0  0  0  0  0  0  0  0  0  0  0  0
   32.4720   29.2540   42.4860 C   0  0  2  0  0  0  0  0  0  0  0  0
   30.5870   29.9190   43.5180 H   0  0  0  0  0  0  0  0  0  0  0  0
   33.6360   30.8510   43.4320 H   0  0  0  0  0  0  0  0  0  0  0  0
   32.2290   31.5570   42.4910 H   0  0  0  0  0  0  0  0  0  0  0  0
   32.9190   28.3400   42.8560 H   0  0  0  0  0  0  0  0  0  0  0  0
   31.7520   29.1440   41.1730 C   0  0  0  0  0  0  0  0  0  0  0  0
   32.0200   30.2650   40.3780 C   0  0  0  0  0  0  0  0  0  0  0  0
   31.5430   30.3220   39.0940 C   0  0  0  0  0  0  0  0  0  0  0  0
   30.7850   29.2780   38.5490 C   0  0  0  0  0  0  0  0  0  0  0  0
   30.5420   28.1840   39.3660 C   0  0  0  0  0  0  0  0  0  0  0  0
   29.8110   27.1000   38.9550 C   0  0  0  0  0  0  0  0  0  0  0  0
   29.5540   26.0100   39.7500 C   0  0  0  0  0  0  0  0  0  0  0  0
   30.0590   26.0010   41.0420 C   0  0  0  0  0  0  0  0  0  0  0  0
   30.7950   27.0910   41.4570 C   0  0  0  0  0  0  0  0  0  0  0  0
   31.0270   28.1620   40.6250 C   0  0  0  0  0  0  0  0  0  0  0  0
   32.5570   31.1840   40.4840 H   0  0  0  0  0  0  0  0  0  0  0  0
   31.6460   31.0940   38.3430 H   0  0  0  0  0  0  0  0  0  0  0  0
   30.3510   29.1950   37.5590 H   0  0  0  0  0  0  0  0  0  0  0  0
   29.4090   27.0930   37.9460 H   0  0  0  0  0  0  0  0  0  0  0  0
   28.9680   25.1780   39.3710 H   0  0  0  0  0  0  0  0  0  0  0  0
   29.8960   25.1830   41.7150 H   0  0  0  0  0  0  0  0  0  0  0  0
   31.1880   27.0640   42.4890 H   0  0  0  0  0  0  0  0  0  0  0  0
   34.8780   30.0240   47.4410 C   0  0  0  0  0  0  0  0  0  0  0  0
   35.5440   30.4410   46.6890 H   0  0  0  0  0  0  0  0  0  0  0  0
   34.5800   30.8300   48.1540 H   0  0  0  0  0  0  0  0  0  0  0  0
   35.5480   28.9390   48.3050 C   0  0  0  0  0  0  0  0  0  0  0  0
   36.1740   28.3020   47.6570 H   0  0  0  0  0  0  0  0  0  0  0  0
   34.7690   28.2950   48.7190 H   0  0  0  0  0  0  0  0  0  0  0  0
   37.3060   30.5010   48.8400 C   0  0  0  0  0  0  0  0  0  0  0  0
   36.4130   29.5740   49.3360 C   0  0  0  0  0  0  0  0  0  0  0  0
   36.3680   29.2990   50.6870 C   0  0  0  0  0  0  0  0  0  0  0  0
   35.6480   28.5620   51.0260 H   0  0  0  0  0  0  0  0  0  0  0  0
   37.2130   29.9450   51.5750 C   0  0  0  0  0  0  0  0  0  0  0  0
   37.1640   29.7150   52.6480 H   0  0  0  0  0  0  0  0  0  0  0  0
   38.1090   30.8750   51.0830 C   0  0  0  0  0  3  0  0  0  0  0  0
   38.1570   31.1540   49.7190 C   0  0  0  0  0  3  0  0  0  0  0  0
   36.4740   30.7400   46.3880 H   0  0  0  0  0  0  0  0  0  0  0  0
   37.5450   31.0080   47.1870 S   0  0  0  0  0  0  0  0  0  0  0  0
   38.6980   30.2180   46.5970 O   0  0  0  0  0  0  0  0  0  0  0  0
   37.9600   32.4640   47.0900 O   0  0  0  0  0  0  0  0  0  0  0  0
  1  7  1  0  0  0  0
  1  6  1  0  0  0  0
  2  1  2  0  0  0  0
  3  2  1  0  0  0  0
  3  4  2  0  0  0  0
  4  5  1  0  0  0  0
  5 33  1  0  0  0  0
  5  6  2  0  0  0  0
  8  2  1  0  0  0  0
  9 12  1  6  0  0  0
  9  3  1  0  0  0  0
 10 13  1  0  0  0  0
 10  9  1  0  0  0  0
 11 15  1  1  0  0  0
 11 10  1  0  0  0  0
 11  9  1  0  0  0  0
 14 10  1  0  0  0  0
 16 11  1  0  0  0  0
 17 26  1  0  0  0  0
 17 16  2  0  0  0  0
 18 17  1  0  0  0  0
 19 18  2  0  0  0  0
 19 20  1  0  0  0  0
 20 25  1  0  0  0  0
 21 20  2  0  0  0  0
 21 22  1  0  0  0  0
 22 23  2  0  0  0  0
 23 24  1  0  0  0  0
 23 31  1  0  0  0  0
 24 32  1  0  0  0  0
 25 16  1  0  0  0  0
 25 24  2  0  0  0  0
 27 18  1  0  0  0  0
 28 19  1  0  0  0  0
 29 21  1  0  0  0  0
 30 22  1  0  0  0  0
 33 35  1  0  0  0  0
 33 36  1  0  0  0  0
 34 33  1  0  0  0  0
 36 38  1  0  0  0  0
 36 40  1  0  0  0  0
 37 36  1  0  0  0  0
 39 40  2  0  0  0  0
 39 46  1  0  0  0  0
 40 41  1  0  0  0  0
 41 42  1  0  0  0  0
 41 43  2  0  0  0  0
 43 44  1  0  0  0  0
 45 43  1  0  0  0  0
 46 45  2  0  0  0  0
 47 48  1  0  0  0  0
 48 39  1  0  0  0  0
 49 48  2  0  0  0  0
 50 48  2  0  0  0  0
M  END
>  <minimizedAffinity>
-4.16568422

>  <minimizedRMSD>
7.51473904

$$$$
