
 OpenBabel03262521553D

 42 44  0  0  1  0  0  0  0  0999 V2000
   31.8230   26.8620   48.3300 C   0  0  1  0  0  0  0  0  0  0  0  0
   32.5390   28.1820   48.2510 C   0  0  2  0  0  0  0  0  0  0  0  0
   32.4790   28.6570   46.8430 C   0  0  0  0  0  0  0  0  0  0  0  0
   31.8340   27.7730   45.9920 O   0  0  0  0  0  0  0  0  0  0  0  0
   30.5190   27.5630   46.3910 C   0  0  0  0  0  0  0  0  0  0  0  0
   30.4030   27.0870   47.8190 C   0  0  2  0  0  0  0  0  0  0  0  0
   31.7970   26.4880   49.3720 H   0  0  0  0  0  0  0  0  0  0  0  0
   32.0170   28.8540   48.9820 H   0  0  0  0  0  0  0  0  0  0  0  0
   33.4250   28.9670   46.3990 H   0  0  0  0  0  0  0  0  0  0  0  0
   31.8410   29.5890   46.8460 H   0  0  0  0  0  0  0  0  0  0  0  0
   29.8930   28.4730   46.2540 H   0  0  0  0  0  0  0  0  0  0  0  0
   30.1030   26.7800   45.7300 H   0  0  0  0  0  0  0  0  0  0  0  0
   29.9000   26.1130   47.8980 H   0  0  0  0  0  0  0  0  0  0  0  0
   32.3990   25.9170   47.4590 O   0  0  0  0  0  0  0  0  0  0  0  0
   32.5050   25.0890   47.9760 H   0  0  0  0  0  0  0  0  0  0  0  0
   34.2450   28.0520   48.8410 S   0  0  0  0  0  0  0  0  0  0  0  0
   34.5770   29.3660   50.0520 C   0  0  0  0  0  0  0  0  0  0  0  0
   34.2020   30.3130   49.6240 H   0  0  0  0  0  0  0  0  0  0  0  0
   33.9510   29.1550   50.9470 H   0  0  0  0  0  0  0  0  0  0  0  0
   36.2830   29.4510   50.5670 S   0  0  0  0  0  0  0  0  0  0  0  0
   37.1520   30.6120   49.5170 C   0  0  0  0  0  0  0  0  0  0  0  0
   37.2010   31.8990   50.0080 C   0  0  0  0  0  0  0  0  0  0  0  0
   37.8580   32.8790   49.2580 C   0  0  0  0  0  0  0  0  0  0  0  0
   38.4150   32.4890   48.0740 N   0  0  0  0  0  0  0  0  0  0  0  0
   38.3370   31.2110   47.6390 C   0  0  0  0  0  0  0  0  0  0  0  0
   37.7160   30.2900   48.3480 N   0  0  0  0  0  0  0  0  0  0  0  0
   36.7700   32.2160   50.9320 H   0  0  0  0  0  0  0  0  0  0  0  0
   37.9230   33.9010   49.6030 H   0  0  0  0  0  0  0  0  0  0  0  0
   38.7990   30.9510   46.6850 H   0  0  0  0  0  0  0  0  0  0  0  0
   29.8960   28.1110   48.6020 O   0  0  0  0  0  0  0  0  0  0  0  0
   27.8040   28.5690   49.3300 C   0  0  0  0  0  0  0  0  0  0  0  0
   28.9760   27.8640   49.5970 C   0  0  0  0  0  0  0  0  0  0  0  0
   29.0220   27.0900   50.7320 C   0  0  0  0  0  0  0  0  0  0  0  0
   29.9530   26.5870   50.8590 H   0  0  0  0  0  0  0  0  0  0  0  0
   27.9270   27.0270   51.5680 C   0  0  0  0  0  0  0  0  0  0  0  0
   28.0250   26.4020   52.4450 H   0  0  0  0  0  0  0  0  0  0  0  0
   26.7490   27.7160   51.3300 C   0  0  0  0  0  3  0  0  0  0  0  0
   26.7020   28.4930   50.1910 C   0  0  0  0  0  3  0  0  0  0  0  0
   28.6730   29.9400   47.3110 H   0  0  0  0  0  0  0  0  0  0  0  0
   27.5090   29.6230   47.9430 S   0  0  0  0  0  0  0  0  0  0  0  0
   26.7560   30.8520   48.3490 O   0  0  0  0  0  0  0  0  0  0  0  0
   26.6310   28.8480   46.9860 O   0  0  0  0  0  0  0  0  0  0  0  0
  1  7  1  1  0  0  0
  2  1  1  0  0  0  0
  2 16  1  0  0  0  0
  2  8  1  1  0  0  0
  3 10  1  0  0  0  0
  3  2  1  0  0  0  0
  4  5  1  0  0  0  0
  4  3  1  0  0  0  0
  5  6  1  0  0  0  0
  6 13  1  1  0  0  0
  6  1  1  0  0  0  0
  6 30  1  0  0  0  0
  9  3  1  0  0  0  0
 11  5  1  0  0  0  0
 12  5  1  0  0  0  0
 14 15  1  0  0  0  0
 14  1  1  0  0  0  0
 16 17  1  0  0  0  0
 17 20  1  0  0  0  0
 17 19  1  0  0  0  0
 18 17  1  0  0  0  0
 21 22  1  0  0  0  0
 21 20  1  0  0  0  0
 22 27  1  0  0  0  0
 23 28  1  0  0  0  0
 23 22  2  0  0  0  0
 24 23  1  0  0  0  0
 25 24  2  0  0  0  0
 25 26  1  0  0  0  0
 26 21  2  0  0  0  0
 29 25  1  0  0  0  0
 30 32  1  0  0  0  0
 31 32  2  0  0  0  0
 31 38  1  0  0  0  0
 32 33  1  0  0  0  0
 33 34  1  0  0  0  0
 33 35  2  0  0  0  0
 35 36  1  0  0  0  0
 37 35  1  0  0  0  0
 38 37  2  0  0  0  0
 39 40  1  0  0  0  0
 40 41  2  0  0  0  0
 40 31  1  0  0  0  0
 42 40  2  0  0  0  0
M  END
>  <minimizedAffinity>
-6.29780483

>  <minimizedRMSD>
1.47392118

$$$$
