
 OpenBabel03272503123D

 49 53  0  0  0  0  0  0  0  0999 V2000
   38.6140   31.4260   42.5370 C   0  0  0  0  0  0  0  0  0  0  0  0
   39.4730   31.1050   43.5640 C   0  0  0  0  0  0  0  0  0  0  0  0
   40.6120   30.3830   43.3860 C   0  0  0  0  0  0  0  0  0  0  0  0
   40.9440   29.9380   42.1150 C   0  0  0  0  0  0  0  0  0  0  0  0
   41.9720   29.2260   41.6410 N   0  0  0  0  0  0  0  0  0  0  0  0
   41.7920   29.0830   40.3330 C   0  0  0  0  0  0  0  0  0  0  0  0
   40.6440   29.7070   39.9660 N   0  0  0  0  0  0  0  0  0  0  0  0
   40.0980   30.2500   41.0790 C   0  0  0  0  0  0  0  0  0  0  0  0
   38.9220   30.9920   41.2420 C   0  0  0  0  0  0  0  0  0  0  0  0
   37.7170   32.0030   42.7150 H   0  0  0  0  0  0  0  0  0  0  0  0
   41.2600   30.1490   44.2150 H   0  0  0  0  0  0  0  0  0  0  0  0
   42.7890   28.8340   42.1710 H   0  0  0  0  0  0  0  0  0  0  0  0
   42.4070   28.5710   39.6010 H   0  0  0  0  0  0  0  0  0  0  0  0
   39.1010   31.5830   44.8860 C   0  0  0  0  0  0  0  0  0  0  0  0
   37.9640   32.1590   45.0310 O   0  0  0  0  0  0  0  0  0  0  0  0
   39.8850   31.4760   46.0590 N   0  0  0  0  0  0  0  0  0  0  0  0
   40.8110   31.0140   45.9730 H   0  0  0  0  0  0  0  0  0  0  0  0
   38.0620   30.0580   47.4810 F   0  0  0  0  0  0  0  0  0  0  0  0
   38.3370   31.3040   47.9320 C   0  0  0  0  0  0  0  0  0  0  0  0
   37.7130   31.7870   49.0430 C   0  0  0  0  0  0  0  0  0  0  0  0
   38.0430   33.0650   49.4450 C   0  0  0  0  0  0  0  0  0  0  0  0
   38.9580   33.8390   48.7700 C   0  0  0  0  0  0  0  0  0  0  0  0
   39.5810   33.3230   47.6400 C   0  0  0  0  0  0  0  0  0  0  0  0
   39.2590   32.0400   47.2230 C   0  0  0  0  0  0  0  0  0  0  0  0
   37.5540   33.4600   50.3270 H   0  0  0  0  0  0  0  0  0  0  0  0
   39.2020   34.8350   49.1020 H   0  0  0  0  0  0  0  0  0  0  0  0
   40.3110   33.8860   47.0660 H   0  0  0  0  0  0  0  0  0  0  0  0
   36.1250   29.3980   51.5070 C   0  0  0  0  0  0  0  0  0  0  0  0
   37.0670   30.2250   50.8650 C   0  0  0  0  0  0  0  0  0  0  0  0
   36.7480   30.9250   49.7240 C   0  0  0  0  0  0  0  0  0  0  0  0
   35.4720   30.7820   49.2360 N   0  0  0  0  0  0  0  0  0  0  0  0
   34.5750   29.9970   49.8440 C   0  0  0  0  0  0  0  0  0  0  0  0
   34.8870   29.3210   50.9500 N   0  0  0  0  0  0  0  0  0  0  0  0
   36.4900   28.9030   52.3910 H   0  0  0  0  0  0  0  0  0  0  0  0
   38.0870   30.3740   51.2040 H   0  0  0  0  0  0  0  0  0  0  0  0
   33.5640   29.8810   49.4640 H   0  0  0  0  0  0  0  0  0  0  0  0
   38.0780   31.3020   40.2010 O   0  0  0  0  0  0  0  0  0  0  0  0
   38.3950   31.5510   37.7280 C   0  0  0  0  0  0  0  0  0  0  0  0
   38.4150   31.9620   39.0440 C   0  0  0  0  0  0  0  0  0  0  0  0
   38.8430   33.2660   39.3190 C   0  0  0  0  0  0  0  0  0  0  0  0
   38.9130   33.7280   40.3070 H   0  0  0  0  0  0  0  0  0  0  0  0
   39.2400   34.1320   38.3080 C   0  0  0  0  0  0  0  0  0  0  0  0
   39.5750   35.1410   38.4830 H   0  0  0  0  0  0  0  0  0  0  0  0
   39.2090   33.6920   37.0000 C   0  0  0  0  0  3  0  0  0  0  0  0
   38.7880   32.4080   36.7230 C   0  0  0  0  0  3  0  0  0  0  0  0
   37.2780   29.3910   38.6620 H   0  0  0  0  0  0  0  0  0  0  0  0
   37.8410   29.9050   37.5250 S   0  0  0  0  0  0  0  0  0  0  0  0
   36.7750   29.9330   36.4380 O   0  0  0  0  0  0  0  0  0  0  0  0
   38.9450   29.0350   36.9930 O   0  0  0  0  0  0  0  0  0  0  0  0
  1 10  1  0  0  0  0
  1  2  1  0  0  0  0
  2 14  1  0  0  0  0
  3  2  2  0  0  0  0
  3 11  1  0  0  0  0
  4  3  1  0  0  0  0
  5  4  1  0  0  0  0
  5 12  1  0  0  0  0
  6  5  1  0  0  0  0
  7  6  2  0  0  0  0
  7  8  1  0  0  0  0
  8  9  1  0  0  0  0
  8  4  2  0  0  0  0
  9  1  2  0  0  0  0
 13  6  1  0  0  0  0
 14 15  2  0  0  0  0
 14 16  1  0  0  0  0
 16 24  1  0  0  0  0
 17 16  1  0  0  0  0
 18 19  1  0  0  0  0
 19 20  1  0  0  0  0
 20 21  2  0  0  0  0
 20 30  1  0  0  0  0
 21 25  1  0  0  0  0
 22 26  1  0  0  0  0
 22 21  1  0  0  0  0
 23 22  2  0  0  0  0
 24 23  1  0  0  0  0
 24 19  2  0  0  0  0
 27 23  1  0  0  0  0
 28 34  1  0  0  0  0
 29 35  1  0  0  0  0
 29 28  2  0  0  0  0
 30 29  1  0  0  0  0
 31 30  2  0  0  0  0
 31 32  1  0  0  0  0
 32 33  2  0  0  0  0
 33 28  1  0  0  0  0
 36 32  1  0  0  0  0
 37  9  1  0  0  0  0
 38 39  1  0  0  0  0
 39 40  2  0  0  0  0
 39 37  1  0  0  0  0
 40 41  1  0  0  0  0
 42 43  1  0  0  0  0
 42 40  1  0  0  0  0
 44 42  2  0  0  0  0
 45 44  1  0  0  0  0
 45 38  2  0  0  0  0
 47 38  1  0  0  0  0
 47 46  1  0  0  0  0
 48 47  2  0  0  0  0
 49 47  2  0  0  0  0
M  END
>  <minimizedAffinity>
-6.54406071

>  <minimizedRMSD>
1.24060786

$$$$
