
 OpenBabel03272504573D

 36 38  0  0  1  0  0  0  0  0999 V2000
   37.0040   31.5260   48.6890 C   0  0  1  0  0  0  0  0  0  0  0  0
   36.1790   30.9510   47.6470 C   0  0  0  0  0  0  0  0  0  0  0  0
   37.1550   30.1080   48.3630 C   0  0  2  0  0  0  0  0  0  0  0  0
   36.6210   31.7080   49.7490 H   0  0  0  0  0  0  0  0  0  0  0  0
   36.4680   31.2170   46.6010 H   0  0  0  0  0  0  0  0  0  0  0  0
   35.1840   31.2810   47.8130 H   0  0  0  0  0  0  0  0  0  0  0  0
   37.8540   29.6510   47.6850 H   0  0  0  0  0  0  0  0  0  0  0  0
   38.1490   32.4290   48.3350 C   0  0  0  0  0  0  0  0  0  0  0  0
   38.5130   33.3740   49.3230 C   0  0  0  0  0  0  0  0  0  0  0  0
   39.5720   34.1840   48.9710 C   0  0  0  0  0  0  0  0  0  0  0  0
   40.1830   34.0400   47.7530 N   0  0  0  0  0  0  0  0  0  0  0  0
   39.7960   33.1230   46.8490 C   0  0  0  0  0  0  0  0  0  0  0  0
   38.7480   32.2970   47.1550 N   0  0  0  0  0  0  0  0  0  0  0  0
   40.4220   32.9550   45.6090 N   0  0  0  0  0  0  0  0  0  0  0  0
   38.0230   33.4750   50.2780 H   0  0  0  0  0  0  0  0  0  0  0  0
   39.9240   34.9450   49.6730 H   0  0  0  0  0  0  0  0  0  0  0  0
   40.9080   33.8150   45.2280 H   0  0  0  0  0  0  0  0  0  0  0  0
   40.3920   32.0320   45.1200 H   0  0  0  0  0  0  0  0  0  0  0  0
   36.6410   29.2020   49.2890 O   0  0  0  0  0  0  0  0  0  0  0  0
   34.6380   27.6770   49.7450 O   0  0  0  0  0  0  0  0  0  0  0  0
   34.9840   28.9600   49.0000 P   0  0  1  0  0  0  0  0  0  0  0  0
   34.1320   30.1620   49.8220 O   0  0  0  0  0  0  0  0  0  0  0  0
   34.4310   31.0600   49.7790 H   0  0  0  0  0  0  0  0  0  0  0  0
   34.7260   28.8930   47.3900 O   0  0  0  0  0  0  0  0  0  0  0  0
   33.6980   28.8310   45.1090 C   0  0  0  0  0  0  0  0  0  0  0  0
   33.7990   28.7560   46.4730 C   0  0  0  0  0  0  0  0  0  0  0  0
   32.5940   28.4470   47.1340 C   0  0  0  0  0  0  0  0  0  0  0  0
   32.3820   28.3260   48.1940 H   0  0  0  0  0  0  0  0  0  0  0  0
   31.3930   28.2360   46.4350 C   0  0  0  0  0  0  0  0  0  0  0  0
   30.4290   27.9970   46.8420 H   0  0  0  0  0  0  0  0  0  0  0  0
   31.4260   28.3420   45.0540 C   0  0  0  0  0  3  0  0  0  0  0  0
   32.5700   28.6400   44.3510 C   0  0  0  0  0  3  0  0  0  0  0  0
   36.2880   28.6890   44.8810 H   0  0  0  0  0  0  0  0  0  0  0  0
   35.1850   29.2110   44.3230 S   0  0  0  0  0  0  0  0  0  0  0  0
   35.1740   28.7010   42.8790 O   0  0  0  0  0  0  0  0  0  0  0  0
   35.2350   30.7230   44.1840 O   0  0  0  0  0  0  0  0  0  0  0  0
  1  4  1  1  0  0  0
  2  6  1  0  0  0  0
  2  3  1  0  0  0  0
  2  1  1  0  0  0  0
  3  7  1  6  0  0  0
  3  1  1  0  0  0  0
  3 19  1  0  0  0  0
  5  2  1  0  0  0  0
  8  1  1  0  0  0  0
  8  9  1  0  0  0  0
  9 15  1  0  0  0  0
 10  9  2  0  0  0  0
 10 16  1  0  0  0  0
 11 10  1  0  0  0  0
 12 13  1  0  0  0  0
 12 11  2  0  0  0  0
 13  8  2  0  0  0  0
 14 12  1  0  0  0  0
 17 14  1  0  0  0  0
 18 14  1  0  0  0  0
 21 19  1  0  0  0  0
 21 20  2  1  0  0  0
 21 22  1  0  0  0  0
 23 22  1  0  0  0  0
 24 21  1  0  0  0  0
 25 26  1  0  0  0  0
 26 27  2  0  0  0  0
 26 24  1  0  0  0  0
 27 28  1  0  0  0  0
 29 30  1  0  0  0  0
 29 27  1  0  0  0  0
 31 29  2  0  0  0  0
 32 31  1  0  0  0  0
 32 25  2  0  0  0  0
 34 33  1  0  0  0  0
 34 25  1  0  0  0  0
 35 34  2  0  0  0  0
 36 34  2  0  0  0  0
M  END
>  <minimizedAffinity>
-4.51949644

>  <minimizedRMSD>
0.540226758

$$$$
