
 OpenBabel03272501493D

 23 24  0  0  0  0  0  0  0  0999 V2000
   38.9270   32.0870   47.4030 C   0  0  0  0  0  0  0  0  0  0  0  0
   38.3790   32.1820   48.6650 C   0  0  0  0  0  0  0  0  0  0  0  0
   38.6930   33.2750   49.4440 C   0  0  0  0  0  0  0  0  0  0  0  0
   38.3030   33.4180   50.4420 H   0  0  0  0  0  0  0  0  0  0  0  0
   39.5300   34.2880   49.0290 C   0  0  0  0  0  0  0  0  0  0  0  0
   39.7710   35.1510   49.6570 H   0  0  0  0  0  0  0  0  0  0  0  0
   40.0960   34.2360   47.7830 C   0  0  0  0  0  0  0  0  0  0  0  0
   39.7730   33.1370   47.0190 C   0  0  0  0  0  0  0  0  0  0  0  0
   36.9720   29.1730   50.4340 C   0  0  0  0  0  0  0  0  0  0  0  0
   37.9150   30.1530   50.0370 C   0  0  0  0  0  0  0  0  0  0  0  0
   37.4990   31.1400   49.1320 C   0  0  0  0  0  0  0  0  0  0  0  0
   36.2050   31.0570   48.7170 N   0  0  0  0  0  0  0  0  0  0  0  0
   35.3370   30.1250   49.1050 C   0  0  0  0  0  0  0  0  0  0  0  0
   35.6980   29.1610   49.9710 N   0  0  0  0  0  0  0  0  0  0  0  0
   34.0350   30.2310   48.5430 N   0  0  0  0  0  0  0  0  0  0  0  0
   37.2440   28.3820   51.1350 H   0  0  0  0  0  0  0  0  0  0  0  0
   38.9090   30.1250   50.4260 H   0  0  0  0  0  0  0  0  0  0  0  0
   33.1530   30.2350   49.1000 H   0  0  0  0  0  0  0  0  0  0  0  0
   33.6830   30.3190   47.5800 H   0  0  0  0  0  0  0  0  0  0  0  0
   38.4630   29.5850   46.9270 H   0  0  0  0  0  0  0  0  0  0  0  0
   38.6330   30.7830   46.3080 S   0  0  0  0  0  0  0  0  0  0  0  0
   37.4440   31.0520   45.4060 O   0  0  0  0  0  0  0  0  0  0  0  0
   39.8510   30.6170   45.4090 O   0  0  0  0  0  0  0  0  0  0  0  0
  1  2  1  0  0  0  0
  2 11  1  0  0  0  0
  2  3  2  0  0  0  0
  3  4  1  0  0  0  0
  5  3  1  0  0  0  0
  5  6  1  0  0  0  0
  7  5  2  0  0  0  0
  8  1  2  0  0  0  0
  8  7  1  0  0  0  0
  9 16  1  0  0  0  0
 10 17  1  0  0  0  0
 10  9  1  0  0  0  0
 11 10  2  0  0  0  0
 12 13  2  0  0  0  0
 12 11  1  0  0  0  0
 13 14  1  0  0  0  0
 14  9  2  0  0  0  0
 15 18  1  0  0  0  0
 15 13  1  0  0  0  0
 19 15  1  0  0  0  0
 21 20  1  0  0  0  0
 21  1  1  0  0  0  0
 22 21  2  0  0  0  0
 23 21  2  0  0  0  0
M  END
>  <minimizedAffinity>
-5.75658035

>  <minimizedRMSD>
2.13890505

$$$$
