
 OpenBabel03272507583D

 35 37  0  0  0  0  0  0  0  0999 V2000
   37.0160   30.7000   47.6530 C   0  0  0  0  0  0  0  0  0  0  0  0
   37.5200   31.7960   48.3280 C   0  0  0  0  0  0  0  0  0  0  0  0
   38.5660   32.5180   47.7760 C   0  0  0  0  0  0  0  0  0  0  0  0
   39.0930   32.1300   46.5520 C   0  0  0  0  0  0  0  0  0  0  0  0
   38.5760   31.0370   45.9000 C   0  0  0  0  0  0  0  0  0  0  0  0
   37.5710   30.3830   46.4810 N   0  0  0  0  0  0  0  0  0  0  0  0
   37.1750   32.1830   49.2900 H   0  0  0  0  0  0  0  0  0  0  0  0
   38.9900   33.3930   48.2850 H   0  0  0  0  0  0  0  0  0  0  0  0
   39.8940   32.7110   46.1670 H   0  0  0  0  0  0  0  0  0  0  0  0
   35.0270   29.0120   50.3490 C   0  0  0  0  0  0  0  0  0  0  0  0
   36.1160   29.6440   49.6810 C   0  0  0  0  0  0  0  0  0  0  0  0
   35.9270   30.0520   48.3650 C   0  0  0  0  0  0  0  0  0  0  0  0
   34.7130   29.8280   47.7810 N   0  0  0  0  0  0  0  0  0  0  0  0
   33.7010   29.2190   48.4640 C   0  0  0  0  0  0  0  0  0  0  0  0
   33.8500   28.8170   49.7240 N   0  0  0  0  0  0  0  0  0  0  0  0
   32.5460   29.1000   47.6500 N   0  0  0  0  0  0  0  0  0  0  0  0
   35.1640   28.6900   51.3760 H   0  0  0  0  0  0  0  0  0  0  0  0
   32.1200   28.2120   47.3540 H   0  0  0  0  0  0  0  0  0  0  0  0
   32.0680   29.9700   47.3100 H   0  0  0  0  0  0  0  0  0  0  0  0
   37.3920   29.8330   50.4260 C   0  0  0  0  0  0  0  0  0  0  0  0
   38.4860   29.6770   49.6000 F   0  0  0  0  0  0  0  0  0  0  0  0
   37.4090   31.1210   50.9180 F   0  0  0  0  0  0  0  0  0  0  0  0
   37.5390   28.9750   51.4860 F   0  0  0  0  0  0  0  0  0  0  0  0
   39.4590   31.5020   43.6490 C   0  0  0  0  0  0  0  0  0  0  0  0
   39.0920   30.5870   44.6140 C   0  0  0  0  0  0  0  0  0  0  0  0
   39.2350   29.2480   44.3120 C   0  0  0  0  0  0  0  0  0  0  0  0
   38.9760   28.4750   45.0020 H   0  0  0  0  0  0  0  0  0  0  0  0
   39.7190   28.7910   43.1100 C   0  0  0  0  0  0  0  0  0  0  0  0
   39.8320   27.7360   42.8720 H   0  0  0  0  0  0  0  0  0  0  0  0
   40.0910   29.6760   42.1320 C   0  0  0  0  0  3  0  0  0  0  0  0
   39.9490   31.0150   42.4310 C   0  0  0  0  0  3  0  0  0  0  0  0
   38.1420   33.5610   44.4680 H   0  0  0  0  0  0  0  0  0  0  0  0
   39.3350   33.2230   43.8860 S   0  0  0  0  0  0  0  0  0  0  0  0
   39.3170   33.9070   42.5270 O   0  0  0  0  0  0  0  0  0  0  0  0
   40.5110   33.8020   44.6200 O   0  0  0  0  0  0  0  0  0  0  0  0
  1  2  1  0  0  0  0
  1 12  1  0  0  0  0
  2  7  1  0  0  0  0
  3  8  1  0  0  0  0
  3  2  2  0  0  0  0
  4  3  1  0  0  0  0
  5  6  1  0  0  0  0
  5  4  2  0  0  0  0
  6  1  2  0  0  0  0
  9  4  1  0  0  0  0
 10 17  1  0  0  0  0
 11 10  2  0  0  0  0
 11 20  1  0  0  0  0
 12 11  1  0  0  0  0
 13 12  2  0  0  0  0
 13 14  1  0  0  0  0
 14 15  2  0  0  0  0
 15 10  1  0  0  0  0
 16 14  1  0  0  0  0
 18 16  1  0  0  0  0
 19 16  1  0  0  0  0
 20 22  1  0  0  0  0
 20 23  1  0  0  0  0
 21 20  1  0  0  0  0
 24 33  1  0  0  0  0
 24 25  1  0  0  0  0
 25  5  1  0  0  0  0
 26 25  2  0  0  0  0
 26 27  1  0  0  0  0
 28 26  1  0  0  0  0
 29 28  1  0  0  0  0
 30 31  1  0  0  0  0
 30 28  2  0  0  0  0
 31 24  2  0  0  0  0
 33 32  1  0  0  0  0
 33 35  2  0  0  0  0
 34 33  2  0  0  0  0
M  END
>  <minimizedAffinity>
-6.4703908

>  <minimizedRMSD>
2.16821623

$$$$
