
 OpenBabel03272501273D

 42 45  0  0  1  0  0  0  0  0999 V2000
   34.8960   30.0060   47.1790 C   0  0  0  0  0  0  0  0  0  0  0  0
   35.5860   30.0270   45.9770 C   0  0  0  0  0  0  0  0  0  0  0  0
   36.8040   30.6720   46.2110 C   0  0  0  0  0  0  0  0  0  0  0  0
   36.8020   31.0080   47.5170 N   0  0  0  0  0  0  0  0  0  0  0  0
   35.6710   30.6030   48.0530 N   0  0  0  0  0  0  0  0  0  0  0  0
   35.2880   29.6360   45.0120 H   0  0  0  0  0  0  0  0  0  0  0  0
   37.6030   30.8730   45.4980 H   0  0  0  0  0  0  0  0  0  0  0  0
   38.5310   32.6850   47.4920 N   0  0  0  0  0  0  0  0  0  0  0  0
   39.1910   33.5040   48.4820 C   0  0  0  0  0  0  0  0  0  0  0  0
   38.5050   33.2590   49.8120 C   0  0  0  0  0  0  0  0  0  0  0  0
   37.2430   32.5040   49.3850 C   0  0  0  0  0  0  0  0  0  0  0  0
   37.8140   31.6830   48.2550 C   0  0  1  0  0  0  0  0  0  0  0  0
   37.8880   33.1970   46.8680 H   0  0  0  0  0  0  0  0  0  0  0  0
   38.9840   34.5640   48.1910 H   0  0  0  0  0  0  0  0  0  0  0  0
   40.2800   33.3310   48.5370 H   0  0  0  0  0  0  0  0  0  0  0  0
   38.2120   34.2050   50.3110 H   0  0  0  0  0  0  0  0  0  0  0  0
   39.1270   32.6100   50.4530 H   0  0  0  0  0  0  0  0  0  0  0  0
   36.4490   33.1830   49.0710 H   0  0  0  0  0  0  0  0  0  0  0  0
   36.9720   31.8550   50.2280 H   0  0  0  0  0  0  0  0  0  0  0  0
   38.7140   30.6940   48.8050 N   0  0  0  0  0  0  0  0  0  0  0  0
   38.6700   30.6640   49.8470 H   0  0  0  0  0  0  0  0  0  0  0  0
   38.6090   29.7560   48.3700 H   0  0  0  0  0  0  0  0  0  0  0  0
   33.2500   28.4690   48.2930 C   0  0  0  0  0  0  0  0  0  0  0  0
   33.5770   29.4080   47.3180 C   0  0  0  0  0  0  0  0  0  0  0  0
   32.5580   29.7900   46.4240 C   0  0  0  0  0  0  0  0  0  0  0  0
   31.3370   29.2260   46.5670 N   0  0  0  0  0  0  0  0  0  0  0  0
   31.0730   28.3130   47.5380 C   0  0  0  0  0  0  0  0  0  0  0  0
   32.0480   27.9330   48.4110 N   0  0  0  0  0  0  0  0  0  0  0  0
   34.0280   28.1710   48.9850 H   0  0  0  0  0  0  0  0  0  0  0  0
   32.7380   30.5140   45.6410 H   0  0  0  0  0  0  0  0  0  0  0  0
   29.4280   26.5910   46.9310 C   0  0  0  0  0  0  0  0  0  0  0  0
   29.7430   27.7020   47.6910 C   0  0  0  0  0  0  0  0  0  0  0  0
   28.8140   28.2250   48.5810 C   0  0  0  0  0  0  0  0  0  0  0  0
   29.0750   29.1100   49.1810 H   0  0  0  0  0  0  0  0  0  0  0  0
   27.5650   27.6830   48.7500 C   0  0  0  0  0  0  0  0  0  0  0  0
   26.8700   28.1100   49.4450 H   0  0  0  0  0  0  0  0  0  0  0  0
   27.2040   26.5800   48.0190 C   0  0  0  0  0  0  0  0  0  0  0  0
   28.1400   26.0870   47.1510 C   0  0  0  0  0  0  0  0  0  0  0  0
   31.7320   26.5020   45.7160 H   0  0  0  0  0  0  0  0  0  0  0  0
   30.5200   25.8670   45.7960 S   0  0  0  0  0  0  0  0  0  0  0  0
   30.6160   24.4080   46.0620 O   0  0  0  0  0  0  0  0  0  0  0  0
   29.9040   26.0230   44.4120 O   0  0  0  0  0  0  0  0  0  0  0  0
  1 24  1  0  0  0  0
  1  5  2  0  0  0  0
  2  3  2  0  0  0  0
  2  1  1  0  0  0  0
  3  4  1  0  0  0  0
  4  5  1  0  0  0  0
  4 12  1  0  0  0  0
  6  2  1  0  0  0  0
  7  3  1  0  0  0  0
  8 12  1  0  0  0  0
  8  9  1  0  0  0  0
  9 15  1  0  0  0  0
  9 10  1  0  0  0  0
 10 16  1  0  0  0  0
 10 17  1  0  0  0  0
 11 10  1  0  0  0  0
 11 19  1  0  0  0  0
 12 20  1  1  0  0  0
 12 11  1  0  0  0  0
 13  8  1  0  0  0  0
 14  9  1  0  0  0  0
 18 11  1  0  0  0  0
 20 21  1  0  0  0  0
 22 20  1  0  0  0  0
 23 28  1  0  0  0  0
 23 29  1  0  0  0  0
 24 23  2  0  0  0  0
 25 26  2  0  0  0  0
 25 24  1  0  0  0  0
 26 27  1  0  0  0  0
 27 32  1  0  0  0  0
 27 28  2  0  0  0  0
 30 25  1  0  0  0  0
 31 38  2  0  0  0  0
 31 32  1  0  0  0  0
 32 33  2  0  0  0  0
 33 35  1  0  0  0  0
 33 34  1  0  0  0  0
 35 36  1  0  0  0  0
 37 35  2  0  0  0  0
 38 37  1  0  0  0  0
 39 40  1  0  0  0  0
 40 41  2  0  0  0  0
 40 31  1  0  0  0  0
 42 40  2  0  0  0  0
M  END
>  <minimizedAffinity>
-5.7150588

>  <minimizedRMSD>
1.28310096

$$$$
