
 OpenBabel03272507243D

 33 35  0  0  1  0  0  0  0  0999 V2000
   36.5850   29.8270   48.8150 C   0  0  0  0  0  0  0  0  0  0  0  0
   37.6640   30.5460   48.2510 C   0  0  0  0  0  0  0  0  0  0  0  0
   37.5360   30.9660   46.9330 C   0  0  0  0  0  0  0  0  0  0  0  0
   36.3940   30.6530   46.3060 N   0  0  0  0  0  0  0  0  0  0  0  0
   35.3620   29.9700   46.8380 C   0  0  0  0  0  0  0  0  0  0  0  0
   35.4770   29.5580   48.1140 N   0  0  0  0  0  0  0  0  0  0  0  0
   38.5440   31.6870   46.2710 N   0  0  0  0  0  0  0  0  0  0  0  0
   39.4900   32.5760   46.9510 C   0  0  0  0  0  0  0  0  0  0  0  0
   40.3240   33.1890   45.8610 C   0  0  0  0  0  0  0  0  0  0  0  0
   39.3880   33.1110   44.6960 C   0  0  0  0  0  0  0  0  0  0  0  0
   38.8530   31.7080   44.8970 C   0  0  2  0  0  0  0  0  0  0  0  0
   36.7140   29.5130   49.8430 H   0  0  0  0  0  0  0  0  0  0  0  0
   38.5610   30.7660   48.8140 H   0  0  0  0  0  0  0  0  0  0  0  0
   34.4950   29.7860   46.2140 H   0  0  0  0  0  0  0  0  0  0  0  0
   40.0660   32.0630   47.7250 H   0  0  0  0  0  0  0  0  0  0  0  0
   38.9050   33.3870   47.4430 H   0  0  0  0  0  0  0  0  0  0  0  0
   40.5360   34.2660   46.0510 H   0  0  0  0  0  0  0  0  0  0  0  0
   41.2780   32.6820   45.6740 H   0  0  0  0  0  0  0  0  0  0  0  0
   38.6120   33.8760   44.7140 H   0  0  0  0  0  0  0  0  0  0  0  0
   39.9440   33.1240   43.7190 H   0  0  0  0  0  0  0  0  0  0  0  0
   39.7060   31.0030   44.7400 H   0  0  0  0  0  0  0  0  0  0  0  0
   37.7160   30.2280   43.2290 C   0  0  0  0  0  0  0  0  0  0  0  0
   37.7710   31.4120   43.9410 C   0  0  0  0  0  0  0  0  0  0  0  0
   36.7380   32.2630   43.6260 C   0  0  0  0  0  0  0  0  0  0  0  0
   36.6760   33.2370   44.1070 H   0  0  0  0  0  0  0  0  0  0  0  0
   35.7390   32.0230   42.7220 C   0  0  0  0  0  0  0  0  0  0  0  0
   34.9470   32.7410   42.5180 H   0  0  0  0  0  0  0  0  0  0  0  0
   35.7450   30.8170   42.0450 C   0  0  0  0  0  3  0  0  0  0  0  0
   36.7490   29.9200   42.3090 C   0  0  0  0  0  3  0  0  0  0  0  0
   39.3140   28.9920   44.8650 H   0  0  0  0  0  0  0  0  0  0  0  0
   38.9800   29.0250   43.5210 S   0  0  0  0  0  0  0  0  0  0  0  0
   38.3920   27.6960   43.1030 O   0  0  0  0  0  0  0  0  0  0  0  0
   40.2100   29.3460   42.7590 O   0  0  0  0  0  0  0  0  0  0  0  0
  1 12  1  0  0  0  0
  2 13  1  0  0  0  0
  2  1  1  0  0  0  0
  3  2  2  0  0  0  0
  4  5  2  0  0  0  0
  4  3  1  0  0  0  0
  5  6  1  0  0  0  0
  6  1  2  0  0  0  0
  7  3  1  0  0  0  0
  7  8  1  0  0  0  0
  8 16  1  0  0  0  0
  8 15  1  0  0  0  0
  9 17  1  0  0  0  0
  9  8  1  0  0  0  0
 10 19  1  0  0  0  0
 10 11  1  0  0  0  0
 10  9  1  0  0  0  0
 11 21  1  6  0  0  0
 11  7  1  0  0  0  0
 14  5  1  0  0  0  0
 18  9  1  0  0  0  0
 20 10  1  0  0  0  0
 22 31  1  0  0  0  0
 22 23  1  0  0  0  0
 23 11  1  0  0  0  0
 24 23  2  0  0  0  0
 24 25  1  0  0  0  0
 26 24  1  0  0  0  0
 27 26  1  0  0  0  0
 28 29  1  0  0  0  0
 28 26  2  0  0  0  0
 29 22  2  0  0  0  0
 31 30  1  0  0  0  0
 32 31  2  0  0  0  0
 33 31  2  0  0  0  0
M  END
>  <minimizedAffinity>
-4.72458076

>  <minimizedRMSD>
2.75817156

$$$$
