
 OpenBabel03272504223D

 42 44  0  0  1  0  0  0  0  0999 V2000
   38.5410   32.0110   47.4210 C   0  0  2  0  0  0  0  0  0  0  0  0
   38.0270   31.1430   48.5490 C   0  0  1  0  0  0  0  0  0  0  0  0
   38.6620   31.8990   49.7230 C   0  0  0  0  0  0  0  0  0  0  0  0
   38.2800   33.2030   49.4380 O   0  0  0  0  0  0  0  0  0  0  0  0
   38.4200   33.3800   48.0840 C   0  0  0  0  0  0  0  0  0  0  0  0
   39.5820   31.7450   47.2130 H   0  0  0  0  0  0  0  0  0  0  0  0
   38.3400   30.1030   48.5000 H   0  0  0  0  0  0  0  0  0  0  0  0
   39.7520   31.7930   49.7050 H   0  0  0  0  0  0  0  0  0  0  0  0
   38.1940   31.5840   50.6750 H   0  0  0  0  0  0  0  0  0  0  0  0
   37.6660   34.0260   47.6030 H   0  0  0  0  0  0  0  0  0  0  0  0
   39.3990   33.8850   47.9230 H   0  0  0  0  0  0  0  0  0  0  0  0
   36.6510   31.3250   48.5950 O   0  0  0  0  0  0  0  0  0  0  0  0
   35.8310   29.3760   47.0780 O   0  0  0  0  0  0  0  0  0  0  0  0
   35.8030   29.8790   48.4960 P   0  0  1  0  0  0  0  0  0  0  0  0
   36.5570   28.6980   49.4870 O   0  0  0  0  0  0  0  0  0  0  0  0
   36.8190   29.2040   50.3070 H   0  0  0  0  0  0  0  0  0  0  0  0
   34.2040   30.1030   49.0160 O   0  0  0  0  0  0  0  0  0  0  0  0
   33.8590   28.9880   49.7590 C   0  0  0  0  0  0  0  0  0  0  0  0
   33.2770   29.3130   50.6660 H   0  0  0  0  0  0  0  0  0  0  0  0
   34.7340   28.4020   50.1220 H   0  0  0  0  0  0  0  0  0  0  0  0
   32.9740   28.0480   49.0340 C   0  0  0  0  0  0  0  0  0  0  0  0
   33.5820   27.1570   48.1840 C   0  0  0  0  0  0  0  0  0  0  0  0
   32.7980   26.2450   47.4720 C   0  0  0  0  0  0  0  0  0  0  0  0
   31.4500   26.2980   47.6710 N   0  0  0  0  0  0  0  0  0  0  0  0
   30.8750   27.1840   48.5120 C   0  0  0  0  0  0  0  0  0  0  0  0
   31.6390   28.0680   49.2020 N   0  0  0  0  0  0  0  0  0  0  0  0
   34.6230   27.0410   47.9640 H   0  0  0  0  0  0  0  0  0  0  0  0
   33.1980   25.5110   46.7840 H   0  0  0  0  0  0  0  0  0  0  0  0
   29.7930   27.1780   48.6280 H   0  0  0  0  0  0  0  0  0  0  0  0
   37.7130   31.8590   46.3390 O   0  0  0  0  0  0  0  0  0  0  0  0
   39.2220   32.2410   44.5900 C   0  0  0  0  0  0  0  0  0  0  0  0
   37.9160   32.1630   45.0260 C   0  0  0  0  0  0  0  0  0  0  0  0
   36.9380   32.4040   44.0800 C   0  0  0  0  0  0  0  0  0  0  0  0
   35.9060   32.3410   44.4330 H   0  0  0  0  0  0  0  0  0  0  0  0
   37.2100   32.7080   42.7680 C   0  0  0  0  0  0  0  0  0  0  0  0
   36.4450   32.8920   42.0420 H   0  0  0  0  0  0  0  0  0  0  0  0
   38.5330   32.7660   42.4090 C   0  0  0  0  0  3  0  0  0  0  0  0
   39.5830   32.5380   43.2920 C   0  0  0  0  0  3  0  0  0  0  0  0
   40.0740   31.9600   47.0100 H   0  0  0  0  0  0  0  0  0  0  0  0
   40.5480   31.9540   45.7030 S   0  0  0  0  0  0  0  0  0  0  0  0
   41.0970   30.5840   45.4670 O   0  0  0  0  0  0  0  0  0  0  0  0
   41.6290   32.9570   45.5720 O   0  0  0  0  0  0  0  0  0  0  0  0
  1  6  1  6  0  0  0
  1  5  1  0  0  0  0
  1  2  1  0  0  0  0
  2  7  1  6  0  0  0
  2 12  1  0  0  0  0
  2  3  1  0  0  0  0
  3  9  1  0  0  0  0
  4  3  1  0  0  0  0
  5  4  1  0  0  0  0
  8  3  1  0  0  0  0
 10  5  1  0  0  0  0
 11  5  1  0  0  0  0
 14 13  2  6  0  0  0
 14 12  1  0  0  0  0
 14 17  1  0  0  0  0
 14 15  1  0  0  0  0
 15 16  1  0  0  0  0
 17 18  1  0  0  0  0
 18 20  1  0  0  0  0
 18 19  1  0  0  0  0
 21 26  1  0  0  0  0
 21 18  1  0  0  0  0
 22 21  2  0  0  0  0
 23 24  2  0  0  0  0
 23 22  1  0  0  0  0
 24 25  1  0  0  0  0
 25 29  1  0  0  0  0
 25 26  2  0  0  0  0
 27 22  1  0  0  0  0
 28 23  1  0  0  0  0
 30  1  1  0  0  0  0
 31 32  1  0  0  0  0
 31 40  1  0  0  0  0
 32 30  1  0  0  0  0
 33 34  1  0  0  0  0
 33 32  2  0  0  0  0
 35 33  1  0  0  0  0
 36 35  1  0  0  0  0
 37 35  2  0  0  0  0
 37 38  1  0  0  0  0
 38 31  2  0  0  0  0
 40 39  1  0  0  0  0
 41 40  2  0  0  0  0
 42 40  2  0  0  0  0
M  END
>  <minimizedAffinity>
-4.02532721

>  <minimizedRMSD>
1.37914026

$$$$
