
 OpenBabel03272509573D

 49 52  0  0  0  0  0  0  0  0999 V2000
   33.5020   27.5360   47.4760 C   0  0  0  0  0  0  0  0  0  0  0  0
   33.7470   26.5490   47.8920 H   0  0  0  0  0  0  0  0  0  0  0  0
   33.7100   27.4600   46.3840 H   0  0  0  0  0  0  0  0  0  0  0  0
   32.0510   27.8360   47.6720 C   0  0  0  0  0  0  0  0  0  0  0  0
   31.4170   27.2280   48.7380 C   0  0  0  0  0  0  0  0  0  0  0  0
   30.0870   27.4510   48.9860 C   0  0  0  0  0  0  0  0  0  0  0  0
   29.3960   28.2560   48.1960 N   0  0  0  0  0  0  0  0  0  0  0  0
   30.0230   28.8580   47.1400 C   0  0  0  0  0  0  0  0  0  0  0  0
   31.3230   28.6450   46.8940 N   0  0  0  0  0  0  0  0  0  0  0  0
   31.9620   26.5750   49.3850 H   0  0  0  0  0  0  0  0  0  0  0  0
   29.5700   26.9790   49.8240 H   0  0  0  0  0  0  0  0  0  0  0  0
   29.2140   29.7580   46.2830 C   0  0  0  0  0  0  0  0  0  0  0  0
   28.6070   30.3990   46.9880 H   0  0  0  0  0  0  0  0  0  0  0  0
   29.8980   30.5100   45.7980 H   0  0  0  0  0  0  0  0  0  0  0  0
   28.6630   28.7810   44.0300 C   0  0  0  0  0  0  0  0  0  0  0  0
   28.3310   29.0680   45.3330 C   0  0  0  0  0  0  0  0  0  0  0  0
   27.0650   28.6700   45.7840 C   0  0  0  0  0  0  0  0  0  0  0  0
   26.7880   28.8890   46.8050 H   0  0  0  0  0  0  0  0  0  0  0  0
   26.1460   28.0130   44.9920 C   0  0  0  0  0  0  0  0  0  0  0  0
   25.1750   27.7270   45.3960 H   0  0  0  0  0  0  0  0  0  0  0  0
   26.4650   27.7170   43.6840 C   0  0  0  0  0  3  0  0  0  0  0  0
   27.7160   28.1130   43.2470 C   0  0  0  0  0  3  0  0  0  0  0  0
   31.2520   28.7870   44.1710 H   0  0  0  0  0  0  0  0  0  0  0  0
   30.2070   29.2370   43.3850 S   0  0  0  0  0  0  0  0  0  0  0  0
   30.3230   30.6670   43.0100 O   0  0  0  0  0  0  0  0  0  0  0  0
   30.3700   28.4580   42.0800 O   0  0  0  0  0  0  0  0  0  0  0  0
   34.3880   28.6290   48.0240 C   0  0  0  0  0  0  0  0  0  0  0  0
   35.2150   28.8850   47.3600 H   0  0  0  0  0  0  0  0  0  0  0  0
   33.7690   29.5420   48.1630 H   0  0  0  0  0  0  0  0  0  0  0  0
   34.8600   28.2920   49.3210 O   0  0  0  0  0  0  0  0  0  0  0  0
   37.1090   29.9960   51.5690 C   0  0  0  0  0  0  0  0  0  0  0  0
   37.8810   30.7320   50.6440 C   0  0  0  0  0  0  0  0  0  0  0  0
   37.5720   30.5910   49.2970 C   0  0  0  0  0  0  0  0  0  0  0  0
   36.5390   29.7440   48.9890 N   0  0  0  0  0  0  0  0  0  0  0  0
   35.8240   29.0580   49.8830 C   0  0  0  0  0  0  0  0  0  0  0  0
   36.1210   29.1940   51.1830 N   0  0  0  0  0  0  0  0  0  0  0  0
   37.3670   30.1220   52.6110 H   0  0  0  0  0  0  0  0  0  0  0  0
   38.6930   31.3970   50.9020 H   0  0  0  0  0  0  0  0  0  0  0  0
   38.7890   33.2250   49.2890 F   0  0  0  0  0  0  0  0  0  0  0  0
   38.8240   32.4850   48.1860 C   0  0  0  0  0  0  0  0  0  0  0  0
   38.2540   31.2660   48.2120 C   0  0  0  0  0  0  0  0  0  0  0  0
   38.3450   30.5650   46.9990 C   0  0  0  0  0  0  0  0  0  0  0  0
   38.9650   31.0940   45.8950 C   0  0  0  0  0  0  0  0  0  0  0  0
   39.5320   32.3370   45.9110 C   0  0  0  0  0  0  0  0  0  0  0  0
   39.4430   33.0120   47.0830 C   0  0  0  0  0  0  0  0  0  0  0  0
   37.9120   29.5640   46.9170 H   0  0  0  0  0  0  0  0  0  0  0  0
   38.9970   30.4900   44.9850 H   0  0  0  0  0  0  0  0  0  0  0  0
   40.0070   32.7010   45.0130 H   0  0  0  0  0  0  0  0  0  0  0  0
   39.8900   34.0180   47.1320 H   0  0  0  0  0  0  0  0  0  0  0  0
  1  4  1  0  0  0  0
  1  2  1  0  0  0  0
  1 27  1  0  0  0  0
  3  1  1  0  0  0  0
  4  5  1  0  0  0  0
  5  6  2  0  0  0  0
  5 10  1  0  0  0  0
  6 11  1  0  0  0  0
  7  6  1  0  0  0  0
  8  7  2  0  0  0  0
  9  8  1  0  0  0  0
  9  4  2  0  0  0  0
 12 13  1  0  0  0  0
 12  8  1  0  0  0  0
 14 12  1  0  0  0  0
 15 16  1  0  0  0  0
 16 17  2  0  0  0  0
 16 12  1  0  0  0  0
 17 18  1  0  0  0  0
 19 20  1  0  0  0  0
 19 17  1  0  0  0  0
 21 19  2  0  0  0  0
 22 21  1  0  0  0  0
 22 15  2  0  0  0  0
 24 15  1  0  0  0  0
 24 23  1  0  0  0  0
 25 24  2  0  0  0  0
 26 24  2  0  0  0  0
 27 29  1  0  0  0  0
 27 30  1  0  0  0  0
 28 27  1  0  0  0  0
 30 35  1  0  0  0  0
 31 37  1  0  0  0  0
 32 38  1  0  0  0  0
 32 31  2  0  0  0  0
 33 32  1  0  0  0  0
 34 33  2  0  0  0  0
 34 35  1  0  0  0  0
 35 36  2  0  0  0  0
 36 31  1  0  0  0  0
 40 41  1  0  0  0  0
 40 39  1  0  0  0  0
 41 33  1  0  0  0  0
 42 41  2  0  0  0  0
 43 44  2  0  0  0  0
 43 42  1  0  0  0  0
 44 45  1  0  0  0  0
 45 49  1  0  0  0  0
 45 40  2  0  0  0  0
 46 42  1  0  0  0  0
 47 43  1  0  0  0  0
 48 44  1  0  0  0  0
M  END
>  <minimizedAffinity>
-6.34547758

>  <minimizedRMSD>
0.595067263

$$$$
