
 OpenBabel03262522273D

 49 52  0  0  0  0  0  0  0  0999 V2000
   35.0970   30.7940   49.7090 C   0  0  0  0  0  0  0  0  0  0  0  0
   34.4410   30.6310   50.5850 H   0  0  0  0  0  0  0  0  0  0  0  0
   35.0410   31.8630   49.4390 H   0  0  0  0  0  0  0  0  0  0  0  0
   33.6830   28.4900   50.1630 F   0  0  0  0  0  0  0  0  0  0  0  0
   33.9050   28.8690   48.8760 C   0  0  0  0  0  0  0  0  0  0  0  0
   34.6060   30.0150   48.5240 C   0  0  0  0  0  0  0  0  0  0  0  0
   34.8010   30.3530   47.2110 C   0  0  0  0  0  0  0  0  0  0  0  0
   34.2950   29.5470   46.1810 C   0  0  0  0  0  0  0  0  0  0  0  0
   33.5970   28.4060   46.5090 C   0  0  0  0  0  0  0  0  0  0  0  0
   33.4140   28.0870   47.8350 C   0  0  0  0  0  0  0  0  0  0  0  0
   35.3630   31.2720   47.0680 H   0  0  0  0  0  0  0  0  0  0  0  0
   34.4900   29.8800   45.1730 H   0  0  0  0  0  0  0  0  0  0  0  0
   33.2070   27.7840   45.7140 H   0  0  0  0  0  0  0  0  0  0  0  0
   32.7020   26.9260   48.0950 O   0  0  0  0  0  0  0  0  0  0  0  0
   31.6450   25.4490   46.7230 C   0  0  0  0  0  0  0  0  0  0  0  0
   32.8090   25.7330   47.4510 C   0  0  0  0  0  0  0  0  0  0  0  0
   33.8260   24.8040   47.4040 C   0  0  0  0  0  0  0  0  0  0  0  0
   34.6790   25.1040   47.9910 H   0  0  0  0  0  0  0  0  0  0  0  0
   33.6940   23.6450   46.6650 C   0  0  0  0  0  0  0  0  0  0  0  0
   34.5740   23.0200   46.7280 H   0  0  0  0  0  0  0  0  0  0  0  0
   32.5430   23.3780   45.9520 C   0  0  0  0  0  0  0  0  0  0  0  0
   31.5090   24.2780   45.9750 C   0  0  0  0  0  0  0  0  0  0  0  0
   30.6190   27.7640   46.3090 H   0  0  0  0  0  0  0  0  0  0  0  0
   30.2260   26.4910   46.6420 S   0  0  0  0  0  0  0  0  0  0  0  0
   29.5750   26.4850   47.9860 O   0  0  0  0  0  0  0  0  0  0  0  0
   29.2280   26.0100   45.6340 O   0  0  0  0  0  0  0  0  0  0  0  0
   36.7920   30.2320   50.0260 S   0  0  0  0  0  0  0  0  0  0  0  0
   39.0170   32.9170   47.9980 C   0  0  0  0  0  0  0  0  0  0  0  0
   39.2940   32.2080   46.8240 C   0  0  0  0  0  0  0  0  0  0  0  0
   38.7790   30.9380   46.7210 C   0  0  0  0  0  0  0  0  0  0  0  0
   38.0390   30.4500   47.7540 N   0  0  0  0  0  0  0  0  0  0  0  0
   37.8020   31.1390   48.8300 C   0  0  0  0  0  0  0  0  0  0  0  0
   38.2850   32.4180   49.0060 N   0  0  0  0  0  0  0  0  0  0  0  0
   39.3940   33.9250   48.1460 H   0  0  0  0  0  0  0  0  0  0  0  0
   38.9890   30.3900   45.8200 H   0  0  0  0  0  0  0  0  0  0  0  0
   40.0450   32.8130   45.8720 O   0  0  0  0  0  0  0  0  0  0  0  0
   40.0670   32.2970   44.5790 C   0  0  0  0  0  0  0  0  0  0  0  0
   40.6410   31.1160   44.1680 C   0  0  0  0  0  0  0  0  0  0  0  0
   40.5600   30.7760   42.8580 C   0  0  0  0  0  0  0  0  0  0  0  0
   39.9140   31.6090   41.9840 C   0  0  0  0  0  0  0  0  0  0  0  0
   39.3420   32.8010   42.4330 C   0  0  0  0  0  0  0  0  0  0  0  0
   39.4320   33.1240   43.7410 N   0  0  0  0  0  0  0  0  0  0  0  0
   41.1210   30.5470   44.9600 H   0  0  0  0  0  0  0  0  0  0  0  0
   41.0060   29.8610   42.5430 H   0  0  0  0  0  0  0  0  0  0  0  0
   39.8170   31.3960   40.9360 H   0  0  0  0  0  0  0  0  0  0  0  0
   38.6250   33.7230   41.4570 C   0  0  0  0  0  0  0  0  0  0  0  0
   39.3550   34.4000   40.9720 H   0  0  0  0  0  0  0  0  0  0  0  0
   37.9790   34.3910   42.0930 H   0  0  0  0  0  0  0  0  0  0  0  0
   37.9940   33.1650   40.7680 H   0  0  0  0  0  0  0  0  0  0  0  0
  1 27  1  0  0  0  0
  1  2  1  0  0  0  0
  3  1  1  0  0  0  0
  5  4  1  0  0  0  0
  6  5  1  0  0  0  0
  6  1  1  0  0  0  0
  7  6  2  0  0  0  0
  8  9  2  0  0  0  0
  8  7  1  0  0  0  0
  9 10  1  0  0  0  0
 10 14  1  0  0  0  0
 10  5  2  0  0  0  0
 11  7  1  0  0  0  0
 12  8  1  0  0  0  0
 13  9  1  0  0  0  0
 15 16  1  0  0  0  0
 16 14  1  0  0  0  0
 17 16  2  0  0  0  0
 17 18  1  0  0  0  0
 19 20  1  0  0  0  0
 19 17  1  0  0  0  0
 21 22  1  0  0  0  0
 21 19  2  0  0  0  0
 22 15  2  0  0  0  0
 23 24  1  0  0  0  0
 24 15  1  0  0  0  0
 24 25  2  0  0  0  0
 26 24  2  0  0  0  0
 28 34  1  0  0  0  0
 28 33  1  0  0  0  0
 29 28  2  0  0  0  0
 30 29  1  0  0  0  0
 30 31  2  0  0  0  0
 31 32  1  0  0  0  0
 32 33  2  0  0  0  0
 32 27  1  0  0  0  0
 35 30  1  0  0  0  0
 36 29  1  0  0  0  0
 37 36  1  0  0  0  0
 38 37  1  0  0  0  0
 38 43  1  0  0  0  0
 39 38  2  0  0  0  0
 40 41  2  0  0  0  0
 40 39  1  0  0  0  0
 41 42  1  0  0  0  0
 42 37  2  0  0  0  0
 44 39  1  0  0  0  0
 45 40  1  0  0  0  0
 46 48  1  0  0  0  0
 46 41  1  0  0  0  0
 47 46  1  0  0  0  0
 49 46  1  0  0  0  0
M  END
>  <minimizedAffinity>
-5.87450933

>  <minimizedRMSD>
2.23157024

$$$$
