
 OpenBabel03272510103D

 31 33  0  0  0  0  0  0  0  0999 V2000
   36.1860   30.1670   47.4950 C   0  0  0  0  0  0  0  0  0  0  0  0
   37.2610   30.9250   47.1520 C   0  0  0  0  0  0  0  0  0  0  0  0
   37.5970   31.2300   45.8410 C   0  0  0  0  0  0  0  0  0  0  0  0
   36.8240   30.7550   44.8010 C   0  0  0  0  0  0  0  0  0  0  0  0
   35.7330   29.9850   45.1720 C   0  0  0  0  0  0  0  0  0  0  0  0
   35.4470   29.7150   46.4610 N   0  0  0  0  0  0  0  0  0  0  0  0
   37.9120   31.3310   47.9090 H   0  0  0  0  0  0  0  0  0  0  0  0
   38.4540   31.8350   45.5620 H   0  0  0  0  0  0  0  0  0  0  0  0
   35.0510   29.5540   44.4590 H   0  0  0  0  0  0  0  0  0  0  0  0
   36.7210   29.2960   49.7930 C   0  0  0  0  0  0  0  0  0  0  0  0
   35.8360   29.8490   48.8660 C   0  0  0  0  0  0  0  0  0  0  0  0
   34.5320   30.1120   49.2900 C   0  0  0  0  0  0  0  0  0  0  0  0
   34.1800   29.8220   50.5770 N   0  0  0  0  0  0  0  0  0  0  0  0
   35.0690   29.2880   51.4370 C   0  0  0  0  0  0  0  0  0  0  0  0
   36.3410   29.0200   51.0560 N   0  0  0  0  0  0  0  0  0  0  0  0
   37.7110   29.1160   49.4050 H   0  0  0  0  0  0  0  0  0  0  0  0
   33.7510   30.5430   48.6620 H   0  0  0  0  0  0  0  0  0  0  0  0
   34.7570   29.0670   52.4570 H   0  0  0  0  0  0  0  0  0  0  0  0
   37.0720   31.0010   43.4590 O   0  0  0  0  0  0  0  0  0  0  0  0
   38.6070   31.5000   41.7450 C   0  0  0  0  0  0  0  0  0  0  0  0
   38.2440   30.7100   42.8170 C   0  0  0  0  0  0  0  0  0  0  0  0
   39.0510   29.6610   43.2160 C   0  0  0  0  0  0  0  0  0  0  0  0
   38.7780   29.0230   44.0670 H   0  0  0  0  0  0  0  0  0  0  0  0
   40.2270   29.4290   42.5100 C   0  0  0  0  0  0  0  0  0  0  0  0
   40.8800   28.5990   42.8170 H   0  0  0  0  0  0  0  0  0  0  0  0
   40.6190   30.2060   41.4290 C   0  0  0  0  0  3  0  0  0  0  0  0
   39.7910   31.2530   41.0470 C   0  0  0  0  0  3  0  0  0  0  0  0
   36.6190   32.3680   40.3650 H   0  0  0  0  0  0  0  0  0  0  0  0
   37.5780   32.8240   41.2480 S   0  0  0  0  0  0  0  0  0  0  0  0
   36.9570   33.4030   42.4870 O   0  0  0  0  0  0  0  0  0  0  0  0
   38.4190   33.8920   40.6160 O   0  0  0  0  0  0  0  0  0  0  0  0
  1 11  1  0  0  0  0
  2  1  1  0  0  0  0
  2  7  1  0  0  0  0
  3  2  2  0  0  0  0
  4  5  2  0  0  0  0
  4  3  1  0  0  0  0
  5  6  1  0  0  0  0
  6  1  2  0  0  0  0
  8  3  1  0  0  0  0
  9  5  1  0  0  0  0
 10 15  1  0  0  0  0
 11 12  1  0  0  0  0
 11 10  2  0  0  0  0
 12 13  2  0  0  0  0
 13 14  1  0  0  0  0
 14 18  1  0  0  0  0
 15 14  2  0  0  0  0
 16 10  1  0  0  0  0
 17 12  1  0  0  0  0
 19  4  1  0  0  0  0
 20 21  1  0  0  0  0
 21 22  2  0  0  0  0
 21 19  1  0  0  0  0
 22 23  1  0  0  0  0
 24 25  1  0  0  0  0
 24 22  1  0  0  0  0
 26 24  2  0  0  0  0
 27 26  1  0  0  0  0
 27 20  2  0  0  0  0
 28 29  1  0  0  0  0
 29 20  1  0  0  0  0
 29 30  2  0  0  0  0
 31 29  2  0  0  0  0
M  END
>  <minimizedAffinity>
-4.06985569

>  <minimizedRMSD>
5.34348536

$$$$
