
 OpenBabel03272509563D

 46 49  0  0  0  0  0  0  0  0999 V2000
   36.4130   26.0540   32.2160 C   0  0  0  0  0  0  0  0  0  0  0  0
   35.5590   25.4610   32.5930 H   0  0  0  0  0  0  0  0  0  0  0  0
   36.0680   26.6020   31.3030 H   0  0  0  0  0  0  0  0  0  0  0  0
   37.5810   25.2250   31.7960 C   0  0  0  0  0  0  0  0  0  0  0  0
   38.5030   25.8150   31.9180 H   0  0  0  0  0  0  0  0  0  0  0  0
   37.5330   24.9320   30.7130 H   0  0  0  0  0  0  0  0  0  0  0  0
   37.7000   23.9550   32.5660 C   0  0  0  0  0  0  0  0  0  0  0  0
   36.8380   22.9190   32.2670 C   0  0  0  0  0  0  0  0  0  0  0  0
   36.8790   21.7270   32.9230 C   0  0  0  0  0  0  0  0  0  0  0  0
   37.7710   21.5530   33.8760 N   0  0  0  0  0  0  0  0  0  0  0  0
   38.6300   22.5530   34.1900 C   0  0  0  0  0  0  0  0  0  0  0  0
   38.5960   23.7400   33.5440 N   0  0  0  0  0  0  0  0  0  0  0  0
   36.1060   23.0670   31.4830 H   0  0  0  0  0  0  0  0  0  0  0  0
   36.1860   20.9280   32.6650 H   0  0  0  0  0  0  0  0  0  0  0  0
   39.3290   22.7180   36.5600 C   0  0  0  0  0  0  0  0  0  0  0  0
   39.6390   22.3960   35.2480 C   0  0  0  0  0  0  0  0  0  0  0  0
   40.9250   21.9240   34.9580 C   0  0  0  0  0  0  0  0  0  0  0  0
   41.1570   21.6740   33.9240 H   0  0  0  0  0  0  0  0  0  0  0  0
   41.8940   21.7640   35.9230 C   0  0  0  0  0  0  0  0  0  0  0  0
   42.8730   21.3930   35.6340 H   0  0  0  0  0  0  0  0  0  0  0  0
   41.6250   22.0700   37.2220 C   0  0  0  0  0  3  0  0  0  0  0  0
   40.3570   22.5340   37.4930 C   0  0  0  0  0  3  0  0  0  0  0  0
   36.7360   22.7620   36.3490 H   0  0  0  0  0  0  0  0  0  0  0  0
   37.7750   23.3090   37.0310 S   0  0  0  0  0  0  0  0  0  0  0  0
   37.6420   23.1500   38.5350 O   0  0  0  0  0  0  0  0  0  0  0  0
   37.7420   24.8040   36.7600 O   0  0  0  0  0  0  0  0  0  0  0  0
   36.8250   27.0660   33.1200 O   0  0  0  0  0  0  0  0  0  0  0  0
   36.3580   30.3040   31.5740 C   0  0  0  0  0  0  0  0  0  0  0  0
   35.7280   30.9900   32.6440 C   0  0  0  0  0  0  0  0  0  0  0  0
   35.5050   30.3040   33.8150 C   0  0  0  0  0  0  0  0  0  0  0  0
   35.9220   28.9950   33.8420 N   0  0  0  0  0  0  0  0  0  0  0  0
   36.5100   28.3630   32.8350 C   0  0  0  0  0  0  0  0  0  0  0  0
   36.7300   29.0330   31.6840 N   0  0  0  0  0  0  0  0  0  0  0  0
   36.5080   30.8930   30.6770 H   0  0  0  0  0  0  0  0  0  0  0  0
   35.4070   32.0020   32.6210 H   0  0  0  0  0  0  0  0  0  0  0  0
   36.6830   31.9340   35.8890 F   0  0  0  0  0  0  0  0  0  0  0  0
   35.4000   31.6050   35.9780 C   0  0  0  0  0  0  0  0  0  0  0  0
   34.8810   30.8440   34.9940 C   0  0  0  0  0  0  0  0  0  0  0  0
   33.5190   30.5540   35.1840 C   0  0  0  0  0  0  0  0  0  0  0  0
   32.7990   31.0050   36.2660 C   0  0  0  0  0  0  0  0  0  0  0  0
   33.3820   31.7700   37.2260 C   0  0  0  0  0  0  0  0  0  0  0  0
   34.7130   32.0760   37.0780 C   0  0  0  0  0  0  0  0  0  0  0  0
   32.9550   29.9490   34.4750 H   0  0  0  0  0  0  0  0  0  0  0  0
   31.7480   30.7640   36.3860 H   0  0  0  0  0  0  0  0  0  0  0  0
   32.8390   32.1330   38.0790 H   0  0  0  0  0  0  0  0  0  0  0  0
   35.2050   32.6830   37.8250 H   0  0  0  0  0  0  0  0  0  0  0  0
  1  2  1  0  0  0  0
  1 27  1  0  0  0  0
  3  1  1  0  0  0  0
  4  5  1  0  0  0  0
  4  1  1  0  0  0  0
  4  7  1  0  0  0  0
  6  4  1  0  0  0  0
  7 12  1  0  0  0  0
  8  7  2  0  0  0  0
  8  9  1  0  0  0  0
  9 10  2  0  0  0  0
 10 11  1  0  0  0  0
 11 16  1  0  0  0  0
 12 11  2  0  0  0  0
 13  8  1  0  0  0  0
 14  9  1  0  0  0  0
 15 24  1  0  0  0  0
 15 22  1  0  0  0  0
 16 15  2  0  0  0  0
 17 16  1  0  0  0  0
 17 19  2  0  0  0  0
 18 17  1  0  0  0  0
 19 21  1  0  0  0  0
 20 19  1  0  0  0  0
 21 22  2  0  0  0  0
 23 24  1  0  0  0  0
 24 25  2  0  0  0  0
 26 24  2  0  0  0  0
 28 33  2  0  0  0  0
 28 29  1  0  0  0  0
 29 30  2  0  0  0  0
 30 31  1  0  0  0  0
 30 38  1  0  0  0  0
 32 27  1  0  0  0  0
 32 31  2  0  0  0  0
 33 32  1  0  0  0  0
 34 28  1  0  0  0  0
 35 29  1  0  0  0  0
 36 37  1  0  0  0  0
 37 42  1  0  0  0  0
 38 39  1  0  0  0  0
 38 37  2  0  0  0  0
 39 40  2  0  0  0  0
 40 44  1  0  0  0  0
 40 41  1  0  0  0  0
 41 45  1  0  0  0  0
 42 41  2  0  0  0  0
 42 46  1  0  0  0  0
 43 39  1  0  0  0  0
M  END
>  <minimizedAffinity>
-6.58677864

$$$$

 OpenBabel03272509563D

 46 49  0  0  0  0  0  0  0  0999 V2000
   36.3520   26.4760   31.5240 C   0  0  0  0  0  0  0  0  0  0  0  0
   35.4800   25.8000   31.4560 H   0  0  0  0  0  0  0  0  0  0  0  0
   36.2910   27.1950   30.6670 H   0  0  0  0  0  0  0  0  0  0  0  0
   37.6640   25.7780   31.3980 C   0  0  0  0  0  0  0  0  0  0  0  0
   38.1840   26.1470   30.5000 H   0  0  0  0  0  0  0  0  0  0  0  0
   37.5510   24.6690   31.2640 H   0  0  0  0  0  0  0  0  0  0  0  0
   38.5400   25.9660   32.5890 C   0  0  0  0  0  0  0  0  0  0  0  0
   39.5500   26.9040   32.5260 C   0  0  0  0  0  0  0  0  0  0  0  0
   40.3940   27.1360   33.5680 C   0  0  0  0  0  0  0  0  0  0  0  0
   40.2440   26.4430   34.6770 N   0  0  0  0  0  0  0  0  0  0  0  0
   39.2600   25.5150   34.7680 C   0  0  0  0  0  0  0  0  0  0  0  0
   38.4180   25.2780   33.7370 N   0  0  0  0  0  0  0  0  0  0  0  0
   39.6690   27.4710   31.6120 H   0  0  0  0  0  0  0  0  0  0  0  0
   41.1820   27.8840   33.4890 H   0  0  0  0  0  0  0  0  0  0  0  0
   39.7850   23.5550   36.1890 C   0  0  0  0  0  0  0  0  0  0  0  0
   39.0620   24.7210   35.9900 C   0  0  0  0  0  0  0  0  0  0  0  0
   38.1470   25.1190   36.9710 C   0  0  0  0  0  0  0  0  0  0  0  0
   37.5850   26.0360   36.8050 H   0  0  0  0  0  0  0  0  0  0  0  0
   37.9360   24.4010   38.1280 C   0  0  0  0  0  0  0  0  0  0  0  0
   37.2110   24.7620   38.8510 H   0  0  0  0  0  0  0  0  0  0  0  0
   38.6280   23.2520   38.3560 C   0  0  0  0  0  3  0  0  0  0  0  0
   39.5250   22.8710   37.3820 C   0  0  0  0  0  3  0  0  0  0  0  0
   41.5170   23.9370   34.2840 H   0  0  0  0  0  0  0  0  0  0  0  0
   40.9410   22.9710   35.0440 S   0  0  0  0  0  0  0  0  0  0  0  0
   41.9570   22.1210   35.7870 O   0  0  0  0  0  0  0  0  0  0  0  0
   40.2200   22.0310   34.0910 O   0  0  0  0  0  0  0  0  0  0  0  0
   36.3320   27.2870   32.6870 O   0  0  0  0  0  0  0  0  0  0  0  0
   36.3060   30.7040   31.4980 C   0  0  0  0  0  0  0  0  0  0  0  0
   35.7300   31.3440   32.6250 C   0  0  0  0  0  0  0  0  0  0  0  0
   35.3910   30.5700   33.7100 C   0  0  0  0  0  0  0  0  0  0  0  0
   35.6460   29.2240   33.6010 N   0  0  0  0  0  0  0  0  0  0  0  0
   36.1850   28.6350   32.5400 C   0  0  0  0  0  0  0  0  0  0  0  0
   36.5190   29.3930   31.4740 N   0  0  0  0  0  0  0  0  0  0  0  0
   36.5520   31.3620   30.6730 H   0  0  0  0  0  0  0  0  0  0  0  0
   35.5330   32.3840   32.7080 H   0  0  0  0  0  0  0  0  0  0  0  0
   36.6910   31.8180   35.9680 F   0  0  0  0  0  0  0  0  0  0  0  0
   35.3760   31.6380   35.9990 C   0  0  0  0  0  0  0  0  0  0  0  0
   34.8000   31.0530   34.9300 C   0  0  0  0  0  0  0  0  0  0  0  0
   33.4090   30.9100   35.0650 C   0  0  0  0  0  0  0  0  0  0  0  0
   32.7150   31.3280   36.1780 C   0  0  0  0  0  0  0  0  0  0  0  0
   33.3560   31.9110   37.2240 C   0  0  0  0  0  0  0  0  0  0  0  0
   34.7170   32.0700   37.1320 C   0  0  0  0  0  0  0  0  0  0  0  0
   32.7980   30.4560   34.2860 H   0  0  0  0  0  0  0  0  0  0  0  0
   31.6400   31.2040   36.2540 H   0  0  0  0  0  0  0  0  0  0  0  0
   32.8350   32.2450   38.1030 H   0  0  0  0  0  0  0  0  0  0  0  0
   35.2550   32.5310   37.9480 H   0  0  0  0  0  0  0  0  0  0  0  0
  1 27  1  0  0  0  0
  2  1  1  0  0  0  0
  3  1  1  0  0  0  0
  4  1  1  0  0  0  0
  4  7  1  0  0  0  0
  5  4  1  0  0  0  0
  6  4  1  0  0  0  0
  7 12  1  0  0  0  0
  8  7  2  0  0  0  0
  8  9  1  0  0  0  0
  9 10  2  0  0  0  0
 10 11  1  0  0  0  0
 11 16  1  0  0  0  0
 12 11  2  0  0  0  0
 13  8  1  0  0  0  0
 14  9  1  0  0  0  0
 15 22  1  0  0  0  0
 16 15  2  0  0  0  0
 16 17  1  0  0  0  0
 17 19  2  0  0  0  0
 18 17  1  0  0  0  0
 19 21  1  0  0  0  0
 19 20  1  0  0  0  0
 22 21  2  0  0  0  0
 23 24  1  0  0  0  0
 24 25  2  0  0  0  0
 24 15  1  0  0  0  0
 26 24  2  0  0  0  0
 28 29  1  0  0  0  0
 29 35  1  0  0  0  0
 29 30  2  0  0  0  0
 30 38  1  0  0  0  0
 31 30  1  0  0  0  0
 32 27  1  0  0  0  0
 32 31  2  0  0  0  0
 33 28  2  0  0  0  0
 33 32  1  0  0  0  0
 34 28  1  0  0  0  0
 36 37  1  0  0  0  0
 37 42  1  0  0  0  0
 38 39  1  0  0  0  0
 38 37  2  0  0  0  0
 39 40  2  0  0  0  0
 40 44  1  0  0  0  0
 40 41  1  0  0  0  0
 41 45  1  0  0  0  0
 42 41  2  0  0  0  0
 42 46  1  0  0  0  0
 43 39  1  0  0  0  0
M  END
>  <minimizedAffinity>
-6.51849699

$$$$

 OpenBabel03272509563D

 46 49  0  0  0  0  0  0  0  0999 V2000
   36.7080   26.0920   31.6280 C   0  0  0  0  0  0  0  0  0  0  0  0
   35.7970   25.4840   31.4770 H   0  0  0  0  0  0  0  0  0  0  0  0
   36.8090   26.7750   30.7460 H   0  0  0  0  0  0  0  0  0  0  0  0
   37.9640   25.2880   31.6860 C   0  0  0  0  0  0  0  0  0  0  0  0
   38.7900   25.9350   32.0200 H   0  0  0  0  0  0  0  0  0  0  0  0
   38.2640   24.8860   30.6820 H   0  0  0  0  0  0  0  0  0  0  0  0
   37.8590   24.1100   32.5920 C   0  0  0  0  0  0  0  0  0  0  0  0
   37.3940   22.9180   32.0740 C   0  0  0  0  0  0  0  0  0  0  0  0
   37.2670   21.7960   32.8330 C   0  0  0  0  0  0  0  0  0  0  0  0
   37.5990   21.8450   34.1060 N   0  0  0  0  0  0  0  0  0  0  0  0
   38.0580   23.0020   34.6420 C   0  0  0  0  0  0  0  0  0  0  0  0
   38.1870   24.1220   33.8950 N   0  0  0  0  0  0  0  0  0  0  0  0
   37.1240   22.8830   31.0270 H   0  0  0  0  0  0  0  0  0  0  0  0
   36.8980   20.8690   32.3960 H   0  0  0  0  0  0  0  0  0  0  0  0
   39.7160   22.7400   36.4640 C   0  0  0  0  0  0  0  0  0  0  0  0
   38.4380   23.0960   36.0600 C   0  0  0  0  0  0  0  0  0  0  0  0
   37.5270   23.5400   37.0250 C   0  0  0  0  0  0  0  0  0  0  0  0
   36.5270   23.8170   36.6970 H   0  0  0  0  0  0  0  0  0  0  0  0
   37.8490   23.6410   38.3610 C   0  0  0  0  0  0  0  0  0  0  0  0
   37.0980   23.9930   39.0610 H   0  0  0  0  0  0  0  0  0  0  0  0
   39.0940   23.3010   38.7930 C   0  0  0  0  0  3  0  0  0  0  0  0
   39.9800   22.8640   37.8330 C   0  0  0  0  0  3  0  0  0  0  0  0
   40.4300   21.4670   34.3090 H   0  0  0  0  0  0  0  0  0  0  0  0
   40.9190   22.1780   35.3570 S   0  0  0  0  0  0  0  0  0  0  0  0
   41.7560   23.3680   34.9230 O   0  0  0  0  0  0  0  0  0  0  0  0
   41.8570   21.2560   36.1170 O   0  0  0  0  0  0  0  0  0  0  0  0
   36.6190   26.9520   32.7520 O   0  0  0  0  0  0  0  0  0  0  0  0
   36.4510   30.3080   31.4120 C   0  0  0  0  0  0  0  0  0  0  0  0
   35.7990   30.9620   32.4890 C   0  0  0  0  0  0  0  0  0  0  0  0
   35.4620   30.2170   33.5940 C   0  0  0  0  0  0  0  0  0  0  0  0
   35.7940   28.8840   33.5540 N   0  0  0  0  0  0  0  0  0  0  0  0
   36.4040   28.2820   32.5410 C   0  0  0  0  0  0  0  0  0  0  0  0
   36.7360   29.0110   31.4540 N   0  0  0  0  0  0  0  0  0  0  0  0
   36.6920   30.9440   30.5680 H   0  0  0  0  0  0  0  0  0  0  0  0
   35.5430   31.9920   32.5190 H   0  0  0  0  0  0  0  0  0  0  0  0
   32.7220   29.8250   34.4210 F   0  0  0  0  0  0  0  0  0  0  0  0
   33.5280   30.5540   35.1840 C   0  0  0  0  0  0  0  0  0  0  0  0
   34.8000   30.7170   34.7710 C   0  0  0  0  0  0  0  0  0  0  0  0
   35.5670   31.5020   35.6480 C   0  0  0  0  0  0  0  0  0  0  0  0
   35.0620   32.0430   36.8080 C   0  0  0  0  0  0  0  0  0  0  0  0
   33.7670   31.8410   37.1690 C   0  0  0  0  0  0  0  0  0  0  0  0
   32.9830   31.0790   36.3380 C   0  0  0  0  0  0  0  0  0  0  0  0
   36.6150   31.7250   35.4540 H   0  0  0  0  0  0  0  0  0  0  0  0
   35.6780   32.6460   37.4660 H   0  0  0  0  0  0  0  0  0  0  0  0
   33.3520   32.2540   38.0700 H   0  0  0  0  0  0  0  0  0  0  0  0
   31.9490   30.9000   36.5980 H   0  0  0  0  0  0  0  0  0  0  0  0
  1  4  1  0  0  0  0
  1 27  1  0  0  0  0
  2  1  1  0  0  0  0
  3  1  1  0  0  0  0
  4  5  1  0  0  0  0
  4  7  1  0  0  0  0
  6  4  1  0  0  0  0
  7 12  1  0  0  0  0
  8  7  2  0  0  0  0
  8  9  1  0  0  0  0
  9 10  2  0  0  0  0
 10 11  1  0  0  0  0
 11 16  1  0  0  0  0
 12 11  2  0  0  0  0
 13  8  1  0  0  0  0
 14  9  1  0  0  0  0
 15 22  1  0  0  0  0
 16 15  2  0  0  0  0
 16 17  1  0  0  0  0
 17 19  2  0  0  0  0
 18 17  1  0  0  0  0
 19 21  1  0  0  0  0
 19 20  1  0  0  0  0
 22 21  2  0  0  0  0
 23 24  1  0  0  0  0
 24 26  2  0  0  0  0
 24 15  1  0  0  0  0
 25 24  2  0  0  0  0
 28 33  2  0  0  0  0
 28 29  1  0  0  0  0
 29 35  1  0  0  0  0
 29 30  2  0  0  0  0
 30 38  1  0  0  0  0
 31 30  1  0  0  0  0
 32 27  1  0  0  0  0
 32 31  2  0  0  0  0
 33 32  1  0  0  0  0
 34 28  1  0  0  0  0
 36 37  1  0  0  0  0
 37 42  1  0  0  0  0
 38 37  2  0  0  0  0
 38 39  1  0  0  0  0
 39 40  2  0  0  0  0
 40 41  1  0  0  0  0
 40 44  1  0  0  0  0
 41 45  1  0  0  0  0
 42 46  1  0  0  0  0
 42 41  2  0  0  0  0
 43 39  1  0  0  0  0
M  END
>  <minimizedAffinity>
-6.51770926

$$$$

 OpenBabel03272509563D

 46 49  0  0  0  0  0  0  0  0999 V2000
   38.1110   27.1930   35.6170 C   0  0  0  0  0  0  0  0  0  0  0  0
   38.8840   27.9690   35.7680 H   0  0  0  0  0  0  0  0  0  0  0  0
   37.1520   27.5820   36.0470 H   0  0  0  0  0  0  0  0  0  0  0  0
   38.4010   25.9110   36.3240 C   0  0  0  0  0  0  0  0  0  0  0  0
   37.5360   25.6400   36.9480 H   0  0  0  0  0  0  0  0  0  0  0  0
   39.2800   25.9920   37.0190 H   0  0  0  0  0  0  0  0  0  0  0  0
   38.7100   24.7900   35.3920 C   0  0  0  0  0  0  0  0  0  0  0  0
   40.0330   24.4830   35.1440 C   0  0  0  0  0  0  0  0  0  0  0  0
   40.4000   23.4750   34.3060 C   0  0  0  0  0  0  0  0  0  0  0  0
   39.4640   22.7680   33.7100 N   0  0  0  0  0  0  0  0  0  0  0  0
   38.1570   23.0470   33.9340 C   0  0  0  0  0  0  0  0  0  0  0  0
   37.7830   24.0460   34.7650 N   0  0  0  0  0  0  0  0  0  0  0  0
   40.7980   25.0680   35.6380 H   0  0  0  0  0  0  0  0  0  0  0  0
   41.4520   23.2560   34.1300 H   0  0  0  0  0  0  0  0  0  0  0  0
   36.5260   22.7270   32.0980 C   0  0  0  0  0  0  0  0  0  0  0  0
   37.0840   22.2790   33.2860 C   0  0  0  0  0  0  0  0  0  0  0  0
   36.6040   21.0900   33.8470 C   0  0  0  0  0  0  0  0  0  0  0  0
   37.0490   20.7480   34.7790 H   0  0  0  0  0  0  0  0  0  0  0  0
   35.6010   20.3450   33.2670 C   0  0  0  0  0  0  0  0  0  0  0  0
   35.2710   19.4310   33.7520 H   0  0  0  0  0  0  0  0  0  0  0  0
   35.0300   20.7550   32.1010 C   0  0  0  0  0  3  0  0  0  0  0  0
   35.5110   21.9270   31.5600 C   0  0  0  0  0  3  0  0  0  0  0  0
   37.6710   25.0640   32.1350 H   0  0  0  0  0  0  0  0  0  0  0  0
   37.0410   24.1810   31.3180 S   0  0  0  0  0  0  0  0  0  0  0  0
   37.8760   23.7990   30.1080 O   0  0  0  0  0  0  0  0  0  0  0  0
   35.8080   24.8830   30.7760 O   0  0  0  0  0  0  0  0  0  0  0  0
   37.8300   26.9500   34.2490 O   0  0  0  0  0  0  0  0  0  0  0  0
   35.9280   28.7970   31.7860 C   0  0  0  0  0  0  0  0  0  0  0  0
   35.2210   29.6790   32.6430 C   0  0  0  0  0  0  0  0  0  0  0  0
   35.4400   29.5840   33.9970 C   0  0  0  0  0  0  0  0  0  0  0  0
   36.3400   28.6270   34.4030 N   0  0  0  0  0  0  0  0  0  0  0  0
   36.9950   27.8070   33.5920 C   0  0  0  0  0  0  0  0  0  0  0  0
   36.7820   27.8970   32.2620 N   0  0  0  0  0  0  0  0  0  0  0  0
   35.7160   28.9160   30.7300 H   0  0  0  0  0  0  0  0  0  0  0  0
   34.5270   30.4170   32.3280 H   0  0  0  0  0  0  0  0  0  0  0  0
   32.6700   29.6080   34.8170 F   0  0  0  0  0  0  0  0  0  0  0  0
   33.5250   30.4320   35.4110 C   0  0  0  0  0  0  0  0  0  0  0  0
   34.8110   30.3960   35.0050 C   0  0  0  0  0  0  0  0  0  0  0  0
   35.6300   31.3040   35.6960 C   0  0  0  0  0  0  0  0  0  0  0  0
   35.1600   32.1400   36.6820 C   0  0  0  0  0  0  0  0  0  0  0  0
   33.8510   32.1290   37.0450 C   0  0  0  0  0  0  0  0  0  0  0  0
   33.0150   31.2540   36.3940 C   0  0  0  0  0  0  0  0  0  0  0  0
   36.6940   31.3960   35.4840 H   0  0  0  0  0  0  0  0  0  0  0  0
   35.8170   32.8320   37.1980 H   0  0  0  0  0  0  0  0  0  0  0  0
   33.4620   32.7720   37.8130 H   0  0  0  0  0  0  0  0  0  0  0  0
   31.9680   31.2210   36.6610 H   0  0  0  0  0  0  0  0  0  0  0  0
  1  2  1  0  0  0  0
  1  3  1  0  0  0  0
  1  4  1  0  0  0  0
  4  5  1  0  0  0  0
  4  6  1  0  0  0  0
  7  4  1  0  0  0  0
  8  7  1  0  0  0  0
  8 13  1  0  0  0  0
  9  8  2  0  0  0  0
 10 11  2  0  0  0  0
 10  9  1  0  0  0  0
 11 12  1  0  0  0  0
 12  7  2  0  0  0  0
 14  9  1  0  0  0  0
 15 16  1  0  0  0  0
 16 17  2  0  0  0  0
 16 11  1  0  0  0  0
 17 18  1  0  0  0  0
 19 20  1  0  0  0  0
 19 17  1  0  0  0  0
 21 19  2  0  0  0  0
 22 15  2  0  0  0  0
 22 21  1  0  0  0  0
 24 15  1  0  0  0  0
 24 23  1  0  0  0  0
 25 24  2  0  0  0  0
 26 24  2  0  0  0  0
 27  1  1  0  0  0  0
 28 33  2  0  0  0  0
 28 29  1  0  0  0  0
 29 30  2  0  0  0  0
 30 31  1  0  0  0  0
 30 38  1  0  0  0  0
 32 27  1  0  0  0  0
 32 31  2  0  0  0  0
 33 32  1  0  0  0  0
 34 28  1  0  0  0  0
 35 29  1  0  0  0  0
 36 37  1  0  0  0  0
 37 42  1  0  0  0  0
 38 37  2  0  0  0  0
 38 39  1  0  0  0  0
 39 40  2  0  0  0  0
 40 41  1  0  0  0  0
 40 44  1  0  0  0  0
 41 45  1  0  0  0  0
 42 46  1  0  0  0  0
 42 41  2  0  0  0  0
 43 39  1  0  0  0  0
M  END
>  <minimizedAffinity>
-6.50845337

$$$$

 OpenBabel03272509563D

 46 49  0  0  0  0  0  0  0  0999 V2000
   35.8510   27.1750   31.8840 C   0  0  0  0  0  0  0  0  0  0  0  0
   35.4440   27.7050   32.7650 H   0  0  0  0  0  0  0  0  0  0  0  0
   34.9830   26.8100   31.2770 H   0  0  0  0  0  0  0  0  0  0  0  0
   36.6610   25.9710   32.2290 C   0  0  0  0  0  0  0  0  0  0  0  0
   37.3800   25.7760   31.4180 H   0  0  0  0  0  0  0  0  0  0  0  0
   36.0350   25.0440   32.3270 H   0  0  0  0  0  0  0  0  0  0  0  0
   37.3960   26.1140   33.5170 C   0  0  0  0  0  0  0  0  0  0  0  0
   37.2190   27.2680   34.2540 C   0  0  0  0  0  0  0  0  0  0  0  0
   37.8540   27.4770   35.4400 C   0  0  0  0  0  0  0  0  0  0  0  0
   38.6640   26.5490   35.9030 N   0  0  0  0  0  0  0  0  0  0  0  0
   38.8570   25.4060   35.2010 C   0  0  0  0  0  0  0  0  0  0  0  0
   38.2310   25.1900   34.0220 N   0  0  0  0  0  0  0  0  0  0  0  0
   36.5510   28.0270   33.8690 H   0  0  0  0  0  0  0  0  0  0  0  0
   37.6940   28.3980   36.0000 H   0  0  0  0  0  0  0  0  0  0  0  0
   39.2970   23.4100   36.6000 C   0  0  0  0  0  0  0  0  0  0  0  0
   39.7550   24.3480   35.6860 C   0  0  0  0  0  0  0  0  0  0  0  0
   41.0800   24.2630   35.2430 C   0  0  0  0  0  0  0  0  0  0  0  0
   41.4280   25.0040   34.5270 H   0  0  0  0  0  0  0  0  0  0  0  0
   41.9480   23.2850   35.6760 C   0  0  0  0  0  0  0  0  0  0  0  0
   42.9650   23.2720   35.2950 H   0  0  0  0  0  0  0  0  0  0  0  0
   41.5330   22.3480   36.5720 C   0  0  0  0  0  3  0  0  0  0  0  0
   40.2270   22.4440   37.0010 C   0  0  0  0  0  3  0  0  0  0  0  0
   37.0500   24.6190   37.1120 H   0  0  0  0  0  0  0  0  0  0  0  0
   37.6820   23.4210   37.2130 S   0  0  0  0  0  0  0  0  0  0  0  0
   36.9140   22.2920   36.5480 O   0  0  0  0  0  0  0  0  0  0  0  0
   37.7410   23.0770   38.6920 O   0  0  0  0  0  0  0  0  0  0  0  0
   36.5760   28.0270   31.0130 O   0  0  0  0  0  0  0  0  0  0  0  0
   36.7180   31.6280   30.6870 C   0  0  0  0  0  0  0  0  0  0  0  0
   36.1280   32.0020   31.9220 C   0  0  0  0  0  0  0  0  0  0  0  0
   35.7220   31.0050   32.7780 C   0  0  0  0  0  0  0  0  0  0  0  0
   35.9310   29.7150   32.3520 N   0  0  0  0  0  0  0  0  0  0  0  0
   36.4840   29.3760   31.1940 C   0  0  0  0  0  0  0  0  0  0  0  0
   36.8830   30.3530   30.3520 N   0  0  0  0  0  0  0  0  0  0  0  0
   37.0180   32.4540   30.0540 H   0  0  0  0  0  0  0  0  0  0  0  0
   35.9670   32.9990   32.2500 H   0  0  0  0  0  0  0  0  0  0  0  0
   32.9970   30.4690   33.5720 F   0  0  0  0  0  0  0  0  0  0  0  0
   33.8430   30.9660   34.4660 C   0  0  0  0  0  0  0  0  0  0  0  0
   35.1080   31.2050   34.0640 C   0  0  0  0  0  0  0  0  0  0  0  0
   35.9190   31.7290   35.0840 C   0  0  0  0  0  0  0  0  0  0  0  0
   35.4610   31.9700   36.3590 C   0  0  0  0  0  0  0  0  0  0  0  0
   34.1730   31.7080   36.7010 C   0  0  0  0  0  0  0  0  0  0  0  0
   33.3460   31.1940   35.7320 C   0  0  0  0  0  0  0  0  0  0  0  0
   36.9670   31.9750   34.9170 H   0  0  0  0  0  0  0  0  0  0  0  0
   36.1110   32.3760   37.1260 H   0  0  0  0  0  0  0  0  0  0  0  0
   33.7940   31.8880   37.6910 H   0  0  0  0  0  0  0  0  0  0  0  0
   32.3150   30.9750   35.9740 H   0  0  0  0  0  0  0  0  0  0  0  0
  1  4  1  0  0  0  0
  1  2  1  0  0  0  0
  3  1  1  0  0  0  0
  4  6  1  0  0  0  0
  4  7  1  0  0  0  0
  5  4  1  0  0  0  0
  7 12  2  0  0  0  0
  7  8  1  0  0  0  0
  8  9  2  0  0  0  0
  9 10  1  0  0  0  0
  9 14  1  0  0  0  0
 11 16  1  0  0  0  0
 11 10  2  0  0  0  0
 12 11  1  0  0  0  0
 13  8  1  0  0  0  0
 15 22  1  0  0  0  0
 15 24  1  0  0  0  0
 16 15  2  0  0  0  0
 17 19  2  0  0  0  0
 17 16  1  0  0  0  0
 18 17  1  0  0  0  0
 19 21  1  0  0  0  0
 20 19  1  0  0  0  0
 21 22  2  0  0  0  0
 23 24  1  0  0  0  0
 24 26  2  0  0  0  0
 25 24  2  0  0  0  0
 27 32  1  0  0  0  0
 27  1  1  0  0  0  0
 28 29  1  0  0  0  0
 29 35  1  0  0  0  0
 29 30  2  0  0  0  0
 30 38  1  0  0  0  0
 31 30  1  0  0  0  0
 32 31  2  0  0  0  0
 33 28  2  0  0  0  0
 33 32  1  0  0  0  0
 34 28  1  0  0  0  0
 36 37  1  0  0  0  0
 37 42  1  0  0  0  0
 38 37  2  0  0  0  0
 38 39  1  0  0  0  0
 39 40  2  0  0  0  0
 40 41  1  0  0  0  0
 40 44  1  0  0  0  0
 41 45  1  0  0  0  0
 42 46  1  0  0  0  0
 42 41  2  0  0  0  0
 43 39  1  0  0  0  0
M  END
>  <minimizedAffinity>
-6.3703599

$$$$

 OpenBabel03272509563D

 46 49  0  0  0  0  0  0  0  0999 V2000
   36.7940   21.5270   31.1150 C   0  0  0  0  0  0  0  0  0  0  0  0
   37.6050   22.1210   30.6530 H   0  0  0  0  0  0  0  0  0  0  0  0
   36.5250   20.7070   30.4010 H   0  0  0  0  0  0  0  0  0  0  0  0
   35.5440   22.3040   31.3580 C   0  0  0  0  0  0  0  0  0  0  0  0
   35.0410   21.9070   32.2530 H   0  0  0  0  0  0  0  0  0  0  0  0
   34.8080   22.2100   30.5140 H   0  0  0  0  0  0  0  0  0  0  0  0
   35.7900   23.7630   31.5340 C   0  0  0  0  0  0  0  0  0  0  0  0
   35.1390   24.6480   30.6990 C   0  0  0  0  0  0  0  0  0  0  0  0
   35.3100   25.9950   30.7920 C   0  0  0  0  0  0  0  0  0  0  0  0
   36.1230   26.4730   31.7100 N   0  0  0  0  0  0  0  0  0  0  0  0
   36.7760   25.6280   32.5430 C   0  0  0  0  0  0  0  0  0  0  0  0
   36.6130   24.2880   32.4570 N   0  0  0  0  0  0  0  0  0  0  0  0
   34.4710   24.2500   29.9460 H   0  0  0  0  0  0  0  0  0  0  0  0
   34.7810   26.6690   30.1190 H   0  0  0  0  0  0  0  0  0  0  0  0
   39.0590   25.9290   33.4540 C   0  0  0  0  0  0  0  0  0  0  0  0
   37.6930   26.1250   33.5800 C   0  0  0  0  0  0  0  0  0  0  0  0
   37.2120   26.8000   34.7090 C   0  0  0  0  0  0  0  0  0  0  0  0
   36.1380   26.9480   34.7970 H   0  0  0  0  0  0  0  0  0  0  0  0
   38.0420   27.2790   35.6980 C   0  0  0  0  0  0  0  0  0  0  0  0
   37.6080   27.7940   36.5500 H   0  0  0  0  0  0  0  0  0  0  0  0
   39.3890   27.1050   35.6080 C   0  0  0  0  0  3  0  0  0  0  0  0
   39.8480   26.4380   34.4930 C   0  0  0  0  0  3  0  0  0  0  0  0
   39.2100   23.8980   31.8340 H   0  0  0  0  0  0  0  0  0  0  0  0
   39.7610   25.1090   32.1040 S   0  0  0  0  0  0  0  0  0  0  0  0
   39.7320   26.0490   30.9110 O   0  0  0  0  0  0  0  0  0  0  0  0
   41.2280   24.8670   32.4150 O   0  0  0  0  0  0  0  0  0  0  0  0
   37.2020   20.8640   32.3000 O   0  0  0  0  0  0  0  0  0  0  0  0
   40.7150   21.3950   32.9860 C   0  0  0  0  0  0  0  0  0  0  0  0
   40.6200   21.9780   34.2750 C   0  0  0  0  0  0  0  0  0  0  0  0
   39.3700   22.1510   34.8210 C   0  0  0  0  0  0  0  0  0  0  0  0
   38.3080   21.7340   34.0540 N   0  0  0  0  0  0  0  0  0  0  0  0
   38.4080   21.1890   32.8480 C   0  0  0  0  0  0  0  0  0  0  0  0
   39.6350   21.0190   32.3100 N   0  0  0  0  0  0  0  0  0  0  0  0
   41.7230   21.2830   32.6060 H   0  0  0  0  0  0  0  0  0  0  0  0
   41.4410   22.2990   34.8670 H   0  0  0  0  0  0  0  0  0  0  0  0
   40.8570   21.8510   37.2800 F   0  0  0  0  0  0  0  0  0  0  0  0
   39.7640   22.6040   37.2750 C   0  0  0  0  0  0  0  0  0  0  0  0
   39.0920   22.7240   36.1120 C   0  0  0  0  0  0  0  0  0  0  0  0
   37.9540   23.5400   36.2160 C   0  0  0  0  0  0  0  0  0  0  0  0
   37.5720   24.1510   37.3880 C   0  0  0  0  0  0  0  0  0  0  0  0
   38.2930   23.9900   38.5290 C   0  0  0  0  0  0  0  0  0  0  0  0
   39.4140   23.1990   38.4700 C   0  0  0  0  0  0  0  0  0  0  0  0
   37.3060   23.7360   35.3630 H   0  0  0  0  0  0  0  0  0  0  0  0
   36.6870   24.7760   37.4380 H   0  0  0  0  0  0  0  0  0  0  0  0
   38.0130   24.4570   39.4550 H   0  0  0  0  0  0  0  0  0  0  0  0
   40.0090   23.0510   39.3610 H   0  0  0  0  0  0  0  0  0  0  0  0
  1  4  1  0  0  0  0
  1 27  1  0  0  0  0
  2  1  1  0  0  0  0
  3  1  1  0  0  0  0
  4  7  1  0  0  0  0
  4  5  1  0  0  0  0
  6  4  1  0  0  0  0
  7 12  1  0  0  0  0
  8  9  1  0  0  0  0
  8  7  2  0  0  0  0
  9 10  2  0  0  0  0
 10 11  1  0  0  0  0
 11 16  1  0  0  0  0
 12 11  2  0  0  0  0
 13  8  1  0  0  0  0
 14  9  1  0  0  0  0
 15 16  2  0  0  0  0
 15 22  1  0  0  0  0
 16 17  1  0  0  0  0
 17 18  1  0  0  0  0
 17 19  2  0  0  0  0
 19 20  1  0  0  0  0
 21 19  1  0  0  0  0
 22 21  2  0  0  0  0
 23 24  1  0  0  0  0
 24 26  2  0  0  0  0
 24 15  1  0  0  0  0
 25 24  2  0  0  0  0
 27 32  1  0  0  0  0
 28 29  1  0  0  0  0
 29 30  2  0  0  0  0
 29 35  1  0  0  0  0
 30 38  1  0  0  0  0
 31 30  1  0  0  0  0
 32 31  2  0  0  0  0
 33 32  1  0  0  0  0
 33 28  2  0  0  0  0
 34 28  1  0  0  0  0
 37 36  1  0  0  0  0
 37 42  1  0  0  0  0
 38 39  1  0  0  0  0
 38 37  2  0  0  0  0
 39 40  2  0  0  0  0
 40 44  1  0  0  0  0
 40 41  1  0  0  0  0
 41 45  1  0  0  0  0
 42 41  2  0  0  0  0
 42 46  1  0  0  0  0
 43 39  1  0  0  0  0
M  END
>  <minimizedAffinity>
-6.35975599

$$$$

 OpenBabel03272509563D

 46 49  0  0  0  0  0  0  0  0999 V2000
   42.5420   22.5760   36.7850 C   0  0  0  0  0  0  0  0  0  0  0  0
   42.4230   23.4850   37.4030 H   0  0  0  0  0  0  0  0  0  0  0  0
   43.4040   21.9940   37.2020 H   0  0  0  0  0  0  0  0  0  0  0  0
   42.8740   22.8590   35.3580 C   0  0  0  0  0  0  0  0  0  0  0  0
   42.3460   22.1380   34.7150 H   0  0  0  0  0  0  0  0  0  0  0  0
   43.9690   22.7360   35.1380 H   0  0  0  0  0  0  0  0  0  0  0  0
   42.5210   24.2460   34.9430 C   0  0  0  0  0  0  0  0  0  0  0  0
   43.5350   25.1010   34.5620 C   0  0  0  0  0  0  0  0  0  0  0  0
   43.2980   26.3820   34.1700 C   0  0  0  0  0  0  0  0  0  0  0  0
   42.0580   26.8250   34.1530 N   0  0  0  0  0  0  0  0  0  0  0  0
   41.0420   26.0080   34.5220 C   0  0  0  0  0  0  0  0  0  0  0  0
   41.2690   24.7330   34.9130 N   0  0  0  0  0  0  0  0  0  0  0  0
   44.5520   24.7310   34.5780 H   0  0  0  0  0  0  0  0  0  0  0  0
   44.1190   27.0330   33.8740 H   0  0  0  0  0  0  0  0  0  0  0  0
   38.8620   26.3030   33.3830 C   0  0  0  0  0  0  0  0  0  0  0  0
   39.6450   26.4670   34.5160 C   0  0  0  0  0  0  0  0  0  0  0  0
   39.0780   27.0770   35.6410 C   0  0  0  0  0  0  0  0  0  0  0  0
   39.7020   27.2020   36.5240 H   0  0  0  0  0  0  0  0  0  0  0  0
   37.7740   27.5190   35.6700 C   0  0  0  0  0  0  0  0  0  0  0  0
   37.3920   27.9840   36.5740 H   0  0  0  0  0  0  0  0  0  0  0  0
   36.9760   27.3730   34.5770 C   0  0  0  0  0  3  0  0  0  0  0  0
   37.5470   26.7720   33.4760 C   0  0  0  0  0  3  0  0  0  0  0  0
   40.3100   24.5270   32.1500 H   0  0  0  0  0  0  0  0  0  0  0  0
   39.4590   25.5640   31.9390 S   0  0  0  0  0  0  0  0  0  0  0  0
   38.2700   25.1840   31.0740 O   0  0  0  0  0  0  0  0  0  0  0  0
   40.2300   26.6160   31.1600 O   0  0  0  0  0  0  0  0  0  0  0  0
   41.4300   21.7000   36.8690 O   0  0  0  0  0  0  0  0  0  0  0  0
   38.4920   23.4530   38.0480 C   0  0  0  0  0  0  0  0  0  0  0  0
   37.5900   23.1370   37.0000 C   0  0  0  0  0  0  0  0  0  0  0  0
   38.0440   22.3510   35.9660 C   0  0  0  0  0  0  0  0  0  0  0  0
   39.3520   21.9360   36.0450 N   0  0  0  0  0  0  0  0  0  0  0  0
   40.1870   22.2380   37.0310 C   0  0  0  0  0  0  0  0  0  0  0  0
   39.7450   23.0090   38.0470 N   0  0  0  0  0  0  0  0  0  0  0  0
   38.0810   24.0740   38.8340 H   0  0  0  0  0  0  0  0  0  0  0  0
   36.5800   23.4570   36.9400 H   0  0  0  0  0  0  0  0  0  0  0  0
   35.7940   20.5400   35.8860 F   0  0  0  0  0  0  0  0  0  0  0  0
   36.2150   21.0960   34.7560 C   0  0  0  0  0  0  0  0  0  0  0  0
   37.2670   21.9360   34.8270 C   0  0  0  0  0  0  0  0  0  0  0  0
   37.6300   22.4690   33.5790 C   0  0  0  0  0  0  0  0  0  0  0  0
   36.9740   22.1590   32.4100 C   0  0  0  0  0  0  0  0  0  0  0  0
   35.9190   21.3020   32.4050 C   0  0  0  0  0  0  0  0  0  0  0  0
   35.5310   20.7590   33.6060 C   0  0  0  0  0  0  0  0  0  0  0  0
   38.4610   23.1650   33.4700 H   0  0  0  0  0  0  0  0  0  0  0  0
   37.2780   22.5850   31.4610 H   0  0  0  0  0  0  0  0  0  0  0  0
   35.3920   21.0460   31.5050 H   0  0  0  0  0  0  0  0  0  0  0  0
   34.6950   20.0750   33.6350 H   0  0  0  0  0  0  0  0  0  0  0  0
  1 27  1  0  0  0  0
  1  3  1  0  0  0  0
  1  2  1  0  0  0  0
  4  1  1  0  0  0  0
  5  4  1  0  0  0  0
  6  4  1  0  0  0  0
  7  4  1  0  0  0  0
  8 13  1  0  0  0  0
  8  7  2  0  0  0  0
  9  8  1  0  0  0  0
 10  9  2  0  0  0  0
 10 11  1  0  0  0  0
 11 12  2  0  0  0  0
 12  7  1  0  0  0  0
 14  9  1  0  0  0  0
 15 22  2  0  0  0  0
 15 16  1  0  0  0  0
 16 11  1  0  0  0  0
 16 17  2  0  0  0  0
 17 19  1  0  0  0  0
 17 18  1  0  0  0  0
 19 20  1  0  0  0  0
 21 19  2  0  0  0  0
 22 21  1  0  0  0  0
 24 23  1  0  0  0  0
 24 15  1  0  0  0  0
 25 24  2  0  0  0  0
 26 24  2  0  0  0  0
 27 32  1  0  0  0  0
 28 34  1  0  0  0  0
 29 28  2  0  0  0  0
 30 31  2  0  0  0  0
 30 29  1  0  0  0  0
 31 32  1  0  0  0  0
 32 33  2  0  0  0  0
 33 28  1  0  0  0  0
 35 29  1  0  0  0  0
 37 38  1  0  0  0  0
 37 36  1  0  0  0  0
 38 30  1  0  0  0  0
 39 38  2  0  0  0  0
 40 39  1  0  0  0  0
 41 40  2  0  0  0  0
 41 42  1  0  0  0  0
 42 46  1  0  0  0  0
 42 37  2  0  0  0  0
 43 39  1  0  0  0  0
 44 40  1  0  0  0  0
 45 41  1  0  0  0  0
M  END
>  <minimizedAffinity>
-6.35644674

$$$$

 OpenBabel03272509563D

 46 49  0  0  0  0  0  0  0  0999 V2000
   36.8880   21.5210   30.9410 C   0  0  0  0  0  0  0  0  0  0  0  0
   36.5040   21.0360   30.0240 H   0  0  0  0  0  0  0  0  0  0  0  0
   37.6190   22.3090   30.6280 H   0  0  0  0  0  0  0  0  0  0  0  0
   37.6280   20.5930   31.8450 C   0  0  0  0  0  0  0  0  0  0  0  0
   38.1070   19.8070   31.2410 H   0  0  0  0  0  0  0  0  0  0  0  0
   36.9500   20.0650   32.5690 H   0  0  0  0  0  0  0  0  0  0  0  0
   38.6600   21.2830   32.6690 C   0  0  0  0  0  0  0  0  0  0  0  0
   39.9170   21.4720   32.1310 C   0  0  0  0  0  0  0  0  0  0  0  0
   40.9160   22.0920   32.8170 C   0  0  0  0  0  0  0  0  0  0  0  0
   40.6780   22.5260   34.0360 N   0  0  0  0  0  0  0  0  0  0  0  0
   39.4540   22.3540   34.5900 C   0  0  0  0  0  0  0  0  0  0  0  0
   38.4550   21.7400   33.9160 N   0  0  0  0  0  0  0  0  0  0  0  0
   40.1070   21.1130   31.1280 H   0  0  0  0  0  0  0  0  0  0  0  0
   41.8980   22.2270   32.3660 H   0  0  0  0  0  0  0  0  0  0  0  0
   40.0650   22.6330   36.9740 C   0  0  0  0  0  0  0  0  0  0  0  0
   39.1510   22.8260   35.9500 C   0  0  0  0  0  0  0  0  0  0  0  0
   37.9440   23.4730   36.2400 C   0  0  0  0  0  0  0  0  0  0  0  0
   37.2340   23.6180   35.4290 H   0  0  0  0  0  0  0  0  0  0  0  0
   37.6280   23.9280   37.5010 C   0  0  0  0  0  0  0  0  0  0  0  0
   36.6750   24.4220   37.6620 H   0  0  0  0  0  0  0  0  0  0  0  0
   38.5020   23.7560   38.5300 C   0  0  0  0  0  3  0  0  0  0  0  0
   39.6850   23.1170   38.2310 C   0  0  0  0  0  3  0  0  0  0  0  0
   41.6400   21.0630   35.6220 H   0  0  0  0  0  0  0  0  0  0  0  0
   41.5850   21.8470   36.7290 S   0  0  0  0  0  0  0  0  0  0  0  0
   42.6750   22.9040   36.7570 O   0  0  0  0  0  0  0  0  0  0  0  0
   41.8420   20.9430   37.9230 O   0  0  0  0  0  0  0  0  0  0  0  0
   35.8830   22.2160   31.6610 O   0  0  0  0  0  0  0  0  0  0  0  0
   35.1920   25.6600   30.7950 C   0  0  0  0  0  0  0  0  0  0  0  0
   36.0470   26.3140   31.7190 C   0  0  0  0  0  0  0  0  0  0  0  0
   36.7980   25.5390   32.5710 C   0  0  0  0  0  0  0  0  0  0  0  0
   36.6490   24.1780   32.4470 N   0  0  0  0  0  0  0  0  0  0  0  0
   35.8460   23.5770   31.5790 C   0  0  0  0  0  0  0  0  0  0  0  0
   35.1070   24.3350   30.7410 N   0  0  0  0  0  0  0  0  0  0  0  0
   34.6250   26.3200   30.1500 H   0  0  0  0  0  0  0  0  0  0  0  0
   36.1620   27.3650   31.8140 H   0  0  0  0  0  0  0  0  0  0  0  0
   39.6710   25.2480   32.6780 F   0  0  0  0  0  0  0  0  0  0  0  0
   39.0540   25.9170   33.6450 C   0  0  0  0  0  0  0  0  0  0  0  0
   37.7130   26.0340   33.5660 C   0  0  0  0  0  0  0  0  0  0  0  0
   37.1610   26.7580   34.6360 C   0  0  0  0  0  0  0  0  0  0  0  0
   37.9190   27.2890   35.6540 C   0  0  0  0  0  0  0  0  0  0  0  0
   39.2690   27.1340   35.6760 C   0  0  0  0  0  0  0  0  0  0  0  0
   39.8490   26.4320   34.6480 C   0  0  0  0  0  0  0  0  0  0  0  0
   36.0900   26.9400   34.7160 H   0  0  0  0  0  0  0  0  0  0  0  0
   37.4640   27.8430   36.4680 H   0  0  0  0  0  0  0  0  0  0  0  0
   39.8800   27.5390   36.4620 H   0  0  0  0  0  0  0  0  0  0  0  0
   40.9210   26.2930   34.6370 H   0  0  0  0  0  0  0  0  0  0  0  0
  1 27  1  0  0  0  0
  1  4  1  0  0  0  0
  2  1  1  0  0  0  0
  3  1  1  0  0  0  0
  4  6  1  0  0  0  0
  4  7  1  0  0  0  0
  5  4  1  0  0  0  0
  7 12  1  0  0  0  0
  8  7  2  0  0  0  0
  8  9  1  0  0  0  0
  9 10  2  0  0  0  0
 10 11  1  0  0  0  0
 11 16  1  0  0  0  0
 12 11  2  0  0  0  0
 13  8  1  0  0  0  0
 14  9  1  0  0  0  0
 15 22  1  0  0  0  0
 16 17  1  0  0  0  0
 16 15  2  0  0  0  0
 17 19  2  0  0  0  0
 18 17  1  0  0  0  0
 19 20  1  0  0  0  0
 19 21  1  0  0  0  0
 22 21  2  0  0  0  0
 23 24  1  0  0  0  0
 24 25  2  0  0  0  0
 24 15  1  0  0  0  0
 24 26  2  0  0  0  0
 28 29  1  0  0  0  0
 29 35  1  0  0  0  0
 29 30  2  0  0  0  0
 30 38  1  0  0  0  0
 31 30  1  0  0  0  0
 32 27  1  0  0  0  0
 32 31  2  0  0  0  0
 33 28  2  0  0  0  0
 33 32  1  0  0  0  0
 34 28  1  0  0  0  0
 36 37  1  0  0  0  0
 37 42  1  0  0  0  0
 38 37  2  0  0  0  0
 38 39  1  0  0  0  0
 39 43  1  0  0  0  0
 39 40  2  0  0  0  0
 40 41  1  0  0  0  0
 40 44  1  0  0  0  0
 41 45  1  0  0  0  0
 42 41  2  0  0  0  0
 46 42  1  0  0  0  0
M  END
>  <minimizedAffinity>
-6.29601622

$$$$

 OpenBabel03272509563D

 46 49  0  0  0  0  0  0  0  0999 V2000
   37.6570   27.5100   32.5340 C   0  0  0  0  0  0  0  0  0  0  0  0
   37.7930   28.1420   33.4310 H   0  0  0  0  0  0  0  0  0  0  0  0
   38.6470   27.0430   32.2950 H   0  0  0  0  0  0  0  0  0  0  0  0
   37.2450   28.2710   31.3190 C   0  0  0  0  0  0  0  0  0  0  0  0
   36.6580   27.6110   30.6620 H   0  0  0  0  0  0  0  0  0  0  0  0
   38.1230   28.6220   30.7130 H   0  0  0  0  0  0  0  0  0  0  0  0
   36.4470   29.4880   31.6380 C   0  0  0  0  0  0  0  0  0  0  0  0
   36.1910   30.3940   30.6290 C   0  0  0  0  0  0  0  0  0  0  0  0
   35.4720   31.5310   30.8370 C   0  0  0  0  0  0  0  0  0  0  0  0
   35.0030   31.7780   32.0410 N   0  0  0  0  0  0  0  0  0  0  0  0
   35.2390   30.9070   33.0520 C   0  0  0  0  0  0  0  0  0  0  0  0
   35.9530   29.7750   32.8540 N   0  0  0  0  0  0  0  0  0  0  0  0
   36.5790   30.1860   29.6400 H   0  0  0  0  0  0  0  0  0  0  0  0
   35.2860   32.2270   30.0200 H   0  0  0  0  0  0  0  0  0  0  0  0
   33.4890   30.6640   34.7870 C   0  0  0  0  0  0  0  0  0  0  0  0
   34.7320   31.1490   34.4110 C   0  0  0  0  0  0  0  0  0  0  0  0
   35.4830   31.8700   35.3460 C   0  0  0  0  0  0  0  0  0  0  0  0
   36.4570   32.2470   35.0400 H   0  0  0  0  0  0  0  0  0  0  0  0
   35.0390   32.1150   36.6270 C   0  0  0  0  0  0  0  0  0  0  0  0
   35.6690   32.6820   37.3070 H   0  0  0  0  0  0  0  0  0  0  0  0
   33.8240   31.6530   37.0320 C   0  0  0  0  0  3  0  0  0  0  0  0
   33.0950   30.9470   36.1010 C   0  0  0  0  0  3  0  0  0  0  0  0
   33.1520   29.0380   32.7840 H   0  0  0  0  0  0  0  0  0  0  0  0
   32.4780   29.7620   33.7140 S   0  0  0  0  0  0  0  0  0  0  0  0
   31.5350   28.9150   34.5500 O   0  0  0  0  0  0  0  0  0  0  0  0
   31.6030   30.7470   32.9580 O   0  0  0  0  0  0  0  0  0  0  0  0
   36.7790   26.4180   32.7550 O   0  0  0  0  0  0  0  0  0  0  0  0
   38.0380   23.0650   32.2400 C   0  0  0  0  0  0  0  0  0  0  0  0
   38.4230   22.7490   33.5680 C   0  0  0  0  0  0  0  0  0  0  0  0
   38.2290   23.6970   34.5450 C   0  0  0  0  0  0  0  0  0  0  0  0
   37.6690   24.8840   34.1380 N   0  0  0  0  0  0  0  0  0  0  0  0
   37.3120   25.1700   32.8920 C   0  0  0  0  0  0  0  0  0  0  0  0
   37.5020   24.2410   31.9310 N   0  0  0  0  0  0  0  0  0  0  0  0
   38.2140   22.2810   31.5130 H   0  0  0  0  0  0  0  0  0  0  0  0
   38.8560   21.8310   33.8810 H   0  0  0  0  0  0  0  0  0  0  0  0
   40.5280   22.3960   35.7130 F   0  0  0  0  0  0  0  0  0  0  0  0
   39.6220   22.9440   36.5140 C   0  0  0  0  0  0  0  0  0  0  0  0
   38.5610   23.5440   35.9370 C   0  0  0  0  0  0  0  0  0  0  0  0
   37.6650   24.0910   36.8700 C   0  0  0  0  0  0  0  0  0  0  0  0
   37.8590   24.0180   38.2310 C   0  0  0  0  0  0  0  0  0  0  0  0
   38.9520   23.3980   38.7500 C   0  0  0  0  0  0  0  0  0  0  0  0
   39.8530   22.8490   37.8700 C   0  0  0  0  0  0  0  0  0  0  0  0
   36.7580   24.6090   36.5620 H   0  0  0  0  0  0  0  0  0  0  0  0
   37.1490   24.4490   38.9280 H   0  0  0  0  0  0  0  0  0  0  0  0
   39.1230   23.3280   39.8080 H   0  0  0  0  0  0  0  0  0  0  0  0
   40.7320   22.3490   38.2530 H   0  0  0  0  0  0  0  0  0  0  0  0
  1 27  1  0  0  0  0
  1  2  1  0  0  0  0
  3  1  1  0  0  0  0
  4  7  1  0  0  0  0
  4  1  1  0  0  0  0
  5  4  1  0  0  0  0
  6  4  1  0  0  0  0
  7 12  1  0  0  0  0
  8  9  1  0  0  0  0
  8  7  2  0  0  0  0
  9 10  2  0  0  0  0
 10 11  1  0  0  0  0
 11 16  1  0  0  0  0
 12 11  2  0  0  0  0
 13  8  1  0  0  0  0
 14  9  1  0  0  0  0
 15 22  1  0  0  0  0
 16 15  2  0  0  0  0
 16 17  1  0  0  0  0
 17 19  2  0  0  0  0
 18 17  1  0  0  0  0
 19 21  1  0  0  0  0
 19 20  1  0  0  0  0
 22 21  2  0  0  0  0
 23 24  1  0  0  0  0
 24 25  2  0  0  0  0
 24 15  1  0  0  0  0
 26 24  2  0  0  0  0
 27 32  1  0  0  0  0
 28 29  1  0  0  0  0
 29 35  1  0  0  0  0
 29 30  2  0  0  0  0
 30 38  1  0  0  0  0
 31 30  1  0  0  0  0
 32 31  2  0  0  0  0
 33 28  2  0  0  0  0
 33 32  1  0  0  0  0
 34 28  1  0  0  0  0
 36 37  1  0  0  0  0
 37 42  1  0  0  0  0
 38 37  2  0  0  0  0
 38 39  1  0  0  0  0
 39 40  2  0  0  0  0
 40 41  1  0  0  0  0
 40 44  1  0  0  0  0
 41 45  1  0  0  0  0
 42 46  1  0  0  0  0
 42 41  2  0  0  0  0
 43 39  1  0  0  0  0
M  END
>  <minimizedAffinity>
-6.26452017

$$$$
