
 OpenBabel03272504243D

 42 45  0  0  0  0  0  0  0  0999 V2000
   31.8350   27.9700   46.0300 C   0  0  0  0  0  0  0  0  0  0  0  0
   33.1860   28.2980   45.9060 C   0  0  0  0  0  0  0  0  0  0  0  0
   33.8110   28.4340   44.7040 C   0  0  0  0  0  0  0  0  0  0  0  0
   33.0940   28.2400   43.5370 C   0  0  0  0  0  0  0  0  0  0  0  0
   31.7600   27.9080   43.5930 C   0  0  0  0  0  0  0  0  0  0  0  0
   31.1930   27.7870   44.8420 C   0  0  0  0  0  0  0  0  0  0  0  0
   34.8610   28.6930   44.7140 H   0  0  0  0  0  0  0  0  0  0  0  0
   33.6800   28.3760   42.6530 H   0  0  0  0  0  0  0  0  0  0  0  0
   31.2900   27.7810   42.6430 H   0  0  0  0  0  0  0  0  0  0  0  0
   30.1370   27.5040   44.6290 H   0  0  0  0  0  0  0  0  0  0  0  0
   35.5230   29.6710   48.3630 C   0  0  0  0  0  0  0  0  0  0  0  0
   35.2800   28.8500   49.3920 C   0  0  0  0  0  0  0  0  0  0  0  0
   34.3670   27.8560   49.3220 C   0  0  0  0  0  0  0  0  0  0  0  0
   33.6660   27.6780   48.1640 N   0  0  0  0  0  0  0  0  0  0  0  0
   33.9320   28.5180   47.1420 C   0  0  0  0  0  0  0  0  0  0  0  0
   34.8400   29.5040   47.2210 N   0  0  0  0  0  0  0  0  0  0  0  0
   35.8220   28.9630   50.3350 H   0  0  0  0  0  0  0  0  0  0  0  0
   34.1860   27.2040   50.1650 H   0  0  0  0  0  0  0  0  0  0  0  0
   37.5300   32.5120   49.5740 C   0  0  0  0  0  0  0  0  0  0  0  0
   38.3400   32.8050   48.4710 C   0  0  0  0  0  0  0  0  0  0  0  0
   38.1790   32.0110   47.3220 C   0  0  0  0  0  0  0  0  0  0  0  0
   37.2560   31.0130   47.3460 N   0  0  0  0  0  0  0  0  0  0  0  0
   36.4970   30.7590   48.4140 C   0  0  0  0  0  0  0  0  0  0  0  0
   36.6420   31.5150   49.5290 N   0  0  0  0  0  0  0  0  0  0  0  0
   37.7000   33.1490   50.4120 H   0  0  0  0  0  0  0  0  0  0  0  0
   39.0880   33.5510   48.3360 H   0  0  0  0  0  0  0  0  0  0  0  0
   38.7280   32.1160   46.3970 H   0  0  0  0  0  0  0  0  0  0  0  0
   30.9080   27.8420   47.3930 S   0  0  0  0  0  0  0  0  0  0  0  0
   30.6590   26.3290   47.7020 O   0  0  0  0  0  0  0  0  0  0  0  0
   30.2560   28.7910   48.1230 O   0  0  0  0  0  0  0  0  0  0  0  0
   28.0750   27.9770   47.5780 C   0  0  0  0  0  0  0  0  0  0  0  0
   29.2260   27.9310   46.7160 C   0  0  0  0  0  0  0  0  0  0  0  0
   28.9380   28.0180   45.4550 C   0  0  0  0  0  0  0  0  0  0  0  0
   29.7110   27.9830   44.7000 H   0  0  0  0  0  0  0  0  0  0  0  0
   27.6640   28.1460   44.9390 C   0  0  0  0  0  0  0  0  0  0  0  0
   27.5460   28.2110   43.8700 H   0  0  0  0  0  0  0  0  0  0  0  0
   26.6040   28.1880   45.7980 C   0  0  0  0  0  3  0  0  0  0  0  0
   26.7320   28.1070   47.1620 C   0  0  0  0  0  3  0  0  0  0  0  0
   26.9210   27.6080   49.7570 H   0  0  0  0  0  0  0  0  0  0  0  0
   28.2410   27.8190   49.3060 S   0  0  0  0  0  0  0  0  0  0  0  0
   28.5810   29.1340   49.9660 O   0  0  0  0  0  0  0  0  0  0  0  0
   28.9980   26.7510   49.8810 O   0  0  0  0  0  0  0  0  0  0  0  0
  1 28  1  0  0  0  0
  2  1  1  0  0  0  0
  2 15  1  0  0  0  0
  3  7  1  0  0  0  0
  3  2  2  0  0  0  0
  4  5  2  0  0  0  0
  4  3  1  0  0  0  0
  5  6  1  0  0  0  0
  6  1  2  0  0  0  0
  8  4  1  0  0  0  0
  9  5  1  0  0  0  0
 10  6  1  0  0  0  0
 11 23  1  0  0  0  0
 11 12  1  0  0  0  0
 12 17  1  0  0  0  0
 13 12  2  0  0  0  0
 13 18  1  0  0  0  0
 14 13  1  0  0  0  0
 15 16  1  0  0  0  0
 15 14  2  0  0  0  0
 16 11  2  0  0  0  0
 19 25  1  0  0  0  0
 20 19  2  0  0  0  0
 21 22  2  0  0  0  0
 21 20  1  0  0  0  0
 22 23  1  0  0  0  0
 23 24  2  0  0  0  0
 24 19  1  0  0  0  0
 26 20  1  0  0  0  0
 27 21  1  0  0  0  0
 28 29  2  0  0  0  0
 28 30  2  0  0  0  0
 31 40  1  0  0  0  0
 32 28  1  0  0  0  0
 32 31  2  0  0  0  0
 33 32  1  0  0  0  0
 34 33  1  0  0  0  0
 35 33  2  0  0  0  0
 35 37  1  0  0  0  0
 36 35  1  0  0  0  0
 37 38  2  0  0  0  0
 38 31  1  0  0  0  0
 40 39  1  0  0  0  0
 40 42  2  0  0  0  0
 40 41  2  0  0  0  0
M  END
>  <minimizedAffinity>
-5.74625874

>  <minimizedRMSD>
1.68271363

$$$$
