
 OpenBabel03272510033D

 24 25  0  0  0  0  0  0  0  0999 V2000
   40.6010   22.2930   35.7560 C   0  0  0  0  0  0  0  0  0  0  0  0
   39.7330   22.1190   34.6550 C   0  0  0  0  0  0  0  0  0  0  0  0
   38.3980   22.4510   34.8080 C   0  0  0  0  0  0  0  0  0  0  0  0
   38.0330   22.9220   36.0230 N   0  0  0  0  0  0  0  0  0  0  0  0
   38.8600   23.0830   37.0570 C   0  0  0  0  0  0  0  0  0  0  0  0
   40.1420   22.7670   36.9170 N   0  0  0  0  0  0  0  0  0  0  0  0
   41.6370   22.0590   35.7110 H   0  0  0  0  0  0  0  0  0  0  0  0
   40.1260   21.7350   33.7290 H   0  0  0  0  0  0  0  0  0  0  0  0
   37.2340   23.3130   32.8230 C   0  0  0  0  0  0  0  0  0  0  0  0
   37.4290   22.3060   33.7310 C   0  0  0  0  0  0  0  0  0  0  0  0
   36.6720   21.1770   33.5670 C   0  0  0  0  0  0  0  0  0  0  0  0
   36.7520   20.3270   34.2310 H   0  0  0  0  0  0  0  0  0  0  0  0
   35.7420   20.9900   32.5660 C   0  0  0  0  0  0  0  0  0  0  0  0
   35.1540   20.0950   32.4510 H   0  0  0  0  0  0  0  0  0  0  0  0
   35.5400   22.0000   31.6480 C   0  0  0  0  0  3  0  0  0  0  0  0
   36.2970   23.1410   31.8030 C   0  0  0  0  0  3  0  0  0  0  0  0
   39.4390   24.6450   33.1600 H   0  0  0  0  0  0  0  0  0  0  0  0
   38.1210   24.8180   32.8930 S   0  0  0  0  0  0  0  0  0  0  0  0
   37.4500   25.7890   33.8580 O   0  0  0  0  0  0  0  0  0  0  0  0
   38.0530   25.5140   31.5520 O   0  0  0  0  0  0  0  0  0  0  0  0
   38.2930   23.6130   38.3170 C   0  0  0  0  0  0  0  0  0  0  0  0
   37.2780   22.8040   38.8220 F   0  0  0  0  0  0  0  0  0  0  0  0
   39.2640   23.6660   39.3320 F   0  0  0  0  0  0  0  0  0  0  0  0
   37.7790   24.8720   38.2310 F   0  0  0  0  0  0  0  0  0  0  0  0
  1  6  1  0  0  0  0
  2  3  1  0  0  0  0
  2  1  2  0  0  0  0
  3  4  2  0  0  0  0
  4  5  1  0  0  0  0
  5 21  1  0  0  0  0
  6  5  2  0  0  0  0
  7  1  1  0  0  0  0
  8  2  1  0  0  0  0
  9 18  1  0  0  0  0
  9 10  1  0  0  0  0
 10  3  1  0  0  0  0
 11 10  2  0  0  0  0
 11 12  1  0  0  0  0
 13 11  1  0  0  0  0
 14 13  1  0  0  0  0
 15 16  1  0  0  0  0
 15 13  2  0  0  0  0
 16  9  2  0  0  0  0
 18 17  1  0  0  0  0
 18 19  2  0  0  0  0
 20 18  2  0  0  0  0
 21 22  1  0  0  0  0
 21 23  1  0  0  0  0
 24 21  1  0  0  0  0
M  END
>  <minimizedAffinity>
-5.17430258

$$$$

 OpenBabel03272510033D

 24 25  0  0  0  0  0  0  0  0999 V2000
   40.6950   23.6500   34.8370 C   0  0  0  0  0  0  0  0  0  0  0  0
   39.7930   23.8140   33.7620 C   0  0  0  0  0  0  0  0  0  0  0  0
   38.4450   23.9490   34.0470 C   0  0  0  0  0  0  0  0  0  0  0  0
   38.1010   23.9100   35.3550 N   0  0  0  0  0  0  0  0  0  0  0  0
   38.9610   23.7540   36.3630 C   0  0  0  0  0  0  0  0  0  0  0  0
   40.2550   23.6250   36.0970 N   0  0  0  0  0  0  0  0  0  0  0  0
   41.7430   23.5410   34.6930 H   0  0  0  0  0  0  0  0  0  0  0  0
   40.1700   23.8310   32.7540 H   0  0  0  0  0  0  0  0  0  0  0  0
   37.0010   25.3710   32.6590 C   0  0  0  0  0  0  0  0  0  0  0  0
   37.4410   24.1220   33.0070 C   0  0  0  0  0  0  0  0  0  0  0  0
   36.8910   23.0670   32.3290 C   0  0  0  0  0  0  0  0  0  0  0  0
   37.1730   22.0420   32.5300 H   0  0  0  0  0  0  0  0  0  0  0  0
   35.9390   23.1770   31.3380 C   0  0  0  0  0  0  0  0  0  0  0  0
   35.5160   22.3370   30.8140 H   0  0  0  0  0  0  0  0  0  0  0  0
   35.4900   24.4320   30.9830 C   0  0  0  0  0  3  0  0  0  0  0  0
   36.0370   25.5020   31.6580 C   0  0  0  0  0  3  0  0  0  0  0  0
   38.9490   26.8150   33.5920 H   0  0  0  0  0  0  0  0  0  0  0  0
   37.6030   26.8220   33.4280 S   0  0  0  0  0  0  0  0  0  0  0  0
   36.8550   27.0860   34.7300 O   0  0  0  0  0  0  0  0  0  0  0  0
   37.2910   28.0240   32.5650 O   0  0  0  0  0  0  0  0  0  0  0  0
   38.4140   23.7360   37.7390 C   0  0  0  0  0  0  0  0  0  0  0  0
   37.2970   22.9120   37.8520 F   0  0  0  0  0  0  0  0  0  0  0  0
   39.3490   23.2200   38.6530 F   0  0  0  0  0  0  0  0  0  0  0  0
   38.0490   24.9540   38.2280 F   0  0  0  0  0  0  0  0  0  0  0  0
  1  6  1  0  0  0  0
  2  3  1  0  0  0  0
  2  1  2  0  0  0  0
  3  4  2  0  0  0  0
  4  5  1  0  0  0  0
  5 21  1  0  0  0  0
  6  5  2  0  0  0  0
  7  1  1  0  0  0  0
  8  2  1  0  0  0  0
  9 10  1  0  0  0  0
  9 18  1  0  0  0  0
 10  3  1  0  0  0  0
 11 12  1  0  0  0  0
 11 10  2  0  0  0  0
 13 11  1  0  0  0  0
 14 13  1  0  0  0  0
 15 13  2  0  0  0  0
 15 16  1  0  0  0  0
 16  9  2  0  0  0  0
 18 17  1  0  0  0  0
 18 19  2  0  0  0  0
 20 18  2  0  0  0  0
 21 22  1  0  0  0  0
 21 24  1  0  0  0  0
 21 23  1  0  0  0  0
M  END
>  <minimizedAffinity>
-5.1201272

$$$$

 OpenBabel03272510033D

 24 25  0  0  0  0  0  0  0  0999 V2000
   40.6870   23.5630   34.8110 C   0  0  0  0  0  0  0  0  0  0  0  0
   39.7790   23.7560   33.7450 C   0  0  0  0  0  0  0  0  0  0  0  0
   38.4380   23.9300   34.0430 C   0  0  0  0  0  0  0  0  0  0  0  0
   38.1060   23.8980   35.3540 N   0  0  0  0  0  0  0  0  0  0  0  0
   38.9710   23.7140   36.3540 C   0  0  0  0  0  0  0  0  0  0  0  0
   40.2580   23.5480   36.0750 N   0  0  0  0  0  0  0  0  0  0  0  0
   41.7290   23.4230   34.6560 H   0  0  0  0  0  0  0  0  0  0  0  0
   40.1470   23.7650   32.7330 H   0  0  0  0  0  0  0  0  0  0  0  0
   36.7820   23.0710   32.4440 C   0  0  0  0  0  0  0  0  0  0  0  0
   37.4300   24.1350   33.0130 C   0  0  0  0  0  0  0  0  0  0  0  0
   37.0780   25.3800   32.5630 C   0  0  0  0  0  0  0  0  0  0  0  0
   37.5320   26.2830   32.9490 H   0  0  0  0  0  0  0  0  0  0  0  0
   36.1330   25.6280   31.5910 C   0  0  0  0  0  0  0  0  0  0  0  0
   35.8670   26.6140   31.2480 H   0  0  0  0  0  0  0  0  0  0  0  0
   35.4760   24.5610   31.0130 C   0  0  0  0  0  3  0  0  0  0  0  0
   35.8220   23.3040   31.4590 C   0  0  0  0  0  3  0  0  0  0  0  0
   38.4070   21.2200   33.2710 H   0  0  0  0  0  0  0  0  0  0  0  0
   37.1160   21.4180   32.9070 S   0  0  0  0  0  0  0  0  0  0  0  0
   36.6580   20.4560   31.8180 O   0  0  0  0  0  0  0  0  0  0  0  0
   36.2800   21.0470   34.1120 O   0  0  0  0  0  0  0  0  0  0  0  0
   38.4370   23.7090   37.7350 C   0  0  0  0  0  0  0  0  0  0  0  0
   39.3850   23.2920   38.6660 F   0  0  0  0  0  0  0  0  0  0  0  0
   38.0600   24.9990   38.1420 F   0  0  0  0  0  0  0  0  0  0  0  0
   37.3390   22.9250   37.9220 F   0  0  0  0  0  0  0  0  0  0  0  0
  1  6  1  0  0  0  0
  2  3  1  0  0  0  0
  2  1  2  0  0  0  0
  3  4  2  0  0  0  0
  4  5  1  0  0  0  0
  5 21  1  0  0  0  0
  6  5  2  0  0  0  0
  7  1  1  0  0  0  0
  8  2  1  0  0  0  0
  9 18  1  0  0  0  0
  9 10  1  0  0  0  0
 10  3  1  0  0  0  0
 11 12  1  0  0  0  0
 11 10  2  0  0  0  0
 13 11  1  0  0  0  0
 14 13  1  0  0  0  0
 15 16  1  0  0  0  0
 15 13  2  0  0  0  0
 16  9  2  0  0  0  0
 18 17  1  0  0  0  0
 18 20  2  0  0  0  0
 19 18  2  0  0  0  0
 21 24  1  0  0  0  0
 21 23  1  0  0  0  0
 21 22  1  0  0  0  0
M  END
>  <minimizedAffinity>
-4.9903841

$$$$

 OpenBabel03272510033D

 24 25  0  0  0  0  0  0  0  0999 V2000
   37.5750   23.6820   32.4390 C   0  0  0  0  0  0  0  0  0  0  0  0
   38.6100   23.6180   33.3990 C   0  0  0  0  0  0  0  0  0  0  0  0
   38.6550   22.5250   34.2480 C   0  0  0  0  0  0  0  0  0  0  0  0
   37.6860   21.5960   34.0810 N   0  0  0  0  0  0  0  0  0  0  0  0
   36.7130   21.6650   33.1720 C   0  0  0  0  0  0  0  0  0  0  0  0
   36.6630   22.7100   32.3540 N   0  0  0  0  0  0  0  0  0  0  0  0
   37.4780   24.4910   31.7560 H   0  0  0  0  0  0  0  0  0  0  0  0
   39.3330   24.4130   33.4490 H   0  0  0  0  0  0  0  0  0  0  0  0
   39.4320   22.7060   36.5710 C   0  0  0  0  0  0  0  0  0  0  0  0
   39.6830   22.3710   35.2670 C   0  0  0  0  0  0  0  0  0  0  0  0
   40.9340   21.8910   34.9870 C   0  0  0  0  0  0  0  0  0  0  0  0
   41.2300   21.5990   33.9890 H   0  0  0  0  0  0  0  0  0  0  0  0
   41.9420   21.7280   35.9140 C   0  0  0  0  0  0  0  0  0  0  0  0
   42.9210   21.3490   35.6780 H   0  0  0  0  0  0  0  0  0  0  0  0
   41.6970   22.0640   37.2290 C   0  0  0  0  0  3  0  0  0  0  0  0
   40.4400   22.5470   37.5240 C   0  0  0  0  0  3  0  0  0  0  0  0
   36.8350   22.6360   36.5930 H   0  0  0  0  0  0  0  0  0  0  0  0
   37.8850   23.3330   37.0940 S   0  0  0  0  0  0  0  0  0  0  0  0
   37.7890   24.8260   36.8060 O   0  0  0  0  0  0  0  0  0  0  0  0
   37.7760   23.2320   38.5990 O   0  0  0  0  0  0  0  0  0  0  0  0
   35.7320   20.5570   33.1250 C   0  0  0  0  0  0  0  0  0  0  0  0
   36.2540   19.4140   32.5240 F   0  0  0  0  0  0  0  0  0  0  0  0
   35.3520   20.1560   34.4160 F   0  0  0  0  0  0  0  0  0  0  0  0
   34.5730   20.8450   32.4700 F   0  0  0  0  0  0  0  0  0  0  0  0
  1  2  1  0  0  0  0
  2  8  1  0  0  0  0
  2  3  2  0  0  0  0
  3 10  1  0  0  0  0
  4  3  1  0  0  0  0
  5  4  2  0  0  0  0
  6  1  2  0  0  0  0
  6  5  1  0  0  0  0
  7  1  1  0  0  0  0
  9 18  1  0  0  0  0
  9 16  1  0  0  0  0
 10  9  2  0  0  0  0
 11 10  1  0  0  0  0
 11 13  2  0  0  0  0
 12 11  1  0  0  0  0
 13 15  1  0  0  0  0
 14 13  1  0  0  0  0
 15 16  2  0  0  0  0
 17 18  1  0  0  0  0
 18 20  2  0  0  0  0
 19 18  2  0  0  0  0
 21  5  1  0  0  0  0
 21 23  1  0  0  0  0
 22 21  1  0  0  0  0
 24 21  1  0  0  0  0
M  END
>  <minimizedAffinity>
-4.97684526

$$$$

 OpenBabel03272510033D

 24 25  0  0  0  0  0  0  0  0999 V2000
   38.3870   23.4290   37.9950 C   0  0  0  0  0  0  0  0  0  0  0  0
   37.5420   23.0940   36.9130 C   0  0  0  0  0  0  0  0  0  0  0  0
   38.0620   22.3320   35.8810 C   0  0  0  0  0  0  0  0  0  0  0  0
   39.3600   21.9690   35.9990 N   0  0  0  0  0  0  0  0  0  0  0  0
   40.1510   22.2910   37.0240 C   0  0  0  0  0  0  0  0  0  0  0  0
   39.6580   23.0200   38.0180 N   0  0  0  0  0  0  0  0  0  0  0  0
   38.0560   24.0100   38.8210 H   0  0  0  0  0  0  0  0  0  0  0  0
   36.5210   23.4340   36.9160 H   0  0  0  0  0  0  0  0  0  0  0  0
   37.4280   22.5640   33.5190 C   0  0  0  0  0  0  0  0  0  0  0  0
   37.2690   21.9370   34.7260 C   0  0  0  0  0  0  0  0  0  0  0  0
   36.3370   20.9350   34.7790 C   0  0  0  0  0  0  0  0  0  0  0  0
   36.1380   20.3800   35.6850 H   0  0  0  0  0  0  0  0  0  0  0  0
   35.5600   20.5240   33.7160 C   0  0  0  0  0  0  0  0  0  0  0  0
   34.8310   19.7340   33.7740 H   0  0  0  0  0  0  0  0  0  0  0  0
   35.7140   21.1520   32.4970 C   0  0  0  0  0  3  0  0  0  0  0  0
   36.6500   22.1610   32.4320 C   0  0  0  0  0  3  0  0  0  0  0  0
   39.8040   23.5820   33.7870 H   0  0  0  0  0  0  0  0  0  0  0  0
   38.5760   23.8620   33.2850 S   0  0  0  0  0  0  0  0  0  0  0  0
   38.0120   25.1760   33.8140 O   0  0  0  0  0  0  0  0  0  0  0  0
   38.7740   24.1070   31.8050 O   0  0  0  0  0  0  0  0  0  0  0  0
   41.5500   21.8080   36.9950 C   0  0  0  0  0  0  0  0  0  0  0  0
   41.8460   21.1170   35.8220 F   0  0  0  0  0  0  0  0  0  0  0  0
   42.4600   22.8770   37.0340 F   0  0  0  0  0  0  0  0  0  0  0  0
   41.8950   20.9880   38.0260 F   0  0  0  0  0  0  0  0  0  0  0  0
  1  6  1  0  0  0  0
  1  7  1  0  0  0  0
  2  8  1  0  0  0  0
  2  1  2  0  0  0  0
  3  4  2  0  0  0  0
  3  2  1  0  0  0  0
  4  5  1  0  0  0  0
  5  6  2  0  0  0  0
  9 10  1  0  0  0  0
 10 11  2  0  0  0  0
 10  3  1  0  0  0  0
 11 12  1  0  0  0  0
 13 14  1  0  0  0  0
 13 11  1  0  0  0  0
 15 13  2  0  0  0  0
 16 15  1  0  0  0  0
 16  9  2  0  0  0  0
 18  9  1  0  0  0  0
 18 17  1  0  0  0  0
 18 19  2  0  0  0  0
 20 18  2  0  0  0  0
 21  5  1  0  0  0  0
 21 23  1  0  0  0  0
 21 24  1  0  0  0  0
 22 21  1  0  0  0  0
M  END
>  <minimizedAffinity>
-4.96706963

$$$$

 OpenBabel03272510033D

 24 25  0  0  0  0  0  0  0  0999 V2000
   39.4020   21.5020   32.8530 C   0  0  0  0  0  0  0  0  0  0  0  0
   39.4830   22.8130   33.3740 C   0  0  0  0  0  0  0  0  0  0  0  0
   38.3410   23.3800   33.9160 C   0  0  0  0  0  0  0  0  0  0  0  0
   37.2250   22.6150   33.8970 N   0  0  0  0  0  0  0  0  0  0  0  0
   37.1580   21.3780   33.4020 C   0  0  0  0  0  0  0  0  0  0  0  0
   38.2490   20.8280   32.8820 N   0  0  0  0  0  0  0  0  0  0  0  0
   40.2360   21.0050   32.4220 H   0  0  0  0  0  0  0  0  0  0  0  0
   40.4220   23.3380   33.3400 H   0  0  0  0  0  0  0  0  0  0  0  0
   38.3360   24.9160   35.8330 C   0  0  0  0  0  0  0  0  0  0  0  0
   38.3280   24.7230   34.4770 C   0  0  0  0  0  0  0  0  0  0  0  0
   38.3070   25.8480   33.6960 C   0  0  0  0  0  0  0  0  0  0  0  0
   38.2990   25.8010   32.6160 H   0  0  0  0  0  0  0  0  0  0  0  0
   38.2930   27.1400   34.1770 C   0  0  0  0  0  0  0  0  0  0  0  0
   38.2770   28.0160   33.5500 H   0  0  0  0  0  0  0  0  0  0  0  0
   38.3000   27.3430   35.5420 C   0  0  0  0  0  3  0  0  0  0  0  0
   38.3220   26.2180   36.3370 C   0  0  0  0  0  3  0  0  0  0  0  0
   37.6480   22.5130   36.5410 H   0  0  0  0  0  0  0  0  0  0  0  0
   38.3620   23.5850   36.9660 S   0  0  0  0  0  0  0  0  0  0  0  0
   37.9420   24.0560   38.3530 O   0  0  0  0  0  0  0  0  0  0  0  0
   39.7820   23.0970   37.1480 O   0  0  0  0  0  0  0  0  0  0  0  0
   35.8540   20.6800   33.4630 C   0  0  0  0  0  0  0  0  0  0  0  0
   35.9390   19.3620   33.0210 F   0  0  0  0  0  0  0  0  0  0  0  0
   35.3800   20.5980   34.7830 F   0  0  0  0  0  0  0  0  0  0  0  0
   34.8560   21.2670   32.7450 F   0  0  0  0  0  0  0  0  0  0  0  0
  1  6  2  0  0  0  0
  1  2  1  0  0  0  0
  2  3  2  0  0  0  0
  3 10  1  0  0  0  0
  4  3  1  0  0  0  0
  5 21  1  0  0  0  0
  5  4  2  0  0  0  0
  6  5  1  0  0  0  0
  7  1  1  0  0  0  0
  8  2  1  0  0  0  0
  9 16  1  0  0  0  0
  9 18  1  0  0  0  0
 10  9  2  0  0  0  0
 11 13  2  0  0  0  0
 11 10  1  0  0  0  0
 12 11  1  0  0  0  0
 13 15  1  0  0  0  0
 14 13  1  0  0  0  0
 15 16  2  0  0  0  0
 17 18  1  0  0  0  0
 18 20  2  0  0  0  0
 18 19  2  0  0  0  0
 21 23  1  0  0  0  0
 22 21  1  0  0  0  0
 24 21  1  0  0  0  0
M  END
>  <minimizedAffinity>
-4.94340372

$$$$

 OpenBabel03272510033D

 24 25  0  0  0  0  0  0  0  0999 V2000
   38.6530   23.3650   38.2360 C   0  0  0  0  0  0  0  0  0  0  0  0
   38.0260   23.8430   37.0630 C   0  0  0  0  0  0  0  0  0  0  0  0
   38.6710   23.6640   35.8510 C   0  0  0  0  0  0  0  0  0  0  0  0
   39.8680   23.0360   35.8950 N   0  0  0  0  0  0  0  0  0  0  0  0
   40.4530   22.5890   37.0080 C   0  0  0  0  0  0  0  0  0  0  0  0
   39.8400   22.7560   38.1740 N   0  0  0  0  0  0  0  0  0  0  0  0
   38.2180   23.4670   39.2000 H   0  0  0  0  0  0  0  0  0  0  0  0
   37.0690   24.3300   37.1370 H   0  0  0  0  0  0  0  0  0  0  0  0
   37.9090   25.4560   34.3530 C   0  0  0  0  0  0  0  0  0  0  0  0
   38.1030   24.1220   34.5910 C   0  0  0  0  0  0  0  0  0  0  0  0
   37.7390   23.2600   33.5900 C   0  0  0  0  0  0  0  0  0  0  0  0
   37.8520   22.1890   33.6810 H   0  0  0  0  0  0  0  0  0  0  0  0
   37.1970   23.6420   32.3810 C   0  0  0  0  0  0  0  0  0  0  0  0
   36.9160   22.9520   31.6030 H   0  0  0  0  0  0  0  0  0  0  0  0
   36.9980   24.9850   32.1340 C   0  0  0  0  0  3  0  0  0  0  0  0
   37.3620   25.8610   33.1340 C   0  0  0  0  0  3  0  0  0  0  0  0
   38.2190   26.2480   36.8080 H   0  0  0  0  0  0  0  0  0  0  0  0
   38.3220   26.6840   35.5280 S   0  0  0  0  0  0  0  0  0  0  0  0
   37.5210   27.9550   35.2750 O   0  0  0  0  0  0  0  0  0  0  0  0
   39.7630   27.1040   35.3420 O   0  0  0  0  0  0  0  0  0  0  0  0
   41.7670   21.9220   36.8760 C   0  0  0  0  0  0  0  0  0  0  0  0
   42.8270   22.8230   36.9480 F   0  0  0  0  0  0  0  0  0  0  0  0
   41.9850   21.0100   37.9230 F   0  0  0  0  0  0  0  0  0  0  0  0
   41.9380   21.2130   35.7250 F   0  0  0  0  0  0  0  0  0  0  0  0
  1  7  1  0  0  0  0
  2  8  1  0  0  0  0
  2  1  2  0  0  0  0
  3  4  2  0  0  0  0
  3  2  1  0  0  0  0
  4  5  1  0  0  0  0
  5  6  2  0  0  0  0
  6  1  1  0  0  0  0
  9 10  1  0  0  0  0
  9 18  1  0  0  0  0
 10  3  1  0  0  0  0
 11 12  1  0  0  0  0
 11 10  2  0  0  0  0
 13 11  1  0  0  0  0
 14 13  1  0  0  0  0
 15 13  2  0  0  0  0
 15 16  1  0  0  0  0
 16  9  2  0  0  0  0
 18 17  1  0  0  0  0
 19 18  2  0  0  0  0
 20 18  2  0  0  0  0
 21 22  1  0  0  0  0
 21  5  1  0  0  0  0
 21 23  1  0  0  0  0
 24 21  1  0  0  0  0
M  END
>  <minimizedAffinity>
-4.91010571

$$$$

 OpenBabel03272510033D

 24 25  0  0  0  0  0  0  0  0999 V2000
   37.5770   23.4680   32.3900 C   0  0  0  0  0  0  0  0  0  0  0  0
   38.0670   23.7280   33.6890 C   0  0  0  0  0  0  0  0  0  0  0  0
   37.8400   22.7870   34.6800 C   0  0  0  0  0  0  0  0  0  0  0  0
   37.1550   21.6800   34.3110 N   0  0  0  0  0  0  0  0  0  0  0  0
   36.6960   21.4440   33.0800 C   0  0  0  0  0  0  0  0  0  0  0  0
   36.9110   22.3420   32.1250 N   0  0  0  0  0  0  0  0  0  0  0  0
   37.7140   24.1450   31.5810 H   0  0  0  0  0  0  0  0  0  0  0  0
   38.6010   24.6420   33.8800 H   0  0  0  0  0  0  0  0  0  0  0  0
   39.5980   22.6710   36.3920 C   0  0  0  0  0  0  0  0  0  0  0  0
   38.3060   22.9660   36.0480 C   0  0  0  0  0  0  0  0  0  0  0  0
   37.4940   23.4310   37.0480 C   0  0  0  0  0  0  0  0  0  0  0  0
   36.4590   23.6920   36.8780 H   0  0  0  0  0  0  0  0  0  0  0  0
   37.8860   23.6170   38.3570 C   0  0  0  0  0  0  0  0  0  0  0  0
   37.2360   23.9850   39.1330 H   0  0  0  0  0  0  0  0  0  0  0  0
   39.1860   23.3220   38.7120 C   0  0  0  0  0  3  0  0  0  0  0  0
   40.0110   22.8540   37.7130 C   0  0  0  0  0  3  0  0  0  0  0  0
   40.1850   21.3720   34.2200 H   0  0  0  0  0  0  0  0  0  0  0  0
   40.7590   22.0680   35.2330 S   0  0  0  0  0  0  0  0  0  0  0  0
   41.8570   21.2800   35.9370 O   0  0  0  0  0  0  0  0  0  0  0  0
   41.4840   23.2270   34.5860 O   0  0  0  0  0  0  0  0  0  0  0  0
   35.9660   20.1780   32.8470 C   0  0  0  0  0  0  0  0  0  0  0  0
   35.4620   19.6340   34.0260 F   0  0  0  0  0  0  0  0  0  0  0  0
   34.8450   20.3780   32.0240 F   0  0  0  0  0  0  0  0  0  0  0  0
   36.6960   19.1970   32.2480 F   0  0  0  0  0  0  0  0  0  0  0  0
  1  2  1  0  0  0  0
  2  8  1  0  0  0  0
  2  3  2  0  0  0  0
  3 10  1  0  0  0  0
  4  3  1  0  0  0  0
  5  4  2  0  0  0  0
  6  1  2  0  0  0  0
  6  5  1  0  0  0  0
  7  1  1  0  0  0  0
  9 16  1  0  0  0  0
 10  9  2  0  0  0  0
 10 11  1  0  0  0  0
 11 13  2  0  0  0  0
 12 11  1  0  0  0  0
 13 15  1  0  0  0  0
 13 14  1  0  0  0  0
 16 15  2  0  0  0  0
 17 18  1  0  0  0  0
 18 19  2  0  0  0  0
 18  9  1  0  0  0  0
 20 18  2  0  0  0  0
 21  5  1  0  0  0  0
 21 22  1  0  0  0  0
 23 21  1  0  0  0  0
 24 21  1  0  0  0  0
M  END
>  <minimizedAffinity>
-4.90242577

$$$$

 OpenBabel03272510033D

 24 25  0  0  0  0  0  0  0  0999 V2000
   36.3540   29.6940   31.8050 C   0  0  0  0  0  0  0  0  0  0  0  0
   35.6840   30.4780   32.7700 C   0  0  0  0  0  0  0  0  0  0  0  0
   35.5220   29.9600   34.0450 C   0  0  0  0  0  0  0  0  0  0  0  0
   36.0290   28.7230   34.2580 N   0  0  0  0  0  0  0  0  0  0  0  0
   36.6600   27.9900   33.3390 C   0  0  0  0  0  0  0  0  0  0  0  0
   36.8190   28.4810   32.1150 N   0  0  0  0  0  0  0  0  0  0  0  0
   36.5140   30.0270   30.8080 H   0  0  0  0  0  0  0  0  0  0  0  0
   35.3180   31.4530   32.4980 H   0  0  0  0  0  0  0  0  0  0  0  0
   33.5010   30.5430   35.3140 C   0  0  0  0  0  0  0  0  0  0  0  0
   34.8470   30.6930   35.1050 C   0  0  0  0  0  0  0  0  0  0  0  0
   35.5050   31.5570   35.9390 C   0  0  0  0  0  0  0  0  0  0  0  0
   36.5660   31.7440   35.8560 H   0  0  0  0  0  0  0  0  0  0  0  0
   34.9120   32.2750   36.9560 C   0  0  0  0  0  0  0  0  0  0  0  0
   35.4430   32.9520   37.6040 H   0  0  0  0  0  0  0  0  0  0  0  0
   33.5570   32.1300   37.1720 C   0  0  0  0  0  3  0  0  0  0  0  0
   32.8850   31.2620   36.3390 C   0  0  0  0  0  3  0  0  0  0  0  0
   33.0990   28.2720   34.1170 H   0  0  0  0  0  0  0  0  0  0  0  0
   32.5180   29.4780   34.3360 S   0  0  0  0  0  0  0  0  0  0  0  0
   32.1000   30.1710   33.0450 O   0  0  0  0  0  0  0  0  0  0  0  0
   31.2140   29.1910   35.0480 O   0  0  0  0  0  0  0  0  0  0  0  0
   37.1530   26.6540   33.7420 C   0  0  0  0  0  0  0  0  0  0  0  0
   36.6320   25.6360   32.9480 F   0  0  0  0  0  0  0  0  0  0  0  0
   38.5480   26.5600   33.5970 F   0  0  0  0  0  0  0  0  0  0  0  0
   36.8900   26.3120   35.0340 F   0  0  0  0  0  0  0  0  0  0  0  0
  1  6  2  0  0  0  0
  1  2  1  0  0  0  0
  2  3  2  0  0  0  0
  3  4  1  0  0  0  0
  3 10  1  0  0  0  0
  5 21  1  0  0  0  0
  5  4  2  0  0  0  0
  6  5  1  0  0  0  0
  7  1  1  0  0  0  0
  8  2  1  0  0  0  0
  9 16  1  0  0  0  0
 10  9  2  0  0  0  0
 10 11  1  0  0  0  0
 11 13  2  0  0  0  0
 12 11  1  0  0  0  0
 13 15  1  0  0  0  0
 13 14  1  0  0  0  0
 16 15  2  0  0  0  0
 17 18  1  0  0  0  0
 18 20  2  0  0  0  0
 18  9  1  0  0  0  0
 19 18  2  0  0  0  0
 21 24  1  0  0  0  0
 22 21  1  0  0  0  0
 23 21  1  0  0  0  0
M  END
>  <minimizedAffinity>
-4.89749813

$$$$
