
 OpenBabel03262520343D

 32 33  0  0  0  0  0  0  0  0999 V2000
   39.0710   27.2330   36.1230 O   0  0  0  0  0  0  0  0  0  0  0  0
   39.6120   26.5790   34.8560 P   0  0  2  0  0  0  0  0  0  0  0  0
   41.2490   26.9610   34.6100 O   0  0  0  0  0  0  0  0  0  0  0  0
   41.8120   26.1740   34.7970 H   0  0  0  0  0  0  0  0  0  0  0  0
   38.7090   27.2830   33.5980 O   0  0  0  0  0  0  0  0  0  0  0  0
   37.3690   26.8830   33.7390 C   0  0  0  0  0  0  0  0  0  0  0  0
   36.9600   26.7830   32.7000 H   0  0  0  0  0  0  0  0  0  0  0  0
   37.2380   25.9260   34.2370 H   0  0  0  0  0  0  0  0  0  0  0  0
   36.0610   28.9880   33.8690 C   0  0  0  0  0  3  0  0  0  0  0  0
   36.5700   27.9340   34.4270 C   0  0  0  0  0  3  0  0  0  0  0  0
   33.3180   30.6980   35.5950 C   0  0  0  0  0  0  0  0  0  0  0  0
   33.9980   31.6580   36.3560 C   0  0  0  0  0  0  0  0  0  0  0  0
   35.3990   31.7060   36.2640 C   0  0  0  0  0  0  0  0  0  0  0  0
   35.9920   30.7940   35.4270 N   0  0  0  0  0  0  0  0  0  0  0  0
   35.3080   29.8990   34.7230 C   0  0  0  0  0  0  0  0  0  0  0  0
   33.9710   29.8590   34.8130 N   0  0  0  0  0  0  0  0  0  0  0  0
   32.2500   30.7340   35.7270 H   0  0  0  0  0  0  0  0  0  0  0  0
   33.5940   32.3940   37.0250 H   0  0  0  0  0  0  0  0  0  0  0  0
   36.0520   32.3890   36.7900 H   0  0  0  0  0  0  0  0  0  0  0  0
   39.3970   24.9050   34.9110 O   0  0  0  0  0  0  0  0  0  0  0  0
   39.4860   23.4550   36.7000 C   0  0  0  0  0  0  0  0  0  0  0  0
   40.1660   23.9970   35.6030 C   0  0  0  0  0  0  0  0  0  0  0  0
   41.4560   23.6150   35.3110 C   0  0  0  0  0  0  0  0  0  0  0  0
   41.9110   24.0740   34.4530 H   0  0  0  0  0  0  0  0  0  0  0  0
   42.0800   22.6900   36.1100 C   0  0  0  0  0  0  0  0  0  0  0  0
   43.0950   22.3860   35.8860 H   0  0  0  0  0  0  0  0  0  0  0  0
   41.4170   22.1650   37.1760 C   0  0  0  0  0  3  0  0  0  0  0  0
   40.1230   22.5110   37.5150 C   0  0  0  0  0  3  0  0  0  0  0  0
   37.3260   24.8500   36.3250 H   0  0  0  0  0  0  0  0  0  0  0  0
   37.8450   23.8810   37.1470 S   0  0  0  0  0  0  0  0  0  0  0  0
   36.9500   22.6860   37.0920 O   0  0  0  0  0  0  0  0  0  0  0  0
   37.8650   24.4610   38.5540 O   0  0  0  0  0  0  0  0  0  0  0  0
  2 20  1  0  0  0  0
  2  1  2  1  0  0  0
  3  4  1  0  0  0  0
  3  2  1  0  0  0  0
  5  6  1  0  0  0  0
  5  2  1  0  0  0  0
  6  8  1  0  0  0  0
  6 10  1  0  0  0  0
  7  6  1  0  0  0  0
  9 10  2  0  0  0  0
  9 15  1  0  0  0  0
 11 17  1  0  0  0  0
 11 12  1  0  0  0  0
 12 18  1  0  0  0  0
 13 12  2  0  0  0  0
 13 19  1  0  0  0  0
 14 13  1  0  0  0  0
 15 16  1  0  0  0  0
 15 14  2  0  0  0  0
 16 11  2  0  0  0  0
 20 22  1  0  0  0  0
 21 30  1  0  0  0  0
 21 28  1  0  0  0  0
 22 21  2  0  0  0  0
 23 22  1  0  0  0  0
 23 25  2  0  0  0  0
 24 23  1  0  0  0  0
 25 27  1  0  0  0  0
 26 25  1  0  0  0  0
 27 28  2  0  0  0  0
 29 30  1  0  0  0  0
 30 32  2  0  0  0  0
 31 30  2  0  0  0  0
M  END
>  <minimizedAffinity>
-5.41096926

$$$$

 OpenBabel03262520343D

 32 33  0  0  0  0  0  0  0  0999 V2000
   39.7110   26.3010   34.4670 O   0  0  0  0  0  0  0  0  0  0  0  0
   38.4740   26.4470   35.3480 P   0  0  2  0  0  0  0  0  0  0  0  0
   38.6230   27.7620   36.4130 O   0  0  0  0  0  0  0  0  0  0  0  0
   38.0340   28.4990   36.1260 H   0  0  0  0  0  0  0  0  0  0  0  0
   38.4420   25.0190   36.2710 O   0  0  0  0  0  0  0  0  0  0  0  0
   39.0650   24.0000   35.5300 C   0  0  0  0  0  0  0  0  0  0  0  0
   39.7030   24.5130   34.7640 H   0  0  0  0  0  0  0  0  0  0  0  0
   39.7140   23.3540   36.1160 H   0  0  0  0  0  0  0  0  0  0  0  0
   38.1220   22.8550   33.5410 C   0  0  0  0  0  3  0  0  0  0  0  0
   38.0600   23.1860   34.7930 C   0  0  0  0  0  3  0  0  0  0  0  0
   35.6050   21.4290   31.2930 C   0  0  0  0  0  0  0  0  0  0  0  0
   34.9730   20.4860   32.1130 C   0  0  0  0  0  0  0  0  0  0  0  0
   35.4230   20.3530   33.4370 C   0  0  0  0  0  0  0  0  0  0  0  0
   36.4580   21.1680   33.8200 N   0  0  0  0  0  0  0  0  0  0  0  0
   37.0300   22.0490   33.0070 C   0  0  0  0  0  0  0  0  0  0  0  0
   36.5970   22.1730   31.7450 N   0  0  0  0  0  0  0  0  0  0  0  0
   35.1960   21.4630   30.2960 H   0  0  0  0  0  0  0  0  0  0  0  0
   34.1630   19.8240   31.8750 H   0  0  0  0  0  0  0  0  0  0  0  0
   35.0320   19.6710   34.1810 H   0  0  0  0  0  0  0  0  0  0  0  0
   37.0850   26.6060   34.4020 O   0  0  0  0  0  0  0  0  0  0  0  0
   36.7750   27.6940   32.3950 C   0  0  0  0  0  0  0  0  0  0  0  0
   36.6320   27.7500   33.7860 C   0  0  0  0  0  0  0  0  0  0  0  0
   36.0900   28.8580   34.3970 C   0  0  0  0  0  0  0  0  0  0  0  0
   36.0120   28.8270   35.4680 H   0  0  0  0  0  0  0  0  0  0  0  0
   35.6860   29.9200   33.6270 C   0  0  0  0  0  0  0  0  0  0  0  0
   35.2590   30.7950   34.1020 H   0  0  0  0  0  0  0  0  0  0  0  0
   35.8270   29.8630   32.2750 C   0  0  0  0  0  3  0  0  0  0  0  0
   36.3630   28.7770   31.6090 C   0  0  0  0  0  3  0  0  0  0  0  0
   38.2460   25.5510   32.3410 H   0  0  0  0  0  0  0  0  0  0  0  0
   37.4540   26.3260   31.5320 S   0  0  0  0  0  0  0  0  0  0  0  0
   36.3730   25.4650   30.9640 O   0  0  0  0  0  0  0  0  0  0  0  0
   38.3470   26.8550   30.4190 O   0  0  0  0  0  0  0  0  0  0  0  0
  2  1  2  6  0  0  0
  2  5  1  0  0  0  0
  2  3  1  0  0  0  0
  4  3  1  0  0  0  0
  6  8  1  0  0  0  0
  6  5  1  0  0  0  0
  7  6  1  0  0  0  0
  9 10  2  0  0  0  0
 10  6  1  0  0  0  0
 11 16  2  0  0  0  0
 11 12  1  0  0  0  0
 12 13  2  0  0  0  0
 13 14  1  0  0  0  0
 13 19  1  0  0  0  0
 15  9  1  0  0  0  0
 15 14  2  0  0  0  0
 16 15  1  0  0  0  0
 17 11  1  0  0  0  0
 18 12  1  0  0  0  0
 20  2  1  0  0  0  0
 21 22  1  0  0  0  0
 22 23  2  0  0  0  0
 22 20  1  0  0  0  0
 23 24  1  0  0  0  0
 25 26  1  0  0  0  0
 25 23  1  0  0  0  0
 27 25  2  0  0  0  0
 28 27  1  0  0  0  0
 28 21  2  0  0  0  0
 30 29  1  0  0  0  0
 30 21  1  0  0  0  0
 31 30  2  0  0  0  0
 32 30  2  0  0  0  0
M  END
>  <minimizedAffinity>
-4.97274733

$$$$

 OpenBabel03262520343D

 32 33  0  0  0  0  0  0  0  0999 V2000
   36.9790   26.5730   34.3230 O   0  0  0  0  0  0  0  0  0  0  0  0
   38.1720   25.7000   33.9450 P   0  0  2  0  0  0  0  0  0  0  0  0
   39.6420   26.4710   34.3030 O   0  0  0  0  0  0  0  0  0  0  0  0
   40.0670   26.0460   35.0830 H   0  0  0  0  0  0  0  0  0  0  0  0
   38.0570   25.5340   32.2560 O   0  0  0  0  0  0  0  0  0  0  0  0
   36.7430   25.1490   31.9390 C   0  0  0  0  0  0  0  0  0  0  0  0
   36.1110   25.4290   32.8220 H   0  0  0  0  0  0  0  0  0  0  0  0
   36.3290   25.6500   31.0670 H   0  0  0  0  0  0  0  0  0  0  0  0
   35.5550   22.9730   31.8410 C   0  0  0  0  0  3  0  0  0  0  0  0
   36.6440   23.6720   31.7770 C   0  0  0  0  0  3  0  0  0  0  0  0
   34.9190   19.3670   31.9720 C   0  0  0  0  0  0  0  0  0  0  0  0
   35.9960   18.8480   31.2430 C   0  0  0  0  0  0  0  0  0  0  0  0
   36.9340   19.7510   30.7140 C   0  0  0  0  0  0  0  0  0  0  0  0
   36.7110   21.0820   30.9570 N   0  0  0  0  0  0  0  0  0  0  0  0
   35.6730   21.5320   31.6540 C   0  0  0  0  0  0  0  0  0  0  0  0
   34.7820   20.6660   32.1580 N   0  0  0  0  0  0  0  0  0  0  0  0
   34.2520   18.6050   32.3390 H   0  0  0  0  0  0  0  0  0  0  0  0
   36.2250   17.8230   31.0200 H   0  0  0  0  0  0  0  0  0  0  0  0
   37.8110   19.4960   30.1340 H   0  0  0  0  0  0  0  0  0  0  0  0
   38.0840   24.2030   34.7220 O   0  0  0  0  0  0  0  0  0  0  0  0
   39.4580   23.1550   36.2470 C   0  0  0  0  0  0  0  0  0  0  0  0
   38.3220   23.9490   36.0540 C   0  0  0  0  0  0  0  0  0  0  0  0
   37.5760   24.3890   37.1240 C   0  0  0  0  0  0  0  0  0  0  0  0
   36.7180   24.9950   36.8960 H   0  0  0  0  0  0  0  0  0  0  0  0
   37.9560   24.0420   38.3970 C   0  0  0  0  0  0  0  0  0  0  0  0
   37.3730   24.3840   39.2430 H   0  0  0  0  0  0  0  0  0  0  0  0
   39.0610   23.2700   38.5810 C   0  0  0  0  0  3  0  0  0  0  0  0
   39.8460   22.8010   37.5450 C   0  0  0  0  0  3  0  0  0  0  0  0
   41.4560   21.7200   35.4080 H   0  0  0  0  0  0  0  0  0  0  0  0
   40.4660   22.5500   34.9460 S   0  0  0  0  0  0  0  0  0  0  0  0
   39.6500   21.8010   33.9440 O   0  0  0  0  0  0  0  0  0  0  0  0
   41.1580   23.7340   34.2850 O   0  0  0  0  0  0  0  0  0  0  0  0
  2  3  1  0  0  0  0
  2  1  2  1  0  0  0
  2 20  1  0  0  0  0
  3  4  1  0  0  0  0
  5  2  1  0  0  0  0
  6  5  1  0  0  0  0
  6  7  1  0  0  0  0
  8  6  1  0  0  0  0
 10  9  2  0  0  0  0
 10  6  1  0  0  0  0
 11 16  1  0  0  0  0
 11 17  1  0  0  0  0
 12 11  2  0  0  0  0
 13 14  2  0  0  0  0
 13 12  1  0  0  0  0
 14 15  1  0  0  0  0
 15  9  1  0  0  0  0
 15 16  2  0  0  0  0
 18 12  1  0  0  0  0
 19 13  1  0  0  0  0
 20 22  1  0  0  0  0
 21 28  1  0  0  0  0
 22 21  2  0  0  0  0
 22 23  1  0  0  0  0
 23 25  2  0  0  0  0
 24 23  1  0  0  0  0
 25 27  1  0  0  0  0
 25 26  1  0  0  0  0
 28 27  2  0  0  0  0
 30 29  1  0  0  0  0
 30 21  1  0  0  0  0
 31 30  2  0  0  0  0
 32 30  2  0  0  0  0
M  END
>  <minimizedAffinity>
-4.93791914

$$$$

 OpenBabel03262520343D

 32 33  0  0  0  0  0  0  0  0999 V2000
   35.7920   29.0030   31.8440 O   0  0  0  0  0  0  0  0  0  0  0  0
   36.3970   27.7310   31.2570 P   0  0  2  0  0  0  0  0  0  0  0  0
   36.4700   27.8040   29.5620 O   0  0  0  0  0  0  0  0  0  0  0  0
   37.4030   27.9250   29.2680 H   0  0  0  0  0  0  0  0  0  0  0  0
   35.3000   26.5040   31.6880 O   0  0  0  0  0  0  0  0  0  0  0  0
   35.1570   25.6360   30.5920 C   0  0  0  0  0  0  0  0  0  0  0  0
   34.0990   25.7490   30.2380 H   0  0  0  0  0  0  0  0  0  0  0  0
   35.8090   25.8650   29.7520 H   0  0  0  0  0  0  0  0  0  0  0  0
   36.3630   23.7320   31.6280 C   0  0  0  0  0  3  0  0  0  0  0  0
   35.3340   24.2170   31.0080 C   0  0  0  0  0  3  0  0  0  0  0  0
   37.4000   20.2760   32.2670 C   0  0  0  0  0  0  0  0  0  0  0  0
   36.1810   19.6490   32.5570 C   0  0  0  0  0  0  0  0  0  0  0  0
   35.0120   20.4270   32.5280 C   0  0  0  0  0  0  0  0  0  0  0  0
   35.1640   21.7540   32.2150 N   0  0  0  0  0  0  0  0  0  0  0  0
   36.3410   22.3090   31.9470 C   0  0  0  0  0  0  0  0  0  0  0  0
   37.4530   21.5620   31.9750 N   0  0  0  0  0  0  0  0  0  0  0  0
   38.2410   19.6040   32.3120 H   0  0  0  0  0  0  0  0  0  0  0  0
   35.9970   18.6210   32.8070 H   0  0  0  0  0  0  0  0  0  0  0  0
   34.0070   20.0810   32.7290 H   0  0  0  0  0  0  0  0  0  0  0  0
   37.9300   27.4470   31.9040 O   0  0  0  0  0  0  0  0  0  0  0  0
   39.6210   27.0920   33.4290 C   0  0  0  0  0  0  0  0  0  0  0  0
   38.2490   27.2920   33.2340 C   0  0  0  0  0  0  0  0  0  0  0  0
   37.3800   27.3190   34.3010 C   0  0  0  0  0  0  0  0  0  0  0  0
   36.3420   27.4770   34.0720 H   0  0  0  0  0  0  0  0  0  0  0  0
   37.8690   27.1460   35.5720 C   0  0  0  0  0  0  0  0  0  0  0  0
   37.1900   27.1650   36.4150 H   0  0  0  0  0  0  0  0  0  0  0  0
   39.2030   26.9510   35.7580 C   0  0  0  0  0  3  0  0  0  0  0  0
   40.1200   26.9160   34.7250 C   0  0  0  0  0  3  0  0  0  0  0  0
   40.4670   27.8900   31.1040 H   0  0  0  0  0  0  0  0  0  0  0  0
   40.8010   27.0440   32.1320 S   0  0  0  0  0  0  0  0  0  0  0  0
   42.1580   27.4180   32.6310 O   0  0  0  0  0  0  0  0  0  0  0  0
   40.8210   25.6360   31.5540 O   0  0  0  0  0  0  0  0  0  0  0  0
  2  5  1  0  0  0  0
  2  1  2  1  0  0  0
  2 20  1  0  0  0  0
  3  2  1  0  0  0  0
  4  3  1  0  0  0  0
  6 10  1  0  0  0  0
  6  5  1  0  0  0  0
  7  6  1  0  0  0  0
  8  6  1  0  0  0  0
  9 15  1  0  0  0  0
 10  9  2  0  0  0  0
 11 17  1  0  0  0  0
 11 12  1  0  0  0  0
 12 18  1  0  0  0  0
 13 12  2  0  0  0  0
 13 19  1  0  0  0  0
 14 13  1  0  0  0  0
 15 16  1  0  0  0  0
 15 14  2  0  0  0  0
 16 11  2  0  0  0  0
 20 22  1  0  0  0  0
 21 28  1  0  0  0  0
 22 21  2  0  0  0  0
 22 23  1  0  0  0  0
 23 25  2  0  0  0  0
 24 23  1  0  0  0  0
 25 27  1  0  0  0  0
 25 26  1  0  0  0  0
 28 27  2  0  0  0  0
 29 30  1  0  0  0  0
 30 31  2  0  0  0  0
 30 21  1  0  0  0  0
 32 30  2  0  0  0  0
M  END
>  <minimizedAffinity>
-4.93276024

$$$$

 OpenBabel03262520343D

 32 33  0  0  0  0  0  0  0  0999 V2000
   37.3150   27.5580   30.7200 O   0  0  0  0  0  0  0  0  0  0  0  0
   36.1600   26.8150   31.3850 P   0  0  2  0  0  0  0  0  0  0  0  0
   35.3190   25.8510   30.2680 O   0  0  0  0  0  0  0  0  0  0  0  0
   35.5170   24.8980   30.4250 H   0  0  0  0  0  0  0  0  0  0  0  0
   35.1140   28.0460   31.9160 O   0  0  0  0  0  0  0  0  0  0  0  0
   35.8240   29.2590   31.9160 C   0  0  0  0  0  0  0  0  0  0  0  0
   36.9100   28.9880   31.9790 H   0  0  0  0  0  0  0  0  0  0  0  0
   35.6880   29.8560   31.0180 H   0  0  0  0  0  0  0  0  0  0  0  0
   34.6680   29.7320   34.0600 C   0  0  0  0  0  3  0  0  0  0  0  0
   35.5000   30.0670   33.1240 C   0  0  0  0  0  3  0  0  0  0  0  0
   35.2570   32.3680   36.5350 C   0  0  0  0  0  0  0  0  0  0  0  0
   34.0540   32.3770   37.2520 C   0  0  0  0  0  0  0  0  0  0  0  0
   33.0500   31.4700   36.8740 C   0  0  0  0  0  0  0  0  0  0  0  0
   33.3360   30.6420   35.8180 N   0  0  0  0  0  0  0  0  0  0  0  0
   34.4920   30.6680   35.1640 C   0  0  0  0  0  0  0  0  0  0  0  0
   35.4470   31.5340   35.5310 N   0  0  0  0  0  0  0  0  0  0  0  0
   35.9670   33.0950   36.8940 H   0  0  0  0  0  0  0  0  0  0  0  0
   33.7710   32.9960   38.0820 H   0  0  0  0  0  0  0  0  0  0  0  0
   32.0760   31.3640   37.3330 H   0  0  0  0  0  0  0  0  0  0  0  0
   36.7190   25.8770   32.6730 O   0  0  0  0  0  0  0  0  0  0  0  0
   38.7950   25.7140   33.6590 C   0  0  0  0  0  0  0  0  0  0  0  0
   37.5220   26.2940   33.7100 C   0  0  0  0  0  0  0  0  0  0  0  0
   37.1850   27.1730   34.7140 C   0  0  0  0  0  0  0  0  0  0  0  0
   36.1900   27.5770   34.6860 H   0  0  0  0  0  0  0  0  0  0  0  0
   38.1140   27.4820   35.6770 C   0  0  0  0  0  0  0  0  0  0  0  0
   37.8540   28.1730   36.4700 H   0  0  0  0  0  0  0  0  0  0  0  0
   39.3500   26.9170   35.6250 C   0  0  0  0  0  3  0  0  0  0  0  0
   39.7420   26.0290   34.6410 C   0  0  0  0  0  3  0  0  0  0  0  0
   38.3300   23.6770   32.1130 H   0  0  0  0  0  0  0  0  0  0  0  0
   39.3120   24.5850   32.4200 S   0  0  0  0  0  0  0  0  0  0  0  0
   39.6960   25.3070   31.1690 O   0  0  0  0  0  0  0  0  0  0  0  0
   40.4950   23.7920   32.9560 O   0  0  0  0  0  0  0  0  0  0  0  0
  2  1  2  6  0  0  0
  2  5  1  0  0  0  0
  2 20  1  0  0  0  0
  3  4  1  0  0  0  0
  3  2  1  0  0  0  0
  5  6  1  0  0  0  0
  6  7  1  0  0  0  0
  6 10  1  0  0  0  0
  8  6  1  0  0  0  0
  9 15  1  0  0  0  0
 10  9  2  0  0  0  0
 11 17  1  0  0  0  0
 11 12  1  0  0  0  0
 12 18  1  0  0  0  0
 13 12  2  0  0  0  0
 13 19  1  0  0  0  0
 14 13  1  0  0  0  0
 15 16  1  0  0  0  0
 15 14  2  0  0  0  0
 16 11  2  0  0  0  0
 20 22  1  0  0  0  0
 21 22  2  0  0  0  0
 21 28  1  0  0  0  0
 22 23  1  0  0  0  0
 23 25  2  0  0  0  0
 24 23  1  0  0  0  0
 25 26  1  0  0  0  0
 27 25  1  0  0  0  0
 28 27  2  0  0  0  0
 29 30  1  0  0  0  0
 30 32  2  0  0  0  0
 30 21  1  0  0  0  0
 31 30  2  0  0  0  0
M  END
>  <minimizedAffinity>
-4.93063402

$$$$

 OpenBabel03262520343D

 32 33  0  0  0  0  0  0  0  0999 V2000
   35.2750   27.7200   31.8620 O   0  0  0  0  0  0  0  0  0  0  0  0
   35.9310   28.7050   32.8250 P   0  0  2  0  0  0  0  0  0  0  0  0
   36.3250   30.1630   32.0470 O   0  0  0  0  0  0  0  0  0  0  0  0
   35.7130   30.8790   32.3380 H   0  0  0  0  0  0  0  0  0  0  0  0
   37.3790   27.9440   33.2890 O   0  0  0  0  0  0  0  0  0  0  0  0
   37.2050   26.5550   33.1690 C   0  0  0  0  0  0  0  0  0  0  0  0
   36.1060   26.3860   33.0250 H   0  0  0  0  0  0  0  0  0  0  0  0
   37.7190   26.1110   32.3200 H   0  0  0  0  0  0  0  0  0  0  0  0
   38.1920   24.7100   34.5040 C   0  0  0  0  0  3  0  0  0  0  0  0
   37.5950   25.8580   34.4270 C   0  0  0  0  0  3  0  0  0  0  0  0
   39.7190   22.8820   37.2880 C   0  0  0  0  0  0  0  0  0  0  0  0
   38.9520   23.3070   38.3800 C   0  0  0  0  0  0  0  0  0  0  0  0
   37.9120   24.2220   38.1430 C   0  0  0  0  0  0  0  0  0  0  0  0
   37.7350   24.6280   36.8450 N   0  0  0  0  0  0  0  0  0  0  0  0
   38.4880   24.2000   35.8380 C   0  0  0  0  0  0  0  0  0  0  0  0
   39.4780   23.3260   36.0690 N   0  0  0  0  0  0  0  0  0  0  0  0
   40.4920   22.1830   37.5630 H   0  0  0  0  0  0  0  0  0  0  0  0
   39.0400   23.0280   39.4130 H   0  0  0  0  0  0  0  0  0  0  0  0
   37.2410   24.6350   38.8840 H   0  0  0  0  0  0  0  0  0  0  0  0
   34.9300   28.9950   34.1540 O   0  0  0  0  0  0  0  0  0  0  0  0
   33.5780   30.5290   35.2170 C   0  0  0  0  0  0  0  0  0  0  0  0
   34.8890   30.1360   34.9230 C   0  0  0  0  0  0  0  0  0  0  0  0
   35.9650   30.8590   35.3860 C   0  0  0  0  0  0  0  0  0  0  0  0
   36.9400   30.4950   35.1200 H   0  0  0  0  0  0  0  0  0  0  0  0
   35.7440   31.9810   36.1470 C   0  0  0  0  0  0  0  0  0  0  0  0
   36.5860   32.5540   36.5130 H   0  0  0  0  0  0  0  0  0  0  0  0
   34.4690   32.3600   36.4300 C   0  0  0  0  0  3  0  0  0  0  0  0
   33.3530   31.6720   35.9920 C   0  0  0  0  0  3  0  0  0  0  0  0
   32.4710   28.5280   33.9820 H   0  0  0  0  0  0  0  0  0  0  0  0
   32.1500   29.6700   34.6700 S   0  0  0  0  0  0  0  0  0  0  0  0
   31.2780   29.2980   35.8240 O   0  0  0  0  0  0  0  0  0  0  0  0
   31.3900   30.5680   33.7040 O   0  0  0  0  0  0  0  0  0  0  0  0
  2  1  2  6  0  0  0
  2  5  1  0  0  0  0
  2 20  1  0  0  0  0
  3  4  1  0  0  0  0
  3  2  1  0  0  0  0
  6  5  1  0  0  0  0
  6 10  1  0  0  0  0
  7  6  1  0  0  0  0
  8  6  1  0  0  0  0
  9 15  1  0  0  0  0
 10  9  2  0  0  0  0
 11 17  1  0  0  0  0
 11 12  1  0  0  0  0
 12 18  1  0  0  0  0
 13 12  2  0  0  0  0
 13 19  1  0  0  0  0
 14 13  1  0  0  0  0
 15 16  1  0  0  0  0
 15 14  2  0  0  0  0
 16 11  2  0  0  0  0
 20 22  1  0  0  0  0
 21 28  1  0  0  0  0
 22 21  2  0  0  0  0
 22 23  1  0  0  0  0
 23 25  2  0  0  0  0
 24 23  1  0  0  0  0
 25 27  1  0  0  0  0
 25 26  1  0  0  0  0
 28 27  2  0  0  0  0
 29 30  1  0  0  0  0
 30 21  1  0  0  0  0
 30 31  2  0  0  0  0
 32 30  2  0  0  0  0
M  END
>  <minimizedAffinity>
-4.92975426

$$$$

 OpenBabel03262520343D

 32 33  0  0  0  0  0  0  0  0999 V2000
   38.9570   27.6070   35.7130 O   0  0  0  0  0  0  0  0  0  0  0  0
   39.5950   26.6780   34.6840 P   0  0  2  0  0  0  0  0  0  0  0  0
   41.2880   26.8100   34.6960 O   0  0  0  0  0  0  0  0  0  0  0  0
   41.6880   26.0060   35.1020 H   0  0  0  0  0  0  0  0  0  0  0  0
   39.0290   27.2540   33.1870 O   0  0  0  0  0  0  0  0  0  0  0  0
   37.8810   26.5220   32.8390 C   0  0  0  0  0  0  0  0  0  0  0  0
   37.9260   26.3760   31.7280 H   0  0  0  0  0  0  0  0  0  0  0  0
   37.8210   25.5380   33.2960 H   0  0  0  0  0  0  0  0  0  0  0  0
   36.5590   28.5910   33.2010 C   0  0  0  0  0  3  0  0  0  0  0  0
   36.6440   27.2990   33.1310 C   0  0  0  0  0  3  0  0  0  0  0  0
   33.8230   30.3980   34.8360 C   0  0  0  0  0  0  0  0  0  0  0  0
   32.7520   30.1720   33.9620 C   0  0  0  0  0  0  0  0  0  0  0  0
   32.9860   29.3950   32.8150 C   0  0  0  0  0  0  0  0  0  0  0  0
   34.2620   28.9180   32.6450 N   0  0  0  0  0  0  0  0  0  0  0  0
   35.2490   29.1580   33.5000 C   0  0  0  0  0  0  0  0  0  0  0  0
   35.0200   29.8990   34.5930 N   0  0  0  0  0  0  0  0  0  0  0  0
   33.5530   31.0030   35.6860 H   0  0  0  0  0  0  0  0  0  0  0  0
   31.7380   30.5150   34.0390 H   0  0  0  0  0  0  0  0  0  0  0  0
   32.2590   29.1390   32.0560 H   0  0  0  0  0  0  0  0  0  0  0  0
   39.1240   25.0790   34.9520 O   0  0  0  0  0  0  0  0  0  0  0  0
   39.9310   23.5030   36.4270 C   0  0  0  0  0  0  0  0  0  0  0  0
   38.9460   24.4640   36.1710 C   0  0  0  0  0  0  0  0  0  0  0  0
   37.9450   24.7110   37.0820 C   0  0  0  0  0  0  0  0  0  0  0  0
   37.2260   25.4630   36.8150 H   0  0  0  0  0  0  0  0  0  0  0  0
   37.9160   24.0020   38.2570 C   0  0  0  0  0  0  0  0  0  0  0  0
   37.1300   24.1910   38.9780 H   0  0  0  0  0  0  0  0  0  0  0  0
   38.8740   23.0680   38.5030 C   0  0  0  0  0  3  0  0  0  0  0  0
   39.9020   22.7800   37.6250 C   0  0  0  0  0  3  0  0  0  0  0  0
   40.8140   23.0480   34.0250 H   0  0  0  0  0  0  0  0  0  0  0  0
   41.2430   23.1230   35.3260 S   0  0  0  0  0  0  0  0  0  0  0  0
   42.3230   24.1510   35.4090 O   0  0  0  0  0  0  0  0  0  0  0  0
   41.7920   21.7510   35.6880 O   0  0  0  0  0  0  0  0  0  0  0  0
  2  3  1  0  0  0  0
  2 20  1  0  0  0  0
  2  1  2  1  0  0  0
  3  4  1  0  0  0  0
  5  2  1  0  0  0  0
  6 10  1  0  0  0  0
  6  5  1  0  0  0  0
  6  8  1  0  0  0  0
  7  6  1  0  0  0  0
  9 15  1  0  0  0  0
 10  9  2  0  0  0  0
 11 17  1  0  0  0  0
 12 18  1  0  0  0  0
 12 11  2  0  0  0  0
 13 12  1  0  0  0  0
 14 13  2  0  0  0  0
 14 15  1  0  0  0  0
 15 16  2  0  0  0  0
 16 11  1  0  0  0  0
 19 13  1  0  0  0  0
 20 22  1  0  0  0  0
 21 28  1  0  0  0  0
 22 21  2  0  0  0  0
 22 23  1  0  0  0  0
 23 25  2  0  0  0  0
 24 23  1  0  0  0  0
 25 27  1  0  0  0  0
 25 26  1  0  0  0  0
 28 27  2  0  0  0  0
 29 30  1  0  0  0  0
 30 31  2  0  0  0  0
 30 32  2  0  0  0  0
 30 21  1  0  0  0  0
M  END
>  <minimizedAffinity>
-4.87175083

$$$$

 OpenBabel03262520343D

 32 33  0  0  0  0  0  0  0  0999 V2000
   38.0580   24.7030   30.4280 O   0  0  0  0  0  0  0  0  0  0  0  0
   39.3500   25.4420   30.7640 P   0  0  2  0  0  0  0  0  0  0  0  0
   40.2810   25.7250   29.3720 O   0  0  0  0  0  0  0  0  0  0  0  0
   40.2490   26.6800   29.1310 H   0  0  0  0  0  0  0  0  0  0  0  0
   40.2050   24.3640   31.7640 O   0  0  0  0  0  0  0  0  0  0  0  0
   39.3030   23.4040   32.2520 C   0  0  0  0  0  0  0  0  0  0  0  0
   38.2810   23.7490   31.9470 H   0  0  0  0  0  0  0  0  0  0  0  0
   39.4470   22.4070   31.8430 H   0  0  0  0  0  0  0  0  0  0  0  0
   38.3330   23.6320   34.5240 C   0  0  0  0  0  3  0  0  0  0  0  0
   39.3280   23.3570   33.7400 C   0  0  0  0  0  3  0  0  0  0  0  0
   39.8100   22.8150   37.7750 C   0  0  0  0  0  0  0  0  0  0  0  0
   38.8950   23.3840   38.6700 C   0  0  0  0  0  0  0  0  0  0  0  0
   37.7740   24.0450   38.1400 C   0  0  0  0  0  0  0  0  0  0  0  0
   37.6700   24.0780   36.7720 N   0  0  0  0  0  0  0  0  0  0  0  0
   38.5640   23.5250   35.9600 C   0  0  0  0  0  0  0  0  0  0  0  0
   39.6310   22.8950   36.4710 N   0  0  0  0  0  0  0  0  0  0  0  0
   40.6370   22.3310   38.2690 H   0  0  0  0  0  0  0  0  0  0  0  0
   38.9200   23.3920   39.7430 H   0  0  0  0  0  0  0  0  0  0  0  0
   36.9890   24.5280   38.7060 H   0  0  0  0  0  0  0  0  0  0  0  0
   39.0170   26.8930   31.5590 O   0  0  0  0  0  0  0  0  0  0  0  0
   37.4430   27.4020   33.1630 C   0  0  0  0  0  0  0  0  0  0  0  0
   38.7750   27.0620   32.9030 C   0  0  0  0  0  0  0  0  0  0  0  0
   39.6840   26.9300   33.9280 C   0  0  0  0  0  0  0  0  0  0  0  0
   40.6880   26.6670   33.6500 H   0  0  0  0  0  0  0  0  0  0  0  0
   39.2730   27.1340   35.2220 C   0  0  0  0  0  0  0  0  0  0  0  0
   39.9840   27.0320   36.0330 H   0  0  0  0  0  0  0  0  0  0  0  0
   37.9770   27.4640   35.4710 C   0  0  0  0  0  3  0  0  0  0  0  0
   37.0230   27.6100   34.4820 C   0  0  0  0  0  3  0  0  0  0  0  0
   36.7420   28.0930   30.7580 H   0  0  0  0  0  0  0  0  0  0  0  0
   36.2170   27.5920   31.9230 S   0  0  0  0  0  0  0  0  0  0  0  0
   35.5570   26.2860   31.6210 O   0  0  0  0  0  0  0  0  0  0  0  0
   35.1900   28.6020   32.4130 O   0  0  0  0  0  0  0  0  0  0  0  0
  2  1  2  6  0  0  0
  2 20  1  0  0  0  0
  2  5  1  0  0  0  0
  3  2  1  0  0  0  0
  4  3  1  0  0  0  0
  5  6  1  0  0  0  0
  6 10  1  0  0  0  0
  7  6  1  0  0  0  0
  8  6  1  0  0  0  0
  9 15  1  0  0  0  0
 10  9  2  0  0  0  0
 11 17  1  0  0  0  0
 11 12  1  0  0  0  0
 12 18  1  0  0  0  0
 13 12  2  0  0  0  0
 13 19  1  0  0  0  0
 14 13  1  0  0  0  0
 15 16  1  0  0  0  0
 15 14  2  0  0  0  0
 16 11  2  0  0  0  0
 20 22  1  0  0  0  0
 21 28  1  0  0  0  0
 22 21  2  0  0  0  0
 22 23  1  0  0  0  0
 23 25  2  0  0  0  0
 24 23  1  0  0  0  0
 25 27  1  0  0  0  0
 25 26  1  0  0  0  0
 28 27  2  0  0  0  0
 29 30  1  0  0  0  0
 30 32  2  0  0  0  0
 30 21  1  0  0  0  0
 31 30  2  0  0  0  0
M  END
>  <minimizedAffinity>
-4.86603451

$$$$

 OpenBabel03262520343D

 32 33  0  0  0  0  0  0  0  0999 V2000
   36.9390   28.4590   32.1660 O   0  0  0  0  0  0  0  0  0  0  0  0
   36.8960   27.2140   31.2850 P   0  0  2  0  0  0  0  0  0  0  0  0
   36.7120   27.6210   29.6460 O   0  0  0  0  0  0  0  0  0  0  0  0
   37.5560   27.4650   29.1620 H   0  0  0  0  0  0  0  0  0  0  0  0
   35.4950   26.3890   31.7870 O   0  0  0  0  0  0  0  0  0  0  0  0
   35.1710   25.4350   30.8080 C   0  0  0  0  0  0  0  0  0  0  0  0
   34.1150   25.6490   30.4970 H   0  0  0  0  0  0  0  0  0  0  0  0
   35.7910   25.4800   29.9160 H   0  0  0  0  0  0  0  0  0  0  0  0
   35.9680   23.0930   31.0000 C   0  0  0  0  0  3  0  0  0  0  0  0
   35.1910   24.0590   31.3780 C   0  0  0  0  0  3  0  0  0  0  0  0
   35.5400   20.5570   33.6090 C   0  0  0  0  0  0  0  0  0  0  0  0
   35.5830   19.3650   32.8760 C   0  0  0  0  0  0  0  0  0  0  0  0
   35.7620   19.4490   31.4850 C   0  0  0  0  0  0  0  0  0  0  0  0
   35.8780   20.7090   30.9550 N   0  0  0  0  0  0  0  0  0  0  0  0
   35.8300   21.8150   31.6890 C   0  0  0  0  0  0  0  0  0  0  0  0
   35.6610   21.7290   33.0160 N   0  0  0  0  0  0  0  0  0  0  0  0
   35.4000   20.3970   34.6660 H   0  0  0  0  0  0  0  0  0  0  0  0
   35.4990   18.3550   33.2300 H   0  0  0  0  0  0  0  0  0  0  0  0
   35.8150   18.6170   30.7950 H   0  0  0  0  0  0  0  0  0  0  0  0
   38.2810   26.2760   31.5110 O   0  0  0  0  0  0  0  0  0  0  0  0
   39.3930   26.1970   33.5280 C   0  0  0  0  0  0  0  0  0  0  0  0
   39.4180   26.6350   32.1980 C   0  0  0  0  0  0  0  0  0  0  0  0
   40.4940   27.3400   31.7060 C   0  0  0  0  0  0  0  0  0  0  0  0
   40.4400   27.6410   30.6760 H   0  0  0  0  0  0  0  0  0  0  0  0
   41.5540   27.6140   32.5340 C   0  0  0  0  0  0  0  0  0  0  0  0
   42.4020   28.1690   32.1520 H   0  0  0  0  0  0  0  0  0  0  0  0
   41.5260   27.1870   33.8250 C   0  0  0  0  0  3  0  0  0  0  0  0
   40.4740   26.4770   34.3720 C   0  0  0  0  0  3  0  0  0  0  0  0
   36.8470   25.7860   33.8520 H   0  0  0  0  0  0  0  0  0  0  0  0
   38.0680   25.2950   34.2400 S   0  0  0  0  0  0  0  0  0  0  0  0
   38.1400   23.8520   33.8590 O   0  0  0  0  0  0  0  0  0  0  0  0
   38.1430   25.4460   35.7520 O   0  0  0  0  0  0  0  0  0  0  0  0
  2 20  1  0  0  0  0
  2  5  1  0  0  0  0
  2  1  2  1  0  0  0
  3  2  1  0  0  0  0
  4  3  1  0  0  0  0
  6 10  1  0  0  0  0
  6  5  1  0  0  0  0
  7  6  1  0  0  0  0
  8  6  1  0  0  0  0
  9 10  2  0  0  0  0
  9 15  1  0  0  0  0
 11 17  1  0  0  0  0
 12 18  1  0  0  0  0
 12 11  2  0  0  0  0
 13 12  1  0  0  0  0
 14 13  2  0  0  0  0
 14 15  1  0  0  0  0
 15 16  2  0  0  0  0
 16 11  1  0  0  0  0
 19 13  1  0  0  0  0
 20 22  1  0  0  0  0
 21 30  1  0  0  0  0
 21 28  1  0  0  0  0
 22 21  2  0  0  0  0
 23 22  1  0  0  0  0
 23 25  2  0  0  0  0
 24 23  1  0  0  0  0
 25 27  1  0  0  0  0
 26 25  1  0  0  0  0
 27 28  2  0  0  0  0
 29 30  1  0  0  0  0
 30 32  2  0  0  0  0
 31 30  2  0  0  0  0
M  END
>  <minimizedAffinity>
-4.84868431

$$$$
