
 OpenBabel03272505023D

 32 34  0  0  0  0  0  0  0  0999 V2000
   37.0800   30.8600   46.4230 Cl  0  0  0  0  0  0  0  0  0  0  0  0
   38.0580   31.9800   47.3720 C   0  0  0  0  0  0  0  0  0  0  0  0
   37.9840   31.9040   48.7300 C   0  0  0  0  0  0  0  0  0  0  0  0
   38.7650   32.8290   49.4060 C   0  0  0  0  0  0  0  0  0  0  0  0
   39.5460   33.7440   48.7250 C   0  0  0  0  0  0  0  0  0  0  0  0
   39.5760   33.7670   47.3530 C   0  0  0  0  0  0  0  0  0  0  0  0
   38.8050   32.8540   46.6480 C   0  0  0  0  0  0  0  0  0  0  0  0
   38.7630   32.8370   50.4910 H   0  0  0  0  0  0  0  0  0  0  0  0
   40.1330   34.4390   49.3160 H   0  0  0  0  0  0  0  0  0  0  0  0
   40.1970   34.4940   46.8460 H   0  0  0  0  0  0  0  0  0  0  0  0
   37.7720   29.9070   50.2050 C   0  0  0  0  0  0  0  0  0  0  0  0
   37.1620   30.9410   49.4730 C   0  0  0  0  0  0  0  0  0  0  0  0
   35.7710   31.0560   49.4520 C   0  0  0  0  0  0  0  0  0  0  0  0
   35.0820   30.1200   50.1700 N   0  0  0  0  0  0  0  0  0  0  0  0
   35.6560   29.1430   50.8610 C   0  0  0  0  0  0  0  0  0  0  0  0
   36.9940   29.0320   50.8820 N   0  0  0  0  0  0  0  0  0  0  0  0
   38.8540   29.8950   50.1650 H   0  0  0  0  0  0  0  0  0  0  0  0
   35.3080   31.8490   48.8910 H   0  0  0  0  0  0  0  0  0  0  0  0
   35.0770   28.4170   51.4200 H   0  0  0  0  0  0  0  0  0  0  0  0
   38.8580   32.9040   45.2760 O   0  0  0  0  0  0  0  0  0  0  0  0
   38.6090   31.6960   43.3770 C   0  0  0  0  0  0  0  0  0  0  0  0
   39.4350   31.9440   44.4820 C   0  0  0  0  0  0  0  0  0  0  0  0
   40.6020   31.2230   44.5650 C   0  0  0  0  0  0  0  0  0  0  0  0
   41.1780   31.4840   45.4370 H   0  0  0  0  0  0  0  0  0  0  0  0
   40.9380   30.2970   43.6010 C   0  0  0  0  0  0  0  0  0  0  0  0
   41.8690   29.7820   43.7510 H   0  0  0  0  0  0  0  0  0  0  0  0
   40.1330   30.0510   42.5180 C   0  0  0  0  0  3  0  0  0  0  0  0
   38.9590   30.7580   42.4090 C   0  0  0  0  0  3  0  0  0  0  0  0
   36.7600   33.3410   44.0380 H   0  0  0  0  0  0  0  0  0  0  0  0
   37.0710   32.4780   43.0340 S   0  0  0  0  0  0  0  0  0  0  0  0
   35.9550   31.4780   42.9300 O   0  0  0  0  0  0  0  0  0  0  0  0
   37.1870   33.2040   41.7320 O   0  0  0  0  0  0  0  0  0  0  0  0
  1  2  1  0  0  0  0
  2  3  1  0  0  0  0
  3  4  2  0  0  0  0
  3 12  1  0  0  0  0
  4  8  1  0  0  0  0
  5  9  1  0  0  0  0
  5  4  1  0  0  0  0
  6  5  2  0  0  0  0
  7  6  1  0  0  0  0
  7  2  2  0  0  0  0
 10  6  1  0  0  0  0
 11 16  1  0  0  0  0
 12 11  2  0  0  0  0
 13 12  1  0  0  0  0
 13 14  2  0  0  0  0
 14 15  1  0  0  0  0
 15 16  2  0  0  0  0
 15 19  1  0  0  0  0
 17 11  1  0  0  0  0
 18 13  1  0  0  0  0
 20  7  1  0  0  0  0
 21 22  1  0  0  0  0
 22 23  2  0  0  0  0
 22 20  1  0  0  0  0
 23 24  1  0  0  0  0
 25 26  1  0  0  0  0
 25 23  1  0  0  0  0
 27 25  2  0  0  0  0
 28 27  1  0  0  0  0
 28 21  2  0  0  0  0
 30 21  1  0  0  0  0
 30 29  1  0  0  0  0
 31 30  2  0  0  0  0
 32 30  2  0  0  0  0
M  END
>  <minimizedAffinity>
-5.28655434

>  <minimizedRMSD>
1.67056835

$$$$
