
 OpenBabel03272504213D

 42 44  0  0  1  0  0  0  0  0999 V2000
   38.5120   31.9050   47.7240 C   0  0  2  0  0  0  0  0  0  0  0  0
   37.8260   30.8810   48.6020 C   0  0  1  0  0  0  0  0  0  0  0  0
   38.3680   31.3480   49.9590 C   0  0  0  0  0  0  0  0  0  0  0  0
   38.0960   32.7080   49.9020 O   0  0  0  0  0  0  0  0  0  0  0  0
   38.3960   33.1280   48.6300 C   0  0  0  0  0  0  0  0  0  0  0  0
   39.5520   31.6040   47.5710 H   0  0  0  0  0  0  0  0  0  0  0  0
   38.0830   29.8480   48.3790 H   0  0  0  0  0  0  0  0  0  0  0  0
   39.4460   31.1620   50.0280 H   0  0  0  0  0  0  0  0  0  0  0  0
   37.7790   30.8930   50.7790 H   0  0  0  0  0  0  0  0  0  0  0  0
   37.7390   33.9100   48.2150 H   0  0  0  0  0  0  0  0  0  0  0  0
   39.4140   33.5760   48.6700 H   0  0  0  0  0  0  0  0  0  0  0  0
   36.4660   31.1570   48.5470 O   0  0  0  0  0  0  0  0  0  0  0  0
   35.4020   29.3330   47.0270 O   0  0  0  0  0  0  0  0  0  0  0  0
   35.5260   29.7680   48.4620 P   0  0  1  0  0  0  0  0  0  0  0  0
   36.2890   28.5000   49.3320 O   0  0  0  0  0  0  0  0  0  0  0  0
   36.6510   28.9510   50.1450 H   0  0  0  0  0  0  0  0  0  0  0  0
   33.9940   30.0580   49.1310 O   0  0  0  0  0  0  0  0  0  0  0  0
   33.6330   28.9180   49.8260 C   0  0  0  0  0  0  0  0  0  0  0  0
   33.1070   29.2140   50.7760 H   0  0  0  0  0  0  0  0  0  0  0  0
   34.4950   28.2750   50.1130 H   0  0  0  0  0  0  0  0  0  0  0  0
   32.6740   28.0610   49.0920 C   0  0  0  0  0  0  0  0  0  0  0  0
   33.2000   27.2010   48.1590 C   0  0  0  0  0  0  0  0  0  0  0  0
   32.3450   26.3670   47.4350 C   0  0  0  0  0  0  0  0  0  0  0  0
   31.0120   26.4610   47.7050 N   0  0  0  0  0  0  0  0  0  0  0  0
   30.5170   27.3150   48.6260 C   0  0  0  0  0  0  0  0  0  0  0  0
   31.3510   28.1230   49.3280 N   0  0  0  0  0  0  0  0  0  0  0  0
   34.2240   27.0570   47.8810 H   0  0  0  0  0  0  0  0  0  0  0  0
   32.6790   25.6620   46.6850 H   0  0  0  0  0  0  0  0  0  0  0  0
   29.4420   27.3460   48.7970 H   0  0  0  0  0  0  0  0  0  0  0  0
   37.8030   32.0270   46.5570 O   0  0  0  0  0  0  0  0  0  0  0  0
   39.0320   31.8490   44.5740 C   0  0  0  0  0  0  0  0  0  0  0  0
   37.9790   31.4170   45.3520 C   0  0  0  0  0  0  0  0  0  0  0  0
   37.2030   30.4030   44.8260 C   0  0  0  0  0  0  0  0  0  0  0  0
   36.3700   30.0650   45.4480 H   0  0  0  0  0  0  0  0  0  0  0  0
   37.4350   29.8270   43.5990 C   0  0  0  0  0  0  0  0  0  0  0  0
   36.8270   29.0410   43.2010 H   0  0  0  0  0  0  0  0  0  0  0  0
   38.5010   30.3100   42.8830 C   0  0  0  0  0  3  0  0  0  0  0  0
   39.3350   31.3280   43.3320 C   0  0  0  0  0  3  0  0  0  0  0  0
   39.6150   33.6290   46.3480 H   0  0  0  0  0  0  0  0  0  0  0  0
   40.0860   33.1330   45.1380 S   0  0  0  0  0  0  0  0  0  0  0  0
   41.4390   32.5680   45.4190 O   0  0  0  0  0  0  0  0  0  0  0  0
   40.1980   34.2460   44.1670 O   0  0  0  0  0  0  0  0  0  0  0  0
  1  6  1  6  0  0  0
  1  2  1  0  0  0  0
  1  5  1  0  0  0  0
  2  7  1  6  0  0  0
  2  3  1  0  0  0  0
  3  8  1  0  0  0  0
  3  9  1  0  0  0  0
  4  3  1  0  0  0  0
  5 11  1  0  0  0  0
  5  4  1  0  0  0  0
 10  5  1  0  0  0  0
 12  2  1  0  0  0  0
 14 13  2  6  0  0  0
 14 12  1  0  0  0  0
 14 17  1  0  0  0  0
 14 15  1  0  0  0  0
 15 16  1  0  0  0  0
 17 18  1  0  0  0  0
 18 20  1  0  0  0  0
 18 19  1  0  0  0  0
 21 26  1  0  0  0  0
 21 18  1  0  0  0  0
 22 21  2  0  0  0  0
 23 24  2  0  0  0  0
 23 22  1  0  0  0  0
 24 25  1  0  0  0  0
 25 29  1  0  0  0  0
 25 26  2  0  0  0  0
 27 22  1  0  0  0  0
 28 23  1  0  0  0  0
 30  1  1  0  0  0  0
 31 40  1  0  0  0  0
 31 32  1  0  0  0  0
 32 30  1  0  0  0  0
 33 32  2  0  0  0  0
 33 34  1  0  0  0  0
 35 33  1  0  0  0  0
 36 35  1  0  0  0  0
 37 38  1  0  0  0  0
 37 35  2  0  0  0  0
 38 31  2  0  0  0  0
 40 41  2  0  0  0  0
 40 39  1  0  0  0  0
 42 40  2  0  0  0  0
M  END
>  <minimizedAffinity>
-4.63198423

>  <minimizedRMSD>
1.79359066

$$$$
