
 OpenBabel03262523213D

 44 47  0  0  1  0  0  0  0  0999 V2000
   38.4570   31.6210   44.5700 C   0  0  0  0  0  0  0  0  0  0  0  0
   39.5660   31.9400   43.7640 C   0  0  0  0  0  0  0  0  0  0  0  0
   40.7590   31.7540   44.4460 C   0  0  0  0  0  0  0  0  0  0  0  0
   40.8800   31.3050   45.7490 C   0  0  0  0  0  0  0  0  0  0  0  0
   39.7110   31.0080   46.4760 C   0  0  0  0  0  0  0  0  0  0  0  0
   38.4740   31.1690   45.8790 C   0  0  0  0  0  0  0  0  0  0  0  0
   41.7470   31.9880   44.1370 H   0  0  0  0  0  0  0  0  0  0  0  0
   41.7440   31.1340   46.3330 H   0  0  0  0  0  0  0  0  0  0  0  0
   39.7020   30.6530   47.4960 H   0  0  0  0  0  0  0  0  0  0  0  0
   40.2490   27.8980   42.0080 C   0  0  0  0  0  0  0  0  0  0  0  0
   39.0730   27.1660   41.8820 C   0  0  0  0  0  0  0  0  0  0  0  0
   37.8990   27.8460   41.6040 C   0  0  0  0  0  0  0  0  0  0  0  0
   37.9380   29.1950   41.4670 N   0  0  0  0  0  0  0  0  0  0  0  0
   39.0380   29.8900   41.5850 C   0  0  0  0  0  0  0  0  0  0  0  0
   40.1120   29.1940   41.8450 N   0  0  0  0  0  0  0  0  0  0  0  0
   39.0360   31.2900   41.4280 N   0  0  0  0  0  0  0  0  0  0  0  0
   38.5760   31.9430   40.1980 C   0  0  0  0  0  0  0  0  0  0  0  0
   38.6250   33.3810   40.4840 C   0  0  0  0  0  0  0  0  0  0  0  0
   38.7260   33.4670   42.0080 C   0  0  0  0  0  0  0  0  0  0  0  0
   39.5170   32.3060   42.3780 C   0  0  1  0  0  0  0  0  0  0  0  0
   41.1870   27.4270   42.2210 H   0  0  0  0  0  0  0  0  0  0  0  0
   39.0660   26.0880   41.9960 H   0  0  0  0  0  0  0  0  0  0  0  0
   36.9880   27.2560   41.5090 H   0  0  0  0  0  0  0  0  0  0  0  0
   39.2880   31.6890   39.3870 H   0  0  0  0  0  0  0  0  0  0  0  0
   37.5810   31.5300   39.9530 H   0  0  0  0  0  0  0  0  0  0  0  0
   37.7470   33.8940   40.0660 H   0  0  0  0  0  0  0  0  0  0  0  0
   39.4980   33.8560   39.9710 H   0  0  0  0  0  0  0  0  0  0  0  0
   39.1410   34.4420   42.1030 H   0  0  0  0  0  0  0  0  0  0  0  0
   37.6660   33.2300   42.1910 H   0  0  0  0  0  0  0  0  0  0  0  0
   40.5910   32.3400   42.0160 H   0  0  0  0  0  0  0  0  0  0  0  0
   37.0210   31.1690   47.9250 C   0  0  0  0  0  0  0  0  0  0  0  0
   37.2640   30.8660   46.6230 C   0  0  0  0  0  0  0  0  0  0  0  0
   36.3140   30.2080   45.8700 C   0  0  0  0  0  0  0  0  0  0  0  0
   36.4370   29.9310   44.8140 H   0  0  0  0  0  0  0  0  0  0  0  0
   35.0940   29.8310   46.3910 C   0  0  0  0  0  0  0  0  0  0  0  0
   34.3310   29.3060   45.7980 H   0  0  0  0  0  0  0  0  0  0  0  0
   34.8240   30.1270   47.7080 C   0  0  0  0  0  0  0  0  0  0  0  0
   35.8010   30.7910   48.4440 C   0  0  0  0  0  0  0  0  0  0  0  0
   39.3920   32.0560   48.0450 H   0  0  0  0  0  0  0  0  0  0  0  0
   38.2550   31.9950   48.8110 S   0  0  0  0  0  0  0  0  0  0  0  0
   37.8370   33.4330   49.0630 O   0  0  0  0  0  0  0  0  0  0  0  0
   38.5740   31.3390   50.1180 O   0  0  0  0  0  0  0  0  0  0  0  0
   36.1130   32.0800   43.6250 N   0  0  0  0  0  0  0  0  0  0  0  0
   37.1440   31.8770   44.0290 C   0  0  0  0  0  0  0  0  0  0  0  0
  1  6  1  0  0  0  0
  2  3  1  0  0  0  0
  2  1  2  0  0  0  0
  3  4  2  0  0  0  0
  4  8  1  0  0  0  0
  4  5  1  0  0  0  0
  5  9  1  0  0  0  0
  6  5  2  0  0  0  0
  6 32  1  0  0  0  0
  7  3  1  0  0  0  0
 10 21  1  0  0  0  0
 11 22  1  0  0  0  0
 11 10  1  0  0  0  0
 12 11  2  0  0  0  0
 13 14  2  0  0  0  0
 13 12  1  0  0  0  0
 14 15  1  0  0  0  0
 15 10  2  0  0  0  0
 16 14  1  0  0  0  0
 16 20  1  0  0  0  0
 17 18  1  0  0  0  0
 17 16  1  0  0  0  0
 18 19  1  0  0  0  0
 19 28  1  0  0  0  0
 19 29  1  0  0  0  0
 19 20  1  0  0  0  0
 20 30  1  6  0  0  0
 20  2  1  0  0  0  0
 23 12  1  0  0  0  0
 24 17  1  0  0  0  0
 25 17  1  0  0  0  0
 26 18  1  0  0  0  0
 27 18  1  0  0  0  0
 31 38  1  0  0  0  0
 31 40  1  0  0  0  0
 32 31  2  0  0  0  0
 33 35  2  0  0  0  0
 33 32  1  0  0  0  0
 34 33  1  0  0  0  0
 35 37  1  0  0  0  0
 36 35  1  0  0  0  0
 37 38  2  0  0  0  0
 39 40  1  0  0  0  0
 40 41  2  0  0  0  0
 40 42  2  0  0  0  0
 43 44  3  0  0  0  0
 44  1  1  0  0  0  0
M  END
>  <minimizedAffinity>
-6.03996706

>  <minimizedRMSD>
6.02026415

$$$$
