
 OpenBabel03272507583D

 35 37  0  0  0  0  0  0  0  0999 V2000
   34.5560   30.2140   47.6030 C   0  0  0  0  0  0  0  0  0  0  0  0
   34.4820   30.2620   48.9830 C   0  0  0  0  0  0  0  0  0  0  0  0
   35.6150   30.5740   49.7180 C   0  0  0  0  0  0  0  0  0  0  0  0
   36.8080   30.8330   49.0570 C   0  0  0  0  0  0  0  0  0  0  0  0
   36.8560   30.7790   47.6860 C   0  0  0  0  0  0  0  0  0  0  0  0
   35.7340   30.4730   47.0340 N   0  0  0  0  0  0  0  0  0  0  0  0
   33.5960   30.0790   49.5940 H   0  0  0  0  0  0  0  0  0  0  0  0
   35.5930   30.6210   50.8140 H   0  0  0  0  0  0  0  0  0  0  0  0
   37.6500   31.0660   49.6590 H   0  0  0  0  0  0  0  0  0  0  0  0
   31.4960   28.3070   46.5650 C   0  0  0  0  0  0  0  0  0  0  0  0
   32.7430   28.6080   47.1880 C   0  0  0  0  0  0  0  0  0  0  0  0
   33.2850   29.8720   46.9840 C   0  0  0  0  0  0  0  0  0  0  0  0
   32.6000   30.7570   46.2010 N   0  0  0  0  0  0  0  0  0  0  0  0
   31.4090   30.4200   45.6280 C   0  0  0  0  0  0  0  0  0  0  0  0
   30.8640   29.2190   45.8030 N   0  0  0  0  0  0  0  0  0  0  0  0
   30.8940   31.5000   44.8670 N   0  0  0  0  0  0  0  0  0  0  0  0
   31.0640   27.3220   46.7180 H   0  0  0  0  0  0  0  0  0  0  0  0
   30.7410   31.4880   43.8500 H   0  0  0  0  0  0  0  0  0  0  0  0
   30.6400   32.3930   45.3550 H   0  0  0  0  0  0  0  0  0  0  0  0
   33.3930   27.5570   48.0190 C   0  0  0  0  0  0  0  0  0  0  0  0
   34.7510   27.4940   47.7810 F   0  0  0  0  0  0  0  0  0  0  0  0
   33.2080   27.8900   49.3440 F   0  0  0  0  0  0  0  0  0  0  0  0
   32.8720   26.3040   47.8230 F   0  0  0  0  0  0  0  0  0  0  0  0
   38.9470   32.0360   47.3500 C   0  0  0  0  0  0  0  0  0  0  0  0
   38.0820   31.0410   46.9430 C   0  0  0  0  0  0  0  0  0  0  0  0
   38.4250   30.3180   45.8190 C   0  0  0  0  0  0  0  0  0  0  0  0
   37.8130   29.5310   45.4370 H   0  0  0  0  0  0  0  0  0  0  0  0
   39.5730   30.5410   45.0970 C   0  0  0  0  0  0  0  0  0  0  0  0
   39.8430   29.9710   44.2120 H   0  0  0  0  0  0  0  0  0  0  0  0
   40.4510   31.5220   45.4780 C   0  0  0  0  0  3  0  0  0  0  0  0
   40.1100   32.2470   46.6000 C   0  0  0  0  0  3  0  0  0  0  0  0
   37.3590   33.4990   48.7610 H   0  0  0  0  0  0  0  0  0  0  0  0
   38.6470   33.0310   48.7480 S   0  0  0  0  0  0  0  0  0  0  0  0
   39.5160   34.2770   48.6610 O   0  0  0  0  0  0  0  0  0  0  0  0
   39.0240   32.3610   50.0390 O   0  0  0  0  0  0  0  0  0  0  0  0
  1  2  1  0  0  0  0
  2  7  1  0  0  0  0
  2  3  2  0  0  0  0
  3  8  1  0  0  0  0
  4  9  1  0  0  0  0
  4  3  1  0  0  0  0
  5  4  2  0  0  0  0
  6  1  2  0  0  0  0
  6  5  1  0  0  0  0
 10 17  1  0  0  0  0
 10 11  1  0  0  0  0
 11 20  1  0  0  0  0
 12 11  2  0  0  0  0
 12  1  1  0  0  0  0
 13 12  1  0  0  0  0
 14 15  1  0  0  0  0
 14 13  2  0  0  0  0
 15 10  2  0  0  0  0
 16 19  1  0  0  0  0
 16 14  1  0  0  0  0
 18 16  1  0  0  0  0
 20 22  1  0  0  0  0
 21 20  1  0  0  0  0
 23 20  1  0  0  0  0
 24 33  1  0  0  0  0
 25 24  1  0  0  0  0
 25  5  1  0  0  0  0
 26 25  2  0  0  0  0
 27 26  1  0  0  0  0
 28 30  2  0  0  0  0
 28 26  1  0  0  0  0
 29 28  1  0  0  0  0
 30 31  1  0  0  0  0
 31 24  2  0  0  0  0
 33 32  1  0  0  0  0
 33 35  2  0  0  0  0
 34 33  2  0  0  0  0
M  END
>  <minimizedAffinity>
-6.41483116

>  <minimizedRMSD>
3.75998235

$$$$
