
 OpenBabel03272509573D

 49 52  0  0  0  0  0  0  0  0999 V2000
   33.6000   27.4990   47.7340 C   0  0  0  0  0  0  0  0  0  0  0  0
   33.7720   26.5750   48.3030 H   0  0  0  0  0  0  0  0  0  0  0  0
   33.8890   27.2610   46.6840 H   0  0  0  0  0  0  0  0  0  0  0  0
   32.1520   27.8680   47.7650 C   0  0  0  0  0  0  0  0  0  0  0  0
   31.4110   27.4330   48.8460 C   0  0  0  0  0  0  0  0  0  0  0  0
   30.0770   27.7280   48.9490 C   0  0  0  0  0  0  0  0  0  0  0  0
   29.4850   28.4370   48.0030 N   0  0  0  0  0  0  0  0  0  0  0  0
   30.2180   28.8680   46.9320 C   0  0  0  0  0  0  0  0  0  0  0  0
   31.5220   28.5830   46.8260 N   0  0  0  0  0  0  0  0  0  0  0  0
   31.8750   26.8580   49.6190 H   0  0  0  0  0  0  0  0  0  0  0  0
   29.4760   27.3920   49.7970 H   0  0  0  0  0  0  0  0  0  0  0  0
   29.5170   29.6660   45.8960 C   0  0  0  0  0  0  0  0  0  0  0  0
   28.5490   30.0100   46.3670 H   0  0  0  0  0  0  0  0  0  0  0  0
   30.0720   30.6340   45.7460 H   0  0  0  0  0  0  0  0  0  0  0  0
   28.0300   28.3930   44.3140 C   0  0  0  0  0  0  0  0  0  0  0  0
   29.2460   28.9420   44.6460 C   0  0  0  0  0  0  0  0  0  0  0  0
   30.2940   28.8050   43.7270 C   0  0  0  0  0  0  0  0  0  0  0  0
   31.2570   29.2310   43.9730 H   0  0  0  0  0  0  0  0  0  0  0  0
   30.1670   28.1520   42.5180 C   0  0  0  0  0  0  0  0  0  0  0  0
   31.0190   28.0750   41.8420 H   0  0  0  0  0  0  0  0  0  0  0  0
   28.9550   27.5970   42.1710 C   0  0  0  0  0  3  0  0  0  0  0  0
   27.9250   27.7360   43.0820 C   0  0  0  0  0  3  0  0  0  0  0  0
   26.3690   29.8240   45.6970 H   0  0  0  0  0  0  0  0  0  0  0  0
   26.6760   28.5110   45.3910 S   0  0  0  0  0  0  0  0  0  0  0  0
   26.7550   27.6300   46.5820 O   0  0  0  0  0  0  0  0  0  0  0  0
   25.4610   28.0250   44.6020 O   0  0  0  0  0  0  0  0  0  0  0  0
   34.4870   28.6320   48.1930 C   0  0  0  0  0  0  0  0  0  0  0  0
   35.2840   28.8670   47.4870 H   0  0  0  0  0  0  0  0  0  0  0  0
   33.8560   29.5410   48.3080 H   0  0  0  0  0  0  0  0  0  0  0  0
   35.0100   28.3690   49.4880 O   0  0  0  0  0  0  0  0  0  0  0  0
   37.3570   30.1840   51.5400 C   0  0  0  0  0  0  0  0  0  0  0  0
   38.0820   30.8740   50.5440 C   0  0  0  0  0  0  0  0  0  0  0  0
   37.7110   30.6660   49.2210 C   0  0  0  0  0  0  0  0  0  0  0  0
   36.6670   29.8040   49.0060 N   0  0  0  0  0  0  0  0  0  0  0  0
   35.9960   29.1620   49.9650 C   0  0  0  0  0  0  0  0  0  0  0  0
   36.3550   29.3630   51.2410 N   0  0  0  0  0  0  0  0  0  0  0  0
   37.6640   30.3620   52.5610 H   0  0  0  0  0  0  0  0  0  0  0  0
   38.9030   31.5520   50.7300 H   0  0  0  0  0  0  0  0  0  0  0  0
   38.9390   33.2880   49.0320 F   0  0  0  0  0  0  0  0  0  0  0  0
   38.9120   32.4990   47.9640 C   0  0  0  0  0  0  0  0  0  0  0  0
   38.3390   31.2870   48.0730 C   0  0  0  0  0  0  0  0  0  0  0  0
   38.3630   30.5310   46.8910 C   0  0  0  0  0  0  0  0  0  0  0  0
   38.9280   31.0070   45.7330 C   0  0  0  0  0  0  0  0  0  0  0  0
   39.5010   32.2450   45.6630 C   0  0  0  0  0  0  0  0  0  0  0  0
   39.4760   32.9720   46.8070 C   0  0  0  0  0  0  0  0  0  0  0  0
   37.9210   29.5310   46.8760 H   0  0  0  0  0  0  0  0  0  0  0  0
   38.9090   30.3630   44.8510 H   0  0  0  0  0  0  0  0  0  0  0  0
   39.9300   32.5650   44.7270 H   0  0  0  0  0  0  0  0  0  0  0  0
   39.9300   33.9760   46.7880 H   0  0  0  0  0  0  0  0  0  0  0  0
  1  4  1  0  0  0  0
  1 27  1  0  0  0  0
  1  2  1  0  0  0  0
  3  1  1  0  0  0  0
  4  5  1  0  0  0  0
  5  6  2  0  0  0  0
  5 10  1  0  0  0  0
  6 11  1  0  0  0  0
  7  6  1  0  0  0  0
  8  7  2  0  0  0  0
  9  8  1  0  0  0  0
  9  4  2  0  0  0  0
 12 13  1  0  0  0  0
 12  8  1  0  0  0  0
 14 12  1  0  0  0  0
 15 16  1  0  0  0  0
 15 24  1  0  0  0  0
 16 12  1  0  0  0  0
 17 18  1  0  0  0  0
 17 16  2  0  0  0  0
 19 17  1  0  0  0  0
 20 19  1  0  0  0  0
 21 19  2  0  0  0  0
 21 22  1  0  0  0  0
 22 15  2  0  0  0  0
 24 23  1  0  0  0  0
 24 25  2  0  0  0  0
 26 24  2  0  0  0  0
 27 29  1  0  0  0  0
 27 30  1  0  0  0  0
 28 27  1  0  0  0  0
 30 35  1  0  0  0  0
 31 37  1  0  0  0  0
 32 38  1  0  0  0  0
 32 31  2  0  0  0  0
 33 32  1  0  0  0  0
 34 33  2  0  0  0  0
 34 35  1  0  0  0  0
 35 36  2  0  0  0  0
 36 31  1  0  0  0  0
 40 41  1  0  0  0  0
 40 39  1  0  0  0  0
 41 33  1  0  0  0  0
 42 41  2  0  0  0  0
 43 42  1  0  0  0  0
 44 43  2  0  0  0  0
 44 45  1  0  0  0  0
 45 40  2  0  0  0  0
 46 42  1  0  0  0  0
 47 43  1  0  0  0  0
 48 44  1  0  0  0  0
 49 45  1  0  0  0  0
M  END
>  <minimizedAffinity>
-6.45982647

>  <minimizedRMSD>
0.605544269

$$$$
