
 OpenBabel03272507563D

 26 27  0  0  0  0  0  0  0  0999 V2000
   40.2490   22.5910   37.6530 C   0  0  0  0  0  0  0  0  0  0  0  0
   39.3190   23.5560   37.1640 C   0  0  0  0  0  0  0  0  0  0  0  0
   39.6340   24.2710   36.0120 C   0  0  0  0  0  0  0  0  0  0  0  0
   40.8400   23.9990   35.4120 N   0  0  0  0  0  0  0  0  0  0  0  0
   41.7050   23.0800   35.8950 C   0  0  0  0  0  0  0  0  0  0  0  0
   41.4200   22.3740   37.0090 N   0  0  0  0  0  0  0  0  0  0  0  0
   42.8890   22.9750   35.1250 N   0  0  0  0  0  0  0  0  0  0  0  0
   39.9930   22.0500   38.5420 H   0  0  0  0  0  0  0  0  0  0  0  0
   43.6980   23.4550   35.5740 H   0  0  0  0  0  0  0  0  0  0  0  0
   43.1220   22.5270   34.2310 H   0  0  0  0  0  0  0  0  0  0  0  0
   38.0420   25.0050   34.2670 C   0  0  0  0  0  0  0  0  0  0  0  0
   38.7550   25.2390   35.4220 C   0  0  0  0  0  0  0  0  0  0  0  0
   38.7060   26.4820   36.0180 C   0  0  0  0  0  0  0  0  0  0  0  0
   39.2330   26.8320   36.9210 H   0  0  0  0  0  0  0  0  0  0  0  0
   37.9420   27.5300   35.4780 C   0  0  0  0  0  0  0  0  0  0  0  0
   37.8820   28.5210   35.9120 H   0  0  0  0  0  0  0  0  0  0  0  0
   37.2520   27.2280   34.3210 C   0  0  0  0  0  3  0  0  0  0  0  0
   37.2550   26.0070   33.6710 C   0  0  0  0  0  3  0  0  0  0  0  0
   39.2470   23.0720   32.9960 H   0  0  0  0  0  0  0  0  0  0  0  0
   38.0050   23.4580   33.4600 S   0  0  0  0  0  0  0  0  0  0  0  0
   37.1110   23.5440   32.2360 O   0  0  0  0  0  0  0  0  0  0  0  0
   37.4740   22.3690   34.3130 O   0  0  0  0  0  0  0  0  0  0  0  0
   38.0370   23.7360   37.9070 C   0  0  0  0  0  0  0  0  0  0  0  0
   36.9560   23.6440   37.0730 F   0  0  0  0  0  0  0  0  0  0  0  0
   37.9600   22.7330   38.8690 F   0  0  0  0  0  0  0  0  0  0  0  0
   37.9560   24.9550   38.5630 F   0  0  0  0  0  0  0  0  0  0  0  0
  1  8  1  0  0  0  0
  2  1  1  0  0  0  0
  2 23  1  0  0  0  0
  3  2  2  0  0  0  0
  4  5  2  0  0  0  0
  4  3  1  0  0  0  0
  5  6  1  0  0  0  0
  6  1  2  0  0  0  0
  7  9  1  0  0  0  0
  7  5  1  0  0  0  0
 10  7  1  0  0  0  0
 11 12  1  0  0  0  0
 12  3  1  0  0  0  0
 12 13  2  0  0  0  0
 13 14  1  0  0  0  0
 15 16  1  0  0  0  0
 15 13  1  0  0  0  0
 17 15  2  0  0  0  0
 18 11  2  0  0  0  0
 18 17  1  0  0  0  0
 19 20  1  0  0  0  0
 20 11  1  0  0  0  0
 20 22  2  0  0  0  0
 21 20  2  0  0  0  0
 23 26  1  0  0  0  0
 23 25  1  0  0  0  0
 24 23  1  0  0  0  0
M  END
>  <minimizedAffinity>
-5.42332745

$$$$

 OpenBabel03272507563D

 26 27  0  0  0  0  0  0  0  0999 V2000
   37.1630   26.6510   33.6840 C   0  0  0  0  0  0  0  0  0  0  0  0
   38.1110   26.0700   34.5780 C   0  0  0  0  0  0  0  0  0  0  0  0
   38.5230   24.7570   34.3620 C   0  0  0  0  0  0  0  0  0  0  0  0
   37.9790   24.0960   33.2860 N   0  0  0  0  0  0  0  0  0  0  0  0
   37.0820   24.6700   32.4540 C   0  0  0  0  0  0  0  0  0  0  0  0
   36.6700   25.9400   32.6430 N   0  0  0  0  0  0  0  0  0  0  0  0
   36.6480   23.8000   31.4240 N   0  0  0  0  0  0  0  0  0  0  0  0
   36.8540   27.6620   33.8640 H   0  0  0  0  0  0  0  0  0  0  0  0
   35.6990   23.4100   31.6070 H   0  0  0  0  0  0  0  0  0  0  0  0
   37.0600   23.4780   30.5400 H   0  0  0  0  0  0  0  0  0  0  0  0
   39.1680   23.4270   36.3430 C   0  0  0  0  0  0  0  0  0  0  0  0
   39.4920   24.0920   35.1820 C   0  0  0  0  0  0  0  0  0  0  0  0
   40.8140   24.2130   34.8080 C   0  0  0  0  0  0  0  0  0  0  0  0
   41.2350   24.7320   33.9310 H   0  0  0  0  0  0  0  0  0  0  0  0
   41.8540   23.6710   35.5830 C   0  0  0  0  0  0  0  0  0  0  0  0
   42.9040   23.7490   35.3260 H   0  0  0  0  0  0  0  0  0  0  0  0
   41.4590   23.0170   36.7320 C   0  0  0  0  0  3  0  0  0  0  0  0
   40.1550   22.8580   37.1680 C   0  0  0  0  0  3  0  0  0  0  0  0
   36.7050   24.2520   36.5800 H   0  0  0  0  0  0  0  0  0  0  0  0
   37.5260   23.1840   36.8830 S   0  0  0  0  0  0  0  0  0  0  0  0
   37.5000   23.0560   38.3950 O   0  0  0  0  0  0  0  0  0  0  0  0
   36.9060   21.9570   36.3300 O   0  0  0  0  0  0  0  0  0  0  0  0
   38.6310   26.9110   35.6960 C   0  0  0  0  0  0  0  0  0  0  0  0
   39.9830   27.0980   35.5950 F   0  0  0  0  0  0  0  0  0  0  0  0
   37.9920   28.1460   35.6310 F   0  0  0  0  0  0  0  0  0  0  0  0
   38.3750   26.3700   36.9470 F   0  0  0  0  0  0  0  0  0  0  0  0
  1  8  1  0  0  0  0
  1  2  1  0  0  0  0
  2 23  1  0  0  0  0
  3  2  2  0  0  0  0
  3 12  1  0  0  0  0
  4  3  1  0  0  0  0
  5  6  1  0  0  0  0
  5  4  2  0  0  0  0
  6  1  2  0  0  0  0
  7  9  1  0  0  0  0
  7  5  1  0  0  0  0
 10  7  1  0  0  0  0
 11 20  1  0  0  0  0
 11 18  1  0  0  0  0
 12 11  2  0  0  0  0
 13 12  1  0  0  0  0
 13 15  2  0  0  0  0
 14 13  1  0  0  0  0
 15 17  1  0  0  0  0
 16 15  1  0  0  0  0
 17 18  2  0  0  0  0
 19 20  1  0  0  0  0
 20 21  2  0  0  0  0
 22 20  2  0  0  0  0
 23 26  1  0  0  0  0
 24 23  1  0  0  0  0
 25 23  1  0  0  0  0
M  END
>  <minimizedAffinity>
-5.42269421

$$$$

 OpenBabel03272507563D

 26 27  0  0  0  0  0  0  0  0999 V2000
   38.9480   26.0750   32.6080 C   0  0  0  0  0  0  0  0  0  0  0  0
   39.1980   25.7490   33.9740 C   0  0  0  0  0  0  0  0  0  0  0  0
   38.5840   24.6250   34.5210 C   0  0  0  0  0  0  0  0  0  0  0  0
   37.7630   23.8930   33.6970 N   0  0  0  0  0  0  0  0  0  0  0  0
   37.5420   24.2240   32.4050 C   0  0  0  0  0  0  0  0  0  0  0  0
   38.1270   25.3070   31.8540 N   0  0  0  0  0  0  0  0  0  0  0  0
   36.6520   23.3360   31.7510 N   0  0  0  0  0  0  0  0  0  0  0  0
   39.4260   26.9440   32.2020 H   0  0  0  0  0  0  0  0  0  0  0  0
   35.6960   23.7370   31.6490 H   0  0  0  0  0  0  0  0  0  0  0  0
   36.7480   22.3940   31.3540 H   0  0  0  0  0  0  0  0  0  0  0  0
   39.7510   23.2710   36.2290 C   0  0  0  0  0  0  0  0  0  0  0  0
   38.7940   24.1940   35.8720 C   0  0  0  0  0  0  0  0  0  0  0  0
   37.9250   24.6850   36.8250 C   0  0  0  0  0  0  0  0  0  0  0  0
   37.0980   25.4010   36.6960 H   0  0  0  0  0  0  0  0  0  0  0  0
   37.9880   24.2670   38.1660 C   0  0  0  0  0  0  0  0  0  0  0  0
   37.3200   24.6240   38.9420 H   0  0  0  0  0  0  0  0  0  0  0  0
   38.9690   23.3410   38.4550 C   0  0  0  0  0  3  0  0  0  0  0  0
   39.8720   22.8080   37.5520 C   0  0  0  0  0  3  0  0  0  0  0  0
   41.4930   23.5960   34.3160 H   0  0  0  0  0  0  0  0  0  0  0  0
   40.9210   22.6210   35.1090 S   0  0  0  0  0  0  0  0  0  0  0  0
   40.2360   21.6590   34.1560 O   0  0  0  0  0  0  0  0  0  0  0  0
   42.0120   21.8720   35.7760 O   0  0  0  0  0  0  0  0  0  0  0  0
   40.1270   26.6250   34.7480 C   0  0  0  0  0  0  0  0  0  0  0  0
   41.2030   25.9230   35.2180 F   0  0  0  0  0  0  0  0  0  0  0  0
   40.5730   27.6290   33.8940 F   0  0  0  0  0  0  0  0  0  0  0  0
   39.5190   27.2360   35.8340 F   0  0  0  0  0  0  0  0  0  0  0  0
  1  2  1  0  0  0  0
  2  3  2  0  0  0  0
  2 23  1  0  0  0  0
  3 12  1  0  0  0  0
  4  3  1  0  0  0  0
  5  4  2  0  0  0  0
  6  5  1  0  0  0  0
  6  1  2  0  0  0  0
  7  5  1  0  0  0  0
  8  1  1  0  0  0  0
  9  7  1  0  0  0  0
 10  7  1  0  0  0  0
 11 18  1  0  0  0  0
 12 11  2  0  0  0  0
 12 13  1  0  0  0  0
 13 15  2  0  0  0  0
 14 13  1  0  0  0  0
 15 17  1  0  0  0  0
 15 16  1  0  0  0  0
 18 17  2  0  0  0  0
 19 20  1  0  0  0  0
 20 22  2  0  0  0  0
 20 11  1  0  0  0  0
 21 20  2  0  0  0  0
 23 24  1  0  0  0  0
 23 26  1  0  0  0  0
 25 23  1  0  0  0  0
M  END
>  <minimizedAffinity>
-5.18070269

$$$$

 OpenBabel03272507563D

 26 27  0  0  0  0  0  0  0  0999 V2000
   37.2260   26.6390   33.6010 C   0  0  0  0  0  0  0  0  0  0  0  0
   38.0530   26.0930   34.6280 C   0  0  0  0  0  0  0  0  0  0  0  0
   38.3730   24.7390   34.5860 C   0  0  0  0  0  0  0  0  0  0  0  0
   37.8630   24.0040   33.5420 N   0  0  0  0  0  0  0  0  0  0  0  0
   37.0820   24.5450   32.5810 C   0  0  0  0  0  0  0  0  0  0  0  0
   36.7600   25.8550   32.6010 N   0  0  0  0  0  0  0  0  0  0  0  0
   36.6600   23.6010   31.6140 N   0  0  0  0  0  0  0  0  0  0  0  0
   36.9880   27.6830   33.6490 H   0  0  0  0  0  0  0  0  0  0  0  0
   35.6710   23.3030   31.7540 H   0  0  0  0  0  0  0  0  0  0  0  0
   37.1120   23.1550   30.8070 H   0  0  0  0  0  0  0  0  0  0  0  0
   40.5690   23.9060   35.3590 C   0  0  0  0  0  0  0  0  0  0  0  0
   39.2190   24.1010   35.5510 C   0  0  0  0  0  0  0  0  0  0  0  0
   38.6080   23.5950   36.6800 C   0  0  0  0  0  0  0  0  0  0  0  0
   37.5440   23.6430   36.9640 H   0  0  0  0  0  0  0  0  0  0  0  0
   39.3280   22.8800   37.6520 C   0  0  0  0  0  0  0  0  0  0  0  0
   38.8840   22.4620   38.5480 H   0  0  0  0  0  0  0  0  0  0  0  0
   40.6750   22.7220   37.3970 C   0  0  0  0  0  3  0  0  0  0  0  0
   41.3520   23.2010   36.2900 C   0  0  0  0  0  3  0  0  0  0  0  0
   40.8390   25.6570   33.4440 H   0  0  0  0  0  0  0  0  0  0  0  0
   41.4430   24.5400   33.9880 S   0  0  0  0  0  0  0  0  0  0  0  0
   41.4730   23.5030   32.8790 O   0  0  0  0  0  0  0  0  0  0  0  0
   42.8490   24.8850   34.3010 O   0  0  0  0  0  0  0  0  0  0  0  0
   38.5510   27.0130   35.6930 C   0  0  0  0  0  0  0  0  0  0  0  0
   39.9050   27.1940   35.6070 F   0  0  0  0  0  0  0  0  0  0  0  0
   37.9140   28.2390   35.5270 F   0  0  0  0  0  0  0  0  0  0  0  0
   38.2700   26.5630   36.9750 F   0  0  0  0  0  0  0  0  0  0  0  0
  1  8  1  0  0  0  0
  1  2  1  0  0  0  0
  2 23  1  0  0  0  0
  3  2  2  0  0  0  0
  3 12  1  0  0  0  0
  4  3  1  0  0  0  0
  5  6  1  0  0  0  0
  5  4  2  0  0  0  0
  6  1  2  0  0  0  0
  7  9  1  0  0  0  0
  7  5  1  0  0  0  0
 10  7  1  0  0  0  0
 11 12  2  0  0  0  0
 11 18  1  0  0  0  0
 12 13  1  0  0  0  0
 13 14  1  0  0  0  0
 13 15  2  0  0  0  0
 15 16  1  0  0  0  0
 17 15  1  0  0  0  0
 18 17  2  0  0  0  0
 19 20  1  0  0  0  0
 20 22  2  0  0  0  0
 20 11  1  0  0  0  0
 21 20  2  0  0  0  0
 23 26  1  0  0  0  0
 24 23  1  0  0  0  0
 25 23  1  0  0  0  0
M  END
>  <minimizedAffinity>
-5.14948511

$$$$

 OpenBabel03272507563D

 26 27  0  0  0  0  0  0  0  0999 V2000
   37.0100   21.9230   36.3670 C   0  0  0  0  0  0  0  0  0  0  0  0
   37.9710   22.9770   36.3760 C   0  0  0  0  0  0  0  0  0  0  0  0
   38.5050   23.4110   35.1660 C   0  0  0  0  0  0  0  0  0  0  0  0
   38.0650   22.7850   34.0230 N   0  0  0  0  0  0  0  0  0  0  0  0
   37.1530   21.7880   34.0420 C   0  0  0  0  0  0  0  0  0  0  0  0
   36.6210   21.3520   35.2030 N   0  0  0  0  0  0  0  0  0  0  0  0
   36.8590   21.2830   32.7520 N   0  0  0  0  0  0  0  0  0  0  0  0
   36.6090   21.5980   37.3070 H   0  0  0  0  0  0  0  0  0  0  0  0
   37.3290   20.3720   32.5650 H   0  0  0  0  0  0  0  0  0  0  0  0
   36.2820   21.6140   31.9700 H   0  0  0  0  0  0  0  0  0  0  0  0
   39.0910   25.7860   34.8090 C   0  0  0  0  0  0  0  0  0  0  0  0
   39.4530   24.4820   35.0630 C   0  0  0  0  0  0  0  0  0  0  0  0
   40.7870   24.1440   35.1460 C   0  0  0  0  0  0  0  0  0  0  0  0
   41.2350   23.1510   35.3150 H   0  0  0  0  0  0  0  0  0  0  0  0
   41.8030   25.1010   34.9780 C   0  0  0  0  0  0  0  0  0  0  0  0
   42.8620   24.8750   35.0290 H   0  0  0  0  0  0  0  0  0  0  0  0
   41.3720   26.3880   34.7270 C   0  0  0  0  0  3  0  0  0  0  0  0
   40.0530   26.7970   34.6310 C   0  0  0  0  0  3  0  0  0  0  0  0
   36.5960   25.5850   35.5400 H   0  0  0  0  0  0  0  0  0  0  0  0
   37.4330   26.3230   34.7270 S   0  0  0  0  0  0  0  0  0  0  0  0
   36.9070   26.1410   33.3150 O   0  0  0  0  0  0  0  0  0  0  0  0
   37.2650   27.7540   35.0740 O   0  0  0  0  0  0  0  0  0  0  0  0
   38.3440   23.5780   37.6910 C   0  0  0  0  0  0  0  0  0  0  0  0
   38.1560   24.9330   37.6940 F   0  0  0  0  0  0  0  0  0  0  0  0
   37.5360   23.0010   38.6660 F   0  0  0  0  0  0  0  0  0  0  0  0
   39.6640   23.3380   38.0420 F   0  0  0  0  0  0  0  0  0  0  0  0
  1  2  1  0  0  0  0
  1  8  1  0  0  0  0
  2 23  1  0  0  0  0
  3  2  2  0  0  0  0
  4  5  2  0  0  0  0
  4  3  1  0  0  0  0
  5  6  1  0  0  0  0
  6  1  2  0  0  0  0
  7  5  1  0  0  0  0
  9  7  1  0  0  0  0
 10  7  1  0  0  0  0
 11 12  1  0  0  0  0
 12 13  2  0  0  0  0
 12  3  1  0  0  0  0
 13 14  1  0  0  0  0
 15 16  1  0  0  0  0
 15 13  1  0  0  0  0
 17 15  2  0  0  0  0
 18 17  1  0  0  0  0
 18 11  2  0  0  0  0
 20 11  1  0  0  0  0
 20 22  2  0  0  0  0
 20 19  1  0  0  0  0
 21 20  2  0  0  0  0
 23 24  1  0  0  0  0
 23 26  1  0  0  0  0
 23 25  1  0  0  0  0
M  END
>  <minimizedAffinity>
-5.0373683

$$$$

 OpenBabel03272507563D

 26 27  0  0  0  0  0  0  0  0999 V2000
   42.2700   23.8590   35.4560 C   0  0  0  0  0  0  0  0  0  0  0  0
   41.2730   24.7620   34.9800 C   0  0  0  0  0  0  0  0  0  0  0  0
   39.9750   24.6510   35.4700 C   0  0  0  0  0  0  0  0  0  0  0  0
   39.7330   23.6620   36.3940 N   0  0  0  0  0  0  0  0  0  0  0  0
   40.6950   22.8180   36.8280 C   0  0  0  0  0  0  0  0  0  0  0  0
   41.9600   22.9090   36.3690 N   0  0  0  0  0  0  0  0  0  0  0  0
   40.2180   21.8720   37.7680 N   0  0  0  0  0  0  0  0  0  0  0  0
   43.2640   23.9560   35.0680 H   0  0  0  0  0  0  0  0  0  0  0  0
   40.0770   20.9300   37.3460 H   0  0  0  0  0  0  0  0  0  0  0  0
   39.9890   21.9120   38.7680 H   0  0  0  0  0  0  0  0  0  0  0  0
   38.1030   25.2940   33.9880 C   0  0  0  0  0  0  0  0  0  0  0  0
   38.9090   25.5280   35.0790 C   0  0  0  0  0  0  0  0  0  0  0  0
   38.7640   26.6930   35.8020 C   0  0  0  0  0  0  0  0  0  0  0  0
   39.3420   27.0360   36.6750 H   0  0  0  0  0  0  0  0  0  0  0  0
   37.8060   27.6620   35.4570 C   0  0  0  0  0  0  0  0  0  0  0  0
   37.6640   28.5920   35.9950 H   0  0  0  0  0  0  0  0  0  0  0  0
   37.0310   27.3650   34.3540 C   0  0  0  0  0  3  0  0  0  0  0  0
   37.1220   26.2180   33.5850 C   0  0  0  0  0  3  0  0  0  0  0  0
   39.4570   23.5580   32.5890 H   0  0  0  0  0  0  0  0  0  0  0  0
   38.1790   23.8350   33.0340 S   0  0  0  0  0  0  0  0  0  0  0  0
   37.3310   23.9970   31.7860 O   0  0  0  0  0  0  0  0  0  0  0  0
   37.6740   22.6410   33.7520 O   0  0  0  0  0  0  0  0  0  0  0  0
   41.6810   25.8010   33.9880 C   0  0  0  0  0  0  0  0  0  0  0  0
   41.5030   27.0640   34.4820 F   0  0  0  0  0  0  0  0  0  0  0  0
   43.0290   25.6070   33.7010 F   0  0  0  0  0  0  0  0  0  0  0  0
   40.9810   25.7160   32.7940 F   0  0  0  0  0  0  0  0  0  0  0  0
  1  6  1  0  0  0  0
  2  1  2  0  0  0  0
  2  3  1  0  0  0  0
  3  4  2  0  0  0  0
  4  5  1  0  0  0  0
  5  7  1  0  0  0  0
  6  5  2  0  0  0  0
  7 10  1  0  0  0  0
  8  1  1  0  0  0  0
  9  7  1  0  0  0  0
 11 12  1  0  0  0  0
 12  3  1  0  0  0  0
 12 13  2  0  0  0  0
 13 14  1  0  0  0  0
 15 13  1  0  0  0  0
 15 16  1  0  0  0  0
 17 15  2  0  0  0  0
 18 11  2  0  0  0  0
 18 17  1  0  0  0  0
 19 20  1  0  0  0  0
 20 22  2  0  0  0  0
 20 11  1  0  0  0  0
 21 20  2  0  0  0  0
 23 24  1  0  0  0  0
 23  2  1  0  0  0  0
 25 23  1  0  0  0  0
 26 23  1  0  0  0  0
M  END
>  <minimizedAffinity>
-4.90056038

$$$$

 OpenBabel03272507563D

 26 27  0  0  0  0  0  0  0  0999 V2000
   40.4470   23.8110   35.6670 C   0  0  0  0  0  0  0  0  0  0  0  0
   39.8160   24.9180   35.0250 C   0  0  0  0  0  0  0  0  0  0  0  0
   38.4450   24.8680   34.7900 C   0  0  0  0  0  0  0  0  0  0  0  0
   37.7770   23.7370   35.1970 N   0  0  0  0  0  0  0  0  0  0  0  0
   38.3980   22.7010   35.8030 C   0  0  0  0  0  0  0  0  0  0  0  0
   39.7260   22.7280   36.0420 N   0  0  0  0  0  0  0  0  0  0  0  0
   37.5180   21.6380   36.1220 N   0  0  0  0  0  0  0  0  0  0  0  0
   41.5030   23.8640   35.8400 H   0  0  0  0  0  0  0  0  0  0  0  0
   37.6020   20.8400   35.4580 H   0  0  0  0  0  0  0  0  0  0  0  0
   36.8260   21.4830   36.8650 H   0  0  0  0  0  0  0  0  0  0  0  0
   37.5170   26.0400   32.8210 C   0  0  0  0  0  0  0  0  0  0  0  0
   37.7120   25.9390   34.1800 C   0  0  0  0  0  0  0  0  0  0  0  0
   37.2640   26.9420   35.0130 C   0  0  0  0  0  0  0  0  0  0  0  0
   37.3650   27.0210   36.1080 H   0  0  0  0  0  0  0  0  0  0  0  0
   36.6060   28.0790   34.5130 C   0  0  0  0  0  0  0  0  0  0  0  0
   36.2450   28.8910   35.1340 H   0  0  0  0  0  0  0  0  0  0  0  0
   36.4430   28.1170   33.1440 C   0  0  0  0  0  3  0  0  0  0  0  0
   36.8660   27.1480   32.2500 C   0  0  0  0  0  3  0  0  0  0  0  0
   38.6040   23.7260   32.3040 H   0  0  0  0  0  0  0  0  0  0  0  0
   38.0070   24.8080   31.6870 S   0  0  0  0  0  0  0  0  0  0  0  0
   39.0500   25.3720   30.7390 O   0  0  0  0  0  0  0  0  0  0  0  0
   36.8900   24.3030   30.8550 O   0  0  0  0  0  0  0  0  0  0  0  0
   40.6620   26.0900   34.6520 C   0  0  0  0  0  0  0  0  0  0  0  0
   40.6000   26.3460   33.3100 F   0  0  0  0  0  0  0  0  0  0  0  0
   40.1880   27.1960   35.3520 F   0  0  0  0  0  0  0  0  0  0  0  0
   41.9980   25.9230   34.9860 F   0  0  0  0  0  0  0  0  0  0  0  0
  1  8  1  0  0  0  0
  1  6  1  0  0  0  0
  2  1  2  0  0  0  0
  3  2  1  0  0  0  0
  3  4  2  0  0  0  0
  4  5  1  0  0  0  0
  5  6  2  0  0  0  0
  5  7  1  0  0  0  0
  7 10  1  0  0  0  0
  9  7  1  0  0  0  0
 11 12  1  0  0  0  0
 12  3  1  0  0  0  0
 12 13  2  0  0  0  0
 13 14  1  0  0  0  0
 15 13  1  0  0  0  0
 15 16  1  0  0  0  0
 17 15  2  0  0  0  0
 18 11  2  0  0  0  0
 18 17  1  0  0  0  0
 20 19  1  0  0  0  0
 20 11  1  0  0  0  0
 21 20  2  0  0  0  0
 22 20  2  0  0  0  0
 23 26  1  0  0  0  0
 23  2  1  0  0  0  0
 23 25  1  0  0  0  0
 24 23  1  0  0  0  0
M  END
>  <minimizedAffinity>
-4.87457228

$$$$

 OpenBabel03272507563D

 26 27  0  0  0  0  0  0  0  0999 V2000
   35.5400   20.6170   34.2060 C   0  0  0  0  0  0  0  0  0  0  0  0
   36.1140   21.0760   32.9820 C   0  0  0  0  0  0  0  0  0  0  0  0
   37.2550   21.8710   33.0300 C   0  0  0  0  0  0  0  0  0  0  0  0
   37.7630   22.1690   34.2720 N   0  0  0  0  0  0  0  0  0  0  0  0
   37.2000   21.7230   35.4170 C   0  0  0  0  0  0  0  0  0  0  0  0
   36.0950   20.9500   35.3950 N   0  0  0  0  0  0  0  0  0  0  0  0
   37.8830   22.1640   36.5780 N   0  0  0  0  0  0  0  0  0  0  0  0
   34.6600   20.0080   34.1520 H   0  0  0  0  0  0  0  0  0  0  0  0
   37.3890   22.9470   37.0550 H   0  0  0  0  0  0  0  0  0  0  0  0
   38.7490   21.8770   37.0490 H   0  0  0  0  0  0  0  0  0  0  0  0
   37.6310   23.5650   31.2690 C   0  0  0  0  0  0  0  0  0  0  0  0
   37.9250   22.3560   31.8590 C   0  0  0  0  0  0  0  0  0  0  0  0
   38.8450   21.5130   31.2720 C   0  0  0  0  0  0  0  0  0  0  0  0
   39.1670   20.5120   31.6020 H   0  0  0  0  0  0  0  0  0  0  0  0
   39.5000   21.8520   30.0760 C   0  0  0  0  0  0  0  0  0  0  0  0
   40.2240   21.2150   29.5810 H   0  0  0  0  0  0  0  0  0  0  0  0
   39.1600   23.0770   29.5380 C   0  0  0  0  0  3  0  0  0  0  0  0
   38.2480   23.9710   30.0720 C   0  0  0  0  0  3  0  0  0  0  0  0
   35.6590   24.1480   32.8740 H   0  0  0  0  0  0  0  0  0  0  0  0
   36.5150   24.7190   31.9520 S   0  0  0  0  0  0  0  0  0  0  0  0
   35.6290   25.2830   30.8560 O   0  0  0  0  0  0  0  0  0  0  0  0
   37.1890   25.8680   32.6020 O   0  0  0  0  0  0  0  0  0  0  0  0
   35.4660   20.6590   31.7030 C   0  0  0  0  0  0  0  0  0  0  0  0
   36.2540   19.7880   31.0020 F   0  0  0  0  0  0  0  0  0  0  0  0
   34.2630   20.0350   32.0200 F   0  0  0  0  0  0  0  0  0  0  0  0
   35.1780   21.7280   30.8670 F   0  0  0  0  0  0  0  0  0  0  0  0
  1  6  1  0  0  0  0
  2  3  1  0  0  0  0
  2  1  2  0  0  0  0
  3  4  2  0  0  0  0
  4  5  1  0  0  0  0
  5  7  1  0  0  0  0
  6  5  2  0  0  0  0
  7 10  1  0  0  0  0
  7  9  1  0  0  0  0
  8  1  1  0  0  0  0
 11 12  1  0  0  0  0
 11 20  1  0  0  0  0
 12  3  1  0  0  0  0
 13 14  1  0  0  0  0
 13 12  2  0  0  0  0
 15 13  1  0  0  0  0
 16 15  1  0  0  0  0
 17 18  1  0  0  0  0
 17 15  2  0  0  0  0
 18 11  2  0  0  0  0
 20 22  2  0  0  0  0
 20 19  1  0  0  0  0
 21 20  2  0  0  0  0
 23 25  1  0  0  0  0
 23  2  1  0  0  0  0
 24 23  1  0  0  0  0
 26 23  1  0  0  0  0
M  END
>  <minimizedAffinity>
-4.79109859

$$$$

 OpenBabel03272507563D

 26 27  0  0  0  0  0  0  0  0999 V2000
   35.4220   26.1150   31.1880 C   0  0  0  0  0  0  0  0  0  0  0  0
   36.6050   26.6690   31.7620 C   0  0  0  0  0  0  0  0  0  0  0  0
   37.6510   25.8160   32.1030 C   0  0  0  0  0  0  0  0  0  0  0  0
   37.4730   24.4740   31.8610 N   0  0  0  0  0  0  0  0  0  0  0  0
   36.3420   23.9740   31.3150 C   0  0  0  0  0  0  0  0  0  0  0  0
   35.3160   24.7820   30.9770 N   0  0  0  0  0  0  0  0  0  0  0  0
   36.3740   22.5650   31.1700 N   0  0  0  0  0  0  0  0  0  0  0  0
   34.6250   26.7840   30.9330 H   0  0  0  0  0  0  0  0  0  0  0  0
   35.8160   22.0780   31.9020 H   0  0  0  0  0  0  0  0  0  0  0  0
   36.8200   21.9270   30.5010 H   0  0  0  0  0  0  0  0  0  0  0  0
   39.1040   26.4230   34.0090 C   0  0  0  0  0  0  0  0  0  0  0  0
   38.8910   26.2750   32.6560 C   0  0  0  0  0  0  0  0  0  0  0  0
   39.8700   26.6560   31.7630 C   0  0  0  0  0  0  0  0  0  0  0  0
   39.8430   26.6270   30.6610 H   0  0  0  0  0  0  0  0  0  0  0  0
   41.0930   27.1970   32.1940 C   0  0  0  0  0  0  0  0  0  0  0  0
   41.8840   27.5150   31.5240 H   0  0  0  0  0  0  0  0  0  0  0  0
   41.2420   27.3180   33.5610 C   0  0  0  0  0  3  0  0  0  0  0  0
   40.3050   26.9560   34.5120 C   0  0  0  0  0  3  0  0  0  0  0  0
   36.6540   26.2870   34.8930 H   0  0  0  0  0  0  0  0  0  0  0  0
   37.9480   25.9330   35.2210 S   0  0  0  0  0  0  0  0  0  0  0  0
   38.2520   26.6380   36.5300 O   0  0  0  0  0  0  0  0  0  0  0  0
   37.9710   24.4770   35.4940 O   0  0  0  0  0  0  0  0  0  0  0  0
   36.6680   28.1480   31.9530 C   0  0  0  0  0  0  0  0  0  0  0  0
   37.6930   28.7030   31.2360 F   0  0  0  0  0  0  0  0  0  0  0  0
   35.4600   28.6840   31.5140 F   0  0  0  0  0  0  0  0  0  0  0  0
   36.8350   28.5190   33.2780 F   0  0  0  0  0  0  0  0  0  0  0  0
  1  2  1  0  0  0  0
  2 23  1  0  0  0  0
  2  3  2  0  0  0  0
  3 12  1  0  0  0  0
  4  3  1  0  0  0  0
  5  4  2  0  0  0  0
  6  1  2  0  0  0  0
  6  5  1  0  0  0  0
  7  5  1  0  0  0  0
  7  9  1  0  0  0  0
  8  1  1  0  0  0  0
 10  7  1  0  0  0  0
 11 18  1  0  0  0  0
 11 20  1  0  0  0  0
 12 11  2  0  0  0  0
 13 15  2  0  0  0  0
 13 12  1  0  0  0  0
 14 13  1  0  0  0  0
 15 17  1  0  0  0  0
 16 15  1  0  0  0  0
 17 18  2  0  0  0  0
 19 20  1  0  0  0  0
 20 22  2  0  0  0  0
 20 21  2  0  0  0  0
 23 26  1  0  0  0  0
 24 23  1  0  0  0  0
 25 23  1  0  0  0  0
M  END
>  <minimizedAffinity>
-4.77086878

$$$$
