
 OpenBabel03272506253D

 34 36  0  0  0  0  0  0  0  0999 V2000
   40.5390   23.6830   35.4050 C   0  0  0  0  0  0  0  0  0  0  0  0
   41.6310   22.9720   35.8280 C   0  0  0  0  0  0  0  0  0  0  0  0
   42.9150   23.4580   35.9220 C   0  0  0  0  0  0  0  0  0  0  0  0
   43.1330   24.8100   35.5500 C   0  0  0  0  0  0  0  0  0  0  0  0
   42.0290   25.5330   35.1220 C   0  0  0  0  0  0  0  0  0  0  0  0
   40.7620   25.0140   35.0420 C   0  0  0  0  0  0  0  0  0  0  0  0
   41.5550   21.9210   36.1340 H   0  0  0  0  0  0  0  0  0  0  0  0
   43.7590   22.8930   36.2540 H   0  0  0  0  0  0  0  0  0  0  0  0
   44.1090   25.2560   35.5990 H   0  0  0  0  0  0  0  0  0  0  0  0
   42.1960   26.5570   34.8420 H   0  0  0  0  0  0  0  0  0  0  0  0
   38.8890   22.4110   34.1350 C   0  0  0  0  0  0  0  0  0  0  0  0
   39.2680   22.9970   35.3760 C   0  0  0  0  0  0  0  0  0  0  0  0
   38.3910   22.8610   36.4470 C   0  0  0  0  0  0  0  0  0  0  0  0
   37.2340   22.1840   36.2520 N   0  0  0  0  0  0  0  0  0  0  0  0
   36.8900   21.6330   35.0600 C   0  0  0  0  0  0  0  0  0  0  0  0
   37.7320   21.7510   33.9930 N   0  0  0  0  0  0  0  0  0  0  0  0
   39.5650   22.5060   33.2800 H   0  0  0  0  0  0  0  0  0  0  0  0
   35.9660   21.0950   34.9100 H   0  0  0  0  0  0  0  0  0  0  0  0
   38.6580   23.4180   37.7850 C   0  0  0  0  0  0  0  0  0  0  0  0
   37.6760   22.9650   38.6930 F   0  0  0  0  0  0  0  0  0  0  0  0
   39.8740   23.1500   38.3240 F   0  0  0  0  0  0  0  0  0  0  0  0
   38.4550   24.8010   37.7810 F   0  0  0  0  0  0  0  0  0  0  0  0
   39.2450   25.8610   33.2580 C   0  0  0  0  0  0  0  0  0  0  0  0
   39.5990   25.7620   34.5940 C   0  0  0  0  0  0  0  0  0  0  0  0
   38.7760   26.4230   35.4830 C   0  0  0  0  0  0  0  0  0  0  0  0
   39.0030   26.3800   36.5280 H   0  0  0  0  0  0  0  0  0  0  0  0
   37.6530   27.1580   35.1570 C   0  0  0  0  0  0  0  0  0  0  0  0
   37.0590   27.6470   35.9170 H   0  0  0  0  0  0  0  0  0  0  0  0
   37.3150   27.2450   33.8150 C   0  0  0  0  0  3  0  0  0  0  0  0
   38.1190   26.5920   32.8740 C   0  0  0  0  0  3  0  0  0  0  0  0
   40.8170   23.9870   32.6460 H   0  0  0  0  0  0  0  0  0  0  0  0
   40.1970   25.0770   32.0430 S   0  0  0  0  0  0  0  0  0  0  0  0
   41.2870   25.9150   31.4790 O   0  0  0  0  0  0  0  0  0  0  0  0
   39.3690   24.4930   30.9340 O   0  0  0  0  0  0  0  0  0  0  0  0
  1  2  1  0  0  0  0
  2  3  2  0  0  0  0
  2  7  1  0  0  0  0
  3  8  1  0  0  0  0
  4  9  1  0  0  0  0
  4  3  1  0  0  0  0
  5  4  2  0  0  0  0
  6  5  1  0  0  0  0
  6  1  2  0  0  0  0
 10  5  1  0  0  0  0
 11 12  1  0  0  0  0
 12  1  1  0  0  0  0
 12 13  2  0  0  0  0
 13 19  1  0  0  0  0
 14 13  1  0  0  0  0
 15 14  2  0  0  0  0
 16 11  2  0  0  0  0
 16 15  1  0  0  0  0
 17 11  1  0  0  0  0
 18 15  1  0  0  0  0
 19 21  1  0  0  0  0
 19 20  1  0  0  0  0
 22 19  1  0  0  0  0
 23 24  1  0  0  0  0
 24  6  1  0  0  0  0
 24 25  2  0  0  0  0
 25 26  1  0  0  0  0
 27 25  1  0  0  0  0
 27 28  1  0  0  0  0
 29 27  2  0  0  0  0
 30 23  2  0  0  0  0
 30 29  1  0  0  0  0
 32 31  1  0  0  0  0
 32 23  1  0  0  0  0
 33 32  2  0  0  0  0
 34 32  2  0  0  0  0
M  END
>  <minimizedAffinity>
-5.61366653

$$$$

 OpenBabel03272506253D

 34 36  0  0  0  0  0  0  0  0999 V2000
   38.4430   22.7410   34.3040 C   0  0  0  0  0  0  0  0  0  0  0  0
   37.5090   21.7690   34.0650 C   0  0  0  0  0  0  0  0  0  0  0  0
   36.6110   21.7600   33.0230 C   0  0  0  0  0  0  0  0  0  0  0  0
   36.6510   22.8500   32.1150 C   0  0  0  0  0  0  0  0  0  0  0  0
   37.5970   23.8360   32.3530 C   0  0  0  0  0  0  0  0  0  0  0  0
   38.4780   23.8100   33.4050 C   0  0  0  0  0  0  0  0  0  0  0  0
   37.4060   20.8910   34.7170 H   0  0  0  0  0  0  0  0  0  0  0  0
   35.8850   20.9960   32.8460 H   0  0  0  0  0  0  0  0  0  0  0  0
   35.9800   22.9090   31.2770 H   0  0  0  0  0  0  0  0  0  0  0  0
   37.6260   24.6600   31.6630 H   0  0  0  0  0  0  0  0  0  0  0  0
   40.5750   21.9840   35.2180 C   0  0  0  0  0  0  0  0  0  0  0  0
   39.3010   22.5730   35.4540 C   0  0  0  0  0  0  0  0  0  0  0  0
   38.9920   22.9340   36.7610 C   0  0  0  0  0  0  0  0  0  0  0  0
   39.9110   22.7080   37.7290 N   0  0  0  0  0  0  0  0  0  0  0  0
   41.1220   22.1440   37.4840 C   0  0  0  0  0  0  0  0  0  0  0  0
   41.4510   21.7800   36.2100 N   0  0  0  0  0  0  0  0  0  0  0  0
   40.8390   21.6920   34.1970 H   0  0  0  0  0  0  0  0  0  0  0  0
   41.8520   21.9650   38.2580 H   0  0  0  0  0  0  0  0  0  0  0  0
   37.7100   23.5530   37.1460 C   0  0  0  0  0  0  0  0  0  0  0  0
   37.7280   23.8680   38.5220 F   0  0  0  0  0  0  0  0  0  0  0  0
   37.3480   24.6720   36.4710 F   0  0  0  0  0  0  0  0  0  0  0  0
   36.6780   22.6140   37.0620 F   0  0  0  0  0  0  0  0  0  0  0  0
   39.1300   26.1280   34.0400 C   0  0  0  0  0  0  0  0  0  0  0  0
   39.4710   24.8390   33.6650 C   0  0  0  0  0  0  0  0  0  0  0  0
   40.8230   24.5850   33.5500 C   0  0  0  0  0  0  0  0  0  0  0  0
   41.1430   23.6040   33.2630 H   0  0  0  0  0  0  0  0  0  0  0  0
   41.8400   25.4920   33.7750 C   0  0  0  0  0  0  0  0  0  0  0  0
   42.8800   25.2120   33.6630 H   0  0  0  0  0  0  0  0  0  0  0  0
   41.4790   26.7760   34.1490 C   0  0  0  0  0  3  0  0  0  0  0  0
   40.1190   27.0830   34.2780 C   0  0  0  0  0  3  0  0  0  0  0  0
   36.7770   25.4350   34.6250 H   0  0  0  0  0  0  0  0  0  0  0  0
   37.4660   26.5730   34.2180 S   0  0  0  0  0  0  0  0  0  0  0  0
   36.8130   27.0280   32.9620 O   0  0  0  0  0  0  0  0  0  0  0  0
   37.2420   27.5790   35.3100 O   0  0  0  0  0  0  0  0  0  0  0  0
  1 12  1  0  0  0  0
  2  1  1  0  0  0  0
  2  7  1  0  0  0  0
  3  2  2  0  0  0  0
  4  5  2  0  0  0  0
  4  3  1  0  0  0  0
  5  6  1  0  0  0  0
  6 24  1  0  0  0  0
  6  1  2  0  0  0  0
  8  3  1  0  0  0  0
  9  4  1  0  0  0  0
 10  5  1  0  0  0  0
 11 12  2  0  0  0  0
 11 16  1  0  0  0  0
 12 13  1  0  0  0  0
 13 19  1  0  0  0  0
 13 14  2  0  0  0  0
 15 14  1  0  0  0  0
 15 18  1  0  0  0  0
 16 15  2  0  0  0  0
 17 11  1  0  0  0  0
 19 20  1  0  0  0  0
 21 19  1  0  0  0  0
 22 19  1  0  0  0  0
 23 32  1  0  0  0  0
 23 30  1  0  0  0  0
 24 23  2  0  0  0  0
 25 24  1  0  0  0  0
 25 27  2  0  0  0  0
 26 25  1  0  0  0  0
 27 29  1  0  0  0  0
 28 27  1  0  0  0  0
 29 30  2  0  0  0  0
 32 31  1  0  0  0  0
 32 34  2  0  0  0  0
 33 32  2  0  0  0  0
M  END
>  <minimizedAffinity>
-5.58257055

$$$$

 OpenBabel03272506253D

 34 36  0  0  0  0  0  0  0  0999 V2000
   38.8340   25.1840   35.3760 C   0  0  0  0  0  0  0  0  0  0  0  0
   38.7570   26.4190   35.9640 C   0  0  0  0  0  0  0  0  0  0  0  0
   38.0340   27.4880   35.4880 C   0  0  0  0  0  0  0  0  0  0  0  0
   37.3040   27.3030   34.2850 C   0  0  0  0  0  0  0  0  0  0  0  0
   37.3800   26.0530   33.6870 C   0  0  0  0  0  0  0  0  0  0  0  0
   38.1120   25.0090   34.1920 C   0  0  0  0  0  0  0  0  0  0  0  0
   39.2890   26.6510   36.8960 H   0  0  0  0  0  0  0  0  0  0  0  0
   37.9800   28.4470   35.9560 H   0  0  0  0  0  0  0  0  0  0  0  0
   36.7170   28.0930   33.8560 H   0  0  0  0  0  0  0  0  0  0  0  0
   36.8260   25.9140   32.7770 H   0  0  0  0  0  0  0  0  0  0  0  0
   40.9270   23.9320   35.4570 C   0  0  0  0  0  0  0  0  0  0  0  0
   39.6480   24.1850   36.0280 C   0  0  0  0  0  0  0  0  0  0  0  0
   39.2920   23.4560   37.1590 C   0  0  0  0  0  0  0  0  0  0  0  0
   40.1740   22.5520   37.6490 N   0  0  0  0  0  0  0  0  0  0  0  0
   41.3890   22.3250   37.0890 C   0  0  0  0  0  0  0  0  0  0  0  0
   41.7640   23.0260   35.9800 N   0  0  0  0  0  0  0  0  0  0  0  0
   41.2270   24.4940   34.5680 H   0  0  0  0  0  0  0  0  0  0  0  0
   42.0890   21.6030   37.4830 H   0  0  0  0  0  0  0  0  0  0  0  0
   38.0000   23.6180   37.8500 C   0  0  0  0  0  0  0  0  0  0  0  0
   37.9900   24.8390   38.5580 F   0  0  0  0  0  0  0  0  0  0  0  0
   36.8870   23.5800   37.0760 F   0  0  0  0  0  0  0  0  0  0  0  0
   37.8780   22.6720   38.8720 F   0  0  0  0  0  0  0  0  0  0  0  0
   39.0370   23.4310   32.5020 C   0  0  0  0  0  0  0  0  0  0  0  0
   38.2000   23.6960   33.5730 C   0  0  0  0  0  0  0  0  0  0  0  0
   37.4450   22.6320   34.0220 C   0  0  0  0  0  0  0  0  0  0  0  0
   36.7790   22.7810   34.8480 H   0  0  0  0  0  0  0  0  0  0  0  0
   37.4560   21.3530   33.5020 C   0  0  0  0  0  0  0  0  0  0  0  0
   36.8310   20.5710   33.9140 H   0  0  0  0  0  0  0  0  0  0  0  0
   38.3010   21.1070   32.4310 C   0  0  0  0  0  3  0  0  0  0  0  0
   39.0870   22.1550   31.9390 C   0  0  0  0  0  3  0  0  0  0  0  0
   40.2650   25.6050   32.8630 H   0  0  0  0  0  0  0  0  0  0  0  0
   40.0360   24.6840   31.8450 S   0  0  0  0  0  0  0  0  0  0  0  0
   39.4160   25.4440   30.7290 O   0  0  0  0  0  0  0  0  0  0  0  0
   41.3990   24.1970   31.4440 O   0  0  0  0  0  0  0  0  0  0  0  0
  1  2  1  0  0  0  0
  1 12  1  0  0  0  0
  2  7  1  0  0  0  0
  3  8  1  0  0  0  0
  3  2  2  0  0  0  0
  4  3  1  0  0  0  0
  5  6  1  0  0  0  0
  5  4  2  0  0  0  0
  6  1  2  0  0  0  0
  9  4  1  0  0  0  0
 10  5  1  0  0  0  0
 11 16  2  0  0  0  0
 11 12  1  0  0  0  0
 12 13  2  0  0  0  0
 13 14  1  0  0  0  0
 13 19  1  0  0  0  0
 15 18  1  0  0  0  0
 15 14  2  0  0  0  0
 16 15  1  0  0  0  0
 17 11  1  0  0  0  0
 19 20  1  0  0  0  0
 19 22  1  0  0  0  0
 21 19  1  0  0  0  0
 23 24  1  0  0  0  0
 24 25  2  0  0  0  0
 24  6  1  0  0  0  0
 25 26  1  0  0  0  0
 27 28  1  0  0  0  0
 27 25  1  0  0  0  0
 29 27  2  0  0  0  0
 30 29  1  0  0  0  0
 30 23  2  0  0  0  0
 32 23  1  0  0  0  0
 32 31  1  0  0  0  0
 33 32  2  0  0  0  0
 34 32  2  0  0  0  0
M  END
>  <minimizedAffinity>
-5.52302265

$$$$

 OpenBabel03272506253D

 34 36  0  0  0  0  0  0  0  0999 V2000
   40.1530   25.8330   33.6130 C   0  0  0  0  0  0  0  0  0  0  0  0
   41.3350   26.4120   33.9890 C   0  0  0  0  0  0  0  0  0  0  0  0
   42.0600   27.3110   33.2410 C   0  0  0  0  0  0  0  0  0  0  0  0
   41.5430   27.6710   31.9690 C   0  0  0  0  0  0  0  0  0  0  0  0
   40.3450   27.0870   31.5850 C   0  0  0  0  0  0  0  0  0  0  0  0
   39.6500   26.1940   32.3610 C   0  0  0  0  0  0  0  0  0  0  0  0
   41.8080   26.1910   34.9550 H   0  0  0  0  0  0  0  0  0  0  0  0
   42.9820   27.7570   33.5440 H   0  0  0  0  0  0  0  0  0  0  0  0
   42.0550   28.3680   31.3310 H   0  0  0  0  0  0  0  0  0  0  0  0
   39.9550   27.3620   30.6230 H   0  0  0  0  0  0  0  0  0  0  0  0
   39.8900   23.5370   34.3990 C   0  0  0  0  0  0  0  0  0  0  0  0
   39.5390   24.9100   34.5400 C   0  0  0  0  0  0  0  0  0  0  0  0
   38.6430   25.2450   35.5500 C   0  0  0  0  0  0  0  0  0  0  0  0
   38.1570   24.2560   36.3370 N   0  0  0  0  0  0  0  0  0  0  0  0
   38.5030   22.9520   36.1860 C   0  0  0  0  0  0  0  0  0  0  0  0
   39.3810   22.5950   35.2040 N   0  0  0  0  0  0  0  0  0  0  0  0
   40.5930   23.2530   33.6110 H   0  0  0  0  0  0  0  0  0  0  0  0
   38.1130   22.1660   36.8150 H   0  0  0  0  0  0  0  0  0  0  0  0
   38.1950   26.6260   35.8060 C   0  0  0  0  0  0  0  0  0  0  0  0
   38.1520   26.8610   37.1980 F   0  0  0  0  0  0  0  0  0  0  0  0
   38.9290   27.6180   35.2430 F   0  0  0  0  0  0  0  0  0  0  0  0
   36.8570   26.7760   35.4300 F   0  0  0  0  0  0  0  0  0  0  0  0
   37.1980   26.2710   31.9310 C   0  0  0  0  0  0  0  0  0  0  0  0
   38.3940   25.5740   31.9680 C   0  0  0  0  0  0  0  0  0  0  0  0
   38.3260   24.2440   31.6070 C   0  0  0  0  0  0  0  0  0  0  0  0
   39.2220   23.6570   31.6180 H   0  0  0  0  0  0  0  0  0  0  0  0
   37.1860   23.5660   31.2200 C   0  0  0  0  0  0  0  0  0  0  0  0
   37.2170   22.5190   30.9510 H   0  0  0  0  0  0  0  0  0  0  0  0
   35.9980   24.2800   31.1900 C   0  0  0  0  0  3  0  0  0  0  0  0
   36.0170   25.6330   31.5480 C   0  0  0  0  0  3  0  0  0  0  0  0
   38.2050   28.1760   33.2410 H   0  0  0  0  0  0  0  0  0  0  0  0
   37.1510   27.9480   32.3620 S   0  0  0  0  0  0  0  0  0  0  0  0
   35.9170   28.3640   33.0770 O   0  0  0  0  0  0  0  0  0  0  0  0
   37.4070   28.8600   31.1970 O   0  0  0  0  0  0  0  0  0  0  0  0
  1  2  1  0  0  0  0
  1 12  1  0  0  0  0
  2  7  1  0  0  0  0
  3  8  1  0  0  0  0
  3  2  2  0  0  0  0
  4  3  1  0  0  0  0
  5  4  2  0  0  0  0
  5  6  1  0  0  0  0
  6  1  2  0  0  0  0
  9  4  1  0  0  0  0
 10  5  1  0  0  0  0
 11 12  2  0  0  0  0
 11 16  1  0  0  0  0
 12 13  1  0  0  0  0
 13 19  1  0  0  0  0
 13 14  2  0  0  0  0
 15 14  1  0  0  0  0
 15 18  1  0  0  0  0
 16 15  2  0  0  0  0
 17 11  1  0  0  0  0
 19 20  1  0  0  0  0
 21 19  1  0  0  0  0
 22 19  1  0  0  0  0
 23 24  1  0  0  0  0
 23 32  1  0  0  0  0
 24  6  1  0  0  0  0
 25 26  1  0  0  0  0
 25 24  2  0  0  0  0
 27 25  1  0  0  0  0
 28 27  1  0  0  0  0
 29 27  2  0  0  0  0
 29 30  1  0  0  0  0
 30 23  2  0  0  0  0
 32 33  2  0  0  0  0
 32 31  1  0  0  0  0
 34 32  2  0  0  0  0
M  END
>  <minimizedAffinity>
-5.47279024

$$$$

 OpenBabel03272506253D

 34 36  0  0  0  0  0  0  0  0999 V2000
   38.7040   24.0210   33.4760 C   0  0  0  0  0  0  0  0  0  0  0  0
   37.8040   24.2520   32.4700 C   0  0  0  0  0  0  0  0  0  0  0  0
   36.7920   23.4020   32.0900 C   0  0  0  0  0  0  0  0  0  0  0  0
   36.6640   22.1780   32.7980 C   0  0  0  0  0  0  0  0  0  0  0  0
   37.5730   21.9410   33.8180 C   0  0  0  0  0  0  0  0  0  0  0  0
   38.5710   22.8150   34.1690 C   0  0  0  0  0  0  0  0  0  0  0  0
   37.8290   25.1720   31.8700 H   0  0  0  0  0  0  0  0  0  0  0  0
   36.0950   23.5930   31.3030 H   0  0  0  0  0  0  0  0  0  0  0  0
   35.8960   21.4670   32.5560 H   0  0  0  0  0  0  0  0  0  0  0  0
   37.4740   21.0140   34.3530 H   0  0  0  0  0  0  0  0  0  0  0  0
   40.9690   24.8530   33.1110 C   0  0  0  0  0  0  0  0  0  0  0  0
   39.6990   25.0380   33.7270 C   0  0  0  0  0  0  0  0  0  0  0  0
   39.5230   26.1730   34.5130 C   0  0  0  0  0  0  0  0  0  0  0  0
   40.5610   27.0330   34.6470 N   0  0  0  0  0  0  0  0  0  0  0  0
   41.7650   26.8380   34.0510 C   0  0  0  0  0  0  0  0  0  0  0  0
   41.9650   25.7340   33.2750 N   0  0  0  0  0  0  0  0  0  0  0  0
   41.1280   23.9680   32.4890 H   0  0  0  0  0  0  0  0  0  0  0  0
   42.5900   27.5260   34.1610 H   0  0  0  0  0  0  0  0  0  0  0  0
   38.2610   26.4870   35.2070 C   0  0  0  0  0  0  0  0  0  0  0  0
   37.8790   27.8150   34.9210 F   0  0  0  0  0  0  0  0  0  0  0  0
   37.2020   25.6840   34.9360 F   0  0  0  0  0  0  0  0  0  0  0  0
   38.4670   26.5200   36.5890 F   0  0  0  0  0  0  0  0  0  0  0  0
   39.2260   22.7780   36.5710 C   0  0  0  0  0  0  0  0  0  0  0  0
   39.5300   22.5750   35.2360 C   0  0  0  0  0  0  0  0  0  0  0  0
   40.8090   22.1300   34.9720 C   0  0  0  0  0  0  0  0  0  0  0  0
   41.0980   21.9570   33.9560 H   0  0  0  0  0  0  0  0  0  0  0  0
   41.7890   21.8740   35.9120 C   0  0  0  0  0  0  0  0  0  0  0  0
   42.7710   21.5250   35.6220 H   0  0  0  0  0  0  0  0  0  0  0  0
   41.4650   22.0830   37.2430 C   0  0  0  0  0  3  0  0  0  0  0  0
   40.1790   22.5360   37.5610 C   0  0  0  0  0  3  0  0  0  0  0  0
   37.2200   24.2130   36.0420 H   0  0  0  0  0  0  0  0  0  0  0  0
   37.6530   23.3370   37.0330 S   0  0  0  0  0  0  0  0  0  0  0  0
   37.6220   24.1020   38.3070 O   0  0  0  0  0  0  0  0  0  0  0  0
   36.6260   22.2410   37.0640 O   0  0  0  0  0  0  0  0  0  0  0  0
  1 12  1  0  0  0  0
  1  6  1  0  0  0  0
  2  1  2  0  0  0  0
  3  2  1  0  0  0  0
  3  4  2  0  0  0  0
  4  5  1  0  0  0  0
  5  6  2  0  0  0  0
  5 10  1  0  0  0  0
  6 24  1  0  0  0  0
  7  2  1  0  0  0  0
  8  3  1  0  0  0  0
  9  4  1  0  0  0  0
 11 16  2  0  0  0  0
 11 12  1  0  0  0  0
 12 13  2  0  0  0  0
 13 14  1  0  0  0  0
 13 19  1  0  0  0  0
 15 18  1  0  0  0  0
 15 14  2  0  0  0  0
 16 15  1  0  0  0  0
 17 11  1  0  0  0  0
 19 22  1  0  0  0  0
 20 19  1  0  0  0  0
 21 19  1  0  0  0  0
 23 32  1  0  0  0  0
 23 30  1  0  0  0  0
 24 23  2  0  0  0  0
 25 24  1  0  0  0  0
 25 27  2  0  0  0  0
 26 25  1  0  0  0  0
 27 29  1  0  0  0  0
 28 27  1  0  0  0  0
 29 30  2  0  0  0  0
 31 32  1  0  0  0  0
 32 34  2  0  0  0  0
 32 33  2  0  0  0  0
M  END
>  <minimizedAffinity>
-5.44564342

$$$$

 OpenBabel03272506253D

 34 36  0  0  0  0  0  0  0  0999 V2000
   38.4260   26.9800   34.1380 C   0  0  0  0  0  0  0  0  0  0  0  0
   37.8450   27.7130   35.1380 C   0  0  0  0  0  0  0  0  0  0  0  0
   36.7190   28.4930   35.0080 C   0  0  0  0  0  0  0  0  0  0  0  0
   36.1040   28.5480   33.7310 C   0  0  0  0  0  0  0  0  0  0  0  0
   36.6890   27.8060   32.7150 C   0  0  0  0  0  0  0  0  0  0  0  0
   37.8130   27.0370   32.8830 C   0  0  0  0  0  0  0  0  0  0  0  0
   38.2550   27.7310   36.1570 H   0  0  0  0  0  0  0  0  0  0  0  0
   36.2750   29.0620   35.7960 H   0  0  0  0  0  0  0  0  0  0  0  0
   35.2210   29.1360   33.5560 H   0  0  0  0  0  0  0  0  0  0  0  0
   36.2200   27.8470   31.7490 H   0  0  0  0  0  0  0  0  0  0  0  0
   40.8610   26.8490   34.2230 C   0  0  0  0  0  0  0  0  0  0  0  0
   39.6090   26.2200   34.4700 C   0  0  0  0  0  0  0  0  0  0  0  0
   39.6280   24.9360   35.0060 C   0  0  0  0  0  0  0  0  0  0  0  0
   40.8270   24.3610   35.2620 N   0  0  0  0  0  0  0  0  0  0  0  0
   42.0120   24.9780   35.0190 C   0  0  0  0  0  0  0  0  0  0  0  0
   42.0220   26.2370   34.4930 N   0  0  0  0  0  0  0  0  0  0  0  0
   40.8680   27.8590   33.8020 H   0  0  0  0  0  0  0  0  0  0  0  0
   42.9650   24.5160   35.2240 H   0  0  0  0  0  0  0  0  0  0  0  0
   38.4060   24.1700   35.3110 C   0  0  0  0  0  0  0  0  0  0  0  0
   38.7520   22.9570   35.9460 F   0  0  0  0  0  0  0  0  0  0  0  0
   37.4770   24.7890   36.0810 F   0  0  0  0  0  0  0  0  0  0  0  0
   37.8030   23.7340   34.1280 F   0  0  0  0  0  0  0  0  0  0  0  0
   37.7940   25.2000   31.2030 C   0  0  0  0  0  0  0  0  0  0  0  0
   38.4360   26.2570   31.8260 C   0  0  0  0  0  0  0  0  0  0  0  0
   39.7130   26.5290   31.3820 C   0  0  0  0  0  0  0  0  0  0  0  0
   40.2560   27.3360   31.8300 H   0  0  0  0  0  0  0  0  0  0  0  0
   40.3890   25.8480   30.3880 C   0  0  0  0  0  0  0  0  0  0  0  0
   41.3940   26.1260   30.0980 H   0  0  0  0  0  0  0  0  0  0  0  0
   39.7300   24.7940   29.7760 C   0  0  0  0  0  3  0  0  0  0  0  0
   38.4320   24.4780   30.1920 C   0  0  0  0  0  3  0  0  0  0  0  0
   35.9860   25.2350   32.9610 H   0  0  0  0  0  0  0  0  0  0  0  0
   36.1860   24.7570   31.6700 S   0  0  0  0  0  0  0  0  0  0  0  0
   35.9430   23.2920   31.7270 O   0  0  0  0  0  0  0  0  0  0  0  0
   35.1290   25.4240   30.8370 O   0  0  0  0  0  0  0  0  0  0  0  0
  1 12  1  0  0  0  0
  1  2  1  0  0  0  0
  2  7  1  0  0  0  0
  3  2  2  0  0  0  0
  3  8  1  0  0  0  0
  4  3  1  0  0  0  0
  5  6  1  0  0  0  0
  5  4  2  0  0  0  0
  6  1  2  0  0  0  0
  9  4  1  0  0  0  0
 10  5  1  0  0  0  0
 11 12  2  0  0  0  0
 11 16  1  0  0  0  0
 12 13  1  0  0  0  0
 13 14  2  0  0  0  0
 13 19  1  0  0  0  0
 15 18  1  0  0  0  0
 15 14  1  0  0  0  0
 16 15  2  0  0  0  0
 17 11  1  0  0  0  0
 19 20  1  0  0  0  0
 19 21  1  0  0  0  0
 22 19  1  0  0  0  0
 23 32  1  0  0  0  0
 23 24  1  0  0  0  0
 24  6  1  0  0  0  0
 25 24  2  0  0  0  0
 25 26  1  0  0  0  0
 27 25  1  0  0  0  0
 28 27  1  0  0  0  0
 29 30  1  0  0  0  0
 29 27  2  0  0  0  0
 30 23  2  0  0  0  0
 32 33  2  0  0  0  0
 32 31  1  0  0  0  0
 34 32  2  0  0  0  0
M  END
>  <minimizedAffinity>
-5.34804869

$$$$

 OpenBabel03272506253D

 34 36  0  0  0  0  0  0  0  0999 V2000
   38.2870   22.7070   34.2580 C   0  0  0  0  0  0  0  0  0  0  0  0
   37.4110   21.6850   34.0060 C   0  0  0  0  0  0  0  0  0  0  0  0
   36.4730   21.6650   32.9990 C   0  0  0  0  0  0  0  0  0  0  0  0
   36.4030   22.7970   32.1470 C   0  0  0  0  0  0  0  0  0  0  0  0
   37.2890   23.8340   32.3990 C   0  0  0  0  0  0  0  0  0  0  0  0
   38.2130   23.8180   33.4140 C   0  0  0  0  0  0  0  0  0  0  0  0
   37.3940   20.7720   34.6150 H   0  0  0  0  0  0  0  0  0  0  0  0
   35.7940   20.8620   32.8110 H   0  0  0  0  0  0  0  0  0  0  0  0
   35.6960   22.8510   31.3390 H   0  0  0  0  0  0  0  0  0  0  0  0
   37.2350   24.6900   31.7520 H   0  0  0  0  0  0  0  0  0  0  0  0
   40.5000   22.0530   35.0500 C   0  0  0  0  0  0  0  0  0  0  0  0
   39.2010   22.5430   35.3640 C   0  0  0  0  0  0  0  0  0  0  0  0
   38.9230   22.8210   36.6990 C   0  0  0  0  0  0  0  0  0  0  0  0
   39.8950   22.6110   37.6180 N   0  0  0  0  0  0  0  0  0  0  0  0
   41.1290   22.1430   37.2990 C   0  0  0  0  0  0  0  0  0  0  0  0
   41.4280   21.8620   35.9980 N   0  0  0  0  0  0  0  0  0  0  0  0
   40.7400   21.8280   34.0070 H   0  0  0  0  0  0  0  0  0  0  0  0
   41.9000   21.9770   38.0350 H   0  0  0  0  0  0  0  0  0  0  0  0
   37.6210   23.3320   37.1630 C   0  0  0  0  0  0  0  0  0  0  0  0
   37.6350   23.4640   38.5680 F   0  0  0  0  0  0  0  0  0  0  0  0
   37.2120   24.5160   36.6420 F   0  0  0  0  0  0  0  0  0  0  0  0
   36.6250   22.3730   36.9570 F   0  0  0  0  0  0  0  0  0  0  0  0
   40.3500   25.0320   33.0180 C   0  0  0  0  0  0  0  0  0  0  0  0
   39.1450   24.8990   33.6880 C   0  0  0  0  0  0  0  0  0  0  0  0
   38.8780   25.8610   34.6410 C   0  0  0  0  0  0  0  0  0  0  0  0
   37.9600   25.8060   35.1890 H   0  0  0  0  0  0  0  0  0  0  0  0
   39.6970   26.9220   34.9740 C   0  0  0  0  0  0  0  0  0  0  0  0
   39.4130   27.6360   35.7360 H   0  0  0  0  0  0  0  0  0  0  0  0
   40.8980   27.0390   34.2930 C   0  0  0  0  0  3  0  0  0  0  0  0
   41.2150   26.0870   33.3170 C   0  0  0  0  0  3  0  0  0  0  0  0
   39.8860   22.8430   31.8560 H   0  0  0  0  0  0  0  0  0  0  0  0
   40.8020   23.8890   31.7990 S   0  0  0  0  0  0  0  0  0  0  0  0
   42.1430   23.2780   31.9960 O   0  0  0  0  0  0  0  0  0  0  0  0
   40.6840   24.4390   30.4070 O   0  0  0  0  0  0  0  0  0  0  0  0
  1 12  1  0  0  0  0
  2  1  1  0  0  0  0
  2  7  1  0  0  0  0
  3  2  2  0  0  0  0
  4  5  2  0  0  0  0
  4  3  1  0  0  0  0
  5  6  1  0  0  0  0
  6 24  1  0  0  0  0
  6  1  2  0  0  0  0
  8  3  1  0  0  0  0
  9  4  1  0  0  0  0
 10  5  1  0  0  0  0
 11 12  2  0  0  0  0
 11 16  1  0  0  0  0
 12 13  1  0  0  0  0
 13 19  1  0  0  0  0
 13 14  2  0  0  0  0
 15 14  1  0  0  0  0
 15 18  1  0  0  0  0
 16 15  2  0  0  0  0
 17 11  1  0  0  0  0
 19 20  1  0  0  0  0
 21 19  1  0  0  0  0
 22 19  1  0  0  0  0
 23 30  2  0  0  0  0
 23 24  1  0  0  0  0
 24 25  2  0  0  0  0
 25 27  1  0  0  0  0
 25 26  1  0  0  0  0
 27 28  1  0  0  0  0
 29 27  2  0  0  0  0
 30 29  1  0  0  0  0
 32 31  1  0  0  0  0
 32 33  2  0  0  0  0
 32 23  1  0  0  0  0
 34 32  2  0  0  0  0
M  END
>  <minimizedAffinity>
-5.34613943

$$$$

 OpenBabel03272506253D

 34 36  0  0  0  0  0  0  0  0999 V2000
   39.1460   24.0120   35.6370 C   0  0  0  0  0  0  0  0  0  0  0  0
   38.5100   23.5960   36.7760 C   0  0  0  0  0  0  0  0  0  0  0  0
   39.0990   22.9240   37.8210 C   0  0  0  0  0  0  0  0  0  0  0  0
   40.4840   22.6330   37.7160 C   0  0  0  0  0  0  0  0  0  0  0  0
   41.1320   23.0540   36.5640 C   0  0  0  0  0  0  0  0  0  0  0  0
   40.5100   23.7240   35.5410 C   0  0  0  0  0  0  0  0  0  0  0  0
   37.4400   23.7780   36.9410 H   0  0  0  0  0  0  0  0  0  0  0  0
   38.5920   22.6040   38.7060 H   0  0  0  0  0  0  0  0  0  0  0  0
   41.0100   22.1110   38.4950 H   0  0  0  0  0  0  0  0  0  0  0  0
   42.1810   22.8340   36.4870 H   0  0  0  0  0  0  0  0  0  0  0  0
   37.8800   23.9330   33.5520 C   0  0  0  0  0  0  0  0  0  0  0  0
   38.3550   24.7070   34.6480 C   0  0  0  0  0  0  0  0  0  0  0  0
   38.0200   26.0570   34.6750 C   0  0  0  0  0  0  0  0  0  0  0  0
   37.2670   26.5560   33.6650 N   0  0  0  0  0  0  0  0  0  0  0  0
   36.8240   25.8010   32.6280 C   0  0  0  0  0  0  0  0  0  0  0  0
   37.1380   24.4740   32.5770 N   0  0  0  0  0  0  0  0  0  0  0  0
   38.1320   22.8690   33.5120 H   0  0  0  0  0  0  0  0  0  0  0  0
   36.2240   26.2030   31.8260 H   0  0  0  0  0  0  0  0  0  0  0  0
   38.4450   26.9740   35.7490 C   0  0  0  0  0  0  0  0  0  0  0  0
   37.8140   28.2260   35.5820 F   0  0  0  0  0  0  0  0  0  0  0  0
   38.2190   26.5640   37.0220 F   0  0  0  0  0  0  0  0  0  0  0  0
   39.7980   27.2920   35.6040 F   0  0  0  0  0  0  0  0  0  0  0  0
   41.3770   23.3370   33.2390 C   0  0  0  0  0  0  0  0  0  0  0  0
   41.1790   24.1680   34.3290 C   0  0  0  0  0  0  0  0  0  0  0  0
   41.6590   25.4550   34.1970 C   0  0  0  0  0  0  0  0  0  0  0  0
   41.5330   26.1400   35.0100 H   0  0  0  0  0  0  0  0  0  0  0  0
   42.3060   25.9700   33.0910 C   0  0  0  0  0  0  0  0  0  0  0  0
   42.6530   26.9950   33.0670 H   0  0  0  0  0  0  0  0  0  0  0  0
   42.4950   25.1230   32.0100 C   0  0  0  0  0  3  0  0  0  0  0  0
   42.0250   23.8070   32.0960 C   0  0  0  0  0  3  0  0  0  0  0  0
   39.8560   21.6150   34.2790 H   0  0  0  0  0  0  0  0  0  0  0  0
   40.8200   21.6970   33.2790 S   0  0  0  0  0  0  0  0  0  0  0  0
   41.8670   20.7010   33.6280 O   0  0  0  0  0  0  0  0  0  0  0  0
   40.1150   21.2860   32.0190 O   0  0  0  0  0  0  0  0  0  0  0  0
  1  2  1  0  0  0  0
  2  7  1  0  0  0  0
  2  3  2  0  0  0  0
  3  8  1  0  0  0  0
  4  3  1  0  0  0  0
  4  9  1  0  0  0  0
  5  4  2  0  0  0  0
  6  1  2  0  0  0  0
  6  5  1  0  0  0  0
 10  5  1  0  0  0  0
 11 12  1  0  0  0  0
 12 13  2  0  0  0  0
 12  1  1  0  0  0  0
 13 19  1  0  0  0  0
 14 13  1  0  0  0  0
 15 14  2  0  0  0  0
 16 15  1  0  0  0  0
 16 11  2  0  0  0  0
 17 11  1  0  0  0  0
 18 15  1  0  0  0  0
 19 21  1  0  0  0  0
 20 19  1  0  0  0  0
 22 19  1  0  0  0  0
 23 32  1  0  0  0  0
 23 24  1  0  0  0  0
 24  6  1  0  0  0  0
 25 24  2  0  0  0  0
 25 26  1  0  0  0  0
 27 25  1  0  0  0  0
 28 27  1  0  0  0  0
 29 30  1  0  0  0  0
 29 27  2  0  0  0  0
 30 23  2  0  0  0  0
 32 33  2  0  0  0  0
 32 31  1  0  0  0  0
 34 32  2  0  0  0  0
M  END
>  <minimizedAffinity>
-5.29928398

$$$$

 OpenBabel03272506253D

 34 36  0  0  0  0  0  0  0  0999 V2000
   39.4060   24.6110   35.0510 C   0  0  0  0  0  0  0  0  0  0  0  0
   38.8700   25.8430   34.7870 C   0  0  0  0  0  0  0  0  0  0  0  0
   39.5870   26.9910   34.5400 C   0  0  0  0  0  0  0  0  0  0  0  0
   41.0020   26.8970   34.5590 C   0  0  0  0  0  0  0  0  0  0  0  0
   41.5490   25.6500   34.8260 C   0  0  0  0  0  0  0  0  0  0  0  0
   40.8010   24.5250   35.0670 C   0  0  0  0  0  0  0  0  0  0  0  0
   37.7850   26.0080   34.7530 H   0  0  0  0  0  0  0  0  0  0  0  0
   39.1580   27.9480   34.3350 H   0  0  0  0  0  0  0  0  0  0  0  0
   41.6260   27.7520   34.3740 H   0  0  0  0  0  0  0  0  0  0  0  0
   42.6210   25.5800   34.8390 H   0  0  0  0  0  0  0  0  0  0  0  0
   38.1410   22.7260   34.1560 C   0  0  0  0  0  0  0  0  0  0  0  0
   38.4870   23.5210   35.2850 C   0  0  0  0  0  0  0  0  0  0  0  0
   37.9170   23.1840   36.5090 C   0  0  0  0  0  0  0  0  0  0  0  0
   37.0710   22.1280   36.5590 N   0  0  0  0  0  0  0  0  0  0  0  0
   36.7530   21.3820   35.4700 C   0  0  0  0  0  0  0  0  0  0  0  0
   37.2970   21.6900   34.2570 N   0  0  0  0  0  0  0  0  0  0  0  0
   38.5780   22.9730   33.1840 H   0  0  0  0  0  0  0  0  0  0  0  0
   36.0770   20.5410   35.5140 H   0  0  0  0  0  0  0  0  0  0  0  0
   38.1890   23.9220   37.7560 C   0  0  0  0  0  0  0  0  0  0  0  0
   39.4510   23.5450   38.2650 F   0  0  0  0  0  0  0  0  0  0  0  0
   38.1620   25.2760   37.6800 F   0  0  0  0  0  0  0  0  0  0  0  0
   37.3160   23.5020   38.7640 F   0  0  0  0  0  0  0  0  0  0  0  0
   41.7180   22.3250   34.3480 C   0  0  0  0  0  0  0  0  0  0  0  0
   41.3620   23.2140   35.3490 C   0  0  0  0  0  0  0  0  0  0  0  0
   41.5740   22.7800   36.6410 C   0  0  0  0  0  0  0  0  0  0  0  0
   41.3160   23.4280   37.4540 H   0  0  0  0  0  0  0  0  0  0  0  0
   42.1000   21.5570   37.0100 C   0  0  0  0  0  0  0  0  0  0  0  0
   42.2340   21.2920   38.0500 H   0  0  0  0  0  0  0  0  0  0  0  0
   42.4490   20.6810   35.9950 C   0  0  0  0  0  3  0  0  0  0  0  0
   42.2530   21.0760   34.6660 C   0  0  0  0  0  3  0  0  0  0  0  0
   40.5350   23.7510   32.6370 H   0  0  0  0  0  0  0  0  0  0  0  0
   41.5010   22.7510   32.6840 S   0  0  0  0  0  0  0  0  0  0  0  0
   40.9980   21.6470   31.8260 O   0  0  0  0  0  0  0  0  0  0  0  0
   42.7280   23.3630   32.0710 O   0  0  0  0  0  0  0  0  0  0  0  0
  1  6  1  0  0  0  0
  1 12  1  0  0  0  0
  2  1  2  0  0  0  0
  3  4  2  0  0  0  0
  3  2  1  0  0  0  0
  4  5  1  0  0  0  0
  5 10  1  0  0  0  0
  5  6  2  0  0  0  0
  6 24  1  0  0  0  0
  7  2  1  0  0  0  0
  8  3  1  0  0  0  0
  9  4  1  0  0  0  0
 11 16  2  0  0  0  0
 11 12  1  0  0  0  0
 12 13  2  0  0  0  0
 13 14  1  0  0  0  0
 13 19  1  0  0  0  0
 15 18  1  0  0  0  0
 15 14  2  0  0  0  0
 16 15  1  0  0  0  0
 17 11  1  0  0  0  0
 19 20  1  0  0  0  0
 19 22  1  0  0  0  0
 21 19  1  0  0  0  0
 23 30  2  0  0  0  0
 23 24  1  0  0  0  0
 24 25  2  0  0  0  0
 25 27  1  0  0  0  0
 25 26  1  0  0  0  0
 27 28  1  0  0  0  0
 29 27  2  0  0  0  0
 30 29  1  0  0  0  0
 31 32  1  0  0  0  0
 32 23  1  0  0  0  0
 33 32  2  0  0  0  0
 34 32  2  0  0  0  0
M  END
>  <minimizedAffinity>
-5.28259754

$$$$
