
 OpenBabel03272509543D

 46 49  0  0  0  0  0  0  0  0999 V2000
   34.5870   28.5000   48.1850 C   0  0  0  0  0  0  0  0  0  0  0  0
   34.1700   29.4990   47.9600 H   0  0  0  0  0  0  0  0  0  0  0  0
   35.5260   28.3820   47.5870 H   0  0  0  0  0  0  0  0  0  0  0  0
   33.6900   27.3740   47.7920 C   0  0  0  0  0  0  0  0  0  0  0  0
   33.7580   26.5780   48.5500 H   0  0  0  0  0  0  0  0  0  0  0  0
   33.9890   26.9070   46.8150 H   0  0  0  0  0  0  0  0  0  0  0  0
   32.2680   27.7890   47.6360 C   0  0  0  0  0  0  0  0  0  0  0  0
   31.4100   27.6240   48.7050 C   0  0  0  0  0  0  0  0  0  0  0  0
   30.0970   27.9760   48.6440 C   0  0  0  0  0  0  0  0  0  0  0  0
   29.6260   28.4930   47.5300 N   0  0  0  0  0  0  0  0  0  0  0  0
   30.4440   28.6670   46.4640 C   0  0  0  0  0  0  0  0  0  0  0  0
   31.7510   28.3200   46.5150 N   0  0  0  0  0  0  0  0  0  0  0  0
   31.8030   27.1980   49.6190 H   0  0  0  0  0  0  0  0  0  0  0  0
   29.4440   27.8340   49.5050 H   0  0  0  0  0  0  0  0  0  0  0  0
   30.5560   30.3730   44.6700 C   0  0  0  0  0  0  0  0  0  0  0  0
   29.9540   29.2420   45.2020 C   0  0  0  0  0  0  0  0  0  0  0  0
   28.8780   28.6670   44.5140 C   0  0  0  0  0  0  0  0  0  0  0  0
   28.4140   27.7810   44.9420 H   0  0  0  0  0  0  0  0  0  0  0  0
   28.3930   29.1780   43.3310 C   0  0  0  0  0  0  0  0  0  0  0  0
   27.5560   28.6870   42.8460 H   0  0  0  0  0  0  0  0  0  0  0  0
   28.9600   30.2870   42.7800 C   0  0  0  0  0  3  0  0  0  0  0  0
   30.0170   30.8420   43.4670 C   0  0  0  0  0  3  0  0  0  0  0  0
   31.9850   30.9380   46.7700 H   0  0  0  0  0  0  0  0  0  0  0  0
   31.8900   31.1630   45.4350 S   0  0  0  0  0  0  0  0  0  0  0  0
   33.1550   30.7930   44.6830 O   0  0  0  0  0  0  0  0  0  0  0  0
   31.7130   32.6610   45.2510 O   0  0  0  0  0  0  0  0  0  0  0  0
   34.9910   28.3610   49.5370 O   0  0  0  0  0  0  0  0  0  0  0  0
   37.3640   30.1850   51.5700 C   0  0  0  0  0  0  0  0  0  0  0  0
   38.0760   30.8680   50.5510 C   0  0  0  0  0  0  0  0  0  0  0  0
   37.6990   30.6610   49.2440 C   0  0  0  0  0  0  0  0  0  0  0  0
   36.6500   29.7970   49.0430 N   0  0  0  0  0  0  0  0  0  0  0  0
   35.9920   29.1620   50.0050 C   0  0  0  0  0  0  0  0  0  0  0  0
   36.3590   29.3630   51.2880 N   0  0  0  0  0  0  0  0  0  0  0  0
   37.7040   30.3850   52.5790 H   0  0  0  0  0  0  0  0  0  0  0  0
   38.8860   31.5360   50.7070 H   0  0  0  0  0  0  0  0  0  0  0  0
   38.9530   33.2550   49.0320 F   0  0  0  0  0  0  0  0  0  0  0  0
   38.9010   32.4740   47.9590 C   0  0  0  0  0  0  0  0  0  0  0  0
   38.3090   31.2700   48.0910 C   0  0  0  0  0  0  0  0  0  0  0  0
   38.3070   30.5250   46.9010 C   0  0  0  0  0  0  0  0  0  0  0  0
   38.8560   30.9850   45.7260 C   0  0  0  0  0  0  0  0  0  0  0  0
   39.4380   32.2110   45.6570 C   0  0  0  0  0  0  0  0  0  0  0  0
   39.4610   32.9720   46.8010 C   0  0  0  0  0  0  0  0  0  0  0  0
   37.8660   29.5300   46.8440 H   0  0  0  0  0  0  0  0  0  0  0  0
   38.8390   30.3870   44.8210 H   0  0  0  0  0  0  0  0  0  0  0  0
   39.8720   32.5900   44.7510 H   0  0  0  0  0  0  0  0  0  0  0  0
   39.9180   33.9510   46.7790 H   0  0  0  0  0  0  0  0  0  0  0  0
  1 27  1  0  0  0  0
  2  1  1  0  0  0  0
  3  1  1  0  0  0  0
  4  1  1  0  0  0  0
  4  5  1  0  0  0  0
  6  4  1  0  0  0  0
  7  4  1  0  0  0  0
  7  8  1  0  0  0  0
  8 13  1  0  0  0  0
  9  8  2  0  0  0  0
  9 14  1  0  0  0  0
 10  9  1  0  0  0  0
 11 12  1  0  0  0  0
 11 10  2  0  0  0  0
 12  7  2  0  0  0  0
 15 16  1  0  0  0  0
 15 24  1  0  0  0  0
 16 11  1  0  0  0  0
 17 18  1  0  0  0  0
 17 16  2  0  0  0  0
 19 17  1  0  0  0  0
 20 19  1  0  0  0  0
 21 19  2  0  0  0  0
 21 22  1  0  0  0  0
 22 15  2  0  0  0  0
 24 23  1  0  0  0  0
 25 24  2  0  0  0  0
 26 24  2  0  0  0  0
 27 32  1  0  0  0  0
 28 34  1  0  0  0  0
 29 35  1  0  0  0  0
 29 28  2  0  0  0  0
 30 29  1  0  0  0  0
 31 30  2  0  0  0  0
 31 32  1  0  0  0  0
 32 33  2  0  0  0  0
 33 28  1  0  0  0  0
 37 38  1  0  0  0  0
 37 36  1  0  0  0  0
 38 30  1  0  0  0  0
 39 38  2  0  0  0  0
 40 39  1  0  0  0  0
 41 40  2  0  0  0  0
 41 42  1  0  0  0  0
 42 37  2  0  0  0  0
 43 39  1  0  0  0  0
 44 40  1  0  0  0  0
 45 41  1  0  0  0  0
 46 42  1  0  0  0  0
M  END
>  <minimizedAffinity>
-6.44705105

>  <minimizedRMSD>
0.504571259

$$$$
