
 OpenBabel03272509573D

 49 52  0  0  0  0  0  0  0  0999 V2000
   33.6580   27.4200   47.8260 C   0  0  0  0  0  0  0  0  0  0  0  0
   33.8010   26.5280   48.4510 H   0  0  0  0  0  0  0  0  0  0  0  0
   33.9950   27.1270   46.8050 H   0  0  0  0  0  0  0  0  0  0  0  0
   32.2100   27.7890   47.7710 C   0  0  0  0  0  0  0  0  0  0  0  0
   31.4450   27.5210   48.8890 C   0  0  0  0  0  0  0  0  0  0  0  0
   30.1100   27.8280   48.9180 C   0  0  0  0  0  0  0  0  0  0  0  0
   29.5400   28.3860   47.8630 N   0  0  0  0  0  0  0  0  0  0  0  0
   30.2960   28.6510   46.7560 C   0  0  0  0  0  0  0  0  0  0  0  0
   31.6020   28.3540   46.7220 N   0  0  0  0  0  0  0  0  0  0  0  0
   31.8920   27.0700   49.7500 H   0  0  0  0  0  0  0  0  0  0  0  0
   29.4910   27.6230   49.7940 H   0  0  0  0  0  0  0  0  0  0  0  0
   29.6200   29.2830   45.5960 C   0  0  0  0  0  0  0  0  0  0  0  0
   28.6920   29.7800   46.0090 H   0  0  0  0  0  0  0  0  0  0  0  0
   30.2340   30.1610   45.2520 H   0  0  0  0  0  0  0  0  0  0  0  0
   27.9840   27.9190   44.2550 C   0  0  0  0  0  0  0  0  0  0  0  0
   29.2630   28.3540   44.5150 C   0  0  0  0  0  0  0  0  0  0  0  0
   30.2910   27.8800   43.6900 C   0  0  0  0  0  0  0  0  0  0  0  0
   31.3010   28.2120   43.8820 H   0  0  0  0  0  0  0  0  0  0  0  0
   30.0850   27.0090   42.6410 C   0  0  0  0  0  0  0  0  0  0  0  0
   30.9250   26.6720   42.0320 H   0  0  0  0  0  0  0  0  0  0  0  0
   28.8110   26.5650   42.3670 C   0  0  0  0  0  3  0  0  0  0  0  0
   27.8010   27.0350   43.1860 C   0  0  0  0  0  3  0  0  0  0  0  0
   26.5400   29.8290   45.2510 H   0  0  0  0  0  0  0  0  0  0  0  0
   26.6480   28.4500   45.2250 S   0  0  0  0  0  0  0  0  0  0  0  0
   26.5740   27.8260   46.5700 O   0  0  0  0  0  0  0  0  0  0  0  0
   25.3850   27.9980   44.4950 O   0  0  0  0  0  0  0  0  0  0  0  0
   34.5230   28.5770   48.2650 C   0  0  0  0  0  0  0  0  0  0  0  0
   35.3270   28.8030   47.5640 H   0  0  0  0  0  0  0  0  0  0  0  0
   33.8800   29.4800   48.3480 H   0  0  0  0  0  0  0  0  0  0  0  0
   35.0340   28.3560   49.5730 O   0  0  0  0  0  0  0  0  0  0  0  0
   37.3930   30.2040   51.5820 C   0  0  0  0  0  0  0  0  0  0  0  0
   38.1010   30.8900   50.5710 C   0  0  0  0  0  0  0  0  0  0  0  0
   37.7150   30.6690   49.2550 C   0  0  0  0  0  0  0  0  0  0  0  0
   36.6750   29.7980   49.0590 N   0  0  0  0  0  0  0  0  0  0  0  0
   36.0210   29.1600   50.0320 C   0  0  0  0  0  0  0  0  0  0  0  0
   36.3920   29.3730   51.3020 N   0  0  0  0  0  0  0  0  0  0  0  0
   37.7100   30.3920   52.5980 H   0  0  0  0  0  0  0  0  0  0  0  0
   38.9200   31.5750   50.7420 H   0  0  0  0  0  0  0  0  0  0  0  0
   38.9670   33.2780   49.0420 F   0  0  0  0  0  0  0  0  0  0  0  0
   38.9090   32.4910   47.9740 C   0  0  0  0  0  0  0  0  0  0  0  0
   38.3250   31.2840   48.0940 C   0  0  0  0  0  0  0  0  0  0  0  0
   38.3150   30.5300   46.9110 C   0  0  0  0  0  0  0  0  0  0  0  0
   38.8610   31.0010   45.7420 C   0  0  0  0  0  0  0  0  0  0  0  0
   39.4450   32.2330   45.6610 C   0  0  0  0  0  0  0  0  0  0  0  0
   39.4530   32.9590   46.8060 C   0  0  0  0  0  0  0  0  0  0  0  0
   37.8630   29.5350   46.9040 H   0  0  0  0  0  0  0  0  0  0  0  0
   38.8160   30.3580   44.8600 H   0  0  0  0  0  0  0  0  0  0  0  0
   39.8580   32.5500   44.7160 H   0  0  0  0  0  0  0  0  0  0  0  0
   39.9170   33.9580   46.7780 H   0  0  0  0  0  0  0  0  0  0  0  0
  1 27  1  0  0  0  0
  1  2  1  0  0  0  0
  3  1  1  0  0  0  0
  4  1  1  0  0  0  0
  4  5  1  0  0  0  0
  5  6  2  0  0  0  0
  5 10  1  0  0  0  0
  6 11  1  0  0  0  0
  7  6  1  0  0  0  0
  8  7  2  0  0  0  0
  9  8  1  0  0  0  0
  9  4  2  0  0  0  0
 12 13  1  0  0  0  0
 12  8  1  0  0  0  0
 14 12  1  0  0  0  0
 15 16  1  0  0  0  0
 15 24  1  0  0  0  0
 16 12  1  0  0  0  0
 17 18  1  0  0  0  0
 17 16  2  0  0  0  0
 19 17  1  0  0  0  0
 20 19  1  0  0  0  0
 21 19  2  0  0  0  0
 21 22  1  0  0  0  0
 22 15  2  0  0  0  0
 24 23  1  0  0  0  0
 24 25  2  0  0  0  0
 26 24  2  0  0  0  0
 27 29  1  0  0  0  0
 27 30  1  0  0  0  0
 28 27  1  0  0  0  0
 30 35  1  0  0  0  0
 31 37  1  0  0  0  0
 32 38  1  0  0  0  0
 32 31  2  0  0  0  0
 33 32  1  0  0  0  0
 34 33  2  0  0  0  0
 34 35  1  0  0  0  0
 35 36  2  0  0  0  0
 36 31  1  0  0  0  0
 40 41  1  0  0  0  0
 40 39  1  0  0  0  0
 41 33  1  0  0  0  0
 42 41  2  0  0  0  0
 43 42  1  0  0  0  0
 44 43  2  0  0  0  0
 44 45  1  0  0  0  0
 45 40  2  0  0  0  0
 46 42  1  0  0  0  0
 47 43  1  0  0  0  0
 48 44  1  0  0  0  0
 49 45  1  0  0  0  0
M  END
>  <minimizedAffinity>
-6.40294075

>  <minimizedRMSD>
0.624070585

$$$$
