
 OpenBabel03272501443D

 37 40  0  0  0  0  0  0  0  0999 V2000
   33.7550   28.8710   49.3400 C   0  0  0  0  0  0  0  0  0  0  0  0
   34.3740   29.3270   48.1390 C   0  0  0  0  0  0  0  0  0  0  0  0
   33.8480   28.8740   46.9270 C   0  0  0  0  0  0  0  0  0  0  0  0
   32.7870   28.0380   46.9740 N   0  0  0  0  0  0  0  0  0  0  0  0
   32.2150   27.6180   48.1060 C   0  0  0  0  0  0  0  0  0  0  0  0
   32.7070   28.0430   49.2910 N   0  0  0  0  0  0  0  0  0  0  0  0
   34.0170   29.1060   50.3560 H   0  0  0  0  0  0  0  0  0  0  0  0
   34.3500   29.2460   46.0680 H   0  0  0  0  0  0  0  0  0  0  0  0
   35.6930   30.7440   49.6100 C   0  0  0  0  0  0  0  0  0  0  0  0
   35.4970   30.2160   48.3470 C   0  0  0  0  0  0  0  0  0  0  0  0
   36.4000   30.5800   47.3530 C   0  0  0  0  0  0  0  0  0  0  0  0
   37.4470   31.4450   47.6650 C   0  0  0  0  0  0  0  0  0  0  0  0
   38.4510   31.9650   46.9350 N   0  0  0  0  0  0  0  0  0  0  0  0
   39.2070   32.7530   47.6970 C   0  0  0  0  0  0  0  0  0  0  0  0
   38.6940   32.7520   48.9430 N   0  0  0  0  0  0  0  0  0  0  0  0
   37.6190   31.9550   48.9320 C   0  0  0  0  0  0  0  0  0  0  0  0
   36.7270   31.5960   49.9100 C   0  0  0  0  0  0  0  0  0  0  0  0
   35.0620   30.5480   50.4850 H   0  0  0  0  0  0  0  0  0  0  0  0
   36.2630   30.1780   46.3590 H   0  0  0  0  0  0  0  0  0  0  0  0
   38.5630   31.7400   45.9190 H   0  0  0  0  0  0  0  0  0  0  0  0
   40.0720   33.2700   47.2940 H   0  0  0  0  0  0  0  0  0  0  0  0
   36.8980   32.0230   50.9020 H   0  0  0  0  0  0  0  0  0  0  0  0
   31.0670   26.7010   48.0220 C   0  0  0  0  0  0  0  0  0  0  0  0
   30.7710   26.5860   46.9360 H   0  0  0  0  0  0  0  0  0  0  0  0
   31.3210   25.6790   48.4030 H   0  0  0  0  0  0  0  0  0  0  0  0
   28.9910   28.1550   48.1320 C   0  0  0  0  0  0  0  0  0  0  0  0
   29.9030   27.3060   48.7070 C   0  0  0  0  0  0  0  0  0  0  0  0
   29.6660   27.0000   50.0480 C   0  0  0  0  0  0  0  0  0  0  0  0
   30.3480   26.3280   50.5900 H   0  0  0  0  0  0  0  0  0  0  0  0
   28.6210   27.4720   50.8100 C   0  0  0  0  0  0  0  0  0  0  0  0
   28.5010   27.1930   51.8460 H   0  0  0  0  0  0  0  0  0  0  0  0
   27.7130   28.3190   50.2310 C   0  0  0  0  0  0  0  0  0  0  0  0
   27.9260   28.6350   48.9050 C   0  0  0  0  0  0  0  0  0  0  0  0
   29.5570   27.6220   45.7230 H   0  0  0  0  0  0  0  0  0  0  0  0
   29.0800   28.6960   46.4970 S   0  0  0  0  0  0  0  0  0  0  0  0
   27.7340   28.9900   45.9120 O   0  0  0  0  0  0  0  0  0  0  0  0
   30.0590   29.8330   46.2910 O   0  0  0  0  0  0  0  0  0  0  0  0
  1  7  1  0  0  0  0
  2 10  1  0  0  0  0
  2  1  2  0  0  0  0
  3  4  2  0  0  0  0
  3  2  1  0  0  0  0
  4  5  1  0  0  0  0
  5  6  2  0  0  0  0
  6  1  1  0  0  0  0
  8  3  1  0  0  0  0
  9 17  1  0  0  0  0
  9 18  1  0  0  0  0
 10  9  2  0  0  0  0
 11 12  2  0  0  0  0
 11 10  1  0  0  0  0
 12 16  1  0  0  0  0
 13 12  1  0  0  0  0
 13 14  1  0  0  0  0
 14 15  2  0  0  0  0
 16 15  1  0  0  0  0
 16 17  2  0  0  0  0
 17 22  1  0  0  0  0
 19 11  1  0  0  0  0
 20 13  1  0  0  0  0
 21 14  1  0  0  0  0
 23  5  1  0  0  0  0
 23 25  1  0  0  0  0
 23 27  1  0  0  0  0
 24 23  1  0  0  0  0
 26 27  2  0  0  0  0
 26 33  1  0  0  0  0
 27 28  1  0  0  0  0
 28 29  1  0  0  0  0
 28 30  2  0  0  0  0
 30 31  1  0  0  0  0
 32 30  1  0  0  0  0
 33 32  2  0  0  0  0
 34 35  1  0  0  0  0
 35 26  1  0  0  0  0
 36 35  2  0  0  0  0
 37 35  2  0  0  0  0
M  END
>  <minimizedAffinity>
-6.66433287

>  <minimizedRMSD>
3.98309517

$$$$
