
 OpenBabel03272502113D

 29 31  0  0  0  0  0  0  0  0999 V2000
   36.7490   30.7950   48.3460 C   0  0  0  0  0  0  0  0  0  0  0  0
   37.4290   31.3700   49.3840 C   0  0  0  0  0  0  0  0  0  0  0  0
   38.4940   32.2630   49.2470 C   0  0  0  0  0  0  0  0  0  0  0  0
   38.8640   32.5690   47.9830 N   0  0  0  0  0  0  0  0  0  0  0  0
   38.2070   32.0130   46.9280 C   0  0  0  0  0  0  0  0  0  0  0  0
   37.2000   31.1690   47.1450 N   0  0  0  0  0  0  0  0  0  0  0  0
   37.1630   31.1510   50.4220 H   0  0  0  0  0  0  0  0  0  0  0  0
   39.0120   32.7020   50.0710 H   0  0  0  0  0  0  0  0  0  0  0  0
   35.5980   28.9300   49.5600 C   0  0  0  0  0  0  0  0  0  0  0  0
   35.6680   29.8860   48.5210 C   0  0  0  0  0  0  0  0  0  0  0  0
   34.6050   29.9150   47.6360 C   0  0  0  0  0  0  0  0  0  0  0  0
   33.5700   29.0480   47.7960 N   0  0  0  0  0  0  0  0  0  0  0  0
   33.5440   28.1500   48.8040 C   0  0  0  0  0  0  0  0  0  0  0  0
   34.5590   28.0950   49.6820 N   0  0  0  0  0  0  0  0  0  0  0  0
   36.4320   28.9040   50.2570 H   0  0  0  0  0  0  0  0  0  0  0  0
   34.5070   30.5830   46.7950 H   0  0  0  0  0  0  0  0  0  0  0  0
   32.6730   27.5050   48.8420 H   0  0  0  0  0  0  0  0  0  0  0  0
   38.1210   31.9290   44.4290 C   0  0  0  0  0  0  0  0  0  0  0  0
   38.6770   32.3940   45.6010 C   0  0  0  0  0  0  0  0  0  0  0  0
   39.7350   33.2620   45.4330 C   0  0  0  0  0  0  0  0  0  0  0  0
   40.2160   33.6640   46.3370 H   0  0  0  0  0  0  0  0  0  0  0  0
   40.2560   33.6820   44.2300 C   0  0  0  0  0  0  0  0  0  0  0  0
   41.0820   34.3620   44.1520 H   0  0  0  0  0  0  0  0  0  0  0  0
   39.6840   33.2040   43.0760 C   0  0  0  0  0  0  0  0  0  0  0  0
   38.6350   32.3410   43.1940 C   0  0  0  0  0  0  0  0  0  0  0  0
   36.3580   30.5590   45.7630 H   0  0  0  0  0  0  0  0  0  0  0  0
   36.7710   30.8170   44.5030 S   0  0  0  0  0  0  0  0  0  0  0  0
   37.2230   29.5100   43.8810 O   0  0  0  0  0  0  0  0  0  0  0  0
   35.6650   31.3250   43.6020 O   0  0  0  0  0  0  0  0  0  0  0  0
  1 10  1  0  0  0  0
  1  2  1  0  0  0  0
  2  7  1  0  0  0  0
  3  2  2  0  0  0  0
  3  8  1  0  0  0  0
  4  3  1  0  0  0  0
  5  6  1  0  0  0  0
  5  4  2  0  0  0  0
  6  1  2  0  0  0  0
  9 14  1  0  0  0  0
  9 15  1  0  0  0  0
 10  9  2  0  0  0  0
 11 12  2  0  0  0  0
 11 10  1  0  0  0  0
 12 13  1  0  0  0  0
 13 17  1  0  0  0  0
 13 14  2  0  0  0  0
 16 11  1  0  0  0  0
 18 27  1  0  0  0  0
 18 19  1  0  0  0  0
 19  5  1  0  0  0  0
 20 19  2  0  0  0  0
 20 21  1  0  0  0  0
 22 20  1  0  0  0  0
 23 22  1  0  0  0  0
 24 25  1  0  0  0  0
 24 22  2  0  0  0  0
 25 18  2  0  0  0  0
 27 26  1  0  0  0  0
 28 27  2  0  0  0  0
 29 27  2  0  0  0  0
M  END
>  <minimizedAffinity>
-5.72393322

>  <minimizedRMSD>
1.96897757

$$$$
