
 OpenBabel03262522203D

 22 23  0  0  0  0  0  0  0  0999 V2000
   36.9750   22.7920   32.5820 C   0  0  0  0  0  0  0  0  0  0  0  0
   37.3410   22.1910   33.7700 C   0  0  0  0  0  0  0  0  0  0  0  0
   36.6440   21.1000   34.2830 C   0  0  0  0  0  0  0  0  0  0  0  0
   36.9540   20.6500   35.2180 H   0  0  0  0  0  0  0  0  0  0  0  0
   35.5590   20.6410   33.5450 C   0  0  0  0  0  0  0  0  0  0  0  0
   34.9990   19.7990   33.9140 H   0  0  0  0  0  0  0  0  0  0  0  0
   35.1920   21.2390   32.3580 C   0  0  0  0  0  3  0  0  0  0  0  0
   35.8980   22.3180   31.8700 C   0  0  0  0  0  3  0  0  0  0  0  0
   39.1990   24.0820   32.2140 H   0  0  0  0  0  0  0  0  0  0  0  0
   37.8630   24.1640   31.9510 S   0  0  0  0  0  0  0  0  0  0  0  0
   37.6670   24.2850   30.4740 O   0  0  0  0  0  0  0  0  0  0  0  0
   37.2630   25.4120   32.5630 O   0  0  0  0  0  0  0  0  0  0  0  0
   38.4310   22.7320   34.4140 O   0  0  0  0  0  0  0  0  0  0  0  0
   39.6610   22.4180   36.3720 C   0  0  0  0  0  0  0  0  0  0  0  0
   38.5290   23.0010   35.7580 C   0  0  0  0  0  0  0  0  0  0  0  0
   37.6880   23.7460   36.5700 C   0  0  0  0  0  0  0  0  0  0  0  0
   37.9850   23.8770   37.8790 N   0  0  0  0  0  0  0  0  0  0  0  0
   39.0650   23.3130   38.4290 C   0  0  0  0  0  0  0  0  0  0  0  0
   39.9270   22.5730   37.6960 N   0  0  0  0  0  0  0  0  0  0  0  0
   40.4120   21.8060   35.8630 H   0  0  0  0  0  0  0  0  0  0  0  0
   36.8420   24.1640   36.0410 H   0  0  0  0  0  0  0  0  0  0  0  0
   39.1250   23.5360   39.4900 H   0  0  0  0  0  0  0  0  0  0  0  0
  1  2  1  0  0  0  0
  2  3  2  0  0  0  0
  2 13  1  0  0  0  0
  3  4  1  0  0  0  0
  5  6  1  0  0  0  0
  5  3  1  0  0  0  0
  7  5  2  0  0  0  0
  8  7  1  0  0  0  0
  8  1  2  0  0  0  0
 10  9  1  0  0  0  0
 10 12  2  0  0  0  0
 10  1  1  0  0  0  0
 11 10  2  0  0  0  0
 13 15  1  0  0  0  0
 14 19  1  0  0  0  0
 15 14  2  0  0  0  0
 15 16  1  0  0  0  0
 16 17  2  0  0  0  0
 17 18  1  0  0  0  0
 18 22  1  0  0  0  0
 19 18  2  0  0  0  0
 20 14  1  0  0  0  0
 21 16  1  0  0  0  0
M  END
>  <minimizedAffinity>
-4.27296686

$$$$

 OpenBabel03262522203D

 22 23  0  0  0  0  0  0  0  0999 V2000
   36.3820   22.0850   32.5390 C   0  0  0  0  0  0  0  0  0  0  0  0
   37.4840   22.6850   33.1180 C   0  0  0  0  0  0  0  0  0  0  0  0
   37.8910   23.9670   32.7610 C   0  0  0  0  0  0  0  0  0  0  0  0
   38.7600   24.4110   33.2320 H   0  0  0  0  0  0  0  0  0  0  0  0
   37.1380   24.6210   31.7920 C   0  0  0  0  0  0  0  0  0  0  0  0
   37.4270   25.6140   31.4930 H   0  0  0  0  0  0  0  0  0  0  0  0
   36.0380   24.0250   31.2130 C   0  0  0  0  0  3  0  0  0  0  0  0
   35.6540   22.7530   31.5830 C   0  0  0  0  0  3  0  0  0  0  0  0
   36.8810   19.5530   32.8410 H   0  0  0  0  0  0  0  0  0  0  0  0
   35.8840   20.4700   33.0020 S   0  0  0  0  0  0  0  0  0  0  0  0
   35.4300   20.4470   34.4260 O   0  0  0  0  0  0  0  0  0  0  0  0
   34.6750   20.1120   32.1640 O   0  0  0  0  0  0  0  0  0  0  0  0
   38.1520   21.9410   34.0650 O   0  0  0  0  0  0  0  0  0  0  0  0
   39.8230   22.2220   35.6690 C   0  0  0  0  0  0  0  0  0  0  0  0
   38.4530   22.3380   35.3460 C   0  0  0  0  0  0  0  0  0  0  0  0
   37.6120   22.8240   36.3360 C   0  0  0  0  0  0  0  0  0  0  0  0
   38.1330   23.1550   37.5350 N   0  0  0  0  0  0  0  0  0  0  0  0
   39.4360   23.0340   37.8090 C   0  0  0  0  0  0  0  0  0  0  0  0
   40.3110   22.5670   36.8910 N   0  0  0  0  0  0  0  0  0  0  0  0
   40.6040   21.8570   34.9950 H   0  0  0  0  0  0  0  0  0  0  0  0
   36.5780   22.8880   36.0260 H   0  0  0  0  0  0  0  0  0  0  0  0
   39.6530   23.3510   38.8250 H   0  0  0  0  0  0  0  0  0  0  0  0
  1 10  1  0  0  0  0
  1  2  1  0  0  0  0
  2 13  1  0  0  0  0
  3  2  2  0  0  0  0
  3  4  1  0  0  0  0
  5  3  1  0  0  0  0
  6  5  1  0  0  0  0
  7  8  1  0  0  0  0
  7  5  2  0  0  0  0
  8  1  2  0  0  0  0
  9 10  1  0  0  0  0
 10 11  2  0  0  0  0
 12 10  2  0  0  0  0
 13 15  1  0  0  0  0
 14 19  1  0  0  0  0
 15 14  2  0  0  0  0
 15 16  1  0  0  0  0
 16 17  2  0  0  0  0
 17 18  1  0  0  0  0
 18 22  1  0  0  0  0
 19 18  2  0  0  0  0
 20 14  1  0  0  0  0
 21 16  1  0  0  0  0
M  END
>  <minimizedAffinity>
-4.2604661

$$$$

 OpenBabel03262522203D

 22 23  0  0  0  0  0  0  0  0999 V2000
   37.2380   25.3120   32.8700 C   0  0  0  0  0  0  0  0  0  0  0  0
   37.8450   24.2020   33.4260 C   0  0  0  0  0  0  0  0  0  0  0  0
   37.5120   22.9100   33.0290 C   0  0  0  0  0  0  0  0  0  0  0  0
   38.0030   22.0600   33.4830 H   0  0  0  0  0  0  0  0  0  0  0  0
   36.5370   22.7850   32.0450 C   0  0  0  0  0  0  0  0  0  0  0  0
   36.2560   21.7990   31.7160 H   0  0  0  0  0  0  0  0  0  0  0  0
   35.9300   23.8910   31.4880 C   0  0  0  0  0  3  0  0  0  0  0  0
   36.2770   25.1610   31.8980 C   0  0  0  0  0  3  0  0  0  0  0  0
   38.9910   27.0360   33.7100 H   0  0  0  0  0  0  0  0  0  0  0  0
   37.6710   26.9310   33.3820 S   0  0  0  0  0  0  0  0  0  0  0  0
   37.3580   27.9240   32.3100 O   0  0  0  0  0  0  0  0  0  0  0  0
   36.7870   27.2840   34.5590 O   0  0  0  0  0  0  0  0  0  0  0  0
   38.7940   24.4490   34.3920 O   0  0  0  0  0  0  0  0  0  0  0  0
   39.6970   23.2560   36.1820 C   0  0  0  0  0  0  0  0  0  0  0  0
   38.6940   24.1410   35.7270 C   0  0  0  0  0  0  0  0  0  0  0  0
   37.7640   24.5710   36.6610 C   0  0  0  0  0  0  0  0  0  0  0  0
   37.8600   24.1330   37.9330 N   0  0  0  0  0  0  0  0  0  0  0  0
   38.8230   23.2950   38.3320 C   0  0  0  0  0  0  0  0  0  0  0  0
   39.7610   22.8370   37.4740 N   0  0  0  0  0  0  0  0  0  0  0  0
   40.4960   22.8340   35.5660 H   0  0  0  0  0  0  0  0  0  0  0  0
   37.0240   25.2450   36.2510 H   0  0  0  0  0  0  0  0  0  0  0  0
   38.7260   23.0630   39.3890 H   0  0  0  0  0  0  0  0  0  0  0  0
  1 10  1  0  0  0  0
  1  2  1  0  0  0  0
  2 13  1  0  0  0  0
  3  2  2  0  0  0  0
  3  4  1  0  0  0  0
  5  3  1  0  0  0  0
  6  5  1  0  0  0  0
  7  8  1  0  0  0  0
  7  5  2  0  0  0  0
  8  1  2  0  0  0  0
 10  9  1  0  0  0  0
 10 12  2  0  0  0  0
 11 10  2  0  0  0  0
 13 15  1  0  0  0  0
 14 19  1  0  0  0  0
 15 14  2  0  0  0  0
 15 16  1  0  0  0  0
 16 17  2  0  0  0  0
 17 18  1  0  0  0  0
 18 22  1  0  0  0  0
 19 18  2  0  0  0  0
 20 14  1  0  0  0  0
 21 16  1  0  0  0  0
M  END
>  <minimizedAffinity>
-4.2211585

$$$$

 OpenBabel03262522203D

 22 23  0  0  0  0  0  0  0  0999 V2000
   39.8850   23.2450   36.4530 C   0  0  0  0  0  0  0  0  0  0  0  0
   38.9680   24.1630   35.9770 C   0  0  0  0  0  0  0  0  0  0  0  0
   37.9680   24.6870   36.7900 C   0  0  0  0  0  0  0  0  0  0  0  0
   37.2630   25.4040   36.3880 H   0  0  0  0  0  0  0  0  0  0  0  0
   37.9310   24.2460   38.1080 C   0  0  0  0  0  0  0  0  0  0  0  0
   37.1680   24.6320   38.7630 H   0  0  0  0  0  0  0  0  0  0  0  0
   38.8450   23.3310   38.5860 C   0  0  0  0  0  3  0  0  0  0  0  0
   39.8270   22.8250   37.7610 C   0  0  0  0  0  3  0  0  0  0  0  0
   40.6820   22.3230   34.1590 H   0  0  0  0  0  0  0  0  0  0  0  0
   41.1380   22.5970   35.4150 S   0  0  0  0  0  0  0  0  0  0  0  0
   42.2860   23.5500   35.3160 O   0  0  0  0  0  0  0  0  0  0  0  0
   41.6780   21.3500   36.0820 O   0  0  0  0  0  0  0  0  0  0  0  0
   39.1030   24.5250   34.6550 O   0  0  0  0  0  0  0  0  0  0  0  0
   37.8120   23.1660   33.2650 C   0  0  0  0  0  0  0  0  0  0  0  0
   38.1210   24.4770   33.6960 C   0  0  0  0  0  0  0  0  0  0  0  0
   37.4120   25.5140   33.1090 C   0  0  0  0  0  0  0  0  0  0  0  0
   36.4820   25.2280   32.1760 N   0  0  0  0  0  0  0  0  0  0  0  0
   36.2130   23.9760   31.7910 C   0  0  0  0  0  0  0  0  0  0  0  0
   36.8660   22.9190   32.3200 N   0  0  0  0  0  0  0  0  0  0  0  0
   38.2850   22.2510   33.6340 H   0  0  0  0  0  0  0  0  0  0  0  0
   37.6950   26.4900   33.4800 H   0  0  0  0  0  0  0  0  0  0  0  0
   35.4360   23.9590   31.0320 H   0  0  0  0  0  0  0  0  0  0  0  0
  1  8  1  0  0  0  0
  2  1  2  0  0  0  0
  2  3  1  0  0  0  0
  3  5  2  0  0  0  0
  4  3  1  0  0  0  0
  5  7  1  0  0  0  0
  5  6  1  0  0  0  0
  8  7  2  0  0  0  0
  9 10  1  0  0  0  0
 10 12  2  0  0  0  0
 10  1  1  0  0  0  0
 11 10  2  0  0  0  0
 13  2  1  0  0  0  0
 14 20  1  0  0  0  0
 14 15  1  0  0  0  0
 15 13  1  0  0  0  0
 16 21  1  0  0  0  0
 16 15  2  0  0  0  0
 17 16  1  0  0  0  0
 18 17  2  0  0  0  0
 18 19  1  0  0  0  0
 19 14  2  0  0  0  0
 22 18  1  0  0  0  0
M  END
>  <minimizedAffinity>
-4.20959377

$$$$

 OpenBabel03262522203D

 22 23  0  0  0  0  0  0  0  0999 V2000
   37.0600   25.8180   33.0220 C   0  0  0  0  0  0  0  0  0  0  0  0
   37.5950   25.6230   34.2820 C   0  0  0  0  0  0  0  0  0  0  0  0
   37.6730   26.6560   35.2110 C   0  0  0  0  0  0  0  0  0  0  0  0
   38.0970   26.4730   36.1900 H   0  0  0  0  0  0  0  0  0  0  0  0
   37.1890   27.8980   34.8160 C   0  0  0  0  0  0  0  0  0  0  0  0
   37.2350   28.7180   35.5120 H   0  0  0  0  0  0  0  0  0  0  0  0
   36.6550   28.0960   33.5600 C   0  0  0  0  0  3  0  0  0  0  0  0
   36.5880   27.0560   32.6560 C   0  0  0  0  0  3  0  0  0  0  0  0
   36.7540   23.2990   32.4650 H   0  0  0  0  0  0  0  0  0  0  0  0
   36.9700   24.5050   31.8660 S   0  0  0  0  0  0  0  0  0  0  0  0
   35.8820   24.7540   30.8710 O   0  0  0  0  0  0  0  0  0  0  0  0
   38.2660   24.5010   31.0840 O   0  0  0  0  0  0  0  0  0  0  0  0
   38.0430   24.3510   34.5610 O   0  0  0  0  0  0  0  0  0  0  0  0
   37.5450   23.8610   36.7870 C   0  0  0  0  0  0  0  0  0  0  0  0
   38.5240   23.9060   35.7680 C   0  0  0  0  0  0  0  0  0  0  0  0
   39.8070   23.5080   36.1110 C   0  0  0  0  0  0  0  0  0  0  0  0
   40.0540   23.1040   37.3740 N   0  0  0  0  0  0  0  0  0  0  0  0
   39.1040   23.0730   38.3150 C   0  0  0  0  0  0  0  0  0  0  0  0
   37.8340   23.4480   38.0500 N   0  0  0  0  0  0  0  0  0  0  0  0
   36.4950   24.1440   36.6690 H   0  0  0  0  0  0  0  0  0  0  0  0
   40.5080   23.5650   35.2890 H   0  0  0  0  0  0  0  0  0  0  0  0
   39.5040   22.7200   39.2620 H   0  0  0  0  0  0  0  0  0  0  0  0
  1  2  1  0  0  0  0
  2 13  1  0  0  0  0
  2  3  2  0  0  0  0
  3  4  1  0  0  0  0
  5  3  1  0  0  0  0
  5  6  1  0  0  0  0
  7  5  2  0  0  0  0
  8  1  2  0  0  0  0
  8  7  1  0  0  0  0
 10  9  1  0  0  0  0
 10  1  1  0  0  0  0
 11 10  2  0  0  0  0
 12 10  2  0  0  0  0
 13 15  1  0  0  0  0
 14 19  1  0  0  0  0
 15 16  1  0  0  0  0
 15 14  2  0  0  0  0
 16 17  2  0  0  0  0
 17 18  1  0  0  0  0
 18 22  1  0  0  0  0
 19 18  2  0  0  0  0
 20 14  1  0  0  0  0
 21 16  1  0  0  0  0
M  END
>  <minimizedAffinity>
-4.14661169

$$$$

 OpenBabel03262522203D

 22 23  0  0  0  0  0  0  0  0999 V2000
   38.3450   24.6980   35.7700 C   0  0  0  0  0  0  0  0  0  0  0  0
   38.3150   24.7390   34.3900 C   0  0  0  0  0  0  0  0  0  0  0  0
   38.2320   25.9430   33.6950 C   0  0  0  0  0  0  0  0  0  0  0  0
   38.2100   25.9430   32.6130 H   0  0  0  0  0  0  0  0  0  0  0  0
   38.1780   27.1060   34.4550 C   0  0  0  0  0  0  0  0  0  0  0  0
   38.1120   28.0540   33.9480 H   0  0  0  0  0  0  0  0  0  0  0  0
   38.2070   27.0680   35.8330 C   0  0  0  0  0  3  0  0  0  0  0  0
   38.2910   25.8630   36.4980 C   0  0  0  0  0  3  0  0  0  0  0  0
   39.2000   22.2510   35.9560 H   0  0  0  0  0  0  0  0  0  0  0  0
   38.4510   23.1730   36.6270 S   0  0  0  0  0  0  0  0  0  0  0  0
   39.0360   23.3740   37.9880 O   0  0  0  0  0  0  0  0  0  0  0  0
   37.0380   22.6750   36.8410 O   0  0  0  0  0  0  0  0  0  0  0  0
   38.3740   23.5240   33.7440 O   0  0  0  0  0  0  0  0  0  0  0  0
   37.0290   21.6410   33.4450 C   0  0  0  0  0  0  0  0  0  0  0  0
   37.3660   22.9430   33.0130 C   0  0  0  0  0  0  0  0  0  0  0  0
   36.6560   23.4520   31.9370 C   0  0  0  0  0  0  0  0  0  0  0  0
   35.6970   22.6940   31.3660 N   0  0  0  0  0  0  0  0  0  0  0  0
   35.4020   21.4640   31.8000 C   0  0  0  0  0  0  0  0  0  0  0  0
   36.0550   20.9070   32.8430 N   0  0  0  0  0  0  0  0  0  0  0  0
   37.5000   21.1080   34.2770 H   0  0  0  0  0  0  0  0  0  0  0  0
   36.9610   24.4510   31.6550 H   0  0  0  0  0  0  0  0  0  0  0  0
   34.6050   21.0220   31.2090 H   0  0  0  0  0  0  0  0  0  0  0  0
  1  8  1  0  0  0  0
  1 10  1  0  0  0  0
  2  1  2  0  0  0  0
  3  2  1  0  0  0  0
  3  5  2  0  0  0  0
  4  3  1  0  0  0  0
  5  7  1  0  0  0  0
  6  5  1  0  0  0  0
  7  8  2  0  0  0  0
  9 10  1  0  0  0  0
 10 12  2  0  0  0  0
 10 11  2  0  0  0  0
 13  2  1  0  0  0  0
 14 20  1  0  0  0  0
 15 14  1  0  0  0  0
 15 13  1  0  0  0  0
 16 15  2  0  0  0  0
 17 18  2  0  0  0  0
 17 16  1  0  0  0  0
 18 19  1  0  0  0  0
 19 14  2  0  0  0  0
 21 16  1  0  0  0  0
 22 18  1  0  0  0  0
M  END
>  <minimizedAffinity>
-4.13507795

$$$$

 OpenBabel03262522203D

 22 23  0  0  0  0  0  0  0  0999 V2000
   39.6810   23.1280   37.1500 C   0  0  0  0  0  0  0  0  0  0  0  0
   39.8530   23.8790   36.0030 C   0  0  0  0  0  0  0  0  0  0  0  0
   41.0080   23.7820   35.2320 C   0  0  0  0  0  0  0  0  0  0  0  0
   41.1150   24.3840   34.3380 H   0  0  0  0  0  0  0  0  0  0  0  0
   41.9850   22.8940   35.6680 C   0  0  0  0  0  0  0  0  0  0  0  0
   42.8900   22.7960   35.0930 H   0  0  0  0  0  0  0  0  0  0  0  0
   41.8160   22.1430   36.8120 C   0  0  0  0  0  3  0  0  0  0  0  0
   40.6630   22.2560   37.5600 C   0  0  0  0  0  3  0  0  0  0  0  0
   38.2660   22.4940   39.2350 H   0  0  0  0  0  0  0  0  0  0  0  0
   38.2210   23.2620   38.1080 S   0  0  0  0  0  0  0  0  0  0  0  0
   37.9770   24.6840   38.5010 O   0  0  0  0  0  0  0  0  0  0  0  0
   37.0610   22.8610   37.2230 O   0  0  0  0  0  0  0  0  0  0  0  0
   38.8190   24.7240   35.6700 O   0  0  0  0  0  0  0  0  0  0  0  0
   37.9920   23.4690   33.8860 C   0  0  0  0  0  0  0  0  0  0  0  0
   38.1380   24.7440   34.4770 C   0  0  0  0  0  0  0  0  0  0  0  0
   37.5910   25.8200   33.7950 C   0  0  0  0  0  0  0  0  0  0  0  0
   36.9590   25.6020   32.6230 N   0  0  0  0  0  0  0  0  0  0  0  0
   36.8380   24.3810   32.0910 C   0  0  0  0  0  0  0  0  0  0  0  0
   37.3480   23.2890   32.7020 N   0  0  0  0  0  0  0  0  0  0  0  0
   38.3690   22.5310   34.3040 H   0  0  0  0  0  0  0  0  0  0  0  0
   37.7360   26.7660   34.2980 H   0  0  0  0  0  0  0  0  0  0  0  0
   36.2990   24.4180   31.1490 H   0  0  0  0  0  0  0  0  0  0  0  0
  1  8  1  0  0  0  0
  1 10  1  0  0  0  0
  2  1  2  0  0  0  0
  3  5  2  0  0  0  0
  3  2  1  0  0  0  0
  4  3  1  0  0  0  0
  5  7  1  0  0  0  0
  6  5  1  0  0  0  0
  7  8  2  0  0  0  0
 10 11  2  0  0  0  0
 10  9  1  0  0  0  0
 12 10  2  0  0  0  0
 13  2  1  0  0  0  0
 14 20  1  0  0  0  0
 14 15  1  0  0  0  0
 15 13  1  0  0  0  0
 16 21  1  0  0  0  0
 16 15  2  0  0  0  0
 17 16  1  0  0  0  0
 18 17  2  0  0  0  0
 18 19  1  0  0  0  0
 19 14  2  0  0  0  0
 22 18  1  0  0  0  0
M  END
>  <minimizedAffinity>
-4.11563683

$$$$

 OpenBabel03262522203D

 22 23  0  0  0  0  0  0  0  0999 V2000
   36.3880   23.7760   31.9480 C   0  0  0  0  0  0  0  0  0  0  0  0
   37.2030   24.6940   32.5840 C   0  0  0  0  0  0  0  0  0  0  0  0
   37.0300   26.0650   32.4160 C   0  0  0  0  0  0  0  0  0  0  0  0
   37.6840   26.7600   32.9270 H   0  0  0  0  0  0  0  0  0  0  0  0
   35.9990   26.4730   31.5770 C   0  0  0  0  0  0  0  0  0  0  0  0
   35.8390   27.5270   31.4260 H   0  0  0  0  0  0  0  0  0  0  0  0
   35.1850   25.5590   30.9410 C   0  0  0  0  0  3  0  0  0  0  0  0
   35.3750   24.2060   31.1230 C   0  0  0  0  0  3  0  0  0  0  0  0
   37.6130   21.7760   33.0640 H   0  0  0  0  0  0  0  0  0  0  0  0
   36.6200   22.0550   32.1720 S   0  0  0  0  0  0  0  0  0  0  0  0
   35.3550   21.4090   32.6370 O   0  0  0  0  0  0  0  0  0  0  0  0
   36.9260   21.4590   30.8140 O   0  0  0  0  0  0  0  0  0  0  0  0
   38.1900   24.1730   33.3900 O   0  0  0  0  0  0  0  0  0  0  0  0
   38.2240   25.2480   35.4610 C   0  0  0  0  0  0  0  0  0  0  0  0
   38.1310   24.0270   34.7550 C   0  0  0  0  0  0  0  0  0  0  0  0
   37.9980   22.8730   35.5110 C   0  0  0  0  0  0  0  0  0  0  0  0
   37.9630   22.9690   36.8560 N   0  0  0  0  0  0  0  0  0  0  0  0
   38.0520   24.1410   37.4930 C   0  0  0  0  0  0  0  0  0  0  0  0
   38.1850   25.3040   36.8190 N   0  0  0  0  0  0  0  0  0  0  0  0
   38.3330   26.2370   35.0040 H   0  0  0  0  0  0  0  0  0  0  0  0
   37.9320   21.9740   34.9130 H   0  0  0  0  0  0  0  0  0  0  0  0
   38.0050   24.0050   38.5700 H   0  0  0  0  0  0  0  0  0  0  0  0
  1 10  1  0  0  0  0
  1  2  1  0  0  0  0
  2 13  1  0  0  0  0
  3  2  2  0  0  0  0
  3  4  1  0  0  0  0
  5  3  1  0  0  0  0
  6  5  1  0  0  0  0
  7  8  1  0  0  0  0
  7  5  2  0  0  0  0
  8  1  2  0  0  0  0
 10 11  2  0  0  0  0
 10  9  1  0  0  0  0
 12 10  2  0  0  0  0
 13 15  1  0  0  0  0
 14 19  1  0  0  0  0
 15 14  2  0  0  0  0
 15 16  1  0  0  0  0
 16 17  2  0  0  0  0
 17 18  1  0  0  0  0
 18 22  1  0  0  0  0
 19 18  2  0  0  0  0
 20 14  1  0  0  0  0
 21 16  1  0  0  0  0
M  END
>  <minimizedAffinity>
-4.10684824

$$$$

 OpenBabel03262522203D

 22 23  0  0  0  0  0  0  0  0999 V2000
   38.1530   25.2390   32.6710 C   0  0  0  0  0  0  0  0  0  0  0  0
   38.7280   25.0670   33.9150 C   0  0  0  0  0  0  0  0  0  0  0  0
   39.6720   25.9600   34.4140 C   0  0  0  0  0  0  0  0  0  0  0  0
   40.1070   25.7990   35.3930 H   0  0  0  0  0  0  0  0  0  0  0  0
   40.0140   27.0350   33.6020 C   0  0  0  0  0  0  0  0  0  0  0  0
   40.7420   27.7440   33.9580 H   0  0  0  0  0  0  0  0  0  0  0  0
   39.4420   27.2100   32.3600 C   0  0  0  0  0  3  0  0  0  0  0  0
   38.5080   26.3120   31.8870 C   0  0  0  0  0  3  0  0  0  0  0  0
   36.7110   23.0940   32.9400 H   0  0  0  0  0  0  0  0  0  0  0  0
   36.9650   24.1050   32.0600 S   0  0  0  0  0  0  0  0  0  0  0  0
   35.6820   24.8060   31.7440 O   0  0  0  0  0  0  0  0  0  0  0  0
   37.4890   23.5660   30.7460 O   0  0  0  0  0  0  0  0  0  0  0  0
   38.3130   23.9660   34.6290 O   0  0  0  0  0  0  0  0  0  0  0  0
   37.6600   24.2660   36.8490 C   0  0  0  0  0  0  0  0  0  0  0  0
   38.5910   23.7010   35.9480 C   0  0  0  0  0  0  0  0  0  0  0  0
   39.6360   22.9740   36.4980 C   0  0  0  0  0  0  0  0  0  0  0  0
   39.7110   22.8430   37.8380 N   0  0  0  0  0  0  0  0  0  0  0  0
   38.8130   23.3900   38.6640 C   0  0  0  0  0  0  0  0  0  0  0  0
   37.7710   24.1120   38.1960 N   0  0  0  0  0  0  0  0  0  0  0  0
   36.7880   24.8630   36.5670 H   0  0  0  0  0  0  0  0  0  0  0  0
   40.3120   22.5680   35.7570 H   0  0  0  0  0  0  0  0  0  0  0  0
   39.0510   23.1710   39.7010 H   0  0  0  0  0  0  0  0  0  0  0  0
  1  2  1  0  0  0  0
  2  3  2  0  0  0  0
  2 13  1  0  0  0  0
  3  4  1  0  0  0  0
  5  6  1  0  0  0  0
  5  3  1  0  0  0  0
  7  5  2  0  0  0  0
  8  7  1  0  0  0  0
  8  1  2  0  0  0  0
 10  1  1  0  0  0  0
 10  9  1  0  0  0  0
 11 10  2  0  0  0  0
 12 10  2  0  0  0  0
 13 15  1  0  0  0  0
 14 19  1  0  0  0  0
 15 16  1  0  0  0  0
 15 14  2  0  0  0  0
 16 17  2  0  0  0  0
 17 18  1  0  0  0  0
 18 22  1  0  0  0  0
 19 18  2  0  0  0  0
 20 14  1  0  0  0  0
 21 16  1  0  0  0  0
M  END
>  <minimizedAffinity>
-4.0944066

$$$$
