
 OpenBabel03272504093D

 36 38  0  0  0  0  0  0  0  0999 V2000
   36.5960   30.6840   49.7800 C   0  0  0  0  0  0  0  0  0  0  0  0
   36.4330   30.6590   48.4070 C   0  0  0  0  0  0  0  0  0  0  0  0
   35.2060   30.2090   47.8480 C   0  0  0  0  0  0  0  0  0  0  0  0
   34.2520   29.8230   48.7140 N   0  0  0  0  0  0  0  0  0  0  0  0
   34.4380   29.8570   50.0680 C   0  0  0  0  0  0  0  0  0  0  0  0
   35.6030   30.2850   50.5820 N   0  0  0  0  0  0  0  0  0  0  0  0
   33.3590   29.4300   50.9010 N   0  0  0  0  0  0  0  0  0  0  0  0
   37.5590   31.0390   50.1870 H   0  0  0  0  0  0  0  0  0  0  0  0
   33.0340   28.4690   51.0640 H   0  0  0  0  0  0  0  0  0  0  0  0
   32.9770   30.3310   51.3060 H   0  0  0  0  0  0  0  0  0  0  0  0
   37.9030   33.2520   49.0320 Cl  0  0  0  0  0  0  0  0  0  0  0  0
   38.3310   32.2440   47.6800 C   0  0  0  0  0  0  0  0  0  0  0  0
   37.5620   31.1180   47.5690 C   0  0  0  0  0  0  0  0  0  0  0  0
   37.8430   30.2410   46.5120 C   0  0  0  0  0  0  0  0  0  0  0  0
   38.8280   30.4690   45.6160 C   0  0  0  0  0  0  0  0  0  0  0  0
   39.5950   31.6200   45.7490 C   0  0  0  0  0  0  0  0  0  0  0  0
   40.8800   31.9680   44.6230 Cl  0  0  0  0  0  0  0  0  0  0  0  0
   39.3390   32.4770   46.7620 C   0  0  0  0  0  0  0  0  0  0  0  0
   37.3180   29.3130   46.3280 H   0  0  0  0  0  0  0  0  0  0  0  0
   39.0880   29.8220   44.7790 H   0  0  0  0  0  0  0  0  0  0  0  0
   39.9100   33.4070   46.9220 H   0  0  0  0  0  0  0  0  0  0  0  0
   35.0550   30.2130   46.3960 C   0  0  0  0  0  0  0  0  0  0  0  0
   35.4430   31.1720   46.0040 H   0  0  0  0  0  0  0  0  0  0  0  0
   35.7380   29.4320   45.9650 H   0  0  0  0  0  0  0  0  0  0  0  0
   33.0740   28.7990   45.6090 C   0  0  0  0  0  0  0  0  0  0  0  0
   33.6660   30.0070   45.9170 C   0  0  0  0  0  0  0  0  0  0  0  0
   32.8480   31.1240   45.7840 C   0  0  0  0  0  0  0  0  0  0  0  0
   33.2810   32.1080   46.0220 H   0  0  0  0  0  0  0  0  0  0  0  0
   31.5330   31.1200   45.3800 C   0  0  0  0  0  0  0  0  0  0  0  0
   30.9920   32.0790   45.3160 H   0  0  0  0  0  0  0  0  0  0  0  0
   30.9580   29.8970   45.0750 C   0  0  0  0  0  3  0  0  0  0  0  0
   31.7600   28.7760   45.2030 C   0  0  0  0  0  3  0  0  0  0  0  0
   35.3370   27.6550   45.4890 H   0  0  0  0  0  0  0  0  0  0  0  0
   34.0330   27.3580   45.7220 S   0  0  0  0  0  0  0  0  0  0  0  0
   33.9550   26.8200   47.1490 O   0  0  0  0  0  0  0  0  0  0  0  0
   33.5120   26.2400   44.8640 O   0  0  0  0  0  0  0  0  0  0  0  0
  1  8  1  0  0  0  0
  1  6  1  0  0  0  0
  2  1  2  0  0  0  0
  3  2  1  0  0  0  0
  3  4  2  0  0  0  0
  4  5  1  0  0  0  0
  5  6  2  0  0  0  0
  5  7  1  0  0  0  0
  7  9  1  0  0  0  0
  7 10  1  0  0  0  0
 12 11  1  0  0  0  0
 13 12  1  0  0  0  0
 13  2  1  0  0  0  0
 14 13  2  0  0  0  0
 15 16  2  0  0  0  0
 15 14  1  0  0  0  0
 16 18  1  0  0  0  0
 17 16  1  0  0  0  0
 18 21  1  0  0  0  0
 18 12  2  0  0  0  0
 19 14  1  0  0  0  0
 20 15  1  0  0  0  0
 22  3  1  0  0  0  0
 23 22  1  0  0  0  0
 24 22  1  0  0  0  0
 25 34  1  0  0  0  0
 25 26  1  0  0  0  0
 26 22  1  0  0  0  0
 27 26  2  0  0  0  0
 27 28  1  0  0  0  0
 29 27  1  0  0  0  0
 30 29  1  0  0  0  0
 31 32  1  0  0  0  0
 31 29  2  0  0  0  0
 32 25  2  0  0  0  0
 33 34  1  0  0  0  0
 34 35  2  0  0  0  0
 36 34  2  0  0  0  0
M  END
>  <minimizedAffinity>
-5.26964521

>  <minimizedRMSD>
1.69547474

$$$$
