
 OpenBabel03262520473D

 37 39  0  0  1  0  0  0  0  0999 V2000
   38.6600   32.3780   46.9360 C   0  0  1  0  0  0  0  0  0  0  0  0
   39.8680   33.2150   46.4940 C   0  0  0  0  0  0  0  0  0  0  0  0
   39.9360   31.7520   46.5470 C   0  0  2  0  0  0  0  0  0  0  0  0
   37.8250   32.3850   46.2280 H   0  0  0  0  0  0  0  0  0  0  0  0
   39.7830   33.7560   45.5360 H   0  0  0  0  0  0  0  0  0  0  0  0
   40.4010   33.8120   47.2680 H   0  0  0  0  0  0  0  0  0  0  0  0
   40.5270   31.3320   47.4120 H   0  0  0  0  0  0  0  0  0  0  0  0
   38.3020   32.5540   48.3960 C   0  0  0  0  0  0  0  0  0  0  0  0
   39.2280   32.8020   48.9560 H   0  0  0  0  0  0  0  0  0  0  0  0
   37.6080   33.4270   48.4490 H   0  0  0  0  0  0  0  0  0  0  0  0
   37.4740   29.7930   50.7840 C   0  0  0  0  0  0  0  0  0  0  0  0
   38.0650   30.9600   50.2140 C   0  0  0  0  0  0  0  0  0  0  0  0
   37.6650   31.3370   48.9520 C   0  0  0  0  0  0  0  0  0  0  0  0
   36.7380   30.6020   48.3030 N   0  0  0  0  0  0  0  0  0  0  0  0
   36.1900   29.5020   48.8550 C   0  0  0  0  0  0  0  0  0  0  0  0
   36.5590   29.1060   50.0880 N   0  0  0  0  0  0  0  0  0  0  0  0
   37.8120   29.5350   51.7640 H   0  0  0  0  0  0  0  0  0  0  0  0
   38.8080   31.5290   50.7610 H   0  0  0  0  0  0  0  0  0  0  0  0
   35.4480   28.9240   48.3190 H   0  0  0  0  0  0  0  0  0  0  0  0
   39.8830   30.8800   45.3200 C   0  0  0  0  0  0  0  0  0  0  0  0
   40.4570   29.9360   45.5310 H   0  0  0  0  0  0  0  0  0  0  0  0
   38.8600   30.5430   45.1210 H   0  0  0  0  0  0  0  0  0  0  0  0
   40.5530   31.4860   44.1190 C   0  0  0  0  0  0  0  0  0  0  0  0
   41.6620   31.3670   44.3180 H   0  0  0  0  0  0  0  0  0  0  0  0
   40.4280   32.5830   44.0510 H   0  0  0  0  0  0  0  0  0  0  0  0
   39.3650   31.1480   41.9310 C   0  0  0  0  0  0  0  0  0  0  0  0
   40.2890   30.7390   42.8870 C   0  0  0  0  0  0  0  0  0  0  0  0
   40.9380   29.5560   42.5590 C   0  0  0  0  0  0  0  0  0  0  0  0
   41.6720   29.2200   43.3090 H   0  0  0  0  0  0  0  0  0  0  0  0
   40.7810   28.7670   41.4410 C   0  0  0  0  0  0  0  0  0  0  0  0
   41.3680   27.8750   41.3440 H   0  0  0  0  0  0  0  0  0  0  0  0
   39.8470   29.2290   40.5290 C   0  0  0  0  0  3  0  0  0  0  0  0
   39.1410   30.4080   40.7630 C   0  0  0  0  0  3  0  0  0  0  0  0
   37.5560   32.6480   41.0750 H   0  0  0  0  0  0  0  0  0  0  0  0
   38.4500   32.5890   42.1440 S   0  0  0  0  0  0  0  0  0  0  0  0
   37.5310   32.5380   43.3570 O   0  0  0  0  0  0  0  0  0  0  0  0
   39.2020   33.8580   42.0770 O   0  0  0  0  0  0  0  0  0  0  0  0
  1  4  1  6  0  0  0
  1  8  1  0  0  0  0
  2  3  1  0  0  0  0
  2  1  1  0  0  0  0
  2  6  1  0  0  0  0
  3  1  1  0  0  0  0
  3  7  1  1  0  0  0
  5  2  1  0  0  0  0
  8 10  1  0  0  0  0
  8 13  1  0  0  0  0
  8  9  1  0  0  0  0
 11 17  1  0  0  0  0
 12 18  1  0  0  0  0
 12 11  1  0  0  0  0
 13 12  2  0  0  0  0
 14 15  2  0  0  0  0
 14 13  1  0  0  0  0
 15 16  1  0  0  0  0
 16 11  2  0  0  0  0
 19 15  1  0  0  0  0
 20 21  1  0  0  0  0
 20  3  1  0  0  0  0
 22 20  1  0  0  0  0
 23 24  1  0  0  0  0
 23 20  1  0  0  0  0
 25 23  1  0  0  0  0
 26 35  1  0  0  0  0
 26 27  1  0  0  0  0
 27 23  1  0  0  0  0
 28 27  2  0  0  0  0
 28 29  1  0  0  0  0
 30 28  1  0  0  0  0
 31 30  1  0  0  0  0
 32 33  1  0  0  0  0
 32 30  2  0  0  0  0
 33 26  2  0  0  0  0
 34 35  1  0  0  0  0
 35 36  2  0  0  0  0
 37 35  2  0  0  0  0
M  END
>  <minimizedAffinity>
-5.13803291

>  <minimizedRMSD>
0.955877841

$$$$
