
 OpenBabel03272505523D

 47 50  0  0  1  0  0  0  0  0999 V2000
   35.1400   29.8620   45.4620 N   0  0  2  0  0  0  0  0  0  0  0  0
   36.5350   30.3090   45.5940 C   0  0  0  0  0  0  0  0  0  0  0  0
   37.0440   30.5500   44.1940 C   0  0  0  0  0  0  0  0  0  0  0  0
   35.8590   30.4250   43.3310 C   0  0  0  0  0  0  0  0  0  0  0  0
   34.6640   30.4170   44.2560 C   0  0  1  0  0  0  0  0  0  0  0  0
   37.1050   29.4840   46.0870 H   0  0  0  0  0  0  0  0  0  0  0  0
   36.5290   31.2410   46.1930 H   0  0  0  0  0  0  0  0  0  0  0  0
   37.5210   31.5730   44.1820 H   0  0  0  0  0  0  0  0  0  0  0  0
   37.7990   29.7610   43.9340 H   0  0  0  0  0  0  0  0  0  0  0  0
   35.8580   29.6010   42.6140 H   0  0  0  0  0  0  0  0  0  0  0  0
   35.8790   31.3340   42.6480 H   0  0  0  0  0  0  0  0  0  0  0  0
   34.4910   31.5040   44.3450 H   0  0  0  0  0  0  0  0  0  0  0  0
   37.2230   29.2460   50.3420 C   0  0  0  0  0  0  0  0  0  0  0  0
   37.3240   30.5800   50.7610 C   0  0  0  0  0  0  0  0  0  0  0  0
   36.5160   31.5160   50.1050 C   0  0  0  0  0  0  0  0  0  0  0  0
   35.6940   31.0760   49.1160 N   0  0  0  0  0  0  0  0  0  0  0  0
   35.6380   29.7820   48.7550 C   0  0  0  0  0  0  0  0  0  0  0  0
   36.3960   28.8760   49.3650 N   0  0  0  0  0  0  0  0  0  0  0  0
   34.7540   29.3990   47.7150 N   0  0  0  0  0  0  0  0  0  0  0  0
   34.1680   28.0780   47.6790 C   0  0  0  0  0  0  0  0  0  0  0  0
   32.6810   28.1650   47.5510 C   0  0  0  0  0  0  0  0  0  0  0  0
   32.1740   29.3790   47.1800 N   0  0  0  0  0  0  0  0  0  0  0  0
   32.9610   30.3640   46.4760 C   0  0  0  0  0  0  0  0  0  0  0  0
   34.3870   30.3010   46.6380 C   0  0  2  0  0  0  0  0  0  0  0  0
   37.8290   28.4920   50.8230 H   0  0  0  0  0  0  0  0  0  0  0  0
   38.0000   30.8590   51.5560 H   0  0  0  0  0  0  0  0  0  0  0  0
   36.5560   32.5530   50.3890 H   0  0  0  0  0  0  0  0  0  0  0  0
   34.3620   27.6170   48.6970 H   0  0  0  0  0  0  0  0  0  0  0  0
   34.6460   27.3980   46.9820 H   0  0  0  0  0  0  0  0  0  0  0  0
   32.1460   27.7900   48.4480 H   0  0  0  0  0  0  0  0  0  0  0  0
   32.4040   27.4040   46.7580 H   0  0  0  0  0  0  0  0  0  0  0  0
   31.2510   29.6860   47.4880 H   0  0  0  0  0  0  0  0  0  0  0  0
   32.4170   30.4870   45.5690 H   0  0  0  0  0  0  0  0  0  0  0  0
   32.6220   31.3110   47.0470 H   0  0  0  0  0  0  0  0  0  0  0  0
   34.8300   31.3030   46.9270 H   0  0  0  0  0  0  0  0  0  0  0  0
   33.6180   28.3330   43.4360 C   0  0  0  0  0  0  0  0  0  0  0  0
   33.6240   29.7130   43.4970 C   0  0  0  0  0  0  0  0  0  0  0  0
   32.5850   30.3390   42.8090 C   0  0  0  0  0  0  0  0  0  0  0  0
   32.5500   31.4220   42.8290 H   0  0  0  0  0  0  0  0  0  0  0  0
   31.5840   29.7200   42.0970 C   0  0  0  0  0  0  0  0  0  0  0  0
   30.8250   30.2940   41.5990 H   0  0  0  0  0  0  0  0  0  0  0  0
   31.6010   28.3430   42.0520 C   0  0  0  0  0  3  0  0  0  0  0  0
   32.6060   27.6770   42.7130 C   0  0  0  0  0  3  0  0  0  0  0  0
   35.5790   27.6560   45.0640 H   0  0  0  0  0  0  0  0  0  0  0  0
   34.7480   27.2730   44.1220 S   0  0  0  0  0  0  0  0  0  0  0  0
   35.6060   26.6810   43.0000 O   0  0  0  0  0  0  0  0  0  0  0  0
   34.0030   26.0480   44.6590 O   0  0  0  0  0  0  0  0  0  0  0  0
  1  2  1  1  0  0  0
  1 24  1  0  0  0  0
  2  6  1  0  0  0  0
  2  7  1  0  0  0  0
  3  2  1  0  0  0  0
  4  3  1  0  0  0  0
  4  5  1  0  0  0  0
  5 12  1  1  0  0  0
  5  1  1  0  0  0  0
  8  3  1  0  0  0  0
  9  3  1  0  0  0  0
 10  4  1  0  0  0  0
 11  4  1  0  0  0  0
 13 14  1  0  0  0  0
 13 25  1  0  0  0  0
 14 26  1  0  0  0  0
 15 27  1  0  0  0  0
 15 14  2  0  0  0  0
 16 15  1  0  0  0  0
 17 16  2  0  0  0  0
 17 18  1  0  0  0  0
 18 13  2  0  0  0  0
 19 17  1  0  0  0  0
 20 19  1  0  0  0  0
 20 28  1  0  0  0  0
 21 20  1  0  0  0  0
 21 30  1  0  0  0  0
 22 32  1  0  0  0  0
 22 21  1  0  0  0  0
 23 24  1  0  0  0  0
 23 34  1  0  0  0  0
 23 22  1  0  0  0  0
 24 35  1  1  0  0  0
 24 19  1  0  0  0  0
 29 20  1  0  0  0  0
 31 21  1  0  0  0  0
 33 23  1  0  0  0  0
 36 37  1  0  0  0  0
 36 45  1  0  0  0  0
 37  5  1  0  0  0  0
 38 39  1  0  0  0  0
 38 37  2  0  0  0  0
 40 38  1  0  0  0  0
 41 40  1  0  0  0  0
 42 40  2  0  0  0  0
 42 43  1  0  0  0  0
 43 36  2  0  0  0  0
 45 47  2  0  0  0  0
 45 44  1  0  0  0  0
 46 45  2  0  0  0  0
M  END
>  <minimizedAffinity>
-4.27687645

>  <minimizedRMSD>
1.46848547

$$$$
