
 OpenBabel03272501133D

 31 33  0  0  1  0  0  0  0  0999 V2000
   35.5570   30.3510   49.3500 C   0  0  1  0  0  0  0  0  0  0  0  0
   35.2120   29.1130   48.6860 C   0  0  1  0  0  0  0  0  0  0  0  0
   36.0120   29.0190   49.9420 C   0  0  0  0  0  0  0  0  0  0  0  0
   34.8200   30.9220   49.9750 H   0  0  0  0  0  0  0  0  0  0  0  0
   35.8130   28.9010   47.7460 H   0  0  0  0  0  0  0  0  0  0  0  0
   37.0880   28.7480   49.8830 H   0  0  0  0  0  0  0  0  0  0  0  0
   35.5290   28.7540   50.9000 H   0  0  0  0  0  0  0  0  0  0  0  0
   36.7350   31.1850   48.8730 C   0  0  0  0  0  0  0  0  0  0  0  0
   37.1850   32.1580   49.7660 C   0  0  0  0  0  0  0  0  0  0  0  0
   38.2560   32.9270   49.2980 C   0  0  0  0  0  0  0  0  0  0  0  0
   38.7940   32.7140   48.0600 N   0  0  0  0  0  0  0  0  0  0  0  0
   38.3050   31.7470   47.2400 C   0  0  0  0  0  0  0  0  0  0  0  0
   37.2610   30.9720   47.6550 N   0  0  0  0  0  0  0  0  0  0  0  0
   36.7420   32.3080   50.7390 H   0  0  0  0  0  0  0  0  0  0  0  0
   38.6730   33.7110   49.9270 H   0  0  0  0  0  0  0  0  0  0  0  0
   38.6940   31.5380   46.2540 H   0  0  0  0  0  0  0  0  0  0  0  0
   33.7500   28.7190   48.6590 C   0  0  0  0  0  0  0  0  0  0  0  0
   33.5000   28.2360   49.6420 H   0  0  0  0  0  0  0  0  0  0  0  0
   33.1020   29.6100   48.5040 H   0  0  0  0  0  0  0  0  0  0  0  0
   32.8510   27.9710   46.3740 C   0  0  0  0  0  0  0  0  0  0  0  0
   33.5120   27.7760   47.5500 C   0  0  0  0  0  0  0  0  0  0  0  0
   34.0200   26.4790   47.7300 C   0  0  0  0  0  0  0  0  0  0  0  0
   34.5620   26.2260   48.6360 H   0  0  0  0  0  0  0  0  0  0  0  0
   33.8950   25.4440   46.8350 C   0  0  0  0  0  0  0  0  0  0  0  0
   34.3070   24.4660   47.0300 H   0  0  0  0  0  0  0  0  0  0  0  0
   33.2250   25.6530   45.6520 C   0  0  0  0  0  0  0  0  0  0  0  0
   32.7240   26.9170   45.4630 C   0  0  0  0  0  0  0  0  0  0  0  0
   32.1370   29.5760   44.5830 H   0  0  0  0  0  0  0  0  0  0  0  0
   32.1810   29.5210   45.9750 S   0  0  0  0  0  0  0  0  0  0  0  0
   33.0290   30.6630   46.3920 O   0  0  0  0  0  0  0  0  0  0  0  0
   30.7710   29.5930   46.5080 O   0  0  0  0  0  0  0  0  0  0  0  0
  1  3  1  0  0  0  0
  1  4  1  1  0  0  0
  2  5  1  6  0  0  0
  2  1  1  0  0  0  0
  2  3  1  0  0  0  0
  3  7  1  0  0  0  0
  6  3  1  0  0  0  0
  8  1  1  0  0  0  0
  8  9  1  0  0  0  0
  9 14  1  0  0  0  0
 10  9  2  0  0  0  0
 10 15  1  0  0  0  0
 11 10  1  0  0  0  0
 12 13  1  0  0  0  0
 12 11  2  0  0  0  0
 13  8  2  0  0  0  0
 16 12  1  0  0  0  0
 17  2  1  0  0  0  0
 17 18  1  0  0  0  0
 19 17  1  0  0  0  0
 20 21  1  0  0  0  0
 21 22  2  0  0  0  0
 21 17  1  0  0  0  0
 22 23  1  0  0  0  0
 24 25  1  0  0  0  0
 24 22  1  0  0  0  0
 26 24  2  0  0  0  0
 27 26  1  0  0  0  0
 27 20  2  0  0  0  0
 28 29  1  0  0  0  0
 29 20  1  0  0  0  0
 29 30  2  0  0  0  0
 29 31  2  0  0  0  0
M  END
>  <minimizedAffinity>
-5.07221079

>  <minimizedRMSD>
2.51225853

$$$$
