
 OpenBabel03272504223D

 42 44  0  0  1  0  0  0  0  0999 V2000
   38.5830   32.1140   47.7660 C   0  0  2  0  0  0  0  0  0  0  0  0
   37.9700   31.0610   48.6630 C   0  0  1  0  0  0  0  0  0  0  0  0
   38.5530   31.5360   50.0000 C   0  0  0  0  0  0  0  0  0  0  0  0
   38.2340   32.8860   49.9660 O   0  0  0  0  0  0  0  0  0  0  0  0
   38.4650   33.3260   48.6870 C   0  0  0  0  0  0  0  0  0  0  0  0
   39.6260   31.8490   47.5670 H   0  0  0  0  0  0  0  0  0  0  0  0
   38.2520   30.0390   48.4200 H   0  0  0  0  0  0  0  0  0  0  0  0
   39.6390   31.3860   50.0210 H   0  0  0  0  0  0  0  0  0  0  0  0
   38.0160   31.0550   50.8410 H   0  0  0  0  0  0  0  0  0  0  0  0
   37.7650   34.0880   48.3070 H   0  0  0  0  0  0  0  0  0  0  0  0
   39.4680   33.8080   48.6870 H   0  0  0  0  0  0  0  0  0  0  0  0
   36.6000   31.2920   48.6680 O   0  0  0  0  0  0  0  0  0  0  0  0
   35.6060   29.4080   47.1740 O   0  0  0  0  0  0  0  0  0  0  0  0
   35.7050   29.8730   48.6020 P   0  0  1  0  0  0  0  0  0  0  0  0
   36.4990   28.6450   49.5000 O   0  0  0  0  0  0  0  0  0  0  0  0
   36.8400   29.1210   50.3090 H   0  0  0  0  0  0  0  0  0  0  0  0
   34.1590   30.1270   49.2530 O   0  0  0  0  0  0  0  0  0  0  0  0
   33.8020   28.9660   49.9150 C   0  0  0  0  0  0  0  0  0  0  0  0
   33.2210   29.2310   50.8420 H   0  0  0  0  0  0  0  0  0  0  0  0
   34.6700   28.3460   50.2350 H   0  0  0  0  0  0  0  0  0  0  0  0
   32.9080   28.0900   49.1230 C   0  0  0  0  0  0  0  0  0  0  0  0
   33.5110   27.2050   48.2630 C   0  0  0  0  0  0  0  0  0  0  0  0
   32.7190   26.3520   47.4900 C   0  0  0  0  0  0  0  0  0  0  0  0
   31.3680   26.4540   47.6410 N   0  0  0  0  0  0  0  0  0  0  0  0
   30.7980   27.3310   48.4940 C   0  0  0  0  0  0  0  0  0  0  0  0
   31.5690   28.1580   49.2430 N   0  0  0  0  0  0  0  0  0  0  0  0
   34.5550   27.0540   48.0770 H   0  0  0  0  0  0  0  0  0  0  0  0
   33.1160   25.6280   46.7900 H   0  0  0  0  0  0  0  0  0  0  0  0
   29.7120   27.3660   48.5700 H   0  0  0  0  0  0  0  0  0  0  0  0
   37.8210   32.2210   46.6320 O   0  0  0  0  0  0  0  0  0  0  0  0
   38.9880   31.9440   44.6210 C   0  0  0  0  0  0  0  0  0  0  0  0
   37.9320   31.5830   45.4330 C   0  0  0  0  0  0  0  0  0  0  0  0
   37.0890   30.6050   44.9420 C   0  0  0  0  0  0  0  0  0  0  0  0
   36.2550   30.3260   45.5910 H   0  0  0  0  0  0  0  0  0  0  0  0
   37.2580   30.0000   43.7200 C   0  0  0  0  0  0  0  0  0  0  0  0
   36.5990   29.2430   43.3510 H   0  0  0  0  0  0  0  0  0  0  0  0
   38.3300   30.4110   42.9700 C   0  0  0  0  0  0  0  0  0  0  0  0
   39.2300   31.3880   43.3820 C   0  0  0  0  0  0  0  0  0  0  0  0
   39.7320   33.6920   46.3690 H   0  0  0  0  0  0  0  0  0  0  0  0
   40.1240   33.1770   45.1390 S   0  0  0  0  0  0  0  0  0  0  0  0
   41.4620   32.5470   45.3600 O   0  0  0  0  0  0  0  0  0  0  0  0
   40.2460   34.2850   44.1640 O   0  0  0  0  0  0  0  0  0  0  0  0
  1  6  1  6  0  0  0
  1  2  1  0  0  0  0
  1  5  1  0  0  0  0
  2  7  1  6  0  0  0
  2 12  1  0  0  0  0
  2  3  1  0  0  0  0
  3  8  1  0  0  0  0
  3  9  1  0  0  0  0
  4  3  1  0  0  0  0
  5  4  1  0  0  0  0
 10  5  1  0  0  0  0
 11  5  1  0  0  0  0
 14 13  2  6  0  0  0
 14 12  1  0  0  0  0
 14 17  1  0  0  0  0
 14 15  1  0  0  0  0
 15 16  1  0  0  0  0
 17 18  1  0  0  0  0
 18 20  1  0  0  0  0
 18 19  1  0  0  0  0
 21 26  1  0  0  0  0
 21 18  1  0  0  0  0
 22 21  2  0  0  0  0
 23 24  2  0  0  0  0
 23 22  1  0  0  0  0
 24 25  1  0  0  0  0
 25 29  1  0  0  0  0
 25 26  2  0  0  0  0
 27 22  1  0  0  0  0
 28 23  1  0  0  0  0
 30  1  1  0  0  0  0
 31 40  1  0  0  0  0
 31 32  1  0  0  0  0
 32 30  1  0  0  0  0
 33 32  2  0  0  0  0
 33 34  1  0  0  0  0
 35 33  1  0  0  0  0
 36 35  1  0  0  0  0
 37 38  1  0  0  0  0
 37 35  2  0  0  0  0
 38 31  2  0  0  0  0
 40 41  2  0  0  0  0
 40 39  1  0  0  0  0
 42 40  2  0  0  0  0
M  END
>  <minimizedAffinity>
-4.71723747

>  <minimizedRMSD>
1.37514853

$$$$
