
 OpenBabel03262522203D

 22 23  0  0  0  0  0  0  0  0999 V2000
   39.3090   32.1960   47.2120 C   0  0  0  0  0  0  0  0  0  0  0  0
   38.6010   31.7440   48.3080 C   0  0  0  0  0  0  0  0  0  0  0  0
   38.4370   32.5280   49.4470 C   0  0  0  0  0  0  0  0  0  0  0  0
   37.8770   32.1470   50.2920 H   0  0  0  0  0  0  0  0  0  0  0  0
   39.0220   33.7900   49.4340 C   0  0  0  0  0  0  0  0  0  0  0  0
   38.9140   34.4210   50.3000 H   0  0  0  0  0  0  0  0  0  0  0  0
   39.7290   34.2430   48.3400 C   0  0  0  0  0  0  0  0  0  0  0  0
   39.8770   33.4480   47.2230 C   0  0  0  0  0  0  0  0  0  0  0  0
   39.1230   29.9040   46.0030 H   0  0  0  0  0  0  0  0  0  0  0  0
   39.5040   31.1960   45.7870 S   0  0  0  0  0  0  0  0  0  0  0  0
   38.7140   31.7480   44.6440 O   0  0  0  0  0  0  0  0  0  0  0  0
   40.9580   31.2730   45.3740 O   0  0  0  0  0  0  0  0  0  0  0  0
   38.0670   30.4790   48.2080 O   0  0  0  0  0  0  0  0  0  0  0  0
   36.6490   29.2850   49.6250 C   0  0  0  0  0  0  0  0  0  0  0  0
   36.7720   30.1190   48.4900 C   0  0  0  0  0  0  0  0  0  0  0  0
   35.6020   30.4540   47.8260 C   0  0  0  0  0  0  0  0  0  0  0  0
   34.4260   29.9790   48.2870 N   0  0  0  0  0  0  0  0  0  0  0  0
   34.3440   29.1930   49.3650 C   0  0  0  0  0  0  0  0  0  0  0  0
   35.4450   28.8260   50.0580 N   0  0  0  0  0  0  0  0  0  0  0  0
   37.4780   28.9370   50.2470 H   0  0  0  0  0  0  0  0  0  0  0  0
   35.7630   31.0930   46.9680 H   0  0  0  0  0  0  0  0  0  0  0  0
   33.3140   28.9180   49.5710 H   0  0  0  0  0  0  0  0  0  0  0  0
  1  8  2  0  0  0  0
  1  2  1  0  0  0  0
  2  3  2  0  0  0  0
  3  4  1  0  0  0  0
  5  3  1  0  0  0  0
  5  6  1  0  0  0  0
  7  5  2  0  0  0  0
  8  7  1  0  0  0  0
 10  9  1  0  0  0  0
 10  1  1  0  0  0  0
 11 10  2  0  0  0  0
 12 10  2  0  0  0  0
 13  2  1  0  0  0  0
 13 15  1  0  0  0  0
 14 19  1  0  0  0  0
 14 20  1  0  0  0  0
 15 14  2  0  0  0  0
 16 17  2  0  0  0  0
 16 15  1  0  0  0  0
 17 18  1  0  0  0  0
 18 22  1  0  0  0  0
 18 19  2  0  0  0  0
 21 16  1  0  0  0  0
M  END
>  <minimizedAffinity>
-5.08492136

>  <minimizedRMSD>
3.35077262

$$$$
