
 OpenBabel03272507583D

 35 37  0  0  0  0  0  0  0  0999 V2000
   36.8180   31.1680   48.4430 C   0  0  0  0  0  0  0  0  0  0  0  0
   37.1280   32.0280   49.4810 C   0  0  0  0  0  0  0  0  0  0  0  0
   38.0440   33.0470   49.2740 C   0  0  0  0  0  0  0  0  0  0  0  0
   38.6370   33.1900   48.0270 C   0  0  0  0  0  0  0  0  0  0  0  0
   38.3130   32.3240   47.0120 C   0  0  0  0  0  0  0  0  0  0  0  0
   37.4260   31.3640   47.2720 N   0  0  0  0  0  0  0  0  0  0  0  0
   36.7170   32.0010   50.4930 H   0  0  0  0  0  0  0  0  0  0  0  0
   38.3130   33.7470   50.0750 H   0  0  0  0  0  0  0  0  0  0  0  0
   39.3320   33.9840   47.9140 H   0  0  0  0  0  0  0  0  0  0  0  0
   35.1510   28.3200   50.2280 C   0  0  0  0  0  0  0  0  0  0  0  0
   36.1270   29.3010   49.8830 C   0  0  0  0  0  0  0  0  0  0  0  0
   35.8460   30.1550   48.8230 C   0  0  0  0  0  0  0  0  0  0  0  0
   34.6560   30.0130   48.1680 N   0  0  0  0  0  0  0  0  0  0  0  0
   33.7560   29.0570   48.5370 C   0  0  0  0  0  0  0  0  0  0  0  0
   33.9940   28.2240   49.5470 N   0  0  0  0  0  0  0  0  0  0  0  0
   32.6030   29.1080   47.7120 N   0  0  0  0  0  0  0  0  0  0  0  0
   35.3610   27.6470   51.0550 H   0  0  0  0  0  0  0  0  0  0  0  0
   32.2910   28.3540   47.0850 H   0  0  0  0  0  0  0  0  0  0  0  0
   32.0040   29.9680   47.7230 H   0  0  0  0  0  0  0  0  0  0  0  0
   37.3870   29.3570   50.6750 C   0  0  0  0  0  0  0  0  0  0  0  0
   38.4520   29.7670   49.8990 F   0  0  0  0  0  0  0  0  0  0  0  0
   37.2140   30.2810   51.6830 F   0  0  0  0  0  0  0  0  0  0  0  0
   37.7240   28.1600   51.2540 F   0  0  0  0  0  0  0  0  0  0  0  0
   38.3360   31.7780   44.6120 C   0  0  0  0  0  0  0  0  0  0  0  0
   38.9050   32.4290   45.6850 C   0  0  0  0  0  0  0  0  0  0  0  0
   40.0440   33.1730   45.4500 C   0  0  0  0  0  0  0  0  0  0  0  0
   40.5480   33.7080   46.2240 H   0  0  0  0  0  0  0  0  0  0  0  0
   40.6270   33.2930   44.2110 C   0  0  0  0  0  0  0  0  0  0  0  0
   41.5230   33.8780   44.0250 H   0  0  0  0  0  0  0  0  0  0  0  0
   40.0820   32.6580   43.1260 C   0  0  0  0  0  3  0  0  0  0  0  0
   38.9450   31.9130   43.3580 C   0  0  0  0  0  3  0  0  0  0  0  0
   36.5780   30.5770   46.0680 H   0  0  0  0  0  0  0  0  0  0  0  0
   36.8990   30.8030   44.7550 S   0  0  0  0  0  0  0  0  0  0  0  0
   37.1810   29.4230   44.1770 O   0  0  0  0  0  0  0  0  0  0  0  0
   35.7380   31.3460   43.9700 O   0  0  0  0  0  0  0  0  0  0  0  0
  1 12  1  0  0  0  0
  1  2  1  0  0  0  0
  2  7  1  0  0  0  0
  3  2  2  0  0  0  0
  3  8  1  0  0  0  0
  4  3  1  0  0  0  0
  5  6  1  0  0  0  0
  5  4  2  0  0  0  0
  6  1  2  0  0  0  0
  9  4  1  0  0  0  0
 10 17  1  0  0  0  0
 11 10  1  0  0  0  0
 11 20  1  0  0  0  0
 12 11  2  0  0  0  0
 13 14  2  0  0  0  0
 13 12  1  0  0  0  0
 14 15  1  0  0  0  0
 15 10  2  0  0  0  0
 16 19  1  0  0  0  0
 16 14  1  0  0  0  0
 18 16  1  0  0  0  0
 20 23  1  0  0  0  0
 20 22  1  0  0  0  0
 21 20  1  0  0  0  0
 24 33  1  0  0  0  0
 24 25  1  0  0  0  0
 25  5  1  0  0  0  0
 26 25  2  0  0  0  0
 26 27  1  0  0  0  0
 28 26  1  0  0  0  0
 29 28  1  0  0  0  0
 30 31  1  0  0  0  0
 30 28  2  0  0  0  0
 31 24  2  0  0  0  0
 33 32  1  0  0  0  0
 34 33  2  0  0  0  0
 35 33  2  0  0  0  0
M  END
>  <minimizedAffinity>
-6.51339054

>  <minimizedRMSD>
1.22607255

$$$$
