
 OpenBabel03272510013D

 24 25  0  0  0  0  0  0  0  0999 V2000
   38.2440   31.5600   49.7320 C   0  0  0  0  0  0  0  0  0  0  0  0
   38.2930   31.5870   48.3200 C   0  0  0  0  0  0  0  0  0  0  0  0
   37.3350   30.8800   47.6120 C   0  0  0  0  0  0  0  0  0  0  0  0
   36.4180   30.2120   48.3490 N   0  0  0  0  0  0  0  0  0  0  0  0
   36.3800   30.1920   49.6830 C   0  0  0  0  0  0  0  0  0  0  0  0
   37.2950   30.8680   50.3670 N   0  0  0  0  0  0  0  0  0  0  0  0
   38.9460   32.0780   50.3380 H   0  0  0  0  0  0  0  0  0  0  0  0
   39.0670   32.1510   47.8290 H   0  0  0  0  0  0  0  0  0  0  0  0
   38.3770   31.2800   45.4240 C   0  0  0  0  0  0  0  0  0  0  0  0
   37.3040   30.8480   46.1570 C   0  0  0  0  0  0  0  0  0  0  0  0
   36.2210   30.3940   45.4520 C   0  0  0  0  0  0  0  0  0  0  0  0
   35.3260   30.0320   45.9400 H   0  0  0  0  0  0  0  0  0  0  0  0
   36.1420   30.3440   44.0760 C   0  0  0  0  0  0  0  0  0  0  0  0
   35.2830   29.9840   43.5370 H   0  0  0  0  0  0  0  0  0  0  0  0
   37.2190   30.7770   43.3320 C   0  0  0  0  0  3  0  0  0  0  0  0
   38.3140   31.2370   44.0300 C   0  0  0  0  0  3  0  0  0  0  0  0
   39.8670   31.6900   47.5140 H   0  0  0  0  0  0  0  0  0  0  0  0
   39.8360   31.8900   46.1720 S   0  0  0  0  0  0  0  0  0  0  0  0
   40.0620   33.3470   45.7900 O   0  0  0  0  0  0  0  0  0  0  0  0
   41.0390   31.1630   45.6130 O   0  0  0  0  0  0  0  0  0  0  0  0
   35.3040   29.4090   50.3300 C   0  0  0  0  0  0  0  0  0  0  0  0
   35.5410   29.2070   51.6880 F   0  0  0  0  0  0  0  0  0  0  0  0
   34.0720   30.0820   50.2670 F   0  0  0  0  0  0  0  0  0  0  0  0
   35.0830   28.1790   49.7880 F   0  0  0  0  0  0  0  0  0  0  0  0
  1  7  1  0  0  0  0
  1  6  1  0  0  0  0
  2  1  2  0  0  0  0
  3  2  1  0  0  0  0
  3  4  2  0  0  0  0
  4  5  1  0  0  0  0
  5 21  1  0  0  0  0
  5  6  2  0  0  0  0
  8  2  1  0  0  0  0
  9 10  1  0  0  0  0
  9 18  1  0  0  0  0
 10  3  1  0  0  0  0
 11 12  1  0  0  0  0
 11 10  2  0  0  0  0
 13 11  1  0  0  0  0
 14 13  1  0  0  0  0
 15 16  1  0  0  0  0
 15 13  2  0  0  0  0
 16  9  2  0  0  0  0
 18 17  1  0  0  0  0
 19 18  2  0  0  0  0
 20 18  2  0  0  0  0
 21 22  1  0  0  0  0
 23 21  1  0  0  0  0
 24 21  1  0  0  0  0
M  END
>  <minimizedAffinity>
-5.73265648

>  <minimizedRMSD>
0.880302668

$$$$
