
 OpenBabel03272506593D

 31 33  0  0  0  0  0  0  0  0999 V2000
   38.8550   25.6790   33.3990 C   0  0  0  0  0  0  0  0  0  0  0  0
   39.5710   26.8380   33.5150 C   0  0  0  0  0  0  0  0  0  0  0  0
   40.6840   27.0590   34.2880 C   0  0  0  0  0  0  0  0  0  0  0  0
   41.0920   25.9810   35.0080 N   0  0  0  0  0  0  0  0  0  0  0  0
   40.4260   24.8050   34.9380 C   0  0  0  0  0  0  0  0  0  0  0  0
   39.3370   24.6680   34.1490 N   0  0  0  0  0  0  0  0  0  0  0  0
   39.2390   27.7030   32.9340 H   0  0  0  0  0  0  0  0  0  0  0  0
   41.1850   28.0060   34.3180 H   0  0  0  0  0  0  0  0  0  0  0  0
   36.1300   26.5710   31.1700 C   0  0  0  0  0  0  0  0  0  0  0  0
   35.4680   25.3670   30.9140 C   0  0  0  0  0  0  0  0  0  0  0  0
   36.0000   24.2280   31.5440 C   0  0  0  0  0  0  0  0  0  0  0  0
   37.0880   24.3470   32.3380 N   0  0  0  0  0  0  0  0  0  0  0  0
   37.6790   25.5490   32.5410 C   0  0  0  0  0  0  0  0  0  0  0  0
   37.2280   26.7030   31.9690 N   0  0  0  0  0  0  0  0  0  0  0  0
   35.7850   27.4970   30.7230 H   0  0  0  0  0  0  0  0  0  0  0  0
   35.4860   23.3130   31.3420 H   0  0  0  0  0  0  0  0  0  0  0  0
   34.3420   25.3730   30.0660 N   0  0  0  0  0  0  0  0  0  0  0  0
   33.4040   25.5850   30.4590 H   0  0  0  0  0  0  0  0  0  0  0  0
   34.7060   25.1420   29.1260 H   0  0  0  0  0  0  0  0  0  0  0  0
   40.0830   23.1320   36.7290 C   0  0  0  0  0  0  0  0  0  0  0  0
   40.8610   23.6420   35.7090 C   0  0  0  0  0  0  0  0  0  0  0  0
   42.0740   23.0110   35.4380 C   0  0  0  0  0  0  0  0  0  0  0  0
   42.6900   23.4170   34.6280 H   0  0  0  0  0  0  0  0  0  0  0  0
   42.5470   21.9120   36.1240 C   0  0  0  0  0  0  0  0  0  0  0  0
   43.5130   21.4840   35.8410 H   0  0  0  0  0  0  0  0  0  0  0  0
   41.7790   21.3930   37.1460 C   0  0  0  0  0  3  0  0  0  0  0  0
   40.5830   22.0170   37.4110 C   0  0  0  0  0  3  0  0  0  0  0  0
   38.3900   25.1140   36.7940 H   0  0  0  0  0  0  0  0  0  0  0  0
   38.5620   23.8250   37.1600 S   0  0  0  0  0  0  0  0  0  0  0  0
   38.4270   23.8010   38.6720 O   0  0  0  0  0  0  0  0  0  0  0  0
   37.4300   22.9930   36.6380 O   0  0  0  0  0  0  0  0  0  0  0  0
  1  2  2  0  0  0  0
  1  6  1  0  0  0  0
  2  3  1  0  0  0  0
  3  8  1  0  0  0  0
  3  4  2  0  0  0  0
  5  4  1  0  0  0  0
  5 21  1  0  0  0  0
  6  5  2  0  0  0  0
  7  2  1  0  0  0  0
  9 14  1  0  0  0  0
 10  9  2  0  0  0  0
 10 11  1  0  0  0  0
 11 12  2  0  0  0  0
 12 13  1  0  0  0  0
 13  1  1  0  0  0  0
 14 13  2  0  0  0  0
 15  9  1  0  0  0  0
 16 11  1  0  0  0  0
 17 18  1  0  0  0  0
 17 10  1  0  0  0  0
 19 17  1  0  0  0  0
 20 29  1  0  0  0  0
 20 27  1  0  0  0  0
 21 20  2  0  0  0  0
 22 21  1  0  0  0  0
 22 24  2  0  0  0  0
 23 22  1  0  0  0  0
 24 26  1  0  0  0  0
 25 24  1  0  0  0  0
 26 27  2  0  0  0  0
 28 29  1  0  0  0  0
 29 30  2  0  0  0  0
 31 29  2  0  0  0  0
M  END
>  <minimizedAffinity>
-5.60609293

$$$$

 OpenBabel03272506593D

 31 33  0  0  0  0  0  0  0  0999 V2000
   36.8620   27.4310   33.6450 C   0  0  0  0  0  0  0  0  0  0  0  0
   37.0080   27.8360   32.3490 C   0  0  0  0  0  0  0  0  0  0  0  0
   36.5850   29.0160   31.7890 C   0  0  0  0  0  0  0  0  0  0  0  0
   35.9520   29.8530   32.6530 N   0  0  0  0  0  0  0  0  0  0  0  0
   35.7750   29.5100   33.9500 C   0  0  0  0  0  0  0  0  0  0  0  0
   36.2230   28.3260   34.4250 N   0  0  0  0  0  0  0  0  0  0  0  0
   37.5190   27.1600   31.6570 H   0  0  0  0  0  0  0  0  0  0  0  0
   36.7440   29.2540   30.7560 H   0  0  0  0  0  0  0  0  0  0  0  0
   38.0250   24.8670   35.9400 C   0  0  0  0  0  0  0  0  0  0  0  0
   38.2780   23.7540   35.1350 C   0  0  0  0  0  0  0  0  0  0  0  0
   38.0310   23.9210   33.7610 C   0  0  0  0  0  0  0  0  0  0  0  0
   37.5760   25.1080   33.3000 N   0  0  0  0  0  0  0  0  0  0  0  0
   37.3540   26.1460   34.1420 C   0  0  0  0  0  0  0  0  0  0  0  0
   37.5670   26.0690   35.4870 N   0  0  0  0  0  0  0  0  0  0  0  0
   38.1900   24.8230   37.0110 H   0  0  0  0  0  0  0  0  0  0  0  0
   38.2270   23.0630   33.1540 H   0  0  0  0  0  0  0  0  0  0  0  0
   38.7520   22.5680   35.7350 N   0  0  0  0  0  0  0  0  0  0  0  0
   39.7710   22.4460   35.8950 H   0  0  0  0  0  0  0  0  0  0  0  0
   37.9100   21.9980   35.9160 H   0  0  0  0  0  0  0  0  0  0  0  0
   33.7180   30.4230   34.9790 C   0  0  0  0  0  0  0  0  0  0  0  0
   35.0940   30.4050   34.8830 C   0  0  0  0  0  0  0  0  0  0  0  0
   35.8150   31.2690   35.7080 C   0  0  0  0  0  0  0  0  0  0  0  0
   36.9070   31.2540   35.6300 H   0  0  0  0  0  0  0  0  0  0  0  0
   35.2410   32.1400   36.6090 C   0  0  0  0  0  0  0  0  0  0  0  0
   35.8880   32.7820   37.2140 H   0  0  0  0  0  0  0  0  0  0  0  0
   33.8650   32.1670   36.7150 C   0  0  0  0  0  3  0  0  0  0  0  0
   33.1570   31.3140   35.9010 C   0  0  0  0  0  3  0  0  0  0  0  0
   33.2490   28.2020   33.6970 H   0  0  0  0  0  0  0  0  0  0  0  0
   32.7150   29.4020   34.0140 S   0  0  0  0  0  0  0  0  0  0  0  0
   32.4410   30.0970   32.6910 O   0  0  0  0  0  0  0  0  0  0  0  0
   31.3750   29.2080   34.6570 O   0  0  0  0  0  0  0  0  0  0  0  0
  1 13  1  0  0  0  0
  1  6  1  0  0  0  0
  2  1  2  0  0  0  0
  3  2  1  0  0  0  0
  3  4  2  0  0  0  0
  4  5  1  0  0  0  0
  5  6  2  0  0  0  0
  5 21  1  0  0  0  0
  7  2  1  0  0  0  0
  8  3  1  0  0  0  0
  9 15  1  0  0  0  0
 10 17  1  0  0  0  0
 10  9  2  0  0  0  0
 11 10  1  0  0  0  0
 12 11  2  0  0  0  0
 12 13  1  0  0  0  0
 13 14  2  0  0  0  0
 14  9  1  0  0  0  0
 16 11  1  0  0  0  0
 17 18  1  0  0  0  0
 17 19  1  0  0  0  0
 20 27  1  0  0  0  0
 21 20  2  0  0  0  0
 21 22  1  0  0  0  0
 22 24  2  0  0  0  0
 23 22  1  0  0  0  0
 24 26  1  0  0  0  0
 24 25  1  0  0  0  0
 27 26  2  0  0  0  0
 28 29  1  0  0  0  0
 29 31  2  0  0  0  0
 29 20  1  0  0  0  0
 30 29  2  0  0  0  0
M  END
>  <minimizedAffinity>
-5.56429195

$$$$

 OpenBabel03272506593D

 31 33  0  0  0  0  0  0  0  0999 V2000
   37.1640   23.4810   31.2660 C   0  0  0  0  0  0  0  0  0  0  0  0
   38.2470   23.7130   30.4660 C   0  0  0  0  0  0  0  0  0  0  0  0
   38.8960   24.9060   30.2620 C   0  0  0  0  0  0  0  0  0  0  0  0
   38.3740   25.9550   30.9520 N   0  0  0  0  0  0  0  0  0  0  0  0
   37.3020   25.7910   31.7610 C   0  0  0  0  0  0  0  0  0  0  0  0
   36.7190   24.5800   31.9080 N   0  0  0  0  0  0  0  0  0  0  0  0
   38.6640   22.8670   29.9140 H   0  0  0  0  0  0  0  0  0  0  0  0
   39.7430   24.9970   29.6130 H   0  0  0  0  0  0  0  0  0  0  0  0
   34.9360   20.8570   32.4220 C   0  0  0  0  0  0  0  0  0  0  0  0
   35.3440   19.7110   31.7340 C   0  0  0  0  0  0  0  0  0  0  0  0
   36.4250   19.8790   30.8500 C   0  0  0  0  0  0  0  0  0  0  0  0
   36.9970   21.0960   30.7120 N   0  0  0  0  0  0  0  0  0  0  0  0
   36.5470   22.1640   31.4140 C   0  0  0  0  0  0  0  0  0  0  0  0
   35.5050   22.0890   32.2910 N   0  0  0  0  0  0  0  0  0  0  0  0
   34.1090   20.8150   33.1220 H   0  0  0  0  0  0  0  0  0  0  0  0
   36.7300   18.9960   30.3290 H   0  0  0  0  0  0  0  0  0  0  0  0
   34.6660   18.4960   31.9640 N   0  0  0  0  0  0  0  0  0  0  0  0
   34.9530   17.8910   32.7580 H   0  0  0  0  0  0  0  0  0  0  0  0
   33.9450   18.4410   31.2260 H   0  0  0  0  0  0  0  0  0  0  0  0
   37.1690   27.2170   33.7790 C   0  0  0  0  0  0  0  0  0  0  0  0
   36.7370   26.9150   32.5040 C   0  0  0  0  0  0  0  0  0  0  0  0
   35.7430   27.7200   31.9470 C   0  0  0  0  0  0  0  0  0  0  0  0
   35.4010   27.4790   30.9350 H   0  0  0  0  0  0  0  0  0  0  0  0
   35.1640   28.7940   32.5890 C   0  0  0  0  0  0  0  0  0  0  0  0
   34.3900   29.3680   32.0720 H   0  0  0  0  0  0  0  0  0  0  0  0
   35.5880   29.1060   33.8650 C   0  0  0  0  0  3  0  0  0  0  0  0
   36.5690   28.3110   34.4110 C   0  0  0  0  0  3  0  0  0  0  0  0
   39.2720   25.6750   33.7610 H   0  0  0  0  0  0  0  0  0  0  0  0
   38.3930   26.2970   34.5770 S   0  0  0  0  0  0  0  0  0  0  0  0
   37.7270   25.1970   35.3850 O   0  0  0  0  0  0  0  0  0  0  0  0
   39.1320   27.1410   35.5710 O   0  0  0  0  0  0  0  0  0  0  0  0
  1 13  1  0  0  0  0
  1  6  1  0  0  0  0
  2  1  2  0  0  0  0
  3  2  1  0  0  0  0
  3  4  2  0  0  0  0
  4  5  1  0  0  0  0
  5  6  2  0  0  0  0
  5 21  1  0  0  0  0
  7  2  1  0  0  0  0
  8  3  1  0  0  0  0
  9 15  1  0  0  0  0
 10 17  1  0  0  0  0
 10  9  2  0  0  0  0
 11 10  1  0  0  0  0
 12 11  2  0  0  0  0
 12 13  1  0  0  0  0
 13 14  2  0  0  0  0
 14  9  1  0  0  0  0
 16 11  1  0  0  0  0
 17 18  1  0  0  0  0
 19 17  1  0  0  0  0
 20 27  1  0  0  0  0
 20 29  1  0  0  0  0
 21 20  2  0  0  0  0
 22 21  1  0  0  0  0
 22 24  2  0  0  0  0
 23 22  1  0  0  0  0
 24 26  1  0  0  0  0
 25 24  1  0  0  0  0
 26 27  2  0  0  0  0
 28 29  1  0  0  0  0
 29 30  2  0  0  0  0
 29 31  2  0  0  0  0
M  END
>  <minimizedAffinity>
-5.55423594

$$$$

 OpenBabel03272506593D

 31 33  0  0  0  0  0  0  0  0999 V2000
   36.3210   23.8310   31.6250 C   0  0  0  0  0  0  0  0  0  0  0  0
   35.3670   24.7260   31.2270 C   0  0  0  0  0  0  0  0  0  0  0  0
   35.4500   26.0960   31.2390 C   0  0  0  0  0  0  0  0  0  0  0  0
   36.6290   26.5840   31.7070 N   0  0  0  0  0  0  0  0  0  0  0  0
   37.6140   25.7510   32.1160 C   0  0  0  0  0  0  0  0  0  0  0  0
   37.4540   24.4090   32.0710 N   0  0  0  0  0  0  0  0  0  0  0  0
   34.4210   24.3280   30.8510 H   0  0  0  0  0  0  0  0  0  0  0  0
   34.6480   26.7240   30.9060 H   0  0  0  0  0  0  0  0  0  0  0  0
   34.9020   20.5410   32.2170 C   0  0  0  0  0  0  0  0  0  0  0  0
   35.7210   19.6640   31.5010 C   0  0  0  0  0  0  0  0  0  0  0  0
   36.7880   20.2530   30.8020 C   0  0  0  0  0  0  0  0  0  0  0  0
   36.9660   21.5930   30.8520 N   0  0  0  0  0  0  0  0  0  0  0  0
   36.1310   22.3820   31.5690 C   0  0  0  0  0  0  0  0  0  0  0  0
   35.0710   21.8930   32.2760 N   0  0  0  0  0  0  0  0  0  0  0  0
   34.0560   20.1690   32.7840 H   0  0  0  0  0  0  0  0  0  0  0  0
   37.4080   19.5730   30.2580 H   0  0  0  0  0  0  0  0  0  0  0  0
   35.4310   18.2830   31.5270 N   0  0  0  0  0  0  0  0  0  0  0  0
   35.8010   17.6960   32.2990 H   0  0  0  0  0  0  0  0  0  0  0  0
   34.8510   18.1100   30.6890 H   0  0  0  0  0  0  0  0  0  0  0  0
   39.0960   26.4460   33.9710 C   0  0  0  0  0  0  0  0  0  0  0  0
   38.8840   26.2700   32.6200 C   0  0  0  0  0  0  0  0  0  0  0  0
   39.9220   26.6030   31.7490 C   0  0  0  0  0  0  0  0  0  0  0  0
   39.7510   26.4620   30.6760 H   0  0  0  0  0  0  0  0  0  0  0  0
   41.1440   27.0970   32.1530 C   0  0  0  0  0  0  0  0  0  0  0  0
   41.8980   27.3310   31.3960 H   0  0  0  0  0  0  0  0  0  0  0  0
   41.3680   27.2780   33.5020 C   0  0  0  0  0  3  0  0  0  0  0  0
   40.3440   26.9480   34.3580 C   0  0  0  0  0  3  0  0  0  0  0  0
   36.6270   26.4100   34.8090 H   0  0  0  0  0  0  0  0  0  0  0  0
   37.8900   26.0710   35.1490 S   0  0  0  0  0  0  0  0  0  0  0  0
   38.1970   26.8380   36.4230 O   0  0  0  0  0  0  0  0  0  0  0  0
   37.9440   24.6210   35.5240 O   0  0  0  0  0  0  0  0  0  0  0  0
  1  6  1  0  0  0  0
  2  3  1  0  0  0  0
  2  1  2  0  0  0  0
  3  4  2  0  0  0  0
  4  5  1  0  0  0  0
  5 21  1  0  0  0  0
  6  5  2  0  0  0  0
  7  2  1  0  0  0  0
  8  3  1  0  0  0  0
  9 14  1  0  0  0  0
  9 15  1  0  0  0  0
 10 17  1  0  0  0  0
 10  9  2  0  0  0  0
 11 12  2  0  0  0  0
 11 10  1  0  0  0  0
 12 13  1  0  0  0  0
 13  1  1  0  0  0  0
 13 14  2  0  0  0  0
 16 11  1  0  0  0  0
 17 18  1  0  0  0  0
 19 17  1  0  0  0  0
 20 27  1  0  0  0  0
 20 29  1  0  0  0  0
 21 20  2  0  0  0  0
 22 24  2  0  0  0  0
 22 21  1  0  0  0  0
 23 22  1  0  0  0  0
 24 26  1  0  0  0  0
 25 24  1  0  0  0  0
 26 27  2  0  0  0  0
 28 29  1  0  0  0  0
 29 31  2  0  0  0  0
 29 30  2  0  0  0  0
M  END
>  <minimizedAffinity>
-5.48445082

$$$$

 OpenBabel03272506593D

 31 33  0  0  0  0  0  0  0  0999 V2000
   36.1220   28.3020   32.2200 C   0  0  0  0  0  0  0  0  0  0  0  0
   36.5090   29.1830   31.2490 C   0  0  0  0  0  0  0  0  0  0  0  0
   36.4150   30.5520   31.2780 C   0  0  0  0  0  0  0  0  0  0  0  0
   35.8720   31.0550   32.4180 N   0  0  0  0  0  0  0  0  0  0  0  0
   35.4690   30.2360   33.4170 C   0  0  0  0  0  0  0  0  0  0  0  0
   35.5960   28.8950   33.3110 N   0  0  0  0  0  0  0  0  0  0  0  0
   36.9460   28.7740   30.3340 H   0  0  0  0  0  0  0  0  0  0  0  0
   36.7460   31.1690   30.4670 H   0  0  0  0  0  0  0  0  0  0  0  0
   35.6170   24.9060   31.0380 C   0  0  0  0  0  0  0  0  0  0  0  0
   36.4970   24.1280   31.7940 C   0  0  0  0  0  0  0  0  0  0  0  0
   37.2770   24.8240   32.7350 C   0  0  0  0  0  0  0  0  0  0  0  0
   37.1440   26.1640   32.8580 N   0  0  0  0  0  0  0  0  0  0  0  0
   36.2670   26.8530   32.0890 C   0  0  0  0  0  0  0  0  0  0  0  0
   35.4730   26.2570   31.1530 N   0  0  0  0  0  0  0  0  0  0  0  0
   34.9790   24.4480   30.2890 H   0  0  0  0  0  0  0  0  0  0  0  0
   37.9470   24.2200   33.3080 H   0  0  0  0  0  0  0  0  0  0  0  0
   36.5440   22.7360   31.5720 N   0  0  0  0  0  0  0  0  0  0  0  0
   35.8730   22.1150   32.0650 H   0  0  0  0  0  0  0  0  0  0  0  0
   37.3130   22.5930   30.8970 H   0  0  0  0  0  0  0  0  0  0  0  0
   33.5380   30.6260   34.9150 C   0  0  0  0  0  0  0  0  0  0  0  0
   34.8830   30.7710   34.6440 C   0  0  0  0  0  0  0  0  0  0  0  0
   35.6660   31.4450   35.5810 C   0  0  0  0  0  0  0  0  0  0  0  0
   36.7340   31.5590   35.3650 H   0  0  0  0  0  0  0  0  0  0  0  0
   35.1830   31.9750   36.7590 C   0  0  0  0  0  0  0  0  0  0  0  0
   35.8740   32.4890   37.4340 H   0  0  0  0  0  0  0  0  0  0  0  0
   33.8390   31.8360   37.0410 C   0  0  0  0  0  3  0  0  0  0  0  0
   33.0700   31.1720   36.1150 C   0  0  0  0  0  3  0  0  0  0  0  0
   33.0550   29.2190   32.7740 H   0  0  0  0  0  0  0  0  0  0  0  0
   32.4650   29.8120   33.8340 S   0  0  0  0  0  0  0  0  0  0  0  0
   31.4950   30.8270   33.2560 O   0  0  0  0  0  0  0  0  0  0  0  0
   31.6210   28.8160   34.5700 O   0  0  0  0  0  0  0  0  0  0  0  0
  1  6  1  0  0  0  0
  2  3  1  0  0  0  0
  2  1  2  0  0  0  0
  3  4  2  0  0  0  0
  4  5  1  0  0  0  0
  5 21  1  0  0  0  0
  6  5  2  0  0  0  0
  7  2  1  0  0  0  0
  8  3  1  0  0  0  0
  9 14  2  0  0  0  0
  9 10  1  0  0  0  0
 10 11  2  0  0  0  0
 11 12  1  0  0  0  0
 11 16  1  0  0  0  0
 13  1  1  0  0  0  0
 13 12  2  0  0  0  0
 14 13  1  0  0  0  0
 15  9  1  0  0  0  0
 17 10  1  0  0  0  0
 17 18  1  0  0  0  0
 19 17  1  0  0  0  0
 20 27  1  0  0  0  0
 21 20  2  0  0  0  0
 21 22  1  0  0  0  0
 22 24  2  0  0  0  0
 23 22  1  0  0  0  0
 24 26  1  0  0  0  0
 24 25  1  0  0  0  0
 27 26  2  0  0  0  0
 28 29  1  0  0  0  0
 29 31  2  0  0  0  0
 29 20  1  0  0  0  0
 30 29  2  0  0  0  0
M  END
>  <minimizedAffinity>
-5.41166401

$$$$

 OpenBabel03272506593D

 31 33  0  0  0  0  0  0  0  0999 V2000
   36.1910   23.6870   31.6500 C   0  0  0  0  0  0  0  0  0  0  0  0
   35.2930   24.5750   31.1260 C   0  0  0  0  0  0  0  0  0  0  0  0
   35.3750   25.9450   31.1290 C   0  0  0  0  0  0  0  0  0  0  0  0
   36.4890   26.4410   31.7300 N   0  0  0  0  0  0  0  0  0  0  0  0
   37.4150   25.6140   32.2680 C   0  0  0  0  0  0  0  0  0  0  0  0
   37.2610   24.2720   32.2230 N   0  0  0  0  0  0  0  0  0  0  0  0
   34.3990   24.1720   30.6430 H   0  0  0  0  0  0  0  0  0  0  0  0
   34.6210   26.5680   30.6930 H   0  0  0  0  0  0  0  0  0  0  0  0
   34.8000   20.3860   32.2530 C   0  0  0  0  0  0  0  0  0  0  0  0
   35.6110   19.5160   31.5200 C   0  0  0  0  0  0  0  0  0  0  0  0
   36.6630   20.1150   30.8040 C   0  0  0  0  0  0  0  0  0  0  0  0
   36.8350   21.4550   30.8570 N   0  0  0  0  0  0  0  0  0  0  0  0
   36.0070   22.2370   31.5910 C   0  0  0  0  0  0  0  0  0  0  0  0
   34.9630   21.7390   32.3140 N   0  0  0  0  0  0  0  0  0  0  0  0
   33.9660   20.0070   32.8320 H   0  0  0  0  0  0  0  0  0  0  0  0
   37.2780   19.4400   30.2470 H   0  0  0  0  0  0  0  0  0  0  0  0
   35.3300   18.1340   31.5440 N   0  0  0  0  0  0  0  0  0  0  0  0
   35.7160   17.5460   32.3080 H   0  0  0  0  0  0  0  0  0  0  0  0
   34.7370   17.9610   30.7160 H   0  0  0  0  0  0  0  0  0  0  0  0
   39.7290   26.4880   32.1800 C   0  0  0  0  0  0  0  0  0  0  0  0
   38.6150   26.1420   32.9160 C   0  0  0  0  0  0  0  0  0  0  0  0
   38.6700   26.3130   34.2990 C   0  0  0  0  0  0  0  0  0  0  0  0
   37.7840   26.0370   34.8820 H   0  0  0  0  0  0  0  0  0  0  0  0
   39.7660   26.8030   34.9770 C   0  0  0  0  0  0  0  0  0  0  0  0
   39.7180   26.9010   36.0650 H   0  0  0  0  0  0  0  0  0  0  0  0
   40.8860   27.1530   34.2510 C   0  0  0  0  0  3  0  0  0  0  0  0
   40.8290   26.9840   32.8880 C   0  0  0  0  0  3  0  0  0  0  0  0
   38.5930   26.4330   29.8330 H   0  0  0  0  0  0  0  0  0  0  0  0
   39.7840   26.3240   30.4620 S   0  0  0  0  0  0  0  0  0  0  0  0
   40.3080   24.9400   30.1210 O   0  0  0  0  0  0  0  0  0  0  0  0
   40.7640   27.2880   29.8650 O   0  0  0  0  0  0  0  0  0  0  0  0
  1  6  1  0  0  0  0
  2  3  1  0  0  0  0
  2  1  2  0  0  0  0
  3  4  2  0  0  0  0
  4  5  1  0  0  0  0
  5 21  1  0  0  0  0
  6  5  2  0  0  0  0
  7  2  1  0  0  0  0
  8  3  1  0  0  0  0
  9 14  1  0  0  0  0
  9 15  1  0  0  0  0
 10 17  1  0  0  0  0
 10  9  2  0  0  0  0
 11 12  2  0  0  0  0
 11 10  1  0  0  0  0
 12 13  1  0  0  0  0
 13  1  1  0  0  0  0
 13 14  2  0  0  0  0
 16 11  1  0  0  0  0
 17 18  1  0  0  0  0
 19 17  1  0  0  0  0
 20 27  2  0  0  0  0
 20 21  1  0  0  0  0
 21 22  2  0  0  0  0
 22 23  1  0  0  0  0
 22 24  1  0  0  0  0
 24 25  1  0  0  0  0
 26 24  2  0  0  0  0
 27 26  1  0  0  0  0
 28 29  1  0  0  0  0
 29 20  1  0  0  0  0
 30 29  2  0  0  0  0
 31 29  2  0  0  0  0
M  END
>  <minimizedAffinity>
-5.27340794

$$$$

 OpenBabel03272506593D

 31 33  0  0  0  0  0  0  0  0999 V2000
   37.7230   22.8410   32.4640 C   0  0  0  0  0  0  0  0  0  0  0  0
   37.7930   24.1090   31.9580 C   0  0  0  0  0  0  0  0  0  0  0  0
   38.0840   25.2660   32.6390 C   0  0  0  0  0  0  0  0  0  0  0  0
   38.3270   25.0920   33.9650 N   0  0  0  0  0  0  0  0  0  0  0  0
   38.2740   23.8620   34.5270 C   0  0  0  0  0  0  0  0  0  0  0  0
   37.9800   22.7700   33.7860 N   0  0  0  0  0  0  0  0  0  0  0  0
   37.5970   24.2440   30.8910 H   0  0  0  0  0  0  0  0  0  0  0  0
   38.1170   26.2230   32.1590 H   0  0  0  0  0  0  0  0  0  0  0  0
   35.9210   19.9760   31.1480 C   0  0  0  0  0  0  0  0  0  0  0  0
   36.7460   19.4650   30.1430 C   0  0  0  0  0  0  0  0  0  0  0  0
   37.9560   20.1500   29.9340 C   0  0  0  0  0  0  0  0  0  0  0  0
   38.2540   21.2320   30.6890 N   0  0  0  0  0  0  0  0  0  0  0  0
   37.4040   21.6710   31.6470 C   0  0  0  0  0  0  0  0  0  0  0  0
   36.2100   21.0660   31.9150 N   0  0  0  0  0  0  0  0  0  0  0  0
   34.9690   19.5080   31.3730 H   0  0  0  0  0  0  0  0  0  0  0  0
   38.5800   19.7500   29.1630 H   0  0  0  0  0  0  0  0  0  0  0  0
   36.3230   18.3280   29.4230 N   0  0  0  0  0  0  0  0  0  0  0  0
   36.5180   17.3800   29.8010 H   0  0  0  0  0  0  0  0  0  0  0  0
   35.8580   18.6960   28.5780 H   0  0  0  0  0  0  0  0  0  0  0  0
   39.6760   23.0310   36.3890 C   0  0  0  0  0  0  0  0  0  0  0  0
   38.5340   23.6700   35.9520 C   0  0  0  0  0  0  0  0  0  0  0  0
   37.6350   24.1270   36.9160 C   0  0  0  0  0  0  0  0  0  0  0  0
   36.7290   24.6340   36.5670 H   0  0  0  0  0  0  0  0  0  0  0  0
   37.8150   23.9800   38.2750 C   0  0  0  0  0  0  0  0  0  0  0  0
   37.0540   24.3710   38.9560 H   0  0  0  0  0  0  0  0  0  0  0  0
   38.9530   23.3440   38.7240 C   0  0  0  0  0  3  0  0  0  0  0  0
   39.8380   22.8940   37.7720 C   0  0  0  0  0  3  0  0  0  0  0  0
   40.3760   21.7430   34.2320 H   0  0  0  0  0  0  0  0  0  0  0  0
   40.8650   22.4210   35.2950 S   0  0  0  0  0  0  0  0  0  0  0  0
   41.7540   21.4400   36.0390 O   0  0  0  0  0  0  0  0  0  0  0  0
   41.7710   23.5180   34.8250 O   0  0  0  0  0  0  0  0  0  0  0  0
  1  6  1  0  0  0  0
  2  1  2  0  0  0  0
  2  3  1  0  0  0  0
  3  4  2  0  0  0  0
  4  5  1  0  0  0  0
  5 21  1  0  0  0  0
  6  5  2  0  0  0  0
  7  2  1  0  0  0  0
  8  3  1  0  0  0  0
  9 15  1  0  0  0  0
  9 14  1  0  0  0  0
 10  9  2  0  0  0  0
 11 10  1  0  0  0  0
 11 12  2  0  0  0  0
 12 13  1  0  0  0  0
 13 14  2  0  0  0  0
 13  1  1  0  0  0  0
 16 11  1  0  0  0  0
 17 18  1  0  0  0  0
 17 10  1  0  0  0  0
 19 17  1  0  0  0  0
 20 27  1  0  0  0  0
 21 20  2  0  0  0  0
 21 22  1  0  0  0  0
 22 24  2  0  0  0  0
 23 22  1  0  0  0  0
 24 26  1  0  0  0  0
 24 25  1  0  0  0  0
 27 26  2  0  0  0  0
 28 29  1  0  0  0  0
 29 30  2  0  0  0  0
 29 20  1  0  0  0  0
 31 29  2  0  0  0  0
M  END
>  <minimizedAffinity>
-5.21053886

$$$$

 OpenBabel03272506593D

 31 33  0  0  0  0  0  0  0  0999 V2000
   37.3900   23.9720   32.7170 C   0  0  0  0  0  0  0  0  0  0  0  0
   36.7190   22.8430   32.3390 C   0  0  0  0  0  0  0  0  0  0  0  0
   36.8960   21.5680   32.8170 C   0  0  0  0  0  0  0  0  0  0  0  0
   37.8550   21.4530   33.7730 N   0  0  0  0  0  0  0  0  0  0  0  0
   38.5550   22.5330   34.1900 C   0  0  0  0  0  0  0  0  0  0  0  0
   38.3200   23.7580   33.6690 N   0  0  0  0  0  0  0  0  0  0  0  0
   35.9480   22.9400   31.5710 H   0  0  0  0  0  0  0  0  0  0  0  0
   36.3220   20.7360   32.4620 H   0  0  0  0  0  0  0  0  0  0  0  0
   35.7460   26.6270   30.8620 C   0  0  0  0  0  0  0  0  0  0  0  0
   36.5640   27.7460   31.0360 C   0  0  0  0  0  0  0  0  0  0  0  0
   37.7120   27.5500   31.8230 C   0  0  0  0  0  0  0  0  0  0  0  0
   37.9620   26.3320   32.3560 N   0  0  0  0  0  0  0  0  0  0  0  0
   37.1220   25.2900   32.1420 C   0  0  0  0  0  0  0  0  0  0  0  0
   35.9870   25.3940   31.3920 N   0  0  0  0  0  0  0  0  0  0  0  0
   34.8400   26.6920   30.2690 H   0  0  0  0  0  0  0  0  0  0  0  0
   38.3310   28.4120   31.9510 H   0  0  0  0  0  0  0  0  0  0  0  0
   36.1950   28.9640   30.4290 N   0  0  0  0  0  0  0  0  0  0  0  0
   36.4720   29.1520   29.4460 H   0  0  0  0  0  0  0  0  0  0  0  0
   35.6700   29.4830   31.1520 H   0  0  0  0  0  0  0  0  0  0  0  0
   39.3180   22.7140   36.5370 C   0  0  0  0  0  0  0  0  0  0  0  0
   39.5870   22.4150   35.2170 C   0  0  0  0  0  0  0  0  0  0  0  0
   40.8780   21.9950   34.8960 C   0  0  0  0  0  0  0  0  0  0  0  0
   41.0900   21.7580   33.8480 H   0  0  0  0  0  0  0  0  0  0  0  0
   41.9000   21.8620   35.8110 C   0  0  0  0  0  0  0  0  0  0  0  0
   42.8830   21.5260   35.4660 H   0  0  0  0  0  0  0  0  0  0  0  0
   41.6430   22.1580   37.1340 C   0  0  0  0  0  3  0  0  0  0  0  0
   40.3700   22.5710   37.4480 C   0  0  0  0  0  3  0  0  0  0  0  0
   36.7140   22.6960   36.4050 H   0  0  0  0  0  0  0  0  0  0  0  0
   37.7600   23.2440   37.0610 S   0  0  0  0  0  0  0  0  0  0  0  0
   37.6530   24.7410   36.8350 O   0  0  0  0  0  0  0  0  0  0  0  0
   37.5970   23.0420   38.5370 O   0  0  0  0  0  0  0  0  0  0  0  0
  1  6  1  0  0  0  0
  2  1  2  0  0  0  0
  2  3  1  0  0  0  0
  3  4  2  0  0  0  0
  4  5  1  0  0  0  0
  5 21  1  0  0  0  0
  6  5  2  0  0  0  0
  7  2  1  0  0  0  0
  8  3  1  0  0  0  0
  9 10  2  0  0  0  0
  9 14  1  0  0  0  0
 10 11  1  0  0  0  0
 11 16  1  0  0  0  0
 11 12  2  0  0  0  0
 13 12  1  0  0  0  0
 13  1  1  0  0  0  0
 14 13  2  0  0  0  0
 15  9  1  0  0  0  0
 17 10  1  0  0  0  0
 17 19  1  0  0  0  0
 18 17  1  0  0  0  0
 20 29  1  0  0  0  0
 20 27  1  0  0  0  0
 21 20  2  0  0  0  0
 22 21  1  0  0  0  0
 22 24  2  0  0  0  0
 23 22  1  0  0  0  0
 24 26  1  0  0  0  0
 25 24  1  0  0  0  0
 26 27  2  0  0  0  0
 28 29  1  0  0  0  0
 29 31  2  0  0  0  0
 30 29  2  0  0  0  0
M  END
>  <minimizedAffinity>
-5.18139172

$$$$

 OpenBabel03272506593D

 31 33  0  0  0  0  0  0  0  0999 V2000
   37.4750   24.1220   32.5850 C   0  0  0  0  0  0  0  0  0  0  0  0
   37.2010   22.8860   32.0690 C   0  0  0  0  0  0  0  0  0  0  0  0
   37.2890   21.6750   32.7100 C   0  0  0  0  0  0  0  0  0  0  0  0
   37.6980   21.7520   34.0040 N   0  0  0  0  0  0  0  0  0  0  0  0
   37.9850   22.9460   34.5730 C   0  0  0  0  0  0  0  0  0  0  0  0
   37.8720   24.0960   33.8730 N   0  0  0  0  0  0  0  0  0  0  0  0
   36.8720   22.8290   31.0280 H   0  0  0  0  0  0  0  0  0  0  0  0
   37.0530   20.7490   32.2260 H   0  0  0  0  0  0  0  0  0  0  0  0
   35.9840   27.0450   31.0270 C   0  0  0  0  0  0  0  0  0  0  0  0
   37.0420   27.6810   30.3730 C   0  0  0  0  0  0  0  0  0  0  0  0
   38.2980   27.0600   30.4890 C   0  0  0  0  0  0  0  0  0  0  0  0
   38.4190   25.9170   31.2030 N   0  0  0  0  0  0  0  0  0  0  0  0
   37.3460   25.3570   31.8120 C   0  0  0  0  0  0  0  0  0  0  0  0
   36.0940   25.8930   31.7490 N   0  0  0  0  0  0  0  0  0  0  0  0
   34.9820   27.4580   30.9880 H   0  0  0  0  0  0  0  0  0  0  0  0
   39.1010   27.5540   29.9850 H   0  0  0  0  0  0  0  0  0  0  0  0
   36.7890   28.8700   29.6580 N   0  0  0  0  0  0  0  0  0  0  0  0
   36.4620   28.8180   28.6740 H   0  0  0  0  0  0  0  0  0  0  0  0
   36.9990   29.6360   30.3190 H   0  0  0  0  0  0  0  0  0  0  0  0
   39.7180   22.7140   36.3240 C   0  0  0  0  0  0  0  0  0  0  0  0
   38.4250   23.0340   35.9640 C   0  0  0  0  0  0  0  0  0  0  0  0
   37.5530   23.4470   36.9710 C   0  0  0  0  0  0  0  0  0  0  0  0
   36.5260   23.7010   36.6830 H   0  0  0  0  0  0  0  0  0  0  0  0
   37.8980   23.5530   38.3010 C   0  0  0  0  0  0  0  0  0  0  0  0
   37.1450   23.8850   39.0210 H   0  0  0  0  0  0  0  0  0  0  0  0
   39.1880   23.2360   38.6740 C   0  0  0  0  0  3  0  0  0  0  0  0
   40.0470   22.8300   37.6790 C   0  0  0  0  0  3  0  0  0  0  0  0
   40.4380   21.3250   34.2380 H   0  0  0  0  0  0  0  0  0  0  0  0
   40.8920   22.1910   35.1710 S   0  0  0  0  0  0  0  0  0  0  0  0
   42.0060   21.4660   35.9040 O   0  0  0  0  0  0  0  0  0  0  0  0
   41.5410   23.3640   34.5010 O   0  0  0  0  0  0  0  0  0  0  0  0
  1  6  1  0  0  0  0
  2  1  2  0  0  0  0
  2  3  1  0  0  0  0
  3  4  2  0  0  0  0
  4  5  1  0  0  0  0
  5 21  1  0  0  0  0
  6  5  2  0  0  0  0
  7  2  1  0  0  0  0
  8  3  1  0  0  0  0
  9 14  1  0  0  0  0
 10 11  1  0  0  0  0
 10  9  2  0  0  0  0
 11 12  2  0  0  0  0
 12 13  1  0  0  0  0
 13  1  1  0  0  0  0
 14 13  2  0  0  0  0
 15  9  1  0  0  0  0
 16 11  1  0  0  0  0
 17 19  1  0  0  0  0
 17 10  1  0  0  0  0
 18 17  1  0  0  0  0
 20 27  1  0  0  0  0
 21 20  2  0  0  0  0
 21 22  1  0  0  0  0
 22 24  2  0  0  0  0
 23 22  1  0  0  0  0
 24 26  1  0  0  0  0
 24 25  1  0  0  0  0
 27 26  2  0  0  0  0
 28 29  1  0  0  0  0
 29 30  2  0  0  0  0
 29 20  1  0  0  0  0
 31 29  2  0  0  0  0
M  END
>  <minimizedAffinity>
-5.17028904

$$$$
