
 OpenBabel03272504243D

 42 45  0  0  0  0  0  0  0  0999 V2000
   31.2930   28.9130   46.8340 C   0  0  0  0  0  0  0  0  0  0  0  0
   32.4350   29.6880   46.6280 C   0  0  0  0  0  0  0  0  0  0  0  0
   32.5100   30.6670   45.6840 C   0  0  0  0  0  0  0  0  0  0  0  0
   31.4150   30.9220   44.8790 C   0  0  0  0  0  0  0  0  0  0  0  0
   30.2610   30.1870   45.0280 C   0  0  0  0  0  0  0  0  0  0  0  0
   30.2560   29.2130   46.0020 C   0  0  0  0  0  0  0  0  0  0  0  0
   33.4390   31.2130   45.6040 H   0  0  0  0  0  0  0  0  0  0  0  0
   31.5790   31.7120   44.1770 H   0  0  0  0  0  0  0  0  0  0  0  0
   29.4690   30.4570   44.3650 H   0  0  0  0  0  0  0  0  0  0  0  0
   29.2430   28.7590   45.9190 H   0  0  0  0  0  0  0  0  0  0  0  0
   35.6100   30.0570   48.4060 C   0  0  0  0  0  0  0  0  0  0  0  0
   35.6520   28.8810   49.0450 C   0  0  0  0  0  0  0  0  0  0  0  0
   34.6700   27.9600   48.9260 C   0  0  0  0  0  0  0  0  0  0  0  0
   33.5970   28.2320   48.1260 N   0  0  0  0  0  0  0  0  0  0  0  0
   33.5820   29.4240   47.4930 C   0  0  0  0  0  0  0  0  0  0  0  0
   34.5620   30.3340   47.6190 N   0  0  0  0  0  0  0  0  0  0  0  0
   36.4960   28.6290   49.6940 H   0  0  0  0  0  0  0  0  0  0  0  0
   34.7240   27.0170   49.4500 H   0  0  0  0  0  0  0  0  0  0  0  0
   37.7430   32.7360   49.7650 C   0  0  0  0  0  0  0  0  0  0  0  0
   38.6250   32.9880   48.7080 C   0  0  0  0  0  0  0  0  0  0  0  0
   38.4690   32.2230   47.5380 C   0  0  0  0  0  0  0  0  0  0  0  0
   37.4800   31.2910   47.5000 N   0  0  0  0  0  0  0  0  0  0  0  0
   36.6530   31.0740   48.5240 C   0  0  0  0  0  0  0  0  0  0  0  0
   36.7930   31.8030   49.6580 N   0  0  0  0  0  0  0  0  0  0  0  0
   37.9140   33.3480   50.6210 H   0  0  0  0  0  0  0  0  0  0  0  0
   39.4280   33.6830   48.6230 H   0  0  0  0  0  0  0  0  0  0  0  0
   39.0700   32.3030   46.6440 H   0  0  0  0  0  0  0  0  0  0  0  0
   31.0070   27.7490   47.9730 S   0  0  1  0  0  0  0  0  0  0  0  0
   30.6590   26.4040   47.2540 O   0  0  0  0  0  0  0  0  0  0  0  0
   30.8860   27.8350   49.3280 O   0  0  0  0  0  0  0  0  0  0  0  0
   28.2410   27.2210   47.5920 C   0  0  0  0  0  0  0  0  0  0  0  0
   29.2370   27.9740   48.3060 C   0  0  0  0  0  0  0  0  0  0  0  0
   28.7480   28.7540   49.2190 C   0  0  0  0  0  0  0  0  0  0  0  0
   29.3880   29.3840   49.8190 H   0  0  0  0  0  0  0  0  0  0  0  0
   27.4060   28.8840   49.5160 C   0  0  0  0  0  0  0  0  0  0  0  0
   27.1160   29.5660   50.2990 H   0  0  0  0  0  0  0  0  0  0  0  0
   26.5000   28.1450   48.8110 C   0  0  0  0  0  0  0  0  0  0  0  0
   26.8470   27.2730   47.8130 C   0  0  0  0  0  0  0  0  0  0  0  0
   30.0960   26.1970   46.2780 H   0  0  0  0  0  0  0  0  0  0  0  0
   28.6850   26.1530   46.2880 S   0  0  0  0  0  0  0  0  0  0  0  0
   28.3530   26.7380   44.9380 O   0  0  0  0  0  0  0  0  0  0  0  0
   28.3660   24.7600   46.3330 O   0  0  0  0  0  0  0  0  0  0  0  0
  1 28  1  0  0  0  0
  2  1  1  0  0  0  0
  2 15  1  0  0  0  0
  3  2  2  0  0  0  0
  4  5  2  0  0  0  0
  4  3  1  0  0  0  0
  5  6  1  0  0  0  0
  6  1  2  0  0  0  0
  7  3  1  0  0  0  0
  8  4  1  0  0  0  0
  9  5  1  0  0  0  0
 10  6  1  0  0  0  0
 11 23  1  0  0  0  0
 11 12  1  0  0  0  0
 12 17  1  0  0  0  0
 13 12  2  0  0  0  0
 13 18  1  0  0  0  0
 14 13  1  0  0  0  0
 15 16  1  0  0  0  0
 15 14  2  0  0  0  0
 16 11  2  0  0  0  0
 19 25  1  0  0  0  0
 20 19  2  0  0  0  0
 21 20  1  0  0  0  0
 22 21  2  0  0  0  0
 22 23  1  0  0  0  0
 23 24  2  0  0  0  0
 24 19  1  0  0  0  0
 26 20  1  0  0  0  0
 27 21  1  0  0  0  0
 28 32  1  0  0  0  0
 28 30  1  1  0  0  0
 29 28  1  0  0  0  0
 31 38  2  0  0  0  0
 31 32  1  0  0  0  0
 32 33  2  0  0  0  0
 33 35  1  0  0  0  0
 33 34  1  0  0  0  0
 35 36  1  0  0  0  0
 37 35  2  0  0  0  0
 38 37  1  0  0  0  0
 39 29  1  0  0  0  0
 40 42  1  0  0  0  0
 40 31  1  0  0  0  0
 41 40  1  0  0  0  0
M  END
>  <minimizedAffinity>
-6.46955824

>  <minimizedRMSD>
1.39139724

$$$$
