
 OpenBabel03272507583D

 35 37  0  0  0  0  0  0  0  0999 V2000
   37.0150   30.7000   47.6520 C   0  0  0  0  0  0  0  0  0  0  0  0
   37.5190   31.7970   48.3270 C   0  0  0  0  0  0  0  0  0  0  0  0
   38.5640   32.5190   47.7750 C   0  0  0  0  0  0  0  0  0  0  0  0
   39.0920   32.1300   46.5510 C   0  0  0  0  0  0  0  0  0  0  0  0
   38.5760   31.0370   45.8990 C   0  0  0  0  0  0  0  0  0  0  0  0
   37.5710   30.3830   46.4810 N   0  0  0  0  0  0  0  0  0  0  0  0
   37.1730   32.1840   49.2880 H   0  0  0  0  0  0  0  0  0  0  0  0
   38.9880   33.3940   48.2830 H   0  0  0  0  0  0  0  0  0  0  0  0
   39.8920   32.7110   46.1660 H   0  0  0  0  0  0  0  0  0  0  0  0
   35.0260   29.0120   50.3480 C   0  0  0  0  0  0  0  0  0  0  0  0
   36.1160   29.6440   49.6800 C   0  0  0  0  0  0  0  0  0  0  0  0
   35.9260   30.0520   48.3650 C   0  0  0  0  0  0  0  0  0  0  0  0
   34.7120   29.8280   47.7810 N   0  0  0  0  0  0  0  0  0  0  0  0
   33.7000   29.2180   48.4640 C   0  0  0  0  0  0  0  0  0  0  0  0
   33.8500   28.8160   49.7230 N   0  0  0  0  0  0  0  0  0  0  0  0
   32.5450   29.1010   47.6500 N   0  0  0  0  0  0  0  0  0  0  0  0
   35.1640   28.6890   51.3760 H   0  0  0  0  0  0  0  0  0  0  0  0
   32.1190   28.2120   47.3540 H   0  0  0  0  0  0  0  0  0  0  0  0
   32.0670   29.9700   47.3110 H   0  0  0  0  0  0  0  0  0  0  0  0
   37.3920   29.8320   50.4250 C   0  0  0  0  0  0  0  0  0  0  0  0
   38.4860   29.6770   49.5990 F   0  0  0  0  0  0  0  0  0  0  0  0
   37.4090   31.1200   50.9180 F   0  0  0  0  0  0  0  0  0  0  0  0
   37.5390   28.9740   51.4850 F   0  0  0  0  0  0  0  0  0  0  0  0
   39.4580   31.5010   43.6480 C   0  0  0  0  0  0  0  0  0  0  0  0
   39.0920   30.5860   44.6140 C   0  0  0  0  0  0  0  0  0  0  0  0
   39.2360   29.2480   44.3120 C   0  0  0  0  0  0  0  0  0  0  0  0
   38.9760   28.4750   45.0020 H   0  0  0  0  0  0  0  0  0  0  0  0
   39.7190   28.7900   43.1100 C   0  0  0  0  0  0  0  0  0  0  0  0
   39.8320   27.7360   42.8720 H   0  0  0  0  0  0  0  0  0  0  0  0
   40.0900   29.6750   42.1320 C   0  0  0  0  0  3  0  0  0  0  0  0
   39.9490   31.0140   42.4300 C   0  0  0  0  0  3  0  0  0  0  0  0
   38.1400   33.5610   44.4660 H   0  0  0  0  0  0  0  0  0  0  0  0
   39.3340   33.2220   43.8850 S   0  0  0  0  0  0  0  0  0  0  0  0
   39.3160   33.9060   42.5250 O   0  0  0  0  0  0  0  0  0  0  0  0
   40.5100   33.8020   44.6180 O   0  0  0  0  0  0  0  0  0  0  0  0
  1  2  1  0  0  0  0
  1 12  1  0  0  0  0
  2  7  1  0  0  0  0
  3  8  1  0  0  0  0
  3  2  2  0  0  0  0
  4  3  1  0  0  0  0
  5  6  1  0  0  0  0
  5  4  2  0  0  0  0
  6  1  2  0  0  0  0
  9  4  1  0  0  0  0
 10 17  1  0  0  0  0
 11 10  2  0  0  0  0
 11 20  1  0  0  0  0
 12 11  1  0  0  0  0
 13 12  2  0  0  0  0
 13 14  1  0  0  0  0
 14 15  2  0  0  0  0
 15 10  1  0  0  0  0
 16 14  1  0  0  0  0
 18 16  1  0  0  0  0
 19 16  1  0  0  0  0
 20 22  1  0  0  0  0
 20 23  1  0  0  0  0
 21 20  1  0  0  0  0
 24 33  1  0  0  0  0
 24 25  1  0  0  0  0
 25  5  1  0  0  0  0
 26 25  2  0  0  0  0
 26 27  1  0  0  0  0
 28 26  1  0  0  0  0
 29 28  1  0  0  0  0
 30 31  1  0  0  0  0
 30 28  2  0  0  0  0
 31 24  2  0  0  0  0
 33 32  1  0  0  0  0
 33 35  2  0  0  0  0
 34 33  2  0  0  0  0
M  END
>  <minimizedAffinity>
-6.46945667

>  <minimizedRMSD>
2.39224124

$$$$
