
 OpenBabel03272506063D

 33 35  0  0  0  0  0  0  0  0999 V2000
   33.5340   28.8290   47.6580 C   0  0  0  0  0  0  0  0  0  0  0  0
   33.3870   29.9970   46.8200 C   0  0  0  0  0  0  0  0  0  0  0  0
   31.8730   29.6190   45.9600 S   0  0  0  0  0  0  0  0  0  0  0  0
   31.6510   27.9720   46.8300 C   0  0  0  0  0  0  0  0  0  0  0  0
   32.6030   27.9220   47.5510 N   0  0  0  0  0  0  0  0  0  0  0  0
   34.0310   30.8400   46.7580 H   0  0  0  0  0  0  0  0  0  0  0  0
   29.4300   27.1800   47.4190 C   0  0  0  0  0  0  0  0  0  0  0  0
   30.5220   27.0610   46.5830 C   0  0  0  0  0  0  0  0  0  0  0  0
   30.5870   26.1440   45.5540 C   0  0  0  0  0  0  0  0  0  0  0  0
   31.4570   26.0730   44.9140 H   0  0  0  0  0  0  0  0  0  0  0  0
   29.5420   25.2900   45.3130 C   0  0  0  0  0  0  0  0  0  0  0  0
   29.4990   24.5410   44.5350 H   0  0  0  0  0  0  0  0  0  0  0  0
   28.4400   25.3970   46.1440 C   0  0  0  0  0  3  0  0  0  0  0  0
   28.3940   26.3220   47.1670 C   0  0  0  0  0  3  0  0  0  0  0  0
   30.0920   29.5120   48.2870 H   0  0  0  0  0  0  0  0  0  0  0  0
   29.4450   28.3750   48.6940 S   0  0  0  0  0  0  0  0  0  0  0  0
   30.0100   27.7980   49.9490 O   0  0  0  0  0  0  0  0  0  0  0  0
   28.0150   28.7640   49.0220 O   0  0  0  0  0  0  0  0  0  0  0  0
   34.7300   28.7720   48.5650 C   0  0  0  0  0  0  0  0  0  0  0  0
   34.6450   27.9070   49.2550 H   0  0  0  0  0  0  0  0  0  0  0  0
   35.6240   28.5620   47.9410 H   0  0  0  0  0  0  0  0  0  0  0  0
   34.8370   30.0160   49.3940 C   0  0  0  0  0  0  0  0  0  0  0  0
   34.9070   29.7740   50.4870 H   0  0  0  0  0  0  0  0  0  0  0  0
   33.9960   30.7050   49.2890 H   0  0  0  0  0  0  0  0  0  0  0  0
   37.7410   32.3300   49.5450 C   0  0  0  0  0  0  0  0  0  0  0  0
   38.5240   31.9120   48.4640 C   0  0  0  0  0  0  0  0  0  0  0  0
   38.0440   30.8420   47.7000 C   0  0  0  0  0  0  0  0  0  0  0  0
   36.8660   30.2750   48.0380 N   0  0  0  0  0  0  0  0  0  0  0  0
   36.1460   30.7190   49.0960 C   0  0  0  0  0  0  0  0  0  0  0  0
   36.5670   31.7340   49.8490 N   0  0  0  0  0  0  0  0  0  0  0  0
   38.1320   33.1620   50.1250 H   0  0  0  0  0  0  0  0  0  0  0  0
   39.4630   32.4070   48.2410 H   0  0  0  0  0  0  0  0  0  0  0  0
   38.6400   30.5180   46.8710 H   0  0  0  0  0  0  0  0  0  0  0  0
  1 19  1  0  0  0  0
  2  1  2  0  0  0  0
  3  2  1  0  0  0  0
  3  4  1  0  0  0  0
  4  5  2  0  0  0  0
  5  1  1  0  0  0  0
  6  2  1  0  0  0  0
  7 16  1  0  0  0  0
  8  4  1  0  0  0  0
  8  7  2  0  0  0  0
  9  8  1  0  0  0  0
 10  9  1  0  0  0  0
 11  9  2  0  0  0  0
 11 13  1  0  0  0  0
 12 11  1  0  0  0  0
 13 14  2  0  0  0  0
 14  7  1  0  0  0  0
 15 16  1  0  0  0  0
 16 18  2  0  0  0  0
 16 17  2  0  0  0  0
 19 20  1  0  0  0  0
 19 22  1  0  0  0  0
 21 19  1  0  0  0  0
 22 23  1  0  0  0  0
 24 22  1  0  0  0  0
 25 30  1  0  0  0  0
 25 31  1  0  0  0  0
 26 25  2  0  0  0  0
 27 28  2  0  0  0  0
 27 26  1  0  0  0  0
 28 29  1  0  0  0  0
 29 22  1  0  0  0  0
 29 30  2  0  0  0  0
 32 26  1  0  0  0  0
 33 27  1  0  0  0  0
M  END
>  <minimizedAffinity>
-4.87049341

>  <minimizedRMSD>
2.32509971

$$$$
