
 OpenBabel03272509573D

 49 52  0  0  0  0  0  0  0  0999 V2000
   33.3920   27.6260   47.5330 C   0  0  0  0  0  0  0  0  0  0  0  0
   33.6620   26.6230   47.8940 H   0  0  0  0  0  0  0  0  0  0  0  0
   33.5500   27.5990   46.4310 H   0  0  0  0  0  0  0  0  0  0  0  0
   31.9510   27.9070   47.8100 C   0  0  0  0  0  0  0  0  0  0  0  0
   31.4320   27.4430   49.0020 C   0  0  0  0  0  0  0  0  0  0  0  0
   30.1190   27.6590   49.3300 C   0  0  0  0  0  0  0  0  0  0  0  0
   29.3320   28.3190   48.4960 N   0  0  0  0  0  0  0  0  0  0  0  0
   29.8450   28.7790   47.3150 C   0  0  0  0  0  0  0  0  0  0  0  0
   31.1280   28.5710   46.9900 N   0  0  0  0  0  0  0  0  0  0  0  0
   32.0550   26.9080   49.6870 H   0  0  0  0  0  0  0  0  0  0  0  0
   29.6920   27.2980   50.2690 H   0  0  0  0  0  0  0  0  0  0  0  0
   28.9310   29.5200   46.4110 C   0  0  0  0  0  0  0  0  0  0  0  0
   28.1990   30.0600   47.0810 H   0  0  0  0  0  0  0  0  0  0  0  0
   29.4990   30.3670   45.9360 H   0  0  0  0  0  0  0  0  0  0  0  0
   27.4510   29.1630   44.4080 C   0  0  0  0  0  0  0  0  0  0  0  0
   28.2120   28.6780   45.4450 C   0  0  0  0  0  0  0  0  0  0  0  0
   28.3090   27.2880   45.5850 C   0  0  0  0  0  0  0  0  0  0  0  0
   28.9040   26.8910   46.3950 H   0  0  0  0  0  0  0  0  0  0  0  0
   27.6860   26.3920   44.7420 C   0  0  0  0  0  0  0  0  0  0  0  0
   27.7970   25.3180   44.8990 H   0  0  0  0  0  0  0  0  0  0  0  0
   26.9200   26.8620   43.6980 C   0  0  0  0  0  3  0  0  0  0  0  0
   26.8270   28.2340   43.5660 C   0  0  0  0  0  3  0  0  0  0  0  0
   28.4870   31.5010   43.9800 H   0  0  0  0  0  0  0  0  0  0  0  0
   27.2680   30.8700   44.1590 S   0  0  0  0  0  0  0  0  0  0  0  0
   26.3910   31.5490   45.1440 O   0  0  0  0  0  0  0  0  0  0  0  0
   26.5710   31.0320   42.8100 O   0  0  0  0  0  0  0  0  0  0  0  0
   34.2980   28.7000   48.0860 C   0  0  0  0  0  0  0  0  0  0  0  0
   35.0620   29.0250   47.3780 H   0  0  0  0  0  0  0  0  0  0  0  0
   33.6730   29.5840   48.3410 H   0  0  0  0  0  0  0  0  0  0  0  0
   34.8830   28.2850   49.3130 O   0  0  0  0  0  0  0  0  0  0  0  0
   37.1180   30.0110   51.5580 C   0  0  0  0  0  0  0  0  0  0  0  0
   37.8870   30.7470   50.6300 C   0  0  0  0  0  0  0  0  0  0  0  0
   37.5820   30.5980   49.2830 C   0  0  0  0  0  0  0  0  0  0  0  0
   36.5550   29.7440   48.9780 N   0  0  0  0  0  0  0  0  0  0  0  0
   35.8410   29.0580   49.8730 C   0  0  0  0  0  0  0  0  0  0  0  0
   36.1350   29.2010   51.1730 N   0  0  0  0  0  0  0  0  0  0  0  0
   37.3730   30.1430   52.6000 H   0  0  0  0  0  0  0  0  0  0  0  0
   38.6950   31.4180   50.8870 H   0  0  0  0  0  0  0  0  0  0  0  0
   38.8000   33.2320   49.2710 F   0  0  0  0  0  0  0  0  0  0  0  0
   38.8330   32.4900   48.1690 C   0  0  0  0  0  0  0  0  0  0  0  0
   38.2630   31.2720   48.1960 C   0  0  0  0  0  0  0  0  0  0  0  0
   38.3510   30.5690   46.9850 C   0  0  0  0  0  0  0  0  0  0  0  0
   38.9700   31.0980   45.8790 C   0  0  0  0  0  0  0  0  0  0  0  0
   39.5380   32.3410   45.8920 C   0  0  0  0  0  0  0  0  0  0  0  0
   39.4510   33.0170   47.0640 C   0  0  0  0  0  0  0  0  0  0  0  0
   37.9180   29.5690   46.9040 H   0  0  0  0  0  0  0  0  0  0  0  0
   39.0000   30.4930   44.9700 H   0  0  0  0  0  0  0  0  0  0  0  0
   40.0110   32.7040   44.9930 H   0  0  0  0  0  0  0  0  0  0  0  0
   39.8980   34.0230   47.1120 H   0  0  0  0  0  0  0  0  0  0  0  0
  1  4  1  0  0  0  0
  1  2  1  0  0  0  0
  1 27  1  0  0  0  0
  3  1  1  0  0  0  0
  4  5  1  0  0  0  0
  5  6  2  0  0  0  0
  5 10  1  0  0  0  0
  6 11  1  0  0  0  0
  7  6  1  0  0  0  0
  8  7  2  0  0  0  0
  9  8  1  0  0  0  0
  9  4  2  0  0  0  0
 12 13  1  0  0  0  0
 12  8  1  0  0  0  0
 14 12  1  0  0  0  0
 15 16  1  0  0  0  0
 16 17  2  0  0  0  0
 16 12  1  0  0  0  0
 17 18  1  0  0  0  0
 19 20  1  0  0  0  0
 19 17  1  0  0  0  0
 21 19  2  0  0  0  0
 22 21  1  0  0  0  0
 22 15  2  0  0  0  0
 23 24  1  0  0  0  0
 24 15  1  0  0  0  0
 24 25  2  0  0  0  0
 26 24  2  0  0  0  0
 27 29  1  0  0  0  0
 27 30  1  0  0  0  0
 28 27  1  0  0  0  0
 30 35  1  0  0  0  0
 31 37  1  0  0  0  0
 32 38  1  0  0  0  0
 32 31  2  0  0  0  0
 33 32  1  0  0  0  0
 34 33  2  0  0  0  0
 34 35  1  0  0  0  0
 35 36  2  0  0  0  0
 36 31  1  0  0  0  0
 40 41  1  0  0  0  0
 40 39  1  0  0  0  0
 41 33  1  0  0  0  0
 42 41  2  0  0  0  0
 43 44  2  0  0  0  0
 43 42  1  0  0  0  0
 44 45  1  0  0  0  0
 45 49  1  0  0  0  0
 45 40  2  0  0  0  0
 46 42  1  0  0  0  0
 47 43  1  0  0  0  0
 48 44  1  0  0  0  0
M  END
>  <minimizedAffinity>
-6.65716696

>  <minimizedRMSD>
0.877842903

$$$$
