
 OpenBabel03262522403D

 44 48  0  0  0  0  0  0  0  0999 V2000
   38.0380   31.3310   47.1270 C   0  0  0  0  0  0  0  0  0  0  0  0
   38.7990   32.4620   47.3240 C   0  0  0  0  0  0  0  0  0  0  0  0
   39.8300   32.8320   46.4900 C   0  0  0  0  0  0  0  0  0  0  0  0
   40.1380   32.0600   45.4050 C   0  0  0  0  0  0  0  0  0  0  0  0
   39.3600   30.9390   45.2370 C   0  0  0  0  0  0  0  0  0  0  0  0
   38.3660   30.5830   46.0420 N   0  0  0  0  0  0  0  0  0  0  0  0
   38.5190   33.0490   48.2000 H   0  0  0  0  0  0  0  0  0  0  0  0
   40.3530   33.7440   46.7510 H   0  0  0  0  0  0  0  0  0  0  0  0
   40.9520   32.3630   44.7550 H   0  0  0  0  0  0  0  0  0  0  0  0
   38.9220   28.9260   43.7900 C   0  0  0  0  0  0  0  0  0  0  0  0
   39.6380   30.0740   44.0980 C   0  0  0  0  0  0  0  0  0  0  0  0
   40.6610   30.3160   43.2000 C   0  0  0  0  0  0  0  0  0  0  0  0
   40.9750   29.5420   42.1090 C   0  0  0  0  0  0  0  0  0  0  0  0
   41.9150   29.6310   41.1540 N   0  0  0  0  0  0  0  0  0  0  0  0
   41.7650   28.5920   40.3230 C   0  0  0  0  0  0  0  0  0  0  0  0
   40.7150   27.8100   40.7330 C   0  0  0  0  0  0  0  0  0  0  0  0
   40.2220   28.4280   41.8720 C   0  0  0  0  0  0  0  0  0  0  0  0
   39.1900   28.1170   42.7160 C   0  0  0  0  0  0  0  0  0  0  0  0
   38.0870   28.6550   44.4520 H   0  0  0  0  0  0  0  0  0  0  0  0
   41.2860   31.2010   43.3570 H   0  0  0  0  0  0  0  0  0  0  0  0
   42.6430   30.3970   41.0840 H   0  0  0  0  0  0  0  0  0  0  0  0
   42.3840   28.3990   39.4520 H   0  0  0  0  0  0  0  0  0  0  0  0
   40.3500   26.9010   40.2620 H   0  0  0  0  0  0  0  0  0  0  0  0
   38.6000   27.2320   42.5170 H   0  0  0  0  0  0  0  0  0  0  0  0
   35.6610   31.0160   50.0270 C   0  0  0  0  0  0  0  0  0  0  0  0
   36.7500   31.4780   49.2830 C   0  0  0  0  0  0  0  0  0  0  0  0
   36.9550   30.9510   48.0100 C   0  0  0  0  0  0  0  0  0  0  0  0
   36.0740   30.0170   47.5810 N   0  0  0  0  0  0  0  0  0  0  0  0
   35.0250   29.5830   48.3170 C   0  0  0  0  0  0  0  0  0  0  0  0
   34.8310   30.0920   49.5390 N   0  0  0  0  0  0  0  0  0  0  0  0
   35.5590   31.4690   51.0130 H   0  0  0  0  0  0  0  0  0  0  0  0
   37.4610   32.2350   49.6360 H   0  0  0  0  0  0  0  0  0  0  0  0
   33.2520   28.8710   46.7390 C   0  0  0  0  0  0  0  0  0  0  0  0
   34.1520   28.5700   47.7300 C   0  0  0  0  0  0  0  0  0  0  0  0
   34.2530   27.2790   48.2040 C   0  0  0  0  0  0  0  0  0  0  0  0
   34.9330   26.9540   48.9790 H   0  0  0  0  0  0  0  0  0  0  0  0
   33.4610   26.2620   47.6990 C   0  0  0  0  0  0  0  0  0  0  0  0
   33.4920   25.2210   48.0290 H   0  0  0  0  0  0  0  0  0  0  0  0
   32.5440   26.5280   46.7010 C   0  0  0  0  0  3  0  0  0  0  0  0
   32.4680   27.8210   46.2520 C   0  0  0  0  0  3  0  0  0  0  0  0
   33.5190   31.4470   47.0180 H   0  0  0  0  0  0  0  0  0  0  0  0
   33.1070   30.4970   46.1260 S   0  0  0  0  0  0  0  0  0  0  0  0
   31.6410   30.7820   45.8460 O   0  0  0  0  0  0  0  0  0  0  0  0
   33.7900   30.6090   44.7890 O   0  0  0  0  0  0  0  0  0  0  0  0
  1  2  1  0  0  0  0
  1 27  1  0  0  0  0
  2  7  1  0  0  0  0
  3  8  1  0  0  0  0
  3  2  2  0  0  0  0
  4  3  1  0  0  0  0
  5  4  2  0  0  0  0
  5  6  1  0  0  0  0
  6  1  2  0  0  0  0
  9  4  1  0  0  0  0
 10 11  1  0  0  0  0
 10 19  1  0  0  0  0
 11  5  1  0  0  0  0
 12 20  1  0  0  0  0
 12 11  2  0  0  0  0
 13 12  1  0  0  0  0
 14 13  1  0  0  0  0
 15 16  2  0  0  0  0
 15 14  1  0  0  0  0
 16 17  1  0  0  0  0
 17 13  2  0  0  0  0
 17 18  1  0  0  0  0
 18 10  2  0  0  0  0
 21 14  1  0  0  0  0
 22 15  1  0  0  0  0
 23 16  1  0  0  0  0
 24 18  1  0  0  0  0
 25 31  1  0  0  0  0
 26 32  1  0  0  0  0
 26 25  2  0  0  0  0
 27 26  1  0  0  0  0
 28 27  2  0  0  0  0
 28 29  1  0  0  0  0
 29 30  2  0  0  0  0
 30 25  1  0  0  0  0
 33 34  1  0  0  0  0
 34 35  2  0  0  0  0
 34 29  1  0  0  0  0
 35 36  1  0  0  0  0
 37 38  1  0  0  0  0
 37 35  1  0  0  0  0
 39 37  2  0  0  0  0
 40 39  1  0  0  0  0
 40 33  2  0  0  0  0
 42 33  1  0  0  0  0
 42 41  1  0  0  0  0
 43 42  2  0  0  0  0
 44 42  2  0  0  0  0
M  END
>  <minimizedAffinity>
-6.91771126

>  <minimizedRMSD>
1.41034722

$$$$
