
 OpenBabel03272509463D

 28 29  0  0  0  0  0  0  0  0999 V2000
   33.0180   27.7910   48.4900 C   0  0  0  0  0  0  0  0  0  0  0  0
   33.0740   26.7370   48.8580 H   0  0  0  0  0  0  0  0  0  0  0  0
   31.9420   28.0450   48.5180 H   0  0  0  0  0  0  0  0  0  0  0  0
   33.6000   26.5720   46.5310 C   0  0  0  0  0  0  0  0  0  0  0  0
   33.4960   27.8520   47.0880 C   0  0  0  0  0  0  0  0  0  0  0  0
   33.8230   28.9490   46.3290 C   0  0  0  0  0  0  0  0  0  0  0  0
   33.7060   29.8850   46.8530 H   0  0  0  0  0  0  0  0  0  0  0  0
   34.2500   28.8030   45.0290 C   0  0  0  0  0  0  0  0  0  0  0  0
   34.4960   29.7170   44.4750 H   0  0  0  0  0  0  0  0  0  0  0  0
   34.3690   27.5630   44.4380 C   0  0  0  0  0  3  0  0  0  0  0  0
   34.0370   26.4440   45.2100 C   0  0  0  0  0  3  0  0  0  0  0  0
   33.6590   24.9630   48.5630 H   0  0  0  0  0  0  0  0  0  0  0  0
   33.2580   25.0340   47.2590 S   0  0  0  0  0  0  0  0  0  0  0  0
   31.8010   24.6410   47.1480 O   0  0  0  0  0  0  0  0  0  0  0  0
   34.0950   23.9990   46.5270 O   0  0  0  0  0  0  0  0  0  0  0  0
   33.8060   28.6830   49.4030 C   0  0  0  0  0  0  0  0  0  0  0  0
   33.8210   29.6950   48.9030 H   0  0  0  0  0  0  0  0  0  0  0  0
   33.2720   28.8460   50.3480 H   0  0  0  0  0  0  0  0  0  0  0  0
   35.1280   28.2100   49.5490 O   0  0  0  0  0  0  0  0  0  0  0  0
   37.4380   30.3140   51.3610 C   0  0  0  0  0  0  0  0  0  0  0  0
   38.1370   30.8920   50.2800 C   0  0  0  0  0  0  0  0  0  0  0  0
   37.7710   30.5230   48.9880 C   0  0  0  0  0  0  0  0  0  0  0  0
   36.7520   29.6200   48.8530 N   0  0  0  0  0  0  0  0  0  0  0  0
   36.1150   29.0950   49.9150 C   0  0  0  0  0  0  0  0  0  0  0  0
   36.4630   29.4480   51.1730 N   0  0  0  0  0  0  0  0  0  0  0  0
   37.6930   30.5760   52.3690 H   0  0  0  0  0  0  0  0  0  0  0  0
   38.9390   31.6040   50.4410 H   0  0  0  0  0  0  0  0  0  0  0  0
   38.2650   30.9270   48.1130 H   0  0  0  0  0  0  0  0  0  0  0  0
  1  3  1  0  0  0  0
  1  2  1  0  0  0  0
  1 16  1  0  0  0  0
  4  5  1  0  0  0  0
  4 13  1  0  0  0  0
  5  1  1  0  0  0  0
  6  7  1  0  0  0  0
  6  5  2  0  0  0  0
  8  6  1  0  0  0  0
  9  8  1  0  0  0  0
 10  8  2  0  0  0  0
 10 11  1  0  0  0  0
 11  4  2  0  0  0  0
 13 12  1  0  0  0  0
 14 13  2  0  0  0  0
 15 13  2  0  0  0  0
 16 19  1  0  0  0  0
 16 18  1  0  0  0  0
 17 16  1  0  0  0  0
 19 24  1  0  0  0  0
 20 26  1  0  0  0  0
 21 27  1  0  0  0  0
 21 20  2  0  0  0  0
 22 21  1  0  0  0  0
 23 22  2  0  0  0  0
 23 24  1  0  0  0  0
 24 25  2  0  0  0  0
 25 20  1  0  0  0  0
 28 22  1  0  0  0  0
M  END
>  <minimizedAffinity>
-4.1111927

>  <minimizedRMSD>
1.37495899

$$$$
