
 OpenBabel03262520233D

 35 37  0  0  0  0  0  0  0  0999 V2000
   39.8070   24.7140   34.9430 C   0  0  0  0  0  0  0  0  0  0  0  0
   40.5290   25.9170   34.9150 C   0  0  0  0  0  0  0  0  0  0  0  0
   40.2650   26.9860   34.1310 C   0  0  0  0  0  0  0  0  0  0  0  0
   39.2180   26.9470   33.2760 C   0  0  0  0  0  0  0  0  0  0  0  0
   38.5100   25.8040   33.2800 C   0  0  0  0  0  0  0  0  0  0  0  0
   38.8340   24.8160   34.0730 N   0  0  0  0  0  0  0  0  0  0  0  0
   41.4250   26.0420   35.5980 H   0  0  0  0  0  0  0  0  0  0  0  0
   40.9140   27.9040   34.1910 H   0  0  0  0  0  0  0  0  0  0  0  0
   38.9660   27.7880   32.6770 H   0  0  0  0  0  0  0  0  0  0  0  0
   41.4280   23.0820   35.4830 C   0  0  0  0  0  0  0  0  0  0  0  0
   40.1820   23.6610   35.8720 C   0  0  0  0  0  0  0  0  0  0  0  0
   39.5940   23.1680   37.0070 C   0  0  0  0  0  0  0  0  0  0  0  0
   40.2520   22.1630   37.6700 N   0  0  0  0  0  0  0  0  0  0  0  0
   41.4140   21.6320   37.2980 C   0  0  0  0  0  0  0  0  0  0  0  0
   41.9930   22.1100   36.1870 N   0  0  0  0  0  0  0  0  0  0  0  0
   41.9300   20.6190   38.1190 N   0  0  0  0  0  0  0  0  0  0  0  0
   42.0000   23.3640   34.6230 H   0  0  0  0  0  0  0  0  0  0  0  0
   42.4710   19.7820   37.7580 H   0  0  0  0  0  0  0  0  0  0  0  0
   41.8100   20.6300   39.1610 H   0  0  0  0  0  0  0  0  0  0  0  0
   38.3180   23.7230   37.4570 C   0  0  0  0  0  0  0  0  0  0  0  0
   38.0160   23.2130   38.6330 F   0  0  0  0  0  0  0  0  0  0  0  0
   38.2900   25.1040   37.5140 F   0  0  0  0  0  0  0  0  0  0  0  0
   37.2680   23.3710   36.5560 F   0  0  0  0  0  0  0  0  0  0  0  0
   36.4260   26.4560   31.9990 C   0  0  0  0  0  0  0  0  0  0  0  0
   37.2900   25.5070   32.4850 C   0  0  0  0  0  0  0  0  0  0  0  0
   36.9790   24.1860   32.1390 C   0  0  0  0  0  0  0  0  0  0  0  0
   37.6590   23.4210   32.5150 H   0  0  0  0  0  0  0  0  0  0  0  0
   35.9200   23.7750   31.3850 C   0  0  0  0  0  0  0  0  0  0  0  0
   35.7830   22.7230   31.1850 H   0  0  0  0  0  0  0  0  0  0  0  0
   35.0580   24.7310   30.9080 C   0  0  0  0  0  3  0  0  0  0  0  0
   35.3360   26.0420   31.2270 C   0  0  0  0  0  3  0  0  0  0  0  0
   37.9550   28.5640   32.2160 H   0  0  0  0  0  0  0  0  0  0  0  0
   36.6580   28.1620   32.2140 S   0  0  0  0  0  0  0  0  0  0  0  0
   35.9030   28.9790   31.1760 O   0  0  0  0  0  0  0  0  0  0  0  0
   36.0180   28.5480   33.5650 O   0  0  0  0  0  0  0  0  0  0  0  0
  1 11  1  0  0  0  0
  2  1  1  0  0  0  0
  2  7  1  0  0  0  0
  3  8  1  0  0  0  0
  3  2  2  0  0  0  0
  4  5  2  0  0  0  0
  4  3  1  0  0  0  0
  5  6  1  0  0  0  0
  6  1  2  0  0  0  0
  9  4  1  0  0  0  0
 10 11  2  0  0  0  0
 10 15  1  0  0  0  0
 11 12  1  0  0  0  0
 12 20  1  0  0  0  0
 12 13  2  0  0  0  0
 14 13  1  0  0  0  0
 14 16  1  0  0  0  0
 15 14  2  0  0  0  0
 16 19  1  0  0  0  0
 17 10  1  0  0  0  0
 18 16  1  0  0  0  0
 20 22  1  0  0  0  0
 20 21  1  0  0  0  0
 23 20  1  0  0  0  0
 24 33  1  0  0  0  0
 24 25  1  0  0  0  0
 25  5  1  0  0  0  0
 26 25  2  0  0  0  0
 26 27  1  0  0  0  0
 28 26  1  0  0  0  0
 29 28  1  0  0  0  0
 30 31  1  0  0  0  0
 30 28  2  0  0  0  0
 31 24  2  0  0  0  0
 33 32  1  0  0  0  0
 33 35  2  0  0  0  0
 34 33  2  0  0  0  0
M  END
>  <minimizedAffinity>
-6.89065409

$$$$

 OpenBabel03262520233D

 35 37  0  0  0  0  0  0  0  0999 V2000
   37.7730   22.2600   32.3130 C   0  0  0  0  0  0  0  0  0  0  0  0
   37.5460   23.6010   31.9650 C   0  0  0  0  0  0  0  0  0  0  0  0
   37.9990   24.6850   32.6320 C   0  0  0  0  0  0  0  0  0  0  0  0
   38.7460   24.5200   33.7470 C   0  0  0  0  0  0  0  0  0  0  0  0
   38.9770   23.2450   34.1060 C   0  0  0  0  0  0  0  0  0  0  0  0
   38.5010   22.2520   33.4010 N   0  0  0  0  0  0  0  0  0  0  0  0
   36.9280   23.8370   31.0440 H   0  0  0  0  0  0  0  0  0  0  0  0
   37.7550   25.7190   32.2610 H   0  0  0  0  0  0  0  0  0  0  0  0
   39.1460   25.3550   34.2690 H   0  0  0  0  0  0  0  0  0  0  0  0
   38.2200   20.8400   30.4790 C   0  0  0  0  0  0  0  0  0  0  0  0
   37.2570   21.1920   31.4730 C   0  0  0  0  0  0  0  0  0  0  0  0
   36.0830   20.4860   31.4800 C   0  0  0  0  0  0  0  0  0  0  0  0
   35.9340   19.5040   30.5340 N   0  0  0  0  0  0  0  0  0  0  0  0
   36.8400   19.1840   29.6130 C   0  0  0  0  0  0  0  0  0  0  0  0
   37.9900   19.8720   29.6000 N   0  0  0  0  0  0  0  0  0  0  0  0
   36.5020   18.1380   28.7410 N   0  0  0  0  0  0  0  0  0  0  0  0
   39.1770   21.3020   30.3520 H   0  0  0  0  0  0  0  0  0  0  0  0
   36.7850   18.1040   27.7200 H   0  0  0  0  0  0  0  0  0  0  0  0
   35.9390   17.3110   29.0540 H   0  0  0  0  0  0  0  0  0  0  0  0
   35.0600   20.8010   32.4760 C   0  0  0  0  0  0  0  0  0  0  0  0
   33.9720   20.1070   32.2110 F   0  0  0  0  0  0  0  0  0  0  0  0
   35.4570   20.5850   33.7830 F   0  0  0  0  0  0  0  0  0  0  0  0
   34.7090   22.1830   32.4220 F   0  0  0  0  0  0  0  0  0  0  0  0
   39.4390   22.8840   36.5680 C   0  0  0  0  0  0  0  0  0  0  0  0
   39.8010   22.7760   35.2490 C   0  0  0  0  0  0  0  0  0  0  0  0
   41.0220   22.1280   35.0200 C   0  0  0  0  0  0  0  0  0  0  0  0
   41.3210   22.0310   33.9760 H   0  0  0  0  0  0  0  0  0  0  0  0
   41.8560   21.6140   35.9670 C   0  0  0  0  0  0  0  0  0  0  0  0
   42.7760   21.1350   35.6660 H   0  0  0  0  0  0  0  0  0  0  0  0
   41.4870   21.7320   37.2840 C   0  0  0  0  0  3  0  0  0  0  0  0
   40.2910   22.3620   37.5470 C   0  0  0  0  0  3  0  0  0  0  0  0
   36.8660   23.2580   36.3060 H   0  0  0  0  0  0  0  0  0  0  0  0
   37.9290   23.5580   37.0950 S   0  0  0  0  0  0  0  0  0  0  0  0
   37.5920   23.1650   38.5250 O   0  0  0  0  0  0  0  0  0  0  0  0
   38.0980   25.0920   37.1340 O   0  0  0  0  0  0  0  0  0  0  0  0
  1  6  1  0  0  0  0
  2  1  2  0  0  0  0
  2  3  1  0  0  0  0
  3  4  2  0  0  0  0
  4  5  1  0  0  0  0
  4  9  1  0  0  0  0
  5 25  1  0  0  0  0
  6  5  2  0  0  0  0
  7  2  1  0  0  0  0
  8  3  1  0  0  0  0
 10 11  1  0  0  0  0
 11 12  2  0  0  0  0
 11  1  1  0  0  0  0
 12 20  1  0  0  0  0
 13 12  1  0  0  0  0
 14 13  2  0  0  0  0
 15 14  1  0  0  0  0
 15 10  2  0  0  0  0
 16 19  1  0  0  0  0
 16 14  1  0  0  0  0
 17 10  1  0  0  0  0
 18 16  1  0  0  0  0
 20 22  1  0  0  0  0
 21 20  1  0  0  0  0
 23 20  1  0  0  0  0
 24 33  1  0  0  0  0
 24 31  1  0  0  0  0
 25 24  2  0  0  0  0
 26 25  1  0  0  0  0
 26 28  2  0  0  0  0
 27 26  1  0  0  0  0
 28 30  1  0  0  0  0
 29 28  1  0  0  0  0
 30 31  2  0  0  0  0
 32 33  1  0  0  0  0
 33 35  2  0  0  0  0
 33 34  2  0  0  0  0
M  END
>  <minimizedAffinity>
-6.11986017

$$$$

 OpenBabel03262520233D

 35 37  0  0  0  0  0  0  0  0999 V2000
   35.1990   29.4230   33.6880 C   0  0  0  0  0  0  0  0  0  0  0  0
   35.2670   29.8390   32.3490 C   0  0  0  0  0  0  0  0  0  0  0  0
   36.1160   29.3650   31.4100 C   0  0  0  0  0  0  0  0  0  0  0  0
   37.0020   28.3980   31.7370 C   0  0  0  0  0  0  0  0  0  0  0  0
   36.9610   27.9820   33.0160 C   0  0  0  0  0  0  0  0  0  0  0  0
   36.1050   28.4960   33.8610 N   0  0  0  0  0  0  0  0  0  0  0  0
   34.5620   30.6470   31.9830 H   0  0  0  0  0  0  0  0  0  0  0  0
   36.0830   29.7730   30.3620 H   0  0  0  0  0  0  0  0  0  0  0  0
   37.6550   27.9800   31.0090 H   0  0  0  0  0  0  0  0  0  0  0  0
   32.9300   29.3890   34.3450 C   0  0  0  0  0  0  0  0  0  0  0  0
   34.2010   29.9950   34.5780 C   0  0  0  0  0  0  0  0  0  0  0  0
   34.2670   30.9450   35.5620 C   0  0  0  0  0  0  0  0  0  0  0  0
   33.1080   31.2320   36.2380 N   0  0  0  0  0  0  0  0  0  0  0  0
   31.9280   30.6590   36.0130 C   0  0  0  0  0  0  0  0  0  0  0  0
   31.8580   29.7290   35.0500 N   0  0  0  0  0  0  0  0  0  0  0  0
   30.8630   31.0820   36.8220 N   0  0  0  0  0  0  0  0  0  0  0  0
   32.7270   28.6360   33.6120 H   0  0  0  0  0  0  0  0  0  0  0  0
   29.8620   31.1690   36.4850 H   0  0  0  0  0  0  0  0  0  0  0  0
   30.9970   31.3420   37.8300 H   0  0  0  0  0  0  0  0  0  0  0  0
   35.5440   31.6000   35.8470 C   0  0  0  0  0  0  0  0  0  0  0  0
   35.4070   32.3690   36.9070 F   0  0  0  0  0  0  0  0  0  0  0  0
   36.6000   30.7260   36.0250 F   0  0  0  0  0  0  0  0  0  0  0  0
   35.9380   32.4360   34.7600 F   0  0  0  0  0  0  0  0  0  0  0  0
   37.7130   25.5810   33.2850 C   0  0  0  0  0  0  0  0  0  0  0  0
   37.7800   26.9060   33.6310 C   0  0  0  0  0  0  0  0  0  0  0  0
   38.7360   27.2190   34.6060 C   0  0  0  0  0  0  0  0  0  0  0  0
   38.8030   28.2690   34.8890 H   0  0  0  0  0  0  0  0  0  0  0  0
   39.5780   26.3430   35.2230 C   0  0  0  0  0  0  0  0  0  0  0  0
   40.2770   26.7040   35.9630 H   0  0  0  0  0  0  0  0  0  0  0  0
   39.5010   25.0180   34.8730 C   0  0  0  0  0  3  0  0  0  0  0  0
   38.5720   24.6750   33.9150 C   0  0  0  0  0  3  0  0  0  0  0  0
   35.4520   25.5510   31.9750 H   0  0  0  0  0  0  0  0  0  0  0  0
   36.6760   24.9680   32.0350 S   0  0  0  0  0  0  0  0  0  0  0  0
   37.3200   25.0590   30.6590 O   0  0  0  0  0  0  0  0  0  0  0  0
   36.4920   23.4560   32.2880 O   0  0  0  0  0  0  0  0  0  0  0  0
  1  6  1  0  0  0  0
  1 11  1  0  0  0  0
  2  1  2  0  0  0  0
  3  4  2  0  0  0  0
  3  2  1  0  0  0  0
  4  5  1  0  0  0  0
  5 25  1  0  0  0  0
  5  6  2  0  0  0  0
  7  2  1  0  0  0  0
  8  3  1  0  0  0  0
  9  4  1  0  0  0  0
 10 11  2  0  0  0  0
 10 15  1  0  0  0  0
 11 12  1  0  0  0  0
 12 20  1  0  0  0  0
 12 13  2  0  0  0  0
 14 13  1  0  0  0  0
 14 16  1  0  0  0  0
 15 14  2  0  0  0  0
 16 19  1  0  0  0  0
 17 10  1  0  0  0  0
 18 16  1  0  0  0  0
 20 22  1  0  0  0  0
 20 21  1  0  0  0  0
 23 20  1  0  0  0  0
 24 25  2  0  0  0  0
 24 31  1  0  0  0  0
 25 26  1  0  0  0  0
 26 27  1  0  0  0  0
 26 28  2  0  0  0  0
 28 29  1  0  0  0  0
 30 28  1  0  0  0  0
 31 30  2  0  0  0  0
 32 33  1  0  0  0  0
 33 35  2  0  0  0  0
 33 24  1  0  0  0  0
 34 33  2  0  0  0  0
M  END
>  <minimizedAffinity>
-6.05541611

$$$$

 OpenBabel03262520233D

 35 37  0  0  0  0  0  0  0  0999 V2000
   36.9670   27.6790   32.7790 C   0  0  0  0  0  0  0  0  0  0  0  0
   37.2200   28.2670   31.5300 C   0  0  0  0  0  0  0  0  0  0  0  0
   36.8140   29.4930   31.1290 C   0  0  0  0  0  0  0  0  0  0  0  0
   36.0930   30.2670   31.9720 C   0  0  0  0  0  0  0  0  0  0  0  0
   35.8340   29.7270   33.1750 C   0  0  0  0  0  0  0  0  0  0  0  0
   36.2670   28.5320   33.4830 N   0  0  0  0  0  0  0  0  0  0  0  0
   37.8170   27.6920   30.7570 H   0  0  0  0  0  0  0  0  0  0  0  0
   37.0750   29.8650   30.1000 H   0  0  0  0  0  0  0  0  0  0  0  0
   35.7940   31.2490   31.6960 H   0  0  0  0  0  0  0  0  0  0  0  0
   36.7480   25.3540   32.4220 C   0  0  0  0  0  0  0  0  0  0  0  0
   37.5060   26.3650   33.0880 C   0  0  0  0  0  0  0  0  0  0  0  0
   38.5690   25.9480   33.8450 C   0  0  0  0  0  0  0  0  0  0  0  0
   38.8130   24.6000   33.8990 N   0  0  0  0  0  0  0  0  0  0  0  0
   38.0990   23.6670   33.2730 C   0  0  0  0  0  0  0  0  0  0  0  0
   37.0580   24.0680   32.5310 N   0  0  0  0  0  0  0  0  0  0  0  0
   38.5190   22.3390   33.4450 N   0  0  0  0  0  0  0  0  0  0  0  0
   35.8950   25.5280   31.7990 H   0  0  0  0  0  0  0  0  0  0  0  0
   37.8580   21.5130   33.5010 H   0  0  0  0  0  0  0  0  0  0  0  0
   39.5320   22.0810   33.5290 H   0  0  0  0  0  0  0  0  0  0  0  0
   39.3830   26.9390   34.5490 C   0  0  0  0  0  0  0  0  0  0  0  0
   40.0180   27.6810   33.6660 F   0  0  0  0  0  0  0  0  0  0  0  0
   38.6710   27.7400   35.4220 F   0  0  0  0  0  0  0  0  0  0  0  0
   40.3690   26.2990   35.3590 F   0  0  0  0  0  0  0  0  0  0  0  0
   33.7560   30.3060   34.4990 C   0  0  0  0  0  0  0  0  0  0  0  0
   35.1120   30.3690   34.3040 C   0  0  0  0  0  0  0  0  0  0  0  0
   35.8230   31.0610   35.2930 C   0  0  0  0  0  0  0  0  0  0  0  0
   36.9030   31.1160   35.1540 H   0  0  0  0  0  0  0  0  0  0  0  0
   35.2980   31.6600   36.3980 C   0  0  0  0  0  0  0  0  0  0  0  0
   35.9510   32.1670   37.0930 H   0  0  0  0  0  0  0  0  0  0  0  0
   33.9390   31.5970   36.5820 C   0  0  0  0  0  3  0  0  0  0  0  0
   33.2070   30.9220   35.6290 C   0  0  0  0  0  3  0  0  0  0  0  0
   33.1750   28.2510   32.9940 H   0  0  0  0  0  0  0  0  0  0  0  0
   32.6790   29.4240   33.4630 S   0  0  0  0  0  0  0  0  0  0  0  0
   31.3400   29.1460   34.1290 O   0  0  0  0  0  0  0  0  0  0  0  0
   32.3450   30.3350   32.2630 O   0  0  0  0  0  0  0  0  0  0  0  0
  1 11  1  0  0  0  0
  1  6  1  0  0  0  0
  2  1  2  0  0  0  0
  3  2  1  0  0  0  0
  3  4  2  0  0  0  0
  4  5  1  0  0  0  0
  5  6  2  0  0  0  0
  5 25  1  0  0  0  0
  7  2  1  0  0  0  0
  8  3  1  0  0  0  0
  9  4  1  0  0  0  0
 10 15  2  0  0  0  0
 10 11  1  0  0  0  0
 11 12  2  0  0  0  0
 12 13  1  0  0  0  0
 12 20  1  0  0  0  0
 14 16  1  0  0  0  0
 14 13  2  0  0  0  0
 15 14  1  0  0  0  0
 16 18  1  0  0  0  0
 16 19  1  0  0  0  0
 17 10  1  0  0  0  0
 20 23  1  0  0  0  0
 20 22  1  0  0  0  0
 21 20  1  0  0  0  0
 24 31  1  0  0  0  0
 25 24  2  0  0  0  0
 25 26  1  0  0  0  0
 26 28  2  0  0  0  0
 27 26  1  0  0  0  0
 28 30  1  0  0  0  0
 28 29  1  0  0  0  0
 31 30  2  0  0  0  0
 32 33  1  0  0  0  0
 33 34  2  0  0  0  0
 33 24  1  0  0  0  0
 35 33  2  0  0  0  0
M  END
>  <minimizedAffinity>
-6.0519805

$$$$

 OpenBabel03262520233D

 35 37  0  0  0  0  0  0  0  0999 V2000
   34.7830   29.6930   32.9770 C   0  0  0  0  0  0  0  0  0  0  0  0
   35.2020   30.5690   31.9630 C   0  0  0  0  0  0  0  0  0  0  0  0
   35.9350   30.2380   30.8770 C   0  0  0  0  0  0  0  0  0  0  0  0
   36.3260   28.9560   30.7000 C   0  0  0  0  0  0  0  0  0  0  0  0
   35.9410   28.0950   31.6580 C   0  0  0  0  0  0  0  0  0  0  0  0
   35.2310   28.5000   32.6790 N   0  0  0  0  0  0  0  0  0  0  0  0
   34.9210   31.6660   32.0270 H   0  0  0  0  0  0  0  0  0  0  0  0
   36.2150   31.0260   30.1240 H   0  0  0  0  0  0  0  0  0  0  0  0
   36.8700   28.6620   29.8350 H   0  0  0  0  0  0  0  0  0  0  0  0
   32.5850   29.8900   33.8200 C   0  0  0  0  0  0  0  0  0  0  0  0
   33.9590   30.1850   34.0700 C   0  0  0  0  0  0  0  0  0  0  0  0
   34.2550   30.8260   35.2430 C   0  0  0  0  0  0  0  0  0  0  0  0
   33.2080   31.1280   36.0760 N   0  0  0  0  0  0  0  0  0  0  0  0
   31.9300   30.8480   35.8330 C   0  0  0  0  0  0  0  0  0  0  0  0
   31.6340   30.2210   34.6850 N   0  0  0  0  0  0  0  0  0  0  0  0
   31.0070   31.2300   36.8180 N   0  0  0  0  0  0  0  0  0  0  0  0
   32.2050   29.3960   32.9490 H   0  0  0  0  0  0  0  0  0  0  0  0
   30.0270   31.5730   36.6090 H   0  0  0  0  0  0  0  0  0  0  0  0
   31.2380   31.1970   37.8410 H   0  0  0  0  0  0  0  0  0  0  0  0
   35.6460   31.1530   35.5550 C   0  0  0  0  0  0  0  0  0  0  0  0
   35.6990   31.7360   36.7340 F   0  0  0  0  0  0  0  0  0  0  0  0
   36.5030   30.0680   35.5200 F   0  0  0  0  0  0  0  0  0  0  0  0
   36.1770   32.0710   34.5990 F   0  0  0  0  0  0  0  0  0  0  0  0
   37.2450   26.0320   32.3280 C   0  0  0  0  0  0  0  0  0  0  0  0
   36.1870   26.6310   31.6930 C   0  0  0  0  0  0  0  0  0  0  0  0
   35.2810   25.7490   31.0900 C   0  0  0  0  0  0  0  0  0  0  0  0
   34.4320   26.2100   30.5840 H   0  0  0  0  0  0  0  0  0  0  0  0
   35.3600   24.3890   31.0790 C   0  0  0  0  0  0  0  0  0  0  0  0
   34.5970   23.8120   30.5770 H   0  0  0  0  0  0  0  0  0  0  0  0
   36.4260   23.8000   31.7130 C   0  0  0  0  0  3  0  0  0  0  0  0
   37.3360   24.6370   32.3190 C   0  0  0  0  0  3  0  0  0  0  0  0
   38.9740   27.9760   32.5760 H   0  0  0  0  0  0  0  0  0  0  0  0
   38.4430   26.9100   33.2270 S   0  0  0  0  0  0  0  0  0  0  0  0
   37.9180   27.3820   34.5740 O   0  0  0  0  0  0  0  0  0  0  0  0
   39.5790   25.9220   33.5680 O   0  0  0  0  0  0  0  0  0  0  0  0
  1 11  1  0  0  0  0
  2  7  1  0  0  0  0
  2  1  2  0  0  0  0
  3  2  1  0  0  0  0
  4  3  2  0  0  0  0
  4  5  1  0  0  0  0
  5 25  1  0  0  0  0
  5  6  2  0  0  0  0
  6  1  1  0  0  0  0
  8  3  1  0  0  0  0
  9  4  1  0  0  0  0
 10 11  2  0  0  0  0
 10 15  1  0  0  0  0
 11 12  1  0  0  0  0
 12 20  1  0  0  0  0
 12 13  2  0  0  0  0
 14 13  1  0  0  0  0
 14 16  1  0  0  0  0
 15 14  2  0  0  0  0
 16 19  1  0  0  0  0
 17 10  1  0  0  0  0
 18 16  1  0  0  0  0
 20 21  1  0  0  0  0
 22 20  1  0  0  0  0
 23 20  1  0  0  0  0
 24 33  1  0  0  0  0
 25 24  2  0  0  0  0
 26 25  1  0  0  0  0
 27 26  1  0  0  0  0
 28 26  2  0  0  0  0
 28 30  1  0  0  0  0
 29 28  1  0  0  0  0
 30 31  2  0  0  0  0
 31 24  1  0  0  0  0
 32 33  1  0  0  0  0
 33 35  2  0  0  0  0
 33 34  2  0  0  0  0
M  END
>  <minimizedAffinity>
-6.03428316

$$$$

 OpenBabel03262520233D

 35 37  0  0  0  0  0  0  0  0999 V2000
   37.7680   25.4480   32.3730 C   0  0  0  0  0  0  0  0  0  0  0  0
   36.8000   26.3110   31.8360 C   0  0  0  0  0  0  0  0  0  0  0  0
   35.6510   25.9400   31.2300 C   0  0  0  0  0  0  0  0  0  0  0  0
   35.3550   24.6270   31.1030 C   0  0  0  0  0  0  0  0  0  0  0  0
   36.2670   23.7760   31.6070 C   0  0  0  0  0  0  0  0  0  0  0  0
   37.3560   24.2210   32.1790 N   0  0  0  0  0  0  0  0  0  0  0  0
   36.9630   27.4310   31.8960 H   0  0  0  0  0  0  0  0  0  0  0  0
   34.9440   26.7210   30.8350 H   0  0  0  0  0  0  0  0  0  0  0  0
   34.4400   24.3090   30.6650 H   0  0  0  0  0  0  0  0  0  0  0  0
   40.0910   25.8460   32.2020 C   0  0  0  0  0  0  0  0  0  0  0  0
   38.9420   25.9920   33.0370 C   0  0  0  0  0  0  0  0  0  0  0  0
   39.1260   26.6060   34.2480 C   0  0  0  0  0  0  0  0  0  0  0  0
   40.3950   27.0280   34.5530 N   0  0  0  0  0  0  0  0  0  0  0  0
   41.4580   26.8880   33.7650 C   0  0  0  0  0  0  0  0  0  0  0  0
   41.2850   26.2870   32.5800 N   0  0  0  0  0  0  0  0  0  0  0  0
   42.6700   27.3990   34.2540 N   0  0  0  0  0  0  0  0  0  0  0  0
   40.1000   25.3890   31.2340 H   0  0  0  0  0  0  0  0  0  0  0  0
   43.6150   26.9530   34.0760 H   0  0  0  0  0  0  0  0  0  0  0  0
   42.7130   28.2710   34.8360 H   0  0  0  0  0  0  0  0  0  0  0  0
   37.9850   26.7840   35.1460 C   0  0  0  0  0  0  0  0  0  0  0  0
   38.4150   27.2400   36.3040 F   0  0  0  0  0  0  0  0  0  0  0  0
   36.9950   27.6100   34.6450 F   0  0  0  0  0  0  0  0  0  0  0  0
   37.3340   25.5380   35.3910 F   0  0  0  0  0  0  0  0  0  0  0  0
   37.1010   21.4410   31.1010 C   0  0  0  0  0  0  0  0  0  0  0  0
   36.1770   22.2940   31.6490 C   0  0  0  0  0  0  0  0  0  0  0  0
   35.1190   21.6710   32.3230 C   0  0  0  0  0  0  0  0  0  0  0  0
   34.3780   22.3370   32.7670 H   0  0  0  0  0  0  0  0  0  0  0  0
   34.9340   20.3290   32.4740 C   0  0  0  0  0  0  0  0  0  0  0  0
   34.0740   19.9660   33.0170 H   0  0  0  0  0  0  0  0  0  0  0  0
   35.8610   19.4840   31.9170 C   0  0  0  0  0  3  0  0  0  0  0  0
   36.9170   20.0620   31.2480 C   0  0  0  0  0  3  0  0  0  0  0  0
   38.4490   23.1940   29.7080 H   0  0  0  0  0  0  0  0  0  0  0  0
   38.5460   21.9770   30.3030 S   0  0  0  0  0  0  0  0  0  0  0  0
   39.7460   21.9950   31.2380 O   0  0  0  0  0  0  0  0  0  0  0  0
   38.8960   20.9270   29.2270 O   0  0  0  0  0  0  0  0  0  0  0  0
  1 11  1  0  0  0  0
  2  7  1  0  0  0  0
  2  1  2  0  0  0  0
  3  2  1  0  0  0  0
  4  3  2  0  0  0  0
  4  5  1  0  0  0  0
  5 25  1  0  0  0  0
  5  6  2  0  0  0  0
  6  1  1  0  0  0  0
  8  3  1  0  0  0  0
  9  4  1  0  0  0  0
 10 15  2  0  0  0  0
 10 11  1  0  0  0  0
 11 12  2  0  0  0  0
 12 13  1  0  0  0  0
 12 20  1  0  0  0  0
 14 16  1  0  0  0  0
 14 13  2  0  0  0  0
 15 14  1  0  0  0  0
 16 19  1  0  0  0  0
 17 10  1  0  0  0  0
 18 16  1  0  0  0  0
 20 23  1  0  0  0  0
 20 21  1  0  0  0  0
 22 20  1  0  0  0  0
 24 31  2  0  0  0  0
 24 25  1  0  0  0  0
 25 26  2  0  0  0  0
 26 28  1  0  0  0  0
 26 27  1  0  0  0  0
 28 29  1  0  0  0  0
 30 28  2  0  0  0  0
 31 30  1  0  0  0  0
 32 33  1  0  0  0  0
 33 24  1  0  0  0  0
 33 34  2  0  0  0  0
 35 33  2  0  0  0  0
M  END
>  <minimizedAffinity>
-6.01703167

$$$$

 OpenBabel03262520233D

 35 37  0  0  0  0  0  0  0  0999 V2000
   37.0470   26.0450   32.1170 C   0  0  0  0  0  0  0  0  0  0  0  0
   37.9810   26.1380   31.0740 C   0  0  0  0  0  0  0  0  0  0  0  0
   38.5040   25.1040   30.3780 C   0  0  0  0  0  0  0  0  0  0  0  0
   38.1260   23.8400   30.6730 C   0  0  0  0  0  0  0  0  0  0  0  0
   37.2330   23.7210   31.6720 C   0  0  0  0  0  0  0  0  0  0  0  0
   36.7760   24.7770   32.2940 N   0  0  0  0  0  0  0  0  0  0  0  0
   38.3570   27.1590   30.7570 H   0  0  0  0  0  0  0  0  0  0  0  0
   39.2500   25.2960   29.5570 H   0  0  0  0  0  0  0  0  0  0  0  0
   38.4930   23.0120   30.1160 H   0  0  0  0  0  0  0  0  0  0  0  0
   35.6190   27.9120   31.8780 C   0  0  0  0  0  0  0  0  0  0  0  0
   36.5370   27.2510   32.7490 C   0  0  0  0  0  0  0  0  0  0  0  0
   36.7540   27.8230   33.9750 C   0  0  0  0  0  0  0  0  0  0  0  0
   36.0710   28.9780   34.2590 N   0  0  0  0  0  0  0  0  0  0  0  0
   35.2170   29.5840   33.4400 C   0  0  0  0  0  0  0  0  0  0  0  0
   35.0010   29.0300   32.2390 N   0  0  0  0  0  0  0  0  0  0  0  0
   34.6090   30.7530   33.9230 N   0  0  0  0  0  0  0  0  0  0  0  0
   35.3520   27.5840   30.8950 H   0  0  0  0  0  0  0  0  0  0  0  0
   34.3710   31.5890   33.3170 H   0  0  0  0  0  0  0  0  0  0  0  0
   34.3490   30.8700   34.9320 H   0  0  0  0  0  0  0  0  0  0  0  0
   37.6840   27.1900   34.9100 C   0  0  0  0  0  0  0  0  0  0  0  0
   37.1590   26.0630   35.3440 F   0  0  0  0  0  0  0  0  0  0  0  0
   38.9430   26.9610   34.3880 F   0  0  0  0  0  0  0  0  0  0  0  0
   37.9040   28.0250   36.0470 F   0  0  0  0  0  0  0  0  0  0  0  0
   36.9640   21.8280   33.3300 C   0  0  0  0  0  0  0  0  0  0  0  0
   36.6120   22.4660   32.1680 C   0  0  0  0  0  0  0  0  0  0  0  0
   35.5570   21.8740   31.4610 C   0  0  0  0  0  0  0  0  0  0  0  0
   35.2630   22.3720   30.5370 H   0  0  0  0  0  0  0  0  0  0  0  0
   34.8720   20.7510   31.8190 C   0  0  0  0  0  0  0  0  0  0  0  0
   34.0730   20.3890   31.1890 H   0  0  0  0  0  0  0  0  0  0  0  0
   35.2350   20.1180   32.9810 C   0  0  0  0  0  3  0  0  0  0  0  0
   36.2690   20.6730   33.7030 C   0  0  0  0  0  3  0  0  0  0  0  0
   38.2750   23.7770   34.4740 H   0  0  0  0  0  0  0  0  0  0  0  0
   38.1740   22.4240   34.4220 S   0  0  0  0  0  0  0  0  0  0  0  0
   37.9790   21.9020   35.8370 O   0  0  0  0  0  0  0  0  0  0  0  0
   39.5310   21.8450   33.9670 O   0  0  0  0  0  0  0  0  0  0  0  0
  1  6  1  0  0  0  0
  1 11  1  0  0  0  0
  2  1  2  0  0  0  0
  3  4  2  0  0  0  0
  3  2  1  0  0  0  0
  4  5  1  0  0  0  0
  5 25  1  0  0  0  0
  5  6  2  0  0  0  0
  7  2  1  0  0  0  0
  8  3  1  0  0  0  0
  9  4  1  0  0  0  0
 10 15  2  0  0  0  0
 10 11  1  0  0  0  0
 11 12  2  0  0  0  0
 12 13  1  0  0  0  0
 12 20  1  0  0  0  0
 14 16  1  0  0  0  0
 14 13  2  0  0  0  0
 15 14  1  0  0  0  0
 16 19  1  0  0  0  0
 17 10  1  0  0  0  0
 18 16  1  0  0  0  0
 20 21  1  0  0  0  0
 20 23  1  0  0  0  0
 22 20  1  0  0  0  0
 24 31  1  0  0  0  0
 24 33  1  0  0  0  0
 25 24  2  0  0  0  0
 26 28  2  0  0  0  0
 26 25  1  0  0  0  0
 27 26  1  0  0  0  0
 28 30  1  0  0  0  0
 29 28  1  0  0  0  0
 30 31  2  0  0  0  0
 33 32  1  0  0  0  0
 33 34  2  0  0  0  0
 35 33  2  0  0  0  0
M  END
>  <minimizedAffinity>
-5.97523737

$$$$

 OpenBabel03262520233D

 35 37  0  0  0  0  0  0  0  0999 V2000
   38.9100   26.0280   33.2380 C   0  0  0  0  0  0  0  0  0  0  0  0
   39.8410   27.0600   33.0450 C   0  0  0  0  0  0  0  0  0  0  0  0
   41.0410   27.1750   33.6550 C   0  0  0  0  0  0  0  0  0  0  0  0
   41.4320   26.2340   34.5440 C   0  0  0  0  0  0  0  0  0  0  0  0
   40.5580   25.2340   34.7510 C   0  0  0  0  0  0  0  0  0  0  0  0
   39.4150   25.1990   34.1160 N   0  0  0  0  0  0  0  0  0  0  0  0
   39.5990   27.8950   32.3170 H   0  0  0  0  0  0  0  0  0  0  0  0
   41.7110   28.0490   33.4230 H   0  0  0  0  0  0  0  0  0  0  0  0
   42.3870   26.2800   35.0090 H   0  0  0  0  0  0  0  0  0  0  0  0
   37.6520   24.8890   31.5940 C   0  0  0  0  0  0  0  0  0  0  0  0
   37.6710   26.0120   32.4770 C   0  0  0  0  0  0  0  0  0  0  0  0
   36.5700   26.8260   32.4730 C   0  0  0  0  0  0  0  0  0  0  0  0
   35.5450   26.4940   31.6240 N   0  0  0  0  0  0  0  0  0  0  0  0
   35.5370   25.4440   30.8060 C   0  0  0  0  0  0  0  0  0  0  0  0
   36.6130   24.6440   30.8050 N   0  0  0  0  0  0  0  0  0  0  0  0
   34.3860   25.2700   30.0240 N   0  0  0  0  0  0  0  0  0  0  0  0
   38.4370   24.1700   31.4880 H   0  0  0  0  0  0  0  0  0  0  0  0
   34.3950   24.8900   29.0350 H   0  0  0  0  0  0  0  0  0  0  0  0
   33.4280   25.5080   30.3800 H   0  0  0  0  0  0  0  0  0  0  0  0
   36.5320   27.9900   33.3580 C   0  0  0  0  0  0  0  0  0  0  0  0
   37.2950   28.9380   32.8560 F   0  0  0  0  0  0  0  0  0  0  0  0
   35.2600   28.4770   33.5980 F   0  0  0  0  0  0  0  0  0  0  0  0
   37.0490   27.6630   34.6480 F   0  0  0  0  0  0  0  0  0  0  0  0
   39.7640   23.4870   36.4020 C   0  0  0  0  0  0  0  0  0  0  0  0
   40.7480   24.0500   35.6290 C   0  0  0  0  0  0  0  0  0  0  0  0
   41.9860   23.3970   35.6740 C   0  0  0  0  0  0  0  0  0  0  0  0
   42.7770   23.8310   35.0610 H   0  0  0  0  0  0  0  0  0  0  0  0
   42.2880   22.2840   36.3990 C   0  0  0  0  0  0  0  0  0  0  0  0
   43.2840   21.8690   36.3530 H   0  0  0  0  0  0  0  0  0  0  0  0
   41.2980   21.7300   37.1730 C   0  0  0  0  0  3  0  0  0  0  0  0
   40.0660   22.3460   37.1520 C   0  0  0  0  0  3  0  0  0  0  0  0
   37.6100   24.3780   35.2200 H   0  0  0  0  0  0  0  0  0  0  0  0
   38.1260   24.0590   36.4350 S   0  0  0  0  0  0  0  0  0  0  0  0
   37.1860   23.0730   37.1110 O   0  0  0  0  0  0  0  0  0  0  0  0
   38.0950   25.3160   37.3310 O   0  0  0  0  0  0  0  0  0  0  0  0
  1  6  1  0  0  0  0
  2  1  2  0  0  0  0
  2  3  1  0  0  0  0
  3  4  2  0  0  0  0
  4  5  1  0  0  0  0
  4  9  1  0  0  0  0
  5 25  1  0  0  0  0
  6  5  2  0  0  0  0
  7  2  1  0  0  0  0
  8  3  1  0  0  0  0
 10 11  1  0  0  0  0
 11  1  1  0  0  0  0
 12 11  2  0  0  0  0
 12 20  1  0  0  0  0
 13 12  1  0  0  0  0
 14 13  2  0  0  0  0
 15 14  1  0  0  0  0
 15 10  2  0  0  0  0
 16 19  1  0  0  0  0
 16 14  1  0  0  0  0
 17 10  1  0  0  0  0
 18 16  1  0  0  0  0
 20 22  1  0  0  0  0
 20 23  1  0  0  0  0
 21 20  1  0  0  0  0
 24 33  1  0  0  0  0
 24 31  1  0  0  0  0
 25 26  1  0  0  0  0
 25 24  2  0  0  0  0
 26 28  2  0  0  0  0
 27 26  1  0  0  0  0
 28 30  1  0  0  0  0
 29 28  1  0  0  0  0
 31 30  2  0  0  0  0
 32 33  1  0  0  0  0
 33 34  2  0  0  0  0
 33 35  2  0  0  0  0
M  END
>  <minimizedAffinity>
-5.97464609

$$$$

 OpenBabel03262520233D

 35 37  0  0  0  0  0  0  0  0999 V2000
   37.8520   24.6770   33.6080 C   0  0  0  0  0  0  0  0  0  0  0  0
   37.4490   23.8900   32.5170 C   0  0  0  0  0  0  0  0  0  0  0  0
   36.7230   24.3100   31.4570 C   0  0  0  0  0  0  0  0  0  0  0  0
   36.3220   25.5990   31.3900 C   0  0  0  0  0  0  0  0  0  0  0  0
   36.6920   26.3760   32.4230 C   0  0  0  0  0  0  0  0  0  0  0  0
   37.3970   25.8880   33.4110 N   0  0  0  0  0  0  0  0  0  0  0  0
   37.7390   22.7950   32.4880 H   0  0  0  0  0  0  0  0  0  0  0  0
   36.4560   23.5890   30.6360 H   0  0  0  0  0  0  0  0  0  0  0  0
   35.7830   25.9640   30.5490 H   0  0  0  0  0  0  0  0  0  0  0  0
   38.0370   22.9340   35.1920 C   0  0  0  0  0  0  0  0  0  0  0  0
   38.6710   24.0980   34.6610 C   0  0  0  0  0  0  0  0  0  0  0  0
   39.8870   24.4410   35.1890 C   0  0  0  0  0  0  0  0  0  0  0  0
   40.3900   23.6380   36.1810 N   0  0  0  0  0  0  0  0  0  0  0  0
   39.7900   22.5540   36.6680 C   0  0  0  0  0  0  0  0  0  0  0  0
   38.6000   22.2150   36.1550 N   0  0  0  0  0  0  0  0  0  0  0  0
   40.4760   21.8590   37.6740 N   0  0  0  0  0  0  0  0  0  0  0  0
   37.0890   22.5470   34.8790 H   0  0  0  0  0  0  0  0  0  0  0  0
   40.0010   21.3730   38.4870 H   0  0  0  0  0  0  0  0  0  0  0  0
   41.5220   21.7760   37.6820 H   0  0  0  0  0  0  0  0  0  0  0  0
   40.5850   25.6230   34.6840 C   0  0  0  0  0  0  0  0  0  0  0  0
   40.7000   25.5290   33.3760 F   0  0  0  0  0  0  0  0  0  0  0  0
   39.9880   26.8220   35.0260 F   0  0  0  0  0  0  0  0  0  0  0  0
   41.9030   25.7020   35.2240 F   0  0  0  0  0  0  0  0  0  0  0  0
   36.6880   28.7780   31.6260 C   0  0  0  0  0  0  0  0  0  0  0  0
   36.4340   27.8300   32.5840 C   0  0  0  0  0  0  0  0  0  0  0  0
   35.8460   28.3160   33.7590 C   0  0  0  0  0  0  0  0  0  0  0  0
   35.6340   27.5730   34.5290 H   0  0  0  0  0  0  0  0  0  0  0  0
   35.5180   29.6120   34.0240 C   0  0  0  0  0  0  0  0  0  0  0  0
   35.0670   29.8660   34.9720 H   0  0  0  0  0  0  0  0  0  0  0  0
   35.7820   30.5540   33.0610 C   0  0  0  0  0  3  0  0  0  0  0  0
   36.3580   30.1110   31.8910 C   0  0  0  0  0  3  0  0  0  0  0  0
   36.7720   27.3120   29.4640 H   0  0  0  0  0  0  0  0  0  0  0  0
   37.3220   28.4050   30.0530 S   0  0  0  0  0  0  0  0  0  0  0  0
   37.2040   29.5790   29.0930 O   0  0  0  0  0  0  0  0  0  0  0  0
   38.8400   28.1710   30.2120 O   0  0  0  0  0  0  0  0  0  0  0  0
  1 11  1  0  0  0  0
  2  1  2  0  0  0  0
  3  2  1  0  0  0  0
  4  3  2  0  0  0  0
  4  5  1  0  0  0  0
  5 25  1  0  0  0  0
  5  6  2  0  0  0  0
  6  1  1  0  0  0  0
  7  2  1  0  0  0  0
  8  3  1  0  0  0  0
  9  4  1  0  0  0  0
 10 15  1  0  0  0  0
 11 12  1  0  0  0  0
 11 10  2  0  0  0  0
 12 13  2  0  0  0  0
 13 14  1  0  0  0  0
 14 16  1  0  0  0  0
 15 14  2  0  0  0  0
 16 19  1  0  0  0  0
 16 18  1  0  0  0  0
 17 10  1  0  0  0  0
 20 22  1  0  0  0  0
 20 12  1  0  0  0  0
 20 23  1  0  0  0  0
 21 20  1  0  0  0  0
 24 31  2  0  0  0  0
 24 25  1  0  0  0  0
 25 26  2  0  0  0  0
 26 28  1  0  0  0  0
 26 27  1  0  0  0  0
 28 29  1  0  0  0  0
 30 28  2  0  0  0  0
 31 30  1  0  0  0  0
 32 33  1  0  0  0  0
 33 35  2  0  0  0  0
 33 24  1  0  0  0  0
 34 33  2  0  0  0  0
M  END
>  <minimizedAffinity>
-5.97368145

$$$$
