
 OpenBabel03262523213D

 44 47  0  0  1  0  0  0  0  0999 V2000
   40.3060   25.1120   33.6210 C   0  0  0  0  0  0  0  0  0  0  0  0
   39.9080   26.2170   32.8480 C   0  0  0  0  0  0  0  0  0  0  0  0
   39.3750   27.2250   33.6380 C   0  0  0  0  0  0  0  0  0  0  0  0
   39.2460   27.1840   35.0150 C   0  0  0  0  0  0  0  0  0  0  0  0
   39.6760   26.0330   35.7040 C   0  0  0  0  0  0  0  0  0  0  0  0
   40.2160   24.9740   34.9970 C   0  0  0  0  0  0  0  0  0  0  0  0
   38.9150   28.1340   33.3400 H   0  0  0  0  0  0  0  0  0  0  0  0
   38.8580   27.9040   35.6850 H   0  0  0  0  0  0  0  0  0  0  0  0
   39.6170   25.9070   36.7740 H   0  0  0  0  0  0  0  0  0  0  0  0
   36.4990   23.7130   31.4320 C   0  0  0  0  0  0  0  0  0  0  0  0
   35.3070   24.4260   31.3630 C   0  0  0  0  0  0  0  0  0  0  0  0
   35.3600   25.7680   31.0250 C   0  0  0  0  0  0  0  0  0  0  0  0
   36.5660   26.3360   30.7780 N   0  0  0  0  0  0  0  0  0  0  0  0
   37.6910   25.6740   30.8430 C   0  0  0  0  0  0  0  0  0  0  0  0
   37.5770   24.4130   31.1620 N   0  0  0  0  0  0  0  0  0  0  0  0
   38.9230   26.3010   30.5710 N   0  0  0  0  0  0  0  0  0  0  0  0
   39.2060   26.9560   29.2900 C   0  0  0  0  0  0  0  0  0  0  0  0
   40.5270   27.5720   29.4570 C   0  0  0  0  0  0  0  0  0  0  0  0
   40.7590   27.5830   30.9690 C   0  0  0  0  0  0  0  0  0  0  0  0
   40.1110   26.3690   31.4360 C   0  0  1  0  0  0  0  0  0  0  0  0
   36.5210   22.6730   31.6870 H   0  0  0  0  0  0  0  0  0  0  0  0
   34.3540   23.9510   31.5650 H   0  0  0  0  0  0  0  0  0  0  0  0
   34.4160   26.3100   30.9750 H   0  0  0  0  0  0  0  0  0  0  0  0
   39.2450   26.1730   28.5040 H   0  0  0  0  0  0  0  0  0  0  0  0
   38.3710   27.6470   29.0750 H   0  0  0  0  0  0  0  0  0  0  0  0
   40.5550   28.5700   28.9940 H   0  0  0  0  0  0  0  0  0  0  0  0
   41.3080   26.9880   28.9100 H   0  0  0  0  0  0  0  0  0  0  0  0
   41.8200   27.6570   30.9850 H   0  0  0  0  0  0  0  0  0  0  0  0
   40.0810   28.4290   31.1660 H   0  0  0  0  0  0  0  0  0  0  0  0
   40.6020   25.4120   31.0760 H   0  0  0  0  0  0  0  0  0  0  0  0
   39.8720   22.7820   36.1690 C   0  0  0  0  0  0  0  0  0  0  0  0
   40.6620   23.7830   35.6990 C   0  0  0  0  0  0  0  0  0  0  0  0
   42.0300   23.7330   35.8690 C   0  0  0  0  0  0  0  0  0  0  0  0
   42.7310   24.5010   35.5180 H   0  0  0  0  0  0  0  0  0  0  0  0
   42.6520   22.6830   36.5120 C   0  0  0  0  0  0  0  0  0  0  0  0
   43.7420   22.6350   36.6510 H   0  0  0  0  0  0  0  0  0  0  0  0
   41.8740   21.6570   36.9960 C   0  0  0  0  0  3  0  0  0  0  0  0
   40.4970   21.7350   36.8110 C   0  0  0  0  0  3  0  0  0  0  0  0
   37.9070   24.0090   35.1430 H   0  0  0  0  0  0  0  0  0  0  0  0
   38.1650   22.9090   35.9230 S   0  0  0  0  0  0  0  0  0  0  0  0
   37.6640   21.7090   35.1410 O   0  0  0  0  0  0  0  0  0  0  0  0
   37.3970   23.0190   37.2030 O   0  0  0  0  0  0  0  0  0  0  0  0
   41.1220   23.0200   32.3720 N   0  0  0  0  0  0  0  0  0  0  0  0
   40.7740   23.9410   32.9200 C   0  0  0  0  0  0  0  0  0  0  0  0
  1  6  1  0  0  0  0
  2  1  2  0  0  0  0
  2  3  1  0  0  0  0
  3  4  2  0  0  0  0
  4  8  1  0  0  0  0
  4  5  1  0  0  0  0
  5  9  1  0  0  0  0
  6 32  1  0  0  0  0
  6  5  2  0  0  0  0
  7  3  1  0  0  0  0
 10 21  1  0  0  0  0
 11 10  1  0  0  0  0
 11 22  1  0  0  0  0
 12 11  2  0  0  0  0
 13 14  2  0  0  0  0
 13 12  1  0  0  0  0
 14 15  1  0  0  0  0
 15 10  2  0  0  0  0
 16 14  1  0  0  0  0
 16 20  1  0  0  0  0
 17 18  1  0  0  0  0
 17 16  1  0  0  0  0
 18 19  1  0  0  0  0
 19 28  1  0  0  0  0
 19 29  1  0  0  0  0
 19 20  1  0  0  0  0
 20 30  1  6  0  0  0
 20  2  1  0  0  0  0
 23 12  1  0  0  0  0
 24 17  1  0  0  0  0
 25 17  1  0  0  0  0
 26 18  1  0  0  0  0
 27 18  1  0  0  0  0
 31 38  1  0  0  0  0
 32 33  1  0  0  0  0
 32 31  2  0  0  0  0
 33 35  2  0  0  0  0
 34 33  1  0  0  0  0
 35 36  1  0  0  0  0
 35 37  1  0  0  0  0
 38 37  2  0  0  0  0
 39 40  1  0  0  0  0
 40 31  1  0  0  0  0
 40 42  2  0  0  0  0
 41 40  2  0  0  0  0
 43 44  3  0  0  0  0
 44  1  1  0  0  0  0
M  END
>  <minimizedAffinity>
-5.65010405

$$$$

 OpenBabel03262523213D

 44 47  0  0  1  0  0  0  0  0999 V2000
   37.9480   25.4080   34.0500 C   0  0  0  0  0  0  0  0  0  0  0  0
   37.4340   25.8630   32.8220 C   0  0  0  0  0  0  0  0  0  0  0  0
   37.0550   24.8060   32.0070 C   0  0  0  0  0  0  0  0  0  0  0  0
   37.1480   23.4660   32.3330 C   0  0  0  0  0  0  0  0  0  0  0  0
   37.6740   23.1060   33.5900 C   0  0  0  0  0  0  0  0  0  0  0  0
   38.0840   24.0940   34.4680 C   0  0  0  0  0  0  0  0  0  0  0  0
   36.7160   24.8280   31.0010 H   0  0  0  0  0  0  0  0  0  0  0  0
   36.8800   22.6080   31.7760 H   0  0  0  0  0  0  0  0  0  0  0  0
   37.7870   22.0900   33.9350 H   0  0  0  0  0  0  0  0  0  0  0  0
   41.6270   26.9430   31.7500 C   0  0  0  0  0  0  0  0  0  0  0  0
   41.9400   26.6230   30.4330 C   0  0  0  0  0  0  0  0  0  0  0  0
   40.9410   26.7140   29.4780 C   0  0  0  0  0  0  0  0  0  0  0  0
   39.7010   27.1080   29.8600 N   0  0  0  0  0  0  0  0  0  0  0  0
   39.3980   27.4080   31.0940 C   0  0  0  0  0  0  0  0  0  0  0  0
   40.3800   27.3060   31.9490 N   0  0  0  0  0  0  0  0  0  0  0  0
   38.0980   27.8200   31.4480 N   0  0  0  0  0  0  0  0  0  0  0  0
   37.4530   28.9920   30.8450 C   0  0  0  0  0  0  0  0  0  0  0  0
   36.0910   29.0040   31.3890 C   0  0  0  0  0  0  0  0  0  0  0  0
   35.8950   27.6000   31.9670 C   0  0  0  0  0  0  0  0  0  0  0  0
   37.2100   27.2340   32.4630 C   0  0  1  0  0  0  0  0  0  0  0  0
   42.3570   26.8920   32.5320 H   0  0  0  0  0  0  0  0  0  0  0  0
   42.9380   26.3100   30.1520 H   0  0  0  0  0  0  0  0  0  0  0  0
   41.2050   26.4610   28.4510 H   0  0  0  0  0  0  0  0  0  0  0  0
   38.0060   29.8960   31.1740 H   0  0  0  0  0  0  0  0  0  0  0  0
   37.5380   28.8920   29.7480 H   0  0  0  0  0  0  0  0  0  0  0  0
   35.3610   29.2720   30.6120 H   0  0  0  0  0  0  0  0  0  0  0  0
   35.9820   29.8030   32.1640 H   0  0  0  0  0  0  0  0  0  0  0  0
   35.1060   27.8000   32.6530 H   0  0  0  0  0  0  0  0  0  0  0  0
   35.7500   27.1110   30.9900 H   0  0  0  0  0  0  0  0  0  0  0  0
   37.5670   27.8590   33.3400 H   0  0  0  0  0  0  0  0  0  0  0  0
   39.9160   23.3890   36.0310 C   0  0  0  0  0  0  0  0  0  0  0  0
   38.6290   23.7330   35.7640 C   0  0  0  0  0  0  0  0  0  0  0  0
   37.6910   23.7630   36.7750 C   0  0  0  0  0  0  0  0  0  0  0  0
   36.6340   24.0310   36.6380 H   0  0  0  0  0  0  0  0  0  0  0  0
   38.0070   23.4530   38.0810 C   0  0  0  0  0  0  0  0  0  0  0  0
   37.2650   23.4760   38.8930 H   0  0  0  0  0  0  0  0  0  0  0  0
   39.3040   23.1020   38.3760 C   0  0  0  0  0  3  0  0  0  0  0  0
   40.2290   23.0790   37.3360 C   0  0  0  0  0  3  0  0  0  0  0  0
   40.3680   23.0780   33.5570 H   0  0  0  0  0  0  0  0  0  0  0  0
   41.0410   23.3700   34.7170 S   0  0  0  0  0  0  0  0  0  0  0  0
   41.6350   24.7540   34.5250 O   0  0  0  0  0  0  0  0  0  0  0  0
   42.1470   22.3810   34.9100 O   0  0  0  0  0  0  0  0  0  0  0  0
   38.9060   27.1790   35.6460 N   0  0  0  0  0  0  0  0  0  0  0  0
   38.4880   26.3940   34.9540 C   0  0  0  0  0  0  0  0  0  0  0  0
  1  6  1  0  0  0  0
  1 44  1  0  0  0  0
  2  1  2  0  0  0  0
  3  4  2  0  0  0  0
  3  2  1  0  0  0  0
  4  5  1  0  0  0  0
  5  9  1  0  0  0  0
  5  6  2  0  0  0  0
  6 32  1  0  0  0  0
  7  3  1  0  0  0  0
  8  4  1  0  0  0  0
 10 15  1  0  0  0  0
 10 21  1  0  0  0  0
 11 10  2  0  0  0  0
 12 13  2  0  0  0  0
 12 11  1  0  0  0  0
 13 14  1  0  0  0  0
 14 16  1  0  0  0  0
 14 15  2  0  0  0  0
 16 20  1  0  0  0  0
 17 24  1  0  0  0  0
 17 18  1  0  0  0  0
 17 16  1  0  0  0  0
 18 19  1  0  0  0  0
 18 27  1  0  0  0  0
 19 20  1  0  0  0  0
 19 28  1  0  0  0  0
 20  2  1  0  0  0  0
 20 30  1  1  0  0  0
 22 11  1  0  0  0  0
 23 12  1  0  0  0  0
 25 17  1  0  0  0  0
 26 18  1  0  0  0  0
 29 19  1  0  0  0  0
 31 38  1  0  0  0  0
 32 31  2  0  0  0  0
 32 33  1  0  0  0  0
 33 35  2  0  0  0  0
 34 33  1  0  0  0  0
 35 37  1  0  0  0  0
 35 36  1  0  0  0  0
 38 37  2  0  0  0  0
 39 40  1  0  0  0  0
 40 42  2  0  0  0  0
 40 31  1  0  0  0  0
 41 40  2  0  0  0  0
 44 43  3  0  0  0  0
M  END
>  <minimizedAffinity>
-5.53695297

$$$$

 OpenBabel03262523213D

 44 47  0  0  1  0  0  0  0  0999 V2000
   38.6640   24.9180   33.9000 C   0  0  0  0  0  0  0  0  0  0  0  0
   37.8560   25.4540   32.8800 C   0  0  0  0  0  0  0  0  0  0  0  0
   37.1080   24.4680   32.2540 C   0  0  0  0  0  0  0  0  0  0  0  0
   37.1240   23.1220   32.5720 C   0  0  0  0  0  0  0  0  0  0  0  0
   37.9640   22.6790   33.6130 C   0  0  0  0  0  0  0  0  0  0  0  0
   38.7520   23.5920   34.2910 C   0  0  0  0  0  0  0  0  0  0  0  0
   36.4790   24.5470   31.4020 H   0  0  0  0  0  0  0  0  0  0  0  0
   36.5870   22.3150   32.1500 H   0  0  0  0  0  0  0  0  0  0  0  0
   38.0460   21.6520   33.9340 H   0  0  0  0  0  0  0  0  0  0  0  0
   41.7050   26.0340   30.7030 C   0  0  0  0  0  0  0  0  0  0  0  0
   41.6120   25.6990   29.3560 C   0  0  0  0  0  0  0  0  0  0  0  0
   40.4120   25.9250   28.7020 C   0  0  0  0  0  0  0  0  0  0  0  0
   39.3770   26.4600   29.3960 N   0  0  0  0  0  0  0  0  0  0  0  0
   39.4560   26.7760   30.6610 C   0  0  0  0  0  0  0  0  0  0  0  0
   40.6120   26.5430   31.2220 N   0  0  0  0  0  0  0  0  0  0  0  0
   38.3580   27.3370   31.3430 N   0  0  0  0  0  0  0  0  0  0  0  0
   37.7210   28.5870   30.9140 C   0  0  0  0  0  0  0  0  0  0  0  0
   36.5670   28.7560   31.8040 C   0  0  0  0  0  0  0  0  0  0  0  0
   36.3650   27.3780   32.4380 C   0  0  0  0  0  0  0  0  0  0  0  0
   37.7110   26.8470   32.5700 C   0  0  1  0  0  0  0  0  0  0  0  0
   42.6070   25.8830   31.2600 H   0  0  0  0  0  0  0  0  0  0  0  0
   42.4530   25.2720   28.8220 H   0  0  0  0  0  0  0  0  0  0  0  0
   40.3580   25.6570   27.6470 H   0  0  0  0  0  0  0  0  0  0  0  0
   38.4470   29.4120   31.0670 H   0  0  0  0  0  0  0  0  0  0  0  0
   37.4950   28.4950   29.8370 H   0  0  0  0  0  0  0  0  0  0  0  0
   35.6930   29.1220   31.2470 H   0  0  0  0  0  0  0  0  0  0  0  0
   36.7680   29.5500   32.5650 H   0  0  0  0  0  0  0  0  0  0  0  0
   35.8200   27.6610   33.3070 H   0  0  0  0  0  0  0  0  0  0  0  0
   35.9060   26.9250   31.5450 H   0  0  0  0  0  0  0  0  0  0  0  0
   38.3630   27.4110   33.3080 H   0  0  0  0  0  0  0  0  0  0  0  0
   39.3210   23.1240   36.6900 C   0  0  0  0  0  0  0  0  0  0  0  0
   39.6220   23.1450   35.3640 C   0  0  0  0  0  0  0  0  0  0  0  0
   40.8540   22.7120   34.9210 C   0  0  0  0  0  0  0  0  0  0  0  0
   41.1680   22.6990   33.8680 H   0  0  0  0  0  0  0  0  0  0  0  0
   41.8250   22.2470   35.7830 C   0  0  0  0  0  0  0  0  0  0  0  0
   42.8090   21.9000   35.4370 H   0  0  0  0  0  0  0  0  0  0  0  0
   41.5440   22.2160   37.1300 C   0  0  0  0  0  3  0  0  0  0  0  0
   40.2930   22.6590   37.5500 C   0  0  0  0  0  3  0  0  0  0  0  0
   37.3310   24.6420   36.2960 H   0  0  0  0  0  0  0  0  0  0  0  0
   37.7580   23.6800   37.1780 S   0  0  0  0  0  0  0  0  0  0  0  0
   36.7540   22.5460   37.0880 O   0  0  0  0  0  0  0  0  0  0  0  0
   37.7450   24.2400   38.5650 O   0  0  0  0  0  0  0  0  0  0  0  0
   40.2920   26.5250   35.0690 N   0  0  0  0  0  0  0  0  0  0  0  0
   39.5820   25.8120   34.5620 C   0  0  0  0  0  0  0  0  0  0  0  0
  1  6  1  0  0  0  0
  1 44  1  0  0  0  0
  2  1  2  0  0  0  0
  3  4  2  0  0  0  0
  3  2  1  0  0  0  0
  4  5  1  0  0  0  0
  5  9  1  0  0  0  0
  5  6  2  0  0  0  0
  6 32  1  0  0  0  0
  7  3  1  0  0  0  0
  8  4  1  0  0  0  0
 10 15  1  0  0  0  0
 10 21  1  0  0  0  0
 11 10  2  0  0  0  0
 12 11  1  0  0  0  0
 12 13  2  0  0  0  0
 13 14  1  0  0  0  0
 14 15  2  0  0  0  0
 14 16  1  0  0  0  0
 16 20  1  0  0  0  0
 17 24  1  0  0  0  0
 17 16  1  0  0  0  0
 17 18  1  0  0  0  0
 18 19  1  0  0  0  0
 18 27  1  0  0  0  0
 19 20  1  0  0  0  0
 19 28  1  0  0  0  0
 20  2  1  0  0  0  0
 20 30  1  1  0  0  0
 22 11  1  0  0  0  0
 23 12  1  0  0  0  0
 25 17  1  0  0  0  0
 26 18  1  0  0  0  0
 29 19  1  0  0  0  0
 31 40  1  0  0  0  0
 31 38  1  0  0  0  0
 32 31  2  0  0  0  0
 33 32  1  0  0  0  0
 33 35  2  0  0  0  0
 34 33  1  0  0  0  0
 35 37  1  0  0  0  0
 36 35  1  0  0  0  0
 37 38  2  0  0  0  0
 39 40  1  0  0  0  0
 40 42  2  0  0  0  0
 41 40  2  0  0  0  0
 44 43  3  0  0  0  0
M  END
>  <minimizedAffinity>
-5.49076843

$$$$

 OpenBabel03262523213D

 44 47  0  0  1  0  0  0  0  0999 V2000
   37.2850   23.3050   32.9800 C   0  0  0  0  0  0  0  0  0  0  0  0
   37.4000   24.7020   33.1050 C   0  0  0  0  0  0  0  0  0  0  0  0
   36.6140   25.3600   32.1710 C   0  0  0  0  0  0  0  0  0  0  0  0
   35.8030   24.7530   31.2290 C   0  0  0  0  0  0  0  0  0  0  0  0
   35.7520   23.3460   31.1830 C   0  0  0  0  0  0  0  0  0  0  0  0
   36.5080   22.6040   32.0730 C   0  0  0  0  0  0  0  0  0  0  0  0
   36.5550   26.4000   31.9630 H   0  0  0  0  0  0  0  0  0  0  0  0
   35.1770   25.1790   30.4920 H   0  0  0  0  0  0  0  0  0  0  0  0
   35.1520   22.7810   30.4860 H   0  0  0  0  0  0  0  0  0  0  0  0
   41.4980   24.1490   31.4340 C   0  0  0  0  0  0  0  0  0  0  0  0
   41.8280   25.1240   30.4980 C   0  0  0  0  0  0  0  0  0  0  0  0
   41.3230   26.4010   30.6700 C   0  0  0  0  0  0  0  0  0  0  0  0
   40.5280   26.6550   31.7390 N   0  0  0  0  0  0  0  0  0  0  0  0
   40.2120   25.7450   32.6220 C   0  0  0  0  0  0  0  0  0  0  0  0
   40.7190   24.5610   32.4090 N   0  0  0  0  0  0  0  0  0  0  0  0
   39.3880   26.0520   33.7240 N   0  0  0  0  0  0  0  0  0  0  0  0
   39.7320   27.0950   34.6960 C   0  0  0  0  0  0  0  0  0  0  0  0
   38.5770   27.1750   35.5980 C   0  0  0  0  0  0  0  0  0  0  0  0
   37.4540   26.4530   34.8510 C   0  0  0  0  0  0  0  0  0  0  0  0
   38.1340   25.3950   34.1240 C   0  0  1  0  0  0  0  0  0  0  0  0
   41.8590   23.1440   31.3540 H   0  0  0  0  0  0  0  0  0  0  0  0
   42.4650   24.8970   29.6500 H   0  0  0  0  0  0  0  0  0  0  0  0
   41.5920   27.1520   29.9270 H   0  0  0  0  0  0  0  0  0  0  0  0
   40.6320   26.7620   35.2530 H   0  0  0  0  0  0  0  0  0  0  0  0
   39.9720   28.0130   34.1310 H   0  0  0  0  0  0  0  0  0  0  0  0
   38.3470   28.2210   35.8480 H   0  0  0  0  0  0  0  0  0  0  0  0
   38.8110   26.6970   36.5820 H   0  0  0  0  0  0  0  0  0  0  0  0
   36.8230   26.2100   35.6720 H   0  0  0  0  0  0  0  0  0  0  0  0
   37.2580   27.2790   34.1480 H   0  0  0  0  0  0  0  0  0  0  0  0
   38.5970   24.5990   34.7860 H   0  0  0  0  0  0  0  0  0  0  0  0
   37.2690   20.3420   31.2980 C   0  0  0  0  0  0  0  0  0  0  0  0
   36.4620   21.1530   32.0320 C   0  0  0  0  0  0  0  0  0  0  0  0
   35.4800   20.6170   32.8390 C   0  0  0  0  0  0  0  0  0  0  0  0
   34.7920   21.2070   33.4600 H   0  0  0  0  0  0  0  0  0  0  0  0
   35.2730   19.2570   32.9410 C   0  0  0  0  0  0  0  0  0  0  0  0
   34.4930   18.8220   33.5830 H   0  0  0  0  0  0  0  0  0  0  0  0
   36.0780   18.4150   32.2080 C   0  0  0  0  0  3  0  0  0  0  0  0
   37.0590   18.9840   31.4010 C   0  0  0  0  0  3  0  0  0  0  0  0
   38.1410   22.3930   30.0920 H   0  0  0  0  0  0  0  0  0  0  0  0
   38.4780   21.0800   30.3070 S   0  0  0  0  0  0  0  0  0  0  0  0
   39.8070   21.0980   31.0390 O   0  0  0  0  0  0  0  0  0  0  0  0
   38.6510   20.3920   28.9890 O   0  0  0  0  0  0  0  0  0  0  0  0
   38.8100   21.8690   34.4680 N   0  0  0  0  0  0  0  0  0  0  0  0
   38.1360   22.4890   33.8130 C   0  0  0  0  0  0  0  0  0  0  0  0
  1  2  1  0  0  0  0
  1 44  1  0  0  0  0
  2 20  1  0  0  0  0
  3  2  2  0  0  0  0
  4  3  1  0  0  0  0
  5  4  2  0  0  0  0
  5  6  1  0  0  0  0
  6  1  2  0  0  0  0
  7  3  1  0  0  0  0
  8  4  1  0  0  0  0
  9  5  1  0  0  0  0
 10 15  1  0  0  0  0
 11 12  1  0  0  0  0
 11 10  2  0  0  0  0
 12 13  2  0  0  0  0
 13 14  1  0  0  0  0
 14 16  1  0  0  0  0
 15 14  2  0  0  0  0
 16 20  1  0  0  0  0
 16 17  1  0  0  0  0
 17 24  1  0  0  0  0
 17 18  1  0  0  0  0
 18 26  1  0  0  0  0
 18 27  1  0  0  0  0
 19 18  1  0  0  0  0
 19 28  1  0  0  0  0
 20 30  1  1  0  0  0
 20 19  1  0  0  0  0
 21 10  1  0  0  0  0
 22 11  1  0  0  0  0
 23 12  1  0  0  0  0
 25 17  1  0  0  0  0
 29 19  1  0  0  0  0
 31 38  2  0  0  0  0
 31 32  1  0  0  0  0
 32  6  1  0  0  0  0
 32 33  2  0  0  0  0
 33 35  1  0  0  0  0
 33 34  1  0  0  0  0
 35 36  1  0  0  0  0
 37 35  2  0  0  0  0
 38 37  1  0  0  0  0
 39 40  1  0  0  0  0
 40 41  2  0  0  0  0
 40 31  1  0  0  0  0
 42 40  2  0  0  0  0
 44 43  3  0  0  0  0
M  END
>  <minimizedAffinity>
-5.45616436

$$$$

 OpenBabel03262523213D

 44 47  0  0  1  0  0  0  0  0999 V2000
   37.7350   25.8110   31.5610 C   0  0  0  0  0  0  0  0  0  0  0  0
   37.8260   24.4150   31.7110 C   0  0  0  0  0  0  0  0  0  0  0  0
   36.5910   23.8050   31.5470 C   0  0  0  0  0  0  0  0  0  0  0  0
   35.4040   24.4550   31.2630 C   0  0  0  0  0  0  0  0  0  0  0  0
   35.4120   25.8570   31.1280 C   0  0  0  0  0  0  0  0  0  0  0  0
   36.5990   26.5530   31.2810 C   0  0  0  0  0  0  0  0  0  0  0  0
   36.3270   22.7860   31.6840 H   0  0  0  0  0  0  0  0  0  0  0  0
   34.4310   24.0670   31.1210 H   0  0  0  0  0  0  0  0  0  0  0  0
   34.5400   26.4530   30.9090 H   0  0  0  0  0  0  0  0  0  0  0  0
   38.4180   25.2250   36.0570 C   0  0  0  0  0  0  0  0  0  0  0  0
   37.7160   24.3360   36.8650 C   0  0  0  0  0  0  0  0  0  0  0  0
   37.5530   23.0340   36.4250 C   0  0  0  0  0  0  0  0  0  0  0  0
   38.0780   22.6740   35.2280 N   0  0  0  0  0  0  0  0  0  0  0  0
   38.7370   23.5020   34.4620 C   0  0  0  0  0  0  0  0  0  0  0  0
   38.8610   24.7150   34.9310 N   0  0  0  0  0  0  0  0  0  0  0  0
   39.2730   23.0860   33.2270 N   0  0  0  0  0  0  0  0  0  0  0  0
   40.2340   21.9830   33.1200 C   0  0  0  0  0  0  0  0  0  0  0  0
   40.4460   21.7970   31.6800 C   0  0  0  0  0  0  0  0  0  0  0  0
   39.2810   22.5370   31.0210 C   0  0  0  0  0  0  0  0  0  0  0  0
   39.0370   23.6690   31.8980 C   0  0  1  0  0  0  0  0  0  0  0  0
   38.5770   26.2450   36.3440 H   0  0  0  0  0  0  0  0  0  0  0  0
   37.3050   24.6470   37.8190 H   0  0  0  0  0  0  0  0  0  0  0  0
   37.0010   22.3520   37.0720 H   0  0  0  0  0  0  0  0  0  0  0  0
   41.1780   22.3010   33.6090 H   0  0  0  0  0  0  0  0  0  0  0  0
   39.8150   21.1190   33.6650 H   0  0  0  0  0  0  0  0  0  0  0  0
   40.4960   20.7280   31.4270 H   0  0  0  0  0  0  0  0  0  0  0  0
   41.4400   22.2050   31.3720 H   0  0  0  0  0  0  0  0  0  0  0  0
   39.6970   22.6960   30.0540 H   0  0  0  0  0  0  0  0  0  0  0  0
   38.5310   21.7620   31.2470 H   0  0  0  0  0  0  0  0  0  0  0  0
   39.8810   24.4270   31.9250 H   0  0  0  0  0  0  0  0  0  0  0  0
   36.3270   28.9030   32.1170 C   0  0  0  0  0  0  0  0  0  0  0  0
   36.6160   27.9980   31.1450 C   0  0  0  0  0  0  0  0  0  0  0  0
   36.9700   28.4200   29.8800 C   0  0  0  0  0  0  0  0  0  0  0  0
   37.2180   27.7510   29.0450 H   0  0  0  0  0  0  0  0  0  0  0  0
   37.0460   29.7560   29.5450 C   0  0  0  0  0  0  0  0  0  0  0  0
   37.3280   30.1010   28.5390 H   0  0  0  0  0  0  0  0  0  0  0  0
   36.7580   30.6910   30.5120 C   0  0  0  0  0  3  0  0  0  0  0  0
   36.4030   30.2370   31.7790 C   0  0  0  0  0  3  0  0  0  0  0  0
   35.2590   27.0950   33.5350 H   0  0  0  0  0  0  0  0  0  0  0  0
   35.8900   28.3050   33.6800 S   0  0  0  0  0  0  0  0  0  0  0  0
   37.1400   28.0370   34.4980 O   0  0  0  0  0  0  0  0  0  0  0  0
   34.9990   29.2410   34.4340 O   0  0  0  0  0  0  0  0  0  0  0  0
   39.8440   27.1990   32.0370 N   0  0  0  0  0  0  0  0  0  0  0  0
   38.9230   26.5880   31.8180 C   0  0  0  0  0  0  0  0  0  0  0  0
  1  2  1  0  0  0  0
  1 44  1  0  0  0  0
  2 20  1  0  0  0  0
  3  7  1  0  0  0  0
  3  2  2  0  0  0  0
  4  3  1  0  0  0  0
  5  4  2  0  0  0  0
  5  6  1  0  0  0  0
  6  1  2  0  0  0  0
  8  4  1  0  0  0  0
  9  5  1  0  0  0  0
 10 21  1  0  0  0  0
 10 11  1  0  0  0  0
 11 22  1  0  0  0  0
 12 11  2  0  0  0  0
 12 23  1  0  0  0  0
 13 12  1  0  0  0  0
 14 15  1  0  0  0  0
 14 13  2  0  0  0  0
 15 10  2  0  0  0  0
 16 14  1  0  0  0  0
 17 16  1  0  0  0  0
 17 24  1  0  0  0  0
 17 25  1  0  0  0  0
 18 17  1  0  0  0  0
 19 29  1  0  0  0  0
 19 18  1  0  0  0  0
 19 20  1  0  0  0  0
 20 30  1  6  0  0  0
 20 16  1  0  0  0  0
 26 18  1  0  0  0  0
 27 18  1  0  0  0  0
 28 19  1  0  0  0  0
 31 40  1  0  0  0  0
 32  6  1  0  0  0  0
 32 31  2  0  0  0  0
 33 32  1  0  0  0  0
 34 33  1  0  0  0  0
 35 33  2  0  0  0  0
 35 37  1  0  0  0  0
 36 35  1  0  0  0  0
 37 38  2  0  0  0  0
 38 31  1  0  0  0  0
 39 40  1  0  0  0  0
 40 42  2  0  0  0  0
 40 41  2  0  0  0  0
 44 43  3  0  0  0  0
M  END
>  <minimizedAffinity>
-5.45188522

$$$$

 OpenBabel03262523213D

 44 47  0  0  1  0  0  0  0  0999 V2000
   38.7230   25.1510   32.3260 C   0  0  0  0  0  0  0  0  0  0  0  0
   39.6940   24.1450   32.1640 C   0  0  0  0  0  0  0  0  0  0  0  0
   40.9770   24.6500   32.3150 C   0  0  0  0  0  0  0  0  0  0  0  0
   41.2960   25.9650   32.5980 C   0  0  0  0  0  0  0  0  0  0  0  0
   40.2540   26.9010   32.7460 C   0  0  0  0  0  0  0  0  0  0  0  0
   38.9400   26.4900   32.6060 C   0  0  0  0  0  0  0  0  0  0  0  0
   41.9080   24.1610   32.1680 H   0  0  0  0  0  0  0  0  0  0  0  0
   42.2390   26.4250   32.7310 H   0  0  0  0  0  0  0  0  0  0  0  0
   40.4010   27.9470   32.9660 H   0  0  0  0  0  0  0  0  0  0  0  0
   40.0970   22.8420   36.4100 C   0  0  0  0  0  0  0  0  0  0  0  0
   38.9170   22.9950   37.1290 C   0  0  0  0  0  0  0  0  0  0  0  0
   37.7140   22.8150   36.4670 C   0  0  0  0  0  0  0  0  0  0  0  0
   37.7310   22.5010   35.1480 N   0  0  0  0  0  0  0  0  0  0  0  0
   38.8350   22.3570   34.4650 C   0  0  0  0  0  0  0  0  0  0  0  0
   39.9370   22.5360   35.1430 N   0  0  0  0  0  0  0  0  0  0  0  0
   38.8080   22.0220   33.0960 N   0  0  0  0  0  0  0  0  0  0  0  0
   38.1620   20.8040   32.5980 C   0  0  0  0  0  0  0  0  0  0  0  0
   38.2550   20.8900   31.1360 C   0  0  0  0  0  0  0  0  0  0  0  0
   38.5910   22.3570   30.8580 C   0  0  0  0  0  0  0  0  0  0  0  0
   39.4300   22.7470   31.9780 C   0  0  1  0  0  0  0  0  0  0  0  0
   41.0570   22.9680   36.8680 H   0  0  0  0  0  0  0  0  0  0  0  0
   38.9280   23.2470   38.1830 H   0  0  0  0  0  0  0  0  0  0  0  0
   36.7990   22.9380   37.0470 H   0  0  0  0  0  0  0  0  0  0  0  0
   38.7400   19.9320   32.9670 H   0  0  0  0  0  0  0  0  0  0  0  0
   37.1410   20.7700   33.0190 H   0  0  0  0  0  0  0  0  0  0  0  0
   37.3220   20.5500   30.6630 H   0  0  0  0  0  0  0  0  0  0  0  0
   39.0370   20.1920   30.7480 H   0  0  0  0  0  0  0  0  0  0  0  0
   39.0150   22.2600   29.8870 H   0  0  0  0  0  0  0  0  0  0  0  0
   37.5720   22.7300   31.0490 H   0  0  0  0  0  0  0  0  0  0  0  0
   40.4350   22.2230   32.0110 H   0  0  0  0  0  0  0  0  0  0  0  0
   37.3290   28.2250   31.7750 C   0  0  0  0  0  0  0  0  0  0  0  0
   37.8590   27.4480   32.7560 C   0  0  0  0  0  0  0  0  0  0  0  0
   37.3730   27.5220   34.0450 C   0  0  0  0  0  0  0  0  0  0  0  0
   37.7490   26.9270   34.8880 H   0  0  0  0  0  0  0  0  0  0  0  0
   36.3450   28.3720   34.3960 C   0  0  0  0  0  0  0  0  0  0  0  0
   35.9520   28.4360   35.4210 H   0  0  0  0  0  0  0  0  0  0  0  0
   35.7920   29.1680   33.4200 C   0  0  0  0  0  3  0  0  0  0  0  0
   36.3020   29.0740   32.1280 C   0  0  0  0  0  3  0  0  0  0  0  0
   38.1610   26.7530   29.8880 H   0  0  0  0  0  0  0  0  0  0  0  0
   37.9860   28.0820   30.1820 S   0  0  0  0  0  0  0  0  0  0  0  0
   36.9940   28.6150   29.1640 O   0  0  0  0  0  0  0  0  0  0  0  0
   39.2890   28.8000   30.0210 O   0  0  0  0  0  0  0  0  0  0  0  0
   36.2680   24.5320   31.8860 N   0  0  0  0  0  0  0  0  0  0  0  0
   37.3460   24.7930   32.0830 C   0  0  0  0  0  0  0  0  0  0  0  0
  1  6  1  0  0  0  0
  2  3  1  0  0  0  0
  2  1  2  0  0  0  0
  3  4  2  0  0  0  0
  4  8  1  0  0  0  0
  4  5  1  0  0  0  0
  5  9  1  0  0  0  0
  6  5  2  0  0  0  0
  6 32  1  0  0  0  0
  7  3  1  0  0  0  0
 10 21  1  0  0  0  0
 10 11  1  0  0  0  0
 11 22  1  0  0  0  0
 12 23  1  0  0  0  0
 12 11  2  0  0  0  0
 13 12  1  0  0  0  0
 14 15  1  0  0  0  0
 14 13  2  0  0  0  0
 15 10  2  0  0  0  0
 16 14  1  0  0  0  0
 17 24  1  0  0  0  0
 17 25  1  0  0  0  0
 17 16  1  0  0  0  0
 18 17  1  0  0  0  0
 19 29  1  0  0  0  0
 19 18  1  0  0  0  0
 19 20  1  0  0  0  0
 20 30  1  6  0  0  0
 20  2  1  0  0  0  0
 20 16  1  0  0  0  0
 26 18  1  0  0  0  0
 27 18  1  0  0  0  0
 28 19  1  0  0  0  0
 31 38  2  0  0  0  0
 31 32  1  0  0  0  0
 32 33  2  0  0  0  0
 33 35  1  0  0  0  0
 33 34  1  0  0  0  0
 35 36  1  0  0  0  0
 37 35  2  0  0  0  0
 38 37  1  0  0  0  0
 39 40  1  0  0  0  0
 40 31  1  0  0  0  0
 41 40  2  0  0  0  0
 42 40  2  0  0  0  0
 43 44  3  0  0  0  0
 44  1  1  0  0  0  0
M  END
>  <minimizedAffinity>
-5.38184738

$$$$

 OpenBabel03262523213D

 44 47  0  0  1  0  0  0  0  0999 V2000
   37.8880   25.8250   32.1790 C   0  0  0  0  0  0  0  0  0  0  0  0
   38.1580   24.4460   32.1100 C   0  0  0  0  0  0  0  0  0  0  0  0
   37.0740   23.7410   31.6100 C   0  0  0  0  0  0  0  0  0  0  0  0
   35.8690   24.2920   31.2130 C   0  0  0  0  0  0  0  0  0  0  0  0
   35.6930   25.6860   31.3160 C   0  0  0  0  0  0  0  0  0  0  0  0
   36.7200   26.4710   31.8100 C   0  0  0  0  0  0  0  0  0  0  0  0
   36.9440   22.6910   31.5220 H   0  0  0  0  0  0  0  0  0  0  0  0
   35.0030   23.8290   30.8220 H   0  0  0  0  0  0  0  0  0  0  0  0
   34.7920   26.2080   31.0330 H   0  0  0  0  0  0  0  0  0  0  0  0
   38.1440   25.0080   36.5340 C   0  0  0  0  0  0  0  0  0  0  0  0
   37.4590   23.9950   37.1980 C   0  0  0  0  0  0  0  0  0  0  0  0
   37.4980   22.7160   36.6680 C   0  0  0  0  0  0  0  0  0  0  0  0
   38.1970   22.4990   35.5270 N   0  0  0  0  0  0  0  0  0  0  0  0
   38.8410   23.4450   34.8960 C   0  0  0  0  0  0  0  0  0  0  0  0
   38.7700   24.6280   35.4440 N   0  0  0  0  0  0  0  0  0  0  0  0
   39.5610   23.1760   33.7150 N   0  0  0  0  0  0  0  0  0  0  0  0
   40.6480   22.1920   33.6650 C   0  0  0  0  0  0  0  0  0  0  0  0
   41.0470   22.1310   32.2540 C   0  0  0  0  0  0  0  0  0  0  0  0
   39.8890   22.7870   31.4990 C   0  0  0  0  0  0  0  0  0  0  0  0
   39.4170   23.8220   32.4020 C   0  0  1  0  0  0  0  0  0  0  0  0
   38.1500   26.0160   36.8970 H   0  0  0  0  0  0  0  0  0  0  0  0
   36.9070   24.1920   38.1090 H   0  0  0  0  0  0  0  0  0  0  0  0
   36.9570   21.9360   37.2020 H   0  0  0  0  0  0  0  0  0  0  0  0
   41.4860   22.5740   34.2840 H   0  0  0  0  0  0  0  0  0  0  0  0
   40.2700   21.2520   34.1040 H   0  0  0  0  0  0  0  0  0  0  0  0
   41.2480   21.0940   31.9480 H   0  0  0  0  0  0  0  0  0  0  0  0
   42.0170   22.6640   32.0940 H   0  0  0  0  0  0  0  0  0  0  0  0
   40.3930   23.0570   30.6020 H   0  0  0  0  0  0  0  0  0  0  0  0
   39.2120   21.9230   31.5870 H   0  0  0  0  0  0  0  0  0  0  0  0
   40.1600   24.6620   32.5760 H   0  0  0  0  0  0  0  0  0  0  0  0
   36.9420   28.8410   31.0150 C   0  0  0  0  0  0  0  0  0  0  0  0
   36.5460   27.9080   31.9210 C   0  0  0  0  0  0  0  0  0  0  0  0
   35.9100   28.2900   33.0840 C   0  0  0  0  0  0  0  0  0  0  0  0
   35.5610   27.5970   33.8610 H   0  0  0  0  0  0  0  0  0  0  0  0
   35.6490   29.6120   33.3790 C   0  0  0  0  0  0  0  0  0  0  0  0
   35.1410   29.9250   34.3030 H   0  0  0  0  0  0  0  0  0  0  0  0
   36.0400   30.5750   32.4770 C   0  0  0  0  0  3  0  0  0  0  0  0
   36.6810   30.1610   31.3130 C   0  0  0  0  0  3  0  0  0  0  0  0
   37.1770   27.1020   29.1870 H   0  0  0  0  0  0  0  0  0  0  0  0
   37.7350   28.2930   29.5790 S   0  0  0  0  0  0  0  0  0  0  0  0
   37.4870   29.2710   28.4460 O   0  0  0  0  0  0  0  0  0  0  0  0
   39.2100   28.1120   29.7590 O   0  0  0  0  0  0  0  0  0  0  0  0
   39.6640   27.3210   33.2780 N   0  0  0  0  0  0  0  0  0  0  0  0
   38.8870   26.6710   32.7870 C   0  0  0  0  0  0  0  0  0  0  0  0
  1 44  1  0  0  0  0
  2  1  1  0  0  0  0
  2 20  1  0  0  0  0
  3  2  2  0  0  0  0
  4  5  2  0  0  0  0
  4  3  1  0  0  0  0
  5  6  1  0  0  0  0
  6 32  1  0  0  0  0
  6  1  2  0  0  0  0
  7  3  1  0  0  0  0
  8  4  1  0  0  0  0
  9  5  1  0  0  0  0
 10 21  1  0  0  0  0
 10 11  1  0  0  0  0
 11 22  1  0  0  0  0
 12 11  2  0  0  0  0
 12 23  1  0  0  0  0
 13 12  1  0  0  0  0
 14 15  1  0  0  0  0
 14 13  2  0  0  0  0
 15 10  2  0  0  0  0
 16 14  1  0  0  0  0
 17 16  1  0  0  0  0
 17 25  1  0  0  0  0
 17 24  1  0  0  0  0
 18 17  1  0  0  0  0
 19 29  1  0  0  0  0
 19 18  1  0  0  0  0
 19 20  1  0  0  0  0
 20 30  1  6  0  0  0
 20 16  1  0  0  0  0
 26 18  1  0  0  0  0
 27 18  1  0  0  0  0
 28 19  1  0  0  0  0
 31 38  2  0  0  0  0
 31 32  1  0  0  0  0
 32 33  2  0  0  0  0
 33 35  1  0  0  0  0
 33 34  1  0  0  0  0
 35 36  1  0  0  0  0
 37 35  2  0  0  0  0
 38 37  1  0  0  0  0
 39 40  1  0  0  0  0
 40 42  2  0  0  0  0
 40 31  1  0  0  0  0
 41 40  2  0  0  0  0
 44 43  3  0  0  0  0
M  END
>  <minimizedAffinity>
-5.35683393

$$$$

 OpenBabel03262523213D

 44 47  0  0  1  0  0  0  0  0999 V2000
   37.6920   23.5570   32.6010 C   0  0  0  0  0  0  0  0  0  0  0  0
   37.5680   24.8700   33.0900 C   0  0  0  0  0  0  0  0  0  0  0  0
   36.6870   25.6160   32.3210 C   0  0  0  0  0  0  0  0  0  0  0  0
   35.9950   25.1560   31.2160 C   0  0  0  0  0  0  0  0  0  0  0  0
   36.1820   23.8220   30.8030 C   0  0  0  0  0  0  0  0  0  0  0  0
   37.0490   23.0040   31.5070 C   0  0  0  0  0  0  0  0  0  0  0  0
   36.4550   26.6500   32.3870 H   0  0  0  0  0  0  0  0  0  0  0  0
   35.3090   25.6550   30.5840 H   0  0  0  0  0  0  0  0  0  0  0  0
   35.6900   23.3720   29.9550 H   0  0  0  0  0  0  0  0  0  0  0  0
   41.7920   25.0410   31.6680 C   0  0  0  0  0  0  0  0  0  0  0  0
   42.0800   26.2220   30.9920 C   0  0  0  0  0  0  0  0  0  0  0  0
   41.4430   27.3830   31.3940 C   0  0  0  0  0  0  0  0  0  0  0  0
   40.5660   27.3280   32.4270 N   0  0  0  0  0  0  0  0  0  0  0  0
   40.2890   26.2230   33.0660 C   0  0  0  0  0  0  0  0  0  0  0  0
   40.9210   25.1610   32.6440 N   0  0  0  0  0  0  0  0  0  0  0  0
   39.3750   26.2100   34.1390 N   0  0  0  0  0  0  0  0  0  0  0  0
   39.5580   27.0360   35.3370 C   0  0  0  0  0  0  0  0  0  0  0  0
   38.3500   26.8190   36.1410 C   0  0  0  0  0  0  0  0  0  0  0  0
   37.3480   26.1910   35.1700 C   0  0  0  0  0  0  0  0  0  0  0  0
   38.1700   25.3800   34.2890 C   0  0  1  0  0  0  0  0  0  0  0  0
   42.2540   24.1110   31.4020 H   0  0  0  0  0  0  0  0  0  0  0  0
   42.7850   26.2420   30.1690 H   0  0  0  0  0  0  0  0  0  0  0  0
   41.6820   28.2990   30.8530 H   0  0  0  0  0  0  0  0  0  0  0  0
   40.4510   26.6630   35.8790 H   0  0  0  0  0  0  0  0  0  0  0  0
   39.7400   28.0730   35.0030 H   0  0  0  0  0  0  0  0  0  0  0  0
   38.0040   27.7620   36.5900 H   0  0  0  0  0  0  0  0  0  0  0  0
   38.5700   26.1570   37.0140 H   0  0  0  0  0  0  0  0  0  0  0  0
   36.6960   25.7210   35.8670 H   0  0  0  0  0  0  0  0  0  0  0  0
   37.1140   27.1320   34.6480 H   0  0  0  0  0  0  0  0  0  0  0  0
   38.6690   24.4980   34.7980 H   0  0  0  0  0  0  0  0  0  0  0  0
   36.4940   20.5570   31.4500 C   0  0  0  0  0  0  0  0  0  0  0  0
   37.2480   21.6280   31.0880 C   0  0  0  0  0  0  0  0  0  0  0  0
   38.3260   21.4680   30.2420 C   0  0  0  0  0  0  0  0  0  0  0  0
   38.9810   22.2840   29.9050 H   0  0  0  0  0  0  0  0  0  0  0  0
   38.6850   20.2380   29.7310 C   0  0  0  0  0  0  0  0  0  0  0  0
   39.5420   20.1030   29.0550 H   0  0  0  0  0  0  0  0  0  0  0  0
   37.9350   19.1390   30.0830 C   0  0  0  0  0  3  0  0  0  0  0  0
   36.8540   19.3290   30.9390 C   0  0  0  0  0  3  0  0  0  0  0  0
   34.8000   22.1520   32.4560 H   0  0  0  0  0  0  0  0  0  0  0  0
   35.1570   20.8280   32.5140 S   0  0  0  0  0  0  0  0  0  0  0  0
   33.9500   20.0410   32.0380 O   0  0  0  0  0  0  0  0  0  0  0  0
   35.4570   20.4580   33.9330 O   0  0  0  0  0  0  0  0  0  0  0  0
   39.4300   22.0450   33.7400 N   0  0  0  0  0  0  0  0  0  0  0  0
   38.6640   22.6990   33.2350 C   0  0  0  0  0  0  0  0  0  0  0  0
  1  2  1  0  0  0  0
  1 44  1  0  0  0  0
  2 20  1  0  0  0  0
  3  7  1  0  0  0  0
  3  2  2  0  0  0  0
  4  3  1  0  0  0  0
  5  4  2  0  0  0  0
  5  6  1  0  0  0  0
  6  1  2  0  0  0  0
  8  4  1  0  0  0  0
  9  5  1  0  0  0  0
 10 15  1  0  0  0  0
 11 12  1  0  0  0  0
 11 10  2  0  0  0  0
 12 13  2  0  0  0  0
 13 14  1  0  0  0  0
 14 16  1  0  0  0  0
 15 14  2  0  0  0  0
 16 20  1  0  0  0  0
 16 17  1  0  0  0  0
 17 24  1  0  0  0  0
 17 18  1  0  0  0  0
 18 26  1  0  0  0  0
 18 27  1  0  0  0  0
 19 28  1  0  0  0  0
 19 18  1  0  0  0  0
 20 30  1  1  0  0  0
 20 19  1  0  0  0  0
 21 10  1  0  0  0  0
 22 11  1  0  0  0  0
 23 12  1  0  0  0  0
 25 17  1  0  0  0  0
 29 19  1  0  0  0  0
 31 40  1  0  0  0  0
 32 31  1  0  0  0  0
 32  6  1  0  0  0  0
 33 32  2  0  0  0  0
 34 33  1  0  0  0  0
 35 37  2  0  0  0  0
 35 33  1  0  0  0  0
 36 35  1  0  0  0  0
 37 38  1  0  0  0  0
 38 31  2  0  0  0  0
 39 40  1  0  0  0  0
 40 42  2  0  0  0  0
 41 40  2  0  0  0  0
 44 43  3  0  0  0  0
M  END
>  <minimizedAffinity>
-5.31019163

$$$$

 OpenBabel03262523213D

 44 47  0  0  1  0  0  0  0  0999 V2000
   40.3520   25.1760   33.5660 C   0  0  0  0  0  0  0  0  0  0  0  0
   39.8350   26.2420   32.8070 C   0  0  0  0  0  0  0  0  0  0  0  0
   39.1940   27.1730   33.6110 C   0  0  0  0  0  0  0  0  0  0  0  0
   39.0680   27.0970   34.9860 C   0  0  0  0  0  0  0  0  0  0  0  0
   39.6230   25.9920   35.6600 C   0  0  0  0  0  0  0  0  0  0  0  0
   40.2770   25.0090   34.9390 C   0  0  0  0  0  0  0  0  0  0  0  0
   38.6370   28.0300   33.3250 H   0  0  0  0  0  0  0  0  0  0  0  0
   38.6030   27.7600   35.6660 H   0  0  0  0  0  0  0  0  0  0  0  0
   39.5770   25.8430   36.7280 H   0  0  0  0  0  0  0  0  0  0  0  0
   36.5320   23.6220   31.3520 C   0  0  0  0  0  0  0  0  0  0  0  0
   35.3080   24.2820   31.3070 C   0  0  0  0  0  0  0  0  0  0  0  0
   35.2990   25.6330   31.0010 C   0  0  0  0  0  0  0  0  0  0  0  0
   36.4770   26.2600   30.7610 N   0  0  0  0  0  0  0  0  0  0  0  0
   37.6300   25.6480   30.8030 C   0  0  0  0  0  0  0  0  0  0  0  0
   37.5760   24.3760   31.0930 N   0  0  0  0  0  0  0  0  0  0  0  0
   38.8320   26.3360   30.5390 N   0  0  0  0  0  0  0  0  0  0  0  0
   39.0760   27.0330   29.2720 C   0  0  0  0  0  0  0  0  0  0  0  0
   40.3700   27.7040   29.4460 C   0  0  0  0  0  0  0  0  0  0  0  0
   40.6110   27.6890   30.9570 C   0  0  0  0  0  0  0  0  0  0  0  0
   40.0220   26.4370   31.3980 C   0  0  1  0  0  0  0  0  0  0  0  0
   36.6020   22.5790   31.5820 H   0  0  0  0  0  0  0  0  0  0  0  0
   34.3790   23.7600   31.5030 H   0  0  0  0  0  0  0  0  0  0  0  0
   34.3310   26.1330   30.9700 H   0  0  0  0  0  0  0  0  0  0  0  0
   39.1450   26.2720   28.4680 H   0  0  0  0  0  0  0  0  0  0  0  0
   38.2100   27.6910   29.0790 H   0  0  0  0  0  0  0  0  0  0  0  0
   40.3500   28.7130   29.0080 H   0  0  0  0  0  0  0  0  0  0  0  0
   41.1720   27.1680   28.8810 H   0  0  0  0  0  0  0  0  0  0  0  0
   41.6680   27.8100   30.9690 H   0  0  0  0  0  0  0  0  0  0  0  0
   39.8970   28.4990   31.1790 H   0  0  0  0  0  0  0  0  0  0  0  0
   40.5530   25.5120   31.0130 H   0  0  0  0  0  0  0  0  0  0  0  0
   42.1550   23.7020   35.9690 C   0  0  0  0  0  0  0  0  0  0  0  0
   40.8510   23.8650   35.6250 C   0  0  0  0  0  0  0  0  0  0  0  0
   39.9230   22.8890   35.9240 C   0  0  0  0  0  0  0  0  0  0  0  0
   38.8540   22.9490   35.6790 H   0  0  0  0  0  0  0  0  0  0  0  0
   40.2660   21.7230   36.5760 C   0  0  0  0  0  0  0  0  0  0  0  0
   39.5310   20.9410   36.8190 H   0  0  0  0  0  0  0  0  0  0  0  0
   41.5800   21.5350   36.9350 C   0  0  0  0  0  3  0  0  0  0  0  0
   42.4960   22.5360   36.6190 C   0  0  0  0  0  3  0  0  0  0  0  0
   42.5610   26.1090   35.2900 H   0  0  0  0  0  0  0  0  0  0  0  0
   43.2660   24.9640   35.5630 S   0  0  0  0  0  0  0  0  0  0  0  0
   44.1470   25.2820   36.7580 O   0  0  0  0  0  0  0  0  0  0  0  0
   44.1320   24.6240   34.3900 O   0  0  0  0  0  0  0  0  0  0  0  0
   41.4290   23.2250   32.2880 N   0  0  0  0  0  0  0  0  0  0  0  0
   40.9480   24.0750   32.8480 C   0  0  0  0  0  0  0  0  0  0  0  0
  1  6  1  0  0  0  0
  2  1  2  0  0  0  0
  2  3  1  0  0  0  0
  3  4  2  0  0  0  0
  4  5  1  0  0  0  0
  4  8  1  0  0  0  0
  5  9  1  0  0  0  0
  6 32  1  0  0  0  0
  6  5  2  0  0  0  0
  7  3  1  0  0  0  0
 10 21  1  0  0  0  0
 11 10  1  0  0  0  0
 11 22  1  0  0  0  0
 12 11  2  0  0  0  0
 13 14  2  0  0  0  0
 13 12  1  0  0  0  0
 14 15  1  0  0  0  0
 15 10  2  0  0  0  0
 16 14  1  0  0  0  0
 16 20  1  0  0  0  0
 17 18  1  0  0  0  0
 17 16  1  0  0  0  0
 18 19  1  0  0  0  0
 19 28  1  0  0  0  0
 19 29  1  0  0  0  0
 19 20  1  0  0  0  0
 20 30  1  6  0  0  0
 20  2  1  0  0  0  0
 23 12  1  0  0  0  0
 24 17  1  0  0  0  0
 25 17  1  0  0  0  0
 26 18  1  0  0  0  0
 27 18  1  0  0  0  0
 31 38  1  0  0  0  0
 32 33  1  0  0  0  0
 32 31  2  0  0  0  0
 33 35  2  0  0  0  0
 34 33  1  0  0  0  0
 35 36  1  0  0  0  0
 35 37  1  0  0  0  0
 38 37  2  0  0  0  0
 39 40  1  0  0  0  0
 40 31  1  0  0  0  0
 40 41  2  0  0  0  0
 42 40  2  0  0  0  0
 43 44  3  0  0  0  0
 44  1  1  0  0  0  0
M  END
>  <minimizedAffinity>
-5.24603224

$$$$
