
 OpenBabel03272501283D

 42 45  0  0  1  0  0  0  0  0999 V2000
   38.0830   27.5280   32.1260 C   0  0  0  0  0  0  0  0  0  0  0  0
   36.9220   28.2260   32.4150 C   0  0  0  0  0  0  0  0  0  0  0  0
   36.6640   29.0700   31.3310 C   0  0  0  0  0  0  0  0  0  0  0  0
   37.6580   28.8530   30.4470 N   0  0  0  0  0  0  0  0  0  0  0  0
   38.4710   27.9450   30.9430 N   0  0  0  0  0  0  0  0  0  0  0  0
   36.2930   28.1700   33.2960 H   0  0  0  0  0  0  0  0  0  0  0  0
   35.8360   29.7660   31.2070 H   0  0  0  0  0  0  0  0  0  0  0  0
   36.9530   30.5610   28.9020 N   0  0  0  0  0  0  0  0  0  0  0  0
   37.5610   31.2770   27.8050 C   0  0  0  0  0  0  0  0  0  0  0  0
   39.0200   30.8680   27.7410 C   0  0  0  0  0  0  0  0  0  0  0  0
   39.2050   30.1380   29.0740 C   0  0  0  0  0  0  0  0  0  0  0  0
   37.8590   29.4630   29.1770 C   0  0  1  0  0  0  0  0  0  0  0  0
   36.7970   31.1250   29.7510 H   0  0  0  0  0  0  0  0  0  0  0  0
   37.5310   32.3580   28.0900 H   0  0  0  0  0  0  0  0  0  0  0  0
   37.0440   31.1240   26.8410 H   0  0  0  0  0  0  0  0  0  0  0  0
   39.6980   31.7450   27.7090 H   0  0  0  0  0  0  0  0  0  0  0  0
   39.1880   30.1650   26.9070 H   0  0  0  0  0  0  0  0  0  0  0  0
   39.4070   30.8300   29.8930 H   0  0  0  0  0  0  0  0  0  0  0  0
   39.9930   29.3920   28.9110 H   0  0  0  0  0  0  0  0  0  0  0  0
   37.7710   28.4380   28.1600 N   0  0  0  0  0  0  0  0  0  0  0  0
   38.6850   28.2900   27.6780 H   0  0  0  0  0  0  0  0  0  0  0  0
   37.3490   27.5540   28.5040 H   0  0  0  0  0  0  0  0  0  0  0  0
   38.5820   25.1720   32.8420 C   0  0  0  0  0  0  0  0  0  0  0  0
   38.6610   26.5490   33.0340 C   0  0  0  0  0  0  0  0  0  0  0  0
   39.3440   27.0030   34.1790 C   0  0  0  0  0  0  0  0  0  0  0  0
   39.8760   26.0810   35.0130 N   0  0  0  0  0  0  0  0  0  0  0  0
   39.7690   24.7470   34.7770 C   0  0  0  0  0  0  0  0  0  0  0  0
   39.1120   24.2920   33.6740 N   0  0  0  0  0  0  0  0  0  0  0  0
   38.0590   24.8160   31.9640 H   0  0  0  0  0  0  0  0  0  0  0  0
   39.4460   28.0580   34.3930 H   0  0  0  0  0  0  0  0  0  0  0  0
   39.6110   23.3280   36.7770 C   0  0  0  0  0  0  0  0  0  0  0  0
   40.3500   23.7470   35.6870 C   0  0  0  0  0  0  0  0  0  0  0  0
   41.6180   23.2260   35.4620 C   0  0  0  0  0  0  0  0  0  0  0  0
   42.1990   23.5670   34.5900 H   0  0  0  0  0  0  0  0  0  0  0  0
   42.1920   22.2930   36.2880 C   0  0  0  0  0  0  0  0  0  0  0  0
   43.1730   21.9110   36.0880 H   0  0  0  0  0  0  0  0  0  0  0  0
   41.4990   21.8460   37.3840 C   0  0  0  0  0  3  0  0  0  0  0  0
   40.2530   22.3760   37.5790 C   0  0  0  0  0  3  0  0  0  0  0  0
   37.6640   25.0220   36.4090 H   0  0  0  0  0  0  0  0  0  0  0  0
   38.0230   23.9180   37.1410 S   0  0  0  0  0  0  0  0  0  0  0  0
   37.0480   22.8000   37.0660 O   0  0  0  0  0  0  0  0  0  0  0  0
   38.0350   24.3950   38.5870 O   0  0  0  0  0  0  0  0  0  0  0  0
  1  2  1  0  0  0  0
  1 24  1  0  0  0  0
  2  6  1  0  0  0  0
  3  2  2  0  0  0  0
  4  5  1  0  0  0  0
  4  3  1  0  0  0  0
  5  1  2  0  0  0  0
  7  3  1  0  0  0  0
  8 12  1  0  0  0  0
  8 13  1  0  0  0  0
  9 14  1  0  0  0  0
  9  8  1  0  0  0  0
 10  9  1  0  0  0  0
 10 11  1  0  0  0  0
 11 12  1  0  0  0  0
 11 18  1  0  0  0  0
 12 20  1  6  0  0  0
 12  4  1  0  0  0  0
 15  9  1  0  0  0  0
 16 10  1  0  0  0  0
 17 10  1  0  0  0  0
 19 11  1  0  0  0  0
 20 22  1  0  0  0  0
 21 20  1  0  0  0  0
 23 24  2  0  0  0  0
 23 28  1  0  0  0  0
 24 25  1  0  0  0  0
 25 30  1  0  0  0  0
 25 26  2  0  0  0  0
 27 26  1  0  0  0  0
 27 32  1  0  0  0  0
 28 27  2  0  0  0  0
 29 23  1  0  0  0  0
 31 40  1  0  0  0  0
 31 38  1  0  0  0  0
 32 31  2  0  0  0  0
 33 32  1  0  0  0  0
 33 35  2  0  0  0  0
 34 33  1  0  0  0  0
 35 37  1  0  0  0  0
 36 35  1  0  0  0  0
 37 38  2  0  0  0  0
 39 40  1  0  0  0  0
 40 42  2  0  0  0  0
 41 40  2  0  0  0  0
M  END
>  <minimizedAffinity>
-6.04745674

$$$$

 OpenBabel03272501283D

 42 45  0  0  1  0  0  0  0  0999 V2000
   37.1520   27.8220   32.7370 C   0  0  0  0  0  0  0  0  0  0  0  0
   37.4340   28.1230   31.4140 C   0  0  0  0  0  0  0  0  0  0  0  0
   36.5250   29.1050   31.0100 C   0  0  0  0  0  0  0  0  0  0  0  0
   35.7460   29.3540   32.0810 N   0  0  0  0  0  0  0  0  0  0  0  0
   36.1390   28.5870   33.0750 N   0  0  0  0  0  0  0  0  0  0  0  0
   38.1990   27.7090   30.7680 H   0  0  0  0  0  0  0  0  0  0  0  0
   36.4460   29.5830   30.0340 H   0  0  0  0  0  0  0  0  0  0  0  0
   34.2800   30.8850   30.9350 N   0  0  0  0  0  0  0  0  0  0  0  0
   32.9680   31.4360   31.1780 C   0  0  0  0  0  0  0  0  0  0  0  0
   32.4090   30.7640   32.4170 C   0  0  0  0  0  0  0  0  0  0  0  0
   33.3830   29.6000   32.6160 C   0  0  0  0  0  0  0  0  0  0  0  0
   34.6660   30.2740   32.1920 C   0  0  1  0  0  0  0  0  0  0  0  0
   34.3240   30.1960   30.1680 H   0  0  0  0  0  0  0  0  0  0  0  0
   32.3360   31.1160   30.3120 H   0  0  0  0  0  0  0  0  0  0  0  0
   32.9640   32.5370   31.2640 H   0  0  0  0  0  0  0  0  0  0  0  0
   31.3890   30.3610   32.2500 H   0  0  0  0  0  0  0  0  0  0  0  0
   32.4640   31.4460   33.2840 H   0  0  0  0  0  0  0  0  0  0  0  0
   33.1210   28.7390   31.9990 H   0  0  0  0  0  0  0  0  0  0  0  0
   33.4000   29.3920   33.6940 H   0  0  0  0  0  0  0  0  0  0  0  0
   35.0160   31.2720   33.1790 N   0  0  0  0  0  0  0  0  0  0  0  0
   34.4040   31.2170   34.0220 H   0  0  0  0  0  0  0  0  0  0  0  0
   36.0280   31.2780   33.4150 H   0  0  0  0  0  0  0  0  0  0  0  0
   38.7600   27.1510   34.5460 C   0  0  0  0  0  0  0  0  0  0  0  0
   37.9020   26.8340   33.4970 C   0  0  0  0  0  0  0  0  0  0  0  0
   37.7650   25.4720   33.1650 C   0  0  0  0  0  0  0  0  0  0  0  0
   38.4680   24.5660   33.8810 N   0  0  0  0  0  0  0  0  0  0  0  0
   39.2920   24.9320   34.8980 C   0  0  0  0  0  0  0  0  0  0  0  0
   39.4360   26.2450   35.2300 N   0  0  0  0  0  0  0  0  0  0  0  0
   38.8700   28.1960   34.8070 H   0  0  0  0  0  0  0  0  0  0  0  0
   37.1160   25.1510   32.3620 H   0  0  0  0  0  0  0  0  0  0  0  0
   39.4340   23.2920   36.7230 C   0  0  0  0  0  0  0  0  0  0  0  0
   40.0560   23.9430   35.6740 C   0  0  0  0  0  0  0  0  0  0  0  0
   41.3810   23.6610   35.3670 C   0  0  0  0  0  0  0  0  0  0  0  0
   41.8680   24.1850   34.5300 H   0  0  0  0  0  0  0  0  0  0  0  0
   42.1250   22.7460   36.0680 C   0  0  0  0  0  0  0  0  0  0  0  0
   43.1460   22.5510   35.8060 H   0  0  0  0  0  0  0  0  0  0  0  0
   41.5530   22.0740   37.1170 C   0  0  0  0  0  3  0  0  0  0  0  0
   40.2470   22.3710   37.3960 C   0  0  0  0  0  3  0  0  0  0  0  0
   37.3030   24.7930   36.7770 H   0  0  0  0  0  0  0  0  0  0  0  0
   37.7870   23.5750   37.1820 S   0  0  0  0  0  0  0  0  0  0  0  0
   36.9490   22.4210   36.7630 O   0  0  0  0  0  0  0  0  0  0  0  0
   37.7420   23.6220   38.7030 O   0  0  0  0  0  0  0  0  0  0  0  0
  1  5  2  0  0  0  0
  1 24  1  0  0  0  0
  2  1  1  0  0  0  0
  3  2  2  0  0  0  0
  3  4  1  0  0  0  0
  4 12  1  0  0  0  0
  4  5  1  0  0  0  0
  6  2  1  0  0  0  0
  7  3  1  0  0  0  0
  8  9  1  0  0  0  0
  8 12  1  0  0  0  0
  9 15  1  0  0  0  0
  9 10  1  0  0  0  0
 10 11  1  0  0  0  0
 10 17  1  0  0  0  0
 11 19  1  0  0  0  0
 12 11  1  0  0  0  0
 12 20  1  1  0  0  0
 13  8  1  0  0  0  0
 14  9  1  0  0  0  0
 16 10  1  0  0  0  0
 18 11  1  0  0  0  0
 20 22  1  0  0  0  0
 20 21  1  0  0  0  0
 23 29  1  0  0  0  0
 23 28  1  0  0  0  0
 24 23  2  0  0  0  0
 25 24  1  0  0  0  0
 25 26  2  0  0  0  0
 26 27  1  0  0  0  0
 27 28  2  0  0  0  0
 27 32  1  0  0  0  0
 30 25  1  0  0  0  0
 31 40  1  0  0  0  0
 31 38  1  0  0  0  0
 32 31  2  0  0  0  0
 33 32  1  0  0  0  0
 33 35  2  0  0  0  0
 34 33  1  0  0  0  0
 35 37  1  0  0  0  0
 36 35  1  0  0  0  0
 37 38  2  0  0  0  0
 39 40  1  0  0  0  0
 40 42  2  0  0  0  0
 41 40  2  0  0  0  0
M  END
>  <minimizedAffinity>
-5.94715691

$$$$

 OpenBabel03272501283D

 42 45  0  0  1  0  0  0  0  0999 V2000
   36.3390   28.2730   33.7450 C   0  0  0  0  0  0  0  0  0  0  0  0
   36.2020   28.5570   32.3950 C   0  0  0  0  0  0  0  0  0  0  0  0
   35.2750   29.5970   32.2840 C   0  0  0  0  0  0  0  0  0  0  0  0
   34.8970   29.8960   33.5430 N   0  0  0  0  0  0  0  0  0  0  0  0
   35.5390   29.1020   34.3730 N   0  0  0  0  0  0  0  0  0  0  0  0
   36.6920   28.0940   31.5470 H   0  0  0  0  0  0  0  0  0  0  0  0
   34.9180   30.0810   31.3750 H   0  0  0  0  0  0  0  0  0  0  0  0
   32.5990   30.6160   33.5870 N   0  0  0  0  0  0  0  0  0  0  0  0
   31.8000   31.4700   34.4340 C   0  0  0  0  0  0  0  0  0  0  0  0
   32.6640   31.8940   35.6060 C   0  0  0  0  0  0  0  0  0  0  0  0
   33.8610   30.9460   35.4790 C   0  0  0  0  0  0  0  0  0  0  0  0
   33.9700   30.8840   33.9750 C   0  0  1  0  0  0  0  0  0  0  0  0
   32.3890   29.6100   33.6680 H   0  0  0  0  0  0  0  0  0  0  0  0
   30.9830   30.8230   34.8400 H   0  0  0  0  0  0  0  0  0  0  0  0
   31.3680   32.3360   33.9020 H   0  0  0  0  0  0  0  0  0  0  0  0
   32.1630   31.7180   36.5800 H   0  0  0  0  0  0  0  0  0  0  0  0
   33.0020   32.9370   35.4800 H   0  0  0  0  0  0  0  0  0  0  0  0
   33.6640   29.9770   35.9400 H   0  0  0  0  0  0  0  0  0  0  0  0
   34.7220   31.4790   35.9010 H   0  0  0  0  0  0  0  0  0  0  0  0
   34.4140   32.1710   33.4850 N   0  0  0  0  0  0  0  0  0  0  0  0
   34.6960   32.8070   34.2640 H   0  0  0  0  0  0  0  0  0  0  0  0
   35.1370   32.1000   32.7420 H   0  0  0  0  0  0  0  0  0  0  0  0
   37.3670   25.9820   33.6550 C   0  0  0  0  0  0  0  0  0  0  0  0
   37.2290   27.2360   34.2450 C   0  0  0  0  0  0  0  0  0  0  0  0
   38.0050   27.4980   35.3900 C   0  0  0  0  0  0  0  0  0  0  0  0
   38.8280   26.5250   35.8420 N   0  0  0  0  0  0  0  0  0  0  0  0
   38.9230   25.3170   35.2270 C   0  0  0  0  0  0  0  0  0  0  0  0
   38.1790   25.0480   34.1180 N   0  0  0  0  0  0  0  0  0  0  0  0
   36.7740   25.7730   32.7740 H   0  0  0  0  0  0  0  0  0  0  0  0
   37.9500   28.4500   35.9010 H   0  0  0  0  0  0  0  0  0  0  0  0
   39.3470   23.3740   36.6700 C   0  0  0  0  0  0  0  0  0  0  0  0
   39.8190   24.2610   35.7210 C   0  0  0  0  0  0  0  0  0  0  0  0
   41.1200   24.1480   35.2490 C   0  0  0  0  0  0  0  0  0  0  0  0
   41.4880   24.8590   34.4930 H   0  0  0  0  0  0  0  0  0  0  0  0
   41.9850   23.1770   35.6860 C   0  0  0  0  0  0  0  0  0  0  0  0
   42.9840   23.1160   35.3020 H   0  0  0  0  0  0  0  0  0  0  0  0
   41.5630   22.2730   36.6270 C   0  0  0  0  0  3  0  0  0  0  0  0
   40.2770   22.4080   37.0740 C   0  0  0  0  0  3  0  0  0  0  0  0
   37.1770   24.6830   37.2810 H   0  0  0  0  0  0  0  0  0  0  0  0
   37.7410   23.4340   37.3200 S   0  0  0  0  0  0  0  0  0  0  0  0
   36.9100   22.3750   36.6890 O   0  0  0  0  0  0  0  0  0  0  0  0
   37.8370   23.0930   38.8010 O   0  0  0  0  0  0  0  0  0  0  0  0
  1 24  1  0  0  0  0
  1  5  2  0  0  0  0
  2  1  1  0  0  0  0
  3  2  2  0  0  0  0
  3  4  1  0  0  0  0
  4 12  1  0  0  0  0
  4  5  1  0  0  0  0
  6  2  1  0  0  0  0
  7  3  1  0  0  0  0
  8 13  1  0  0  0  0
  8 12  1  0  0  0  0
  8  9  1  0  0  0  0
  9 14  1  0  0  0  0
  9 10  1  0  0  0  0
 10 16  1  0  0  0  0
 11 10  1  0  0  0  0
 11 19  1  0  0  0  0
 11 18  1  0  0  0  0
 12 20  1  6  0  0  0
 12 11  1  0  0  0  0
 15  9  1  0  0  0  0
 17 10  1  0  0  0  0
 20 21  1  0  0  0  0
 22 20  1  0  0  0  0
 23 28  2  0  0  0  0
 23 24  1  0  0  0  0
 24 25  2  0  0  0  0
 25 26  1  0  0  0  0
 25 30  1  0  0  0  0
 27 32  1  0  0  0  0
 27 26  2  0  0  0  0
 28 27  1  0  0  0  0
 29 23  1  0  0  0  0
 31 38  1  0  0  0  0
 31 40  1  0  0  0  0
 32 31  2  0  0  0  0
 33 35  2  0  0  0  0
 33 32  1  0  0  0  0
 34 33  1  0  0  0  0
 35 37  1  0  0  0  0
 36 35  1  0  0  0  0
 37 38  2  0  0  0  0
 39 40  1  0  0  0  0
 40 42  2  0  0  0  0
 41 40  2  0  0  0  0
M  END
>  <minimizedAffinity>
-5.81786823

$$$$

 OpenBabel03272501283D

 42 45  0  0  1  0  0  0  0  0999 V2000
   36.3190   28.3910   32.8120 C   0  0  0  0  0  0  0  0  0  0  0  0
   36.7600   28.7010   31.5350 C   0  0  0  0  0  0  0  0  0  0  0  0
   35.9010   29.6800   31.0270 C   0  0  0  0  0  0  0  0  0  0  0  0
   34.9950   29.9200   31.9960 N   0  0  0  0  0  0  0  0  0  0  0  0
   35.2690   29.1490   33.0270 N   0  0  0  0  0  0  0  0  0  0  0  0
   37.6000   28.2930   30.9860 H   0  0  0  0  0  0  0  0  0  0  0  0
   35.9400   30.1620   30.0510 H   0  0  0  0  0  0  0  0  0  0  0  0
   33.5210   31.2670   30.6490 N   0  0  0  0  0  0  0  0  0  0  0  0
   32.2020   31.8300   30.8090 C   0  0  0  0  0  0  0  0  0  0  0  0
   31.6410   31.3230   32.1230 C   0  0  0  0  0  0  0  0  0  0  0  0
   32.6270   30.2070   32.4800 C   0  0  0  0  0  0  0  0  0  0  0  0
   33.9050   30.8330   31.9770 C   0  0  1  0  0  0  0  0  0  0  0  0
   33.5780   30.4830   29.9800 H   0  0  0  0  0  0  0  0  0  0  0  0
   31.5790   31.3900   29.9900 H   0  0  0  0  0  0  0  0  0  0  0  0
   32.1850   32.9330   30.7470 H   0  0  0  0  0  0  0  0  0  0  0  0
   30.6270   30.8890   32.0050 H   0  0  0  0  0  0  0  0  0  0  0  0
   31.6830   32.1150   32.8910 H   0  0  0  0  0  0  0  0  0  0  0  0
   32.3780   29.2690   31.9820 H   0  0  0  0  0  0  0  0  0  0  0  0
   32.6390   30.1450   33.5760 H   0  0  0  0  0  0  0  0  0  0  0  0
   34.2380   31.9580   32.8240 N   0  0  0  0  0  0  0  0  0  0  0  0
   33.6210   32.0090   33.6640 H   0  0  0  0  0  0  0  0  0  0  0  0
   35.2480   32.0070   33.0630 H   0  0  0  0  0  0  0  0  0  0  0  0
   37.5080   27.6860   34.9100 C   0  0  0  0  0  0  0  0  0  0  0  0
   36.9760   27.4030   33.6540 C   0  0  0  0  0  0  0  0  0  0  0  0
   37.0890   26.0790   33.1890 C   0  0  0  0  0  0  0  0  0  0  0  0
   37.7010   25.1720   33.9830 N   0  0  0  0  0  0  0  0  0  0  0  0
   38.2030   25.5030   35.2020 C   0  0  0  0  0  0  0  0  0  0  0  0
   38.1030   26.7790   35.6660 N   0  0  0  0  0  0  0  0  0  0  0  0
   37.4250   28.7010   35.2740 H   0  0  0  0  0  0  0  0  0  0  0  0
   36.6980   25.7860   32.2240 H   0  0  0  0  0  0  0  0  0  0  0  0
   40.1500   24.1040   35.7440 C   0  0  0  0  0  0  0  0  0  0  0  0
   38.8690   24.5130   36.0630 C   0  0  0  0  0  0  0  0  0  0  0  0
   38.2300   23.9920   37.1810 C   0  0  0  0  0  0  0  0  0  0  0  0
   37.2090   24.3240   37.4270 H   0  0  0  0  0  0  0  0  0  0  0  0
   38.8180   23.0680   38.0070 C   0  0  0  0  0  0  0  0  0  0  0  0
   38.2980   22.6850   38.8620 H   0  0  0  0  0  0  0  0  0  0  0  0
   40.0880   22.6310   37.7320 C   0  0  0  0  0  3  0  0  0  0  0  0
   40.6930   23.1620   36.6260 C   0  0  0  0  0  3  0  0  0  0  0  0
   40.3400   24.5950   33.1910 H   0  0  0  0  0  0  0  0  0  0  0  0
   41.0290   24.6960   34.3720 S   0  0  0  0  0  0  0  0  0  0  0  0
   41.5400   26.0610   34.6610 O   0  0  0  0  0  0  0  0  0  0  0  0
   42.2470   23.8000   34.1930 O   0  0  0  0  0  0  0  0  0  0  0  0
  1  5  2  0  0  0  0
  1 24  1  0  0  0  0
  2  1  1  0  0  0  0
  3  2  2  0  0  0  0
  3  4  1  0  0  0  0
  4  5  1  0  0  0  0
  6  2  1  0  0  0  0
  7  3  1  0  0  0  0
  8  9  1  0  0  0  0
  8 12  1  0  0  0  0
  9 10  1  0  0  0  0
 10 11  1  0  0  0  0
 10 17  1  0  0  0  0
 11 19  1  0  0  0  0
 12  4  1  0  0  0  0
 12 11  1  0  0  0  0
 12 20  1  1  0  0  0
 13  8  1  0  0  0  0
 14  9  1  0  0  0  0
 15  9  1  0  0  0  0
 16 10  1  0  0  0  0
 18 11  1  0  0  0  0
 20 22  1  0  0  0  0
 20 21  1  0  0  0  0
 23 29  1  0  0  0  0
 23 28  1  0  0  0  0
 24 23  2  0  0  0  0
 25 24  1  0  0  0  0
 25 26  2  0  0  0  0
 26 27  1  0  0  0  0
 27 28  2  0  0  0  0
 27 32  1  0  0  0  0
 30 25  1  0  0  0  0
 31 32  2  0  0  0  0
 31 38  1  0  0  0  0
 32 33  1  0  0  0  0
 33 34  1  0  0  0  0
 33 35  2  0  0  0  0
 35 36  1  0  0  0  0
 37 35  1  0  0  0  0
 38 37  2  0  0  0  0
 39 40  1  0  0  0  0
 40 41  2  0  0  0  0
 40 31  1  0  0  0  0
 42 40  2  0  0  0  0
M  END
>  <minimizedAffinity>
-5.79248333

$$$$

 OpenBabel03272501283D

 42 45  0  0  1  0  0  0  0  0999 V2000
   36.0190   28.4490   32.4970 C   0  0  0  0  0  0  0  0  0  0  0  0
   36.3550   29.4420   31.5910 C   0  0  0  0  0  0  0  0  0  0  0  0
   36.0810   30.6690   32.2010 C   0  0  0  0  0  0  0  0  0  0  0  0
   35.6000   30.3770   33.4260 N   0  0  0  0  0  0  0  0  0  0  0  0
   35.5770   29.0690   33.5670 N   0  0  0  0  0  0  0  0  0  0  0  0
   36.7570   29.3440   30.5890 H   0  0  0  0  0  0  0  0  0  0  0  0
   36.2200   31.6680   31.7880 H   0  0  0  0  0  0  0  0  0  0  0  0
   33.8500   30.9910   34.9620 N   0  0  0  0  0  0  0  0  0  0  0  0
   33.7760   31.7180   36.2080 C   0  0  0  0  0  0  0  0  0  0  0  0
   35.1930   32.0530   36.6290 C   0  0  0  0  0  0  0  0  0  0  0  0
   36.0220   31.1750   35.6870 C   0  0  0  0  0  0  0  0  0  0  0  0
   35.1730   31.2750   34.4430 C   0  0  1  0  0  0  0  0  0  0  0  0
   33.7030   29.9740   35.0470 H   0  0  0  0  0  0  0  0  0  0  0  0
   33.3670   30.9970   36.9590 H   0  0  0  0  0  0  0  0  0  0  0  0
   33.1340   32.6150   36.1550 H   0  0  0  0  0  0  0  0  0  0  0  0
   35.3990   31.7550   37.6780 H   0  0  0  0  0  0  0  0  0  0  0  0
   35.4130   33.1170   36.4340 H   0  0  0  0  0  0  0  0  0  0  0  0
   36.1230   30.1560   36.0620 H   0  0  0  0  0  0  0  0  0  0  0  0
   36.9760   31.6970   35.5390 H   0  0  0  0  0  0  0  0  0  0  0  0
   35.2590   32.6240   33.9260 N   0  0  0  0  0  0  0  0  0  0  0  0
   35.9820   33.1860   34.4260 H   0  0  0  0  0  0  0  0  0  0  0  0
   35.3620   32.6610   32.8930 H   0  0  0  0  0  0  0  0  0  0  0  0
   35.5810   26.3970   31.1150 C   0  0  0  0  0  0  0  0  0  0  0  0
   36.1710   27.0320   32.2060 C   0  0  0  0  0  0  0  0  0  0  0  0
   36.9570   26.2400   33.0650 C   0  0  0  0  0  0  0  0  0  0  0  0
   37.0900   24.9250   32.7800 N   0  0  0  0  0  0  0  0  0  0  0  0
   36.4910   24.3570   31.7010 C   0  0  0  0  0  0  0  0  0  0  0  0
   35.7270   25.1090   30.8600 N   0  0  0  0  0  0  0  0  0  0  0  0
   34.9760   26.9990   30.4500 H   0  0  0  0  0  0  0  0  0  0  0  0
   37.4460   26.6650   33.9310 H   0  0  0  0  0  0  0  0  0  0  0  0
   37.8130   22.4830   30.8170 C   0  0  0  0  0  0  0  0  0  0  0  0
   36.6380   22.9250   31.3940 C   0  0  0  0  0  0  0  0  0  0  0  0
   35.6180   22.0260   31.6760 C   0  0  0  0  0  0  0  0  0  0  0  0
   34.6840   22.3880   32.1350 H   0  0  0  0  0  0  0  0  0  0  0  0
   35.7170   20.6850   31.4040 C   0  0  0  0  0  0  0  0  0  0  0  0
   34.9120   20.0160   31.6330 H   0  0  0  0  0  0  0  0  0  0  0  0
   36.8640   20.1960   30.8320 C   0  0  0  0  0  3  0  0  0  0  0  0
   37.8520   21.1050   30.5670 C   0  0  0  0  0  3  0  0  0  0  0  0
   39.1380   24.7050   31.1310 H   0  0  0  0  0  0  0  0  0  0  0  0
   39.1410   23.5270   30.4300 S   0  0  0  0  0  0  0  0  0  0  0  0
   40.4150   22.7680   30.5280 O   0  0  0  0  0  0  0  0  0  0  0  0
   38.9850   23.9370   28.9720 O   0  0  0  0  0  0  0  0  0  0  0  0
  1  5  2  0  0  0  0
  2  3  2  0  0  0  0
  2  1  1  0  0  0  0
  3  4  1  0  0  0  0
  4  5  1  0  0  0  0
  4 12  1  0  0  0  0
  6  2  1  0  0  0  0
  7  3  1  0  0  0  0
  8 13  1  0  0  0  0
  8  9  1  0  0  0  0
  9 10  1  0  0  0  0
  9 14  1  0  0  0  0
 10 16  1  0  0  0  0
 11 18  1  0  0  0  0
 11 10  1  0  0  0  0
 12 20  1  6  0  0  0
 12  8  1  0  0  0  0
 12 11  1  0  0  0  0
 15  9  1  0  0  0  0
 17 10  1  0  0  0  0
 19 11  1  0  0  0  0
 20 21  1  0  0  0  0
 22 20  1  0  0  0  0
 23 24  1  0  0  0  0
 24  1  1  0  0  0  0
 24 25  2  0  0  0  0
 25 30  1  0  0  0  0
 26 25  1  0  0  0  0
 27 26  2  0  0  0  0
 28 23  2  0  0  0  0
 28 27  1  0  0  0  0
 29 23  1  0  0  0  0
 31 32  1  0  0  0  0
 32 33  2  0  0  0  0
 32 27  1  0  0  0  0
 33 34  1  0  0  0  0
 35 36  1  0  0  0  0
 35 33  1  0  0  0  0
 37 35  2  0  0  0  0
 38 31  2  0  0  0  0
 38 37  1  0  0  0  0
 40 41  2  0  0  0  0
 40 31  1  0  0  0  0
 40 39  1  0  0  0  0
 42 40  2  0  0  0  0
M  END
>  <minimizedAffinity>
-5.71973181

$$$$

 OpenBabel03272501283D

 42 45  0  0  1  0  0  0  0  0999 V2000
   37.7600   24.7530   33.1050 C   0  0  0  0  0  0  0  0  0  0  0  0
   37.5300   23.4690   32.6380 C   0  0  0  0  0  0  0  0  0  0  0  0
   37.7150   22.5980   33.7150 C   0  0  0  0  0  0  0  0  0  0  0  0
   38.0420   23.3730   34.7690 N   0  0  0  0  0  0  0  0  0  0  0  0
   38.0590   24.6290   34.3770 N   0  0  0  0  0  0  0  0  0  0  0  0
   37.2570   23.1430   31.6410 H   0  0  0  0  0  0  0  0  0  0  0  0
   37.6200   21.5120   33.7230 H   0  0  0  0  0  0  0  0  0  0  0  0
   39.7360   22.7120   36.3480 N   0  0  0  0  0  0  0  0  0  0  0  0
   39.8700   22.7260   37.7860 C   0  0  0  0  0  0  0  0  0  0  0  0
   38.6530   23.4310   38.3550 C   0  0  0  0  0  0  0  0  0  0  0  0
   38.0380   24.0640   37.1030 C   0  0  0  0  0  0  0  0  0  0  0  0
   38.3310   22.9720   36.1030 C   0  0  1  0  0  0  0  0  0  0  0  0
   40.3250   23.4000   35.8540 H   0  0  0  0  0  0  0  0  0  0  0  0
   40.7590   23.3680   38.0050 H   0  0  0  0  0  0  0  0  0  0  0  0
   40.0110   21.7220   38.2230 H   0  0  0  0  0  0  0  0  0  0  0  0
   38.9310   24.2330   39.0680 H   0  0  0  0  0  0  0  0  0  0  0  0
   37.9490   22.6990   38.7850 H   0  0  0  0  0  0  0  0  0  0  0  0
   38.5070   25.0170   36.8550 H   0  0  0  0  0  0  0  0  0  0  0  0
   36.9580   24.1290   37.2900 H   0  0  0  0  0  0  0  0  0  0  0  0
   37.5180   21.8180   36.4190 N   0  0  0  0  0  0  0  0  0  0  0  0
   36.8160   22.0290   37.1620 H   0  0  0  0  0  0  0  0  0  0  0  0
   37.0950   21.3720   35.5810 H   0  0  0  0  0  0  0  0  0  0  0  0
   36.5530   26.2170   31.4580 C   0  0  0  0  0  0  0  0  0  0  0  0
   37.6580   25.9300   32.2550 C   0  0  0  0  0  0  0  0  0  0  0  0
   38.7290   26.8430   32.2240 C   0  0  0  0  0  0  0  0  0  0  0  0
   38.6190   27.9320   31.4300 N   0  0  0  0  0  0  0  0  0  0  0  0
   37.5160   28.1630   30.6720 C   0  0  0  0  0  0  0  0  0  0  0  0
   36.4710   27.2900   30.6900 N   0  0  0  0  0  0  0  0  0  0  0  0
   35.7250   25.5200   31.4760 H   0  0  0  0  0  0  0  0  0  0  0  0
   39.6200   26.6850   32.8170 H   0  0  0  0  0  0  0  0  0  0  0  0
   36.7540   30.4700   30.2970 C   0  0  0  0  0  0  0  0  0  0  0  0
   37.4000   29.3490   29.8090 C   0  0  0  0  0  0  0  0  0  0  0  0
   37.9260   29.3530   28.5230 C   0  0  0  0  0  0  0  0  0  0  0  0
   38.4380   28.4540   28.1430 H   0  0  0  0  0  0  0  0  0  0  0  0
   37.8380   30.4380   27.6900 C   0  0  0  0  0  0  0  0  0  0  0  0
   38.2540   30.4100   26.7030 H   0  0  0  0  0  0  0  0  0  0  0  0
   37.2070   31.5750   28.1280 C   0  0  0  0  0  3  0  0  0  0  0  0
   36.6980   31.5420   29.3980 C   0  0  0  0  0  3  0  0  0  0  0  0
   36.6420   29.7030   32.7850 H   0  0  0  0  0  0  0  0  0  0  0  0
   36.0660   30.5620   31.8850 S   0  0  0  0  0  0  0  0  0  0  0  0
   36.0370   31.9780   32.3320 O   0  0  0  0  0  0  0  0  0  0  0  0
   34.6180   30.1050   31.7780 O   0  0  0  0  0  0  0  0  0  0  0  0
  1  5  2  0  0  0  0
  2  1  1  0  0  0  0
  2  3  2  0  0  0  0
  3  7  1  0  0  0  0
  3  4  1  0  0  0  0
  4 12  1  0  0  0  0
  5  4  1  0  0  0  0
  6  2  1  0  0  0  0
  8  9  1  0  0  0  0
  9 14  1  0  0  0  0
  9 15  1  0  0  0  0
  9 10  1  0  0  0  0
 10 17  1  0  0  0  0
 10 16  1  0  0  0  0
 11 19  1  0  0  0  0
 11 10  1  0  0  0  0
 12  8  1  0  0  0  0
 12 20  1  1  0  0  0
 12 11  1  0  0  0  0
 13  8  1  0  0  0  0
 18 11  1  0  0  0  0
 20 21  1  0  0  0  0
 22 20  1  0  0  0  0
 23 29  1  0  0  0  0
 23 24  1  0  0  0  0
 24  1  1  0  0  0  0
 25 24  2  0  0  0  0
 25 30  1  0  0  0  0
 26 25  1  0  0  0  0
 27 28  1  0  0  0  0
 27 26  2  0  0  0  0
 28 23  2  0  0  0  0
 31 40  1  0  0  0  0
 32 31  1  0  0  0  0
 32 27  1  0  0  0  0
 33 32  2  0  0  0  0
 34 33  1  0  0  0  0
 35 37  2  0  0  0  0
 35 33  1  0  0  0  0
 36 35  1  0  0  0  0
 37 38  1  0  0  0  0
 38 31  2  0  0  0  0
 40 41  2  0  0  0  0
 40 39  1  0  0  0  0
 42 40  2  0  0  0  0
M  END
>  <minimizedAffinity>
-5.66515446

$$$$

 OpenBabel03272501283D

 42 45  0  0  1  0  0  0  0  0999 V2000
   35.0530   29.8080   34.3720 C   0  0  0  0  0  0  0  0  0  0  0  0
   33.6930   29.6960   34.6150 C   0  0  0  0  0  0  0  0  0  0  0  0
   33.3190   30.7960   35.3910 C   0  0  0  0  0  0  0  0  0  0  0  0
   34.4420   31.5160   35.5820 N   0  0  0  0  0  0  0  0  0  0  0  0
   35.4380   30.9100   34.9720 N   0  0  0  0  0  0  0  0  0  0  0  0
   33.0030   28.9250   34.2920 H   0  0  0  0  0  0  0  0  0  0  0  0
   32.3280   31.0400   35.7730 H   0  0  0  0  0  0  0  0  0  0  0  0
   35.6540   33.5870   35.8000 N   0  0  0  0  0  0  0  0  0  0  0  0
   35.3880   34.8830   36.3770 C   0  0  0  0  0  0  0  0  0  0  0  0
   33.9470   34.8910   36.8480 C   0  0  0  0  0  0  0  0  0  0  0  0
   33.3900   33.6260   36.1880 C   0  0  0  0  0  0  0  0  0  0  0  0
   34.6000   32.7310   36.3060 C   0  0  1  0  0  0  0  0  0  0  0  0
   35.6730   33.5690   34.7690 H   0  0  0  0  0  0  0  0  0  0  0  0
   35.4670   35.6160   35.5350 H   0  0  0  0  0  0  0  0  0  0  0  0
   36.0910   35.1560   37.1840 H   0  0  0  0  0  0  0  0  0  0  0  0
   33.3890   35.7730   36.4720 H   0  0  0  0  0  0  0  0  0  0  0  0
   33.8990   34.7890   37.9460 H   0  0  0  0  0  0  0  0  0  0  0  0
   33.0810   33.8060   35.1570 H   0  0  0  0  0  0  0  0  0  0  0  0
   32.5850   33.2660   36.8420 H   0  0  0  0  0  0  0  0  0  0  0  0
   34.8070   32.4060   37.7000 N   0  0  0  0  0  0  0  0  0  0  0  0
   34.0150   32.7330   38.2970 H   0  0  0  0  0  0  0  0  0  0  0  0
   35.0450   31.4070   37.8580 H   0  0  0  0  0  0  0  0  0  0  0  0
   36.6560   27.8880   34.1410 C   0  0  0  0  0  0  0  0  0  0  0  0
   35.7960   28.8330   33.5880 C   0  0  0  0  0  0  0  0  0  0  0  0
   35.6500   28.8300   32.1880 C   0  0  0  0  0  0  0  0  0  0  0  0
   36.3470   27.9170   31.4740 N   0  0  0  0  0  0  0  0  0  0  0  0
   37.1730   27.0160   32.0660 C   0  0  0  0  0  0  0  0  0  0  0  0
   37.3250   27.0060   33.4200 N   0  0  0  0  0  0  0  0  0  0  0  0
   36.7730   27.8830   35.2180 H   0  0  0  0  0  0  0  0  0  0  0  0
   35.0000   29.5360   31.6880 H   0  0  0  0  0  0  0  0  0  0  0  0
   37.3210   24.8290   30.9550 C   0  0  0  0  0  0  0  0  0  0  0  0
   37.9300   26.0240   31.2860 C   0  0  0  0  0  0  0  0  0  0  0  0
   39.2350   26.2760   30.8840 C   0  0  0  0  0  0  0  0  0  0  0  0
   39.7120   27.2320   31.1530 H   0  0  0  0  0  0  0  0  0  0  0  0
   39.9720   25.3770   30.1560 C   0  0  0  0  0  0  0  0  0  0  0  0
   40.9780   25.6000   29.8610 H   0  0  0  0  0  0  0  0  0  0  0  0
   39.4120   24.1750   29.8030 C   0  0  0  0  0  3  0  0  0  0  0  0
   38.1250   23.9560   30.2130 C   0  0  0  0  0  3  0  0  0  0  0  0
   35.4320   24.6260   32.7400 H   0  0  0  0  0  0  0  0  0  0  0  0
   35.6980   24.4240   31.4110 S   0  0  0  0  0  0  0  0  0  0  0  0
   34.7420   25.0960   30.4930 O   0  0  0  0  0  0  0  0  0  0  0  0
   35.5290   22.9250   31.2010 O   0  0  0  0  0  0  0  0  0  0  0  0
  1  2  1  0  0  0  0
  1  5  2  0  0  0  0
  2  3  2  0  0  0  0
  3  4  1  0  0  0  0
  3  7  1  0  0  0  0
  4 12  1  0  0  0  0
  5  4  1  0  0  0  0
  6  2  1  0  0  0  0
  8 12  1  0  0  0  0
  8  9  1  0  0  0  0
  9 10  1  0  0  0  0
  9 15  1  0  0  0  0
 10 17  1  0  0  0  0
 11 12  1  0  0  0  0
 11 19  1  0  0  0  0
 11 10  1  0  0  0  0
 12 20  1  1  0  0  0
 13  8  1  0  0  0  0
 14  9  1  0  0  0  0
 16 10  1  0  0  0  0
 18 11  1  0  0  0  0
 20 22  1  0  0  0  0
 20 21  1  0  0  0  0
 23 29  1  0  0  0  0
 24 23  1  0  0  0  0
 24  1  1  0  0  0  0
 25 24  2  0  0  0  0
 26 27  2  0  0  0  0
 26 25  1  0  0  0  0
 27 28  1  0  0  0  0
 28 23  2  0  0  0  0
 30 25  1  0  0  0  0
 31 32  1  0  0  0  0
 31 40  1  0  0  0  0
 32 27  1  0  0  0  0
 33 34  1  0  0  0  0
 33 32  2  0  0  0  0
 35 33  1  0  0  0  0
 36 35  1  0  0  0  0
 37 35  2  0  0  0  0
 37 38  1  0  0  0  0
 38 31  2  0  0  0  0
 40 39  1  0  0  0  0
 41 40  2  0  0  0  0
 42 40  2  0  0  0  0
M  END
>  <minimizedAffinity>
-5.65186405

$$$$

 OpenBabel03272501283D

 42 45  0  0  1  0  0  0  0  0999 V2000
   36.5550   28.2670   33.6400 C   0  0  0  0  0  0  0  0  0  0  0  0
   35.4390   28.7490   34.3050 C   0  0  0  0  0  0  0  0  0  0  0  0
   34.8790   29.7480   33.5040 C   0  0  0  0  0  0  0  0  0  0  0  0
   35.6610   29.8280   32.4090 N   0  0  0  0  0  0  0  0  0  0  0  0
   36.6320   28.9480   32.5210 N   0  0  0  0  0  0  0  0  0  0  0  0
   35.0330   28.4480   35.2640 H   0  0  0  0  0  0  0  0  0  0  0  0
   33.9930   30.3490   33.7050 H   0  0  0  0  0  0  0  0  0  0  0  0
   34.1870   31.2350   31.1240 N   0  0  0  0  0  0  0  0  0  0  0  0
   34.3500   32.3540   30.2260 C   0  0  0  0  0  0  0  0  0  0  0  0
   35.8180   32.7320   30.2230 C   0  0  0  0  0  0  0  0  0  0  0  0
   36.3520   31.9430   31.4220 C   0  0  0  0  0  0  0  0  0  0  0  0
   35.5210   30.6910   31.2860 C   0  0  1  0  0  0  0  0  0  0  0  0
   33.7780   31.4740   32.0400 H   0  0  0  0  0  0  0  0  0  0  0  0
   33.7880   33.2030   30.6880 H   0  0  0  0  0  0  0  0  0  0  0  0
   33.9690   32.1580   29.2080 H   0  0  0  0  0  0  0  0  0  0  0  0
   35.9710   33.8160   30.4040 H   0  0  0  0  0  0  0  0  0  0  0  0
   36.3070   32.3780   29.2990 H   0  0  0  0  0  0  0  0  0  0  0  0
   36.1910   32.4720   32.3630 H   0  0  0  0  0  0  0  0  0  0  0  0
   37.4060   31.7260   31.2040 H   0  0  0  0  0  0  0  0  0  0  0  0
   35.9460   29.9740   30.1040 N   0  0  0  0  0  0  0  0  0  0  0  0
   36.8090   30.3880   29.6880 H   0  0  0  0  0  0  0  0  0  0  0  0
   36.0220   28.9480   30.2520 H   0  0  0  0  0  0  0  0  0  0  0  0
   37.4940   25.9370   33.6220 C   0  0  0  0  0  0  0  0  0  0  0  0
   37.3970   27.2100   34.1780 C   0  0  0  0  0  0  0  0  0  0  0  0
   38.1650   27.4700   35.3300 C   0  0  0  0  0  0  0  0  0  0  0  0
   38.9430   26.4770   35.8180 N   0  0  0  0  0  0  0  0  0  0  0  0
   39.0010   25.2520   35.2330 C   0  0  0  0  0  0  0  0  0  0  0  0
   38.2630   24.9840   34.1190 N   0  0  0  0  0  0  0  0  0  0  0  0
   36.9070   25.7290   32.7360 H   0  0  0  0  0  0  0  0  0  0  0  0
   38.1400   28.4350   35.8160 H   0  0  0  0  0  0  0  0  0  0  0  0
   39.3210   23.3160   36.7130 C   0  0  0  0  0  0  0  0  0  0  0  0
   39.8480   24.1740   35.7670 C   0  0  0  0  0  0  0  0  0  0  0  0
   41.1580   24.0140   35.3340 C   0  0  0  0  0  0  0  0  0  0  0  0
   41.5700   24.7030   34.5790 H   0  0  0  0  0  0  0  0  0  0  0  0
   41.9790   23.0220   35.8080 C   0  0  0  0  0  0  0  0  0  0  0  0
   42.9850   22.9240   35.4540 H   0  0  0  0  0  0  0  0  0  0  0  0
   41.5010   22.1450   36.7490 C   0  0  0  0  0  3  0  0  0  0  0  0
   40.2080   22.3270   37.1560 C   0  0  0  0  0  3  0  0  0  0  0  0
   37.1790   24.7030   37.2470 H   0  0  0  0  0  0  0  0  0  0  0  0
   37.7000   23.4360   37.3150 S   0  0  0  0  0  0  0  0  0  0  0  0
   36.8530   22.3980   36.6710 O   0  0  0  0  0  0  0  0  0  0  0  0
   37.7420   23.1090   38.8010 O   0  0  0  0  0  0  0  0  0  0  0  0
  1 24  1  0  0  0  0
  1  2  1  0  0  0  0
  2  6  1  0  0  0  0
  3  7  1  0  0  0  0
  3  2  2  0  0  0  0
  4  5  1  0  0  0  0
  4  3  1  0  0  0  0
  5  1  2  0  0  0  0
  8 12  1  0  0  0  0
  8 13  1  0  0  0  0
  9 14  1  0  0  0  0
  9  8  1  0  0  0  0
 10  9  1  0  0  0  0
 10 16  1  0  0  0  0
 10 11  1  0  0  0  0
 11 18  1  0  0  0  0
 12 20  1  6  0  0  0
 12 11  1  0  0  0  0
 12  4  1  0  0  0  0
 15  9  1  0  0  0  0
 17 10  1  0  0  0  0
 19 11  1  0  0  0  0
 20 22  1  0  0  0  0
 21 20  1  0  0  0  0
 23 28  2  0  0  0  0
 23 24  1  0  0  0  0
 24 25  2  0  0  0  0
 25 30  1  0  0  0  0
 25 26  1  0  0  0  0
 27 32  1  0  0  0  0
 27 26  2  0  0  0  0
 28 27  1  0  0  0  0
 29 23  1  0  0  0  0
 31 38  1  0  0  0  0
 31 40  1  0  0  0  0
 32 31  2  0  0  0  0
 33 32  1  0  0  0  0
 33 35  2  0  0  0  0
 34 33  1  0  0  0  0
 35 37  1  0  0  0  0
 36 35  1  0  0  0  0
 37 38  2  0  0  0  0
 39 40  1  0  0  0  0
 40 42  2  0  0  0  0
 41 40  2  0  0  0  0
M  END
>  <minimizedAffinity>
-5.65177822

$$$$

 OpenBabel03272501283D

 42 45  0  0  1  0  0  0  0  0999 V2000
   37.4840   25.8320   34.0490 C   0  0  0  0  0  0  0  0  0  0  0  0
   37.8890   24.8930   33.1130 C   0  0  0  0  0  0  0  0  0  0  0  0
   38.3970   23.7980   33.8170 C   0  0  0  0  0  0  0  0  0  0  0  0
   38.2800   24.1100   35.1240 N   0  0  0  0  0  0  0  0  0  0  0  0
   37.7430   25.3060   35.2240 N   0  0  0  0  0  0  0  0  0  0  0  0
   37.8460   24.9450   32.0310 H   0  0  0  0  0  0  0  0  0  0  0  0
   38.8070   22.8730   33.4130 H   0  0  0  0  0  0  0  0  0  0  0  0
   40.0780   23.0890   36.3590 N   0  0  0  0  0  0  0  0  0  0  0  0
   40.2820   22.6600   37.7230 C   0  0  0  0  0  0  0  0  0  0  0  0
   39.0640   23.0790   38.5240 C   0  0  0  0  0  0  0  0  0  0  0  0
   38.3600   24.0340   37.5560 C   0  0  0  0  0  0  0  0  0  0  0  0
   38.6530   23.3300   36.2530 C   0  0  1  0  0  0  0  0  0  0  0  0
   40.6100   23.9300   36.0870 H   0  0  0  0  0  0  0  0  0  0  0  0
   41.1510   23.2530   38.1040 H   0  0  0  0  0  0  0  0  0  0  0  0
   40.4900   21.5800   37.8160 H   0  0  0  0  0  0  0  0  0  0  0  0
   39.3400   23.6330   39.4440 H   0  0  0  0  0  0  0  0  0  0  0  0
   38.4150   22.2090   38.7240 H   0  0  0  0  0  0  0  0  0  0  0  0
   38.7720   25.0430   37.6060 H   0  0  0  0  0  0  0  0  0  0  0  0
   37.2890   23.9750   37.7880 H   0  0  0  0  0  0  0  0  0  0  0  0
   37.9090   22.0890   36.2160 N   0  0  0  0  0  0  0  0  0  0  0  0
   37.2360   22.0160   37.0110 H   0  0  0  0  0  0  0  0  0  0  0  0
   37.4670   21.9040   35.2950 H   0  0  0  0  0  0  0  0  0  0  0  0
   36.6290   28.1320   34.5870 C   0  0  0  0  0  0  0  0  0  0  0  0
   36.9000   27.1110   33.6790 C   0  0  0  0  0  0  0  0  0  0  0  0
   36.5830   27.3500   32.3270 C   0  0  0  0  0  0  0  0  0  0  0  0
   36.0410   28.5450   31.9990 N   0  0  0  0  0  0  0  0  0  0  0  0
   35.7980   29.5070   32.9280 C   0  0  0  0  0  0  0  0  0  0  0  0
   36.0980   29.2910   34.2390 N   0  0  0  0  0  0  0  0  0  0  0  0
   36.8710   27.9560   35.6270 H   0  0  0  0  0  0  0  0  0  0  0  0
   36.7650   26.6040   31.5660 H   0  0  0  0  0  0  0  0  0  0  0  0
   33.8350   30.9530   32.6200 C   0  0  0  0  0  0  0  0  0  0  0  0
   35.2080   30.8050   32.5660 C   0  0  0  0  0  0  0  0  0  0  0  0
   36.0090   31.8710   32.1760 C   0  0  0  0  0  0  0  0  0  0  0  0
   37.1020   31.7430   32.1360 H   0  0  0  0  0  0  0  0  0  0  0  0
   35.4960   33.0960   31.8320 C   0  0  0  0  0  0  0  0  0  0  0  0
   36.1410   33.8990   31.5350 H   0  0  0  0  0  0  0  0  0  0  0  0
   34.1390   33.2930   31.8700 C   0  0  0  0  0  3  0  0  0  0  0  0
   33.3760   32.2260   32.2580 C   0  0  0  0  0  3  0  0  0  0  0  0
   32.9920   28.4920   32.4610 H   0  0  0  0  0  0  0  0  0  0  0  0
   32.7540   29.6840   33.0950 S   0  0  0  0  0  0  0  0  0  0  0  0
   32.7230   29.5860   34.5770 O   0  0  0  0  0  0  0  0  0  0  0  0
   31.3550   30.0910   32.6510 O   0  0  0  0  0  0  0  0  0  0  0  0
  1  5  2  0  0  0  0
  2  3  2  0  0  0  0
  2  1  1  0  0  0  0
  3  4  1  0  0  0  0
  4  5  1  0  0  0  0
  4 12  1  0  0  0  0
  6  2  1  0  0  0  0
  7  3  1  0  0  0  0
  8  9  1  0  0  0  0
  9 15  1  0  0  0  0
  9 14  1  0  0  0  0
  9 10  1  0  0  0  0
 10 17  1  0  0  0  0
 10 16  1  0  0  0  0
 11 18  1  0  0  0  0
 11 19  1  0  0  0  0
 11 10  1  0  0  0  0
 12 20  1  6  0  0  0
 12  8  1  0  0  0  0
 12 11  1  0  0  0  0
 13  8  1  0  0  0  0
 20 21  1  0  0  0  0
 22 20  1  0  0  0  0
 23 29  1  0  0  0  0
 24  1  1  0  0  0  0
 24 23  2  0  0  0  0
 25 24  1  0  0  0  0
 26 25  2  0  0  0  0
 26 27  1  0  0  0  0
 27 28  2  0  0  0  0
 28 23  1  0  0  0  0
 30 25  1  0  0  0  0
 31 40  1  0  0  0  0
 32 31  1  0  0  0  0
 32 27  1  0  0  0  0
 33 32  2  0  0  0  0
 34 33  1  0  0  0  0
 35 37  2  0  0  0  0
 35 33  1  0  0  0  0
 36 35  1  0  0  0  0
 37 38  1  0  0  0  0
 38 31  2  0  0  0  0
 39 40  1  0  0  0  0
 40 41  2  0  0  0  0
 42 40  2  0  0  0  0
M  END
>  <minimizedAffinity>
-5.51523399

$$$$
