
 OpenBabel03272506553D

 23 24  0  0  0  0  0  0  0  0999 V2000
   33.9650   28.8180   48.8370 C   0  0  0  0  0  0  0  0  0  0  0  0
   34.6620   28.9170   47.6640 C   0  0  0  0  0  0  0  0  0  0  0  0
   34.2490   28.2380   46.5270 C   0  0  0  0  0  0  0  0  0  0  0  0
   34.7770   28.2970   45.5900 H   0  0  0  0  0  0  0  0  0  0  0  0
   33.1170   27.4340   46.5330 C   0  0  0  0  0  0  0  0  0  0  0  0
   32.7400   26.8790   45.6890 H   0  0  0  0  0  0  0  0  0  0  0  0
   32.4370   27.3530   47.7300 C   0  0  0  0  0  3  0  0  0  0  0  0
   32.8230   28.0130   48.8660 C   0  0  0  0  0  3  0  0  0  0  0  0
   37.8670   30.5920   48.3710 C   0  0  0  0  0  0  0  0  0  0  0  0
   38.1200   31.3030   47.1980 C   0  0  0  0  0  0  0  0  0  0  0  0
   37.1670   31.1890   46.1740 C   0  0  0  0  0  0  0  0  0  0  0  0
   36.0800   30.4050   46.3940 N   0  0  0  0  0  0  0  0  0  0  0  0
   35.8750   29.7370   47.5360 C   0  0  0  0  0  0  0  0  0  0  0  0
   36.7720   29.8260   48.5400 N   0  0  0  0  0  0  0  0  0  0  0  0
   38.5490   30.6230   49.2090 H   0  0  0  0  0  0  0  0  0  0  0  0
   37.3490   31.7340   45.2610 H   0  0  0  0  0  0  0  0  0  0  0  0
   39.2960   32.1010   47.0710 N   0  0  0  0  0  0  0  0  0  0  0  0
   40.0790   31.8910   47.7040 H   0  0  0  0  0  0  0  0  0  0  0  0
   39.3070   32.8530   46.3460 H   0  0  0  0  0  0  0  0  0  0  0  0
   35.0410   30.9030   49.9610 H   0  0  0  0  0  0  0  0  0  0  0  0
   34.4920   29.6730   50.2580 S   0  0  0  0  0  0  0  0  0  0  0  0
   33.2700   29.9840   51.1050 O   0  0  0  0  0  0  0  0  0  0  0  0
   35.4120   28.8580   51.1160 O   0  0  0  0  0  0  0  0  0  0  0  0
  1  8  1  0  0  0  0
  1 21  1  0  0  0  0
  2  1  2  0  0  0  0
  3  5  2  0  0  0  0
  3  2  1  0  0  0  0
  4  3  1  0  0  0  0
  5  7  1  0  0  0  0
  6  5  1  0  0  0  0
  7  8  2  0  0  0  0
  9 14  1  0  0  0  0
  9 15  1  0  0  0  0
 10  9  2  0  0  0  0
 11 12  2  0  0  0  0
 11 10  1  0  0  0  0
 12 13  1  0  0  0  0
 13  2  1  0  0  0  0
 13 14  2  0  0  0  0
 16 11  1  0  0  0  0
 17 10  1  0  0  0  0
 17 18  1  0  0  0  0
 19 17  1  0  0  0  0
 20 21  1  0  0  0  0
 21 22  2  0  0  0  0
 21 23  2  0  0  0  0
M  END
>  <minimizedAffinity>
-3.49372482

>  <minimizedRMSD>
2.74420381

$$$$
