
 OpenBabel03272509573D

 49 52  0  0  0  0  0  0  0  0999 V2000
   33.5350   27.5240   47.7000 C   0  0  0  0  0  0  0  0  0  0  0  0
   33.7190   26.5860   48.2430 H   0  0  0  0  0  0  0  0  0  0  0  0
   33.8050   27.3130   46.6400 H   0  0  0  0  0  0  0  0  0  0  0  0
   32.0870   27.8880   47.7680 C   0  0  0  0  0  0  0  0  0  0  0  0
   31.3810   27.4740   48.8810 C   0  0  0  0  0  0  0  0  0  0  0  0
   30.0490   27.7660   49.0190 C   0  0  0  0  0  0  0  0  0  0  0  0
   29.4250   28.4520   48.0750 N   0  0  0  0  0  0  0  0  0  0  0  0
   30.1230   28.8620   46.9740 C   0  0  0  0  0  0  0  0  0  0  0  0
   31.4250   28.5800   46.8340 N   0  0  0  0  0  0  0  0  0  0  0  0
   31.8720   26.9180   49.6510 H   0  0  0  0  0  0  0  0  0  0  0  0
   29.4760   27.4460   49.8910 H   0  0  0  0  0  0  0  0  0  0  0  0
   29.3870   29.6350   45.9430 C   0  0  0  0  0  0  0  0  0  0  0  0
   28.8640   30.4710   46.4930 H   0  0  0  0  0  0  0  0  0  0  0  0
   30.1310   30.1910   45.3050 H   0  0  0  0  0  0  0  0  0  0  0  0
   28.7130   28.1830   44.0010 C   0  0  0  0  0  0  0  0  0  0  0  0
   28.4180   28.8500   45.1660 C   0  0  0  0  0  0  0  0  0  0  0  0
   27.1040   28.7710   45.6450 C   0  0  0  0  0  0  0  0  0  0  0  0
   26.8550   29.2900   46.5590 H   0  0  0  0  0  0  0  0  0  0  0  0
   26.1030   28.0640   45.0120 C   0  0  0  0  0  0  0  0  0  0  0  0
   25.0970   28.0370   45.4300 H   0  0  0  0  0  0  0  0  0  0  0  0
   26.3840   27.3910   43.8430 C   0  0  0  0  0  3  0  0  0  0  0  0
   27.6820   27.4730   43.3760 C   0  0  0  0  0  3  0  0  0  0  0  0
   31.2760   27.8850   44.2630 H   0  0  0  0  0  0  0  0  0  0  0  0
   30.3120   28.2270   43.3310 S   0  0  0  0  0  0  0  0  0  0  0  0
   30.6340   29.4650   42.5780 O   0  0  0  0  0  0  0  0  0  0  0  0
   30.3750   27.0970   42.3060 O   0  0  0  0  0  0  0  0  0  0  0  0
   34.4270   28.6470   48.1720 C   0  0  0  0  0  0  0  0  0  0  0  0
   35.2020   28.9130   47.4520 H   0  0  0  0  0  0  0  0  0  0  0  0
   33.7940   29.5470   48.3380 H   0  0  0  0  0  0  0  0  0  0  0  0
   34.9910   28.3440   49.4410 O   0  0  0  0  0  0  0  0  0  0  0  0
   37.3170   30.1670   51.5100 C   0  0  0  0  0  0  0  0  0  0  0  0
   38.0480   30.8580   50.5180 C   0  0  0  0  0  0  0  0  0  0  0  0
   37.6870   30.6480   49.1930 C   0  0  0  0  0  0  0  0  0  0  0  0
   36.6480   29.7830   48.9700 N   0  0  0  0  0  0  0  0  0  0  0  0
   35.9720   29.1410   49.9250 C   0  0  0  0  0  0  0  0  0  0  0  0
   36.3190   29.3430   51.2040 N   0  0  0  0  0  0  0  0  0  0  0  0
   37.6150   30.3470   52.5330 H   0  0  0  0  0  0  0  0  0  0  0  0
   38.8660   31.5380   50.7100 H   0  0  0  0  0  0  0  0  0  0  0  0
   38.9450   33.2580   49.0220 F   0  0  0  0  0  0  0  0  0  0  0  0
   38.9100   32.4760   47.9480 C   0  0  0  0  0  0  0  0  0  0  0  0
   38.3230   31.2700   48.0500 C   0  0  0  0  0  0  0  0  0  0  0  0
   38.3390   30.5220   46.8620 C   0  0  0  0  0  0  0  0  0  0  0  0
   38.9090   30.9990   45.7070 C   0  0  0  0  0  0  0  0  0  0  0  0
   39.4960   32.2310   45.6470 C   0  0  0  0  0  0  0  0  0  0  0  0
   39.4800   32.9510   46.7950 C   0  0  0  0  0  0  0  0  0  0  0  0
   37.8860   29.5270   46.8400 H   0  0  0  0  0  0  0  0  0  0  0  0
   38.8840   30.3610   44.8210 H   0  0  0  0  0  0  0  0  0  0  0  0
   39.9290   32.5520   44.7120 H   0  0  0  0  0  0  0  0  0  0  0  0
   39.9440   33.9500   46.7830 H   0  0  0  0  0  0  0  0  0  0  0  0
  1  4  1  0  0  0  0
  1 27  1  0  0  0  0
  1  2  1  0  0  0  0
  3  1  1  0  0  0  0
  4  5  1  0  0  0  0
  5  6  2  0  0  0  0
  5 10  1  0  0  0  0
  6 11  1  0  0  0  0
  7  6  1  0  0  0  0
  8  7  2  0  0  0  0
  9  8  1  0  0  0  0
  9  4  2  0  0  0  0
 12 13  1  0  0  0  0
 12  8  1  0  0  0  0
 14 12  1  0  0  0  0
 15 16  1  0  0  0  0
 16 17  2  0  0  0  0
 16 12  1  0  0  0  0
 17 18  1  0  0  0  0
 19 20  1  0  0  0  0
 19 17  1  0  0  0  0
 21 19  2  0  0  0  0
 22 21  1  0  0  0  0
 22 15  2  0  0  0  0
 24 15  1  0  0  0  0
 24 23  1  0  0  0  0
 25 24  2  0  0  0  0
 26 24  2  0  0  0  0
 27 29  1  0  0  0  0
 27 30  1  0  0  0  0
 28 27  1  0  0  0  0
 30 35  1  0  0  0  0
 31 37  1  0  0  0  0
 32 38  1  0  0  0  0
 32 31  2  0  0  0  0
 33 32  1  0  0  0  0
 34 33  2  0  0  0  0
 34 35  1  0  0  0  0
 35 36  2  0  0  0  0
 36 31  1  0  0  0  0
 40 41  1  0  0  0  0
 40 39  1  0  0  0  0
 41 33  1  0  0  0  0
 42 41  2  0  0  0  0
 43 42  1  0  0  0  0
 44 43  2  0  0  0  0
 44 45  1  0  0  0  0
 45 40  2  0  0  0  0
 46 42  1  0  0  0  0
 47 43  1  0  0  0  0
 48 44  1  0  0  0  0
 49 45  1  0  0  0  0
M  END
>  <minimizedAffinity>
-6.42642164

>  <minimizedRMSD>
1.17972004

$$$$
