
 OpenBabel03272506063D

 33 35  0  0  0  0  0  0  0  0999 V2000
   33.2440   27.6690   48.5600 C   0  0  0  0  0  0  0  0  0  0  0  0
   33.3060   26.5180   47.6880 C   0  0  0  0  0  0  0  0  0  0  0  0
   31.6050   25.9910   47.6870 S   0  0  0  0  0  0  0  0  0  0  0  0
   31.0540   27.3660   48.8390 C   0  0  0  0  0  0  0  0  0  0  0  0
   32.0700   27.9600   49.0480 N   0  0  0  0  0  0  0  0  0  0  0  0
   34.1590   26.1190   47.1950 H   0  0  0  0  0  0  0  0  0  0  0  0
   28.8200   28.2420   48.4500 C   0  0  0  0  0  0  0  0  0  0  0  0
   29.6660   27.5480   49.2920 C   0  0  0  0  0  0  0  0  0  0  0  0
   29.2640   27.0330   50.5080 C   0  0  0  0  0  0  0  0  0  0  0  0
   29.9490   26.4930   51.1480 H   0  0  0  0  0  0  0  0  0  0  0  0
   27.9730   27.1960   50.9410 C   0  0  0  0  0  0  0  0  0  0  0  0
   27.5650   26.8310   51.8730 H   0  0  0  0  0  0  0  0  0  0  0  0
   27.1130   27.8900   50.1070 C   0  0  0  0  0  3  0  0  0  0  0  0
   27.5350   28.3960   48.8940 C   0  0  0  0  0  3  0  0  0  0  0  0
   30.7760   29.0840   47.0020 H   0  0  0  0  0  0  0  0  0  0  0  0
   29.4270   28.8530   46.9290 S   0  0  0  0  0  0  0  0  0  0  0  0
   28.6510   30.0520   46.4970 O   0  0  0  0  0  0  0  0  0  0  0  0
   29.2070   27.8040   45.8550 O   0  0  0  0  0  0  0  0  0  0  0  0
   34.5230   28.4150   48.8170 C   0  0  0  0  0  0  0  0  0  0  0  0
   34.5210   28.8320   49.8450 H   0  0  0  0  0  0  0  0  0  0  0  0
   35.3570   27.6820   48.8000 H   0  0  0  0  0  0  0  0  0  0  0  0
   34.6850   29.5540   47.8560 C   0  0  0  0  0  0  0  0  0  0  0  0
   33.7760   30.2120   47.8450 H   0  0  0  0  0  0  0  0  0  0  0  0
   34.8540   29.2520   46.8200 H   0  0  0  0  0  0  0  0  0  0  0  0
   36.8290   31.7320   49.9710 C   0  0  0  0  0  0  0  0  0  0  0  0
   37.8340   32.1280   49.0830 C   0  0  0  0  0  0  0  0  0  0  0  0
   37.7620   31.6420   47.7730 C   0  0  0  0  0  0  0  0  0  0  0  0
   36.7400   30.8260   47.4350 N   0  0  0  0  0  0  0  0  0  0  0  0
   35.7910   30.4730   48.3340 C   0  0  0  0  0  0  0  0  0  0  0  0
   35.8220   30.9140   49.5900 N   0  0  0  0  0  0  0  0  0  0  0  0
   36.9030   32.1210   50.9830 H   0  0  0  0  0  0  0  0  0  0  0  0
   38.6320   32.7860   49.4130 H   0  0  0  0  0  0  0  0  0  0  0  0
   38.5310   31.9420   47.0900 H   0  0  0  0  0  0  0  0  0  0  0  0
  1 19  1  0  0  0  0
  1  5  1  0  0  0  0
  2  1  2  0  0  0  0
  3  2  1  0  0  0  0
  3  4  1  0  0  0  0
  4  5  2  0  0  0  0
  4  8  1  0  0  0  0
  6  2  1  0  0  0  0
  7 14  2  0  0  0  0
  7  8  1  0  0  0  0
  8  9  2  0  0  0  0
  9 11  1  0  0  0  0
  9 10  1  0  0  0  0
 11 12  1  0  0  0  0
 13 11  2  0  0  0  0
 14 13  1  0  0  0  0
 16 15  1  0  0  0  0
 16  7  1  0  0  0  0
 17 16  2  0  0  0  0
 18 16  2  0  0  0  0
 19 20  1  0  0  0  0
 21 19  1  0  0  0  0
 22 29  1  0  0  0  0
 22 19  1  0  0  0  0
 23 22  1  0  0  0  0
 24 22  1  0  0  0  0
 25 31  1  0  0  0  0
 26 32  1  0  0  0  0
 26 25  2  0  0  0  0
 27 26  1  0  0  0  0
 28 27  2  0  0  0  0
 28 29  1  0  0  0  0
 29 30  2  0  0  0  0
 30 25  1  0  0  0  0
 33 27  1  0  0  0  0
M  END
>  <minimizedAffinity>
-5.72281694

>  <minimizedRMSD>
2.28863931

$$$$
