
 OpenBabel03272504563D

 36 38  0  0  1  0  0  0  0  0999 V2000
   37.0150   31.5120   48.6940 C   0  0  1  0  0  0  0  0  0  0  0  0
   36.1690   30.9630   47.6550 C   0  0  0  0  0  0  0  0  0  0  0  0
   37.1540   30.1010   48.3360 C   0  0  2  0  0  0  0  0  0  0  0  0
   36.6510   31.6730   49.7650 H   0  0  0  0  0  0  0  0  0  0  0  0
   36.4390   31.2500   46.6100 H   0  0  0  0  0  0  0  0  0  0  0  0
   35.1780   31.2930   47.8470 H   0  0  0  0  0  0  0  0  0  0  0  0
   37.8390   29.6570   47.6350 H   0  0  0  0  0  0  0  0  0  0  0  0
   38.1560   32.4190   48.3390 C   0  0  0  0  0  0  0  0  0  0  0  0
   38.5160   33.3670   49.3260 C   0  0  0  0  0  0  0  0  0  0  0  0
   39.5720   34.1800   48.9720 C   0  0  0  0  0  0  0  0  0  0  0  0
   40.1840   34.0360   47.7550 N   0  0  0  0  0  0  0  0  0  0  0  0
   39.8010   33.1160   46.8520 C   0  0  0  0  0  0  0  0  0  0  0  0
   38.7560   32.2870   47.1590 N   0  0  0  0  0  0  0  0  0  0  0  0
   40.4270   32.9480   45.6120 N   0  0  0  0  0  0  0  0  0  0  0  0
   38.0260   33.4680   50.2800 H   0  0  0  0  0  0  0  0  0  0  0  0
   39.9220   34.9440   49.6730 H   0  0  0  0  0  0  0  0  0  0  0  0
   40.9100   33.8100   45.2300 H   0  0  0  0  0  0  0  0  0  0  0  0
   40.4010   32.0240   45.1240 H   0  0  0  0  0  0  0  0  0  0  0  0
   36.6530   29.1770   49.2520 O   0  0  0  0  0  0  0  0  0  0  0  0
   34.6110   27.7360   49.7960 O   0  0  0  0  0  0  0  0  0  0  0  0
   34.9760   29.0060   49.0390 P   0  0  1  0  0  0  0  0  0  0  0  0
   34.2150   30.2390   49.9040 O   0  0  0  0  0  0  0  0  0  0  0  0
   34.5490   31.1240   49.8510 H   0  0  0  0  0  0  0  0  0  0  0  0
   34.6410   28.9590   47.4430 O   0  0  0  0  0  0  0  0  0  0  0  0
   33.0750   27.8070   45.8660 C   0  0  0  0  0  0  0  0  0  0  0  0
   33.6720   28.8180   46.5700 C   0  0  0  0  0  0  0  0  0  0  0  0
   33.1330   30.0980   46.3290 C   0  0  0  0  0  0  0  0  0  0  0  0
   33.4040   31.0670   46.7410 H   0  0  0  0  0  0  0  0  0  0  0  0
   32.0700   30.3020   45.4350 C   0  0  0  0  0  0  0  0  0  0  0  0
   31.5900   31.2290   45.1820 H   0  0  0  0  0  0  0  0  0  0  0  0
   31.5540   29.1920   44.7840 C   0  0  0  0  0  3  0  0  0  0  0  0
   32.0360   27.9180   44.9760 C   0  0  0  0  0  3  0  0  0  0  0  0
   34.5260   26.1620   47.2700 H   0  0  0  0  0  0  0  0  0  0  0  0
   33.7520   26.2520   46.1780 S   0  0  0  0  0  0  0  0  0  0  0  0
   32.6440   25.2140   46.3740 O   0  0  0  0  0  0  0  0  0  0  0  0
   34.4520   25.8130   44.9020 O   0  0  0  0  0  0  0  0  0  0  0  0
  1  4  1  1  0  0  0
  2  6  1  0  0  0  0
  2  3  1  0  0  0  0
  2  1  1  0  0  0  0
  3  7  1  6  0  0  0
  3  1  1  0  0  0  0
  3 19  1  0  0  0  0
  5  2  1  0  0  0  0
  8  1  1  0  0  0  0
  8  9  1  0  0  0  0
  9 15  1  0  0  0  0
 10  9  2  0  0  0  0
 10 16  1  0  0  0  0
 11 10  1  0  0  0  0
 12 13  1  0  0  0  0
 12 11  2  0  0  0  0
 13  8  2  0  0  0  0
 14 12  1  0  0  0  0
 17 14  1  0  0  0  0
 18 14  1  0  0  0  0
 21 19  1  0  0  0  0
 21 20  2  1  0  0  0
 21 22  1  0  0  0  0
 23 22  1  0  0  0  0
 24 21  1  0  0  0  0
 25 34  1  0  0  0  0
 25 26  1  0  0  0  0
 26 24  1  0  0  0  0
 27 26  2  0  0  0  0
 27 28  1  0  0  0  0
 29 27  1  0  0  0  0
 30 29  1  0  0  0  0
 31 32  1  0  0  0  0
 31 29  2  0  0  0  0
 32 25  2  0  0  0  0
 34 35  2  0  0  0  0
 34 33  1  0  0  0  0
 36 34  2  0  0  0  0
M  END
>  <minimizedAffinity>
-4.5841012

>  <minimizedRMSD>
0.718216538

$$$$
