
 OpenBabel03262521203D

 32 33  0  0  0  0  0  0  0  0999 V2000
   36.8410   27.5160   33.7970 C   0  0  0  0  0  0  0  0  0  0  0  0
   37.0400   27.7580   32.4540 C   0  0  0  0  0  0  0  0  0  0  0  0
   36.5630   28.9420   31.9040 C   0  0  0  0  0  0  0  0  0  0  0  0
   35.9160   29.8030   32.7460 N   0  0  0  0  0  0  0  0  0  0  0  0
   35.7290   29.5540   34.0560 C   0  0  0  0  0  0  0  0  0  0  0  0
   36.1960   28.4250   34.5280 N   0  0  0  0  0  0  0  0  0  0  0  0
   37.5450   27.1050   31.7560 H   0  0  0  0  0  0  0  0  0  0  0  0
   36.6890   29.1860   30.8580 H   0  0  0  0  0  0  0  0  0  0  0  0
   33.6580   30.4970   35.0310 C   0  0  0  0  0  0  0  0  0  0  0  0
   35.0470   30.4540   34.9570 C   0  0  0  0  0  0  0  0  0  0  0  0
   35.7590   31.3150   35.7910 C   0  0  0  0  0  0  0  0  0  0  0  0
   36.8560   31.2740   35.7260 H   0  0  0  0  0  0  0  0  0  0  0  0
   35.1820   32.2000   36.6770 C   0  0  0  0  0  0  0  0  0  0  0  0
   35.7940   32.8300   37.2840 H   0  0  0  0  0  0  0  0  0  0  0  0
   33.8070   32.2610   36.7690 C   0  0  0  0  0  3  0  0  0  0  0  0
   33.1080   31.4080   35.9420 C   0  0  0  0  0  3  0  0  0  0  0  0
   33.3700   28.2890   33.8480 H   0  0  0  0  0  0  0  0  0  0  0  0
   32.6560   29.4710   34.0430 S   0  0  0  0  0  0  0  0  0  0  0  0
   31.3960   29.0340   34.7270 O   0  0  0  0  0  0  0  0  0  0  0  0
   32.4330   30.0090   32.6630 O   0  0  0  0  0  0  0  0  0  0  0  0
   37.3610   26.3070   34.2260 O   0  0  0  0  0  0  0  0  0  0  0  0
   38.5940   26.3160   34.8500 C   0  0  0  0  0  0  0  0  0  0  0  0
   39.2810   25.6430   34.2900 H   0  0  0  0  0  0  0  0  0  0  0  0
   39.0990   27.3160   34.8490 H   0  0  0  0  0  0  0  0  0  0  0  0
   38.1950   25.8760   36.0630 C   0  0  0  0  0  0  0  0  0  0  0  0
   37.1710   26.2060   36.3890 H   0  0  0  0  0  0  0  0  0  0  0  0
   38.8160   26.3730   36.8750 H   0  0  0  0  0  0  0  0  0  0  0  0
   38.2490   24.4090   36.3330 C   0  0  0  0  0  0  0  0  0  0  0  0
   39.3040   24.0880   36.0880 H   0  0  0  0  0  0  0  0  0  0  0  0
   37.5910   23.7940   35.6900 H   0  0  0  0  0  0  0  0  0  0  0  0
   37.9780   24.0000   38.0500 S   0  0  0  0  0  0  0  0  0  0  0  0
   37.7100   25.2070   38.7380 H   0  0  0  0  0  0  0  0  0  0  0  0
  1 21  1  0  0  0  0
  1  6  1  0  0  0  0
  2  1  2  0  0  0  0
  3  2  1  0  0  0  0
  3  4  2  0  0  0  0
  4  5  1  0  0  0  0
  5  6  2  0  0  0  0
  5 10  1  0  0  0  0
  7  2  1  0  0  0  0
  8  3  1  0  0  0  0
  9 16  1  0  0  0  0
 10  9  2  0  0  0  0
 10 11  1  0  0  0  0
 11 13  2  0  0  0  0
 12 11  1  0  0  0  0
 13 15  1  0  0  0  0
 13 14  1  0  0  0  0
 16 15  2  0  0  0  0
 17 18  1  0  0  0  0
 18 19  2  0  0  0  0
 18  9  1  0  0  0  0
 20 18  2  0  0  0  0
 21 22  1  0  0  0  0
 22 25  1  0  0  0  0
 23 22  1  0  0  0  0
 24 22  1  0  0  0  0
 25 28  1  0  0  0  0
 25 26  1  0  0  0  0
 25 27  1  0  0  0  0
 28 31  1  0  0  0  0
 29 28  1  0  0  0  0
 30 28  1  0  0  0  0
 31 32  1  0  0  0  0
M  END
>  <minimizedAffinity>
-4.70407248

$$$$

 OpenBabel03262521203D

 32 33  0  0  0  0  0  0  0  0999 V2000
   37.3090   25.9840   33.5840 C   0  0  0  0  0  0  0  0  0  0  0  0
   37.1040   27.2000   34.2020 C   0  0  0  0  0  0  0  0  0  0  0  0
   37.8190   27.5000   35.3550 C   0  0  0  0  0  0  0  0  0  0  0  0
   38.6950   26.5520   35.8080 N   0  0  0  0  0  0  0  0  0  0  0  0
   38.8850   25.3690   35.1950 C   0  0  0  0  0  0  0  0  0  0  0  0
   38.1880   25.1310   34.1120 N   0  0  0  0  0  0  0  0  0  0  0  0
   36.4240   27.9740   33.8750 H   0  0  0  0  0  0  0  0  0  0  0  0
   37.7010   28.4360   35.8820 H   0  0  0  0  0  0  0  0  0  0  0  0
   39.4030   23.3590   36.5460 C   0  0  0  0  0  0  0  0  0  0  0  0
   39.8050   24.3580   35.6630 C   0  0  0  0  0  0  0  0  0  0  0  0
   41.1350   24.3440   35.2450 C   0  0  0  0  0  0  0  0  0  0  0  0
   41.4430   25.1360   34.5470 H   0  0  0  0  0  0  0  0  0  0  0  0
   42.0700   23.4150   35.6440 C   0  0  0  0  0  0  0  0  0  0  0  0
   43.0740   23.4690   35.2810 H   0  0  0  0  0  0  0  0  0  0  0  0
   41.6960   22.4150   36.5190 C   0  0  0  0  0  3  0  0  0  0  0  0
   40.3810   22.4330   36.9300 C   0  0  0  0  0  3  0  0  0  0  0  0
   37.1570   24.4760   36.8110 H   0  0  0  0  0  0  0  0  0  0  0  0
   37.7690   23.2670   37.1420 S   0  0  0  0  0  0  0  0  0  0  0  0
   36.9400   22.2300   36.4450 O   0  0  0  0  0  0  0  0  0  0  0  0
   37.6840   23.1980   38.6350 O   0  0  0  0  0  0  0  0  0  0  0  0
   36.5410   25.8020   32.4470 O   0  0  0  0  0  0  0  0  0  0  0  0
   36.9590   24.8610   31.5250 C   0  0  0  0  0  0  0  0  0  0  0  0
   37.4250   25.3890   30.6640 H   0  0  0  0  0  0  0  0  0  0  0  0
   37.7520   24.1680   31.9070 H   0  0  0  0  0  0  0  0  0  0  0  0
   35.7600   24.2850   31.2870 C   0  0  0  0  0  0  0  0  0  0  0  0
   35.3490   24.4250   30.2510 H   0  0  0  0  0  0  0  0  0  0  0  0
   34.9520   24.8220   31.8800 H   0  0  0  0  0  0  0  0  0  0  0  0
   35.6040   22.8320   31.5890 C   0  0  0  0  0  0  0  0  0  0  0  0
   35.4770   22.3200   30.5910 H   0  0  0  0  0  0  0  0  0  0  0  0
   34.7020   22.5740   32.1760 H   0  0  0  0  0  0  0  0  0  0  0  0
   37.0500   22.1120   32.3500 S   0  0  0  0  0  0  0  0  0  0  0  0
   37.9940   23.1510   32.5380 H   0  0  0  0  0  0  0  0  0  0  0  0
  1  6  2  0  0  0  0
  1  2  1  0  0  0  0
  2  3  2  0  0  0  0
  3  4  1  0  0  0  0
  3  8  1  0  0  0  0
  5 10  1  0  0  0  0
  5  4  2  0  0  0  0
  6  5  1  0  0  0  0
  7  2  1  0  0  0  0
  9 16  1  0  0  0  0
  9 18  1  0  0  0  0
 10  9  2  0  0  0  0
 11 13  2  0  0  0  0
 11 10  1  0  0  0  0
 12 11  1  0  0  0  0
 13 15  1  0  0  0  0
 14 13  1  0  0  0  0
 15 16  2  0  0  0  0
 17 18  1  0  0  0  0
 18 20  2  0  0  0  0
 19 18  2  0  0  0  0
 21  1  1  0  0  0  0
 22 24  1  0  0  0  0
 22 21  1  0  0  0  0
 23 22  1  0  0  0  0
 25 22  1  0  0  0  0
 25 28  1  0  0  0  0
 25 27  1  0  0  0  0
 26 25  1  0  0  0  0
 28 30  1  0  0  0  0
 28 31  1  0  0  0  0
 29 28  1  0  0  0  0
 31 32  1  0  0  0  0
M  END
>  <minimizedAffinity>
-4.59739876

$$$$

 OpenBabel03262521203D

 32 33  0  0  0  0  0  0  0  0999 V2000
   36.6380   27.9860   33.1410 C   0  0  0  0  0  0  0  0  0  0  0  0
   36.8160   28.5140   31.8790 C   0  0  0  0  0  0  0  0  0  0  0  0
   36.3340   29.7880   31.6060 C   0  0  0  0  0  0  0  0  0  0  0  0
   35.7030   30.4460   32.6250 N   0  0  0  0  0  0  0  0  0  0  0  0
   35.5360   29.9190   33.8530 C   0  0  0  0  0  0  0  0  0  0  0  0
   36.0080   28.7150   34.0620 N   0  0  0  0  0  0  0  0  0  0  0  0
   37.3090   28.0270   31.0480 H   0  0  0  0  0  0  0  0  0  0  0  0
   36.4430   30.2520   30.6360 H   0  0  0  0  0  0  0  0  0  0  0  0
   33.4950   30.5050   35.1260 C   0  0  0  0  0  0  0  0  0  0  0  0
   34.8710   30.6020   34.9380 C   0  0  0  0  0  0  0  0  0  0  0  0
   35.5870   31.3850   35.8430 C   0  0  0  0  0  0  0  0  0  0  0  0
   36.6730   31.4550   35.6870 H   0  0  0  0  0  0  0  0  0  0  0  0
   35.0260   32.0650   36.9030 C   0  0  0  0  0  0  0  0  0  0  0  0
   35.6400   32.6470   37.5550 H   0  0  0  0  0  0  0  0  0  0  0  0
   33.6640   31.9840   37.1100 C   0  0  0  0  0  3  0  0  0  0  0  0
   32.9610   31.2090   36.2130 C   0  0  0  0  0  3  0  0  0  0  0  0
   33.3010   28.5450   33.5510 H   0  0  0  0  0  0  0  0  0  0  0  0
   32.4900   29.5570   34.0650 S   0  0  0  0  0  0  0  0  0  0  0  0
   31.3950   28.8260   34.7810 O   0  0  0  0  0  0  0  0  0  0  0  0
   32.0200   30.3130   32.8610 O   0  0  0  0  0  0  0  0  0  0  0  0
   37.1620   26.7130   33.2890 O   0  0  0  0  0  0  0  0  0  0  0  0
   37.5900   26.0510   32.1540 C   0  0  0  0  0  0  0  0  0  0  0  0
   37.1390   26.5450   31.2640 H   0  0  0  0  0  0  0  0  0  0  0  0
   38.6960   26.1000   31.9860 H   0  0  0  0  0  0  0  0  0  0  0  0
   37.1080   24.8260   32.4570 C   0  0  0  0  0  0  0  0  0  0  0  0
   36.6110   24.7320   33.4600 H   0  0  0  0  0  0  0  0  0  0  0  0
   37.9710   24.1020   32.6100 H   0  0  0  0  0  0  0  0  0  0  0  0
   36.1820   24.1730   31.4860 C   0  0  0  0  0  0  0  0  0  0  0  0
   35.6530   23.3590   32.0620 H   0  0  0  0  0  0  0  0  0  0  0  0
   36.6800   23.6660   30.6380 H   0  0  0  0  0  0  0  0  0  0  0  0
   34.9130   25.2720   30.8760 S   0  0  0  0  0  0  0  0  0  0  0  0
   35.1480   26.5480   31.4410 H   0  0  0  0  0  0  0  0  0  0  0  0
  1 21  1  0  0  0  0
  1  6  1  0  0  0  0
  2  1  2  0  0  0  0
  3  2  1  0  0  0  0
  3  4  2  0  0  0  0
  4  5  1  0  0  0  0
  5  6  2  0  0  0  0
  5 10  1  0  0  0  0
  7  2  1  0  0  0  0
  8  3  1  0  0  0  0
  9 16  1  0  0  0  0
 10  9  2  0  0  0  0
 10 11  1  0  0  0  0
 11 13  2  0  0  0  0
 12 11  1  0  0  0  0
 13 15  1  0  0  0  0
 13 14  1  0  0  0  0
 16 15  2  0  0  0  0
 17 18  1  0  0  0  0
 18 19  2  0  0  0  0
 18  9  1  0  0  0  0
 20 18  2  0  0  0  0
 22 25  1  0  0  0  0
 22 21  1  0  0  0  0
 23 22  1  0  0  0  0
 24 22  1  0  0  0  0
 25 27  1  0  0  0  0
 25 26  1  0  0  0  0
 28 29  1  0  0  0  0
 28 25  1  0  0  0  0
 30 28  1  0  0  0  0
 31 32  1  0  0  0  0
 31 28  1  0  0  0  0
M  END
>  <minimizedAffinity>
-4.52837563

$$$$

 OpenBabel03262521203D

 32 33  0  0  0  0  0  0  0  0999 V2000
   37.3030   26.2270   33.6310 C   0  0  0  0  0  0  0  0  0  0  0  0
   37.1320   27.4020   34.3330 C   0  0  0  0  0  0  0  0  0  0  0  0
   37.8590   27.6020   35.5010 C   0  0  0  0  0  0  0  0  0  0  0  0
   38.7110   26.6020   35.8820 N   0  0  0  0  0  0  0  0  0  0  0  0
   38.8690   25.4610   35.1860 C   0  0  0  0  0  0  0  0  0  0  0  0
   38.1610   25.3180   34.0930 N   0  0  0  0  0  0  0  0  0  0  0  0
   36.4700   28.2140   34.0660 H   0  0  0  0  0  0  0  0  0  0  0  0
   37.7660   28.5020   36.0930 H   0  0  0  0  0  0  0  0  0  0  0  0
   39.3480   23.3650   36.4130 C   0  0  0  0  0  0  0  0  0  0  0  0
   39.7640   24.3970   35.5770 C   0  0  0  0  0  0  0  0  0  0  0  0
   41.0840   24.3640   35.1270 C   0  0  0  0  0  0  0  0  0  0  0  0
   41.4030   25.1820   34.4670 H   0  0  0  0  0  0  0  0  0  0  0  0
   41.9960   23.3840   35.4540 C   0  0  0  0  0  0  0  0  0  0  0  0
   42.9930   23.4260   35.0710 H   0  0  0  0  0  0  0  0  0  0  0  0
   41.6080   22.3500   36.2810 C   0  0  0  0  0  3  0  0  0  0  0  0
   40.3030   22.3880   36.7230 C   0  0  0  0  0  3  0  0  0  0  0  0
   37.0830   24.4540   36.6140 H   0  0  0  0  0  0  0  0  0  0  0  0
   37.7250   23.2920   37.0410 S   0  0  0  0  0  0  0  0  0  0  0  0
   36.9090   22.1810   36.4510 O   0  0  0  0  0  0  0  0  0  0  0  0
   37.6630   23.3530   38.5360 O   0  0  0  0  0  0  0  0  0  0  0  0
   36.5260   26.1460   32.4880 O   0  0  0  0  0  0  0  0  0  0  0  0
   35.9420   27.3070   32.0170 C   0  0  0  0  0  0  0  0  0  0  0  0
   34.8470   27.2580   32.2100 H   0  0  0  0  0  0  0  0  0  0  0  0
   36.2890   28.2360   32.5360 H   0  0  0  0  0  0  0  0  0  0  0  0
   36.3190   27.1960   30.7250 C   0  0  0  0  0  0  0  0  0  0  0  0
   35.5270   26.8330   30.0150 H   0  0  0  0  0  0  0  0  0  0  0  0
   37.0670   26.3470   30.6140 H   0  0  0  0  0  0  0  0  0  0  0  0
   36.9360   28.3850   30.0660 C   0  0  0  0  0  0  0  0  0  0  0  0
   36.6090   28.3440   28.9860 H   0  0  0  0  0  0  0  0  0  0  0  0
   38.0420   28.3820   30.0450 H   0  0  0  0  0  0  0  0  0  0  0  0
   36.3440   29.9370   30.7200 S   0  0  0  0  0  0  0  0  0  0  0  0
   35.4510   29.6410   31.7770 H   0  0  0  0  0  0  0  0  0  0  0  0
  1  6  2  0  0  0  0
  1  2  1  0  0  0  0
  2  3  2  0  0  0  0
  3  4  1  0  0  0  0
  3  8  1  0  0  0  0
  5 10  1  0  0  0  0
  5  4  2  0  0  0  0
  6  5  1  0  0  0  0
  7  2  1  0  0  0  0
  9 16  1  0  0  0  0
  9 18  1  0  0  0  0
 10  9  2  0  0  0  0
 11 13  2  0  0  0  0
 11 10  1  0  0  0  0
 12 11  1  0  0  0  0
 13 15  1  0  0  0  0
 14 13  1  0  0  0  0
 15 16  2  0  0  0  0
 17 18  1  0  0  0  0
 18 20  2  0  0  0  0
 19 18  2  0  0  0  0
 21  1  1  0  0  0  0
 22 23  1  0  0  0  0
 22 21  1  0  0  0  0
 22 24  1  0  0  0  0
 25 22  1  0  0  0  0
 26 25  1  0  0  0  0
 27 25  1  0  0  0  0
 28 31  1  0  0  0  0
 28 25  1  0  0  0  0
 29 28  1  0  0  0  0
 30 28  1  0  0  0  0
 31 32  1  0  0  0  0
M  END
>  <minimizedAffinity>
-4.4575448

$$$$

 OpenBabel03262521203D

 32 33  0  0  0  0  0  0  0  0999 V2000
   37.5930   25.3780   32.7260 C   0  0  0  0  0  0  0  0  0  0  0  0
   38.3400   26.4850   32.3790 C   0  0  0  0  0  0  0  0  0  0  0  0
   39.2740   26.9780   33.2820 C   0  0  0  0  0  0  0  0  0  0  0  0
   39.3920   26.3220   34.4760 N   0  0  0  0  0  0  0  0  0  0  0  0
   38.6560   25.2430   34.8010 C   0  0  0  0  0  0  0  0  0  0  0  0
   37.7880   24.8150   33.9180 N   0  0  0  0  0  0  0  0  0  0  0  0
   38.2770   27.0290   31.4470 H   0  0  0  0  0  0  0  0  0  0  0  0
   39.8880   27.8420   33.0650 H   0  0  0  0  0  0  0  0  0  0  0  0
   39.7050   23.5290   36.2470 C   0  0  0  0  0  0  0  0  0  0  0  0
   38.7690   24.5410   36.0590 C   0  0  0  0  0  0  0  0  0  0  0  0
   37.9410   24.8550   37.1360 C   0  0  0  0  0  0  0  0  0  0  0  0
   37.2040   25.6560   36.9790 H   0  0  0  0  0  0  0  0  0  0  0  0
   37.9880   24.2330   38.3660 C   0  0  0  0  0  0  0  0  0  0  0  0
   37.3190   24.5280   39.1450 H   0  0  0  0  0  0  0  0  0  0  0  0
   38.9080   23.2270   38.5770 C   0  0  0  0  0  3  0  0  0  0  0  0
   39.7240   22.9200   37.5090 C   0  0  0  0  0  3  0  0  0  0  0  0
   40.7870   24.0700   34.0350 H   0  0  0  0  0  0  0  0  0  0  0  0
   40.7980   23.0450   34.9800 S   0  0  0  0  0  0  0  0  0  0  0  0
   42.2270   22.9670   35.4250 O   0  0  0  0  0  0  0  0  0  0  0  0
   40.3360   21.8340   34.2290 O   0  0  0  0  0  0  0  0  0  0  0  0
   36.6990   24.9820   31.7450 O   0  0  0  0  0  0  0  0  0  0  0  0
   36.8760   23.7370   31.1720 C   0  0  0  0  0  0  0  0  0  0  0  0
   37.1800   23.8750   30.1100 H   0  0  0  0  0  0  0  0  0  0  0  0
   37.6970   23.1330   31.6350 H   0  0  0  0  0  0  0  0  0  0  0  0
   35.6290   23.2590   31.3710 C   0  0  0  0  0  0  0  0  0  0  0  0
   34.9760   23.2010   30.4580 H   0  0  0  0  0  0  0  0  0  0  0  0
   35.0250   24.0050   31.9810 H   0  0  0  0  0  0  0  0  0  0  0  0
   35.4800   21.9410   32.0560 C   0  0  0  0  0  0  0  0  0  0  0  0
   35.1990   21.2030   31.2500 H   0  0  0  0  0  0  0  0  0  0  0  0
   34.6640   21.8950   32.8030 H   0  0  0  0  0  0  0  0  0  0  0  0
   37.0010   21.3500   32.7810 S   0  0  0  0  0  0  0  0  0  0  0  0
   37.9880   22.3430   32.5680 H   0  0  0  0  0  0  0  0  0  0  0  0
  1  6  1  0  0  0  0
  2  1  2  0  0  0  0
  2  3  1  0  0  0  0
  3  4  2  0  0  0  0
  4  5  1  0  0  0  0
  5 10  1  0  0  0  0
  6  5  2  0  0  0  0
  7  2  1  0  0  0  0
  8  3  1  0  0  0  0
  9 16  1  0  0  0  0
 10  9  2  0  0  0  0
 10 11  1  0  0  0  0
 11 13  2  0  0  0  0
 12 11  1  0  0  0  0
 13 15  1  0  0  0  0
 13 14  1  0  0  0  0
 16 15  2  0  0  0  0
 17 18  1  0  0  0  0
 18 19  2  0  0  0  0
 18  9  1  0  0  0  0
 20 18  2  0  0  0  0
 21  1  1  0  0  0  0
 22 25  1  0  0  0  0
 22 24  1  0  0  0  0
 22 21  1  0  0  0  0
 23 22  1  0  0  0  0
 25 27  1  0  0  0  0
 25 28  1  0  0  0  0
 26 25  1  0  0  0  0
 28 31  1  0  0  0  0
 28 30  1  0  0  0  0
 29 28  1  0  0  0  0
 32 31  1  0  0  0  0
M  END
>  <minimizedAffinity>
-4.43529129

$$$$

 OpenBabel03262521203D

 32 33  0  0  0  0  0  0  0  0999 V2000
   37.9280   24.4770   32.7920 C   0  0  0  0  0  0  0  0  0  0  0  0
   37.0200   23.5850   32.2610 C   0  0  0  0  0  0  0  0  0  0  0  0
   36.9900   22.2830   32.7470 C   0  0  0  0  0  0  0  0  0  0  0  0
   37.8800   21.9680   33.7360 N   0  0  0  0  0  0  0  0  0  0  0  0
   38.7610   22.8490   34.2450 C   0  0  0  0  0  0  0  0  0  0  0  0
   38.7520   24.0640   33.7550 N   0  0  0  0  0  0  0  0  0  0  0  0
   36.3020   23.7950   31.4810 H   0  0  0  0  0  0  0  0  0  0  0  0
   36.3010   21.5410   32.3690 H   0  0  0  0  0  0  0  0  0  0  0  0
   39.4190   22.7660   36.6310 C   0  0  0  0  0  0  0  0  0  0  0  0
   39.7070   22.5300   35.2890 C   0  0  0  0  0  0  0  0  0  0  0  0
   40.9480   21.9690   34.9900 C   0  0  0  0  0  0  0  0  0  0  0  0
   41.1670   21.7860   33.9290 H   0  0  0  0  0  0  0  0  0  0  0  0
   41.9020   21.6360   35.9280 C   0  0  0  0  0  0  0  0  0  0  0  0
   42.8320   21.2100   35.6230 H   0  0  0  0  0  0  0  0  0  0  0  0
   41.6400   21.8610   37.2640 C   0  0  0  0  0  3  0  0  0  0  0  0
   40.4120   22.4150   37.5550 C   0  0  0  0  0  3  0  0  0  0  0  0
   37.5750   24.4260   36.1820 H   0  0  0  0  0  0  0  0  0  0  0  0
   37.9040   23.4610   37.1340 S   0  0  0  0  0  0  0  0  0  0  0  0
   36.7610   22.4920   37.0880 O   0  0  0  0  0  0  0  0  0  0  0  0
   37.9970   24.2190   38.4220 O   0  0  0  0  0  0  0  0  0  0  0  0
   37.8600   25.7400   32.2280 O   0  0  0  0  0  0  0  0  0  0  0  0
   36.7640   26.5260   32.5280 C   0  0  0  0  0  0  0  0  0  0  0  0
   36.3220   26.8980   31.5770 H   0  0  0  0  0  0  0  0  0  0  0  0
   35.9330   25.9760   33.0400 H   0  0  0  0  0  0  0  0  0  0  0  0
   37.3950   27.4480   33.2870 C   0  0  0  0  0  0  0  0  0  0  0  0
   37.3220   28.5090   32.9260 H   0  0  0  0  0  0  0  0  0  0  0  0
   38.5200   27.3040   33.2080 H   0  0  0  0  0  0  0  0  0  0  0  0
   37.0810   27.4950   34.7450 C   0  0  0  0  0  0  0  0  0  0  0  0
   36.3480   26.6570   34.9310 H   0  0  0  0  0  0  0  0  0  0  0  0
   36.5710   28.4190   35.0800 H   0  0  0  0  0  0  0  0  0  0  0  0
   38.4990   27.1730   35.7820 S   0  0  0  0  0  0  0  0  0  0  0  0
   39.6180   27.0060   34.9310 H   0  0  0  0  0  0  0  0  0  0  0  0
  1  6  1  0  0  0  0
  2  3  1  0  0  0  0
  2  1  2  0  0  0  0
  3  4  2  0  0  0  0
  4  5  1  0  0  0  0
  5 10  1  0  0  0  0
  6  5  2  0  0  0  0
  7  2  1  0  0  0  0
  8  3  1  0  0  0  0
  9 18  1  0  0  0  0
  9 16  1  0  0  0  0
 10  9  2  0  0  0  0
 11 10  1  0  0  0  0
 11 13  2  0  0  0  0
 12 11  1  0  0  0  0
 13 15  1  0  0  0  0
 14 13  1  0  0  0  0
 15 16  2  0  0  0  0
 17 18  1  0  0  0  0
 18 20  2  0  0  0  0
 19 18  2  0  0  0  0
 21 22  1  0  0  0  0
 21  1  1  0  0  0  0
 22 24  1  0  0  0  0
 22 25  1  0  0  0  0
 23 22  1  0  0  0  0
 25 28  1  0  0  0  0
 26 25  1  0  0  0  0
 27 25  1  0  0  0  0
 28 29  1  0  0  0  0
 28 30  1  0  0  0  0
 28 31  1  0  0  0  0
 32 31  1  0  0  0  0
M  END
>  <minimizedAffinity>
-4.40516281

$$$$

 OpenBabel03262521203D

 32 33  0  0  0  0  0  0  0  0999 V2000
   38.4990   25.8470   35.6980 C   0  0  0  0  0  0  0  0  0  0  0  0
   39.6360   26.5800   35.4290 C   0  0  0  0  0  0  0  0  0  0  0  0
   39.8640   27.0200   34.1310 C   0  0  0  0  0  0  0  0  0  0  0  0
   38.9290   26.6920   33.1890 N   0  0  0  0  0  0  0  0  0  0  0  0
   37.8230   25.9760   33.4660 C   0  0  0  0  0  0  0  0  0  0  0  0
   37.6510   25.5830   34.7030 N   0  0  0  0  0  0  0  0  0  0  0  0
   40.3970   26.8600   36.1440 H   0  0  0  0  0  0  0  0  0  0  0  0
   40.7380   27.5970   33.8610 H   0  0  0  0  0  0  0  0  0  0  0  0
   35.9880   26.5770   31.9150 C   0  0  0  0  0  0  0  0  0  0  0  0
   36.8270   25.6210   32.4810 C   0  0  0  0  0  0  0  0  0  0  0  0
   36.6690   24.3010   32.0590 C   0  0  0  0  0  0  0  0  0  0  0  0
   37.3360   23.5530   32.5110 H   0  0  0  0  0  0  0  0  0  0  0  0
   35.7460   23.8840   31.1250 C   0  0  0  0  0  0  0  0  0  0  0  0
   35.6830   22.8540   30.8510 H   0  0  0  0  0  0  0  0  0  0  0  0
   34.9030   24.8130   30.5490 C   0  0  0  0  0  3  0  0  0  0  0  0
   35.0620   26.1160   30.9700 C   0  0  0  0  0  3  0  0  0  0  0  0
   36.6670   28.3010   33.6250 H   0  0  0  0  0  0  0  0  0  0  0  0
   36.0860   28.2590   32.3580 S   0  0  0  0  0  0  0  0  0  0  0  0
   37.0230   29.0470   31.4930 O   0  0  0  0  0  0  0  0  0  0  0  0
   34.7460   28.9050   32.5350 O   0  0  0  0  0  0  0  0  0  0  0  0
   38.3830   25.4670   37.0240 O   0  0  0  0  0  0  0  0  0  0  0  0
   37.7070   24.2950   37.3060 C   0  0  0  0  0  0  0  0  0  0  0  0
   36.9300   24.5090   38.0730 H   0  0  0  0  0  0  0  0  0  0  0  0
   37.1470   23.8690   36.4340 H   0  0  0  0  0  0  0  0  0  0  0  0
   38.7630   23.5640   37.7230 C   0  0  0  0  0  0  0  0  0  0  0  0
   38.6190   23.0050   38.6880 H   0  0  0  0  0  0  0  0  0  0  0  0
   39.6090   24.2550   38.0360 H   0  0  0  0  0  0  0  0  0  0  0  0
   39.3570   22.5780   36.7730 C   0  0  0  0  0  0  0  0  0  0  0  0
   39.5160   23.1380   35.8050 H   0  0  0  0  0  0  0  0  0  0  0  0
   38.7010   21.7230   36.5200 H   0  0  0  0  0  0  0  0  0  0  0  0
   40.9600   21.9840   37.2870 S   0  0  0  0  0  0  0  0  0  0  0  0
   41.2490   22.5710   38.5410 H   0  0  0  0  0  0  0  0  0  0  0  0
  1 21  1  0  0  0  0
  2  1  1  0  0  0  0
  2  7  1  0  0  0  0
  3  2  2  0  0  0  0
  4  5  2  0  0  0  0
  4  3  1  0  0  0  0
  5  6  1  0  0  0  0
  6  1  2  0  0  0  0
  8  3  1  0  0  0  0
  9 18  1  0  0  0  0
  9 10  1  0  0  0  0
 10  5  1  0  0  0  0
 11 10  2  0  0  0  0
 11 12  1  0  0  0  0
 13 11  1  0  0  0  0
 14 13  1  0  0  0  0
 15 16  1  0  0  0  0
 15 13  2  0  0  0  0
 16  9  2  0  0  0  0
 18 20  2  0  0  0  0
 18 17  1  0  0  0  0
 19 18  2  0  0  0  0
 21 22  1  0  0  0  0
 22 25  1  0  0  0  0
 22 23  1  0  0  0  0
 24 22  1  0  0  0  0
 25 27  1  0  0  0  0
 25 26  1  0  0  0  0
 28 31  1  0  0  0  0
 28 25  1  0  0  0  0
 29 28  1  0  0  0  0
 30 28  1  0  0  0  0
 31 32  1  0  0  0  0
M  END
>  <minimizedAffinity>
-4.39049053

$$$$

 OpenBabel03262521203D

 32 33  0  0  0  0  0  0  0  0999 V2000
   35.8650   23.8020   31.5100 C   0  0  0  0  0  0  0  0  0  0  0  0
   35.0680   24.6130   30.7310 C   0  0  0  0  0  0  0  0  0  0  0  0
   35.1530   25.9920   30.8850 C   0  0  0  0  0  0  0  0  0  0  0  0
   36.0380   26.4600   31.8160 N   0  0  0  0  0  0  0  0  0  0  0  0
   36.8100   25.6560   32.5710 C   0  0  0  0  0  0  0  0  0  0  0  0
   36.6940   24.3640   32.3900 N   0  0  0  0  0  0  0  0  0  0  0  0
   34.3580   24.2830   29.9850 H   0  0  0  0  0  0  0  0  0  0  0  0
   34.5530   26.6770   30.3020 H   0  0  0  0  0  0  0  0  0  0  0  0
   39.0490   26.4940   33.2160 C   0  0  0  0  0  0  0  0  0  0  0  0
   37.7480   26.1370   33.5590 C   0  0  0  0  0  0  0  0  0  0  0  0
   37.3820   26.2620   34.8990 C   0  0  0  0  0  0  0  0  0  0  0  0
   36.3530   25.9780   35.1600 H   0  0  0  0  0  0  0  0  0  0  0  0
   38.2170   26.7130   35.8980 C   0  0  0  0  0  0  0  0  0  0  0  0
   37.8650   26.7810   36.9050 H   0  0  0  0  0  0  0  0  0  0  0  0
   39.5110   27.0740   35.5840 C   0  0  0  0  0  3  0  0  0  0  0  0
   39.8680   26.9480   34.2580 C   0  0  0  0  0  3  0  0  0  0  0  0
   38.9710   25.2990   30.9970 H   0  0  0  0  0  0  0  0  0  0  0  0
   39.6270   26.3840   31.5770 S   0  0  0  0  0  0  0  0  0  0  0  0
   39.2310   27.5540   30.7270 O   0  0  0  0  0  0  0  0  0  0  0  0
   41.0820   26.0400   31.4820 O   0  0  0  0  0  0  0  0  0  0  0  0
   35.6900   22.4500   31.2650 O   0  0  0  0  0  0  0  0  0  0  0  0
   35.8800   21.5710   32.3150 C   0  0  0  0  0  0  0  0  0  0  0  0
   36.8650   21.0710   32.1850 H   0  0  0  0  0  0  0  0  0  0  0  0
   35.9320   22.0630   33.3200 H   0  0  0  0  0  0  0  0  0  0  0  0
   34.7920   20.7970   32.1110 C   0  0  0  0  0  0  0  0  0  0  0  0
   34.1940   21.0290   31.1890 H   0  0  0  0  0  0  0  0  0  0  0  0
   34.0070   21.0220   32.9010 H   0  0  0  0  0  0  0  0  0  0  0  0
   34.9730   19.3150   32.1110 C   0  0  0  0  0  0  0  0  0  0  0  0
   34.1970   18.9090   31.3980 H   0  0  0  0  0  0  0  0  0  0  0  0
   34.7740   18.8230   33.0820 H   0  0  0  0  0  0  0  0  0  0  0  0
   36.5630   18.8000   31.4820 S   0  0  0  0  0  0  0  0  0  0  0  0
   37.3020   19.9700   31.1860 H   0  0  0  0  0  0  0  0  0  0  0  0
  1  6  1  0  0  0  0
  2  3  1  0  0  0  0
  2  1  2  0  0  0  0
  3  4  2  0  0  0  0
  4  5  1  0  0  0  0
  5 10  1  0  0  0  0
  6  5  2  0  0  0  0
  7  2  1  0  0  0  0
  8  3  1  0  0  0  0
  9 10  2  0  0  0  0
  9 16  1  0  0  0  0
 10 11  1  0  0  0  0
 11 12  1  0  0  0  0
 11 13  2  0  0  0  0
 13 14  1  0  0  0  0
 15 13  1  0  0  0  0
 16 15  2  0  0  0  0
 17 18  1  0  0  0  0
 18  9  1  0  0  0  0
 19 18  2  0  0  0  0
 20 18  2  0  0  0  0
 21  1  1  0  0  0  0
 21 22  1  0  0  0  0
 22 24  1  0  0  0  0
 23 22  1  0  0  0  0
 25 22  1  0  0  0  0
 25 27  1  0  0  0  0
 26 25  1  0  0  0  0
 28 25  1  0  0  0  0
 28 30  1  0  0  0  0
 29 28  1  0  0  0  0
 31 28  1  0  0  0  0
 32 31  1  0  0  0  0
M  END
>  <minimizedAffinity>
-4.3889184

$$$$

 OpenBabel03262521203D

 32 33  0  0  0  0  0  0  0  0999 V2000
   36.6410   23.9050   31.2110 C   0  0  0  0  0  0  0  0  0  0  0  0
   37.8080   23.9030   30.4760 C   0  0  0  0  0  0  0  0  0  0  0  0
   38.5860   25.0530   30.4410 C   0  0  0  0  0  0  0  0  0  0  0  0
   38.1350   26.1320   31.1510 N   0  0  0  0  0  0  0  0  0  0  0  0
   36.9930   26.1200   31.8640 C   0  0  0  0  0  0  0  0  0  0  0  0
   36.2930   25.0140   31.8660 N   0  0  0  0  0  0  0  0  0  0  0  0
   38.1990   23.0730   29.9040 H   0  0  0  0  0  0  0  0  0  0  0  0
   39.5100   25.1100   29.8830 H   0  0  0  0  0  0  0  0  0  0  0  0
   36.9380   27.5080   33.9150 C   0  0  0  0  0  0  0  0  0  0  0  0
   36.5040   27.2520   32.6170 C   0  0  0  0  0  0  0  0  0  0  0  0
   35.5740   28.1350   32.0680 C   0  0  0  0  0  0  0  0  0  0  0  0
   35.2370   27.9260   31.0430 H   0  0  0  0  0  0  0  0  0  0  0  0
   35.0610   29.2350   32.7210 C   0  0  0  0  0  0  0  0  0  0  0  0
   34.3500   29.8670   32.2350 H   0  0  0  0  0  0  0  0  0  0  0  0
   35.4770   29.5100   34.0080 C   0  0  0  0  0  3  0  0  0  0  0  0
   36.3950   28.6340   34.5460 C   0  0  0  0  0  3  0  0  0  0  0  0
   38.6980   25.7130   33.7130 H   0  0  0  0  0  0  0  0  0  0  0  0
   38.0970   26.4800   34.7110 S   0  0  0  0  0  0  0  0  0  0  0  0
   39.2330   27.2360   35.3320 O   0  0  0  0  0  0  0  0  0  0  0  0
   37.4700   25.4780   35.6300 O   0  0  0  0  0  0  0  0  0  0  0  0
   35.9550   22.7040   31.1680 O   0  0  0  0  0  0  0  0  0  0  0  0
   36.2840   21.7360   32.0990 C   0  0  0  0  0  0  0  0  0  0  0  0
   37.0100   21.0310   31.6370 H   0  0  0  0  0  0  0  0  0  0  0  0
   36.8020   22.1350   33.0090 H   0  0  0  0  0  0  0  0  0  0  0  0
   35.0420   21.2500   32.3120 C   0  0  0  0  0  0  0  0  0  0  0  0
   34.2070   21.8050   31.8040 H   0  0  0  0  0  0  0  0  0  0  0  0
   34.7430   21.4210   33.3960 H   0  0  0  0  0  0  0  0  0  0  0  0
   34.7930   19.8050   32.0330 C   0  0  0  0  0  0  0  0  0  0  0  0
   33.9830   19.7770   31.2460 H   0  0  0  0  0  0  0  0  0  0  0  0
   34.3990   19.2270   32.8910 H   0  0  0  0  0  0  0  0  0  0  0  0
   36.2090   18.9690   31.3370 S   0  0  0  0  0  0  0  0  0  0  0  0
   37.2690   19.9060   31.2780 H   0  0  0  0  0  0  0  0  0  0  0  0
  1  6  1  0  0  0  0
  2  1  2  0  0  0  0
  3  2  1  0  0  0  0
  3  4  2  0  0  0  0
  4  5  1  0  0  0  0
  5  6  2  0  0  0  0
  5 10  1  0  0  0  0
  7  2  1  0  0  0  0
  8  3  1  0  0  0  0
  9 16  1  0  0  0  0
  9 18  1  0  0  0  0
 10  9  2  0  0  0  0
 11 10  1  0  0  0  0
 11 13  2  0  0  0  0
 12 11  1  0  0  0  0
 13 15  1  0  0  0  0
 14 13  1  0  0  0  0
 15 16  2  0  0  0  0
 17 18  1  0  0  0  0
 18 19  2  0  0  0  0
 18 20  2  0  0  0  0
 21  1  1  0  0  0  0
 21 22  1  0  0  0  0
 22 25  1  0  0  0  0
 22 24  1  0  0  0  0
 23 22  1  0  0  0  0
 25 27  1  0  0  0  0
 26 25  1  0  0  0  0
 28 25  1  0  0  0  0
 28 30  1  0  0  0  0
 29 28  1  0  0  0  0
 31 28  1  0  0  0  0
 32 31  1  0  0  0  0
M  END
>  <minimizedAffinity>
-4.38566589

$$$$
