
 OpenBabel03272502253D

 33 35  0  0  0  0  0  0  0  0999 V2000
   37.1070   29.6430   50.0250 C   0  0  0  0  0  0  0  0  0  0  0  0
   37.7010   30.3640   48.9620 C   0  0  0  0  0  0  0  0  0  0  0  0
   37.0240   30.3970   47.7440 C   0  0  0  0  0  0  0  0  0  0  0  0
   35.8590   29.7420   47.6730 N   0  0  0  0  0  0  0  0  0  0  0  0
   35.3110   29.0620   48.6980 C   0  0  0  0  0  0  0  0  0  0  0  0
   35.9460   29.0190   49.8750 N   0  0  0  0  0  0  0  0  0  0  0  0
   37.6760   29.6500   50.9530 H   0  0  0  0  0  0  0  0  0  0  0  0
   38.6510   30.8830   49.0600 H   0  0  0  0  0  0  0  0  0  0  0  0
   37.5380   31.1110   46.5930 C   0  0  0  0  0  0  0  0  0  0  0  0
   36.8830   31.0180   45.3660 C   0  0  0  0  0  0  0  0  0  0  0  0
   37.3280   31.6820   44.2380 C   0  0  0  0  0  0  0  0  0  0  0  0
   38.4430   32.4500   44.3210 N   0  0  0  0  0  0  0  0  0  0  0  0
   39.0530   32.5200   45.5120 C   0  0  0  0  0  0  0  0  0  0  0  0
   38.6370   31.8840   46.6200 N   0  0  0  0  0  0  0  0  0  0  0  0
   35.9990   30.3960   45.3420 H   0  0  0  0  0  0  0  0  0  0  0  0
   36.7780   31.5740   43.3110 H   0  0  0  0  0  0  0  0  0  0  0  0
   40.2770   33.3570   45.6330 C   0  0  0  0  0  0  0  0  0  0  0  0
   40.2840   33.9250   46.9160 F   0  0  0  0  0  0  0  0  0  0  0  0
   41.4100   32.6110   45.4250 F   0  0  0  0  0  0  0  0  0  0  0  0
   40.2620   34.4240   44.7650 F   0  0  0  0  0  0  0  0  0  0  0  0
   34.1030   28.4520   48.4210 O   0  0  0  0  0  0  0  0  0  0  0  0
   32.0000   28.2830   47.4540 C   0  0  0  0  0  0  0  0  0  0  0  0
   33.1890   28.9740   47.5200 C   0  0  0  0  0  0  0  0  0  0  0  0
   33.4320   30.0740   46.7600 C   0  0  0  0  0  0  0  0  0  0  0  0
   34.3720   30.5660   46.8560 H   0  0  0  0  0  0  0  0  0  0  0  0
   32.4770   30.5400   45.8840 C   0  0  0  0  0  0  0  0  0  0  0  0
   32.6710   31.4210   45.2770 H   0  0  0  0  0  0  0  0  0  0  0  0
   31.2630   29.8910   45.7710 C   0  0  0  0  0  3  0  0  0  0  0  0
   31.0470   28.7780   46.5550 C   0  0  0  0  0  3  0  0  0  0  0  0
   32.1560   26.6950   49.5100 H   0  0  0  0  0  0  0  0  0  0  0  0
   31.4940   26.8750   48.3380 S   0  0  0  0  0  0  0  0  0  0  0  0
   29.9870   26.7920   48.4890 O   0  0  0  0  0  0  0  0  0  0  0  0
   31.8370   25.6470   47.4990 O   0  0  0  0  0  0  0  0  0  0  0  0
  1  7  1  0  0  0  0
  2  8  1  0  0  0  0
  2  1  2  0  0  0  0
  3  2  1  0  0  0  0
  4  3  2  0  0  0  0
  4  5  1  0  0  0  0
  5  6  2  0  0  0  0
  6  1  1  0  0  0  0
  9 14  1  0  0  0  0
  9  3  1  0  0  0  0
 10  9  2  0  0  0  0
 11 12  2  0  0  0  0
 11 10  1  0  0  0  0
 12 13  1  0  0  0  0
 13 17  1  0  0  0  0
 13 14  2  0  0  0  0
 15 10  1  0  0  0  0
 16 11  1  0  0  0  0
 17 18  1  0  0  0  0
 19 17  1  0  0  0  0
 20 17  1  0  0  0  0
 21  5  1  0  0  0  0
 22 23  1  0  0  0  0
 22 31  1  0  0  0  0
 23 21  1  0  0  0  0
 24 25  1  0  0  0  0
 24 23  2  0  0  0  0
 26 24  1  0  0  0  0
 27 26  1  0  0  0  0
 28 26  2  0  0  0  0
 28 29  1  0  0  0  0
 29 22  2  0  0  0  0
 31 32  2  0  0  0  0
 31 30  1  0  0  0  0
 33 31  2  0  0  0  0
M  END
>  <minimizedAffinity>
-6.04428005

>  <minimizedRMSD>
1.9726069

$$$$
