
 OpenBabel03272509573D

 49 52  0  0  0  0  0  0  0  0999 V2000
   33.5360   27.5290   47.6590 C   0  0  0  0  0  0  0  0  0  0  0  0
   33.7380   26.5840   48.1830 H   0  0  0  0  0  0  0  0  0  0  0  0
   33.8000   27.3400   46.5930 H   0  0  0  0  0  0  0  0  0  0  0  0
   32.0830   27.8700   47.7450 C   0  0  0  0  0  0  0  0  0  0  0  0
   31.3780   27.3700   48.8220 C   0  0  0  0  0  0  0  0  0  0  0  0
   30.0420   27.6360   48.9740 C   0  0  0  0  0  0  0  0  0  0  0  0
   29.4140   28.3810   48.0780 N   0  0  0  0  0  0  0  0  0  0  0  0
   30.1120   28.8760   47.0120 C   0  0  0  0  0  0  0  0  0  0  0  0
   31.4180   28.6200   46.8590 N   0  0  0  0  0  0  0  0  0  0  0  0
   31.8720   26.7660   49.5540 H   0  0  0  0  0  0  0  0  0  0  0  0
   29.4700   27.2490   49.8190 H   0  0  0  0  0  0  0  0  0  0  0  0
   29.3710   29.7120   46.0350 C   0  0  0  0  0  0  0  0  0  0  0  0
   28.3080   29.3290   46.0390 H   0  0  0  0  0  0  0  0  0  0  0  0
   29.2590   30.7500   46.4560 H   0  0  0  0  0  0  0  0  0  0  0  0
   29.5610   28.7710   43.7090 C   0  0  0  0  0  0  0  0  0  0  0  0
   29.9170   29.6860   44.6710 C   0  0  0  0  0  0  0  0  0  0  0  0
   30.8620   30.6610   44.3240 C   0  0  0  0  0  0  0  0  0  0  0  0
   31.1520   31.3870   45.0680 H   0  0  0  0  0  0  0  0  0  0  0  0
   31.4440   30.7460   43.0760 C   0  0  0  0  0  0  0  0  0  0  0  0
   32.1740   31.5260   42.8610 H   0  0  0  0  0  0  0  0  0  0  0  0
   31.0980   29.8370   42.1020 C   0  0  0  0  0  3  0  0  0  0  0  0
   30.1660   28.8770   42.4510 C   0  0  0  0  0  3  0  0  0  0  0  0
   27.2350   28.0370   44.5880 H   0  0  0  0  0  0  0  0  0  0  0  0
   28.4030   27.5260   44.0490 S   0  0  0  0  0  0  0  0  0  0  0  0
   28.9430   26.3670   44.8020 O   0  0  0  0  0  0  0  0  0  0  0  0
   27.9670   26.9680   42.6950 O   0  0  0  0  0  0  0  0  0  0  0  0
   34.4160   28.6560   48.1420 C   0  0  0  0  0  0  0  0  0  0  0  0
   35.1950   28.9300   47.4300 H   0  0  0  0  0  0  0  0  0  0  0  0
   33.7750   29.5510   48.3060 H   0  0  0  0  0  0  0  0  0  0  0  0
   34.9710   28.3530   49.4150 O   0  0  0  0  0  0  0  0  0  0  0  0
   37.3070   30.1560   51.4890 C   0  0  0  0  0  0  0  0  0  0  0  0
   38.0410   30.8470   50.5000 C   0  0  0  0  0  0  0  0  0  0  0  0
   37.6790   30.6440   49.1750 C   0  0  0  0  0  0  0  0  0  0  0  0
   36.6350   29.7850   48.9490 N   0  0  0  0  0  0  0  0  0  0  0  0
   35.9560   29.1420   49.9010 C   0  0  0  0  0  0  0  0  0  0  0  0
   36.3050   29.3380   51.1810 N   0  0  0  0  0  0  0  0  0  0  0  0
   37.6060   30.3310   52.5140 H   0  0  0  0  0  0  0  0  0  0  0  0
   38.8620   31.5230   50.6950 H   0  0  0  0  0  0  0  0  0  0  0  0
   38.9580   33.2440   49.0150 F   0  0  0  0  0  0  0  0  0  0  0  0
   38.9140   32.4680   47.9370 C   0  0  0  0  0  0  0  0  0  0  0  0
   38.3170   31.2660   48.0330 C   0  0  0  0  0  0  0  0  0  0  0  0
   38.3240   30.5250   46.8410 C   0  0  0  0  0  0  0  0  0  0  0  0
   38.8960   31.0030   45.6880 C   0  0  0  0  0  0  0  0  0  0  0  0
   39.4940   32.2310   45.6330 C   0  0  0  0  0  0  0  0  0  0  0  0
   39.4850   32.9450   46.7850 C   0  0  0  0  0  0  0  0  0  0  0  0
   37.8630   29.5340   46.8150 H   0  0  0  0  0  0  0  0  0  0  0  0
   38.8630   30.3710   44.7990 H   0  0  0  0  0  0  0  0  0  0  0  0
   39.9270   32.5540   44.6990 H   0  0  0  0  0  0  0  0  0  0  0  0
   39.9580   33.9390   46.7770 H   0  0  0  0  0  0  0  0  0  0  0  0
  1  4  1  0  0  0  0
  1 27  1  0  0  0  0
  1  2  1  0  0  0  0
  3  1  1  0  0  0  0
  4  5  1  0  0  0  0
  5  6  2  0  0  0  0
  5 10  1  0  0  0  0
  6 11  1  0  0  0  0
  7  6  1  0  0  0  0
  8  7  2  0  0  0  0
  9  8  1  0  0  0  0
  9  4  2  0  0  0  0
 12 13  1  0  0  0  0
 12 14  1  0  0  0  0
 12  8  1  0  0  0  0
 15 24  1  0  0  0  0
 15 16  1  0  0  0  0
 16 12  1  0  0  0  0
 17 16  2  0  0  0  0
 17 18  1  0  0  0  0
 19 17  1  0  0  0  0
 20 19  1  0  0  0  0
 21 22  1  0  0  0  0
 21 19  2  0  0  0  0
 22 15  2  0  0  0  0
 24 23  1  0  0  0  0
 24 25  2  0  0  0  0
 26 24  2  0  0  0  0
 27 29  1  0  0  0  0
 27 30  1  0  0  0  0
 28 27  1  0  0  0  0
 30 35  1  0  0  0  0
 31 37  1  0  0  0  0
 32 38  1  0  0  0  0
 32 31  2  0  0  0  0
 33 32  1  0  0  0  0
 34 33  2  0  0  0  0
 34 35  1  0  0  0  0
 35 36  2  0  0  0  0
 36 31  1  0  0  0  0
 40 41  1  0  0  0  0
 40 39  1  0  0  0  0
 41 33  1  0  0  0  0
 42 41  2  0  0  0  0
 43 42  1  0  0  0  0
 44 43  2  0  0  0  0
 44 45  1  0  0  0  0
 45 40  2  0  0  0  0
 46 42  1  0  0  0  0
 47 43  1  0  0  0  0
 48 44  1  0  0  0  0
 49 45  1  0  0  0  0
M  END
>  <minimizedAffinity>
-6.08684492

>  <minimizedRMSD>
1.67885733

$$$$
