
 OpenBabel03272500213D

 40 42  0  0  0  0  0  0  0  0999 V2000
   34.9090   29.7660   50.4590 C   0  0  0  0  0  0  0  0  0  0  0  0
   36.1220   30.1040   49.8130 C   0  0  0  0  0  0  0  0  0  0  0  0
   36.2810   29.8130   48.4590 C   0  0  0  0  0  0  0  0  0  0  0  0
   35.2320   29.2030   47.8160 N   0  0  0  0  0  0  0  0  0  0  0  0
   34.1050   28.8920   48.4290 C   0  0  0  0  0  0  0  0  0  0  0  0
   33.9210   29.1640   49.7480 N   0  0  0  0  0  0  0  0  0  0  0  0
   34.8130   30.0030   51.5100 H   0  0  0  0  0  0  0  0  0  0  0  0
   32.7710   30.6040   46.3230 Cl  0  0  0  0  0  0  0  0  0  0  0  0
   32.3330   28.9340   46.6740 C   0  0  0  0  0  0  0  0  0  0  0  0
   33.0250   28.2410   47.6760 C   0  0  0  0  0  0  0  0  0  0  0  0
   32.7200   26.9210   47.9930 C   0  0  0  0  0  0  0  0  0  0  0  0
   31.6880   26.3270   47.2620 C   0  0  0  0  0  0  0  0  0  0  0  0
   31.0030   26.9960   46.2780 C   0  0  0  0  0  0  0  0  0  0  0  0
   29.7330   26.1350   45.4380 Cl  0  0  0  0  0  0  0  0  0  0  0  0
   31.3370   28.3080   45.9930 C   0  0  0  0  0  0  0  0  0  0  0  0
   33.2600   26.4000   48.7660 H   0  0  0  0  0  0  0  0  0  0  0  0
   31.5000   25.2980   47.5590 H   0  0  0  0  0  0  0  0  0  0  0  0
   30.6010   29.0380   44.9310 C   0  0  0  0  0  0  0  0  0  0  0  0
   29.5360   28.2600   44.4490 F   0  0  0  0  0  0  0  0  0  0  0  0
   31.4130   29.4360   43.9110 F   0  0  0  0  0  0  0  0  0  0  0  0
   30.0320   30.1750   45.4550 F   0  0  0  0  0  0  0  0  0  0  0  0
   37.1820   30.7690   50.6390 C   0  0  0  0  0  0  0  0  0  0  0  0
   38.4440   30.5030   50.1320 F   0  0  0  0  0  0  0  0  0  0  0  0
   36.9910   32.1370   50.5410 F   0  0  0  0  0  0  0  0  0  0  0  0
   37.1270   30.4380   51.9640 F   0  0  0  0  0  0  0  0  0  0  0  0
   37.5310   30.1610   47.7940 C   0  0  0  0  0  0  0  0  0  0  0  0
   38.2240   29.3040   47.6060 H   0  0  0  0  0  0  0  0  0  0  0  0
   38.1090   30.8160   48.4820 H   0  0  0  0  0  0  0  0  0  0  0  0
   38.1370   31.8650   46.0920 C   0  0  0  0  0  0  0  0  0  0  0  0
   37.3450   30.8000   46.4710 C   0  0  0  0  0  0  0  0  0  0  0  0
   36.3500   30.2870   45.6430 C   0  0  0  0  0  0  0  0  0  0  0  0
   35.7530   29.4450   45.9900 H   0  0  0  0  0  0  0  0  0  0  0  0
   36.1190   30.8270   44.4020 C   0  0  0  0  0  0  0  0  0  0  0  0
   35.3330   30.3870   43.8000 H   0  0  0  0  0  0  0  0  0  0  0  0
   36.8890   31.8950   43.9810 C   0  0  0  0  0  3  0  0  0  0  0  0
   37.8640   32.3750   44.8320 C   0  0  0  0  0  3  0  0  0  0  0  0
   40.3310   31.5750   47.4360 H   0  0  0  0  0  0  0  0  0  0  0  0
   39.3680   32.5180   47.0940 S   0  0  0  0  0  0  0  0  0  0  0  0
   40.1590   33.5230   46.2640 O   0  0  0  0  0  0  0  0  0  0  0  0
   38.9100   33.2750   48.2800 O   0  0  0  0  0  0  0  0  0  0  0  0
  1  7  1  0  0  0  0
  2  1  1  0  0  0  0
  2 22  1  0  0  0  0
  3  2  2  0  0  0  0
  4  5  2  0  0  0  0
  4  3  1  0  0  0  0
  5  6  1  0  0  0  0
  6  1  2  0  0  0  0
  8  9  1  0  0  0  0
  9 10  1  0  0  0  0
 10 11  2  0  0  0  0
 10  5  1  0  0  0  0
 11 16  1  0  0  0  0
 12 17  1  0  0  0  0
 12 11  1  0  0  0  0
 13 12  2  0  0  0  0
 14 13  1  0  0  0  0
 15 13  1  0  0  0  0
 15  9  2  0  0  0  0
 18 21  1  0  0  0  0
 18 15  1  0  0  0  0
 19 18  1  0  0  0  0
 20 18  1  0  0  0  0
 22 25  1  0  0  0  0
 23 22  1  0  0  0  0
 24 22  1  0  0  0  0
 26  3  1  0  0  0  0
 26 28  1  0  0  0  0
 27 26  1  0  0  0  0
 29 30  1  0  0  0  0
 29 38  1  0  0  0  0
 30 26  1  0  0  0  0
 31 32  1  0  0  0  0
 31 30  2  0  0  0  0
 33 31  1  0  0  0  0
 34 33  1  0  0  0  0
 35 33  2  0  0  0  0
 35 36  1  0  0  0  0
 36 29  2  0  0  0  0
 38 37  1  0  0  0  0
 38 40  2  0  0  0  0
 39 38  2  0  0  0  0
M  END
>  <minimizedAffinity>
-6.60346889

>  <minimizedRMSD>
0.824655116

$$$$
