
 OpenBabel03272510123D

 38 41  0  0  0  0  0  0  0  0999 V2000
   36.4850   29.5220   48.7410 O   0  0  0  0  0  0  0  0  0  0  0  0
   32.4700   28.2430   48.8890 C   0  0  0  0  0  0  0  0  0  0  0  0
   33.0480   28.8750   49.9410 C   0  0  0  0  0  0  0  0  0  0  0  0
   34.3520   29.3220   49.9680 C   0  0  0  0  0  0  0  0  0  0  0  0
   35.1550   29.1360   48.8780 C   0  0  0  0  0  0  0  0  0  0  0  0
   34.5650   28.4820   47.7860 C   0  0  0  0  0  0  0  0  0  0  0  0
   33.2860   28.0630   47.8070 N   0  0  0  0  0  0  0  0  0  0  0  0
   32.4820   29.0620   50.8430 H   0  0  0  0  0  0  0  0  0  0  0  0
   34.8000   29.8220   50.8070 H   0  0  0  0  0  0  0  0  0  0  0  0
   35.0970   28.2780   46.8680 H   0  0  0  0  0  0  0  0  0  0  0  0
   30.2200   27.9270   49.9210 C   0  0  0  0  0  0  0  0  0  0  0  0
   31.1210   27.7730   48.8570 C   0  0  0  0  0  0  0  0  0  0  0  0
   30.6350   27.1310   47.7500 C   0  0  0  0  0  0  0  0  0  0  0  0
   29.3370   26.6790   47.7250 N   0  0  0  0  0  0  0  0  0  0  0  0
   28.5200   26.8620   48.7940 C   0  0  0  0  0  0  0  0  0  0  0  0
   28.9480   27.4830   49.8950 N   0  0  0  0  0  0  0  0  0  0  0  0
   30.5490   28.4280   50.8220 H   0  0  0  0  0  0  0  0  0  0  0  0
   31.3050   26.9930   46.9010 H   0  0  0  0  0  0  0  0  0  0  0  0
   27.5580   26.4300   48.5530 H   0  0  0  0  0  0  0  0  0  0  0  0
   36.9070   30.3260   47.6840 C   0  0  0  0  0  0  0  0  0  0  0  0
   37.7330   31.3730   48.0940 C   0  0  0  0  0  0  0  0  0  0  0  0
   38.0770   32.0870   46.9510 C   0  0  0  0  0  0  0  0  0  0  0  0
   37.4680   31.4710   45.9130 N   0  0  0  0  0  0  0  0  0  0  0  0
   36.7870   30.4430   46.3520 N   0  0  0  0  0  0  0  0  0  0  0  0
   38.1520   31.7510   49.0210 H   0  0  0  0  0  0  0  0  0  0  0  0
   38.6920   32.9640   46.7960 H   0  0  0  0  0  0  0  0  0  0  0  0
   38.5990   32.5780   44.0230 C   0  0  0  0  0  0  0  0  0  0  0  0
   37.5280   31.8440   44.5420 C   0  0  0  0  0  0  0  0  0  0  0  0
   36.4790   31.4500   43.7360 C   0  0  0  0  0  0  0  0  0  0  0  0
   35.6490   30.8840   44.1310 H   0  0  0  0  0  0  0  0  0  0  0  0
   36.4790   31.7850   42.3830 C   0  0  0  0  0  0  0  0  0  0  0  0
   35.6890   31.5090   41.6940 H   0  0  0  0  0  0  0  0  0  0  0  0
   37.5410   32.5090   41.8820 C   0  0  0  0  0  3  0  0  0  0  0  0
   38.5920   32.9090   42.6660 C   0  0  0  0  0  3  0  0  0  0  0  0
   39.5140   32.9350   46.4260 H   0  0  0  0  0  0  0  0  0  0  0  0
   39.8960   33.0440   45.1030 S   0  0  0  0  0  0  0  0  0  0  0  0
   40.4010   34.4350   44.7930 O   0  0  0  0  0  0  0  0  0  0  0  0
   41.0290   32.0710   44.9100 O   0  0  0  0  0  0  0  0  0  0  0  0
  1  5  1  0  0  0  0
  2  3  1  0  0  0  0
  3  4  2  0  0  0  0
  3  8  1  0  0  0  0
  4  9  1  0  0  0  0
  5  4  1  0  0  0  0
  6  7  1  0  0  0  0
  6  5  2  0  0  0  0
  7  2  2  0  0  0  0
 10  6  1  0  0  0  0
 11 17  1  0  0  0  0
 12  2  1  0  0  0  0
 12 11  2  0  0  0  0
 13 12  1  0  0  0  0
 14 13  2  0  0  0  0
 14 15  1  0  0  0  0
 15 16  2  0  0  0  0
 16 11  1  0  0  0  0
 18 13  1  0  0  0  0
 19 15  1  0  0  0  0
 20 21  1  0  0  0  0
 20  1  1  0  0  0  0
 21 25  1  0  0  0  0
 22 21  2  0  0  0  0
 23 24  1  0  0  0  0
 23 22  1  0  0  0  0
 24 20  2  0  0  0  0
 26 22  1  0  0  0  0
 27 28  1  0  0  0  0
 27 36  1  0  0  0  0
 28 23  1  0  0  0  0
 29 30  1  0  0  0  0
 29 28  2  0  0  0  0
 31 29  1  0  0  0  0
 32 31  1  0  0  0  0
 33 31  2  0  0  0  0
 33 34  1  0  0  0  0
 34 27  2  0  0  0  0
 36 35  1  0  0  0  0
 37 36  2  0  0  0  0
 38 36  2  0  0  0  0
M  END
>  <minimizedAffinity>
-5.19606924

>  <minimizedRMSD>
3.37351584

$$$$
