
 OpenBabel03272509573D

 49 52  0  0  0  0  0  0  0  0999 V2000
   33.6240   27.4240   47.8270 C   0  0  0  0  0  0  0  0  0  0  0  0
   33.7570   26.5350   48.4590 H   0  0  0  0  0  0  0  0  0  0  0  0
   33.9310   27.1100   46.8030 H   0  0  0  0  0  0  0  0  0  0  0  0
   32.1870   27.8320   47.7990 C   0  0  0  0  0  0  0  0  0  0  0  0
   31.3950   27.4350   48.8580 C   0  0  0  0  0  0  0  0  0  0  0  0
   30.0660   27.7670   48.9060 C   0  0  0  0  0  0  0  0  0  0  0  0
   29.5290   28.4770   47.9280 N   0  0  0  0  0  0  0  0  0  0  0  0
   30.3130   28.8700   46.8790 C   0  0  0  0  0  0  0  0  0  0  0  0
   31.6120   28.5490   46.8260 N   0  0  0  0  0  0  0  0  0  0  0  0
   31.8140   26.8600   49.6560 H   0  0  0  0  0  0  0  0  0  0  0  0
   29.4250   27.4610   49.7360 H   0  0  0  0  0  0  0  0  0  0  0  0
   29.6730   29.6700   45.8050 C   0  0  0  0  0  0  0  0  0  0  0  0
   29.4450   30.6790   46.2610 H   0  0  0  0  0  0  0  0  0  0  0  0
   30.4490   29.9220   45.0290 H   0  0  0  0  0  0  0  0  0  0  0  0
   27.2450   29.7290   45.1430 C   0  0  0  0  0  0  0  0  0  0  0  0
   28.4510   29.0760   45.2450 C   0  0  0  0  0  0  0  0  0  0  0  0
   28.5180   27.7560   44.7790 C   0  0  0  0  0  0  0  0  0  0  0  0
   29.4580   27.2300   44.8530 H   0  0  0  0  0  0  0  0  0  0  0  0
   27.4440   27.0890   44.2290 C   0  0  0  0  0  0  0  0  0  0  0  0
   27.5530   26.0610   43.8830 H   0  0  0  0  0  0  0  0  0  0  0  0
   26.2290   27.7290   44.1200 C   0  0  0  0  0  3  0  0  0  0  0  0
   26.1700   29.0300   44.5820 C   0  0  0  0  0  3  0  0  0  0  0  0
   28.2380   32.0880   45.5570 H   0  0  0  0  0  0  0  0  0  0  0  0
   27.0690   31.3630   45.6980 S   0  0  0  0  0  0  0  0  0  0  0  0
   26.4470   31.4980   47.0380 O   0  0  0  0  0  0  0  0  0  0  0  0
   26.1010   32.0390   44.7280 O   0  0  0  0  0  0  0  0  0  0  0  0
   34.5310   28.5610   48.2340 C   0  0  0  0  0  0  0  0  0  0  0  0
   35.3850   28.6890   47.5690 H   0  0  0  0  0  0  0  0  0  0  0  0
   33.9390   29.5020   48.2130 H   0  0  0  0  0  0  0  0  0  0  0  0
   34.9530   28.4110   49.5840 O   0  0  0  0  0  0  0  0  0  0  0  0
   37.3730   30.1830   51.5880 C   0  0  0  0  0  0  0  0  0  0  0  0
   38.0890   30.8610   50.5770 C   0  0  0  0  0  0  0  0  0  0  0  0
   37.6870   30.6610   49.2620 C   0  0  0  0  0  0  0  0  0  0  0  0
   36.6240   29.8170   49.0680 N   0  0  0  0  0  0  0  0  0  0  0  0
   35.9620   29.1860   50.0400 C   0  0  0  0  0  0  0  0  0  0  0  0
   36.3500   29.3800   51.3090 N   0  0  0  0  0  0  0  0  0  0  0  0
   37.7030   30.3540   52.6020 H   0  0  0  0  0  0  0  0  0  0  0  0
   38.9260   31.5240   50.7460 H   0  0  0  0  0  0  0  0  0  0  0  0
   38.9600   33.2600   49.0500 F   0  0  0  0  0  0  0  0  0  0  0  0
   38.8950   32.4730   47.9810 C   0  0  0  0  0  0  0  0  0  0  0  0
   38.3020   31.2710   48.1020 C   0  0  0  0  0  0  0  0  0  0  0  0
   38.2870   30.5170   46.9180 C   0  0  0  0  0  0  0  0  0  0  0  0
   38.8360   30.9830   45.7490 C   0  0  0  0  0  0  0  0  0  0  0  0
   39.4300   32.2110   45.6690 C   0  0  0  0  0  0  0  0  0  0  0  0
   39.4440   32.9370   46.8130 C   0  0  0  0  0  0  0  0  0  0  0  0
   37.8260   29.5260   46.9120 H   0  0  0  0  0  0  0  0  0  0  0  0
   38.7860   30.3410   44.8670 H   0  0  0  0  0  0  0  0  0  0  0  0
   39.8450   32.5240   44.7240 H   0  0  0  0  0  0  0  0  0  0  0  0
   39.9150   33.9320   46.7860 H   0  0  0  0  0  0  0  0  0  0  0  0
  1 27  1  0  0  0  0
  1  2  1  0  0  0  0
  3  1  1  0  0  0  0
  4  1  1  0  0  0  0
  4  5  1  0  0  0  0
  5  6  2  0  0  0  0
  5 10  1  0  0  0  0
  6 11  1  0  0  0  0
  7  6  1  0  0  0  0
  8  7  2  0  0  0  0
  9  8  1  0  0  0  0
  9  4  2  0  0  0  0
 12 13  1  0  0  0  0
 12  8  1  0  0  0  0
 14 12  1  0  0  0  0
 15 16  1  0  0  0  0
 15 24  1  0  0  0  0
 16 12  1  0  0  0  0
 17 18  1  0  0  0  0
 17 16  2  0  0  0  0
 19 17  1  0  0  0  0
 20 19  1  0  0  0  0
 21 19  2  0  0  0  0
 21 22  1  0  0  0  0
 22 15  2  0  0  0  0
 23 24  1  0  0  0  0
 24 25  2  0  0  0  0
 26 24  2  0  0  0  0
 27 30  1  0  0  0  0
 28 27  1  0  0  0  0
 29 27  1  0  0  0  0
 30 35  1  0  0  0  0
 31 37  1  0  0  0  0
 32 38  1  0  0  0  0
 32 31  2  0  0  0  0
 33 32  1  0  0  0  0
 34 33  2  0  0  0  0
 34 35  1  0  0  0  0
 35 36  2  0  0  0  0
 36 31  1  0  0  0  0
 40 41  1  0  0  0  0
 40 39  1  0  0  0  0
 41 33  1  0  0  0  0
 42 41  2  0  0  0  0
 43 42  1  0  0  0  0
 44 43  2  0  0  0  0
 44 45  1  0  0  0  0
 45 40  2  0  0  0  0
 46 42  1  0  0  0  0
 47 43  1  0  0  0  0
 48 44  1  0  0  0  0
 49 45  1  0  0  0  0
M  END
>  <minimizedAffinity>
-6.91558838

>  <minimizedRMSD>
0.841486931

$$$$
