
 OpenBabel03272504573D

 36 38  0  0  1  0  0  0  0  0999 V2000
   37.0200   31.5750   48.6910 C   0  0  1  0  0  0  0  0  0  0  0  0
   36.3910   30.7240   47.7030 C   0  0  0  0  0  0  0  0  0  0  0  0
   37.2840   30.1360   48.7190 C   0  0  2  0  0  0  0  0  0  0  0  0
   36.4720   31.9520   49.6190 H   0  0  0  0  0  0  0  0  0  0  0  0
   36.8220   30.7780   46.6740 H   0  0  0  0  0  0  0  0  0  0  0  0
   35.3680   31.0020   47.6520 H   0  0  0  0  0  0  0  0  0  0  0  0
   38.0990   29.6010   48.2640 H   0  0  0  0  0  0  0  0  0  0  0  0
   38.1620   32.4680   48.3020 C   0  0  0  0  0  0  0  0  0  0  0  0
   38.5500   33.4240   49.2700 C   0  0  0  0  0  0  0  0  0  0  0  0
   39.6050   34.2240   48.8870 C   0  0  0  0  0  0  0  0  0  0  0  0
   40.1910   34.0610   47.6590 N   0  0  0  0  0  0  0  0  0  0  0  0
   39.7820   33.1340   46.7750 C   0  0  0  0  0  0  0  0  0  0  0  0
   38.7370   32.3180   47.1120 N   0  0  0  0  0  0  0  0  0  0  0  0
   40.3820   32.9460   45.5250 N   0  0  0  0  0  0  0  0  0  0  0  0
   38.0790   33.5400   50.2330 H   0  0  0  0  0  0  0  0  0  0  0  0
   39.9750   34.9930   49.5710 H   0  0  0  0  0  0  0  0  0  0  0  0
   40.8650   33.8000   45.1230 H   0  0  0  0  0  0  0  0  0  0  0  0
   40.3390   32.0170   45.0480 H   0  0  0  0  0  0  0  0  0  0  0  0
   36.6790   29.4160   49.7470 O   0  0  0  0  0  0  0  0  0  0  0  0
   34.4740   28.4410   50.6030 O   0  0  0  0  0  0  0  0  0  0  0  0
   35.0170   29.2510   49.4320 P   0  0  1  0  0  0  0  0  0  0  0  0
   34.3010   30.7680   49.6080 O   0  0  0  0  0  0  0  0  0  0  0  0
   34.7190   31.5300   49.2300 H   0  0  0  0  0  0  0  0  0  0  0  0
   34.8160   28.5450   47.9750 O   0  0  0  0  0  0  0  0  0  0  0  0
   33.2230   28.2130   46.0730 C   0  0  0  0  0  0  0  0  0  0  0  0
   33.9430   27.9400   47.2050 C   0  0  0  0  0  0  0  0  0  0  0  0
   33.7260   26.6550   47.7410 C   0  0  0  0  0  0  0  0  0  0  0  0
   34.1550   26.1750   48.6180 H   0  0  0  0  0  0  0  0  0  0  0  0
   32.8390   25.7410   47.1500 C   0  0  0  0  0  0  0  0  0  0  0  0
   32.6040   24.7450   47.4780 H   0  0  0  0  0  0  0  0  0  0  0  0
   32.1710   26.1420   46.0040 C   0  0  0  0  0  3  0  0  0  0  0  0
   32.3390   27.3820   45.4320 C   0  0  0  0  0  3  0  0  0  0  0  0
   34.7850   30.0860   45.1570 H   0  0  0  0  0  0  0  0  0  0  0  0
   33.5060   29.7900   45.4360 S   0  0  0  0  0  0  0  0  0  0  0  0
   32.7460   29.9830   44.1210 O   0  0  0  0  0  0  0  0  0  0  0  0
   32.8520   30.7750   46.3910 O   0  0  0  0  0  0  0  0  0  0  0  0
  1  3  1  0  0  0  0
  1  4  1  1  0  0  0
  2  1  1  0  0  0  0
  2  3  1  0  0  0  0
  3  7  1  6  0  0  0
  3 19  1  0  0  0  0
  5  2  1  0  0  0  0
  6  2  1  0  0  0  0
  8  1  1  0  0  0  0
  8  9  1  0  0  0  0
  9 15  1  0  0  0  0
 10  9  2  0  0  0  0
 10 16  1  0  0  0  0
 11 10  1  0  0  0  0
 12 13  1  0  0  0  0
 12 11  2  0  0  0  0
 13  8  2  0  0  0  0
 14 12  1  0  0  0  0
 17 14  1  0  0  0  0
 18 14  1  0  0  0  0
 21 22  1  0  0  0  0
 21 19  1  0  0  0  0
 21 20  2  1  0  0  0
 23 22  1  0  0  0  0
 24 21  1  0  0  0  0
 25 26  1  0  0  0  0
 26 27  2  0  0  0  0
 26 24  1  0  0  0  0
 27 28  1  0  0  0  0
 29 30  1  0  0  0  0
 29 27  1  0  0  0  0
 31 29  2  0  0  0  0
 32 31  1  0  0  0  0
 32 25  2  0  0  0  0
 33 34  1  0  0  0  0
 34 25  1  0  0  0  0
 34 36  2  0  0  0  0
 35 34  2  0  0  0  0
M  END
>  <minimizedAffinity>
-5.04121161

>  <minimizedRMSD>
1.27443218

$$$$
