
 OpenBabel03262520133D

 45 47  0  0  0  0  0  0  0  0999 V2000
   34.2420   29.4330   49.8180 C   0  0  0  0  0  0  0  0  0  0  0  0
   34.2650   29.3790   50.9610 H   0  0  0  0  0  0  0  0  0  0  0  0
   33.2660   29.8210   49.6050 H   0  0  0  0  0  0  0  0  0  0  0  0
   35.3350   30.3860   49.4950 C   0  0  0  0  0  0  0  0  0  0  0  0
   36.2320   30.1350   50.1030 H   0  0  0  0  0  0  0  0  0  0  0  0
   35.0310   31.4190   49.8270 H   0  0  0  0  0  0  0  0  0  0  0  0
   38.2200   31.5500   48.9800 Br  0  0  0  0  0  0  0  0  0  0  0  0
   36.9650   30.9210   47.6560 C   0  0  0  0  0  0  0  0  0  0  0  0
   37.2800   30.9480   46.3190 C   0  0  0  0  0  0  0  0  0  0  0  0
   36.3520   30.4940   45.4340 C   0  0  0  0  0  0  0  0  0  0  0  0
   35.1180   30.0130   45.8400 C   0  0  0  0  0  0  0  0  0  0  0  0
   34.8280   30.0000   47.2020 C   0  0  0  0  0  0  0  0  0  0  0  0
   35.7570   30.4540   48.0980 C   0  0  0  0  0  0  0  0  0  0  0  0
   36.6530   30.5360   44.3760 H   0  0  0  0  0  0  0  0  0  0  0  0
   34.4970   29.6930   45.0190 H   0  0  0  0  0  0  0  0  0  0  0  0
   33.8510   29.6200   47.3200 H   0  0  0  0  0  0  0  0  0  0  0  0
   39.7790   33.2700   45.0120 C   0  0  0  0  0  0  0  0  0  0  0  0
   40.9810   32.4880   44.9860 C   0  0  0  0  0  0  0  0  0  0  0  0
   40.8860   31.1920   45.4180 C   0  0  0  0  0  0  0  0  0  0  0  0
   39.6810   30.6860   45.8530 N   0  0  0  0  0  0  0  0  0  0  0  0
   38.5790   31.4600   45.8590 C   0  0  0  0  0  0  0  0  0  0  0  0
   38.6430   32.7340   45.4410 N   0  0  0  0  0  0  0  0  0  0  0  0
   39.9050   34.2830   44.6620 H   0  0  0  0  0  0  0  0  0  0  0  0
   41.9470   32.8160   44.6620 H   0  0  0  0  0  0  0  0  0  0  0  0
   41.6670   30.4490   45.4760 H   0  0  0  0  0  0  0  0  0  0  0  0
   34.6200   28.1370   49.3950 N   0  0  0  0  0  0  0  0  0  0  0  0
   35.5880   28.0780   49.0280 H   0  0  0  0  0  0  0  0  0  0  0  0
   33.6660   27.3550   48.6910 C   0  0  0  0  0  0  0  0  0  0  0  0
   33.8540   27.2950   47.6210 H   0  0  0  0  0  0  0  0  0  0  0  0
   33.7250   26.3050   49.0810 H   0  0  0  0  0  0  0  0  0  0  0  0
   32.3100   27.9310   48.9670 C   0  0  0  0  0  0  0  0  0  0  0  0
   31.9410   27.6630   49.9920 H   0  0  0  0  0  0  0  0  0  0  0  0
   32.1250   28.9640   48.7120 H   0  0  0  0  0  0  0  0  0  0  0  0
   30.0380   27.0010   48.0140 C   0  0  0  0  0  0  0  0  0  0  0  0
   31.3910   27.1500   48.0370 C   0  0  0  0  0  0  0  0  0  0  0  0
   32.0190   26.4870   46.9620 C   0  0  0  0  0  0  0  0  0  0  0  0
   33.1180   26.5230   46.8550 H   0  0  0  0  0  0  0  0  0  0  0  0
   31.4170   25.7540   45.9620 C   0  0  0  0  0  0  0  0  0  0  0  0
   31.9770   25.2760   45.1740 H   0  0  0  0  0  0  0  0  0  0  0  0
   30.0460   25.6720   46.0390 C   0  0  0  0  0  0  0  0  0  0  0  0
   29.3780   26.2970   47.0640 C   0  0  0  0  0  0  0  0  0  0  0  0
   29.5580   28.9860   49.6390 H   0  0  0  0  0  0  0  0  0  0  0  0
   29.1750   27.7400   49.3230 S   0  0  0  0  0  0  0  0  0  0  0  0
   27.6920   27.7270   48.9540 O   0  0  0  0  0  0  0  0  0  0  0  0
   29.2420   26.8590   50.5620 O   0  0  0  0  0  0  0  0  0  0  0  0
  1  2  1  0  0  0  0
  3  1  1  0  0  0  0
  4  1  1  0  0  0  0
  4  6  1  0  0  0  0
  4  5  1  0  0  0  0
  8 13  1  0  0  0  0
  8  7  1  0  0  0  0
  9  8  2  0  0  0  0
 10 11  2  0  0  0  0
 10  9  1  0  0  0  0
 11 12  1  0  0  0  0
 12 16  1  0  0  0  0
 12 13  2  0  0  0  0
 13  4  1  0  0  0  0
 14 10  1  0  0  0  0
 15 11  1  0  0  0  0
 17 22  1  0  0  0  0
 18 17  2  0  0  0  0
 18 19  1  0  0  0  0
 19 25  1  0  0  0  0
 19 20  2  0  0  0  0
 20 21  1  0  0  0  0
 21  9  1  0  0  0  0
 22 21  2  0  0  0  0
 23 17  1  0  0  0  0
 24 18  1  0  0  0  0
 26  1  1  0  0  0  0
 27 26  1  0  0  0  0
 28 31  1  0  0  0  0
 28 30  1  0  0  0  0
 28 26  1  0  0  0  0
 29 28  1  0  0  0  0
 31 32  1  0  0  0  0
 33 31  1  0  0  0  0
 34 35  1  0  0  0  0
 34 43  1  0  0  0  0
 35 31  1  0  0  0  0
 36 35  2  0  0  0  0
 37 36  1  0  0  0  0
 38 40  2  0  0  0  0
 38 36  1  0  0  0  0
 39 38  1  0  0  0  0
 40 41  1  0  0  0  0
 41 34  2  0  0  0  0
 43 42  1  0  0  0  0
 43 45  2  0  0  0  0
 44 43  2  0  0  0  0
M  END
>  <minimizedAffinity>
-5.79051352

>  <minimizedRMSD>
0.755353928

$$$$
