
 OpenBabel03262522383D

 30 32  0  0  0  0  0  0  0  0999 V2000
   38.4190   25.6190   33.1900 C   0  0  0  0  0  0  0  0  0  0  0  0
   39.0660   26.8120   33.1610 C   0  0  0  0  0  0  0  0  0  0  0  0
   40.1590   27.1420   33.9160 C   0  0  0  0  0  0  0  0  0  0  0  0
   40.6650   26.2130   34.7790 C   0  0  0  0  0  0  0  0  0  0  0  0
   40.0170   24.9900   34.8190 C   0  0  0  0  0  0  0  0  0  0  0  0
   38.9610   24.7350   34.0610 N   0  0  0  0  0  0  0  0  0  0  0  0
   38.7010   27.5930   32.4860 H   0  0  0  0  0  0  0  0  0  0  0  0
   40.6290   28.1220   33.8410 H   0  0  0  0  0  0  0  0  0  0  0  0
   41.4920   26.4670   35.3960 H   0  0  0  0  0  0  0  0  0  0  0  0
   35.7340   23.7640   31.3280 C   0  0  0  0  0  0  0  0  0  0  0  0
   36.8840   23.9530   32.1200 C   0  0  0  0  0  0  0  0  0  0  0  0
   37.2500   25.2820   32.3860 C   0  0  0  0  0  0  0  0  0  0  0  0
   36.5060   26.2920   31.8860 N   0  0  0  0  0  0  0  0  0  0  0  0
   35.4020   26.0480   31.1230 C   0  0  0  0  0  0  0  0  0  0  0  0
   35.0310   24.7980   30.8560 N   0  0  0  0  0  0  0  0  0  0  0  0
   35.5470   22.7040   31.1880 H   0  0  0  0  0  0  0  0  0  0  0  0
   37.4900   23.1550   32.5280 H   0  0  0  0  0  0  0  0  0  0  0  0
   34.8120   26.8630   30.7260 H   0  0  0  0  0  0  0  0  0  0  0  0
   39.6370   23.3290   36.7180 C   0  0  0  0  0  0  0  0  0  0  0  0
   40.3700   23.8890   35.7030 C   0  0  0  0  0  0  0  0  0  0  0  0
   41.6390   23.3090   35.5670 C   0  0  0  0  0  0  0  0  0  0  0  0
   42.3180   23.6830   34.7810 H   0  0  0  0  0  0  0  0  0  0  0  0
   42.1640   22.2870   36.3250 C   0  0  0  0  0  0  0  0  0  0  0  0
   43.1420   21.9050   36.1510 H   0  0  0  0  0  0  0  0  0  0  0  0
   41.3980   21.7650   37.3150 C   0  0  0  0  0  3  0  0  0  0  0  0
   40.1530   22.2900   37.4950 C   0  0  0  0  0  3  0  0  0  0  0  0
   37.7100   25.0190   36.4610 H   0  0  0  0  0  0  0  0  0  0  0  0
   38.0760   23.9230   37.1490 S   0  0  0  0  0  0  0  0  0  0  0  0
   38.1660   24.3420   38.6400 O   0  0  0  0  0  0  0  0  0  0  0  0
   37.0650   22.8230   37.0370 O   0  0  0  0  0  0  0  0  0  0  0  0
  1  6  1  0  0  0  0
  2  1  2  0  0  0  0
  2  3  1  0  0  0  0
  3  4  2  0  0  0  0
  4  5  1  0  0  0  0
  4  9  1  0  0  0  0
  5 20  1  0  0  0  0
  6  5  2  0  0  0  0
  7  2  1  0  0  0  0
  8  3  1  0  0  0  0
 10 11  1  0  0  0  0
 11 12  2  0  0  0  0
 11 17  1  0  0  0  0
 12  1  1  0  0  0  0
 13 12  1  0  0  0  0
 14 13  2  0  0  0  0
 15 14  1  0  0  0  0
 15 10  2  0  0  0  0
 16 10  1  0  0  0  0
 18 14  1  0  0  0  0
 19 28  1  0  0  0  0
 19 26  1  0  0  0  0
 20 19  2  0  0  0  0
 21 20  1  0  0  0  0
 21 23  2  0  0  0  0
 22 21  1  0  0  0  0
 23 25  1  0  0  0  0
 24 23  1  0  0  0  0
 25 26  2  0  0  0  0
 27 28  1  0  0  0  0
 28 29  2  0  0  0  0
 30 28  2  0  0  0  0
M  END
>  <minimizedAffinity>
-5.76708364

$$$$

 OpenBabel03262522383D

 30 32  0  0  0  0  0  0  0  0999 V2000
   36.7600   27.7500   33.5050 C   0  0  0  0  0  0  0  0  0  0  0  0
   36.9030   28.2110   32.2370 C   0  0  0  0  0  0  0  0  0  0  0  0
   36.4330   29.4090   31.7690 C   0  0  0  0  0  0  0  0  0  0  0  0
   35.7610   30.2300   32.6280 C   0  0  0  0  0  0  0  0  0  0  0  0
   35.6080   29.7740   33.9270 C   0  0  0  0  0  0  0  0  0  0  0  0
   36.0870   28.6020   34.3140 N   0  0  0  0  0  0  0  0  0  0  0  0
   37.4340   27.5910   31.5070 H   0  0  0  0  0  0  0  0  0  0  0  0
   36.5850   29.7160   30.7350 H   0  0  0  0  0  0  0  0  0  0  0  0
   35.3610   31.1470   32.2710 H   0  0  0  0  0  0  0  0  0  0  0  0
   38.0610   24.9710   35.6750 C   0  0  0  0  0  0  0  0  0  0  0  0
   37.5870   26.2540   35.3380 C   0  0  0  0  0  0  0  0  0  0  0  0
   37.2590   26.4670   33.9890 C   0  0  0  0  0  0  0  0  0  0  0  0
   37.4060   25.4620   33.1000 N   0  0  0  0  0  0  0  0  0  0  0  0
   37.8700   24.2390   33.4850 C   0  0  0  0  0  0  0  0  0  0  0  0
   38.1890   24.0090   34.7560 N   0  0  0  0  0  0  0  0  0  0  0  0
   38.2820   24.9220   36.7360 H   0  0  0  0  0  0  0  0  0  0  0  0
   37.4640   27.0700   36.0380 H   0  0  0  0  0  0  0  0  0  0  0  0
   37.9860   23.4390   32.7660 H   0  0  0  0  0  0  0  0  0  0  0  0
   33.5480   30.4280   35.2820 C   0  0  0  0  0  0  0  0  0  0  0  0
   34.8840   30.4750   34.9760 C   0  0  0  0  0  0  0  0  0  0  0  0
   35.5950   31.3660   35.7930 C   0  0  0  0  0  0  0  0  0  0  0  0
   36.6810   31.4860   35.6350 H   0  0  0  0  0  0  0  0  0  0  0  0
   35.0850   32.1390   36.8100 C   0  0  0  0  0  0  0  0  0  0  0  0
   35.7020   32.7900   37.3830 H   0  0  0  0  0  0  0  0  0  0  0  0
   33.7580   32.0540   37.0750 C   0  0  0  0  0  3  0  0  0  0  0  0
   33.0130   31.2050   36.3120 C   0  0  0  0  0  3  0  0  0  0  0  0
   32.9310   28.2830   33.9950 H   0  0  0  0  0  0  0  0  0  0  0  0
   32.4370   29.4780   34.3660 S   0  0  0  0  0  0  0  0  0  0  0  0
   32.1570   30.2690   33.0620 O   0  0  0  0  0  0  0  0  0  0  0  0
   31.1450   29.3450   35.1150 O   0  0  0  0  0  0  0  0  0  0  0  0
  1 12  1  0  0  0  0
  1  6  1  0  0  0  0
  2  1  2  0  0  0  0
  3  2  1  0  0  0  0
  3  4  2  0  0  0  0
  4  5  1  0  0  0  0
  5  6  2  0  0  0  0
  5 20  1  0  0  0  0
  7  2  1  0  0  0  0
  8  3  1  0  0  0  0
  9  4  1  0  0  0  0
 10 16  1  0  0  0  0
 11 10  1  0  0  0  0
 11 17  1  0  0  0  0
 12 11  2  0  0  0  0
 13 14  2  0  0  0  0
 13 12  1  0  0  0  0
 14 15  1  0  0  0  0
 15 10  2  0  0  0  0
 18 14  1  0  0  0  0
 19 26  1  0  0  0  0
 20 19  2  0  0  0  0
 20 21  1  0  0  0  0
 21 23  2  0  0  0  0
 22 21  1  0  0  0  0
 23 25  1  0  0  0  0
 23 24  1  0  0  0  0
 26 25  2  0  0  0  0
 27 28  1  0  0  0  0
 28 30  2  0  0  0  0
 28 19  1  0  0  0  0
 29 28  2  0  0  0  0
M  END
>  <minimizedAffinity>
-5.53368998

$$$$

 OpenBabel03262522383D

 30 32  0  0  0  0  0  0  0  0999 V2000
   36.2360   23.7940   31.5790 C   0  0  0  0  0  0  0  0  0  0  0  0
   35.2530   24.6090   31.1190 C   0  0  0  0  0  0  0  0  0  0  0  0
   35.2960   25.9780   31.1090 C   0  0  0  0  0  0  0  0  0  0  0  0
   36.4080   26.6030   31.5960 C   0  0  0  0  0  0  0  0  0  0  0  0
   37.4200   25.7840   32.0690 C   0  0  0  0  0  0  0  0  0  0  0  0
   37.3140   24.4640   32.0500 N   0  0  0  0  0  0  0  0  0  0  0  0
   34.3390   24.1590   30.7170 H   0  0  0  0  0  0  0  0  0  0  0  0
   34.4680   26.5710   30.7220 H   0  0  0  0  0  0  0  0  0  0  0  0
   36.4410   27.6640   31.6260 H   0  0  0  0  0  0  0  0  0  0  0  0
   35.2120   20.2310   32.1930 C   0  0  0  0  0  0  0  0  0  0  0  0
   35.1550   21.6370   32.2560 C   0  0  0  0  0  0  0  0  0  0  0  0
   36.1750   22.3360   31.5910 C   0  0  0  0  0  0  0  0  0  0  0  0
   37.1390   21.6510   30.9400 N   0  0  0  0  0  0  0  0  0  0  0  0
   37.1440   20.2880   30.9140 C   0  0  0  0  0  0  0  0  0  0  0  0
   36.1890   19.5990   31.5350 N   0  0  0  0  0  0  0  0  0  0  0  0
   34.3790   19.7990   32.7380 H   0  0  0  0  0  0  0  0  0  0  0  0
   34.3890   22.2010   32.7730 H   0  0  0  0  0  0  0  0  0  0  0  0
   37.9200   19.7460   30.3910 H   0  0  0  0  0  0  0  0  0  0  0  0
   38.9700   26.4080   33.9960 C   0  0  0  0  0  0  0  0  0  0  0  0
   38.6590   26.2530   32.6690 C   0  0  0  0  0  0  0  0  0  0  0  0
   39.7000   26.6530   31.8190 C   0  0  0  0  0  0  0  0  0  0  0  0
   39.5590   26.5740   30.7270 H   0  0  0  0  0  0  0  0  0  0  0  0
   40.9260   27.1530   32.1940 C   0  0  0  0  0  0  0  0  0  0  0  0
   41.6620   27.4310   31.4770 H   0  0  0  0  0  0  0  0  0  0  0  0
   41.1860   27.2840   33.5190 C   0  0  0  0  0  3  0  0  0  0  0  0
   40.2100   26.9120   34.3950 C   0  0  0  0  0  3  0  0  0  0  0  0
   36.5780   26.4760   34.9500 H   0  0  0  0  0  0  0  0  0  0  0  0
   37.8270   26.0740   35.2440 S   0  0  0  0  0  0  0  0  0  0  0  0
   38.2790   26.8940   36.4810 O   0  0  0  0  0  0  0  0  0  0  0  0
   37.8810   24.6210   35.6060 O   0  0  0  0  0  0  0  0  0  0  0  0
  1 12  1  0  0  0  0
  1  6  1  0  0  0  0
  2  1  2  0  0  0  0
  3  2  1  0  0  0  0
  3  4  2  0  0  0  0
  4  9  1  0  0  0  0
  4  5  1  0  0  0  0
  5 20  1  0  0  0  0
  6  5  2  0  0  0  0
  7  2  1  0  0  0  0
  8  3  1  0  0  0  0
 10 11  1  0  0  0  0
 10 16  1  0  0  0  0
 11 17  1  0  0  0  0
 12 11  2  0  0  0  0
 13 12  1  0  0  0  0
 14 13  2  0  0  0  0
 14 15  1  0  0  0  0
 15 10  2  0  0  0  0
 18 14  1  0  0  0  0
 19 26  1  0  0  0  0
 19 28  1  0  0  0  0
 20 19  2  0  0  0  0
 21 23  2  0  0  0  0
 21 20  1  0  0  0  0
 22 21  1  0  0  0  0
 23 25  1  0  0  0  0
 24 23  1  0  0  0  0
 25 26  2  0  0  0  0
 27 28  1  0  0  0  0
 28 30  2  0  0  0  0
 28 29  2  0  0  0  0
M  END
>  <minimizedAffinity>
-5.330019

$$$$

 OpenBabel03262522383D

 30 32  0  0  0  0  0  0  0  0999 V2000
   35.2590   30.0860   34.2240 C   0  0  0  0  0  0  0  0  0  0  0  0
   35.3130   30.5110   32.9360 C   0  0  0  0  0  0  0  0  0  0  0  0
   35.9630   29.8710   31.9150 C   0  0  0  0  0  0  0  0  0  0  0  0
   36.6200   28.7050   32.1840 C   0  0  0  0  0  0  0  0  0  0  0  0
   36.5730   28.2570   33.4940 C   0  0  0  0  0  0  0  0  0  0  0  0
   35.9260   28.9260   34.4360 N   0  0  0  0  0  0  0  0  0  0  0  0
   34.8030   31.4410   32.6660 H   0  0  0  0  0  0  0  0  0  0  0  0
   35.9650   30.2710   30.9020 H   0  0  0  0  0  0  0  0  0  0  0  0
   37.1570   28.2160   31.4090 H   0  0  0  0  0  0  0  0  0  0  0  0
   32.6640   31.3030   36.6540 C   0  0  0  0  0  0  0  0  0  0  0  0
   33.2100   30.5670   35.5840 C   0  0  0  0  0  0  0  0  0  0  0  0
   34.5700   30.7810   35.3060 C   0  0  0  0  0  0  0  0  0  0  0  0
   35.2740   31.6570   36.0530 N   0  0  0  0  0  0  0  0  0  0  0  0
   34.6900   32.3430   37.0770 C   0  0  0  0  0  0  0  0  0  0  0  0
   33.4040   32.1600   37.3640 N   0  0  0  0  0  0  0  0  0  0  0  0
   31.6130   31.0590   36.7760 H   0  0  0  0  0  0  0  0  0  0  0  0
   32.6600   29.8610   34.9750 H   0  0  0  0  0  0  0  0  0  0  0  0
   35.2610   33.0440   37.6720 H   0  0  0  0  0  0  0  0  0  0  0  0
   37.3410   25.8260   33.4170 C   0  0  0  0  0  0  0  0  0  0  0  0
   37.2460   27.0680   33.9920 C   0  0  0  0  0  0  0  0  0  0  0  0
   37.8670   27.1320   35.2480 C   0  0  0  0  0  0  0  0  0  0  0  0
   37.8510   28.0850   35.8040 H   0  0  0  0  0  0  0  0  0  0  0  0
   38.5220   26.1110   35.8980 C   0  0  0  0  0  0  0  0  0  0  0  0
   38.9680   26.2500   36.8540 H   0  0  0  0  0  0  0  0  0  0  0  0
   38.5910   24.9030   35.2850 C   0  0  0  0  0  3  0  0  0  0  0  0
   38.0040   24.7790   34.0610 C   0  0  0  0  0  3  0  0  0  0  0  0
   35.4550   26.1580   31.6950 H   0  0  0  0  0  0  0  0  0  0  0  0
   36.5830   25.4590   31.9120 S   0  0  0  0  0  0  0  0  0  0  0  0
   36.1740   23.9640   31.9830 O   0  0  0  0  0  0  0  0  0  0  0  0
   37.5690   25.6170   30.7950 O   0  0  0  0  0  0  0  0  0  0  0  0
  1  6  1  0  0  0  0
  1 12  1  0  0  0  0
  2  1  2  0  0  0  0
  3  4  2  0  0  0  0
  3  2  1  0  0  0  0
  4  5  1  0  0  0  0
  5 20  1  0  0  0  0
  5  6  2  0  0  0  0
  7  2  1  0  0  0  0
  8  3  1  0  0  0  0
  9  4  1  0  0  0  0
 10 16  1  0  0  0  0
 10 15  1  0  0  0  0
 11 10  2  0  0  0  0
 12 11  1  0  0  0  0
 12 13  2  0  0  0  0
 13 14  1  0  0  0  0
 14 15  2  0  0  0  0
 14 18  1  0  0  0  0
 17 11  1  0  0  0  0
 19 20  2  0  0  0  0
 19 26  1  0  0  0  0
 20 21  1  0  0  0  0
 21 22  1  0  0  0  0
 21 23  2  0  0  0  0
 23 24  1  0  0  0  0
 25 23  1  0  0  0  0
 26 25  2  0  0  0  0
 27 28  1  0  0  0  0
 28 29  2  0  0  0  0
 28 19  1  0  0  0  0
 30 28  2  0  0  0  0
M  END
>  <minimizedAffinity>
-5.3084569

$$$$

 OpenBabel03262522383D

 30 32  0  0  0  0  0  0  0  0999 V2000
   35.9750   23.6000   31.6100 C   0  0  0  0  0  0  0  0  0  0  0  0
   35.1590   24.3690   30.8440 C   0  0  0  0  0  0  0  0  0  0  0  0
   35.1290   25.7380   30.8420 C   0  0  0  0  0  0  0  0  0  0  0  0
   35.9800   26.4140   31.6690 C   0  0  0  0  0  0  0  0  0  0  0  0
   36.8190   25.6430   32.4560 C   0  0  0  0  0  0  0  0  0  0  0  0
   36.7970   24.3200   32.4090 N   0  0  0  0  0  0  0  0  0  0  0  0
   34.4570   23.8770   30.1630 H   0  0  0  0  0  0  0  0  0  0  0  0
   34.4460   26.2920   30.1990 H   0  0  0  0  0  0  0  0  0  0  0  0
   35.9440   27.4750   31.7030 H   0  0  0  0  0  0  0  0  0  0  0  0
   35.1740   19.9820   32.2330 C   0  0  0  0  0  0  0  0  0  0  0  0
   35.0450   21.3830   32.3150 C   0  0  0  0  0  0  0  0  0  0  0  0
   35.9920   22.1410   31.6080 C   0  0  0  0  0  0  0  0  0  0  0  0
   36.9560   21.5150   30.9010 N   0  0  0  0  0  0  0  0  0  0  0  0
   37.0310   20.1540   30.8590 C   0  0  0  0  0  0  0  0  0  0  0  0
   36.1480   19.4090   31.5190 N   0  0  0  0  0  0  0  0  0  0  0  0
   34.3930   19.5010   32.8150 H   0  0  0  0  0  0  0  0  0  0  0  0
   34.2790   21.9000   32.8770 H   0  0  0  0  0  0  0  0  0  0  0  0
   37.8070   19.6590   30.2900 H   0  0  0  0  0  0  0  0  0  0  0  0
   39.0740   26.5230   33.2600 C   0  0  0  0  0  0  0  0  0  0  0  0
   37.7600   26.1690   33.4330 C   0  0  0  0  0  0  0  0  0  0  0  0
   37.3290   26.3170   34.7590 C   0  0  0  0  0  0  0  0  0  0  0  0
   36.2860   26.0580   35.0140 H   0  0  0  0  0  0  0  0  0  0  0  0
   38.0760   26.7640   35.8250 C   0  0  0  0  0  0  0  0  0  0  0  0
   37.6640   26.8470   36.8020 H   0  0  0  0  0  0  0  0  0  0  0  0
   39.3690   27.1050   35.6020 C   0  0  0  0  0  3  0  0  0  0  0  0
   39.8470   26.9810   34.3300 C   0  0  0  0  0  3  0  0  0  0  0  0
   39.5850   25.1950   31.1140 H   0  0  0  0  0  0  0  0  0  0  0  0
   39.8740   26.3490   31.7420 S   0  0  0  0  0  0  0  0  0  0  0  0
   41.3940   26.3210   32.0500 O   0  0  0  0  0  0  0  0  0  0  0  0
   39.5970   27.5440   30.8820 O   0  0  0  0  0  0  0  0  0  0  0  0
  1  6  1  0  0  0  0
  2  1  2  0  0  0  0
  3  2  1  0  0  0  0
  3  4  2  0  0  0  0
  4  9  1  0  0  0  0
  4  5  1  0  0  0  0
  5 20  1  0  0  0  0
  6  5  2  0  0  0  0
  7  2  1  0  0  0  0
  8  3  1  0  0  0  0
 10 11  1  0  0  0  0
 10 16  1  0  0  0  0
 11 17  1  0  0  0  0
 12  1  1  0  0  0  0
 12 11  2  0  0  0  0
 13 12  1  0  0  0  0
 14 13  2  0  0  0  0
 14 15  1  0  0  0  0
 15 10  2  0  0  0  0
 18 14  1  0  0  0  0
 19 20  2  0  0  0  0
 19 26  1  0  0  0  0
 20 21  1  0  0  0  0
 21 22  1  0  0  0  0
 21 23  2  0  0  0  0
 23 24  1  0  0  0  0
 25 23  1  0  0  0  0
 26 25  2  0  0  0  0
 27 28  1  0  0  0  0
 28 29  2  0  0  0  0
 28 19  1  0  0  0  0
 30 28  2  0  0  0  0
M  END
>  <minimizedAffinity>
-5.30845547

$$$$

 OpenBabel03262522383D

 30 32  0  0  0  0  0  0  0  0999 V2000
   36.1150   27.7590   31.7480 C   0  0  0  0  0  0  0  0  0  0  0  0
   36.4710   28.5290   30.6880 C   0  0  0  0  0  0  0  0  0  0  0  0
   36.3760   29.8930   30.6290 C   0  0  0  0  0  0  0  0  0  0  0  0
   35.8850   30.5640   31.7120 C   0  0  0  0  0  0  0  0  0  0  0  0
   35.5190   29.7920   32.8030 C   0  0  0  0  0  0  0  0  0  0  0  0
   35.6370   28.4730   32.7940 N   0  0  0  0  0  0  0  0  0  0  0  0
   36.8700   28.0410   29.7920 H   0  0  0  0  0  0  0  0  0  0  0  0
   36.6810   30.4480   29.7420 H   0  0  0  0  0  0  0  0  0  0  0  0
   35.7740   31.6190   31.6680 H   0  0  0  0  0  0  0  0  0  0  0  0
   35.5320   24.0840   31.2230 C   0  0  0  0  0  0  0  0  0  0  0  0
   35.3300   25.4720   31.0910 C   0  0  0  0  0  0  0  0  0  0  0  0
   36.2140   26.3050   31.7950 C   0  0  0  0  0  0  0  0  0  0  0  0
   37.1920   25.7550   32.5460 N   0  0  0  0  0  0  0  0  0  0  0  0
   37.3400   24.4030   32.6370 C   0  0  0  0  0  0  0  0  0  0  0  0
   36.5160   23.5900   31.9800 N   0  0  0  0  0  0  0  0  0  0  0  0
   34.7950   23.5420   30.6390 H   0  0  0  0  0  0  0  0  0  0  0  0
   34.5510   25.9280   30.4940 H   0  0  0  0  0  0  0  0  0  0  0  0
   38.1260   23.9700   33.2410 H   0  0  0  0  0  0  0  0  0  0  0  0
   33.6250   30.2770   34.4420 C   0  0  0  0  0  0  0  0  0  0  0  0
   34.9330   30.3100   34.0290 C   0  0  0  0  0  0  0  0  0  0  0  0
   35.7700   30.9790   34.9350 C   0  0  0  0  0  0  0  0  0  0  0  0
   36.8450   31.0680   34.7040 H   0  0  0  0  0  0  0  0  0  0  0  0
   35.3990   31.5620   36.1250 C   0  0  0  0  0  0  0  0  0  0  0  0
   36.1040   32.0510   36.7540 H   0  0  0  0  0  0  0  0  0  0  0  0
   34.0940   31.4990   36.4890 C   0  0  0  0  0  3  0  0  0  0  0  0
   33.2320   30.8610   35.6480 C   0  0  0  0  0  3  0  0  0  0  0  0
   32.7210   28.4150   32.9090 H   0  0  0  0  0  0  0  0  0  0  0  0
   32.3800   29.5910   33.4660 S   0  0  0  0  0  0  0  0  0  0  0  0
   32.1420   30.5850   32.2990 O   0  0  0  0  0  0  0  0  0  0  0  0
   31.1110   29.4920   34.2570 O   0  0  0  0  0  0  0  0  0  0  0  0
  1 12  1  0  0  0  0
  1  6  1  0  0  0  0
  2  1  2  0  0  0  0
  3  2  1  0  0  0  0
  3  4  2  0  0  0  0
  4  5  1  0  0  0  0
  5 20  1  0  0  0  0
  6  5  2  0  0  0  0
  7  2  1  0  0  0  0
  8  3  1  0  0  0  0
  9  4  1  0  0  0  0
 10 15  1  0  0  0  0
 11 10  2  0  0  0  0
 11 12  1  0  0  0  0
 12 13  2  0  0  0  0
 13 14  1  0  0  0  0
 14 18  1  0  0  0  0
 15 14  2  0  0  0  0
 16 10  1  0  0  0  0
 17 11  1  0  0  0  0
 19 26  1  0  0  0  0
 20 19  2  0  0  0  0
 20 21  1  0  0  0  0
 21 23  2  0  0  0  0
 22 21  1  0  0  0  0
 23 25  1  0  0  0  0
 23 24  1  0  0  0  0
 26 25  2  0  0  0  0
 27 28  1  0  0  0  0
 28 30  2  0  0  0  0
 28 19  1  0  0  0  0
 29 28  2  0  0  0  0
M  END
>  <minimizedAffinity>
-5.30669165

$$$$

 OpenBabel03262522383D

 30 32  0  0  0  0  0  0  0  0999 V2000
   37.5450   23.3060   32.6890 C   0  0  0  0  0  0  0  0  0  0  0  0
   37.7360   24.5280   32.1300 C   0  0  0  0  0  0  0  0  0  0  0  0
   38.2520   25.6230   32.7690 C   0  0  0  0  0  0  0  0  0  0  0  0
   38.6140   25.5070   34.0800 C   0  0  0  0  0  0  0  0  0  0  0  0
   38.4260   24.2650   34.6650 C   0  0  0  0  0  0  0  0  0  0  0  0
   37.9210   23.2450   33.9890 N   0  0  0  0  0  0  0  0  0  0  0  0
   37.4620   24.6750   31.0790 H   0  0  0  0  0  0  0  0  0  0  0  0
   38.3770   26.5760   32.2560 H   0  0  0  0  0  0  0  0  0  0  0  0
   38.9830   26.3570   34.5990 H   0  0  0  0  0  0  0  0  0  0  0  0
   35.2490   20.5910   31.4730 C   0  0  0  0  0  0  0  0  0  0  0  0
   35.6640   21.7250   32.1990 C   0  0  0  0  0  0  0  0  0  0  0  0
   36.9880   22.1480   31.9990 C   0  0  0  0  0  0  0  0  0  0  0  0
   37.7830   21.4700   31.1440 N   0  0  0  0  0  0  0  0  0  0  0  0
   37.3260   20.3770   30.4680 C   0  0  0  0  0  0  0  0  0  0  0  0
   36.0760   19.9540   30.6380 N   0  0  0  0  0  0  0  0  0  0  0  0
   34.2150   20.3570   31.7060 H   0  0  0  0  0  0  0  0  0  0  0  0
   35.0400   22.2790   32.8880 H   0  0  0  0  0  0  0  0  0  0  0  0
   37.9700   19.8390   29.7850 H   0  0  0  0  0  0  0  0  0  0  0  0
   39.7070   23.1800   36.5860 C   0  0  0  0  0  0  0  0  0  0  0  0
   38.7030   23.9510   36.0590 C   0  0  0  0  0  0  0  0  0  0  0  0
   37.8300   24.4470   37.0380 C   0  0  0  0  0  0  0  0  0  0  0  0
   36.9810   25.0800   36.7260 H   0  0  0  0  0  0  0  0  0  0  0  0
   37.9050   24.2330   38.3950 C   0  0  0  0  0  0  0  0  0  0  0  0
   37.1960   24.6520   39.0690 H   0  0  0  0  0  0  0  0  0  0  0  0
   38.9190   23.4670   38.8670 C   0  0  0  0  0  3  0  0  0  0  0  0
   39.8000   22.9540   37.9610 C   0  0  0  0  0  3  0  0  0  0  0  0
   40.3040   21.6740   34.5850 H   0  0  0  0  0  0  0  0  0  0  0  0
   40.8610   22.3780   35.5860 S   0  0  0  0  0  0  0  0  0  0  0  0
   41.5930   21.3580   36.4960 O   0  0  0  0  0  0  0  0  0  0  0  0
   41.8730   23.3640   35.0870 O   0  0  0  0  0  0  0  0  0  0  0  0
  1  6  1  0  0  0  0
  2  1  2  0  0  0  0
  2  3  1  0  0  0  0
  3  4  2  0  0  0  0
  4  9  1  0  0  0  0
  4  5  1  0  0  0  0
  5 20  1  0  0  0  0
  6  5  2  0  0  0  0
  7  2  1  0  0  0  0
  8  3  1  0  0  0  0
 10 16  1  0  0  0  0
 10 11  1  0  0  0  0
 11 17  1  0  0  0  0
 12 11  2  0  0  0  0
 12  1  1  0  0  0  0
 13 12  1  0  0  0  0
 14 15  1  0  0  0  0
 14 13  2  0  0  0  0
 15 10  2  0  0  0  0
 18 14  1  0  0  0  0
 19 26  1  0  0  0  0
 20 19  2  0  0  0  0
 20 21  1  0  0  0  0
 21 23  2  0  0  0  0
 22 21  1  0  0  0  0
 23 25  1  0  0  0  0
 23 24  1  0  0  0  0
 26 25  2  0  0  0  0
 27 28  1  0  0  0  0
 28 29  2  0  0  0  0
 28 19  1  0  0  0  0
 30 28  2  0  0  0  0
M  END
>  <minimizedAffinity>
-5.19592142

$$$$

 OpenBabel03262522383D

 30 32  0  0  0  0  0  0  0  0999 V2000
   37.5950   25.9530   33.6340 C   0  0  0  0  0  0  0  0  0  0  0  0
   37.2690   27.0110   34.4190 C   0  0  0  0  0  0  0  0  0  0  0  0
   38.0400   27.5190   35.4300 C   0  0  0  0  0  0  0  0  0  0  0  0
   39.2440   26.9320   35.6940 C   0  0  0  0  0  0  0  0  0  0  0  0
   39.5920   25.8520   34.9000 C   0  0  0  0  0  0  0  0  0  0  0  0
   38.7980   25.4100   33.9370 N   0  0  0  0  0  0  0  0  0  0  0  0
   36.3130   27.5180   34.2490 H   0  0  0  0  0  0  0  0  0  0  0  0
   37.7140   28.3740   36.0210 H   0  0  0  0  0  0  0  0  0  0  0  0
   39.8370   27.2940   36.4970 H   0  0  0  0  0  0  0  0  0  0  0  0
   35.1810   25.5950   30.7760 C   0  0  0  0  0  0  0  0  0  0  0  0
   35.9400   26.2380   31.7750 C   0  0  0  0  0  0  0  0  0  0  0  0
   36.7600   25.4170   32.5640 C   0  0  0  0  0  0  0  0  0  0  0  0
   36.7870   24.0860   32.3400 N   0  0  0  0  0  0  0  0  0  0  0  0
   36.0290   23.5190   31.3580 C   0  0  0  0  0  0  0  0  0  0  0  0
   35.2430   24.2730   30.5940 N   0  0  0  0  0  0  0  0  0  0  0  0
   34.5880   26.3230   30.2320 H   0  0  0  0  0  0  0  0  0  0  0  0
   35.9300   27.3030   31.9670 H   0  0  0  0  0  0  0  0  0  0  0  0
   36.0550   22.4510   31.1840 H   0  0  0  0  0  0  0  0  0  0  0  0
   40.9880   23.8820   35.7240 C   0  0  0  0  0  0  0  0  0  0  0  0
   40.8060   25.0640   35.0520 C   0  0  0  0  0  0  0  0  0  0  0  0
   41.9920   25.5540   34.4860 C   0  0  0  0  0  0  0  0  0  0  0  0
   41.9630   26.5020   33.9220 H   0  0  0  0  0  0  0  0  0  0  0  0
   43.2380   24.9730   34.5490 C   0  0  0  0  0  0  0  0  0  0  0  0
   44.0870   25.4160   34.0860 H   0  0  0  0  0  0  0  0  0  0  0  0
   43.3650   23.8030   35.2230 C   0  0  0  0  0  3  0  0  0  0  0  0
   42.2450   23.2770   35.7970 C   0  0  0  0  0  3  0  0  0  0  0  0
   38.8690   23.9840   37.1840 H   0  0  0  0  0  0  0  0  0  0  0  0
   39.7050   23.1170   36.5860 S   0  0  0  0  0  0  0  0  0  0  0  0
   40.3720   22.2880   37.7150 O   0  0  0  0  0  0  0  0  0  0  0  0
   38.9800   22.1680   35.6800 O   0  0  0  0  0  0  0  0  0  0  0  0
  1  6  2  0  0  0  0
  1  2  1  0  0  0  0
  2  3  2  0  0  0  0
  3  4  1  0  0  0  0
  3  8  1  0  0  0  0
  4  9  1  0  0  0  0
  5 20  1  0  0  0  0
  5  4  2  0  0  0  0
  6  5  1  0  0  0  0
  7  2  1  0  0  0  0
 10 11  1  0  0  0  0
 11 17  1  0  0  0  0
 11 12  2  0  0  0  0
 12  1  1  0  0  0  0
 13 12  1  0  0  0  0
 14 13  2  0  0  0  0
 15 10  2  0  0  0  0
 15 14  1  0  0  0  0
 16 10  1  0  0  0  0
 18 14  1  0  0  0  0
 19 26  1  0  0  0  0
 19 28  1  0  0  0  0
 20 19  2  0  0  0  0
 21 23  2  0  0  0  0
 21 20  1  0  0  0  0
 22 21  1  0  0  0  0
 23 25  1  0  0  0  0
 24 23  1  0  0  0  0
 25 26  2  0  0  0  0
 28 27  1  0  0  0  0
 28 29  2  0  0  0  0
 30 28  2  0  0  0  0
M  END
>  <minimizedAffinity>
-5.10590839

$$$$

 OpenBabel03262522383D

 30 32  0  0  0  0  0  0  0  0999 V2000
   35.5820   30.0960   33.1460 C   0  0  0  0  0  0  0  0  0  0  0  0
   35.9960   30.8580   32.1010 C   0  0  0  0  0  0  0  0  0  0  0  0
   36.5050   30.3810   30.9230 C   0  0  0  0  0  0  0  0  0  0  0  0
   36.6170   29.0300   30.7560 C   0  0  0  0  0  0  0  0  0  0  0  0
   36.1970   28.2400   31.8130 C   0  0  0  0  0  0  0  0  0  0  0  0
   35.7140   28.7670   32.9280 N   0  0  0  0  0  0  0  0  0  0  0  0
   35.9280   31.9480   32.1840 H   0  0  0  0  0  0  0  0  0  0  0  0
   36.8180   31.0520   30.1250 H   0  0  0  0  0  0  0  0  0  0  0  0
   37.0410   28.6470   29.8610 H   0  0  0  0  0  0  0  0  0  0  0  0
   35.1980   31.8070   36.4700 C   0  0  0  0  0  0  0  0  0  0  0  0
   35.8330   31.3640   35.2930 C   0  0  0  0  0  0  0  0  0  0  0  0
   35.0480   30.6170   34.4000 C   0  0  0  0  0  0  0  0  0  0  0  0
   33.7570   30.3630   34.6990 N   0  0  0  0  0  0  0  0  0  0  0  0
   33.1950   30.8180   35.8560 C   0  0  0  0  0  0  0  0  0  0  0  0
   33.9150   31.5280   36.7200 N   0  0  0  0  0  0  0  0  0  0  0  0
   35.8970   32.3700   37.0810 H   0  0  0  0  0  0  0  0  0  0  0  0
   36.8670   31.5590   35.0380 H   0  0  0  0  0  0  0  0  0  0  0  0
   32.1590   30.6100   36.0890 H   0  0  0  0  0  0  0  0  0  0  0  0
   37.2230   25.9920   32.4450 C   0  0  0  0  0  0  0  0  0  0  0  0
   36.2780   26.7880   31.8500 C   0  0  0  0  0  0  0  0  0  0  0  0
   35.3000   26.0500   31.1670 C   0  0  0  0  0  0  0  0  0  0  0  0
   34.4880   26.5880   30.6480 H   0  0  0  0  0  0  0  0  0  0  0  0
   35.2260   24.6800   31.0600 C   0  0  0  0  0  0  0  0  0  0  0  0
   34.4440   24.2010   30.5200 H   0  0  0  0  0  0  0  0  0  0  0  0
   36.1830   23.9370   31.6690 C   0  0  0  0  0  3  0  0  0  0  0  0
   37.1620   24.6000   32.3490 C   0  0  0  0  0  3  0  0  0  0  0  0
   39.2280   27.6040   32.5690 H   0  0  0  0  0  0  0  0  0  0  0  0
   38.5840   26.6560   33.2720 S   0  0  0  0  0  0  0  0  0  0  0  0
   39.5870   25.4890   33.4690 O   0  0  0  0  0  0  0  0  0  0  0  0
   38.1660   27.1430   34.6260 O   0  0  0  0  0  0  0  0  0  0  0  0
  1 12  1  0  0  0  0
  2  7  1  0  0  0  0
  2  1  2  0  0  0  0
  3  2  1  0  0  0  0
  4  3  2  0  0  0  0
  4  5  1  0  0  0  0
  5 20  1  0  0  0  0
  5  6  2  0  0  0  0
  6  1  1  0  0  0  0
  8  3  1  0  0  0  0
  9  4  1  0  0  0  0
 10 15  1  0  0  0  0
 10 16  1  0  0  0  0
 11 10  2  0  0  0  0
 12 13  2  0  0  0  0
 12 11  1  0  0  0  0
 13 14  1  0  0  0  0
 14 18  1  0  0  0  0
 14 15  2  0  0  0  0
 17 11  1  0  0  0  0
 19 28  1  0  0  0  0
 20 19  2  0  0  0  0
 21 20  1  0  0  0  0
 22 21  1  0  0  0  0
 23 21  2  0  0  0  0
 23 25  1  0  0  0  0
 24 23  1  0  0  0  0
 25 26  2  0  0  0  0
 26 19  1  0  0  0  0
 27 28  1  0  0  0  0
 28 29  2  0  0  0  0
 28 30  2  0  0  0  0
M  END
>  <minimizedAffinity>
-5.09071064

$$$$
