
 OpenBabel03272510163D

 31 33  0  0  0  0  0  0  0  0999 V2000
   36.3670   29.4770   51.0500 Br  0  0  0  0  0  0  0  0  0  0  0  0
   35.5440   29.1580   49.3510 C   0  0  0  0  0  0  0  0  0  0  0  0
   35.9100   29.8850   48.2420 C   0  0  0  0  0  0  0  0  0  0  0  0
   35.2740   29.5970   47.0580 C   0  0  0  0  0  0  0  0  0  0  0  0
   34.2900   28.6180   46.9340 C   0  0  0  0  0  0  0  0  0  0  0  0
   33.9630   27.9240   48.0690 C   0  0  0  0  0  0  0  0  0  0  0  0
   34.5860   28.1920   49.2670 C   0  0  0  0  0  0  0  0  0  0  0  0
   35.6050   30.2080   46.2040 H   0  0  0  0  0  0  0  0  0  0  0  0
   33.1970   27.1740   47.9280 H   0  0  0  0  0  0  0  0  0  0  0  0
   34.2810   27.6040   50.1320 H   0  0  0  0  0  0  0  0  0  0  0  0
   37.7180   32.8370   49.4010 C   0  0  0  0  0  0  0  0  0  0  0  0
   38.8460   32.8990   48.5420 C   0  0  0  0  0  0  0  0  0  0  0  0
   38.9610   31.9100   47.5700 C   0  0  0  0  0  0  0  0  0  0  0  0
   38.0000   30.9460   47.4930 N   0  0  0  0  0  0  0  0  0  0  0  0
   36.9380   30.9210   48.3300 C   0  0  0  0  0  0  0  0  0  0  0  0
   36.8110   31.8710   49.2760 N   0  0  0  0  0  0  0  0  0  0  0  0
   37.5510   33.5740   50.1900 H   0  0  0  0  0  0  0  0  0  0  0  0
   39.5580   33.6970   48.6750 H   0  0  0  0  0  0  0  0  0  0  0  0
   39.8140   31.9290   46.8980 H   0  0  0  0  0  0  0  0  0  0  0  0
   32.7040   29.1630   45.0540 C   0  0  0  0  0  0  0  0  0  0  0  0
   33.7480   28.4780   45.5880 C   0  0  0  0  0  0  0  0  0  0  0  0
   34.3660   27.5370   44.7560 C   0  0  0  0  0  0  0  0  0  0  0  0
   35.2200   26.9340   45.1030 H   0  0  0  0  0  0  0  0  0  0  0  0
   33.9880   27.2760   43.4720 C   0  0  0  0  0  0  0  0  0  0  0  0
   34.4830   26.5440   42.8520 H   0  0  0  0  0  0  0  0  0  0  0  0
   32.9330   27.9710   42.9380 C   0  0  0  0  0  3  0  0  0  0  0  0
   32.3140   28.8990   43.7400 C   0  0  0  0  0  3  0  0  0  0  0  0
   32.3750   30.2760   47.3200 H   0  0  0  0  0  0  0  0  0  0  0  0
   31.9160   30.3360   46.0480 S   0  0  0  0  0  0  0  0  0  0  0  0
   31.9420   31.7280   45.4780 O   0  0  0  0  0  0  0  0  0  0  0  0
   30.4490   29.9290   46.1120 O   0  0  0  0  0  0  0  0  0  0  0  0
  2  1  1  0  0  0  0
  3 15  1  0  0  0  0
  3  2  2  0  0  0  0
  4  3  1  0  0  0  0
  5  4  2  0  0  0  0
  5  6  1  0  0  0  0
  6  7  2  0  0  0  0
  7  2  1  0  0  0  0
  7 10  1  0  0  0  0
  8  4  1  0  0  0  0
  9  6  1  0  0  0  0
 11 17  1  0  0  0  0
 12 18  1  0  0  0  0
 12 11  2  0  0  0  0
 13 12  1  0  0  0  0
 14 13  2  0  0  0  0
 14 15  1  0  0  0  0
 15 16  2  0  0  0  0
 16 11  1  0  0  0  0
 19 13  1  0  0  0  0
 20 21  1  0  0  0  0
 20 29  1  0  0  0  0
 21  5  1  0  0  0  0
 22 23  1  0  0  0  0
 22 21  2  0  0  0  0
 24 22  1  0  0  0  0
 25 24  1  0  0  0  0
 26 24  2  0  0  0  0
 26 27  1  0  0  0  0
 27 20  2  0  0  0  0
 29 31  2  0  0  0  0
 29 28  1  0  0  0  0
 30 29  2  0  0  0  0
M  END
>  <minimizedAffinity>
-5.4284606

>  <minimizedRMSD>
1.6238662

$$$$
