
 OpenBabel03272509383D

 33 35  0  0  1  0  0  0  0  0999 V2000
   35.1880   30.0090   47.8920 C   0  0  0  0  0  0  0  0  0  0  0  0
   35.0490   30.3150   49.2510 C   0  0  0  0  0  0  0  0  0  0  0  0
   35.9730   31.1270   49.9240 C   0  0  0  0  0  0  0  0  0  0  0  0
   37.0700   31.6470   49.2020 C   0  0  0  0  0  0  0  0  0  0  0  0
   37.1910   31.3310   47.8510 C   0  0  0  0  0  0  0  0  0  0  0  0
   36.2670   30.5260   47.2060 C   0  0  0  0  0  0  0  0  0  0  0  0
   34.2120   29.9220   49.8100 H   0  0  0  0  0  0  0  0  0  0  0  0
   35.8570   31.3570   50.9690 H   0  0  0  0  0  0  0  0  0  0  0  0
   37.7670   32.2700   49.7470 H   0  0  0  0  0  0  0  0  0  0  0  0
   38.0640   31.7790   47.3960 H   0  0  0  0  0  0  0  0  0  0  0  0
   37.6520   30.7290   45.0260 C   0  0  0  0  0  0  0  0  0  0  0  0
   36.5780   30.3480   45.8040 C   0  0  0  0  0  0  0  0  0  0  0  0
   35.5260   29.6730   45.1690 C   0  0  0  0  0  0  0  0  0  0  0  0
   34.5990   29.2960   45.6240 H   0  0  0  0  0  0  0  0  0  0  0  0
   35.5730   29.4020   43.7970 C   0  0  0  0  0  0  0  0  0  0  0  0
   34.7840   28.8840   43.2680 H   0  0  0  0  0  0  0  0  0  0  0  0
   36.6580   29.7950   43.0400 C   0  0  0  0  0  3  0  0  0  0  0  0
   37.6850   30.4580   43.6760 C   0  0  0  0  0  3  0  0  0  0  0  0
   38.5420   31.7120   47.2540 H   0  0  0  0  0  0  0  0  0  0  0  0
   38.9040   31.5310   45.9470 S   0  0  0  0  0  0  0  0  0  0  0  0
   40.2090   30.7980   45.9180 O   0  0  0  0  0  0  0  0  0  0  0  0
   39.1570   32.9220   45.3980 O   0  0  0  0  0  0  0  0  0  0  0  0
   34.2060   29.1360   47.2760 C   0  0  2  0  0  3  0  0  0  0  0  0
   34.4640   27.8820   47.4180 O   0  0  0  0  0  1  0  0  0  0  0  0
   31.9170   31.4460   45.6840 C   0  0  0  0  0  0  0  0  0  0  0  0
   30.8920   30.6270   45.1870 C   0  0  0  0  0  0  0  0  0  0  0  0
   30.9860   29.2500   45.4070 C   0  0  0  0  0  0  0  0  0  0  0  0
   32.0670   28.7510   46.0940 N   0  0  0  0  0  0  0  0  0  0  0  0
   33.0190   29.5620   46.5500 C   0  0  0  0  0  0  0  0  0  0  0  0
   32.9270   30.8720   46.3400 N   0  0  0  0  0  0  0  0  0  0  0  0
   31.7620   32.4920   45.4680 H   0  0  0  0  0  0  0  0  0  0  0  0
   30.0020   30.9180   44.6340 H   0  0  0  0  0  0  0  0  0  0  0  0
   30.2840   28.4910   45.0910 H   0  0  0  0  0  0  0  0  0  0  0  0
  1  2  1  0  0  0  0
  2  7  1  0  0  0  0
  2  3  2  0  0  0  0
  3  8  1  0  0  0  0
  4  9  1  0  0  0  0
  4  3  1  0  0  0  0
  5  4  2  0  0  0  0
  6  5  1  0  0  0  0
  6  1  2  0  0  0  0
 10  5  1  0  0  0  0
 11 12  1  0  0  0  0
 11 20  1  0  0  0  0
 12  6  1  0  0  0  0
 13 14  1  0  0  0  0
 13 12  2  0  0  0  0
 15 13  1  0  0  0  0
 16 15  1  0  0  0  0
 17 18  1  0  0  0  0
 17 15  2  0  0  0  0
 18 11  2  0  0  0  0
 20 19  1  0  0  0  0
 21 20  2  0  0  0  0
 22 20  2  0  0  0  0
 23 24  1  6  0  0  0
 23  1  1  0  0  0  0
 25 30  1  0  0  0  0
 26 27  1  0  0  0  0
 26 25  2  0  0  0  0
 27 28  2  0  0  0  0
 28 29  1  0  0  0  0
 29 23  1  0  0  0  0
 30 29  2  0  0  0  0
 31 25  1  0  0  0  0
 32 26  1  0  0  0  0
 33 27  1  0  0  0  0
M  END
>  <minimizedAffinity>
-4.92616892

>  <minimizedRMSD>
1.68709469

$$$$
