
 OpenBabel03272510343D

 31 33  0  0  0  0  0  0  0  0999 V2000
   36.8280   31.0090   47.3050 C   0  0  0  0  0  0  0  0  0  0  0  0
   37.2820   31.1430   46.0070 C   0  0  0  0  0  0  0  0  0  0  0  0
   36.8640   30.2800   45.0110 C   0  0  0  0  0  0  0  0  0  0  0  0
   35.9760   29.2770   45.3480 C   0  0  0  0  0  0  0  0  0  0  0  0
   35.4970   29.1150   46.6530 C   0  0  0  0  0  0  0  0  0  0  0  0
   35.9390   29.9960   47.6190 C   0  0  0  0  0  0  0  0  0  0  0  0
   37.9810   31.9320   45.7390 H   0  0  0  0  0  0  0  0  0  0  0  0
   37.2500   30.4280   44.0110 H   0  0  0  0  0  0  0  0  0  0  0  0
   35.6980   28.6420   44.4970 H   0  0  0  0  0  0  0  0  0  0  0  0
   34.8100   28.3060   46.8150 H   0  0  0  0  0  0  0  0  0  0  0  0
   36.8620   33.1410   50.2470 C   0  0  0  0  0  0  0  0  0  0  0  0
   38.1320   33.7610   50.2040 C   0  0  0  0  0  0  0  0  0  0  0  0
   38.9900   33.4190   49.1180 C   0  0  0  0  0  0  0  0  0  0  0  0
   38.5260   32.5300   48.2140 N   0  0  0  0  0  0  0  0  0  0  0  0
   37.3140   31.9640   48.2920 C   0  0  0  0  0  0  0  0  0  0  0  0
   36.4810   32.2690   49.3090 N   0  0  0  0  0  0  0  0  0  0  0  0
   36.2200   33.4180   51.0890 H   0  0  0  0  0  0  0  0  0  0  0  0
   38.4490   34.4710   50.9590 H   0  0  0  0  0  0  0  0  0  0  0  0
   39.9600   33.8850   49.0750 H   0  0  0  0  0  0  0  0  0  0  0  0
   36.1350   29.4760   50.1340 C   0  0  0  0  0  0  0  0  0  0  0  0
   35.4560   29.8290   48.9850 C   0  0  0  0  0  0  0  0  0  0  0  0
   34.0890   30.0870   49.0840 C   0  0  0  0  0  0  0  0  0  0  0  0
   33.4070   30.3760   48.2800 H   0  0  0  0  0  0  0  0  0  0  0  0
   33.4310   29.9900   50.3090 C   0  0  0  0  0  0  0  0  0  0  0  0
   32.3770   30.1770   50.4460 H   0  0  0  0  0  0  0  0  0  0  0  0
   34.1470   29.6290   51.4560 C   0  0  0  0  0  3  0  0  0  0  0  0
   35.4970   29.3810   51.3290 C   0  0  0  0  0  3  0  0  0  0  0  0
   38.0430   28.9960   48.5420 H   0  0  0  0  0  0  0  0  0  0  0  0
   37.8370   29.1780   49.8860 S   0  0  0  0  0  0  0  0  0  0  0  0
   38.2070   27.9180   50.5930 O   0  0  0  0  0  0  0  0  0  0  0  0
   38.7010   30.2820   50.3990 O   0  0  0  0  0  0  0  0  0  0  0  0
  1  6  1  0  0  0  0
  1 15  1  0  0  0  0
  2  1  2  0  0  0  0
  3  4  2  0  0  0  0
  3  2  1  0  0  0  0
  4  5  1  0  0  0  0
  5 10  1  0  0  0  0
  5  6  2  0  0  0  0
  6 21  1  0  0  0  0
  7  2  1  0  0  0  0
  8  3  1  0  0  0  0
  9  4  1  0  0  0  0
 11 17  1  0  0  0  0
 12 11  1  0  0  0  0
 12 18  1  0  0  0  0
 13 12  2  0  0  0  0
 14 15  2  0  0  0  0
 14 13  1  0  0  0  0
 15 16  1  0  0  0  0
 16 11  2  0  0  0  0
 19 13  1  0  0  0  0
 20 27  1  0  0  0  0
 21 22  1  0  0  0  0
 21 20  2  0  0  0  0
 22 24  2  0  0  0  0
 23 22  1  0  0  0  0
 24 25  1  0  0  0  0
 24 26  1  0  0  0  0
 27 26  2  0  0  0  0
 28 29  1  0  0  0  0
 29 20  1  0  0  0  0
 29 31  2  0  0  0  0
 29 30  2  0  0  0  0
M  END
>  <minimizedAffinity>
-0.236032635

>  <minimizedRMSD>
2.83135104

$$$$
