
 OpenBabel03262522323D

 30 32  0  0  0  0  0  0  0  0999 V2000
   37.7140   31.0150   47.6730 C   0  0  0  0  0  0  0  0  0  0  0  0
   38.5270   32.0880   47.9060 C   0  0  0  0  0  0  0  0  0  0  0  0
   39.3800   32.6410   46.9710 C   0  0  0  0  0  0  0  0  0  0  0  0
   39.4280   32.0860   45.6990 C   0  0  0  0  0  0  0  0  0  0  0  0
   38.6090   31.0110   45.4730 C   0  0  0  0  0  0  0  0  0  0  0  0
   37.8180   30.5390   46.4310 N   0  0  0  0  0  0  0  0  0  0  0  0
   38.5140   32.5490   48.8980 H   0  0  0  0  0  0  0  0  0  0  0  0
   39.9900   33.5000   47.2620 H   0  0  0  0  0  0  0  0  0  0  0  0
   40.1220   32.5880   45.0470 H   0  0  0  0  0  0  0  0  0  0  0  0
   37.2660   29.9500   49.9110 C   0  0  0  0  0  0  0  0  0  0  0  0
   36.8290   30.4460   48.6640 C   0  0  0  0  0  0  0  0  0  0  0  0
   35.4590   30.3890   48.3690 C   0  0  0  0  0  0  0  0  0  0  0  0
   34.6250   29.8530   49.3120 N   0  0  0  0  0  0  0  0  0  0  0  0
   35.0980   29.3870   50.4990 C   0  0  0  0  0  0  0  0  0  0  0  0
   36.4020   29.4320   50.8020 N   0  0  0  0  0  0  0  0  0  0  0  0
   38.3320   30.0360   50.0450 H   0  0  0  0  0  0  0  0  0  0  0  0
   35.0390   30.7410   47.4490 H   0  0  0  0  0  0  0  0  0  0  0  0
   34.4230   28.9660   51.2350 H   0  0  0  0  0  0  0  0  0  0  0  0
   37.8430   30.9190   43.1410 C   0  0  0  0  0  0  0  0  0  0  0  0
   38.6490   30.4180   44.1450 C   0  0  0  0  0  0  0  0  0  0  0  0
   39.4650   29.3570   43.8160 C   0  0  0  0  0  0  0  0  0  0  0  0
   40.1250   28.9080   44.5390 H   0  0  0  0  0  0  0  0  0  0  0  0
   39.5400   28.7600   42.5760 C   0  0  0  0  0  0  0  0  0  0  0  0
   40.1920   27.9270   42.3530 H   0  0  0  0  0  0  0  0  0  0  0  0
   38.7380   29.2540   41.5700 C   0  0  0  0  0  3  0  0  0  0  0  0
   37.9200   30.3100   41.8820 C   0  0  0  0  0  3  0  0  0  0  0  0
   36.9920   32.8660   44.5480 H   0  0  0  0  0  0  0  0  0  0  0  0
   36.7410   32.2560   43.3520 S   0  0  0  0  0  0  0  0  0  0  0  0
   36.9530   33.2300   42.2050 O   0  0  0  0  0  0  0  0  0  0  0  0
   35.3150   31.7370   43.3070 O   0  0  0  0  0  0  0  0  0  0  0  0
  1  2  1  0  0  0  0
  1 11  1  0  0  0  0
  2  7  1  0  0  0  0
  3  8  1  0  0  0  0
  3  2  2  0  0  0  0
  4  3  1  0  0  0  0
  5  4  2  0  0  0  0
  5  6  1  0  0  0  0
  6  1  2  0  0  0  0
  9  4  1  0  0  0  0
 10 16  1  0  0  0  0
 10 15  1  0  0  0  0
 11 10  2  0  0  0  0
 12 11  1  0  0  0  0
 12 13  2  0  0  0  0
 13 14  1  0  0  0  0
 14 15  2  0  0  0  0
 14 18  1  0  0  0  0
 17 12  1  0  0  0  0
 19 28  1  0  0  0  0
 19 20  1  0  0  0  0
 20  5  1  0  0  0  0
 21 20  2  0  0  0  0
 21 22  1  0  0  0  0
 23 21  1  0  0  0  0
 24 23  1  0  0  0  0
 25 26  1  0  0  0  0
 25 23  2  0  0  0  0
 26 19  2  0  0  0  0
 28 27  1  0  0  0  0
 29 28  2  0  0  0  0
 30 28  2  0  0  0  0
M  END
>  <minimizedAffinity>
-5.12217331

>  <minimizedRMSD>
2.60476804

$$$$
