
 OpenBabel03272501083D

 43 46  0  0  1  0  0  0  0  0999 V2000
   40.3950   32.2800   44.5200 Cl  0  0  0  0  0  0  0  0  0  0  0  0
   38.9440   31.3240   44.4850 C   0  0  0  0  0  0  0  0  0  0  0  0
   38.0840   31.5600   45.5510 C   0  0  0  0  0  0  0  0  0  0  0  0
   36.9160   30.8110   45.5370 C   0  0  0  0  0  0  0  0  0  0  0  0
   36.6320   29.9010   44.5360 C   0  0  0  0  0  0  0  0  0  0  0  0
   37.5180   29.7120   43.5100 C   0  0  0  0  0  0  0  0  0  0  0  0
   38.6790   30.4290   43.4900 C   0  0  0  0  0  0  0  0  0  0  0  0
   36.1300   30.8570   46.2790 H   0  0  0  0  0  0  0  0  0  0  0  0
   35.7310   29.3020   44.4940 H   0  0  0  0  0  0  0  0  0  0  0  0
   37.3830   29.0250   42.6870 H   0  0  0  0  0  0  0  0  0  0  0  0
   39.6650   31.0850   41.3040 C   0  0  0  0  0  0  0  0  0  0  0  0
   39.6770   30.2860   42.4320 C   0  0  0  0  0  0  0  0  0  0  0  0
   40.6820   29.3340   42.5240 C   0  0  0  0  0  0  0  0  0  0  0  0
   40.6720   28.7220   43.4140 H   0  0  0  0  0  0  0  0  0  0  0  0
   41.6350   29.1650   41.5610 C   0  0  0  0  0  0  0  0  0  0  0  0
   42.3970   28.4060   41.6820 H   0  0  0  0  0  0  0  0  0  0  0  0
   41.6170   29.9660   40.4350 C   0  0  0  0  0  3  0  0  0  0  0  0
   40.6220   30.9260   40.3190 C   0  0  0  0  0  3  0  0  0  0  0  0
   38.1020   32.8210   42.3260 H   0  0  0  0  0  0  0  0  0  0  0  0
   38.4270   32.3110   41.1130 S   0  0  0  0  0  0  0  0  0  0  0  0
   37.2280   31.6450   40.5260 O   0  0  0  0  0  0  0  0  0  0  0  0
   38.9450   33.3390   40.1500 O   0  0  0  0  0  0  0  0  0  0  0  0
   38.1390   32.3790   46.6260 O   0  0  0  0  0  0  0  0  0  0  0  0
   38.8920   32.4890   47.7480 C   0  0  2  0  0  0  0  0  0  0  0  0
   38.0150   32.7730   49.0130 C   0  0  2  0  0  0  0  0  0  0  0  0
   38.9770   33.4700   49.8540 C   0  0  0  0  0  0  0  0  0  0  0  0
   39.7920   34.2480   49.0360 O   0  0  0  0  0  0  0  0  0  0  0  0
   39.5920   33.8760   47.7440 C   0  0  0  0  0  0  0  0  0  0  0  0
   39.6490   31.7290   47.9510 H   0  0  0  0  0  0  0  0  0  0  0  0
   37.2190   33.4600   48.6490 H   0  0  0  0  0  0  0  0  0  0  0  0
   39.6650   32.8270   50.4350 H   0  0  0  0  0  0  0  0  0  0  0  0
   38.4860   34.1170   50.6380 H   0  0  0  0  0  0  0  0  0  0  0  0
   40.4640   33.8900   47.0930 H   0  0  0  0  0  0  0  0  0  0  0  0
   38.8290   34.5800   47.3120 H   0  0  0  0  0  0  0  0  0  0  0  0
   37.3730   29.6110   50.9580 C   0  0  0  0  0  0  0  0  0  0  0  0
   38.0380   30.7830   50.5060 C   0  0  0  0  0  0  0  0  0  0  0  0
   37.3870   31.5800   49.5190 C   0  0  0  0  0  0  0  0  0  0  0  0
   36.1540   31.1840   49.0510 N   0  0  0  0  0  0  0  0  0  0  0  0
   35.5690   30.0700   49.5100 C   0  0  0  0  0  0  0  0  0  0  0  0
   36.1560   29.2830   50.4510 N   0  0  0  0  0  0  0  0  0  0  0  0
   37.8390   28.9890   51.7020 H   0  0  0  0  0  0  0  0  0  0  0  0
   38.9890   31.0270   50.9100 H   0  0  0  0  0  0  0  0  0  0  0  0
   34.5970   29.8170   49.0990 H   0  0  0  0  0  0  0  0  0  0  0  0
  2  1  1  0  0  0  0
  2  3  1  0  0  0  0
  3 23  1  0  0  0  0
  4  3  2  0  0  0  0
  4  8  1  0  0  0  0
  5  4  1  0  0  0  0
  6  5  2  0  0  0  0
  7  6  1  0  0  0  0
  7  2  2  0  0  0  0
  9  5  1  0  0  0  0
 10  6  1  0  0  0  0
 11 12  1  0  0  0  0
 12 13  2  0  0  0  0
 12  7  1  0  0  0  0
 13 14  1  0  0  0  0
 15 16  1  0  0  0  0
 15 13  1  0  0  0  0
 17 15  2  0  0  0  0
 18 17  1  0  0  0  0
 18 11  2  0  0  0  0
 20 11  1  0  0  0  0
 20 19  1  0  0  0  0
 21 20  2  0  0  0  0
 22 20  2  0  0  0  0
 23 24  1  0  0  0  0
 24 29  1  1  0  0  0
 24 25  1  0  0  0  0
 25 30  1  6  0  0  0
 25 37  1  0  0  0  0
 25 26  1  0  0  0  0
 26 31  1  0  0  0  0
 26 32  1  0  0  0  0
 27 26  1  0  0  0  0
 28 24  1  0  0  0  0
 28 27  1  0  0  0  0
 33 28  1  0  0  0  0
 34 28  1  0  0  0  0
 35 41  1  0  0  0  0
 36 42  1  0  0  0  0
 36 35  1  0  0  0  0
 37 36  2  0  0  0  0
 38 39  2  0  0  0  0
 38 37  1  0  0  0  0
 39 40  1  0  0  0  0
 40 35  2  0  0  0  0
 43 39  1  0  0  0  0
M  END
>  <minimizedAffinity>
-6.21148443

>  <minimizedRMSD>
1.47266853

$$$$
