
 OpenBabel03272505303D

 43 46  0  0  0  0  0  0  0  0999 V2000
   37.3890   31.1790   47.0830 N   0  0  0  0  0  0  0  0  0  0  0  0
   36.7430   30.9220   45.9150 C   0  0  0  0  0  0  0  0  0  0  0  0
   37.1780   31.4320   44.7040 C   0  0  0  0  0  0  0  0  0  0  0  0
   38.3300   32.2390   44.7120 C   0  0  0  0  0  0  0  0  0  0  0  0
   38.7630   32.7230   43.6410 O   0  0  0  0  0  0  0  0  0  0  0  0
   38.9750   32.4910   45.9020 N   0  0  0  0  0  0  0  0  0  0  0  0
   38.4620   31.9480   46.9880 C   0  0  0  0  0  0  0  0  0  0  0  0
   39.0810   32.2050   48.0470 O   0  0  0  0  0  0  0  0  0  0  0  0
   35.8490   30.2960   45.9040 H   0  0  0  0  0  0  0  0  0  0  0  0
   37.3460   29.5370   50.4150 C   0  0  0  0  0  0  0  0  0  0  0  0
   37.8160   30.0590   49.1920 C   0  0  0  0  0  0  0  0  0  0  0  0
   36.9370   30.6580   48.2950 C   0  0  0  0  0  0  0  0  0  0  0  0
   35.6420   30.7130   48.6460 N   0  0  0  0  0  0  0  0  0  0  0  0
   35.1660   30.2160   49.8190 C   0  0  0  0  0  0  0  0  0  0  0  0
   36.0420   29.6290   50.6930 N   0  0  0  0  0  0  0  0  0  0  0  0
   38.0610   29.0830   51.0770 H   0  0  0  0  0  0  0  0  0  0  0  0
   38.8580   29.9980   48.9470 H   0  0  0  0  0  0  0  0  0  0  0  0
   34.1250   30.2700   50.0780 H   0  0  0  0  0  0  0  0  0  0  0  0
   36.5250   31.1870   43.4360 C   0  0  0  0  0  0  0  0  0  0  0  0
   36.7890   30.1240   42.6240 C   0  0  0  0  0  0  0  0  0  0  0  0
   36.1820   29.8730   41.4200 C   0  0  0  0  0  0  0  0  0  0  0  0
   35.2100   30.7780   40.9780 C   0  0  0  0  0  0  0  0  0  0  0  0
   34.9570   31.8490   41.8130 C   0  0  0  0  0  0  0  0  0  0  0  0
   35.5980   32.0000   42.9570 N   0  0  0  0  0  0  0  0  0  0  0  0
   37.5400   29.3860   42.9220 H   0  0  0  0  0  0  0  0  0  0  0  0
   36.4160   29.0120   40.7930 H   0  0  0  0  0  0  0  0  0  0  0  0
   34.7450   30.5820   40.0490 H   0  0  0  0  0  0  0  0  0  0  0  0
   32.6590   32.7630   41.9410 C   0  0  0  0  0  0  0  0  0  0  0  0
   33.9580   32.8360   41.4230 C   0  0  0  0  0  0  0  0  0  0  0  0
   34.2210   33.8690   40.5470 C   0  0  0  0  0  0  0  0  0  0  0  0
   35.1890   33.9910   40.1090 H   0  0  0  0  0  0  0  0  0  0  0  0
   33.3090   34.8250   40.1500 C   0  0  0  0  0  0  0  0  0  0  0  0
   33.5500   35.6200   39.4610 H   0  0  0  0  0  0  0  0  0  0  0  0
   32.0300   34.7600   40.6560 C   0  0  0  0  0  3  0  0  0  0  0  0
   31.7400   33.7390   41.5320 C   0  0  0  0  0  3  0  0  0  0  0  0
   33.0760   31.3400   44.0890 H   0  0  0  0  0  0  0  0  0  0  0  0
   32.1890   31.5090   43.0590 S   0  0  0  0  0  0  0  0  0  0  0  0
   31.8130   30.2250   42.3860 O   0  0  0  0  0  0  0  0  0  0  0  0
   30.9080   31.9820   43.7350 O   0  0  0  0  0  0  0  0  0  0  0  0
   40.1560   33.3190   45.9030 C   0  0  0  0  0  0  0  0  0  0  0  0
   40.0760   34.2820   44.9630 F   0  0  0  0  0  0  0  0  0  0  0  0
   41.3220   32.6090   45.6270 F   0  0  0  0  0  0  0  0  0  0  0  0
   40.2620   33.9450   47.1500 F   0  0  0  0  0  0  0  0  0  0  0  0
  1 12  1  0  0  0  0
  2  1  1  0  0  0  0
  3  4  1  0  0  0  0
  3  2  2  0  0  0  0
  4  6  1  0  0  0  0
  5  4  2  0  0  0  0
  6 40  1  0  0  0  0
  6  7  1  0  0  0  0
  7  1  1  0  0  0  0
  7  8  2  0  0  0  0
  9  2  1  0  0  0  0
 10 15  1  0  0  0  0
 10 16  1  0  0  0  0
 11 10  2  0  0  0  0
 12 13  2  0  0  0  0
 12 11  1  0  0  0  0
 13 14  1  0  0  0  0
 14 18  1  0  0  0  0
 14 15  2  0  0  0  0
 17 11  1  0  0  0  0
 19  3  1  0  0  0  0
 20 25  1  0  0  0  0
 20 19  2  0  0  0  0
 21 20  1  0  0  0  0
 22 21  2  0  0  0  0
 22 23  1  0  0  0  0
 23 24  2  0  0  0  0
 24 19  1  0  0  0  0
 26 21  1  0  0  0  0
 27 22  1  0  0  0  0
 28 37  1  0  0  0  0
 29 23  1  0  0  0  0
 29 28  2  0  0  0  0
 30 29  1  0  0  0  0
 31 30  1  0  0  0  0
 32 30  2  0  0  0  0
 32 34  1  0  0  0  0
 33 32  1  0  0  0  0
 34 35  2  0  0  0  0
 35 28  1  0  0  0  0
 37 39  2  0  0  0  0
 37 36  1  0  0  0  0
 38 37  2  0  0  0  0
 40 43  1  0  0  0  0
 41 40  1  0  0  0  0
 42 40  1  0  0  0  0
M  END
>  <minimizedAffinity>
-6.40171242

>  <minimizedRMSD>
0.410334766

$$$$
