
 OpenBabel03272508543D

 41 44  0  0  1  0  0  0  0  0999 V2000
   38.5670   31.3240   43.8920 C   0  0  0  0  0  0  0  0  0  0  0  0
   39.9320   31.2560   43.8990 C   0  0  0  0  0  0  0  0  0  0  0  0
   40.5520   31.1160   42.6740 C   0  0  0  0  0  0  0  0  0  0  0  0
   39.7930   31.0540   41.5460 C   0  0  0  0  0  0  0  0  0  0  0  0
   38.4200   31.1240   41.5260 C   0  0  0  0  0  0  0  0  0  0  0  0
   37.8880   31.2570   42.7420 N   0  0  0  0  0  0  0  0  0  0  0  0
   40.5410   31.3050   44.7930 H   0  0  0  0  0  0  0  0  0  0  0  0
   41.6220   31.0590   42.6480 H   0  0  0  0  0  0  0  0  0  0  0  0
   40.3260   30.9030   40.6370 H   0  0  0  0  0  0  0  0  0  0  0  0
   36.9460   32.0110   39.6630 C   0  0  0  0  0  0  0  0  0  0  0  0
   37.5000   31.0250   40.4370 C   0  0  0  0  0  0  0  0  0  0  0  0
   37.0440   29.7430   40.1030 C   0  0  0  0  0  0  0  0  0  0  0  0
   37.4240   28.8750   40.6660 H   0  0  0  0  0  0  0  0  0  0  0  0
   36.1430   29.4320   39.1140 C   0  0  0  0  0  0  0  0  0  0  0  0
   35.8470   28.4240   38.9210 H   0  0  0  0  0  0  0  0  0  0  0  0
   35.6210   30.4580   38.3650 C   0  0  0  0  0  3  0  0  0  0  0  0
   36.0380   31.7350   38.6590 C   0  0  0  0  0  3  0  0  0  0  0  0
   36.6640   34.4450   38.9690 H   0  0  0  0  0  0  0  0  0  0  0  0
   37.2940   33.6670   39.9750 S   0  0  0  0  0  0  0  0  0  0  0  0
   36.7170   34.2200   41.2330 O   0  0  0  0  0  0  0  0  0  0  0  0
   38.7360   34.0480   39.8460 O   0  0  0  0  0  0  0  0  0  0  0  0
   37.8540   31.4670   45.1850 C   0  0  0  0  0  0  0  0  0  0  0  0
   36.8020   30.8080   45.4260 O   0  0  0  0  0  0  0  0  0  0  0  0
   38.3960   32.3750   46.1480 N   0  0  0  0  0  0  0  0  0  0  0  0
   39.1530   33.0670   45.9520 H   0  0  0  0  0  0  0  0  0  0  0  0
   38.4570   31.4430   48.4610 C   0  0  2  0  0  0  0  0  0  0  0  0
   38.8100   32.8670   48.5720 C   0  0  0  0  0  0  0  0  0  0  0  0
   37.8420   32.3180   47.4960 C   0  0  1  0  0  0  0  0  0  0  0  0
   39.3340   30.8040   48.1700 H   0  0  0  0  0  0  0  0  0  0  0  0
   39.7840   33.2400   48.2350 H   0  0  0  0  0  0  0  0  0  0  0  0
   38.3210   33.5190   49.3200 H   0  0  0  0  0  0  0  0  0  0  0  0
   36.7760   32.6410   47.6170 H   0  0  0  0  0  0  0  0  0  0  0  0
   35.6780   29.5570   49.9900 C   0  0  0  0  0  0  0  0  0  0  0  0
   36.0940   29.4500   51.3560 C   0  0  0  0  0  0  0  0  0  0  0  0
   37.3470   30.0540   51.7100 C   0  0  0  0  0  0  0  0  0  0  0  0
   38.0690   30.6880   50.7550 N   0  0  0  0  0  0  0  0  0  0  0  0
   37.6160   30.7530   49.4740 C   0  0  0  0  0  0  0  0  0  0  0  0
   36.4230   30.1970   49.0580 N   0  0  0  0  0  0  0  0  0  0  0  0
   34.7320   29.0970   49.7380 H   0  0  0  0  0  0  0  0  0  0  0  0
   35.4690   28.9310   52.0660 H   0  0  0  0  0  0  0  0  0  0  0  0
   37.6510   29.9710   52.7320 H   0  0  0  0  0  0  0  0  0  0  0  0
  1  2  1  0  0  0  0
  1 22  1  0  0  0  0
  2  7  1  0  0  0  0
  3  2  2  0  0  0  0
  4  3  1  0  0  0  0
  5  4  2  0  0  0  0
  5  6  1  0  0  0  0
  6  1  2  0  0  0  0
  8  3  1  0  0  0  0
  9  4  1  0  0  0  0
 10 19  1  0  0  0  0
 10 11  1  0  0  0  0
 11  5  1  0  0  0  0
 12 11  2  0  0  0  0
 12 13  1  0  0  0  0
 14 12  1  0  0  0  0
 15 14  1  0  0  0  0
 16 17  1  0  0  0  0
 16 14  2  0  0  0  0
 17 10  2  0  0  0  0
 18 19  1  0  0  0  0
 19 20  2  0  0  0  0
 21 19  2  0  0  0  0
 22 23  2  0  0  0  0
 22 24  1  0  0  0  0
 24 28  1  0  0  0  0
 25 24  1  0  0  0  0
 26 29  1  6  0  0  0
 26 27  1  0  0  0  0
 26 37  1  0  0  0  0
 27 31  1  0  0  0  0
 28 32  1  1  0  0  0
 28 26  1  0  0  0  0
 28 27  1  0  0  0  0
 30 27  1  0  0  0  0
 33 34  1  0  0  0  0
 34 35  2  0  0  0  0
 34 40  1  0  0  0  0
 35 41  1  0  0  0  0
 36 35  1  0  0  0  0
 37 36  2  0  0  0  0
 38 37  1  0  0  0  0
 38 33  2  0  0  0  0
 39 33  1  0  0  0  0
M  END
>  <minimizedAffinity>
-5.21036291

>  <minimizedRMSD>
1.95417464

$$$$
