
 OpenBabel03272508543D

 41 44  0  0  1  0  0  0  0  0999 V2000
   38.7330   31.4830   44.0780 C   0  0  0  0  0  0  0  0  0  0  0  0
   39.9940   30.9560   44.1070 C   0  0  0  0  0  0  0  0  0  0  0  0
   40.6610   30.8790   42.9020 C   0  0  0  0  0  0  0  0  0  0  0  0
   40.0470   31.3210   41.7710 C   0  0  0  0  0  0  0  0  0  0  0  0
   38.7810   31.8550   41.7290 C   0  0  0  0  0  0  0  0  0  0  0  0
   38.1950   31.8980   42.9260 N   0  0  0  0  0  0  0  0  0  0  0  0
   40.4870   30.6030   45.0040 H   0  0  0  0  0  0  0  0  0  0  0  0
   41.6510   30.4690   42.8930 H   0  0  0  0  0  0  0  0  0  0  0  0
   40.5960   31.1950   40.8670 H   0  0  0  0  0  0  0  0  0  0  0  0
   37.1950   31.6010   39.7660 C   0  0  0  0  0  0  0  0  0  0  0  0
   37.9990   32.3090   40.6220 C   0  0  0  0  0  0  0  0  0  0  0  0
   38.0660   33.6730   40.3120 C   0  0  0  0  0  0  0  0  0  0  0  0
   38.6880   34.3350   40.9360 H   0  0  0  0  0  0  0  0  0  0  0  0
   37.4190   34.3060   39.2780 C   0  0  0  0  0  0  0  0  0  0  0  0
   37.5230   35.3560   39.1090 H   0  0  0  0  0  0  0  0  0  0  0  0
   36.6220   33.5500   38.4520 C   0  0  0  0  0  0  0  0  0  0  0  0
   36.5280   32.2040   38.7170 C   0  0  0  0  0  0  0  0  0  0  0  0
   36.1490   29.4420   38.9130 H   0  0  0  0  0  0  0  0  0  0  0  0
   37.0550   29.8930   39.9100 S   0  0  0  0  0  0  0  0  0  0  0  0
   38.2920   29.1180   39.6100 O   0  0  0  0  0  0  0  0  0  0  0  0
   36.4270   29.4120   41.1810 O   0  0  0  0  0  0  0  0  0  0  0  0
   37.9710   31.5810   45.3480 C   0  0  0  0  0  0  0  0  0  0  0  0
   36.9330   30.8860   45.5400 O   0  0  0  0  0  0  0  0  0  0  0  0
   38.4530   32.4860   46.3450 N   0  0  0  0  0  0  0  0  0  0  0  0
   39.1950   33.2030   46.1880 H   0  0  0  0  0  0  0  0  0  0  0  0
   38.4640   31.5130   48.6430 C   0  0  2  0  0  0  0  0  0  0  0  0
   38.7680   32.9450   48.7900 C   0  0  0  0  0  0  0  0  0  0  0  0
   37.8540   32.3860   47.6720 C   0  0  1  0  0  0  0  0  0  0  0  0
   39.3700   30.9070   48.3710 H   0  0  0  0  0  0  0  0  0  0  0  0
   39.7400   33.3540   48.4940 H   0  0  0  0  0  0  0  0  0  0  0  0
   38.2320   33.5670   49.5320 H   0  0  0  0  0  0  0  0  0  0  0  0
   36.7750   32.6730   47.7610 H   0  0  0  0  0  0  0  0  0  0  0  0
   35.6610   29.5710   50.0540 C   0  0  0  0  0  0  0  0  0  0  0  0
   36.0650   29.3930   51.4160 C   0  0  0  0  0  0  0  0  0  0  0  0
   37.3200   29.9700   51.8100 C   0  0  0  0  0  0  0  0  0  0  0  0
   38.0530   30.6460   50.8930 N   0  0  0  0  0  0  0  0  0  0  0  0
   37.6110   30.7780   49.6130 C   0  0  0  0  0  0  0  0  0  0  0  0
   36.4170   30.2520   49.1610 N   0  0  0  0  0  0  0  0  0  0  0  0
   34.7140   29.1310   49.7720 H   0  0  0  0  0  0  0  0  0  0  0  0
   35.4320   28.8430   52.0950 H   0  0  0  0  0  0  0  0  0  0  0  0
   37.6150   29.8330   52.8280 H   0  0  0  0  0  0  0  0  0  0  0  0
  1  2  1  0  0  0  0
  1 22  1  0  0  0  0
  2  7  1  0  0  0  0
  3  2  2  0  0  0  0
  4  3  1  0  0  0  0
  5  4  2  0  0  0  0
  5  6  1  0  0  0  0
  6  1  2  0  0  0  0
  8  3  1  0  0  0  0
  9  4  1  0  0  0  0
 10 19  1  0  0  0  0
 10 11  1  0  0  0  0
 11  5  1  0  0  0  0
 12 11  2  0  0  0  0
 12 13  1  0  0  0  0
 14 12  1  0  0  0  0
 15 14  1  0  0  0  0
 16 17  1  0  0  0  0
 16 14  2  0  0  0  0
 17 10  2  0  0  0  0
 18 19  1  0  0  0  0
 19 21  2  0  0  0  0
 20 19  2  0  0  0  0
 22 23  2  0  0  0  0
 22 24  1  0  0  0  0
 24 28  1  0  0  0  0
 25 24  1  0  0  0  0
 26 29  1  6  0  0  0
 26 27  1  0  0  0  0
 26 37  1  0  0  0  0
 27 31  1  0  0  0  0
 28 32  1  1  0  0  0
 28 26  1  0  0  0  0
 28 27  1  0  0  0  0
 30 27  1  0  0  0  0
 33 34  1  0  0  0  0
 34 35  2  0  0  0  0
 34 40  1  0  0  0  0
 35 41  1  0  0  0  0
 36 35  1  0  0  0  0
 37 36  2  0  0  0  0
 38 37  1  0  0  0  0
 38 33  2  0  0  0  0
 39 33  1  0  0  0  0
M  END
>  <minimizedAffinity>
-5.38218737

>  <minimizedRMSD>
2.28525901

$$$$
