
 OpenBabel03272501523D

 35 37  0  0  1  0  0  0  0  0999 V2000
   36.5480   29.4810   49.2060 N   0  0  0  0  0  0  0  0  0  0  0  0
   36.6790   28.6670   50.4360 C   0  0  0  0  0  0  0  0  0  0  0  0
   37.3060   29.3640   51.5690 C   0  0  0  0  0  0  0  0  0  0  0  0
   38.1210   30.4920   51.3410 N   0  0  0  0  0  0  0  0  0  0  0  0
   37.7730   31.2560   50.1380 C   0  0  0  0  0  0  0  0  0  0  0  0
   37.7060   30.2470   49.0070 C   0  0  2  0  0  0  0  0  0  0  0  0
   35.6500   28.3460   50.7010 H   0  0  0  0  0  0  0  0  0  0  0  0
   37.2200   27.7380   50.1540 H   0  0  0  0  0  0  0  0  0  0  0  0
   36.5250   29.6050   52.3480 H   0  0  0  0  0  0  0  0  0  0  0  0
   37.9530   28.6050   52.1010 H   0  0  0  0  0  0  0  0  0  0  0  0
   38.0240   31.1570   52.1400 H   0  0  0  0  0  0  0  0  0  0  0  0
   38.5460   32.0270   50.0000 H   0  0  0  0  0  0  0  0  0  0  0  0
   36.7600   31.6900   50.2160 H   0  0  0  0  0  0  0  0  0  0  0  0
   38.6320   29.5790   49.2740 H   0  0  0  0  0  0  0  0  0  0  0  0
   35.3700   29.4070   48.4260 C   0  0  0  0  0  0  0  0  0  0  0  0
   34.8300   30.5160   47.7900 C   0  0  0  0  0  0  0  0  0  0  0  0
   33.6870   30.4290   47.0160 C   0  0  0  0  0  0  0  0  0  0  0  0
   33.1180   29.1750   46.9210 N   0  0  0  0  0  0  0  0  0  0  0  0
   33.6690   28.1000   47.5580 C   0  0  0  0  0  0  0  0  0  0  0  0
   34.7810   28.2020   48.3040 N   0  0  0  0  0  0  0  0  0  0  0  0
   35.2140   31.5090   47.8440 H   0  0  0  0  0  0  0  0  0  0  0  0
   33.2210   31.2530   46.4970 H   0  0  0  0  0  0  0  0  0  0  0  0
   33.2210   27.1290   47.4800 H   0  0  0  0  0  0  0  0  0  0  0  0
   38.5200   32.0840   47.6390 C   0  0  0  0  0  0  0  0  0  0  0  0
   38.0620   30.7570   47.6950 C   0  0  0  0  0  0  0  0  0  0  0  0
   37.9860   30.1620   46.4300 C   0  0  0  0  0  0  0  0  0  0  0  0
   37.6270   29.1300   46.4920 H   0  0  0  0  0  0  0  0  0  0  0  0
   38.2990   30.7260   45.2280 C   0  0  0  0  0  0  0  0  0  0  0  0
   38.1700   30.0910   44.3590 H   0  0  0  0  0  0  0  0  0  0  0  0
   38.7430   32.0290   45.2400 C   0  0  0  0  0  0  0  0  0  0  0  0
   38.8520   32.7000   46.4380 C   0  0  0  0  0  0  0  0  0  0  0  0
   39.1270   32.4880   50.1450 H   0  0  0  0  0  0  0  0  0  0  0  0
   38.7450   33.1380   49.0170 S   0  0  0  0  0  0  0  0  0  0  0  0
   37.4270   33.8180   49.3620 O   0  0  0  0  0  0  0  0  0  0  0  0
   39.8140   34.1630   48.7520 O   0  0  0  0  0  0  0  0  0  0  0  0
  1  2  1  0  0  0  0
  2  7  1  0  0  0  0
  2  3  1  0  0  0  0
  3 10  1  0  0  0  0
  3  9  1  0  0  0  0
  4  3  1  0  0  0  0
  4 11  1  0  0  0  0
  5 13  1  0  0  0  0
  5  4  1  0  0  0  0
  6  1  1  0  0  0  0
  6 14  1  1  0  0  0
  6  5  1  0  0  0  0
  8  2  1  0  0  0  0
 12  5  1  0  0  0  0
 15  1  1  0  0  0  0
 16 21  1  0  0  0  0
 16 15  2  0  0  0  0
 17 16  1  0  0  0  0
 18 17  2  0  0  0  0
 18 19  1  0  0  0  0
 19 20  2  0  0  0  0
 20 15  1  0  0  0  0
 22 17  1  0  0  0  0
 23 19  1  0  0  0  0
 24 25  1  0  0  0  0
 24 33  1  0  0  0  0
 25  6  1  0  0  0  0
 26 27  1  0  0  0  0
 26 25  2  0  0  0  0
 28 30  2  0  0  0  0
 28 26  1  0  0  0  0
 29 28  1  0  0  0  0
 30 31  1  0  0  0  0
 31 24  2  0  0  0  0
 33 34  2  0  0  0  0
 33 32  1  0  0  0  0
 35 33  2  0  0  0  0
M  END
>  <minimizedAffinity>
-5.3840909

>  <minimizedRMSD>
1.35334742

$$$$
