
 OpenBabel03272510343D

 31 33  0  0  0  0  0  0  0  0999 V2000
   33.2150   28.3630   47.6370 C   0  0  0  0  0  0  0  0  0  0  0  0
   33.9400   27.9940   48.7540 C   0  0  0  0  0  0  0  0  0  0  0  0
   35.1230   28.6290   49.0820 C   0  0  0  0  0  0  0  0  0  0  0  0
   35.5630   29.6500   48.2600 C   0  0  0  0  0  0  0  0  0  0  0  0
   34.8520   30.0480   47.1220 C   0  0  0  0  0  0  0  0  0  0  0  0
   33.6760   29.3870   46.8300 C   0  0  0  0  0  0  0  0  0  0  0  0
   33.5960   27.1910   49.4030 H   0  0  0  0  0  0  0  0  0  0  0  0
   35.6530   28.3020   49.9660 H   0  0  0  0  0  0  0  0  0  0  0  0
   36.5080   30.0980   48.5950 H   0  0  0  0  0  0  0  0  0  0  0  0
   35.2760   30.8500   46.5480 H   0  0  0  0  0  0  0  0  0  0  0  0
   29.7350   27.3580   47.9210 C   0  0  0  0  0  0  0  0  0  0  0  0
   29.5930   26.3430   46.9470 C   0  0  0  0  0  0  0  0  0  0  0  0
   30.7460   26.0090   46.1770 C   0  0  0  0  0  0  0  0  0  0  0  0
   31.8850   26.6870   46.4360 N   0  0  0  0  0  0  0  0  0  0  0  0
   31.9770   27.6450   47.3690 C   0  0  0  0  0  0  0  0  0  0  0  0
   30.9020   27.9810   48.1120 N   0  0  0  0  0  0  0  0  0  0  0  0
   28.8380   27.5990   48.4990 H   0  0  0  0  0  0  0  0  0  0  0  0
   28.6520   25.8310   46.7860 H   0  0  0  0  0  0  0  0  0  0  0  0
   30.6490   25.2370   45.4320 H   0  0  0  0  0  0  0  0  0  0  0  0
   33.1580   29.4950   44.3090 C   0  0  0  0  0  0  0  0  0  0  0  0
   32.9330   29.7860   45.6390 C   0  0  0  0  0  0  0  0  0  0  0  0
   31.8310   30.5770   45.9610 C   0  0  0  0  0  0  0  0  0  0  0  0
   31.5100   30.8980   46.9540 H   0  0  0  0  0  0  0  0  0  0  0  0
   30.9820   31.0570   44.9640 C   0  0  0  0  0  0  0  0  0  0  0  0
   30.1160   31.6730   45.1520 H   0  0  0  0  0  0  0  0  0  0  0  0
   31.2380   30.7460   43.6240 C   0  0  0  0  0  3  0  0  0  0  0  0
   32.3340   29.9630   43.3350 C   0  0  0  0  0  3  0  0  0  0  0  0
   34.5590   28.1170   42.7130 H   0  0  0  0  0  0  0  0  0  0  0  0
   34.5660   28.5000   44.0310 S   0  0  0  0  0  0  0  0  0  0  0  0
   34.4580   27.2780   44.8760 O   0  0  0  0  0  0  0  0  0  0  0  0
   35.8430   29.1960   44.3620 O   0  0  0  0  0  0  0  0  0  0  0  0
  1  2  1  0  0  0  0
  2  3  2  0  0  0  0
  2  7  1  0  0  0  0
  3  8  1  0  0  0  0
  4  9  1  0  0  0  0
  4  3  1  0  0  0  0
  5  4  2  0  0  0  0
  6  5  1  0  0  0  0
  6  1  2  0  0  0  0
 10  5  1  0  0  0  0
 11 16  1  0  0  0  0
 11 17  1  0  0  0  0
 12 11  2  0  0  0  0
 13 14  2  0  0  0  0
 13 12  1  0  0  0  0
 14 15  1  0  0  0  0
 15  1  1  0  0  0  0
 15 16  2  0  0  0  0
 18 12  1  0  0  0  0
 19 13  1  0  0  0  0
 20 21  1  0  0  0  0
 21 22  2  0  0  0  0
 21  6  1  0  0  0  0
 22 23  1  0  0  0  0
 24 25  1  0  0  0  0
 24 22  1  0  0  0  0
 26 24  2  0  0  0  0
 27 26  1  0  0  0  0
 27 20  2  0  0  0  0
 28 29  1  0  0  0  0
 29 20  1  0  0  0  0
 29 31  2  0  0  0  0
 29 30  2  0  0  0  0
M  END
>  <minimizedAffinity>
-3.79421806

>  <minimizedRMSD>
7.59345579

$$$$
