
 OpenBabel03272508313D

 35 37  0  0  1  0  0  0  0  0999 V2000
   36.8870   24.5820   31.8620 N   0  0  0  0  0  0  0  0  0  0  0  0
   35.5280   24.2080   31.4730 C   0  0  0  0  0  0  0  0  0  0  0  0
   34.8040   25.2850   30.7600 C   0  0  0  0  0  0  0  0  0  0  0  0
   35.7060   26.2880   30.2660 N   0  0  0  0  0  0  0  0  0  0  0  0
   36.3030   26.9080   31.4440 C   0  0  0  0  0  0  0  0  0  0  0  0
   37.3710   25.9360   31.8600 C   0  0  1  0  0  0  0  0  0  0  0  0
   34.9540   23.8360   32.3610 H   0  0  0  0  0  0  0  0  0  0  0  0
   35.6370   23.3440   30.7800 H   0  0  0  0  0  0  0  0  0  0  0  0
   34.2090   24.9200   29.8930 H   0  0  0  0  0  0  0  0  0  0  0  0
   34.0640   25.7400   31.4620 H   0  0  0  0  0  0  0  0  0  0  0  0
   35.2750   26.9800   29.6400 H   0  0  0  0  0  0  0  0  0  0  0  0
   36.6900   27.9010   31.2500 H   0  0  0  0  0  0  0  0  0  0  0  0
   35.5430   26.9380   32.2680 H   0  0  0  0  0  0  0  0  0  0  0  0
   38.1860   25.9370   31.0970 H   0  0  0  0  0  0  0  0  0  0  0  0
   38.7410   23.0590   31.3590 C   0  0  0  0  0  0  0  0  0  0  0  0
   37.7620   23.5390   32.2590 C   0  0  0  0  0  0  0  0  0  0  0  0
   37.7030   22.9540   33.5120 C   0  0  0  0  0  0  0  0  0  0  0  0
   38.6000   21.9440   33.8010 N   0  0  0  0  0  0  0  0  0  0  0  0
   39.5150   21.5230   32.9080 C   0  0  0  0  0  0  0  0  0  0  0  0
   39.6100   22.0650   31.6710 N   0  0  0  0  0  0  0  0  0  0  0  0
   38.8310   23.4800   30.3700 H   0  0  0  0  0  0  0  0  0  0  0  0
   36.9870   23.2730   34.2300 H   0  0  0  0  0  0  0  0  0  0  0  0
   40.1610   20.7240   33.2560 H   0  0  0  0  0  0  0  0  0  0  0  0
   39.3160   26.5750   33.2690 C   0  0  0  0  0  0  0  0  0  0  0  0
   37.9590   26.3470   33.1550 C   0  0  0  0  0  0  0  0  0  0  0  0
   37.1920   26.5230   34.3050 C   0  0  0  0  0  0  0  0  0  0  0  0
   36.1280   26.3540   34.2560 H   0  0  0  0  0  0  0  0  0  0  0  0
   37.7720   26.9090   35.5050 C   0  0  0  0  0  0  0  0  0  0  0  0
   37.1890   27.0500   36.4100 H   0  0  0  0  0  0  0  0  0  0  0  0
   39.1400   27.1350   35.6040 C   0  0  0  0  0  3  0  0  0  0  0  0
   39.8840   26.9610   34.4710 C   0  0  0  0  0  3  0  0  0  0  0  0
   39.8220   26.4000   30.7140 H   0  0  0  0  0  0  0  0  0  0  0  0
   40.4000   26.4000   31.9300 S   0  0  0  0  0  0  0  0  0  0  0  0
   41.3390   25.2230   32.1510 O   0  0  0  0  0  0  0  0  0  0  0  0
   41.3100   27.6230   31.9520 O   0  0  0  0  0  0  0  0  0  0  0  0
  1 16  1  0  0  0  0
  2  1  1  0  0  0  0
  2  7  1  0  0  0  0
  3 10  1  0  0  0  0
  3  2  1  0  0  0  0
  4  3  1  0  0  0  0
  4  5  1  0  0  0  0
  5  6  1  0  0  0  0
  5 13  1  0  0  0  0
  6 14  1  6  0  0  0
  6  1  1  0  0  0  0
  6 25  1  0  0  0  0
  8  2  1  0  0  0  0
  9  3  1  0  0  0  0
 11  4  1  0  0  0  0
 12  5  1  0  0  0  0
 15 20  2  0  0  0  0
 15 16  1  0  0  0  0
 16 17  2  0  0  0  0
 17 18  1  0  0  0  0
 17 22  1  0  0  0  0
 19 23  1  0  0  0  0
 19 18  2  0  0  0  0
 20 19  1  0  0  0  0
 21 15  1  0  0  0  0
 24 31  1  0  0  0  0
 25 24  2  0  0  0  0
 25 26  1  0  0  0  0
 26 28  2  0  0  0  0
 27 26  1  0  0  0  0
 28 30  1  0  0  0  0
 28 29  1  0  0  0  0
 31 30  2  0  0  0  0
 32 33  1  0  0  0  0
 33 35  2  0  0  0  0
 33 34  2  0  0  0  0
 33 24  1  0  0  0  0
M  END
>  <minimizedAffinity>
-4.81128073

$$$$

 OpenBabel03272508313D

 35 37  0  0  1  0  0  0  0  0999 V2000
   40.3030   23.8990   35.2420 N   0  0  0  0  0  0  0  0  0  0  0  0
   40.9860   23.2510   36.3610 C   0  0  0  0  0  0  0  0  0  0  0  0
   40.1190   22.3200   37.1180 C   0  0  0  0  0  0  0  0  0  0  0  0
   38.9490   21.9620   36.3660 N   0  0  0  0  0  0  0  0  0  0  0  0
   38.1820   23.1920   36.2060 C   0  0  0  0  0  0  0  0  0  0  0  0
   38.8750   23.9020   35.0770 C   0  0  1  0  0  0  0  0  0  0  0  0
   41.4590   24.0180   37.0290 H   0  0  0  0  0  0  0  0  0  0  0  0
   41.8190   22.6650   35.9110 H   0  0  0  0  0  0  0  0  0  0  0  0
   40.6310   21.3730   37.4050 H   0  0  0  0  0  0  0  0  0  0  0  0
   39.8290   22.8070   38.0800 H   0  0  0  0  0  0  0  0  0  0  0  0
   38.3880   21.2070   36.7820 H   0  0  0  0  0  0  0  0  0  0  0  0
   37.1310   23.0130   36.0090 H   0  0  0  0  0  0  0  0  0  0  0  0
   38.3080   23.8250   37.1220 H   0  0  0  0  0  0  0  0  0  0  0  0
   38.7050   23.3380   34.1280 H   0  0  0  0  0  0  0  0  0  0  0  0
   41.8470   25.7040   34.6380 C   0  0  0  0  0  0  0  0  0  0  0  0
   41.1100   24.5530   34.2770 C   0  0  0  0  0  0  0  0  0  0  0  0
   41.2150   24.1110   32.9700 C   0  0  0  0  0  0  0  0  0  0  0  0
   42.0270   24.8180   32.1060 N   0  0  0  0  0  0  0  0  0  0  0  0
   42.7100   25.9110   32.5000 C   0  0  0  0  0  0  0  0  0  0  0  0
   42.6390   26.3800   33.7680 N   0  0  0  0  0  0  0  0  0  0  0  0
   41.8030   26.0910   35.6430 H   0  0  0  0  0  0  0  0  0  0  0  0
   40.6830   23.2510   32.6410 H   0  0  0  0  0  0  0  0  0  0  0  0
   43.3130   26.3770   31.7290 H   0  0  0  0  0  0  0  0  0  0  0  0
   37.6270   25.5960   33.7540 C   0  0  0  0  0  0  0  0  0  0  0  0
   38.3100   25.2600   34.9050 C   0  0  0  0  0  0  0  0  0  0  0  0
   38.4360   26.2520   35.8750 C   0  0  0  0  0  0  0  0  0  0  0  0
   38.9630   26.0280   36.7890 H   0  0  0  0  0  0  0  0  0  0  0  0
   37.8960   27.5160   35.6860 C   0  0  0  0  0  0  0  0  0  0  0  0
   37.9840   28.3010   36.4320 H   0  0  0  0  0  0  0  0  0  0  0  0
   37.2100   27.8390   34.5210 C   0  0  0  0  0  3  0  0  0  0  0  0
   37.0920   26.8600   33.5750 C   0  0  0  0  0  3  0  0  0  0  0  0
   37.4700   23.1720   32.7970 H   0  0  0  0  0  0  0  0  0  0  0  0
   37.3880   24.4730   32.4570 S   0  0  0  0  0  0  0  0  0  0  0  0
   38.2540   24.8400   31.2630 O   0  0  0  0  0  0  0  0  0  0  0  0
   35.9580   24.6790   31.9700 O   0  0  0  0  0  0  0  0  0  0  0  0
  1  2  1  0  0  0  0
  2  7  1  0  0  0  0
  2  3  1  0  0  0  0
  3  9  1  0  0  0  0
  3 10  1  0  0  0  0
  4 11  1  0  0  0  0
  4  3  1  0  0  0  0
  5  4  1  0  0  0  0
  5 13  1  0  0  0  0
  6 14  1  6  0  0  0
  6  1  1  0  0  0  0
  6  5  1  0  0  0  0
  8  2  1  0  0  0  0
 12  5  1  0  0  0  0
 15 21  1  0  0  0  0
 16 15  1  0  0  0  0
 16  1  1  0  0  0  0
 17 16  2  0  0  0  0
 18 19  2  0  0  0  0
 18 17  1  0  0  0  0
 19 20  1  0  0  0  0
 20 15  2  0  0  0  0
 22 17  1  0  0  0  0
 23 19  1  0  0  0  0
 24 25  1  0  0  0  0
 25  6  1  0  0  0  0
 25 26  2  0  0  0  0
 26 27  1  0  0  0  0
 28 26  1  0  0  0  0
 28 29  1  0  0  0  0
 30 28  2  0  0  0  0
 31 24  2  0  0  0  0
 31 30  1  0  0  0  0
 33 32  1  0  0  0  0
 33 24  1  0  0  0  0
 34 33  2  0  0  0  0
 35 33  2  0  0  0  0
M  END
>  <minimizedAffinity>
-4.71565056

$$$$

 OpenBabel03272508313D

 35 37  0  0  1  0  0  0  0  0999 V2000
   39.2780   25.5800   31.3730 N   0  0  0  0  0  0  0  0  0  0  0  0
   39.9750   26.2760   30.2920 C   0  0  0  0  0  0  0  0  0  0  0  0
   41.4410   26.0690   30.3100 C   0  0  0  0  0  0  0  0  0  0  0  0
   41.8030   24.9390   31.1190 N   0  0  0  0  0  0  0  0  0  0  0  0
   41.4240   25.2840   32.4850 C   0  0  0  0  0  0  0  0  0  0  0  0
   39.9440   25.0280   32.5220 C   0  0  1  0  0  0  0  0  0  0  0  0
   39.7070   27.3650   30.2900 H   0  0  0  0  0  0  0  0  0  0  0  0
   39.5740   25.8470   29.3460 H   0  0  0  0  0  0  0  0  0  0  0  0
   41.8780   25.9050   29.2980 H   0  0  0  0  0  0  0  0  0  0  0  0
   41.9260   26.9970   30.6990 H   0  0  0  0  0  0  0  0  0  0  0  0
   42.7910   24.6620   31.0500 H   0  0  0  0  0  0  0  0  0  0  0  0
   41.9680   24.7170   33.2310 H   0  0  0  0  0  0  0  0  0  0  0  0
   41.5750   26.3840   32.6410 H   0  0  0  0  0  0  0  0  0  0  0  0
   39.7590   23.9290   32.4470 H   0  0  0  0  0  0  0  0  0  0  0  0
   37.2900   24.1760   31.0840 C   0  0  0  0  0  0  0  0  0  0  0  0
   37.8700   25.4520   31.2650 C   0  0  0  0  0  0  0  0  0  0  0  0
   37.0170   26.5400   31.3290 C   0  0  0  0  0  0  0  0  0  0  0  0
   35.6600   26.3100   31.2120 N   0  0  0  0  0  0  0  0  0  0  0  0
   35.1560   25.0730   31.0410 C   0  0  0  0  0  0  0  0  0  0  0  0
   35.9520   23.9790   30.9730 N   0  0  0  0  0  0  0  0  0  0  0  0
   37.9090   23.2940   31.0290 H   0  0  0  0  0  0  0  0  0  0  0  0
   37.3970   27.5240   31.4620 H   0  0  0  0  0  0  0  0  0  0  0  0
   34.0760   25.0250   30.9640 H   0  0  0  0  0  0  0  0  0  0  0  0
   38.8580   24.5970   34.7160 C   0  0  0  0  0  0  0  0  0  0  0  0
   39.3770   25.4970   33.8060 C   0  0  0  0  0  0  0  0  0  0  0  0
   39.3360   26.8440   34.1600 C   0  0  0  0  0  0  0  0  0  0  0  0
   39.7320   27.5780   33.4770 H   0  0  0  0  0  0  0  0  0  0  0  0
   38.7980   27.2540   35.3720 C   0  0  0  0  0  0  0  0  0  0  0  0
   38.7590   28.2990   35.6630 H   0  0  0  0  0  0  0  0  0  0  0  0
   38.2800   26.3360   36.2770 C   0  0  0  0  0  3  0  0  0  0  0  0
   38.3240   25.0170   35.9220 C   0  0  0  0  0  3  0  0  0  0  0  0
   39.7470   22.4460   33.5320 H   0  0  0  0  0  0  0  0  0  0  0  0
   38.8370   22.8910   34.4210 S   0  0  0  0  0  0  0  0  0  0  0  0
   37.4230   22.4150   34.1250 O   0  0  0  0  0  0  0  0  0  0  0  0
   39.1950   22.2230   35.7430 O   0  0  0  0  0  0  0  0  0  0  0  0
  1  6  1  0  0  0  0
  2  3  1  0  0  0  0
  2  1  1  0  0  0  0
  3 10  1  0  0  0  0
  3  4  1  0  0  0  0
  4  5  1  0  0  0  0
  5  6  1  0  0  0  0
  5 13  1  0  0  0  0
  5 12  1  0  0  0  0
  6 14  1  6  0  0  0
  6 25  1  0  0  0  0
  7  2  1  0  0  0  0
  8  2  1  0  0  0  0
  9  3  1  0  0  0  0
 11  4  1  0  0  0  0
 15 16  1  0  0  0  0
 16 17  2  0  0  0  0
 16  1  1  0  0  0  0
 17 22  1  0  0  0  0
 18 17  1  0  0  0  0
 19 18  2  0  0  0  0
 20 19  1  0  0  0  0
 20 15  2  0  0  0  0
 21 15  1  0  0  0  0
 23 19  1  0  0  0  0
 24 31  1  0  0  0  0
 25 26  1  0  0  0  0
 25 24  2  0  0  0  0
 26 28  2  0  0  0  0
 27 26  1  0  0  0  0
 28 29  1  0  0  0  0
 28 30  1  0  0  0  0
 31 30  2  0  0  0  0
 32 33  1  0  0  0  0
 33 24  1  0  0  0  0
 33 35  2  0  0  0  0
 34 33  2  0  0  0  0
M  END
>  <minimizedAffinity>
-4.5555892

$$$$

 OpenBabel03272508313D

 35 37  0  0  1  0  0  0  0  0999 V2000
   38.8410   24.7880   33.4470 N   0  0  0  0  0  0  0  0  0  0  0  0
   38.1410   25.7660   32.6150 C   0  0  0  0  0  0  0  0  0  0  0  0
   38.6530   27.1460   32.7740 C   0  0  0  0  0  0  0  0  0  0  0  0
   39.9510   27.1570   33.3880 N   0  0  0  0  0  0  0  0  0  0  0  0
   39.7630   26.6350   34.7370 C   0  0  0  0  0  0  0  0  0  0  0  0
   39.7020   25.1460   34.5410 C   0  0  1  0  0  0  0  0  0  0  0  0
   37.0340   25.7090   32.7900 H   0  0  0  0  0  0  0  0  0  0  0  0
   38.3130   25.4490   31.5620 H   0  0  0  0  0  0  0  0  0  0  0  0
   38.7380   27.7010   31.8120 H   0  0  0  0  0  0  0  0  0  0  0  0
   37.9260   27.7260   33.3920 H   0  0  0  0  0  0  0  0  0  0  0  0
   40.4160   28.0740   33.3900 H   0  0  0  0  0  0  0  0  0  0  0  0
   40.5470   26.9370   35.4220 H   0  0  0  0  0  0  0  0  0  0  0  0
   38.7610   26.9600   35.1200 H   0  0  0  0  0  0  0  0  0  0  0  0
   40.7090   24.7750   34.2320 H   0  0  0  0  0  0  0  0  0  0  0  0
   39.6770   22.6830   32.5090 C   0  0  0  0  0  0  0  0  0  0  0  0
   38.6470   23.4170   33.1420 C   0  0  0  0  0  0  0  0  0  0  0  0
   37.4750   22.7460   33.4410 C   0  0  0  0  0  0  0  0  0  0  0  0
   37.3850   21.4100   33.1030 N   0  0  0  0  0  0  0  0  0  0  0  0
   38.3960   20.7550   32.5000 C   0  0  0  0  0  0  0  0  0  0  0  0
   39.5620   21.3700   32.1880 N   0  0  0  0  0  0  0  0  0  0  0  0
   40.6120   23.1570   32.2550 H   0  0  0  0  0  0  0  0  0  0  0  0
   36.6660   23.2460   33.9160 H   0  0  0  0  0  0  0  0  0  0  0  0
   38.2030   19.7100   32.2870 H   0  0  0  0  0  0  0  0  0  0  0  0
   40.1640   23.5130   36.3560 C   0  0  0  0  0  0  0  0  0  0  0  0
   39.3400   24.4780   35.8110 C   0  0  0  0  0  0  0  0  0  0  0  0
   38.1740   24.7790   36.5110 C   0  0  0  0  0  0  0  0  0  0  0  0
   37.5050   25.5270   36.1180 H   0  0  0  0  0  0  0  0  0  0  0  0
   37.8620   24.1350   37.7000 C   0  0  0  0  0  0  0  0  0  0  0  0
   36.9580   24.3580   38.2580 H   0  0  0  0  0  0  0  0  0  0  0  0
   38.7020   23.1660   38.2360 C   0  0  0  0  0  3  0  0  0  0  0  0
   39.8430   22.8770   37.5430 C   0  0  0  0  0  3  0  0  0  0  0  0
   42.0680   23.8160   34.5950 H   0  0  0  0  0  0  0  0  0  0  0  0
   41.6480   23.0290   35.6040 S   0  0  0  0  0  0  0  0  0  0  0  0
   41.6090   21.5530   35.2420 O   0  0  0  0  0  0  0  0  0  0  0  0
   42.7250   23.1300   36.6780 O   0  0  0  0  0  0  0  0  0  0  0  0
  1  6  1  0  0  0  0
  2  3  1  0  0  0  0
  2  7  1  0  0  0  0
  2  1  1  0  0  0  0
  3  4  1  0  0  0  0
  3 10  1  0  0  0  0
  4 11  1  0  0  0  0
  4  5  1  0  0  0  0
  5 13  1  0  0  0  0
  5 12  1  0  0  0  0
  6 14  1  6  0  0  0
  6  5  1  0  0  0  0
  6 25  1  0  0  0  0
  8  2  1  0  0  0  0
  9  3  1  0  0  0  0
 15 16  1  0  0  0  0
 16 17  2  0  0  0  0
 16  1  1  0  0  0  0
 17 22  1  0  0  0  0
 18 17  1  0  0  0  0
 19 18  2  0  0  0  0
 20 19  1  0  0  0  0
 20 15  2  0  0  0  0
 21 15  1  0  0  0  0
 23 19  1  0  0  0  0
 24 31  1  0  0  0  0
 25 24  2  0  0  0  0
 25 26  1  0  0  0  0
 26 28  2  0  0  0  0
 27 26  1  0  0  0  0
 28 30  1  0  0  0  0
 28 29  1  0  0  0  0
 31 30  2  0  0  0  0
 32 33  1  0  0  0  0
 33 24  1  0  0  0  0
 33 35  2  0  0  0  0
 34 33  2  0  0  0  0
M  END
>  <minimizedAffinity>
-4.52969456

$$$$

 OpenBabel03272508313D

 35 37  0  0  1  0  0  0  0  0999 V2000
   38.6400   22.5950   34.7550 N   0  0  0  0  0  0  0  0  0  0  0  0
   37.4690   21.8420   34.3100 C   0  0  0  0  0  0  0  0  0  0  0  0
   37.6240   21.2590   32.9580 C   0  0  0  0  0  0  0  0  0  0  0  0
   39.0020   21.2230   32.5560 N   0  0  0  0  0  0  0  0  0  0  0  0
   39.4280   22.6150   32.4520 C   0  0  0  0  0  0  0  0  0  0  0  0
   39.6960   23.0160   33.8750 C   0  0  1  0  0  0  0  0  0  0  0  0
   36.5440   22.4710   34.3900 H   0  0  0  0  0  0  0  0  0  0  0  0
   37.3490   21.0070   35.0380 H   0  0  0  0  0  0  0  0  0  0  0  0
   37.2280   20.2220   32.8740 H   0  0  0  0  0  0  0  0  0  0  0  0
   37.0250   21.8680   32.2380 H   0  0  0  0  0  0  0  0  0  0  0  0
   39.1820   20.6970   31.6910 H   0  0  0  0  0  0  0  0  0  0  0  0
   40.2890   22.7470   31.8080 H   0  0  0  0  0  0  0  0  0  0  0  0
   38.5680   23.2350   32.0890 H   0  0  0  0  0  0  0  0  0  0  0  0
   40.5980   22.4720   34.2460 H   0  0  0  0  0  0  0  0  0  0  0  0
   37.6960   23.6790   36.7410 C   0  0  0  0  0  0  0  0  0  0  0  0
   38.7210   22.9190   36.1330 C   0  0  0  0  0  0  0  0  0  0  0  0
   39.7790   22.5180   36.9310 C   0  0  0  0  0  0  0  0  0  0  0  0
   39.7650   22.8850   38.2630 N   0  0  0  0  0  0  0  0  0  0  0  0
   38.7620   23.6110   38.7940 C   0  0  0  0  0  0  0  0  0  0  0  0
   37.7080   24.0250   38.0530 N   0  0  0  0  0  0  0  0  0  0  0  0
   36.8480   24.0160   36.1660 H   0  0  0  0  0  0  0  0  0  0  0  0
   40.5790   21.9450   36.5290 H   0  0  0  0  0  0  0  0  0  0  0  0
   38.8680   23.8330   39.8500 H   0  0  0  0  0  0  0  0  0  0  0  0
   41.2250   24.9220   34.3290 C   0  0  0  0  0  0  0  0  0  0  0  0
   39.9770   24.4670   33.9520 C   0  0  0  0  0  0  0  0  0  0  0  0
   39.0180   25.4330   33.6550 C   0  0  0  0  0  0  0  0  0  0  0  0
   38.0310   25.1170   33.3570 H   0  0  0  0  0  0  0  0  0  0  0  0
   39.3100   26.7870   33.7360 C   0  0  0  0  0  0  0  0  0  0  0  0
   38.5750   27.5520   33.5080 H   0  0  0  0  0  0  0  0  0  0  0  0
   40.5720   27.2290   34.1170 C   0  0  0  0  0  3  0  0  0  0  0  0
   41.5060   26.2750   34.4060 C   0  0  0  0  0  3  0  0  0  0  0  0
   42.3340   22.5590   34.3770 H   0  0  0  0  0  0  0  0  0  0  0  0
   42.5210   23.8450   34.7290 S   0  0  0  0  0  0  0  0  0  0  0  0
   42.9340   24.0190   36.1820 O   0  0  0  0  0  0  0  0  0  0  0  0
   43.7310   24.3160   33.9300 O   0  0  0  0  0  0  0  0  0  0  0  0
  1 16  1  0  0  0  0
  2  7  1  0  0  0  0
  2  1  1  0  0  0  0
  2  8  1  0  0  0  0
  3  2  1  0  0  0  0
  4  3  1  0  0  0  0
  5  4  1  0  0  0  0
  5  6  1  0  0  0  0
  6 25  1  0  0  0  0
  6 14  1  1  0  0  0
  6  1  1  0  0  0  0
  9  3  1  0  0  0  0
 10  3  1  0  0  0  0
 11  4  1  0  0  0  0
 12  5  1  0  0  0  0
 13  5  1  0  0  0  0
 15 20  1  0  0  0  0
 16 15  2  0  0  0  0
 16 17  1  0  0  0  0
 17 18  2  0  0  0  0
 18 19  1  0  0  0  0
 19 23  1  0  0  0  0
 20 19  2  0  0  0  0
 21 15  1  0  0  0  0
 22 17  1  0  0  0  0
 24 31  1  0  0  0  0
 24 33  1  0  0  0  0
 25 24  2  0  0  0  0
 26 28  2  0  0  0  0
 26 25  1  0  0  0  0
 27 26  1  0  0  0  0
 28 30  1  0  0  0  0
 29 28  1  0  0  0  0
 30 31  2  0  0  0  0
 32 33  1  0  0  0  0
 33 34  2  0  0  0  0
 35 33  2  0  0  0  0
M  END
>  <minimizedAffinity>
-4.48027086

$$$$

 OpenBabel03272508313D

 35 37  0  0  1  0  0  0  0  0999 V2000
   39.0770   23.7410   33.1350 N   0  0  0  0  0  0  0  0  0  0  0  0
   38.9100   23.3660   31.7310 C   0  0  0  0  0  0  0  0  0  0  0  0
   37.8620   22.3430   31.5170 C   0  0  0  0  0  0  0  0  0  0  0  0
   36.9870   22.2400   32.6510 N   0  0  0  0  0  0  0  0  0  0  0  0
   37.8120   21.7540   33.7520 C   0  0  0  0  0  0  0  0  0  0  0  0
   38.5340   22.9830   34.2300 C   0  0  1  0  0  0  0  0  0  0  0  0
   39.8930   23.0560   31.2890 H   0  0  0  0  0  0  0  0  0  0  0  0
   38.6030   24.2960   31.2020 H   0  0  0  0  0  0  0  0  0  0  0  0
   37.2250   22.5410   30.6250 H   0  0  0  0  0  0  0  0  0  0  0  0
   38.3580   21.3620   31.3190 H   0  0  0  0  0  0  0  0  0  0  0  0
   36.1570   21.6520   32.5000 H   0  0  0  0  0  0  0  0  0  0  0  0
   37.2340   21.2750   34.5340 H   0  0  0  0  0  0  0  0  0  0  0  0
   38.5850   21.0510   33.3490 H   0  0  0  0  0  0  0  0  0  0  0  0
   37.8020   23.6760   34.7090 H   0  0  0  0  0  0  0  0  0  0  0  0
   41.1510   25.0360   32.9600 C   0  0  0  0  0  0  0  0  0  0  0  0
   39.8160   24.9190   33.4110 C   0  0  0  0  0  0  0  0  0  0  0  0
   39.2830   25.9840   34.1160 C   0  0  0  0  0  0  0  0  0  0  0  0
   40.0850   27.0870   34.3330 N   0  0  0  0  0  0  0  0  0  0  0  0
   41.3530   27.1500   33.8820 C   0  0  0  0  0  0  0  0  0  0  0  0
   41.9160   26.1330   33.1880 N   0  0  0  0  0  0  0  0  0  0  0  0
   41.6150   24.2360   32.4050 H   0  0  0  0  0  0  0  0  0  0  0  0
   38.2850   25.9520   34.4800 H   0  0  0  0  0  0  0  0  0  0  0  0
   41.8780   28.0680   34.1170 H   0  0  0  0  0  0  0  0  0  0  0  0
   39.3310   22.8870   36.5810 C   0  0  0  0  0  0  0  0  0  0  0  0
   39.5470   22.6170   35.2450 C   0  0  0  0  0  0  0  0  0  0  0  0
   40.7490   21.9940   34.9140 C   0  0  0  0  0  0  0  0  0  0  0  0
   40.9550   21.7670   33.8810 H   0  0  0  0  0  0  0  0  0  0  0  0
   41.6800   21.6630   35.8890 C   0  0  0  0  0  0  0  0  0  0  0  0
   42.6210   21.1770   35.6480 H   0  0  0  0  0  0  0  0  0  0  0  0
   41.4470   21.9410   37.2300 C   0  0  0  0  0  3  0  0  0  0  0  0
   40.2670   22.5520   37.5460 C   0  0  0  0  0  3  0  0  0  0  0  0
   36.7530   23.2930   36.5200 H   0  0  0  0  0  0  0  0  0  0  0  0
   37.8870   23.6560   37.1490 S   0  0  0  0  0  0  0  0  0  0  0  0
   38.0780   25.1630   37.2280 O   0  0  0  0  0  0  0  0  0  0  0  0
   37.7100   23.2180   38.5980 O   0  0  0  0  0  0  0  0  0  0  0  0
  1 16  1  0  0  0  0
  1  6  1  0  0  0  0
  2  1  1  0  0  0  0
  3  2  1  0  0  0  0
  3  4  1  0  0  0  0
  4  5  1  0  0  0  0
  5  6  1  0  0  0  0
  5 12  1  0  0  0  0
  6 14  1  1  0  0  0
  6 25  1  0  0  0  0
  7  2  1  0  0  0  0
  8  2  1  0  0  0  0
  9  3  1  0  0  0  0
 10  3  1  0  0  0  0
 11  4  1  0  0  0  0
 13  5  1  0  0  0  0
 15 20  2  0  0  0  0
 15 16  1  0  0  0  0
 16 17  2  0  0  0  0
 17 18  1  0  0  0  0
 17 22  1  0  0  0  0
 19 23  1  0  0  0  0
 19 18  2  0  0  0  0
 20 19  1  0  0  0  0
 21 15  1  0  0  0  0
 24 33  1  0  0  0  0
 24 31  1  0  0  0  0
 25 24  2  0  0  0  0
 26 25  1  0  0  0  0
 26 28  2  0  0  0  0
 27 26  1  0  0  0  0
 28 30  1  0  0  0  0
 29 28  1  0  0  0  0
 30 31  2  0  0  0  0
 32 33  1  0  0  0  0
 33 34  2  0  0  0  0
 33 35  2  0  0  0  0
M  END
>  <minimizedAffinity>
-4.47174358

$$$$

 OpenBabel03272508313D

 35 37  0  0  1  0  0  0  0  0999 V2000
   34.8180   31.2330   34.8950 N   0  0  0  0  0  0  0  0  0  0  0  0
   35.7060   32.3710   35.1320 C   0  0  0  0  0  0  0  0  0  0  0  0
   35.5020   33.0100   36.4520 C   0  0  0  0  0  0  0  0  0  0  0  0
   34.7780   32.1500   37.3470 N   0  0  0  0  0  0  0  0  0  0  0  0
   33.4510   31.9890   36.7630 C   0  0  0  0  0  0  0  0  0  0  0  0
   33.6530   30.9550   35.6920 C   0  0  1  0  0  0  0  0  0  0  0  0
   35.6280   33.1110   34.2940 H   0  0  0  0  0  0  0  0  0  0  0  0
   36.7400   31.9610   35.0990 H   0  0  0  0  0  0  0  0  0  0  0  0
   36.4530   33.2900   36.9600 H   0  0  0  0  0  0  0  0  0  0  0  0
   34.9490   33.9680   36.3010 H   0  0  0  0  0  0  0  0  0  0  0  0
   34.7360   32.4820   38.3190 H   0  0  0  0  0  0  0  0  0  0  0  0
   32.7010   31.7000   37.4910 H   0  0  0  0  0  0  0  0  0  0  0  0
   33.1560   32.9420   36.2530 H   0  0  0  0  0  0  0  0  0  0  0  0
   33.8740   29.9700   36.1680 H   0  0  0  0  0  0  0  0  0  0  0  0
   35.1560   30.8680   32.4960 C   0  0  0  0  0  0  0  0  0  0  0  0
   35.1390   30.3690   33.8180 C   0  0  0  0  0  0  0  0  0  0  0  0
   35.4430   29.0320   34.0020 C   0  0  0  0  0  0  0  0  0  0  0  0
   35.7430   28.2740   32.8870 N   0  0  0  0  0  0  0  0  0  0  0  0
   35.7460   28.7970   31.6460 C   0  0  0  0  0  0  0  0  0  0  0  0
   35.4550   30.0990   31.4180 N   0  0  0  0  0  0  0  0  0  0  0  0
   34.9280   31.9030   32.2960 H   0  0  0  0  0  0  0  0  0  0  0  0
   35.4450   28.6010   34.9740 H   0  0  0  0  0  0  0  0  0  0  0  0
   35.9970   28.0990   30.8550 H   0  0  0  0  0  0  0  0  0  0  0  0
   31.6070   29.7000   35.0470 C   0  0  0  0  0  0  0  0  0  0  0  0
   32.4190   30.8050   34.8880 C   0  0  0  0  0  0  0  0  0  0  0  0
   32.0180   31.7510   33.9460 C   0  0  0  0  0  0  0  0  0  0  0  0
   32.6260   32.6280   33.7920 H   0  0  0  0  0  0  0  0  0  0  0  0
   30.8560   31.5830   33.2070 C   0  0  0  0  0  0  0  0  0  0  0  0
   30.5290   32.3100   32.4700 H   0  0  0  0  0  0  0  0  0  0  0  0
   30.0480   30.4650   33.3800 C   0  0  0  0  0  3  0  0  0  0  0  0
   30.4480   29.5430   34.3050 C   0  0  0  0  0  3  0  0  0  0  0  0
   33.2660   28.0810   36.2470 H   0  0  0  0  0  0  0  0  0  0  0  0
   31.9700   28.4390   36.1780 S   0  0  0  0  0  0  0  0  0  0  0  0
   31.0280   27.2610   35.9870 O   0  0  0  0  0  0  0  0  0  0  0  0
   31.6210   28.9870   37.5570 O   0  0  0  0  0  0  0  0  0  0  0  0
  1  2  1  0  0  0  0
  1  6  1  0  0  0  0
  2  3  1  0  0  0  0
  3  9  1  0  0  0  0
  3  4  1  0  0  0  0
  4 11  1  0  0  0  0
  5  4  1  0  0  0  0
  5 12  1  0  0  0  0
  6 14  1  1  0  0  0
  6  5  1  0  0  0  0
  7  2  1  0  0  0  0
  8  2  1  0  0  0  0
 10  3  1  0  0  0  0
 13  5  1  0  0  0  0
 15 16  1  0  0  0  0
 16 17  2  0  0  0  0
 16  1  1  0  0  0  0
 17 22  1  0  0  0  0
 18 17  1  0  0  0  0
 19 18  2  0  0  0  0
 20 19  1  0  0  0  0
 20 15  2  0  0  0  0
 21 15  1  0  0  0  0
 23 19  1  0  0  0  0
 24 33  1  0  0  0  0
 25 24  1  0  0  0  0
 25  6  1  0  0  0  0
 26 25  2  0  0  0  0
 27 26  1  0  0  0  0
 28 30  2  0  0  0  0
 28 26  1  0  0  0  0
 29 28  1  0  0  0  0
 30 31  1  0  0  0  0
 31 24  2  0  0  0  0
 33 32  1  0  0  0  0
 33 35  2  0  0  0  0
 34 33  2  0  0  0  0
M  END
>  <minimizedAffinity>
-4.4644146

$$$$

 OpenBabel03272508313D

 35 37  0  0  1  0  0  0  0  0999 V2000
   39.6190   23.2630   32.7300 N   0  0  0  0  0  0  0  0  0  0  0  0
   40.6590   22.8720   31.7790 C   0  0  0  0  0  0  0  0  0  0  0  0
   41.8660   22.3110   32.4270 C   0  0  0  0  0  0  0  0  0  0  0  0
   41.6000   21.9120   33.7800 N   0  0  0  0  0  0  0  0  0  0  0  0
   41.2800   23.1360   34.5060 C   0  0  0  0  0  0  0  0  0  0  0  0
   39.8470   23.4050   34.1430 C   0  0  1  0  0  0  0  0  0  0  0  0
   40.9090   23.7270   31.0980 H   0  0  0  0  0  0  0  0  0  0  0  0
   40.2050   22.0800   31.1410 H   0  0  0  0  0  0  0  0  0  0  0  0
   42.2820   21.4240   31.8960 H   0  0  0  0  0  0  0  0  0  0  0  0
   42.6740   23.0820   32.4010 H   0  0  0  0  0  0  0  0  0  0  0  0
   42.3600   21.3830   34.2280 H   0  0  0  0  0  0  0  0  0  0  0  0
   41.4340   23.0480   35.5750 H   0  0  0  0  0  0  0  0  0  0  0  0
   41.8910   23.9790   34.0900 H   0  0  0  0  0  0  0  0  0  0  0  0
   39.1980   22.6240   34.6070 H   0  0  0  0  0  0  0  0  0  0  0  0
   37.2680   22.6100   32.4930 C   0  0  0  0  0  0  0  0  0  0  0  0
   38.3220   23.5100   32.2130 C   0  0  0  0  0  0  0  0  0  0  0  0
   38.0300   24.6130   31.4310 C   0  0  0  0  0  0  0  0  0  0  0  0
   36.7350   24.7640   30.9750 N   0  0  0  0  0  0  0  0  0  0  0  0
   35.7650   23.8770   31.2700 C   0  0  0  0  0  0  0  0  0  0  0  0
   36.0040   22.7830   32.0320 N   0  0  0  0  0  0  0  0  0  0  0  0
   37.4400   21.7340   33.0980 H   0  0  0  0  0  0  0  0  0  0  0  0
   38.7830   25.3240   31.1870 H   0  0  0  0  0  0  0  0  0  0  0  0
   34.7920   24.1080   30.8530 H   0  0  0  0  0  0  0  0  0  0  0  0
   38.6610   24.8050   35.8200 C   0  0  0  0  0  0  0  0  0  0  0  0
   39.4250   24.7220   34.6720 C   0  0  0  0  0  0  0  0  0  0  0  0
   39.7660   25.9220   34.0540 C   0  0  0  0  0  0  0  0  0  0  0  0
   40.3610   25.8990   33.1560 H   0  0  0  0  0  0  0  0  0  0  0  0
   39.3560   27.1420   34.5740 C   0  0  0  0  0  0  0  0  0  0  0  0
   39.6130   28.0870   34.1060 H   0  0  0  0  0  0  0  0  0  0  0  0
   38.5880   27.2090   35.7310 C   0  0  0  0  0  3  0  0  0  0  0  0
   38.2570   26.0270   36.3300 C   0  0  0  0  0  3  0  0  0  0  0  0
   37.1530   23.5990   37.5770 H   0  0  0  0  0  0  0  0  0  0  0  0
   38.1570   23.4020   36.7010 S   0  0  0  0  0  0  0  0  0  0  0  0
   39.3570   22.6900   37.3080 O   0  0  0  0  0  0  0  0  0  0  0  0
   37.6130   22.4210   35.6690 O   0  0  0  0  0  0  0  0  0  0  0  0
  1  6  1  0  0  0  0
  2  3  1  0  0  0  0
  2  1  1  0  0  0  0
  3  4  1  0  0  0  0
  4 11  1  0  0  0  0
  4  5  1  0  0  0  0
  5 12  1  0  0  0  0
  6  5  1  0  0  0  0
  6 14  1  1  0  0  0
  6 25  1  0  0  0  0
  7  2  1  0  0  0  0
  8  2  1  0  0  0  0
  9  3  1  0  0  0  0
 10  3  1  0  0  0  0
 13  5  1  0  0  0  0
 15 21  1  0  0  0  0
 16 15  1  0  0  0  0
 16  1  1  0  0  0  0
 17 16  2  0  0  0  0
 18 19  2  0  0  0  0
 18 17  1  0  0  0  0
 19 20  1  0  0  0  0
 20 15  2  0  0  0  0
 22 17  1  0  0  0  0
 23 19  1  0  0  0  0
 24 31  1  0  0  0  0
 24 33  1  0  0  0  0
 25 24  2  0  0  0  0
 26 28  2  0  0  0  0
 26 25  1  0  0  0  0
 27 26  1  0  0  0  0
 28 30  1  0  0  0  0
 29 28  1  0  0  0  0
 30 31  2  0  0  0  0
 33 34  2  0  0  0  0
 33 32  1  0  0  0  0
 35 33  2  0  0  0  0
M  END
>  <minimizedAffinity>
-4.46344662

$$$$

 OpenBabel03272508313D

 35 37  0  0  1  0  0  0  0  0999 V2000
   39.7250   23.2000   36.3740 N   0  0  0  0  0  0  0  0  0  0  0  0
   39.9210   23.0240   37.8120 C   0  0  0  0  0  0  0  0  0  0  0  0
   38.6650   23.1150   38.5910 C   0  0  0  0  0  0  0  0  0  0  0  0
   37.5120   22.9570   37.7490 N   0  0  0  0  0  0  0  0  0  0  0  0
   37.5140   24.1030   36.8450 C   0  0  0  0  0  0  0  0  0  0  0  0
   38.5200   23.7280   35.7940 C   0  0  1  0  0  0  0  0  0  0  0  0
   40.7000   23.7360   38.1920 H   0  0  0  0  0  0  0  0  0  0  0  0
   40.3370   22.0000   37.9400 H   0  0  0  0  0  0  0  0  0  0  0  0
   38.5900   22.3530   39.4000 H   0  0  0  0  0  0  0  0  0  0  0  0
   38.6370   24.1050   39.1070 H   0  0  0  0  0  0  0  0  0  0  0  0
   36.6220   22.8660   38.2550 H   0  0  0  0  0  0  0  0  0  0  0  0
   36.5350   24.3190   36.4330 H   0  0  0  0  0  0  0  0  0  0  0  0
   37.9180   24.9970   37.3880 H   0  0  0  0  0  0  0  0  0  0  0  0
   38.1160   22.8860   35.1820 H   0  0  0  0  0  0  0  0  0  0  0  0
   42.0560   23.4450   35.6540 C   0  0  0  0  0  0  0  0  0  0  0  0
   40.7930   22.8230   35.5200 C   0  0  0  0  0  0  0  0  0  0  0  0
   40.6580   21.8530   34.5420 C   0  0  0  0  0  0  0  0  0  0  0  0
   41.7580   21.5570   33.7630 N   0  0  0  0  0  0  0  0  0  0  0  0
   42.9410   22.1790   33.9290 C   0  0  0  0  0  0  0  0  0  0  0  0
   43.1210   23.1330   34.8730 N   0  0  0  0  0  0  0  0  0  0  0  0
   42.2170   24.2060   36.4000 H   0  0  0  0  0  0  0  0  0  0  0  0
   39.7310   21.3520   34.3960 H   0  0  0  0  0  0  0  0  0  0  0  0
   43.7270   21.8580   33.2550 H   0  0  0  0  0  0  0  0  0  0  0  0
   38.3940   24.8090   33.5590 C   0  0  0  0  0  0  0  0  0  0  0  0
   38.7630   24.8740   34.8880 C   0  0  0  0  0  0  0  0  0  0  0  0
   39.3630   26.0550   35.3180 C   0  0  0  0  0  0  0  0  0  0  0  0
   39.6650   26.1450   36.3490 H   0  0  0  0  0  0  0  0  0  0  0  0
   39.5770   27.1130   34.4450 C   0  0  0  0  0  0  0  0  0  0  0  0
   40.0430   28.0410   34.7630 H   0  0  0  0  0  0  0  0  0  0  0  0
   39.2000   27.0320   33.1100 C   0  0  0  0  0  3  0  0  0  0  0  0
   38.6120   25.8700   32.6970 C   0  0  0  0  0  3  0  0  0  0  0  0
   37.0960   22.5530   33.7640 H   0  0  0  0  0  0  0  0  0  0  0  0
   37.6370   23.4090   32.8760 S   0  0  0  0  0  0  0  0  0  0  0  0
   38.5630   22.7340   31.8740 O   0  0  0  0  0  0  0  0  0  0  0  0
   36.4720   23.9180   32.0360 O   0  0  0  0  0  0  0  0  0  0  0  0
  1  2  1  0  0  0  0
  2  8  1  0  0  0  0
  2  7  1  0  0  0  0
  2  3  1  0  0  0  0
  3 10  1  0  0  0  0
  3  9  1  0  0  0  0
  4 11  1  0  0  0  0
  4  3  1  0  0  0  0
  5 13  1  0  0  0  0
  5  4  1  0  0  0  0
  6 14  1  6  0  0  0
  6  1  1  0  0  0  0
  6  5  1  0  0  0  0
 12  5  1  0  0  0  0
 15 21  1  0  0  0  0
 16 15  1  0  0  0  0
 16  1  1  0  0  0  0
 17 16  2  0  0  0  0
 18 19  2  0  0  0  0
 18 17  1  0  0  0  0
 19 20  1  0  0  0  0
 20 15  2  0  0  0  0
 22 17  1  0  0  0  0
 23 19  1  0  0  0  0
 24 25  1  0  0  0  0
 25 26  2  0  0  0  0
 25  6  1  0  0  0  0
 26 27  1  0  0  0  0
 28 29  1  0  0  0  0
 28 26  1  0  0  0  0
 30 28  2  0  0  0  0
 31 30  1  0  0  0  0
 31 24  2  0  0  0  0
 33 24  1  0  0  0  0
 33 32  1  0  0  0  0
 34 33  2  0  0  0  0
 35 33  2  0  0  0  0
M  END
>  <minimizedAffinity>
-4.43547058

$$$$
