
 OpenBabel03262522323D

 30 32  0  0  0  0  0  0  0  0999 V2000
   37.9720   32.0690   49.2530 C   0  0  0  0  0  0  0  0  0  0  0  0
   38.6120   33.0880   49.9010 C   0  0  0  0  0  0  0  0  0  0  0  0
   39.4230   34.0190   49.2850 C   0  0  0  0  0  0  0  0  0  0  0  0
   39.6160   33.9350   47.9120 C   0  0  0  0  0  0  0  0  0  0  0  0
   38.9710   32.9110   47.2700 C   0  0  0  0  0  0  0  0  0  0  0  0
   38.2060   32.0540   47.9400 N   0  0  0  0  0  0  0  0  0  0  0  0
   38.4820   33.1830   50.9830 H   0  0  0  0  0  0  0  0  0  0  0  0
   39.8890   34.7960   49.8980 H   0  0  0  0  0  0  0  0  0  0  0  0
   40.2630   34.7050   47.5300 H   0  0  0  0  0  0  0  0  0  0  0  0
   37.5050   30.3980   51.0800 C   0  0  0  0  0  0  0  0  0  0  0  0
   37.1280   31.0990   49.9140 C   0  0  0  0  0  0  0  0  0  0  0  0
   35.8610   30.8470   49.3670 C   0  0  0  0  0  0  0  0  0  0  0  0
   35.0640   29.9320   49.9990 N   0  0  0  0  0  0  0  0  0  0  0  0
   35.4760   29.2820   51.1190 C   0  0  0  0  0  0  0  0  0  0  0  0
   36.6820   29.5080   51.6600 N   0  0  0  0  0  0  0  0  0  0  0  0
   38.4930   30.6590   51.4230 H   0  0  0  0  0  0  0  0  0  0  0  0
   35.4920   31.3330   48.4860 H   0  0  0  0  0  0  0  0  0  0  0  0
   34.8320   28.5600   51.6070 H   0  0  0  0  0  0  0  0  0  0  0  0
   38.3590   31.9670   45.0850 C   0  0  0  0  0  0  0  0  0  0  0  0
   39.1630   32.8090   45.8310 C   0  0  0  0  0  0  0  0  0  0  0  0
   40.1240   33.5190   45.1450 C   0  0  0  0  0  0  0  0  0  0  0  0
   40.7910   34.1990   45.6520 H   0  0  0  0  0  0  0  0  0  0  0  0
   40.3470   33.4590   43.7860 C   0  0  0  0  0  0  0  0  0  0  0  0
   41.1120   34.0330   43.2810 H   0  0  0  0  0  0  0  0  0  0  0  0
   39.5500   32.6210   43.0360 C   0  0  0  0  0  3  0  0  0  0  0  0
   38.5880   31.9070   43.7050 C   0  0  0  0  0  3  0  0  0  0  0  0
   36.4920   31.6550   46.7910 H   0  0  0  0  0  0  0  0  0  0  0  0
   37.0880   30.9820   45.7610 S   0  0  0  0  0  0  0  0  0  0  0  0
   36.0800   30.6920   44.6640 O   0  0  0  0  0  0  0  0  0  0  0  0
   37.6810   29.6720   46.2520 O   0  0  0  0  0  0  0  0  0  0  0  0
  1  2  1  0  0  0  0
  1 11  1  0  0  0  0
  2  7  1  0  0  0  0
  3  8  1  0  0  0  0
  3  2  2  0  0  0  0
  4  3  1  0  0  0  0
  5  4  2  0  0  0  0
  5  6  1  0  0  0  0
  6  1  2  0  0  0  0
  9  4  1  0  0  0  0
 10 16  1  0  0  0  0
 10 15  1  0  0  0  0
 11 10  2  0  0  0  0
 12 11  1  0  0  0  0
 12 13  2  0  0  0  0
 13 14  1  0  0  0  0
 14 18  1  0  0  0  0
 14 15  2  0  0  0  0
 17 12  1  0  0  0  0
 19 28  1  0  0  0  0
 19 20  1  0  0  0  0
 20  5  1  0  0  0  0
 21 22  1  0  0  0  0
 21 20  2  0  0  0  0
 23 21  1  0  0  0  0
 24 23  1  0  0  0  0
 25 26  1  0  0  0  0
 25 23  2  0  0  0  0
 26 19  2  0  0  0  0
 28 30  2  0  0  0  0
 28 27  1  0  0  0  0
 29 28  2  0  0  0  0
M  END
>  <minimizedAffinity>
-5.21127605

>  <minimizedRMSD>
1.23788345

$$$$
