
 OpenBabel03262522373D

 30 32  0  0  0  0  0  0  0  0999 V2000
   38.2280   31.3250   47.9740 C   0  0  0  0  0  0  0  0  0  0  0  0
   38.9420   32.4770   48.0590 C   0  0  0  0  0  0  0  0  0  0  0  0
   39.5480   33.1150   47.0110 C   0  0  0  0  0  0  0  0  0  0  0  0
   39.4430   32.5720   45.7630 C   0  0  0  0  0  0  0  0  0  0  0  0
   38.7170   31.3970   45.6600 C   0  0  0  0  0  0  0  0  0  0  0  0
   38.1550   30.8300   46.7170 N   0  0  0  0  0  0  0  0  0  0  0  0
   39.0570   32.9550   49.0380 H   0  0  0  0  0  0  0  0  0  0  0  0
   40.1060   34.0400   47.1520 H   0  0  0  0  0  0  0  0  0  0  0  0
   39.9370   33.0370   44.9460 H   0  0  0  0  0  0  0  0  0  0  0  0
   37.2900   30.1710   51.4250 C   0  0  0  0  0  0  0  0  0  0  0  0
   37.9810   30.8890   50.4300 C   0  0  0  0  0  0  0  0  0  0  0  0
   37.5930   30.6500   49.1010 C   0  0  0  0  0  0  0  0  0  0  0  0
   36.6040   29.7690   48.8430 N   0  0  0  0  0  0  0  0  0  0  0  0
   35.9700   29.1020   49.8490 C   0  0  0  0  0  0  0  0  0  0  0  0
   36.3170   29.3080   51.1170 N   0  0  0  0  0  0  0  0  0  0  0  0
   37.6710   30.4330   52.4070 H   0  0  0  0  0  0  0  0  0  0  0  0
   38.7760   31.5980   50.6200 H   0  0  0  0  0  0  0  0  0  0  0  0
   35.1780   28.3960   49.6340 H   0  0  0  0  0  0  0  0  0  0  0  0
   37.7400   30.9310   43.3500 C   0  0  0  0  0  0  0  0  0  0  0  0
   38.5290   30.6380   44.4320 C   0  0  0  0  0  0  0  0  0  0  0  0
   39.1950   29.4110   44.3010 C   0  0  0  0  0  0  0  0  0  0  0  0
   39.8580   29.0720   45.1160 H   0  0  0  0  0  0  0  0  0  0  0  0
   39.1190   28.5410   43.2370 C   0  0  0  0  0  0  0  0  0  0  0  0
   39.6630   27.6260   43.2220 H   0  0  0  0  0  0  0  0  0  0  0  0
   38.3270   28.8780   42.1900 C   0  0  0  0  0  0  0  0  0  0  0  0
   37.6530   30.0610   42.2610 C   0  0  0  0  0  0  0  0  0  0  0  0
   36.7430   33.0340   44.4530 H   0  0  0  0  0  0  0  0  0  0  0  0
   36.7460   32.3400   43.3010 S   0  0  0  0  0  0  0  0  0  0  0  0
   35.2940   31.8430   43.0760 O   0  0  0  0  0  0  0  0  0  0  0  0
   37.1310   33.1930   42.1310 O   0  0  0  0  0  0  0  0  0  0  0  0
  1  2  1  0  0  0  0
  1 12  1  0  0  0  0
  2  7  1  0  0  0  0
  3  8  1  0  0  0  0
  3  2  2  0  0  0  0
  4  3  1  0  0  0  0
  5  4  2  0  0  0  0
  5  6  1  0  0  0  0
  6  1  2  0  0  0  0
  9  4  1  0  0  0  0
 10 16  1  0  0  0  0
 11 17  1  0  0  0  0
 11 10  2  0  0  0  0
 12 11  1  0  0  0  0
 13 12  2  0  0  0  0
 13 14  1  0  0  0  0
 14 15  2  0  0  0  0
 15 10  1  0  0  0  0
 18 14  1  0  0  0  0
 19 20  1  0  0  0  0
 20  5  1  0  0  0  0
 21 20  2  0  0  0  0
 21 22  1  0  0  0  0
 23 21  1  0  0  0  0
 24 23  1  0  0  0  0
 25 26  1  0  0  0  0
 25 23  2  0  0  0  0
 26 19  2  0  0  0  0
 28 19  1  0  0  0  0
 28 27  1  0  0  0  0
 29 28  2  0  0  0  0
 30 28  2  0  0  0  0
M  END
>  <minimizedAffinity>
-5.71104574

>  <minimizedRMSD>
0.986324131

$$$$
