
 OpenBabel03272508563D

 41 44  0  0  1  0  0  0  0  0999 V2000
   36.6150   28.1630   32.6320 C   0  0  0  0  0  0  0  0  0  0  0  0
   36.8760   28.7750   31.4390 C   0  0  0  0  0  0  0  0  0  0  0  0
   36.4490   30.0800   31.3060 C   0  0  0  0  0  0  0  0  0  0  0  0
   35.8050   30.6800   32.3440 C   0  0  0  0  0  0  0  0  0  0  0  0
   35.5390   30.0750   33.5500 C   0  0  0  0  0  0  0  0  0  0  0  0
   35.9770   28.8170   33.6090 N   0  0  0  0  0  0  0  0  0  0  0  0
   37.3890   28.3030   30.6100 H   0  0  0  0  0  0  0  0  0  0  0  0
   36.6380   30.5870   30.3810 H   0  0  0  0  0  0  0  0  0  0  0  0
   35.4610   31.6720   32.1650 H   0  0  0  0  0  0  0  0  0  0  0  0
   33.5260   30.3880   35.0610 C   0  0  0  0  0  0  0  0  0  0  0  0
   34.8380   30.5580   34.6980 C   0  0  0  0  0  0  0  0  0  0  0  0
   35.5570   31.3600   35.5930 C   0  0  0  0  0  0  0  0  0  0  0  0
   36.6210   31.5630   35.3940 H   0  0  0  0  0  0  0  0  0  0  0  0
   35.0670   31.9440   36.7360 C   0  0  0  0  0  0  0  0  0  0  0  0
   35.6850   32.5440   37.3690 H   0  0  0  0  0  0  0  0  0  0  0  0
   33.7470   31.7380   37.0560 C   0  0  0  0  0  3  0  0  0  0  0  0
   33.0000   30.9590   36.2040 C   0  0  0  0  0  3  0  0  0  0  0  0
   33.1070   28.3470   33.5970 H   0  0  0  0  0  0  0  0  0  0  0  0
   32.4430   29.5200   34.0450 S   0  0  0  0  0  0  0  0  0  0  0  0
   31.2270   28.9790   34.7140 O   0  0  0  0  0  0  0  0  0  0  0  0
   32.0770   30.2120   32.7680 O   0  0  0  0  0  0  0  0  0  0  0  0
   37.0490   26.7560   32.8220 C   0  0  0  0  0  0  0  0  0  0  0  0
   37.1190   26.2460   33.9760 O   0  0  0  0  0  0  0  0  0  0  0  0
   37.3840   26.0000   31.6550 N   0  0  0  0  0  0  0  0  0  0  0  0
   37.5100   26.4040   30.7010 H   0  0  0  0  0  0  0  0  0  0  0  0
   36.6100   23.6700   31.2100 C   0  0  2  0  0  0  0  0  0  0  0  0
   37.8900   23.8300   30.5040 C   0  0  0  0  0  0  0  0  0  0  0  0
   37.5580   24.5620   31.8280 C   0  0  1  0  0  0  0  0  0  0  0  0
   35.7430   24.0810   30.6260 H   0  0  0  0  0  0  0  0  0  0  0  0
   37.9670   24.4370   29.5940 H   0  0  0  0  0  0  0  0  0  0  0  0
   38.6930   23.0750   30.6020 H   0  0  0  0  0  0  0  0  0  0  0  0
   38.1630   24.2290   32.7110 H   0  0  0  0  0  0  0  0  0  0  0  0
   36.4660   20.9680   33.7200 C   0  0  0  0  0  0  0  0  0  0  0  0
   35.4950   20.0790   33.1580 C   0  0  0  0  0  0  0  0  0  0  0  0
   34.9140   20.4500   31.8980 C   0  0  0  0  0  0  0  0  0  0  0  0
   35.3040   21.6040   31.3050 N   0  0  0  0  0  0  0  0  0  0  0  0
   36.2330   22.4050   31.8940 C   0  0  0  0  0  0  0  0  0  0  0  0
   36.8340   22.1150   33.1030 N   0  0  0  0  0  0  0  0  0  0  0  0
   36.8940   20.6750   34.6690 H   0  0  0  0  0  0  0  0  0  0  0  0
   35.2300   19.1740   33.6840 H   0  0  0  0  0  0  0  0  0  0  0  0
   34.1900   19.7800   31.4840 H   0  0  0  0  0  0  0  0  0  0  0  0
  1 22  1  0  0  0  0
  1  6  1  0  0  0  0
  2  1  2  0  0  0  0
  3  2  1  0  0  0  0
  3  4  2  0  0  0  0
  4  5  1  0  0  0  0
  5  6  2  0  0  0  0
  5 11  1  0  0  0  0
  7  2  1  0  0  0  0
  8  3  1  0  0  0  0
  9  4  1  0  0  0  0
 10 17  1  0  0  0  0
 11 10  2  0  0  0  0
 11 12  1  0  0  0  0
 12 14  2  0  0  0  0
 13 12  1  0  0  0  0
 14 16  1  0  0  0  0
 14 15  1  0  0  0  0
 17 16  2  0  0  0  0
 18 19  1  0  0  0  0
 19 20  2  0  0  0  0
 19 10  1  0  0  0  0
 21 19  2  0  0  0  0
 22 23  2  0  0  0  0
 24 28  1  0  0  0  0
 24 22  1  0  0  0  0
 25 24  1  0  0  0  0
 26 29  1  6  0  0  0
 26 28  1  0  0  0  0
 26 37  1  0  0  0  0
 27 31  1  0  0  0  0
 27 26  1  0  0  0  0
 27 28  1  0  0  0  0
 28 32  1  1  0  0  0
 30 27  1  0  0  0  0
 33 39  1  0  0  0  0
 34 40  1  0  0  0  0
 34 33  1  0  0  0  0
 35 34  2  0  0  0  0
 36 37  2  0  0  0  0
 36 35  1  0  0  0  0
 37 38  1  0  0  0  0
 38 33  2  0  0  0  0
 41 35  1  0  0  0  0
M  END
>  <minimizedAffinity>
-6.23532391

$$$$

 OpenBabel03272508563D

 41 44  0  0  1  0  0  0  0  0999 V2000
   36.8130   27.3550   33.0410 C   0  0  0  0  0  0  0  0  0  0  0  0
   37.1650   27.7260   31.7730 C   0  0  0  0  0  0  0  0  0  0  0  0
   36.8320   29.0070   31.3870 C   0  0  0  0  0  0  0  0  0  0  0  0
   36.1840   29.8210   32.2660 C   0  0  0  0  0  0  0  0  0  0  0  0
   35.8270   29.4610   33.5430 C   0  0  0  0  0  0  0  0  0  0  0  0
   36.1780   28.2110   33.8480 N   0  0  0  0  0  0  0  0  0  0  0  0
   37.6810   27.0830   31.0710 H   0  0  0  0  0  0  0  0  0  0  0  0
   37.0950   29.3270   30.3980 H   0  0  0  0  0  0  0  0  0  0  0  0
   35.9160   30.7820   31.8940 H   0  0  0  0  0  0  0  0  0  0  0  0
   33.7600   30.2570   34.7790 C   0  0  0  0  0  0  0  0  0  0  0  0
   35.1100   30.1830   34.5470 C   0  0  0  0  0  0  0  0  0  0  0  0
   35.8630   30.9750   35.4230 C   0  0  0  0  0  0  0  0  0  0  0  0
   36.9600   30.9910   35.3210 H   0  0  0  0  0  0  0  0  0  0  0  0
   35.3710   31.7640   36.4340 C   0  0  0  0  0  0  0  0  0  0  0  0
   36.0160   32.3400   37.0610 H   0  0  0  0  0  0  0  0  0  0  0  0
   34.0110   31.7990   36.6260 C   0  0  0  0  0  3  0  0  0  0  0  0
   33.2300   31.0380   35.7880 C   0  0  0  0  0  3  0  0  0  0  0  0
   33.2120   28.1810   33.4110 H   0  0  0  0  0  0  0  0  0  0  0  0
   32.6500   29.4390   33.7520 S   0  0  0  0  0  0  0  0  0  0  0  0
   31.3500   29.0640   34.3770 O   0  0  0  0  0  0  0  0  0  0  0  0
   32.4260   30.0820   32.4180 O   0  0  0  0  0  0  0  0  0  0  0  0
   37.1440   25.9830   33.5010 C   0  0  0  0  0  0  0  0  0  0  0  0
   37.0310   24.9920   32.7250 O   0  0  0  0  0  0  0  0  0  0  0  0
   37.5930   25.8230   34.8490 N   0  0  0  0  0  0  0  0  0  0  0  0
   37.5470   26.5650   35.5830 H   0  0  0  0  0  0  0  0  0  0  0  0
   39.0180   24.4390   36.3570 C   0  0  2  0  0  0  0  0  0  0  0  0
   37.6310   23.9960   36.5650 C   0  0  0  0  0  0  0  0  0  0  0  0
   38.1540   24.5260   35.2080 C   0  0  1  0  0  0  0  0  0  0  0  0
   39.2690   25.3600   36.9490 H   0  0  0  0  0  0  0  0  0  0  0  0
   36.9110   24.6170   37.1090 H   0  0  0  0  0  0  0  0  0  0  0  0
   37.3680   22.9210   36.5520 H   0  0  0  0  0  0  0  0  0  0  0  0
   38.2080   23.7570   34.3950 H   0  0  0  0  0  0  0  0  0  0  0  0
   41.2560   21.6630   37.3120 C   0  0  0  0  0  0  0  0  0  0  0  0
   42.2680   21.7230   36.3000 C   0  0  0  0  0  0  0  0  0  0  0  0
   42.1410   22.7490   35.3030 C   0  0  0  0  0  0  0  0  0  0  0  0
   41.0900   23.6010   35.3630 N   0  0  0  0  0  0  0  0  0  0  0  0
   40.1630   23.4900   36.3510 C   0  0  0  0  0  0  0  0  0  0  0  0
   40.2170   22.5300   37.3430 N   0  0  0  0  0  0  0  0  0  0  0  0
   41.3650   20.8850   38.0550 H   0  0  0  0  0  0  0  0  0  0  0  0
   43.0800   21.0120   36.3130 H   0  0  0  0  0  0  0  0  0  0  0  0
   42.9010   22.7870   34.5520 H   0  0  0  0  0  0  0  0  0  0  0  0
  1 22  1  0  0  0  0
  1  6  1  0  0  0  0
  2  1  2  0  0  0  0
  3  2  1  0  0  0  0
  3  4  2  0  0  0  0
  4  5  1  0  0  0  0
  5  6  2  0  0  0  0
  5 11  1  0  0  0  0
  7  2  1  0  0  0  0
  8  3  1  0  0  0  0
  9  4  1  0  0  0  0
 10 17  1  0  0  0  0
 11 10  2  0  0  0  0
 11 12  1  0  0  0  0
 12 14  2  0  0  0  0
 13 12  1  0  0  0  0
 14 16  1  0  0  0  0
 14 15  1  0  0  0  0
 17 16  2  0  0  0  0
 18 19  1  0  0  0  0
 19 20  2  0  0  0  0
 19 10  1  0  0  0  0
 21 19  2  0  0  0  0
 22 24  1  0  0  0  0
 23 22  2  0  0  0  0
 24 28  1  0  0  0  0
 24 25  1  0  0  0  0
 26 27  1  0  0  0  0
 26 29  1  1  0  0  0
 27 30  1  0  0  0  0
 28 32  1  6  0  0  0
 28 26  1  0  0  0  0
 28 27  1  0  0  0  0
 31 27  1  0  0  0  0
 33 38  1  0  0  0  0
 33 39  1  0  0  0  0
 34 40  1  0  0  0  0
 34 33  2  0  0  0  0
 35 36  2  0  0  0  0
 35 34  1  0  0  0  0
 36 37  1  0  0  0  0
 37 26  1  0  0  0  0
 37 38  2  0  0  0  0
 41 35  1  0  0  0  0
M  END
>  <minimizedAffinity>
-6.14631844

$$$$

 OpenBabel03272508563D

 41 44  0  0  1  0  0  0  0  0999 V2000
   36.3930   28.3060   33.6750 C   0  0  0  0  0  0  0  0  0  0  0  0
   35.9790   28.2560   32.3740 C   0  0  0  0  0  0  0  0  0  0  0  0
   34.9680   29.1220   32.0120 C   0  0  0  0  0  0  0  0  0  0  0  0
   34.4460   29.9630   32.9450 C   0  0  0  0  0  0  0  0  0  0  0  0
   34.8550   30.0250   34.2550 C   0  0  0  0  0  0  0  0  0  0  0  0
   35.8320   29.1620   34.5360 N   0  0  0  0  0  0  0  0  0  0  0  0
   36.3920   27.5880   31.6280 H   0  0  0  0  0  0  0  0  0  0  0  0
   34.6220   29.1050   30.9980 H   0  0  0  0  0  0  0  0  0  0  0  0
   33.6390   30.5770   32.6150 H   0  0  0  0  0  0  0  0  0  0  0  0
   33.1790   30.7420   36.0190 C   0  0  0  0  0  0  0  0  0  0  0  0
   34.3720   30.8130   35.3450 C   0  0  0  0  0  0  0  0  0  0  0  0
   35.1980   31.8490   35.7990 C   0  0  0  0  0  0  0  0  0  0  0  0
   36.1810   31.9970   35.3230 H   0  0  0  0  0  0  0  0  0  0  0  0
   34.9130   32.7360   36.8090 C   0  0  0  0  0  0  0  0  0  0  0  0
   35.6020   33.5000   37.0960 H   0  0  0  0  0  0  0  0  0  0  0  0
   33.7060   32.6170   37.4540 C   0  0  0  0  0  3  0  0  0  0  0  0
   32.8590   31.6150   37.0410 C   0  0  0  0  0  3  0  0  0  0  0  0
   32.1040   29.3810   34.1540 H   0  0  0  0  0  0  0  0  0  0  0  0
   31.9770   29.6050   35.5510 S   0  0  0  0  0  0  0  0  0  0  0  0
   32.1290   28.2370   36.1220 O   0  0  0  0  0  0  0  0  0  0  0  0
   30.5640   30.0800   35.6910 O   0  0  0  0  0  0  0  0  0  0  0  0
   37.4740   27.3880   34.1160 C   0  0  0  0  0  0  0  0  0  0  0  0
   38.0260   27.5270   35.2440 O   0  0  0  0  0  0  0  0  0  0  0  0
   37.8660   26.3440   33.2210 N   0  0  0  0  0  0  0  0  0  0  0  0
   37.5740   26.2780   32.2210 H   0  0  0  0  0  0  0  0  0  0  0  0
   38.1450   24.2240   34.5070 C   0  0  2  0  0  0  0  0  0  0  0  0
   38.4970   23.9200   33.1120 C   0  0  0  0  0  0  0  0  0  0  0  0
   38.7370   25.3050   33.7600 C   0  0  1  0  0  0  0  0  0  0  0  0
   37.0360   24.1990   34.6860 H   0  0  0  0  0  0  0  0  0  0  0  0
   37.7300   23.8500   32.3330 H   0  0  0  0  0  0  0  0  0  0  0  0
   39.4290   23.3770   32.8650 H   0  0  0  0  0  0  0  0  0  0  0  0
   39.8150   25.5740   33.9040 H   0  0  0  0  0  0  0  0  0  0  0  0
   40.7400   22.4840   36.4700 C   0  0  0  0  0  0  0  0  0  0  0  0
   40.2320   22.5810   37.8050 C   0  0  0  0  0  0  0  0  0  0  0  0
   38.9770   23.2560   37.9840 C   0  0  0  0  0  0  0  0  0  0  0  0
   38.3390   23.7610   36.9010 N   0  0  0  0  0  0  0  0  0  0  0  0
   38.8770   23.6340   35.6580 C   0  0  0  0  0  0  0  0  0  0  0  0
   40.0780   23.0000   35.4080 N   0  0  0  0  0  0  0  0  0  0  0  0
   41.6860   21.9730   36.3520 H   0  0  0  0  0  0  0  0  0  0  0  0
   40.7920   22.1550   38.6240 H   0  0  0  0  0  0  0  0  0  0  0  0
   38.6040   23.3240   38.9840 H   0  0  0  0  0  0  0  0  0  0  0  0
  1 22  1  0  0  0  0
  1  6  1  0  0  0  0
  2  1  2  0  0  0  0
  3  2  1  0  0  0  0
  3  4  2  0  0  0  0
  4  5  1  0  0  0  0
  5  6  2  0  0  0  0
  5 11  1  0  0  0  0
  7  2  1  0  0  0  0
  8  3  1  0  0  0  0
  9  4  1  0  0  0  0
 10 17  1  0  0  0  0
 11 12  1  0  0  0  0
 11 10  2  0  0  0  0
 12 14  2  0  0  0  0
 13 12  1  0  0  0  0
 14 15  1  0  0  0  0
 14 16  1  0  0  0  0
 17 16  2  0  0  0  0
 18 19  1  0  0  0  0
 19 21  2  0  0  0  0
 19 10  1  0  0  0  0
 19 20  2  0  0  0  0
 22 23  2  0  0  0  0
 24 28  1  0  0  0  0
 24 22  1  0  0  0  0
 25 24  1  0  0  0  0
 26 29  1  1  0  0  0
 26 37  1  0  0  0  0
 27 28  1  0  0  0  0
 27 26  1  0  0  0  0
 28 32  1  1  0  0  0
 28 26  1  0  0  0  0
 30 27  1  0  0  0  0
 31 27  1  0  0  0  0
 33 34  1  0  0  0  0
 34 35  2  0  0  0  0
 34 40  1  0  0  0  0
 35 41  1  0  0  0  0
 36 35  1  0  0  0  0
 37 36  2  0  0  0  0
 38 37  1  0  0  0  0
 38 33  2  0  0  0  0
 39 33  1  0  0  0  0
M  END
>  <minimizedAffinity>
-5.96470213

$$$$

 OpenBabel03272508563D

 41 44  0  0  1  0  0  0  0  0999 V2000
   37.4960   26.1350   33.0180 C   0  0  0  0  0  0  0  0  0  0  0  0
   38.1250   25.7350   31.8720 C   0  0  0  0  0  0  0  0  0  0  0  0
   39.0380   24.7080   31.9930 C   0  0  0  0  0  0  0  0  0  0  0  0
   39.2640   24.1570   33.2170 C   0  0  0  0  0  0  0  0  0  0  0  0
   38.6360   24.5490   34.3760 C   0  0  0  0  0  0  0  0  0  0  0  0
   37.7690   25.5440   34.1860 N   0  0  0  0  0  0  0  0  0  0  0  0
   37.9490   26.1690   30.8960 H   0  0  0  0  0  0  0  0  0  0  0  0
   39.5480   24.3730   31.1120 H   0  0  0  0  0  0  0  0  0  0  0  0
   40.0110   23.3990   33.2530 H   0  0  0  0  0  0  0  0  0  0  0  0
   39.8200   23.3690   36.2830 C   0  0  0  0  0  0  0  0  0  0  0  0
   38.8060   24.1020   35.7220 C   0  0  0  0  0  0  0  0  0  0  0  0
   37.7830   24.4090   36.6290 C   0  0  0  0  0  0  0  0  0  0  0  0
   36.9170   24.9940   36.2810 H   0  0  0  0  0  0  0  0  0  0  0  0
   37.7360   24.0520   37.9550 C   0  0  0  0  0  0  0  0  0  0  0  0
   36.9170   24.3280   38.5820 H   0  0  0  0  0  0  0  0  0  0  0  0
   38.7810   23.3210   38.4670 C   0  0  0  0  0  3  0  0  0  0  0  0
   39.8070   22.9930   37.6130 C   0  0  0  0  0  3  0  0  0  0  0  0
   40.6330   22.5730   34.0050 H   0  0  0  0  0  0  0  0  0  0  0  0
   41.1250   22.8010   35.3180 S   0  0  0  0  0  0  0  0  0  0  0  0
   42.2320   23.7730   35.0940 O   0  0  0  0  0  0  0  0  0  0  0  0
   41.6720   21.4630   35.7110 O   0  0  0  0  0  0  0  0  0  0  0  0
   36.5090   27.2410   32.9410 C   0  0  0  0  0  0  0  0  0  0  0  0
   35.6740   27.3030   31.9940 O   0  0  0  0  0  0  0  0  0  0  0  0
   36.5350   28.2300   33.9730 N   0  0  0  0  0  0  0  0  0  0  0  0
   37.2970   28.3310   34.6800 H   0  0  0  0  0  0  0  0  0  0  0  0
   35.5240   30.3360   34.8480 C   0  0  2  0  0  0  0  0  0  0  0  0
   35.7340   30.5380   33.4060 C   0  0  0  0  0  0  0  0  0  0  0  0
   35.4100   29.1570   34.0280 C   0  0  1  0  0  0  0  0  0  0  0  0
   36.4550   30.5220   35.4480 H   0  0  0  0  0  0  0  0  0  0  0  0
   36.7380   30.6850   32.9920 H   0  0  0  0  0  0  0  0  0  0  0  0
   34.9260   30.9360   32.7630 H   0  0  0  0  0  0  0  0  0  0  0  0
   34.4040   28.7460   33.7570 H   0  0  0  0  0  0  0  0  0  0  0  0
   32.0080   30.8770   35.8300 C   0  0  0  0  0  0  0  0  0  0  0  0
   32.1300   31.8160   36.9050 C   0  0  0  0  0  0  0  0  0  0  0  0
   33.4550   32.2430   37.2570 C   0  0  0  0  0  0  0  0  0  0  0  0
   34.5130   31.7500   36.5680 N   0  0  0  0  0  0  0  0  0  0  0  0
   34.3270   30.8600   35.5570 C   0  0  0  0  0  0  0  0  0  0  0  0
   33.0860   30.4030   35.1620 N   0  0  0  0  0  0  0  0  0  0  0  0
   31.0040   30.5640   35.5770 H   0  0  0  0  0  0  0  0  0  0  0  0
   31.2440   32.1680   37.4110 H   0  0  0  0  0  0  0  0  0  0  0  0
   33.5380   32.9440   38.0600 H   0  0  0  0  0  0  0  0  0  0  0  0
  1  6  1  0  0  0  0
  2  3  1  0  0  0  0
  2  1  2  0  0  0  0
  3  4  2  0  0  0  0
  4  9  1  0  0  0  0
  4  5  1  0  0  0  0
  5 11  1  0  0  0  0
  6  5  2  0  0  0  0
  7  2  1  0  0  0  0
  8  3  1  0  0  0  0
 10 17  1  0  0  0  0
 11 10  2  0  0  0  0
 11 12  1  0  0  0  0
 12 14  2  0  0  0  0
 13 12  1  0  0  0  0
 14 16  1  0  0  0  0
 14 15  1  0  0  0  0
 17 16  2  0  0  0  0
 18 19  1  0  0  0  0
 19 21  2  0  0  0  0
 19 10  1  0  0  0  0
 20 19  2  0  0  0  0
 22  1  1  0  0  0  0
 22 24  1  0  0  0  0
 23 22  2  0  0  0  0
 24 28  1  0  0  0  0
 24 25  1  0  0  0  0
 26 29  1  1  0  0  0
 26 37  1  0  0  0  0
 27 28  1  0  0  0  0
 27 26  1  0  0  0  0
 28 32  1  6  0  0  0
 28 26  1  0  0  0  0
 30 27  1  0  0  0  0
 31 27  1  0  0  0  0
 33 34  1  0  0  0  0
 34 35  2  0  0  0  0
 34 40  1  0  0  0  0
 35 41  1  0  0  0  0
 36 35  1  0  0  0  0
 37 36  2  0  0  0  0
 38 37  1  0  0  0  0
 38 33  2  0  0  0  0
 39 33  1  0  0  0  0
M  END
>  <minimizedAffinity>
-5.86251926

$$$$

 OpenBabel03272508563D

 41 44  0  0  1  0  0  0  0  0999 V2000
   36.0390   28.5880   32.7040 C   0  0  0  0  0  0  0  0  0  0  0  0
   36.2580   29.4130   31.6370 C   0  0  0  0  0  0  0  0  0  0  0  0
   35.5990   30.6240   31.6440 C   0  0  0  0  0  0  0  0  0  0  0  0
   34.7820   30.9320   32.6880 C   0  0  0  0  0  0  0  0  0  0  0  0
   34.5550   30.1130   33.7680 C   0  0  0  0  0  0  0  0  0  0  0  0
   35.2210   28.9600   33.6950 N   0  0  0  0  0  0  0  0  0  0  0  0
   36.9080   29.1730   30.8040 H   0  0  0  0  0  0  0  0  0  0  0  0
   35.7500   31.2920   30.8200 H   0  0  0  0  0  0  0  0  0  0  0  0
   34.2670   31.8620   32.6150 H   0  0  0  0  0  0  0  0  0  0  0  0
   33.7940   31.1510   35.9540 C   0  0  0  0  0  0  0  0  0  0  0  0
   33.6970   30.2800   34.8990 C   0  0  0  0  0  0  0  0  0  0  0  0
   32.5980   29.4170   34.9980 C   0  0  0  0  0  0  0  0  0  0  0  0
   32.4270   28.6740   34.2030 H   0  0  0  0  0  0  0  0  0  0  0  0
   31.6720   29.3910   36.0130 C   0  0  0  0  0  0  0  0  0  0  0  0
   30.8590   28.6990   36.0130 H   0  0  0  0  0  0  0  0  0  0  0  0
   31.8140   30.2890   37.0430 C   0  0  0  0  0  3  0  0  0  0  0  0
   32.8810   31.1550   36.9900 C   0  0  0  0  0  3  0  0  0  0  0  0
   35.1290   32.7780   37.3870 H   0  0  0  0  0  0  0  0  0  0  0  0
   35.1290   32.2290   36.0770 S   0  0  0  0  0  0  0  0  0  0  0  0
   36.4760   31.5990   35.9800 O   0  0  0  0  0  0  0  0  0  0  0  0
   35.0500   33.4410   35.2020 O   0  0  0  0  0  0  0  0  0  0  0  0
   36.7210   27.2700   32.7390 C   0  0  0  0  0  0  0  0  0  0  0  0
   37.6190   27.0240   33.5940 O   0  0  0  0  0  0  0  0  0  0  0  0
   36.3260   26.2910   31.7750 N   0  0  0  0  0  0  0  0  0  0  0  0
   35.7210   26.4830   30.9460 H   0  0  0  0  0  0  0  0  0  0  0  0
   36.1780   23.8540   31.2620 C   0  0  2  0  0  0  0  0  0  0  0  0
   37.4580   24.3230   30.7100 C   0  0  0  0  0  0  0  0  0  0  0  0
   36.8120   24.9300   31.9790 C   0  0  1  0  0  0  0  0  0  0  0  0
   35.3130   24.0610   30.5770 H   0  0  0  0  0  0  0  0  0  0  0  0
   37.4950   24.9480   29.8100 H   0  0  0  0  0  0  0  0  0  0  0  0
   38.3990   23.7750   30.9080 H   0  0  0  0  0  0  0  0  0  0  0  0
   37.3710   24.7320   32.9290 H   0  0  0  0  0  0  0  0  0  0  0  0
   36.5970   21.0630   33.6400 C   0  0  0  0  0  0  0  0  0  0  0  0
   35.7200   20.0670   33.1030 C   0  0  0  0  0  0  0  0  0  0  0  0
   35.0010   20.4010   31.9050 C   0  0  0  0  0  0  0  0  0  0  0  0
   35.1830   21.6210   31.3450 N   0  0  0  0  0  0  0  0  0  0  0  0
   36.0320   22.5220   31.9070 C   0  0  0  0  0  0  0  0  0  0  0  0
   36.7560   22.2740   33.0570 N   0  0  0  0  0  0  0  0  0  0  0  0
   37.1310   20.7970   34.5430 H   0  0  0  0  0  0  0  0  0  0  0  0
   35.6230   19.1140   33.6010 H   0  0  0  0  0  0  0  0  0  0  0  0
   34.3490   19.6520   31.5100 H   0  0  0  0  0  0  0  0  0  0  0  0
  1 22  1  0  0  0  0
  1  6  1  0  0  0  0
  2  3  1  0  0  0  0
  2  1  2  0  0  0  0
  3  4  2  0  0  0  0
  4  5  1  0  0  0  0
  5 11  1  0  0  0  0
  6  5  2  0  0  0  0
  7  2  1  0  0  0  0
  8  3  1  0  0  0  0
  9  4  1  0  0  0  0
 10 19  1  0  0  0  0
 10 17  1  0  0  0  0
 11 12  1  0  0  0  0
 11 10  2  0  0  0  0
 12 14  2  0  0  0  0
 13 12  1  0  0  0  0
 14 16  1  0  0  0  0
 15 14  1  0  0  0  0
 17 16  2  0  0  0  0
 19 18  1  0  0  0  0
 20 19  2  0  0  0  0
 21 19  2  0  0  0  0
 22 23  2  0  0  0  0
 24 28  1  0  0  0  0
 24 22  1  0  0  0  0
 25 24  1  0  0  0  0
 26 29  1  6  0  0  0
 26 37  1  0  0  0  0
 26 28  1  0  0  0  0
 27 31  1  0  0  0  0
 27 26  1  0  0  0  0
 27 28  1  0  0  0  0
 28 32  1  1  0  0  0
 30 27  1  0  0  0  0
 33 39  1  0  0  0  0
 34 40  1  0  0  0  0
 34 33  1  0  0  0  0
 35 34  2  0  0  0  0
 36 35  1  0  0  0  0
 36 37  2  0  0  0  0
 37 38  1  0  0  0  0
 38 33  2  0  0  0  0
 41 35  1  0  0  0  0
M  END
>  <minimizedAffinity>
-5.85673761

$$$$

 OpenBabel03272508563D

 41 44  0  0  1  0  0  0  0  0999 V2000
   36.4920   28.2880   33.3860 C   0  0  0  0  0  0  0  0  0  0  0  0
   36.4520   28.5870   32.0530 C   0  0  0  0  0  0  0  0  0  0  0  0
   35.4550   29.4470   31.6420 C   0  0  0  0  0  0  0  0  0  0  0  0
   34.5820   29.9440   32.5610 C   0  0  0  0  0  0  0  0  0  0  0  0
   34.6150   29.6530   33.9040 C   0  0  0  0  0  0  0  0  0  0  0  0
   35.6000   28.8160   34.2300 N   0  0  0  0  0  0  0  0  0  0  0  0
   37.1440   28.1950   31.3190 H   0  0  0  0  0  0  0  0  0  0  0  0
   35.3970   29.7000   30.6020 H   0  0  0  0  0  0  0  0  0  0  0  0
   33.8100   30.5680   32.1750 H   0  0  0  0  0  0  0  0  0  0  0  0
   33.8150   31.1500   35.7880 C   0  0  0  0  0  0  0  0  0  0  0  0
   33.7450   30.0560   34.9640 C   0  0  0  0  0  0  0  0  0  0  0  0
   32.6670   29.2120   35.2600 C   0  0  0  0  0  0  0  0  0  0  0  0
   32.5200   28.3000   34.6590 H   0  0  0  0  0  0  0  0  0  0  0  0
   31.7360   29.3990   36.2520 C   0  0  0  0  0  0  0  0  0  0  0  0
   30.9390   28.7050   36.4130 H   0  0  0  0  0  0  0  0  0  0  0  0
   31.8490   30.5140   37.0470 C   0  0  0  0  0  3  0  0  0  0  0  0
   32.8950   31.3710   36.7950 C   0  0  0  0  0  3  0  0  0  0  0  0
   34.9640   33.2420   36.6730 H   0  0  0  0  0  0  0  0  0  0  0  0
   35.1220   32.2600   35.6600 S   0  0  0  0  0  0  0  0  0  0  0  0
   36.4730   31.7000   35.9460 O   0  0  0  0  0  0  0  0  0  0  0  0
   35.1450   33.0720   34.4020 O   0  0  0  0  0  0  0  0  0  0  0  0
   37.5430   27.3610   33.8770 C   0  0  0  0  0  0  0  0  0  0  0  0
   38.0810   27.5270   35.0080 O   0  0  0  0  0  0  0  0  0  0  0  0
   37.9230   26.2750   33.0280 N   0  0  0  0  0  0  0  0  0  0  0  0
   37.6450   26.1790   32.0260 H   0  0  0  0  0  0  0  0  0  0  0  0
   38.1280   24.1990   34.3960 C   0  0  2  0  0  0  0  0  0  0  0  0
   38.4920   23.8330   33.0190 C   0  0  0  0  0  0  0  0  0  0  0  0
   38.7580   25.2350   33.6180 C   0  0  1  0  0  0  0  0  0  0  0  0
   37.0170   24.2090   34.5590 H   0  0  0  0  0  0  0  0  0  0  0  0
   37.7330   23.7530   32.2320 H   0  0  0  0  0  0  0  0  0  0  0  0
   39.4130   23.2570   32.8060 H   0  0  0  0  0  0  0  0  0  0  0  0
   39.8410   25.4820   33.7680 H   0  0  0  0  0  0  0  0  0  0  0  0
   40.6670   22.4990   36.4660 C   0  0  0  0  0  0  0  0  0  0  0  0
   40.1250   22.6290   37.7850 C   0  0  0  0  0  0  0  0  0  0  0  0
   38.8680   23.3110   37.9150 C   0  0  0  0  0  0  0  0  0  0  0  0
   38.2600   23.7920   36.8040 N   0  0  0  0  0  0  0  0  0  0  0  0
   38.8290   23.6350   35.5790 C   0  0  0  0  0  0  0  0  0  0  0  0
   40.0340   22.9920   35.3750 N   0  0  0  0  0  0  0  0  0  0  0  0
   41.6140   21.9830   36.3840 H   0  0  0  0  0  0  0  0  0  0  0  0
   40.6640   22.2210   38.6270 H   0  0  0  0  0  0  0  0  0  0  0  0
   38.4700   23.4040   38.9030 H   0  0  0  0  0  0  0  0  0  0  0  0
  1 22  1  0  0  0  0
  1  6  1  0  0  0  0
  2  1  2  0  0  0  0
  3  2  1  0  0  0  0
  3  4  2  0  0  0  0
  4  5  1  0  0  0  0
  5  6  2  0  0  0  0
  5 11  1  0  0  0  0
  7  2  1  0  0  0  0
  8  3  1  0  0  0  0
  9  4  1  0  0  0  0
 10 17  1  0  0  0  0
 11 12  1  0  0  0  0
 11 10  2  0  0  0  0
 12 14  2  0  0  0  0
 13 12  1  0  0  0  0
 14 15  1  0  0  0  0
 14 16  1  0  0  0  0
 17 16  2  0  0  0  0
 19 10  1  0  0  0  0
 19 20  2  0  0  0  0
 19 18  1  0  0  0  0
 21 19  2  0  0  0  0
 22 23  2  0  0  0  0
 24 28  1  0  0  0  0
 24 22  1  0  0  0  0
 25 24  1  0  0  0  0
 26 29  1  1  0  0  0
 26 37  1  0  0  0  0
 27 28  1  0  0  0  0
 27 26  1  0  0  0  0
 28 32  1  1  0  0  0
 28 26  1  0  0  0  0
 30 27  1  0  0  0  0
 31 27  1  0  0  0  0
 33 34  1  0  0  0  0
 34 35  2  0  0  0  0
 34 40  1  0  0  0  0
 35 41  1  0  0  0  0
 36 35  1  0  0  0  0
 37 36  2  0  0  0  0
 38 37  1  0  0  0  0
 38 33  2  0  0  0  0
 39 33  1  0  0  0  0
M  END
>  <minimizedAffinity>
-5.79706287

$$$$

 OpenBabel03272508563D

 41 44  0  0  1  0  0  0  0  0999 V2000
   36.6800   28.1090   32.9340 C   0  0  0  0  0  0  0  0  0  0  0  0
   36.8800   28.6340   31.6880 C   0  0  0  0  0  0  0  0  0  0  0  0
   36.3780   29.8980   31.4610 C   0  0  0  0  0  0  0  0  0  0  0  0
   35.7240   30.5460   32.4640 C   0  0  0  0  0  0  0  0  0  0  0  0
   35.5190   30.0290   33.7210 C   0  0  0  0  0  0  0  0  0  0  0  0
   36.0280   28.8060   33.8700 N   0  0  0  0  0  0  0  0  0  0  0  0
   37.4000   28.1230   30.8870 H   0  0  0  0  0  0  0  0  0  0  0  0
   36.5190   30.3370   30.4930 H   0  0  0  0  0  0  0  0  0  0  0  0
   35.3220   31.5000   32.2140 H   0  0  0  0  0  0  0  0  0  0  0  0
   33.5070   30.4100   35.2170 C   0  0  0  0  0  0  0  0  0  0  0  0
   34.8170   30.5660   34.8440 C   0  0  0  0  0  0  0  0  0  0  0  0
   35.5340   31.4140   35.6980 C   0  0  0  0  0  0  0  0  0  0  0  0
   36.5980   31.6110   35.4880 H   0  0  0  0  0  0  0  0  0  0  0  0
   35.0440   32.0540   36.8110 C   0  0  0  0  0  0  0  0  0  0  0  0
   35.6600   32.6860   37.4120 H   0  0  0  0  0  0  0  0  0  0  0  0
   33.7240   31.8590   37.1420 C   0  0  0  0  0  3  0  0  0  0  0  0
   32.9800   31.0350   36.3310 C   0  0  0  0  0  3  0  0  0  0  0  0
   33.0820   28.2840   33.8810 H   0  0  0  0  0  0  0  0  0  0  0  0
   32.4250   29.4890   34.2470 S   0  0  0  0  0  0  0  0  0  0  0  0
   31.1970   29.0020   34.9360 O   0  0  0  0  0  0  0  0  0  0  0  0
   32.0800   30.1010   32.9250 O   0  0  0  0  0  0  0  0  0  0  0  0
   37.1960   26.7480   33.2250 C   0  0  0  0  0  0  0  0  0  0  0  0
   37.6060   25.9940   32.2960 O   0  0  0  0  0  0  0  0  0  0  0  0
   37.2130   26.3190   34.5890 N   0  0  0  0  0  0  0  0  0  0  0  0
   36.7380   26.8180   35.3740 H   0  0  0  0  0  0  0  0  0  0  0  0
   39.1910   25.1970   35.6150 C   0  0  2  0  0  0  0  0  0  0  0  0
   38.0190   24.7890   36.4050 C   0  0  0  0  0  0  0  0  0  0  0  0
   37.9510   25.0970   34.8890 C   0  0  1  0  0  0  0  0  0  0  0  0
   39.5880   26.2020   35.9230 H   0  0  0  0  0  0  0  0  0  0  0  0
   37.5210   25.4870   37.0870 H   0  0  0  0  0  0  0  0  0  0  0  0
   37.8410   23.7250   36.6510 H   0  0  0  0  0  0  0  0  0  0  0  0
   37.7400   24.2090   34.2400 H   0  0  0  0  0  0  0  0  0  0  0  0
   42.5280   23.9370   34.6670 C   0  0  0  0  0  0  0  0  0  0  0  0
   42.3610   22.5180   34.7730 C   0  0  0  0  0  0  0  0  0  0  0  0
   41.0690   22.0360   35.1710 C   0  0  0  0  0  0  0  0  0  0  0  0
   40.0800   22.9270   35.4240 N   0  0  0  0  0  0  0  0  0  0  0  0
   40.3050   24.2630   35.3060 C   0  0  0  0  0  0  0  0  0  0  0  0
   41.5190   24.8020   34.9280 N   0  0  0  0  0  0  0  0  0  0  0  0
   43.5070   24.2850   34.3670 H   0  0  0  0  0  0  0  0  0  0  0  0
   43.1920   21.8650   34.5550 H   0  0  0  0  0  0  0  0  0  0  0  0
   40.9520   20.9760   35.2470 H   0  0  0  0  0  0  0  0  0  0  0  0
  1 22  1  0  0  0  0
  1  6  1  0  0  0  0
  2  1  2  0  0  0  0
  3  2  1  0  0  0  0
  3  4  2  0  0  0  0
  4  5  1  0  0  0  0
  5  6  2  0  0  0  0
  5 11  1  0  0  0  0
  7  2  1  0  0  0  0
  8  3  1  0  0  0  0
  9  4  1  0  0  0  0
 10 17  1  0  0  0  0
 11 10  2  0  0  0  0
 11 12  1  0  0  0  0
 12 14  2  0  0  0  0
 13 12  1  0  0  0  0
 14 16  1  0  0  0  0
 14 15  1  0  0  0  0
 17 16  2  0  0  0  0
 18 19  1  0  0  0  0
 19 20  2  0  0  0  0
 19 10  1  0  0  0  0
 21 19  2  0  0  0  0
 22 24  1  0  0  0  0
 23 22  2  0  0  0  0
 24 28  1  0  0  0  0
 24 25  1  0  0  0  0
 26 29  1  1  0  0  0
 26 27  1  0  0  0  0
 27 31  1  0  0  0  0
 27 30  1  0  0  0  0
 28 32  1  6  0  0  0
 28 26  1  0  0  0  0
 28 27  1  0  0  0  0
 33 34  2  0  0  0  0
 33 38  1  0  0  0  0
 34 35  1  0  0  0  0
 35 41  1  0  0  0  0
 35 36  2  0  0  0  0
 37 36  1  0  0  0  0
 37 26  1  0  0  0  0
 38 37  2  0  0  0  0
 39 33  1  0  0  0  0
 40 34  1  0  0  0  0
M  END
>  <minimizedAffinity>
-5.77781963

$$$$

 OpenBabel03272508563D

 41 44  0  0  1  0  0  0  0  0999 V2000
   36.0920   28.8730   32.6560 C   0  0  0  0  0  0  0  0  0  0  0  0
   36.0020   29.5220   31.4570 C   0  0  0  0  0  0  0  0  0  0  0  0
   35.0080   30.4700   31.3390 C   0  0  0  0  0  0  0  0  0  0  0  0
   34.1850   30.7080   32.3960 C   0  0  0  0  0  0  0  0  0  0  0  0
   34.2660   30.0640   33.6080 C   0  0  0  0  0  0  0  0  0  0  0  0
   35.2470   29.1610   33.6510 N   0  0  0  0  0  0  0  0  0  0  0  0
   36.6550   29.3360   30.6120 H   0  0  0  0  0  0  0  0  0  0  0  0
   34.9120   30.9960   30.4090 H   0  0  0  0  0  0  0  0  0  0  0  0
   33.4100   31.4200   32.2290 H   0  0  0  0  0  0  0  0  0  0  0  0
   33.5940   30.9820   35.8740 C   0  0  0  0  0  0  0  0  0  0  0  0
   33.4510   30.1730   34.7760 C   0  0  0  0  0  0  0  0  0  0  0  0
   32.3470   29.3150   34.8650 C   0  0  0  0  0  0  0  0  0  0  0  0
   32.1410   28.6200   34.0360 H   0  0  0  0  0  0  0  0  0  0  0  0
   31.4580   29.2380   35.9100 C   0  0  0  0  0  0  0  0  0  0  0  0
   30.6380   28.5540   35.9000 H   0  0  0  0  0  0  0  0  0  0  0  0
   31.6450   30.0740   36.9840 C   0  0  0  0  0  3  0  0  0  0  0  0
   32.7180   30.9340   36.9420 C   0  0  0  0  0  3  0  0  0  0  0  0
   34.9860   32.8490   34.8450 H   0  0  0  0  0  0  0  0  0  0  0  0
   34.9430   32.0400   36.0110 S   0  0  0  0  0  0  0  0  0  0  0  0
   34.8660   33.0430   37.1100 O   0  0  0  0  0  0  0  0  0  0  0  0
   36.2810   31.3670   36.0050 O   0  0  0  0  0  0  0  0  0  0  0  0
   37.1420   27.8380   32.8300 C   0  0  0  0  0  0  0  0  0  0  0  0
   37.9810   27.6010   31.9150 O   0  0  0  0  0  0  0  0  0  0  0  0
   37.1720   27.1210   34.0670 N   0  0  0  0  0  0  0  0  0  0  0  0
   36.4160   27.1470   34.7870 H   0  0  0  0  0  0  0  0  0  0  0  0
   39.4850   26.9010   34.9760 C   0  0  2  0  0  0  0  0  0  0  0  0
   38.6150   26.0840   35.8360 C   0  0  0  0  0  0  0  0  0  0  0  0
   38.3490   26.2990   34.3260 C   0  0  1  0  0  0  0  0  0  0  0  0
   39.4670   27.9890   35.2580 H   0  0  0  0  0  0  0  0  0  0  0  0
   37.9180   26.5450   36.5450 H   0  0  0  0  0  0  0  0  0  0  0  0
   38.8870   25.0430   36.0960 H   0  0  0  0  0  0  0  0  0  0  0  0
   38.4740   25.3830   33.6930 H   0  0  0  0  0  0  0  0  0  0  0  0
   42.5240   24.8390   34.6220 C   0  0  0  0  0  0  0  0  0  0  0  0
   43.3930   25.6990   33.8750 C   0  0  0  0  0  0  0  0  0  0  0  0
   42.8880   26.9940   33.5180 C   0  0  0  0  0  0  0  0  0  0  0  0
   41.6340   27.3420   33.8960 N   0  0  0  0  0  0  0  0  0  0  0  0
   40.8600   26.4770   34.6040 C   0  0  0  0  0  0  0  0  0  0  0  0
   41.2760   25.2160   34.9840 N   0  0  0  0  0  0  0  0  0  0  0  0
   42.9190   23.8670   34.8840 H   0  0  0  0  0  0  0  0  0  0  0  0
   44.3820   25.3580   33.6070 H   0  0  0  0  0  0  0  0  0  0  0  0
   43.5430   27.6300   32.9610 H   0  0  0  0  0  0  0  0  0  0  0  0
  1 22  1  0  0  0  0
  1  6  1  0  0  0  0
  2  1  2  0  0  0  0
  3  2  1  0  0  0  0
  3  4  2  0  0  0  0
  4  5  1  0  0  0  0
  5  6  2  0  0  0  0
  5 11  1  0  0  0  0
  7  2  1  0  0  0  0
  8  3  1  0  0  0  0
  9  4  1  0  0  0  0
 10 19  1  0  0  0  0
 10 17  1  0  0  0  0
 11 12  1  0  0  0  0
 11 10  2  0  0  0  0
 12 14  2  0  0  0  0
 13 12  1  0  0  0  0
 14 16  1  0  0  0  0
 15 14  1  0  0  0  0
 17 16  2  0  0  0  0
 18 19  1  0  0  0  0
 19 20  2  0  0  0  0
 21 19  2  0  0  0  0
 22 24  1  0  0  0  0
 23 22  2  0  0  0  0
 24 28  1  0  0  0  0
 24 25  1  0  0  0  0
 26 29  1  1  0  0  0
 26 27  1  0  0  0  0
 27 31  1  0  0  0  0
 27 30  1  0  0  0  0
 28 32  1  6  0  0  0
 28 26  1  0  0  0  0
 28 27  1  0  0  0  0
 33 39  1  0  0  0  0
 33 38  1  0  0  0  0
 34 33  2  0  0  0  0
 35 34  1  0  0  0  0
 35 36  2  0  0  0  0
 36 37  1  0  0  0  0
 37 26  1  0  0  0  0
 37 38  2  0  0  0  0
 40 34  1  0  0  0  0
 41 35  1  0  0  0  0
M  END
>  <minimizedAffinity>
-5.75746441

$$$$

 OpenBabel03272508563D

 41 44  0  0  1  0  0  0  0  0999 V2000
   37.1790   26.2590   32.1210 C   0  0  0  0  0  0  0  0  0  0  0  0
   38.4820   26.4920   31.7790 C   0  0  0  0  0  0  0  0  0  0  0  0
   39.2940   25.3850   31.6460 C   0  0  0  0  0  0  0  0  0  0  0  0
   38.7720   24.1460   31.8550 C   0  0  0  0  0  0  0  0  0  0  0  0
   37.4640   23.8990   32.1970 C   0  0  0  0  0  0  0  0  0  0  0  0
   36.7380   25.0110   32.3110 N   0  0  0  0  0  0  0  0  0  0  0  0
   38.9020   27.4760   31.6110 H   0  0  0  0  0  0  0  0  0  0  0  0
   40.3210   25.5360   31.3780 H   0  0  0  0  0  0  0  0  0  0  0  0
   39.4590   23.3350   31.7790 H   0  0  0  0  0  0  0  0  0  0  0  0
   36.9270   21.8380   33.5750 C   0  0  0  0  0  0  0  0  0  0  0  0
   36.7960   22.6710   32.4930 C   0  0  0  0  0  0  0  0  0  0  0  0
   35.8880   22.1930   31.5400 C   0  0  0  0  0  0  0  0  0  0  0  0
   35.7090   22.7850   30.6270 H   0  0  0  0  0  0  0  0  0  0  0  0
   35.1660   21.0270   31.6150 C   0  0  0  0  0  0  0  0  0  0  0  0
   34.4900   20.7340   30.8410 H   0  0  0  0  0  0  0  0  0  0  0  0
   35.3320   20.2320   32.7230 C   0  0  0  0  0  3  0  0  0  0  0  0
   36.2160   20.6590   33.6860 C   0  0  0  0  0  3  0  0  0  0  0  0
   37.8480   21.2790   35.8820 H   0  0  0  0  0  0  0  0  0  0  0  0
   38.0670   22.1890   34.8140 S   0  0  0  0  0  0  0  0  0  0  0  0
   39.4950   21.9500   34.4620 O   0  0  0  0  0  0  0  0  0  0  0  0
   37.9040   23.5250   35.4700 O   0  0  0  0  0  0  0  0  0  0  0  0
   36.2670   27.4180   32.2840 C   0  0  0  0  0  0  0  0  0  0  0  0
   35.3460   27.6450   31.4480 O   0  0  0  0  0  0  0  0  0  0  0  0
   36.4640   28.2670   33.4180 N   0  0  0  0  0  0  0  0  0  0  0  0
   37.2990   28.2370   34.0450 H   0  0  0  0  0  0  0  0  0  0  0  0
   35.7030   30.3190   34.6160 C   0  0  2  0  0  0  0  0  0  0  0  0
   35.7500   30.6600   33.1850 C   0  0  0  0  0  0  0  0  0  0  0  0
   35.4160   29.2400   33.7050 C   0  0  1  0  0  0  0  0  0  0  0  0
   36.7090   30.3930   35.1080 H   0  0  0  0  0  0  0  0  0  0  0  0
   36.7040   30.7980   32.6640 H   0  0  0  0  0  0  0  0  0  0  0  0
   34.8980   31.1650   32.6920 H   0  0  0  0  0  0  0  0  0  0  0  0
   34.3600   28.9120   33.5250 H   0  0  0  0  0  0  0  0  0  0  0  0
   33.9850   32.2660   37.2380 C   0  0  0  0  0  0  0  0  0  0  0  0
   32.6420   31.7770   37.1530 C   0  0  0  0  0  0  0  0  0  0  0  0
   32.3720   30.7630   36.1730 C   0  0  0  0  0  0  0  0  0  0  0  0
   33.3810   30.3190   35.3860 N   0  0  0  0  0  0  0  0  0  0  0  0
   34.6360   30.8270   35.5180 C   0  0  0  0  0  0  0  0  0  0  0  0
   34.9720   31.8020   36.4360 N   0  0  0  0  0  0  0  0  0  0  0  0
   34.1720   33.0300   37.9810 H   0  0  0  0  0  0  0  0  0  0  0  0
   31.8850   32.1750   37.8130 H   0  0  0  0  0  0  0  0  0  0  0  0
   31.3670   30.4020   36.1160 H   0  0  0  0  0  0  0  0  0  0  0  0
  1 22  1  0  0  0  0
  1  6  1  0  0  0  0
  2  1  2  0  0  0  0
  3  2  1  0  0  0  0
  3  4  2  0  0  0  0
  4  5  1  0  0  0  0
  5  6  2  0  0  0  0
  5 11  1  0  0  0  0
  7  2  1  0  0  0  0
  8  3  1  0  0  0  0
  9  4  1  0  0  0  0
 10 17  1  0  0  0  0
 10 19  1  0  0  0  0
 11 10  2  0  0  0  0
 12 14  2  0  0  0  0
 12 11  1  0  0  0  0
 13 12  1  0  0  0  0
 14 16  1  0  0  0  0
 15 14  1  0  0  0  0
 16 17  2  0  0  0  0
 19 21  2  0  0  0  0
 19 18  1  0  0  0  0
 20 19  2  0  0  0  0
 22 24  1  0  0  0  0
 23 22  2  0  0  0  0
 24 28  1  0  0  0  0
 24 25  1  0  0  0  0
 26 29  1  1  0  0  0
 26 37  1  0  0  0  0
 27 28  1  0  0  0  0
 27 26  1  0  0  0  0
 28 32  1  6  0  0  0
 28 26  1  0  0  0  0
 30 27  1  0  0  0  0
 31 27  1  0  0  0  0
 33 39  1  0  0  0  0
 34 33  1  0  0  0  0
 34 40  1  0  0  0  0
 35 34  2  0  0  0  0
 36 37  2  0  0  0  0
 36 35  1  0  0  0  0
 37 38  1  0  0  0  0
 38 33  2  0  0  0  0
 41 35  1  0  0  0  0
M  END
>  <minimizedAffinity>
-5.67288685

$$$$
