
 OpenBabel03272501533D

 35 37  0  0  1  0  0  0  0  0999 V2000
   38.0340   25.6810   34.1300 N   0  0  0  0  0  0  0  0  0  0  0  0
   36.9740   26.6470   34.5000 C   0  0  0  0  0  0  0  0  0  0  0  0
   37.4480   27.8170   35.2550 C   0  0  0  0  0  0  0  0  0  0  0  0
   38.6700   27.7580   35.9560 N   0  0  0  0  0  0  0  0  0  0  0  0
   39.6540   26.8360   35.3790 C   0  0  0  0  0  0  0  0  0  0  0  0
   38.9310   25.5150   35.1950 C   0  0  2  0  0  0  0  0  0  0  0  0
   36.5050   26.9660   33.5470 H   0  0  0  0  0  0  0  0  0  0  0  0
   36.1900   26.0760   35.0440 H   0  0  0  0  0  0  0  0  0  0  0  0
   37.4270   28.7320   34.5930 H   0  0  0  0  0  0  0  0  0  0  0  0
   36.6520   28.0550   36.0210 H   0  0  0  0  0  0  0  0  0  0  0  0
   39.1210   28.7000   35.9460 H   0  0  0  0  0  0  0  0  0  0  0  0
   40.5050   26.7830   36.0740 H   0  0  0  0  0  0  0  0  0  0  0  0
   39.9600   27.1560   34.3670 H   0  0  0  0  0  0  0  0  0  0  0  0
   38.3110   25.4820   36.1900 H   0  0  0  0  0  0  0  0  0  0  0  0
   38.0300   25.0760   32.8510 C   0  0  0  0  0  0  0  0  0  0  0  0
   37.3530   23.8920   32.5920 C   0  0  0  0  0  0  0  0  0  0  0  0
   37.3430   23.3180   31.3340 C   0  0  0  0  0  0  0  0  0  0  0  0
   38.0460   23.9930   30.3580 N   0  0  0  0  0  0  0  0  0  0  0  0
   38.7050   25.1560   30.6390 C   0  0  0  0  0  0  0  0  0  0  0  0
   38.7030   25.7010   31.8660 N   0  0  0  0  0  0  0  0  0  0  0  0
   36.8120   23.3180   33.3090 H   0  0  0  0  0  0  0  0  0  0  0  0
   36.8360   22.4020   31.0720 H   0  0  0  0  0  0  0  0  0  0  0  0
   39.2500   25.6750   29.8760 H   0  0  0  0  0  0  0  0  0  0  0  0
   39.3060   23.3240   36.1810 C   0  0  0  0  0  0  0  0  0  0  0  0
   39.7610   24.3290   35.3100 C   0  0  0  0  0  0  0  0  0  0  0  0
   40.9940   24.0150   34.7260 C   0  0  0  0  0  0  0  0  0  0  0  0
   41.3340   24.8080   34.0530 H   0  0  0  0  0  0  0  0  0  0  0  0
   41.7410   22.8900   34.9200 C   0  0  0  0  0  0  0  0  0  0  0  0
   42.6730   22.8400   34.3680 H   0  0  0  0  0  0  0  0  0  0  0  0
   41.2410   21.9430   35.7840 C   0  0  0  0  0  3  0  0  0  0  0  0
   40.0310   22.1610   36.4080 C   0  0  0  0  0  3  0  0  0  0  0  0
   37.1110   24.5220   36.9300 H   0  0  0  0  0  0  0  0  0  0  0  0
   37.8080   23.3680   37.0840 S   0  0  0  0  0  0  0  0  0  0  0  0
   38.1040   23.2620   38.5730 O   0  0  0  0  0  0  0  0  0  0  0  0
   36.8790   22.2660   36.6510 O   0  0  0  0  0  0  0  0  0  0  0  0
  1  2  1  0  0  0  0
  1  6  1  0  0  0  0
  2  8  1  0  0  0  0
  2  3  1  0  0  0  0
  3  4  1  0  0  0  0
  3 10  1  0  0  0  0
  5  4  1  0  0  0  0
  5 12  1  0  0  0  0
  6 25  1  0  0  0  0
  6  5  1  0  0  0  0
  6 14  1  1  0  0  0
  7  2  1  0  0  0  0
  9  3  1  0  0  0  0
 11  4  1  0  0  0  0
 13  5  1  0  0  0  0
 15  1  1  0  0  0  0
 16 15  1  0  0  0  0
 16 21  1  0  0  0  0
 17 16  2  0  0  0  0
 18 19  2  0  0  0  0
 18 17  1  0  0  0  0
 19 20  1  0  0  0  0
 20 15  2  0  0  0  0
 22 17  1  0  0  0  0
 23 19  1  0  0  0  0
 24 31  1  0  0  0  0
 24 33  1  0  0  0  0
 25 24  2  0  0  0  0
 26 28  2  0  0  0  0
 26 25  1  0  0  0  0
 27 26  1  0  0  0  0
 28 30  1  0  0  0  0
 29 28  1  0  0  0  0
 30 31  2  0  0  0  0
 32 33  1  0  0  0  0
 33 34  2  0  0  0  0
 35 33  2  0  0  0  0
M  END
>  <minimizedAffinity>
-5.03070402

$$$$

 OpenBabel03272501533D

 35 37  0  0  1  0  0  0  0  0999 V2000
   37.8960   24.2580   32.5370 N   0  0  0  0  0  0  0  0  0  0  0  0
   38.6930   25.3830   31.9970 C   0  0  0  0  0  0  0  0  0  0  0  0
   37.9390   26.3160   31.1460 C   0  0  0  0  0  0  0  0  0  0  0  0
   36.7400   25.9000   30.5310 N   0  0  0  0  0  0  0  0  0  0  0  0
   36.0130   24.8600   31.2670 C   0  0  0  0  0  0  0  0  0  0  0  0
   37.0250   23.7670   31.5540 C   0  0  2  0  0  0  0  0  0  0  0  0
   39.1090   25.9130   32.8780 H   0  0  0  0  0  0  0  0  0  0  0  0
   39.5680   24.9390   31.4730 H   0  0  0  0  0  0  0  0  0  0  0  0
   37.7720   27.2860   31.6990 H   0  0  0  0  0  0  0  0  0  0  0  0
   38.6330   26.6290   30.3100 H   0  0  0  0  0  0  0  0  0  0  0  0
   36.0860   26.7110   30.4630 H   0  0  0  0  0  0  0  0  0  0  0  0
   35.1740   24.5330   30.6350 H   0  0  0  0  0  0  0  0  0  0  0  0
   35.6760   25.2260   32.2530 H   0  0  0  0  0  0  0  0  0  0  0  0
   37.6020   23.7500   30.5330 H   0  0  0  0  0  0  0  0  0  0  0  0
   38.0810   23.8320   33.8730 C   0  0  0  0  0  0  0  0  0  0  0  0
   38.4560   22.5340   34.1930 C   0  0  0  0  0  0  0  0  0  0  0  0
   38.6500   22.1330   35.5020 C   0  0  0  0  0  0  0  0  0  0  0  0
   38.4450   23.0990   36.4650 N   0  0  0  0  0  0  0  0  0  0  0  0
   38.0750   24.3680   36.1240 C   0  0  0  0  0  0  0  0  0  0  0  0
   37.8930   24.7430   34.8480 N   0  0  0  0  0  0  0  0  0  0  0  0
   38.6090   21.7430   33.4940 H   0  0  0  0  0  0  0  0  0  0  0  0
   38.9420   21.1410   35.8120 H   0  0  0  0  0  0  0  0  0  0  0  0
   37.9180   25.1140   36.8780 H   0  0  0  0  0  0  0  0  0  0  0  0
   37.2140   21.4140   30.9670 C   0  0  0  0  0  0  0  0  0  0  0  0
   36.4850   22.4210   31.6230 C   0  0  0  0  0  0  0  0  0  0  0  0
   35.3080   21.9350   32.2070 C   0  0  0  0  0  0  0  0  0  0  0  0
   34.7530   22.7310   32.7130 H   0  0  0  0  0  0  0  0  0  0  0  0
   34.8420   20.6540   32.1920 C   0  0  0  0  0  0  0  0  0  0  0  0
   33.9030   20.4850   32.7070 H   0  0  0  0  0  0  0  0  0  0  0  0
   35.6020   19.7140   31.5330 C   0  0  0  0  0  3  0  0  0  0  0  0
   36.7800   20.0950   30.9260 C   0  0  0  0  0  3  0  0  0  0  0  0
   38.8050   22.8160   29.4450 H   0  0  0  0  0  0  0  0  0  0  0  0
   38.7320   21.6470   30.1290 S   0  0  0  0  0  0  0  0  0  0  0  0
   38.9170   20.5500   29.0890 O   0  0  0  0  0  0  0  0  0  0  0  0
   39.8890   21.6610   31.0920 O   0  0  0  0  0  0  0  0  0  0  0  0
  1 15  1  0  0  0  0
  2  1  1  0  0  0  0
  2  7  1  0  0  0  0
  3  9  1  0  0  0  0
  3  2  1  0  0  0  0
  4  3  1  0  0  0  0
  4  5  1  0  0  0  0
  5  6  1  0  0  0  0
  5 13  1  0  0  0  0
  6 14  1  6  0  0  0
  6 25  1  0  0  0  0
  6  1  1  0  0  0  0
  8  2  1  0  0  0  0
 10  3  1  0  0  0  0
 11  4  1  0  0  0  0
 12  5  1  0  0  0  0
 15 16  2  0  0  0  0
 15 20  1  0  0  0  0
 16 17  1  0  0  0  0
 17 22  1  0  0  0  0
 17 18  2  0  0  0  0
 19 18  1  0  0  0  0
 19 23  1  0  0  0  0
 20 19  2  0  0  0  0
 21 16  1  0  0  0  0
 24 25  1  0  0  0  0
 25 26  2  0  0  0  0
 26 27  1  0  0  0  0
 28 26  1  0  0  0  0
 28 29  1  0  0  0  0
 30 28  2  0  0  0  0
 31 24  2  0  0  0  0
 31 30  1  0  0  0  0
 32 33  1  0  0  0  0
 33 24  1  0  0  0  0
 33 35  2  0  0  0  0
 34 33  2  0  0  0  0
M  END
>  <minimizedAffinity>
-4.77085495

$$$$

 OpenBabel03272501533D

 35 37  0  0  1  0  0  0  0  0999 V2000
   37.6900   25.7280   32.1620 N   0  0  0  0  0  0  0  0  0  0  0  0
   38.1960   27.0010   31.5960 C   0  0  0  0  0  0  0  0  0  0  0  0
   37.2270   27.7290   30.7630 C   0  0  0  0  0  0  0  0  0  0  0  0
   36.1390   27.0450   30.1820 N   0  0  0  0  0  0  0  0  0  0  0  0
   35.6870   25.8740   30.9410 C   0  0  0  0  0  0  0  0  0  0  0  0
   36.9290   25.0430   31.2040 C   0  0  2  0  0  0  0  0  0  0  0  0
   38.5030   27.6200   32.4640 H   0  0  0  0  0  0  0  0  0  0  0  0
   39.1350   26.7620   31.0500 H   0  0  0  0  0  0  0  0  0  0  0  0
   36.8580   28.6410   31.3160 H   0  0  0  0  0  0  0  0  0  0  0  0
   37.8100   28.1840   29.9080 H   0  0  0  0  0  0  0  0  0  0  0  0
   35.3160   27.6860   30.1290 H   0  0  0  0  0  0  0  0  0  0  0  0
   34.9290   25.3580   30.3340 H   0  0  0  0  0  0  0  0  0  0  0  0
   35.3010   26.1630   31.9350 H   0  0  0  0  0  0  0  0  0  0  0  0
   37.4680   25.1480   30.1680 H   0  0  0  0  0  0  0  0  0  0  0  0
   38.0010   25.3690   33.4930 C   0  0  0  0  0  0  0  0  0  0  0  0
   38.9070   24.3620   33.7970 C   0  0  0  0  0  0  0  0  0  0  0  0
   39.2170   24.0290   35.1040 C   0  0  0  0  0  0  0  0  0  0  0  0
   38.5690   24.7560   36.0800 N   0  0  0  0  0  0  0  0  0  0  0  0
   37.6800   25.7410   35.7550 C   0  0  0  0  0  0  0  0  0  0  0  0
   37.3920   26.0530   34.4810 N   0  0  0  0  0  0  0  0  0  0  0  0
   39.4210   23.7560   33.0870 H   0  0  0  0  0  0  0  0  0  0  0  0
   39.9120   23.2580   35.4020 H   0  0  0  0  0  0  0  0  0  0  0  0
   37.1800   26.3020   36.5190 H   0  0  0  0  0  0  0  0  0  0  0  0
   37.6850   22.7870   30.7020 C   0  0  0  0  0  0  0  0  0  0  0  0
   36.7110   23.6100   31.2930 C   0  0  0  0  0  0  0  0  0  0  0  0
   35.6500   22.8770   31.8390 C   0  0  0  0  0  0  0  0  0  0  0  0
   34.9010   23.5320   32.2940 H   0  0  0  0  0  0  0  0  0  0  0  0
   35.4940   21.5220   31.8450 C   0  0  0  0  0  0  0  0  0  0  0  0
   34.5950   21.1510   32.3230 H   0  0  0  0  0  0  0  0  0  0  0  0
   36.4830   20.7710   31.2500 C   0  0  0  0  0  3  0  0  0  0  0  0
   37.5700   21.4020   30.6840 C   0  0  0  0  0  3  0  0  0  0  0  0
   39.0800   24.6320   29.4920 H   0  0  0  0  0  0  0  0  0  0  0  0
   39.1490   23.3480   29.9250 S   0  0  0  0  0  0  0  0  0  0  0  0
   39.4240   22.5100   28.6840 O   0  0  0  0  0  0  0  0  0  0  0  0
   40.3210   23.2950   30.8680 O   0  0  0  0  0  0  0  0  0  0  0  0
  1 15  1  0  0  0  0
  2  1  1  0  0  0  0
  2  7  1  0  0  0  0
  3  9  1  0  0  0  0
  3  2  1  0  0  0  0
  4  3  1  0  0  0  0
  4  5  1  0  0  0  0
  5  6  1  0  0  0  0
  5 13  1  0  0  0  0
  6 14  1  6  0  0  0
  6 25  1  0  0  0  0
  6  1  1  0  0  0  0
  8  2  1  0  0  0  0
 10  3  1  0  0  0  0
 11  4  1  0  0  0  0
 12  5  1  0  0  0  0
 15 16  2  0  0  0  0
 15 20  1  0  0  0  0
 16 17  1  0  0  0  0
 17 22  1  0  0  0  0
 17 18  2  0  0  0  0
 19 18  1  0  0  0  0
 19 23  1  0  0  0  0
 20 19  2  0  0  0  0
 21 16  1  0  0  0  0
 24 25  1  0  0  0  0
 25 26  2  0  0  0  0
 26 28  1  0  0  0  0
 26 27  1  0  0  0  0
 28 29  1  0  0  0  0
 30 28  2  0  0  0  0
 31 24  2  0  0  0  0
 31 30  1  0  0  0  0
 32 33  1  0  0  0  0
 33 24  1  0  0  0  0
 33 35  2  0  0  0  0
 34 33  2  0  0  0  0
M  END
>  <minimizedAffinity>
-4.68156624

$$$$

 OpenBabel03272501533D

 35 37  0  0  1  0  0  0  0  0999 V2000
   39.0960   24.2520   35.9450 N   0  0  0  0  0  0  0  0  0  0  0  0
   38.0430   24.5370   36.9480 C   0  0  0  0  0  0  0  0  0  0  0  0
   38.2380   23.8760   38.2470 C   0  0  0  0  0  0  0  0  0  0  0  0
   39.0550   22.7310   38.3410 N   0  0  0  0  0  0  0  0  0  0  0  0
   40.1280   22.6700   37.3420 C   0  0  0  0  0  0  0  0  0  0  0  0
   39.4610   22.9000   35.9990 C   0  0  2  0  0  0  0  0  0  0  0  0
   38.0300   25.6400   37.0720 H   0  0  0  0  0  0  0  0  0  0  0  0
   37.0700   24.2770   36.4770 H   0  0  0  0  0  0  0  0  0  0  0  0
   38.5510   24.6380   39.0190 H   0  0  0  0  0  0  0  0  0  0  0  0
   37.2140   23.5680   38.6120 H   0  0  0  0  0  0  0  0  0  0  0  0
   39.5300   22.7200   39.2710 H   0  0  0  0  0  0  0  0  0  0  0  0
   40.6110   21.6860   37.4350 H   0  0  0  0  0  0  0  0  0  0  0  0
   40.8440   23.5010   37.4700 H   0  0  0  0  0  0  0  0  0  0  0  0
   38.4850   22.2660   36.1440 H   0  0  0  0  0  0  0  0  0  0  0  0
   39.5810   25.2860   35.1100 C   0  0  0  0  0  0  0  0  0  0  0  0
   40.9230   25.6400   35.0700 C   0  0  0  0  0  0  0  0  0  0  0  0
   41.3880   26.6420   34.2380 C   0  0  0  0  0  0  0  0  0  0  0  0
   40.4380   27.2650   33.4560 N   0  0  0  0  0  0  0  0  0  0  0  0
   39.1240   26.8990   33.5150 C   0  0  0  0  0  0  0  0  0  0  0  0
   38.6880   25.9230   34.3270 N   0  0  0  0  0  0  0  0  0  0  0  0
   41.6950   25.2080   35.6640 H   0  0  0  0  0  0  0  0  0  0  0  0
   42.4170   26.9600   34.1620 H   0  0  0  0  0  0  0  0  0  0  0  0
   38.3910   27.3880   32.9040 H   0  0  0  0  0  0  0  0  0  0  0  0
   39.2440   21.8310   33.8250 C   0  0  0  0  0  0  0  0  0  0  0  0
   40.0920   22.2390   34.8700 C   0  0  0  0  0  0  0  0  0  0  0  0
   41.4280   21.8830   34.6460 C   0  0  0  0  0  0  0  0  0  0  0  0
   42.0720   22.2070   35.4690 H   0  0  0  0  0  0  0  0  0  0  0  0
   41.9400   21.2180   33.5710 C   0  0  0  0  0  0  0  0  0  0  0  0
   43.0090   21.0400   33.5910 H   0  0  0  0  0  0  0  0  0  0  0  0
   41.0590   20.8470   32.5810 C   0  0  0  0  0  3  0  0  0  0  0  0
   39.7210   21.1530   32.7100 C   0  0  0  0  0  3  0  0  0  0  0  0
   36.9670   22.4220   34.9560 H   0  0  0  0  0  0  0  0  0  0  0  0
   37.5180   22.1040   33.7570 S   0  0  0  0  0  0  0  0  0  0  0  0
   36.8150   20.8310   33.3070 O   0  0  0  0  0  0  0  0  0  0  0  0
   37.1820   23.2460   32.8350 O   0  0  0  0  0  0  0  0  0  0  0  0
  1  6  1  0  0  0  0
  1  2  1  0  0  0  0
  2  7  1  0  0  0  0
  2  3  1  0  0  0  0
  3  4  1  0  0  0  0
  3 10  1  0  0  0  0
  3  9  1  0  0  0  0
  4 11  1  0  0  0  0
  5 12  1  0  0  0  0
  5 13  1  0  0  0  0
  5  4  1  0  0  0  0
  6 14  1  1  0  0  0
  6  5  1  0  0  0  0
  8  2  1  0  0  0  0
 15  1  1  0  0  0  0
 16 15  1  0  0  0  0
 16 21  1  0  0  0  0
 17 16  2  0  0  0  0
 18 19  2  0  0  0  0
 18 17  1  0  0  0  0
 19 20  1  0  0  0  0
 20 15  2  0  0  0  0
 22 17  1  0  0  0  0
 23 19  1  0  0  0  0
 24 25  1  0  0  0  0
 25  6  1  0  0  0  0
 26 25  2  0  0  0  0
 26 27  1  0  0  0  0
 28 29  1  0  0  0  0
 28 26  1  0  0  0  0
 30 31  1  0  0  0  0
 30 28  2  0  0  0  0
 31 24  2  0  0  0  0
 33 24  1  0  0  0  0
 33 32  1  0  0  0  0
 34 33  2  0  0  0  0
 35 33  2  0  0  0  0
M  END
>  <minimizedAffinity>
-4.67047119

$$$$

 OpenBabel03272501533D

 35 37  0  0  1  0  0  0  0  0999 V2000
   38.4590   23.3970   33.4750 N   0  0  0  0  0  0  0  0  0  0  0  0
   38.7850   22.7520   32.1820 C   0  0  0  0  0  0  0  0  0  0  0  0
   38.0450   21.5100   31.9130 C   0  0  0  0  0  0  0  0  0  0  0  0
   37.4760   20.7810   32.9780 N   0  0  0  0  0  0  0  0  0  0  0  0
   37.0990   21.5990   34.1360 C   0  0  0  0  0  0  0  0  0  0  0  0
   38.3230   22.4270   34.4790 C   0  0  2  0  0  0  0  0  0  0  0  0
   38.5700   23.5090   31.4000 H   0  0  0  0  0  0  0  0  0  0  0  0
   39.8880   22.6050   32.1620 H   0  0  0  0  0  0  0  0  0  0  0  0
   37.2690   21.6950   31.1140 H   0  0  0  0  0  0  0  0  0  0  0  0
   38.7640   20.8080   31.3950 H   0  0  0  0  0  0  0  0  0  0  0  0
   36.5960   20.3230   32.6530 H   0  0  0  0  0  0  0  0  0  0  0  0
   36.7880   20.9130   34.9380 H   0  0  0  0  0  0  0  0  0  0  0  0
   36.3070   22.3240   33.8750 H   0  0  0  0  0  0  0  0  0  0  0  0
   39.1630   21.6240   34.3230 H   0  0  0  0  0  0  0  0  0  0  0  0
   38.3320   24.8030   33.5560 C   0  0  0  0  0  0  0  0  0  0  0  0
   39.3460   25.6130   34.0500 C   0  0  0  0  0  0  0  0  0  0  0  0
   39.2160   26.9890   34.1100 C   0  0  0  0  0  0  0  0  0  0  0  0
   38.0210   27.5020   33.6510 N   0  0  0  0  0  0  0  0  0  0  0  0
   37.0390   26.6840   33.1710 C   0  0  0  0  0  0  0  0  0  0  0  0
   37.1810   25.3500   33.1180 N   0  0  0  0  0  0  0  0  0  0  0  0
   40.2790   25.2720   34.4350 H   0  0  0  0  0  0  0  0  0  0  0  0
   39.9680   27.6690   34.4820 H   0  0  0  0  0  0  0  0  0  0  0  0
   36.1120   27.0900   32.8160 H   0  0  0  0  0  0  0  0  0  0  0  0
   39.7500   22.5740   36.4420 C   0  0  0  0  0  0  0  0  0  0  0  0
   38.4740   22.7630   35.8830 C   0  0  0  0  0  0  0  0  0  0  0  0
   37.5380   23.2130   36.8230 C   0  0  0  0  0  0  0  0  0  0  0  0
   36.5510   23.3530   36.3720 H   0  0  0  0  0  0  0  0  0  0  0  0
   37.7480   23.4650   38.1470 C   0  0  0  0  0  0  0  0  0  0  0  0
   36.8850   23.8090   38.7050 H   0  0  0  0  0  0  0  0  0  0  0  0
   39.0190   23.2620   38.6340 C   0  0  0  0  0  3  0  0  0  0  0  0
   40.0110   22.8200   37.7850 C   0  0  0  0  0  3  0  0  0  0  0  0
   40.9020   21.0600   34.6560 H   0  0  0  0  0  0  0  0  0  0  0  0
   41.1650   22.0240   35.5730 S   0  0  0  0  0  0  0  0  0  0  0  0
   42.1570   21.4060   36.5480 O   0  0  0  0  0  0  0  0  0  0  0  0
   41.8080   23.1520   34.8110 O   0  0  0  0  0  0  0  0  0  0  0  0
  1 15  1  0  0  0  0
  1  6  1  0  0  0  0
  2  1  1  0  0  0  0
  3  2  1  0  0  0  0
  3  4  1  0  0  0  0
  4  5  1  0  0  0  0
  5  6  1  0  0  0  0
  5 12  1  0  0  0  0
  6 14  1  6  0  0  0
  6 25  1  0  0  0  0
  7  2  1  0  0  0  0
  8  2  1  0  0  0  0
  9  3  1  0  0  0  0
 10  3  1  0  0  0  0
 11  4  1  0  0  0  0
 13  5  1  0  0  0  0
 15 16  1  0  0  0  0
 16 17  2  0  0  0  0
 16 21  1  0  0  0  0
 17 22  1  0  0  0  0
 18 17  1  0  0  0  0
 19 18  2  0  0  0  0
 20 19  1  0  0  0  0
 20 15  2  0  0  0  0
 23 19  1  0  0  0  0
 24 31  1  0  0  0  0
 25 24  2  0  0  0  0
 25 26  1  0  0  0  0
 26 28  2  0  0  0  0
 27 26  1  0  0  0  0
 28 30  1  0  0  0  0
 28 29  1  0  0  0  0
 31 30  2  0  0  0  0
 32 33  1  0  0  0  0
 33 24  1  0  0  0  0
 33 34  2  0  0  0  0
 35 33  2  0  0  0  0
M  END
>  <minimizedAffinity>
-4.65641356

$$$$

 OpenBabel03272501533D

 35 37  0  0  1  0  0  0  0  0999 V2000
   38.6150   23.0290   34.5680 N   0  0  0  0  0  0  0  0  0  0  0  0
   37.5260   22.2030   33.9970 C   0  0  0  0  0  0  0  0  0  0  0  0
   37.9380   21.3280   32.8890 C   0  0  0  0  0  0  0  0  0  0  0  0
   39.1050   21.6200   32.1540 N   0  0  0  0  0  0  0  0  0  0  0  0
   40.1340   22.3400   32.9140 C   0  0  0  0  0  0  0  0  0  0  0  0
   39.4320   23.5280   33.5430 C   0  0  2  0  0  0  0  0  0  0  0  0
   37.1270   21.6000   34.8390 H   0  0  0  0  0  0  0  0  0  0  0  0
   36.7070   22.8980   33.7110 H   0  0  0  0  0  0  0  0  0  0  0  0
   37.9620   20.2550   33.2400 H   0  0  0  0  0  0  0  0  0  0  0  0
   37.0860   21.3210   32.1460 H   0  0  0  0  0  0  0  0  0  0  0  0
   39.5520   20.7290   31.8430 H   0  0  0  0  0  0  0  0  0  0  0  0
   40.9310   22.6180   32.2090 H   0  0  0  0  0  0  0  0  0  0  0  0
   40.5120   21.7320   33.7540 H   0  0  0  0  0  0  0  0  0  0  0  0
   38.7400   23.8520   32.6540 H   0  0  0  0  0  0  0  0  0  0  0  0
   38.7080   23.2140   35.9680 C   0  0  0  0  0  0  0  0  0  0  0  0
   37.7890   23.9750   36.6780 C   0  0  0  0  0  0  0  0  0  0  0  0
   37.8800   24.1370   38.0480 C   0  0  0  0  0  0  0  0  0  0  0  0
   38.9390   23.4990   38.6610 N   0  0  0  0  0  0  0  0  0  0  0  0
   39.8290   22.7570   37.9390 C   0  0  0  0  0  0  0  0  0  0  0  0
   39.7260   22.6090   36.6090 N   0  0  0  0  0  0  0  0  0  0  0  0
   36.9660   24.5050   36.2560 H   0  0  0  0  0  0  0  0  0  0  0  0
   37.1970   24.7140   38.6540 H   0  0  0  0  0  0  0  0  0  0  0  0
   40.6500   22.2640   38.4220 H   0  0  0  0  0  0  0  0  0  0  0  0
   39.6970   25.9380   33.3540 C   0  0  0  0  0  0  0  0  0  0  0  0
   40.2570   24.7070   33.7370 C   0  0  0  0  0  0  0  0  0  0  0  0
   41.5680   24.8400   34.2110 C   0  0  0  0  0  0  0  0  0  0  0  0
   41.9880   23.8730   34.5040 H   0  0  0  0  0  0  0  0  0  0  0  0
   42.2970   25.9870   34.3230 C   0  0  0  0  0  0  0  0  0  0  0  0
   43.3010   25.8730   34.7160 H   0  0  0  0  0  0  0  0  0  0  0  0
   41.6930   27.1590   33.9310 C   0  0  0  0  0  3  0  0  0  0  0  0
   40.4010   27.1320   33.4510 C   0  0  0  0  0  3  0  0  0  0  0  0
   37.7150   25.2210   31.8130 H   0  0  0  0  0  0  0  0  0  0  0  0
   38.0820   26.1620   32.7200 S   0  0  0  0  0  0  0  0  0  0  0  0
   37.9990   27.4930   31.9860 O   0  0  0  0  0  0  0  0  0  0  0  0
   37.0520   26.0990   33.8160 O   0  0  0  0  0  0  0  0  0  0  0  0
  1 15  1  0  0  0  0
  2  1  1  0  0  0  0
  2  7  1  0  0  0  0
  3  9  1  0  0  0  0
  3  2  1  0  0  0  0
  4  3  1  0  0  0  0
  4  5  1  0  0  0  0
  5  6  1  0  0  0  0
  5 13  1  0  0  0  0
  6 14  1  6  0  0  0
  6 25  1  0  0  0  0
  6  1  1  0  0  0  0
  8  2  1  0  0  0  0
 10  3  1  0  0  0  0
 11  4  1  0  0  0  0
 12  5  1  0  0  0  0
 15 20  2  0  0  0  0
 15 16  1  0  0  0  0
 16 17  2  0  0  0  0
 17 22  1  0  0  0  0
 17 18  1  0  0  0  0
 19 23  1  0  0  0  0
 19 18  2  0  0  0  0
 20 19  1  0  0  0  0
 21 16  1  0  0  0  0
 24 31  2  0  0  0  0
 24 25  1  0  0  0  0
 25 26  2  0  0  0  0
 26 28  1  0  0  0  0
 26 27  1  0  0  0  0
 28 29  1  0  0  0  0
 30 28  2  0  0  0  0
 31 30  1  0  0  0  0
 32 33  1  0  0  0  0
 33 24  1  0  0  0  0
 33 35  2  0  0  0  0
 34 33  2  0  0  0  0
M  END
>  <minimizedAffinity>
-4.5994916

$$$$

 OpenBabel03272501533D

 35 37  0  0  1  0  0  0  0  0999 V2000
   37.8820   25.8190   33.5470 N   0  0  0  0  0  0  0  0  0  0  0  0
   38.6280   25.4200   34.7640 C   0  0  0  0  0  0  0  0  0  0  0  0
   38.4060   26.2860   35.9310 C   0  0  0  0  0  0  0  0  0  0  0  0
   37.9340   27.6040   35.7530 N   0  0  0  0  0  0  0  0  0  0  0  0
   37.1070   27.7930   34.5570 C   0  0  0  0  0  0  0  0  0  0  0  0
   37.9030   27.2130   33.4030 C   0  0  2  0  0  0  0  0  0  0  0  0
   38.3130   24.3800   34.9880 H   0  0  0  0  0  0  0  0  0  0  0  0
   39.7010   25.3540   34.4790 H   0  0  0  0  0  0  0  0  0  0  0  0
   37.7660   25.7470   36.6890 H   0  0  0  0  0  0  0  0  0  0  0  0
   39.3970   26.3720   36.4670 H   0  0  0  0  0  0  0  0  0  0  0  0
   37.3300   27.8680   36.5630 H   0  0  0  0  0  0  0  0  0  0  0  0
   36.9070   28.8710   34.4600 H   0  0  0  0  0  0  0  0  0  0  0  0
   36.1780   27.1990   34.6120 H   0  0  0  0  0  0  0  0  0  0  0  0
   38.9760   27.5910   33.6850 H   0  0  0  0  0  0  0  0  0  0  0  0
   37.2800   24.8350   32.7290 C   0  0  0  0  0  0  0  0  0  0  0  0
   36.1370   25.0890   31.9830 C   0  0  0  0  0  0  0  0  0  0  0  0
   35.5650   24.1240   31.1730 C   0  0  0  0  0  0  0  0  0  0  0  0
   36.1980   22.8990   31.1560 N   0  0  0  0  0  0  0  0  0  0  0  0
   37.3210   22.6750   31.9010 C   0  0  0  0  0  0  0  0  0  0  0  0
   37.8650   23.6230   32.6800 N   0  0  0  0  0  0  0  0  0  0  0  0
   35.5950   26.0070   31.9720 H   0  0  0  0  0  0  0  0  0  0  0  0
   34.6800   24.2620   30.5700 H   0  0  0  0  0  0  0  0  0  0  0  0
   37.8080   21.7190   31.8830 H   0  0  0  0  0  0  0  0  0  0  0  0
   38.7450   27.7910   31.1960 C   0  0  0  0  0  0  0  0  0  0  0  0
   37.6830   27.8450   32.1140 C   0  0  0  0  0  0  0  0  0  0  0  0
   36.5840   28.5610   31.6210 C   0  0  0  0  0  0  0  0  0  0  0  0
   35.7680   28.5950   32.3490 H   0  0  0  0  0  0  0  0  0  0  0  0
   36.4690   29.1690   30.4060 C   0  0  0  0  0  0  0  0  0  0  0  0
   35.5290   29.6750   30.2180 H   0  0  0  0  0  0  0  0  0  0  0  0
   37.5440   29.0790   29.5510 C   0  0  0  0  0  3  0  0  0  0  0  0
   38.6720   28.3940   29.9460 C   0  0  0  0  0  3  0  0  0  0  0  0
   40.6210   26.8890   32.7710 H   0  0  0  0  0  0  0  0  0  0  0  0
   40.2740   26.9820   31.4630 S   0  0  0  0  0  0  0  0  0  0  0  0
   41.3930   27.7690   30.7950 O   0  0  0  0  0  0  0  0  0  0  0  0
   40.2400   25.5690   30.9450 O   0  0  0  0  0  0  0  0  0  0  0  0
  1  2  1  0  0  0  0
  2  7  1  0  0  0  0
  2  3  1  0  0  0  0
  3 10  1  0  0  0  0
  3  9  1  0  0  0  0
  4  3  1  0  0  0  0
  4 11  1  0  0  0  0
  5 13  1  0  0  0  0
  5  4  1  0  0  0  0
  6  1  1  0  0  0  0
  6 14  1  1  0  0  0
  6  5  1  0  0  0  0
  8  2  1  0  0  0  0
 12  5  1  0  0  0  0
 15  1  1  0  0  0  0
 16 15  2  0  0  0  0
 17 16  1  0  0  0  0
 18 17  2  0  0  0  0
 18 19  1  0  0  0  0
 19 20  2  0  0  0  0
 20 15  1  0  0  0  0
 21 16  1  0  0  0  0
 22 17  1  0  0  0  0
 23 19  1  0  0  0  0
 24 33  1  0  0  0  0
 24 25  1  0  0  0  0
 25  6  1  0  0  0  0
 26 25  2  0  0  0  0
 26 27  1  0  0  0  0
 28 26  1  0  0  0  0
 29 28  1  0  0  0  0
 30 31  1  0  0  0  0
 30 28  2  0  0  0  0
 31 24  2  0  0  0  0
 33 32  1  0  0  0  0
 34 33  2  0  0  0  0
 35 33  2  0  0  0  0
M  END
>  <minimizedAffinity>
-4.5830574

$$$$

 OpenBabel03272501533D

 35 37  0  0  1  0  0  0  0  0999 V2000
   37.6630   23.5660   31.9000 N   0  0  0  0  0  0  0  0  0  0  0  0
   37.6240   24.3920   30.6710 C   0  0  0  0  0  0  0  0  0  0  0  0
   38.8950   25.0510   30.3350 C   0  0  0  0  0  0  0  0  0  0  0  0
   39.8690   25.2590   31.3340 N   0  0  0  0  0  0  0  0  0  0  0  0
   39.8430   24.2720   32.4190 C   0  0  0  0  0  0  0  0  0  0  0  0
   38.4040   24.2160   32.8970 C   0  0  2  0  0  0  0  0  0  0  0  0
   37.3130   23.7100   29.8540 H   0  0  0  0  0  0  0  0  0  0  0  0
   36.7880   25.1150   30.7930 H   0  0  0  0  0  0  0  0  0  0  0  0
   39.3620   24.5430   29.4410 H   0  0  0  0  0  0  0  0  0  0  0  0
   38.6360   26.0720   29.9250 H   0  0  0  0  0  0  0  0  0  0  0  0
   40.8210   25.1910   30.9090 H   0  0  0  0  0  0  0  0  0  0  0  0
   40.5530   24.6070   33.1890 H   0  0  0  0  0  0  0  0  0  0  0  0
   40.0770   23.2590   32.0470 H   0  0  0  0  0  0  0  0  0  0  0  0
   38.1340   25.3570   32.8640 H   0  0  0  0  0  0  0  0  0  0  0  0
   37.0030   22.3160   31.9370 C   0  0  0  0  0  0  0  0  0  0  0  0
   37.6740   21.1170   31.7390 C   0  0  0  0  0  0  0  0  0  0  0  0
   37.0220   19.8980   31.7930 C   0  0  0  0  0  0  0  0  0  0  0  0
   35.6680   19.9510   32.0500 N   0  0  0  0  0  0  0  0  0  0  0  0
   35.0300   21.1440   32.2390 C   0  0  0  0  0  0  0  0  0  0  0  0
   35.6790   22.3180   32.1860 N   0  0  0  0  0  0  0  0  0  0  0  0
   38.7120   21.0170   31.5180 H   0  0  0  0  0  0  0  0  0  0  0  0
   37.4880   18.9350   31.6490 H   0  0  0  0  0  0  0  0  0  0  0  0
   33.9770   21.1770   32.4390 H   0  0  0  0  0  0  0  0  0  0  0  0
   38.0960   24.9860   35.1830 C   0  0  0  0  0  0  0  0  0  0  0  0
   38.2270   23.8980   34.3030 C   0  0  0  0  0  0  0  0  0  0  0  0
   38.2070   22.6650   34.9670 C   0  0  0  0  0  0  0  0  0  0  0  0
   38.3110   21.8310   34.2680 H   0  0  0  0  0  0  0  0  0  0  0  0
   38.0800   22.4480   36.3080 C   0  0  0  0  0  0  0  0  0  0  0  0
   38.0880   21.4100   36.6210 H   0  0  0  0  0  0  0  0  0  0  0  0
   37.9560   23.5540   37.1170 C   0  0  0  0  0  3  0  0  0  0  0  0
   37.9630   24.8130   36.5550 C   0  0  0  0  0  3  0  0  0  0  0  0
   38.6310   26.9070   33.5000 H   0  0  0  0  0  0  0  0  0  0  0  0
   38.0750   26.6710   34.7150 S   0  0  0  0  0  0  0  0  0  0  0  0
   38.8910   27.4890   35.7060 O   0  0  0  0  0  0  0  0  0  0  0  0
   36.6670   27.1960   34.6300 O   0  0  0  0  0  0  0  0  0  0  0  0
  1 15  1  0  0  0  0
  1  6  1  0  0  0  0
  2  8  1  0  0  0  0
  2  1  1  0  0  0  0
  3  2  1  0  0  0  0
  3  4  1  0  0  0  0
  4  5  1  0  0  0  0
  5  6  1  0  0  0  0
  5 12  1  0  0  0  0
  6 14  1  6  0  0  0
  6 25  1  0  0  0  0
  7  2  1  0  0  0  0
  9  3  1  0  0  0  0
 10  3  1  0  0  0  0
 11  4  1  0  0  0  0
 13  5  1  0  0  0  0
 15 20  1  0  0  0  0
 16 17  1  0  0  0  0
 16 15  2  0  0  0  0
 17 18  2  0  0  0  0
 18 19  1  0  0  0  0
 19 23  1  0  0  0  0
 20 19  2  0  0  0  0
 21 16  1  0  0  0  0
 22 17  1  0  0  0  0
 24 31  1  0  0  0  0
 25 26  1  0  0  0  0
 25 24  2  0  0  0  0
 26 28  2  0  0  0  0
 27 26  1  0  0  0  0
 28 29  1  0  0  0  0
 28 30  1  0  0  0  0
 31 30  2  0  0  0  0
 32 33  1  0  0  0  0
 33 24  1  0  0  0  0
 33 34  2  0  0  0  0
 35 33  2  0  0  0  0
M  END
>  <minimizedAffinity>
-4.53779173

$$$$

 OpenBabel03272501533D

 35 37  0  0  1  0  0  0  0  0999 V2000
   41.3490   24.8820   33.6370 N   0  0  0  0  0  0  0  0  0  0  0  0
   42.3420   24.5330   32.5940 C   0  0  0  0  0  0  0  0  0  0  0  0
   43.3400   25.5780   32.3240 C   0  0  0  0  0  0  0  0  0  0  0  0
   43.0690   26.9200   32.6650 N   0  0  0  0  0  0  0  0  0  0  0  0
   42.1570   27.0810   33.8030 C   0  0  0  0  0  0  0  0  0  0  0  0
   40.9480   26.2180   33.4950 C   0  0  2  0  0  0  0  0  0  0  0  0
   42.8380   23.6040   32.9440 H   0  0  0  0  0  0  0  0  0  0  0  0
   41.7690   24.2440   31.6860 H   0  0  0  0  0  0  0  0  0  0  0  0
   44.3400   25.2670   32.7470 H   0  0  0  0  0  0  0  0  0  0  0  0
   43.5330   25.5650   31.2110 H   0  0  0  0  0  0  0  0  0  0  0  0
   43.9580   27.3930   32.9410 H   0  0  0  0  0  0  0  0  0  0  0  0
   41.9260   28.1540   33.8910 H   0  0  0  0  0  0  0  0  0  0  0  0
   42.5940   26.6710   34.7300 H   0  0  0  0  0  0  0  0  0  0  0  0
   40.8250   26.4400   32.3500 H   0  0  0  0  0  0  0  0  0  0  0  0
   40.9420   23.9140   34.5840 C   0  0  0  0  0  0  0  0  0  0  0  0
   41.6370   23.6940   35.7660 C   0  0  0  0  0  0  0  0  0  0  0  0
   41.2210   22.7550   36.6920 C   0  0  0  0  0  0  0  0  0  0  0  0
   40.0800   22.0520   36.3680 N   0  0  0  0  0  0  0  0  0  0  0  0
   39.4160   22.2860   35.1970 C   0  0  0  0  0  0  0  0  0  0  0  0
   39.8310   23.2030   34.3090 N   0  0  0  0  0  0  0  0  0  0  0  0
   42.5330   24.1920   36.0590 H   0  0  0  0  0  0  0  0  0  0  0  0
   41.7180   22.5410   37.6270 H   0  0  0  0  0  0  0  0  0  0  0  0
   38.5290   21.7360   34.9510 H   0  0  0  0  0  0  0  0  0  0  0  0
   38.6500   26.9180   33.1190 C   0  0  0  0  0  0  0  0  0  0  0  0
   39.6890   26.6940   34.0380 C   0  0  0  0  0  0  0  0  0  0  0  0
   39.3240   27.0240   35.3500 C   0  0  0  0  0  0  0  0  0  0  0  0
   40.1430   26.8450   36.0520 H   0  0  0  0  0  0  0  0  0  0  0  0
   38.1240   27.5120   35.7790 C   0  0  0  0  0  0  0  0  0  0  0  0
   38.0450   27.7030   36.8430 H   0  0  0  0  0  0  0  0  0  0  0  0
   37.1480   27.7090   34.8300 C   0  0  0  0  0  3  0  0  0  0  0  0
   37.4120   27.4120   33.5090 C   0  0  0  0  0  3  0  0  0  0  0  0
   39.5710   25.6000   31.0630 H   0  0  0  0  0  0  0  0  0  0  0  0
   38.7400   26.6190   31.3970 S   0  0  0  0  0  0  0  0  0  0  0  0
   39.2920   27.8490   30.6910 O   0  0  0  0  0  0  0  0  0  0  0  0
   37.3920   26.2490   30.8370 O   0  0  0  0  0  0  0  0  0  0  0  0
  1 15  1  0  0  0  0
  2  7  1  0  0  0  0
  2  1  1  0  0  0  0
  3  2  1  0  0  0  0
  3  4  1  0  0  0  0
  3  9  1  0  0  0  0
  4 11  1  0  0  0  0
  4  5  1  0  0  0  0
  5 12  1  0  0  0  0
  5 13  1  0  0  0  0
  6 14  1  6  0  0  0
  6  1  1  0  0  0  0
  6  5  1  0  0  0  0
  6 25  1  0  0  0  0
  8  2  1  0  0  0  0
 10  3  1  0  0  0  0
 15 16  1  0  0  0  0
 16 21  1  0  0  0  0
 16 17  2  0  0  0  0
 17 22  1  0  0  0  0
 18 17  1  0  0  0  0
 19 18  2  0  0  0  0
 20 15  2  0  0  0  0
 20 19  1  0  0  0  0
 23 19  1  0  0  0  0
 24 31  2  0  0  0  0
 24 25  1  0  0  0  0
 25 26  2  0  0  0  0
 26 28  1  0  0  0  0
 26 27  1  0  0  0  0
 28 29  1  0  0  0  0
 30 28  2  0  0  0  0
 31 30  1  0  0  0  0
 32 33  1  0  0  0  0
 33 24  1  0  0  0  0
 34 33  2  0  0  0  0
 35 33  2  0  0  0  0
M  END
>  <minimizedAffinity>
-4.51519775

$$$$
