
 OpenBabel03272501173D

 38 41  0  0  1  0  0  0  0  0999 V2000
   37.6580   26.8010   33.3590 C   0  0  0  0  0  0  0  0  0  0  0  0
   38.4580   27.0810   32.6330 H   0  0  0  0  0  0  0  0  0  0  0  0
   37.1200   25.9620   32.8920 H   0  0  0  0  0  0  0  0  0  0  0  0
   38.9240   25.1120   34.7550 C   0  0  1  0  0  0  0  0  0  0  0  0
   38.3330   26.4070   34.6360 C   0  0  1  0  0  0  0  0  0  0  0  0
   39.8320   26.3520   34.7650 C   0  0  0  0  0  0  0  0  0  0  0  0
   39.0500   24.4340   33.8880 H   0  0  0  0  0  0  0  0  0  0  0  0
   37.7930   26.7970   35.5480 H   0  0  0  0  0  0  0  0  0  0  0  0
   40.4080   26.5820   33.8620 H   0  0  0  0  0  0  0  0  0  0  0  0
   40.2730   26.6800   35.7200 H   0  0  0  0  0  0  0  0  0  0  0  0
   38.9710   24.3660   36.0730 C   0  0  0  0  0  0  0  0  0  0  0  0
   38.0080   24.7220   36.9990 C   0  0  0  0  0  0  0  0  0  0  0  0
   38.0800   24.0380   38.2270 C   0  0  0  0  0  0  0  0  0  0  0  0
   39.0440   23.1050   38.4350 N   0  0  0  0  0  0  0  0  0  0  0  0
   39.9810   22.7840   37.4820 C   0  0  0  0  0  0  0  0  0  0  0  0
   39.9360   23.4350   36.2740 N   0  0  0  0  0  0  0  0  0  0  0  0
   37.2610   25.4550   36.8180 H   0  0  0  0  0  0  0  0  0  0  0  0
   37.3630   24.2600   39.0050 H   0  0  0  0  0  0  0  0  0  0  0  0
   40.7350   22.0370   37.6780 H   0  0  0  0  0  0  0  0  0  0  0  0
   36.7990   28.0090   33.5140 C   0  0  0  0  0  0  0  0  0  0  0  0
   36.3840   28.7710   32.4330 C   0  0  0  0  0  0  0  0  0  0  0  0
   35.6270   29.8000   32.8070 N   0  0  0  0  0  0  0  0  0  0  0  0
   35.5580   29.6910   34.1640 C   0  0  0  0  0  0  0  0  0  0  0  0
   36.2570   28.6230   34.5780 N   0  0  0  0  0  0  0  0  0  0  0  0
   36.6000   28.6240   31.3660 H   0  0  0  0  0  0  0  0  0  0  0  0
   35.1670   30.5470   32.2420 H   0  0  0  0  0  0  0  0  0  0  0  0
   33.4730   30.5670   35.2570 C   0  0  0  0  0  0  0  0  0  0  0  0
   34.8480   30.5670   35.0960 C   0  0  0  0  0  0  0  0  0  0  0  0
   35.6080   31.4420   35.8570 C   0  0  0  0  0  0  0  0  0  0  0  0
   36.6940   31.4680   35.7550 H   0  0  0  0  0  0  0  0  0  0  0  0
   35.0630   32.3260   36.7800 C   0  0  0  0  0  0  0  0  0  0  0  0
   35.6950   32.9910   37.3510 H   0  0  0  0  0  0  0  0  0  0  0  0
   33.6920   32.2950   36.9090 C   0  0  0  0  0  3  0  0  0  0  0  0
   32.8930   31.4460   36.1770 C   0  0  0  0  0  3  0  0  0  0  0  0
   33.0660   28.2350   34.1740 H   0  0  0  0  0  0  0  0  0  0  0  0
   32.5220   29.4640   34.2970 S   0  0  0  0  0  0  0  0  0  0  0  0
   32.4310   30.0570   32.8970 O   0  0  0  0  0  0  0  0  0  0  0  0
   31.0780   29.4320   34.7740 O   0  0  0  0  0  0  0  0  0  0  0  0
  1 20  1  0  0  0  0
  1  5  1  0  0  0  0
  2  1  1  0  0  0  0
  3  1  1  0  0  0  0
  4  7  1  6  0  0  0
  4  6  1  0  0  0  0
  4 11  1  0  0  0  0
  5  4  1  0  0  0  0
  5  6  1  0  0  0  0
  5  8  1  1  0  0  0
  6 10  1  0  0  0  0
  9  6  1  0  0  0  0
 11 16  2  0  0  0  0
 11 12  1  0  0  0  0
 12 13  2  0  0  0  0
 13 14  1  0  0  0  0
 13 18  1  0  0  0  0
 15 19  1  0  0  0  0
 15 14  2  0  0  0  0
 16 15  1  0  0  0  0
 17 12  1  0  0  0  0
 20 24  1  0  0  0  0
 21 22  1  0  0  0  0
 21 20  2  0  0  0  0
 22 23  1  0  0  0  0
 23 24  2  0  0  0  0
 23 28  1  0  0  0  0
 25 21  1  0  0  0  0
 26 22  1  0  0  0  0
 27 34  1  0  0  0  0
 28 27  2  0  0  0  0
 28 29  1  0  0  0  0
 29 31  2  0  0  0  0
 30 29  1  0  0  0  0
 31 33  1  0  0  0  0
 31 32  1  0  0  0  0
 34 33  2  0  0  0  0
 35 36  1  0  0  0  0
 36 38  2  0  0  0  0
 36 27  1  0  0  0  0
 37 36  2  0  0  0  0
M  END
>  <minimizedAffinity>
-5.95092058

$$$$

 OpenBabel03272501173D

 38 41  0  0  1  0  0  0  0  0999 V2000
   37.4750   27.0370   33.2670 C   0  0  0  0  0  0  0  0  0  0  0  0
   36.6280   27.7590   33.3520 H   0  0  0  0  0  0  0  0  0  0  0  0
   38.2760   27.5860   32.7500 H   0  0  0  0  0  0  0  0  0  0  0  0
   38.9300   25.7120   34.8580 C   0  0  1  0  0  0  0  0  0  0  0  0
   37.8620   26.6390   34.6580 C   0  0  1  0  0  0  0  0  0  0  0  0
   39.1050   27.1650   35.3240 C   0  0  0  0  0  0  0  0  0  0  0  0
   39.5990   25.3880   34.0360 H   0  0  0  0  0  0  0  0  0  0  0  0
   36.9690   26.5300   35.3410 H   0  0  0  0  0  0  0  0  0  0  0  0
   39.7350   27.8310   34.7240 H   0  0  0  0  0  0  0  0  0  0  0  0
   39.0500   27.3880   36.4020 H   0  0  0  0  0  0  0  0  0  0  0  0
   38.9450   24.7390   36.0200 C   0  0  0  0  0  0  0  0  0  0  0  0
   39.9560   23.7960   36.0000 C   0  0  0  0  0  0  0  0  0  0  0  0
   39.9400   22.8840   37.0720 C   0  0  0  0  0  0  0  0  0  0  0  0
   38.9820   22.9690   38.0300 N   0  0  0  0  0  0  0  0  0  0  0  0
   37.9960   23.9270   38.0060 C   0  0  0  0  0  0  0  0  0  0  0  0
   37.9850   24.8300   36.9730 N   0  0  0  0  0  0  0  0  0  0  0  0
   40.6970   23.7450   35.2420 H   0  0  0  0  0  0  0  0  0  0  0  0
   40.6980   22.1140   37.1300 H   0  0  0  0  0  0  0  0  0  0  0  0
   37.2470   23.9670   38.7830 H   0  0  0  0  0  0  0  0  0  0  0  0
   36.9620   25.8910   32.4640 C   0  0  0  0  0  0  0  0  0  0  0  0
   36.2570   26.0660   31.2840 C   0  0  0  0  0  0  0  0  0  0  0  0
   35.8980   24.9060   30.7390 N   0  0  0  0  0  0  0  0  0  0  0  0
   36.3880   23.9660   31.5950 C   0  0  0  0  0  0  0  0  0  0  0  0
   37.0200   24.5590   32.6200 N   0  0  0  0  0  0  0  0  0  0  0  0
   35.9800   27.0040   30.7820 H   0  0  0  0  0  0  0  0  0  0  0  0
   35.3670   24.7010   29.8640 H   0  0  0  0  0  0  0  0  0  0  0  0
   37.2520   21.7110   30.9060 C   0  0  0  0  0  0  0  0  0  0  0  0
   36.2810   22.5110   31.4820 C   0  0  0  0  0  0  0  0  0  0  0  0
   35.1360   21.9130   31.9860 C   0  0  0  0  0  0  0  0  0  0  0  0
   34.3510   22.5140   32.4460 H   0  0  0  0  0  0  0  0  0  0  0  0
   34.9080   20.5430   31.9440 C   0  0  0  0  0  0  0  0  0  0  0  0
   33.9990   20.1200   32.3500 H   0  0  0  0  0  0  0  0  0  0  0  0
   35.8980   19.7820   31.3640 C   0  0  0  0  0  3  0  0  0  0  0  0
   37.0520   20.3280   30.8480 C   0  0  0  0  0  3  0  0  0  0  0  0
   38.4550   23.6150   29.6000 H   0  0  0  0  0  0  0  0  0  0  0  0
   38.6900   22.4700   30.2740 S   0  0  0  0  0  0  0  0  0  0  0  0
   39.3150   21.4900   29.2900 O   0  0  0  0  0  0  0  0  0  0  0  0
   39.7470   22.6220   31.3570 O   0  0  0  0  0  0  0  0  0  0  0  0
  1  2  1  0  0  0  0
  1  5  1  0  0  0  0
  3  1  1  0  0  0  0
  4  7  1  6  0  0  0
  4  6  1  0  0  0  0
  4 11  1  0  0  0  0
  5  4  1  0  0  0  0
  5  6  1  0  0  0  0
  5  8  1  1  0  0  0
  6 10  1  0  0  0  0
  9  6  1  0  0  0  0
 11 16  1  0  0  0  0
 12 11  2  0  0  0  0
 12 13  1  0  0  0  0
 13 18  1  0  0  0  0
 13 14  2  0  0  0  0
 15 14  1  0  0  0  0
 15 19  1  0  0  0  0
 16 15  2  0  0  0  0
 17 12  1  0  0  0  0
 20 24  1  0  0  0  0
 20  1  1  0  0  0  0
 21 20  2  0  0  0  0
 22 21  1  0  0  0  0
 22 23  1  0  0  0  0
 23 24  2  0  0  0  0
 25 21  1  0  0  0  0
 26 22  1  0  0  0  0
 27 28  1  0  0  0  0
 28 23  1  0  0  0  0
 28 29  2  0  0  0  0
 29 30  1  0  0  0  0
 31 29  1  0  0  0  0
 31 32  1  0  0  0  0
 33 31  2  0  0  0  0
 34 27  2  0  0  0  0
 34 33  1  0  0  0  0
 35 36  1  0  0  0  0
 36 27  1  0  0  0  0
 36 38  2  0  0  0  0
 37 36  2  0  0  0  0
M  END
>  <minimizedAffinity>
-5.74601126

$$$$

 OpenBabel03272501173D

 38 41  0  0  1  0  0  0  0  0999 V2000
   37.7620   27.1800   33.3180 C   0  0  0  0  0  0  0  0  0  0  0  0
   38.5700   27.7220   32.7710 H   0  0  0  0  0  0  0  0  0  0  0  0
   37.4930   26.3300   32.6730 H   0  0  0  0  0  0  0  0  0  0  0  0
   38.9970   25.4830   34.7330 C   0  0  1  0  0  0  0  0  0  0  0  0
   38.3300   26.7420   34.6320 C   0  0  1  0  0  0  0  0  0  0  0  0
   39.8070   26.7750   34.9180 C   0  0  0  0  0  0  0  0  0  0  0  0
   39.2590   24.8770   33.8430 H   0  0  0  0  0  0  0  0  0  0  0  0
   37.6730   27.0320   35.5050 H   0  0  0  0  0  0  0  0  0  0  0  0
   40.4550   27.1050   34.0980 H   0  0  0  0  0  0  0  0  0  0  0  0
   40.1240   27.0630   35.9330 H   0  0  0  0  0  0  0  0  0  0  0  0
   38.9610   24.6510   35.9990 C   0  0  0  0  0  0  0  0  0  0  0  0
   39.8770   23.6170   36.0620 C   0  0  0  0  0  0  0  0  0  0  0  0
   39.8140   22.8370   37.2330 C   0  0  0  0  0  0  0  0  0  0  0  0
   38.9030   23.1240   38.1990 N   0  0  0  0  0  0  0  0  0  0  0  0
   38.0130   24.1650   38.0890 C   0  0  0  0  0  0  0  0  0  0  0  0
   38.0500   24.9430   36.9580 N   0  0  0  0  0  0  0  0  0  0  0  0
   40.5820   23.4080   35.2970 H   0  0  0  0  0  0  0  0  0  0  0  0
   40.4960   22.0080   37.3600 H   0  0  0  0  0  0  0  0  0  0  0  0
   37.3000   24.3670   38.8750 H   0  0  0  0  0  0  0  0  0  0  0  0
   36.6430   28.1530   33.4720 C   0  0  0  0  0  0  0  0  0  0  0  0
   36.1100   28.8500   32.4000 C   0  0  0  0  0  0  0  0  0  0  0  0
   35.1220   29.6600   32.7710 N   0  0  0  0  0  0  0  0  0  0  0  0
   35.0230   29.4750   34.1170 C   0  0  0  0  0  0  0  0  0  0  0  0
   35.9310   28.5760   34.5280 N   0  0  0  0  0  0  0  0  0  0  0  0
   36.4000   28.8060   31.3400 H   0  0  0  0  0  0  0  0  0  0  0  0
   34.5270   30.3090   32.2100 H   0  0  0  0  0  0  0  0  0  0  0  0
   34.3620   31.3080   35.7020 C   0  0  0  0  0  0  0  0  0  0  0  0
   34.0920   30.1220   35.0430 C   0  0  0  0  0  0  0  0  0  0  0  0
   32.8730   29.4990   35.2630 C   0  0  0  0  0  0  0  0  0  0  0  0
   32.6280   28.5620   34.7600 H   0  0  0  0  0  0  0  0  0  0  0  0
   31.8990   30.0040   36.1150 C   0  0  0  0  0  0  0  0  0  0  0  0
   30.9620   29.4830   36.2560 H   0  0  0  0  0  0  0  0  0  0  0  0
   32.2060   31.1860   36.7510 C   0  0  0  0  0  3  0  0  0  0  0  0
   33.4020   31.8430   36.5670 C   0  0  0  0  0  3  0  0  0  0  0  0
   36.9570   31.3930   35.8860 H   0  0  0  0  0  0  0  0  0  0  0  0
   35.8970   32.0870   35.4200 S   0  0  0  0  0  0  0  0  0  0  0  0
   35.8660   33.4140   36.1670 O   0  0  0  0  0  0  0  0  0  0  0  0
   36.0440   32.4920   33.9620 O   0  0  0  0  0  0  0  0  0  0  0  0
  1 20  1  0  0  0  0
  1  5  1  0  0  0  0
  2  1  1  0  0  0  0
  3  1  1  0  0  0  0
  4  7  1  6  0  0  0
  4  6  1  0  0  0  0
  4 11  1  0  0  0  0
  5  4  1  0  0  0  0
  5  6  1  0  0  0  0
  5  8  1  1  0  0  0
  6 10  1  0  0  0  0
  9  6  1  0  0  0  0
 11 12  2  0  0  0  0
 11 16  1  0  0  0  0
 12 13  1  0  0  0  0
 13 18  1  0  0  0  0
 13 14  2  0  0  0  0
 15 14  1  0  0  0  0
 15 19  1  0  0  0  0
 16 15  2  0  0  0  0
 17 12  1  0  0  0  0
 20 24  1  0  0  0  0
 21 22  1  0  0  0  0
 21 20  2  0  0  0  0
 22 23  1  0  0  0  0
 23 24  2  0  0  0  0
 23 28  1  0  0  0  0
 25 21  1  0  0  0  0
 26 22  1  0  0  0  0
 27 34  1  0  0  0  0
 28 29  1  0  0  0  0
 28 27  2  0  0  0  0
 29 31  2  0  0  0  0
 30 29  1  0  0  0  0
 31 32  1  0  0  0  0
 31 33  1  0  0  0  0
 34 33  2  0  0  0  0
 36 27  1  0  0  0  0
 36 35  1  0  0  0  0
 36 37  2  0  0  0  0
 38 36  2  0  0  0  0
M  END
>  <minimizedAffinity>
-5.66277218

$$$$

 OpenBabel03272501173D

 38 41  0  0  1  0  0  0  0  0999 V2000
   37.2460   25.9120   31.6170 C   0  0  0  0  0  0  0  0  0  0  0  0
   37.9650   26.3040   30.8580 H   0  0  0  0  0  0  0  0  0  0  0  0
   36.4980   26.7080   31.7490 H   0  0  0  0  0  0  0  0  0  0  0  0
   35.9380   23.7670   31.9210 C   0  0  1  0  0  0  0  0  0  0  0  0
   36.6510   24.6560   31.0610 C   0  0  1  0  0  0  0  0  0  0  0  0
   35.1730   24.5110   30.8160 C   0  0  0  0  0  0  0  0  0  0  0  0
   35.6630   24.0380   32.9600 H   0  0  0  0  0  0  0  0  0  0  0  0
   37.3090   24.1750   30.2780 H   0  0  0  0  0  0  0  0  0  0  0  0
   34.5450   25.3630   31.1010 H   0  0  0  0  0  0  0  0  0  0  0  0
   34.8570   23.9520   29.9200 H   0  0  0  0  0  0  0  0  0  0  0  0
   35.9310   22.2670   31.7040 C   0  0  0  0  0  0  0  0  0  0  0  0
   36.9740   21.7660   30.9460 C   0  0  0  0  0  0  0  0  0  0  0  0
   36.9390   20.3750   30.7310 C   0  0  0  0  0  0  0  0  0  0  0  0
   35.9340   19.6270   31.2540 N   0  0  0  0  0  0  0  0  0  0  0  0
   34.9190   20.1720   32.0040 C   0  0  0  0  0  0  0  0  0  0  0  0
   34.9250   21.5260   32.2290 N   0  0  0  0  0  0  0  0  0  0  0  0
   37.7510   22.3680   30.5450 H   0  0  0  0  0  0  0  0  0  0  0  0
   37.7180   19.9050   30.1480 H   0  0  0  0  0  0  0  0  0  0  0  0
   34.1330   19.5490   32.4050 H   0  0  0  0  0  0  0  0  0  0  0  0
   38.0420   25.6710   32.8540 C   0  0  0  0  0  0  0  0  0  0  0  0
   39.2960   26.2250   33.0520 C   0  0  0  0  0  0  0  0  0  0  0  0
   39.8190   25.8740   34.2250 N   0  0  0  0  0  0  0  0  0  0  0  0
   38.8720   25.0740   34.7900 C   0  0  0  0  0  0  0  0  0  0  0  0
   37.8160   24.9570   33.9690 N   0  0  0  0  0  0  0  0  0  0  0  0
   39.8690   26.8830   32.3840 H   0  0  0  0  0  0  0  0  0  0  0  0
   40.7340   26.1210   34.6630 H   0  0  0  0  0  0  0  0  0  0  0  0
   39.7900   23.3680   36.3880 C   0  0  0  0  0  0  0  0  0  0  0  0
   38.9250   24.4070   36.0910 C   0  0  0  0  0  0  0  0  0  0  0  0
   38.0540   24.8510   37.0730 C   0  0  0  0  0  0  0  0  0  0  0  0
   37.3590   25.6680   36.8720 H   0  0  0  0  0  0  0  0  0  0  0  0
   37.9990   24.3070   38.3510 C   0  0  0  0  0  0  0  0  0  0  0  0
   37.3030   24.6870   39.0850 H   0  0  0  0  0  0  0  0  0  0  0  0
   38.8750   23.2760   38.6060 C   0  0  0  0  0  3  0  0  0  0  0  0
   39.7600   22.7980   37.6650 C   0  0  0  0  0  3  0  0  0  0  0  0
   40.2770   22.4880   33.9870 H   0  0  0  0  0  0  0  0  0  0  0  0
   40.8840   22.8130   35.1480 S   0  0  0  0  0  0  0  0  0  0  0  0
   41.5510   21.5500   35.6760 O   0  0  0  0  0  0  0  0  0  0  0  0
   42.0380   23.7860   34.9650 O   0  0  0  0  0  0  0  0  0  0  0  0
  1  3  1  0  0  0  0
  1 20  1  0  0  0  0
  2  1  1  0  0  0  0
  4  7  1  1  0  0  0
  5  8  1  6  0  0  0
  5  1  1  0  0  0  0
  5  4  1  0  0  0  0
  6  5  1  0  0  0  0
  6  9  1  0  0  0  0
  6  4  1  0  0  0  0
 10  6  1  0  0  0  0
 11  4  1  0  0  0  0
 11 16  1  0  0  0  0
 12 11  2  0  0  0  0
 13 12  1  0  0  0  0
 13 14  2  0  0  0  0
 14 15  1  0  0  0  0
 15 16  2  0  0  0  0
 15 19  1  0  0  0  0
 17 12  1  0  0  0  0
 18 13  1  0  0  0  0
 20 21  2  0  0  0  0
 20 24  1  0  0  0  0
 21 22  1  0  0  0  0
 22 26  1  0  0  0  0
 22 23  1  0  0  0  0
 23 28  1  0  0  0  0
 24 23  2  0  0  0  0
 25 21  1  0  0  0  0
 27 34  1  0  0  0  0
 28 27  2  0  0  0  0
 28 29  1  0  0  0  0
 29 31  2  0  0  0  0
 30 29  1  0  0  0  0
 31 33  1  0  0  0  0
 31 32  1  0  0  0  0
 34 33  2  0  0  0  0
 35 36  1  0  0  0  0
 36 37  2  0  0  0  0
 36 27  1  0  0  0  0
 38 36  2  0  0  0  0
M  END
>  <minimizedAffinity>
-5.54686308

$$$$

 OpenBabel03272501173D

 38 41  0  0  1  0  0  0  0  0999 V2000
   36.9780   27.4510   33.5260 C   0  0  0  0  0  0  0  0  0  0  0  0
   35.9200   27.7940   33.6190 H   0  0  0  0  0  0  0  0  0  0  0  0
   37.5560   28.3510   33.2660 H   0  0  0  0  0  0  0  0  0  0  0  0
   38.5940   26.1360   34.9640 C   0  0  1  0  0  0  0  0  0  0  0  0
   37.3800   26.8790   34.8510 C   0  0  1  0  0  0  0  0  0  0  0  0
   38.4750   27.4870   35.6860 C   0  0  0  0  0  0  0  0  0  0  0  0
   39.3430   26.0930   34.1490 H   0  0  0  0  0  0  0  0  0  0  0  0
   36.4970   26.4900   35.4390 H   0  0  0  0  0  0  0  0  0  0  0  0
   38.9920   28.3520   35.2570 H   0  0  0  0  0  0  0  0  0  0  0  0
   38.3380   27.4950   36.7790 H   0  0  0  0  0  0  0  0  0  0  0  0
   38.7460   24.9850   35.9380 C   0  0  0  0  0  0  0  0  0  0  0  0
   39.8240   24.1480   35.7140 C   0  0  0  0  0  0  0  0  0  0  0  0
   39.9370   23.0690   36.6120 C   0  0  0  0  0  0  0  0  0  0  0  0
   39.0280   22.9090   37.6070 N   0  0  0  0  0  0  0  0  0  0  0  0
   37.9710   23.7700   37.7900 C   0  0  0  0  0  0  0  0  0  0  0  0
   37.8350   24.8310   36.9290 N   0  0  0  0  0  0  0  0  0  0  0  0
   40.5250   24.2900   34.9290 H   0  0  0  0  0  0  0  0  0  0  0  0
   40.7530   22.3690   36.5040 H   0  0  0  0  0  0  0  0  0  0  0  0
   37.2650   23.6140   38.5910 H   0  0  0  0  0  0  0  0  0  0  0  0
   36.9890   26.4340   32.4360 C   0  0  0  0  0  0  0  0  0  0  0  0
   35.9460   26.3000   31.5340 C   0  0  0  0  0  0  0  0  0  0  0  0
   36.1700   25.3300   30.6500 N   0  0  0  0  0  0  0  0  0  0  0  0
   37.3900   24.8320   30.9990 C   0  0  0  0  0  0  0  0  0  0  0  0
   37.8720   25.4950   32.0630 N   0  0  0  0  0  0  0  0  0  0  0  0
   35.0110   26.8740   31.4750 H   0  0  0  0  0  0  0  0  0  0  0  0
   35.5880   24.9850   29.8560 H   0  0  0  0  0  0  0  0  0  0  0  0
   37.9930   22.4110   30.7110 C   0  0  0  0  0  0  0  0  0  0  0  0
   38.1280   23.7430   30.3590 C   0  0  0  0  0  0  0  0  0  0  0  0
   39.0090   24.0780   29.3420 C   0  0  0  0  0  0  0  0  0  0  0  0
   39.1390   25.1180   29.0400 H   0  0  0  0  0  0  0  0  0  0  0  0
   39.7710   23.1440   28.6520 C   0  0  0  0  0  0  0  0  0  0  0  0
   40.4460   23.4520   27.8650 H   0  0  0  0  0  0  0  0  0  0  0  0
   39.6080   21.8300   29.0320 C   0  0  0  0  0  3  0  0  0  0  0  0
   38.7460   21.4460   30.0350 C   0  0  0  0  0  3  0  0  0  0  0  0
   36.6120   20.6760   32.0750 H   0  0  0  0  0  0  0  0  0  0  0  0
   36.8820   21.9960   31.9910 S   0  0  0  0  0  0  0  0  0  0  0  0
   35.5690   22.7050   31.6870 O   0  0  0  0  0  0  0  0  0  0  0  0
   37.3250   22.6000   33.3140 O   0  0  0  0  0  0  0  0  0  0  0  0
  1  2  1  0  0  0  0
  1  5  1  0  0  0  0
  3  1  1  0  0  0  0
  4  7  1  6  0  0  0
  4  6  1  0  0  0  0
  4 11  1  0  0  0  0
  5  4  1  0  0  0  0
  5  8  1  1  0  0  0
  5  6  1  0  0  0  0
  6 10  1  0  0  0  0
  9  6  1  0  0  0  0
 11 16  1  0  0  0  0
 12 11  2  0  0  0  0
 12 13  1  0  0  0  0
 13 14  2  0  0  0  0
 14 15  1  0  0  0  0
 15 19  1  0  0  0  0
 16 15  2  0  0  0  0
 17 12  1  0  0  0  0
 18 13  1  0  0  0  0
 20  1  1  0  0  0  0
 21 20  2  0  0  0  0
 22 23  1  0  0  0  0
 22 21  1  0  0  0  0
 23 24  2  0  0  0  0
 24 20  1  0  0  0  0
 25 21  1  0  0  0  0
 26 22  1  0  0  0  0
 27 36  1  0  0  0  0
 28 27  1  0  0  0  0
 28 23  1  0  0  0  0
 29 28  2  0  0  0  0
 30 29  1  0  0  0  0
 31 33  2  0  0  0  0
 31 29  1  0  0  0  0
 32 31  1  0  0  0  0
 33 34  1  0  0  0  0
 34 27  2  0  0  0  0
 36 35  1  0  0  0  0
 36 38  2  0  0  0  0
 37 36  2  0  0  0  0
M  END
>  <minimizedAffinity>
-5.4203763

$$$$

 OpenBabel03272501173D

 38 41  0  0  1  0  0  0  0  0999 V2000
   36.9620   25.9190   32.4510 C   0  0  0  0  0  0  0  0  0  0  0  0
   37.4210   26.7150   31.8170 H   0  0  0  0  0  0  0  0  0  0  0  0
   36.0120   26.3430   32.8100 H   0  0  0  0  0  0  0  0  0  0  0  0
   35.8980   23.6640   32.0150 C   0  0  1  0  0  0  0  0  0  0  0  0
   36.7580   24.7180   31.5800 C   0  0  1  0  0  0  0  0  0  0  0  0
   35.4910   24.5050   30.7950 C   0  0  0  0  0  0  0  0  0  0  0  0
   35.2430   23.7600   32.9030 H   0  0  0  0  0  0  0  0  0  0  0  0
   37.7030   24.4060   31.0450 H   0  0  0  0  0  0  0  0  0  0  0  0
   34.7060   25.2590   30.9220 H   0  0  0  0  0  0  0  0  0  0  0  0
   35.5820   24.0620   29.7910 H   0  0  0  0  0  0  0  0  0  0  0  0
   36.1490   22.2160   31.6460 C   0  0  0  0  0  0  0  0  0  0  0  0
   35.1490   21.3270   31.9940 C   0  0  0  0  0  0  0  0  0  0  0  0
   35.4080   19.9820   31.6670 C   0  0  0  0  0  0  0  0  0  0  0  0
   36.5700   19.6370   31.0550 N   0  0  0  0  0  0  0  0  0  0  0  0
   37.5350   20.5600   30.7290 C   0  0  0  0  0  0  0  0  0  0  0  0
   37.3110   21.8800   31.0350 N   0  0  0  0  0  0  0  0  0  0  0  0
   34.2460   21.6150   32.4720 H   0  0  0  0  0  0  0  0  0  0  0  0
   34.6760   19.2240   31.9060 H   0  0  0  0  0  0  0  0  0  0  0  0
   38.4500   20.2540   30.2430 H   0  0  0  0  0  0  0  0  0  0  0  0
   37.9260   25.6660   33.5590 C   0  0  0  0  0  0  0  0  0  0  0  0
   38.4000   26.6780   34.3790 C   0  0  0  0  0  0  0  0  0  0  0  0
   39.2480   26.2210   35.2980 N   0  0  0  0  0  0  0  0  0  0  0  0
   39.3160   24.8820   35.0570 C   0  0  0  0  0  0  0  0  0  0  0  0
   38.5260   24.5580   34.0210 N   0  0  0  0  0  0  0  0  0  0  0  0
   38.1640   27.7510   34.3510 H   0  0  0  0  0  0  0  0  0  0  0  0
   39.7690   26.7220   36.0500 H   0  0  0  0  0  0  0  0  0  0  0  0
   39.6520   23.1950   36.8870 C   0  0  0  0  0  0  0  0  0  0  0  0
   40.1080   23.8830   35.7760 C   0  0  0  0  0  0  0  0  0  0  0  0
   41.3860   23.6200   35.3070 C   0  0  0  0  0  0  0  0  0  0  0  0
   41.7760   24.1450   34.4330 H   0  0  0  0  0  0  0  0  0  0  0  0
   42.2420   22.6970   35.8940 C   0  0  0  0  0  0  0  0  0  0  0  0
   43.2300   22.5250   35.4930 H   0  0  0  0  0  0  0  0  0  0  0  0
   41.7510   22.0340   36.9960 C   0  0  0  0  0  3  0  0  0  0  0  0
   40.4900   22.2590   37.5020 C   0  0  0  0  0  3  0  0  0  0  0  0
   37.7090   24.8370   37.4380 H   0  0  0  0  0  0  0  0  0  0  0  0
   38.0440   23.5300   37.4730 S   0  0  0  0  0  0  0  0  0  0  0  0
   38.0020   23.0940   38.9320 O   0  0  0  0  0  0  0  0  0  0  0  0
   37.0190   22.6340   36.7950 O   0  0  0  0  0  0  0  0  0  0  0  0
  1  3  1  0  0  0  0
  1 20  1  0  0  0  0
  2  1  1  0  0  0  0
  4  7  1  1  0  0  0
  5  8  1  6  0  0  0
  5  4  1  0  0  0  0
  5  1  1  0  0  0  0
  6  9  1  0  0  0  0
  6  5  1  0  0  0  0
  6  4  1  0  0  0  0
 10  6  1  0  0  0  0
 11 12  1  0  0  0  0
 11  4  1  0  0  0  0
 12 17  1  0  0  0  0
 13 18  1  0  0  0  0
 13 12  2  0  0  0  0
 14 13  1  0  0  0  0
 15 16  1  0  0  0  0
 15 14  2  0  0  0  0
 16 11  2  0  0  0  0
 19 15  1  0  0  0  0
 20 24  1  0  0  0  0
 20 21  2  0  0  0  0
 21 22  1  0  0  0  0
 22 26  1  0  0  0  0
 23 22  1  0  0  0  0
 23 28  1  0  0  0  0
 24 23  2  0  0  0  0
 25 21  1  0  0  0  0
 27 36  1  0  0  0  0
 27 34  1  0  0  0  0
 28 27  2  0  0  0  0
 29 28  1  0  0  0  0
 29 31  2  0  0  0  0
 30 29  1  0  0  0  0
 31 33  1  0  0  0  0
 32 31  1  0  0  0  0
 33 34  2  0  0  0  0
 35 36  1  0  0  0  0
 36 37  2  0  0  0  0
 38 36  2  0  0  0  0
M  END
>  <minimizedAffinity>
-5.37568951

$$$$

 OpenBabel03272501173D

 38 41  0  0  1  0  0  0  0  0999 V2000
   36.6790   27.0240   31.9630 C   0  0  0  0  0  0  0  0  0  0  0  0
   36.0310   26.1480   31.7180 H   0  0  0  0  0  0  0  0  0  0  0  0
   37.2430   27.2360   31.0420 H   0  0  0  0  0  0  0  0  0  0  0  0
   36.1980   29.0950   33.3360 C   0  0  1  0  0  0  0  0  0  0  0  0
   35.7740   28.1530   32.3500 C   0  0  1  0  0  0  0  0  0  0  0  0
   36.0120   29.5650   31.8850 C   0  0  0  0  0  0  0  0  0  0  0  0
   37.2360   29.1270   33.7200 H   0  0  0  0  0  0  0  0  0  0  0  0
   34.6880   27.8430   32.3860 H   0  0  0  0  0  0  0  0  0  0  0  0
   36.9050   29.7330   31.2740 H   0  0  0  0  0  0  0  0  0  0  0  0
   35.1290   30.1730   31.6330 H   0  0  0  0  0  0  0  0  0  0  0  0
   35.2210   29.7680   34.2790 C   0  0  0  0  0  0  0  0  0  0  0  0
   35.7520   30.7590   35.0850 C   0  0  0  0  0  0  0  0  0  0  0  0
   34.8370   31.3570   35.9730 C   0  0  0  0  0  0  0  0  0  0  0  0
   33.5410   30.9550   35.9950 N   0  0  0  0  0  0  0  0  0  0  0  0
   33.0600   29.9640   35.1710 C   0  0  0  0  0  0  0  0  0  0  0  0
   33.9280   29.3620   34.2950 N   0  0  0  0  0  0  0  0  0  0  0  0
   36.7690   31.0600   35.0530 H   0  0  0  0  0  0  0  0  0  0  0  0
   35.1730   32.1400   36.6380 H   0  0  0  0  0  0  0  0  0  0  0  0
   32.0230   29.6670   35.2130 H   0  0  0  0  0  0  0  0  0  0  0  0
   37.5610   26.5860   33.0820 C   0  0  0  0  0  0  0  0  0  0  0  0
   38.8320   27.1030   33.2720 C   0  0  0  0  0  0  0  0  0  0  0  0
   39.4370   26.5680   34.3300 N   0  0  0  0  0  0  0  0  0  0  0  0
   38.5260   25.6850   34.8280 C   0  0  0  0  0  0  0  0  0  0  0  0
   37.4100   25.7010   34.0800 N   0  0  0  0  0  0  0  0  0  0  0  0
   39.3610   27.8610   32.6780 H   0  0  0  0  0  0  0  0  0  0  0  0
   40.3840   26.7410   34.7330 H   0  0  0  0  0  0  0  0  0  0  0  0
   39.4770   23.6940   36.0270 C   0  0  0  0  0  0  0  0  0  0  0  0
   38.6670   24.8160   35.9960 C   0  0  0  0  0  0  0  0  0  0  0  0
   37.9430   25.1480   37.1320 C   0  0  0  0  0  0  0  0  0  0  0  0
   37.2950   26.0260   37.1410 H   0  0  0  0  0  0  0  0  0  0  0  0
   37.9850   24.4110   38.3080 C   0  0  0  0  0  0  0  0  0  0  0  0
   37.4030   24.7070   39.1690 H   0  0  0  0  0  0  0  0  0  0  0  0
   38.8030   23.3020   38.2980 C   0  0  0  0  0  3  0  0  0  0  0  0
   39.5410   22.9300   37.1970 C   0  0  0  0  0  3  0  0  0  0  0  0
   39.6310   23.1620   33.4840 H   0  0  0  0  0  0  0  0  0  0  0  0
   40.3850   23.2830   34.5960 S   0  0  0  0  0  0  0  0  0  0  0  0
   41.0290   21.9260   34.8530 O   0  0  0  0  0  0  0  0  0  0  0  0
   41.5700   24.2190   34.4150 O   0  0  0  0  0  0  0  0  0  0  0  0
  1  5  1  0  0  0  0
  1 20  1  0  0  0  0
  2  1  1  0  0  0  0
  3  1  1  0  0  0  0
  4  7  1  1  0  0  0
  4 11  1  0  0  0  0
  5  8  1  1  0  0  0
  5  4  1  0  0  0  0
  6  5  1  0  0  0  0
  6  4  1  0  0  0  0
  9  6  1  0  0  0  0
 10  6  1  0  0  0  0
 11 16  2  0  0  0  0
 11 12  1  0  0  0  0
 12 13  2  0  0  0  0
 13 14  1  0  0  0  0
 13 18  1  0  0  0  0
 15 19  1  0  0  0  0
 15 14  2  0  0  0  0
 16 15  1  0  0  0  0
 17 12  1  0  0  0  0
 20 21  2  0  0  0  0
 20 24  1  0  0  0  0
 21 22  1  0  0  0  0
 22 26  1  0  0  0  0
 22 23  1  0  0  0  0
 23 28  1  0  0  0  0
 24 23  2  0  0  0  0
 25 21  1  0  0  0  0
 27 34  1  0  0  0  0
 28 27  2  0  0  0  0
 28 29  1  0  0  0  0
 29 30  1  0  0  0  0
 29 31  2  0  0  0  0
 31 32  1  0  0  0  0
 33 31  1  0  0  0  0
 34 33  2  0  0  0  0
 35 36  1  0  0  0  0
 36 37  2  0  0  0  0
 36 27  1  0  0  0  0
 38 36  2  0  0  0  0
M  END
>  <minimizedAffinity>
-5.36819029

$$$$

 OpenBabel03272501173D

 38 41  0  0  1  0  0  0  0  0999 V2000
   38.3510   27.4370   32.1280 C   0  0  0  0  0  0  0  0  0  0  0  0
   38.9540   27.1190   31.2430 H   0  0  0  0  0  0  0  0  0  0  0  0
   38.9170   28.2640   32.5840 H   0  0  0  0  0  0  0  0  0  0  0  0
   36.6810   29.2630   31.5980 C   0  0  1  0  0  0  0  0  0  0  0  0
   37.0120   27.8740   31.6210 C   0  0  1  0  0  0  0  0  0  0  0  0
   36.8360   28.5100   30.2680 C   0  0  0  0  0  0  0  0  0  0  0  0
   37.4300   30.0560   31.7900 H   0  0  0  0  0  0  0  0  0  0  0  0
   36.1840   27.1670   31.9220 H   0  0  0  0  0  0  0  0  0  0  0  0
   37.7480   28.6710   29.6830 H   0  0  0  0  0  0  0  0  0  0  0  0
   35.9310   28.2500   29.6960 H   0  0  0  0  0  0  0  0  0  0  0  0
   35.2630   29.7570   31.8070 C   0  0  0  0  0  0  0  0  0  0  0  0
   34.5040   29.0370   32.7110 C   0  0  0  0  0  0  0  0  0  0  0  0
   33.1820   29.4930   32.8740 C   0  0  0  0  0  0  0  0  0  0  0  0
   32.7360   30.5660   32.1730 N   0  0  0  0  0  0  0  0  0  0  0  0
   33.5310   31.2510   31.2840 C   0  0  0  0  0  0  0  0  0  0  0  0
   34.8250   30.8290   31.1030 N   0  0  0  0  0  0  0  0  0  0  0  0
   34.8710   28.2000   33.2510 H   0  0  0  0  0  0  0  0  0  0  0  0
   32.5230   28.9840   33.5630 H   0  0  0  0  0  0  0  0  0  0  0  0
   33.1460   32.1010   30.7400 H   0  0  0  0  0  0  0  0  0  0  0  0
   38.2660   26.2470   33.0210 C   0  0  0  0  0  0  0  0  0  0  0  0
   37.7120   25.0460   32.6080 C   0  0  0  0  0  0  0  0  0  0  0  0
   37.7420   24.1250   33.5680 N   0  0  0  0  0  0  0  0  0  0  0  0
   38.3310   24.7560   34.6220 C   0  0  0  0  0  0  0  0  0  0  0  0
   38.6420   26.0190   34.2890 N   0  0  0  0  0  0  0  0  0  0  0  0
   37.2770   24.7890   31.6310 H   0  0  0  0  0  0  0  0  0  0  0  0
   37.4080   23.1360   33.5730 H   0  0  0  0  0  0  0  0  0  0  0  0
   39.6740   23.3540   36.2150 C   0  0  0  0  0  0  0  0  0  0  0  0
   38.6170   24.2070   35.9470 C   0  0  0  0  0  0  0  0  0  0  0  0
   37.7740   24.5700   36.9860 C   0  0  0  0  0  0  0  0  0  0  0  0
   36.9310   25.2400   36.8090 H   0  0  0  0  0  0  0  0  0  0  0  0
   37.9320   24.1220   38.2920 C   0  0  0  0  0  0  0  0  0  0  0  0
   37.2490   24.4330   39.0700 H   0  0  0  0  0  0  0  0  0  0  0  0
   38.9950   23.2760   38.5170 C   0  0  0  0  0  3  0  0  0  0  0  0
   39.8600   22.8850   37.5200 C   0  0  0  0  0  3  0  0  0  0  0  0
   40.0850   22.5640   33.7690 H   0  0  0  0  0  0  0  0  0  0  0  0
   40.7320   22.9010   34.9040 S   0  0  0  0  0  0  0  0  0  0  0  0
   41.5060   21.6710   35.3620 O   0  0  0  0  0  0  0  0  0  0  0  0
   41.8110   23.9500   34.6870 O   0  0  0  0  0  0  0  0  0  0  0  0
  1  3  1  0  0  0  0
  1 20  1  0  0  0  0
  2  1  1  0  0  0  0
  4  5  1  0  0  0  0
  4  7  1  1  0  0  0
  4 11  1  0  0  0  0
  5  8  1  1  0  0  0
  5  1  1  0  0  0  0
  6  4  1  0  0  0  0
  6  5  1  0  0  0  0
  9  6  1  0  0  0  0
 10  6  1  0  0  0  0
 11 12  1  0  0  0  0
 12 13  2  0  0  0  0
 12 17  1  0  0  0  0
 13 18  1  0  0  0  0
 14 13  1  0  0  0  0
 15 14  2  0  0  0  0
 16 15  1  0  0  0  0
 16 11  2  0  0  0  0
 19 15  1  0  0  0  0
 20 24  1  0  0  0  0
 21 20  2  0  0  0  0
 21 22  1  0  0  0  0
 22 26  1  0  0  0  0
 22 23  1  0  0  0  0
 23 28  1  0  0  0  0
 24 23  2  0  0  0  0
 25 21  1  0  0  0  0
 27 34  1  0  0  0  0
 28 27  2  0  0  0  0
 28 29  1  0  0  0  0
 29 31  2  0  0  0  0
 30 29  1  0  0  0  0
 31 33  1  0  0  0  0
 31 32  1  0  0  0  0
 34 33  2  0  0  0  0
 35 36  1  0  0  0  0
 36 37  2  0  0  0  0
 36 27  1  0  0  0  0
 38 36  2  0  0  0  0
M  END
>  <minimizedAffinity>
-5.36560011

$$$$

 OpenBabel03272501173D

 38 41  0  0  1  0  0  0  0  0999 V2000
   37.9230   24.5370   36.5650 C   0  0  0  0  0  0  0  0  0  0  0  0
   36.9440   24.0160   36.4390 H   0  0  0  0  0  0  0  0  0  0  0  0
   38.0150   24.7310   37.6450 H   0  0  0  0  0  0  0  0  0  0  0  0
   39.6800   22.7610   36.9740 C   0  0  1  0  0  0  0  0  0  0  0  0
   38.9880   23.6130   36.0600 C   0  0  1  0  0  0  0  0  0  0  0  0
   38.7610   22.1320   35.9150 C   0  0  0  0  0  0  0  0  0  0  0  0
   39.3570   22.6300   38.0250 H   0  0  0  0  0  0  0  0  0  0  0  0
   39.6110   24.0790   35.2400 H   0  0  0  0  0  0  0  0  0  0  0  0
   37.7820   21.7560   36.2330 H   0  0  0  0  0  0  0  0  0  0  0  0
   39.2160   21.6290   35.0470 H   0  0  0  0  0  0  0  0  0  0  0  0
   41.1290   22.3680   36.7700 C   0  0  0  0  0  0  0  0  0  0  0  0
   41.9280   23.3190   36.1620 C   0  0  0  0  0  0  0  0  0  0  0  0
   43.2660   22.9290   35.9570 C   0  0  0  0  0  0  0  0  0  0  0  0
   43.6880   21.7000   36.3480 N   0  0  0  0  0  0  0  0  0  0  0  0
   42.8540   20.7880   36.9500 C   0  0  0  0  0  0  0  0  0  0  0  0
   41.5440   21.1390   37.1630 N   0  0  0  0  0  0  0  0  0  0  0  0
   41.5790   24.2750   35.8620 H   0  0  0  0  0  0  0  0  0  0  0  0
   43.9550   23.6150   35.4860 H   0  0  0  0  0  0  0  0  0  0  0  0
   43.2210   19.8170   37.2490 H   0  0  0  0  0  0  0  0  0  0  0  0
   37.8290   25.7930   35.7680 C   0  0  0  0  0  0  0  0  0  0  0  0
   38.2440   27.0190   36.2610 C   0  0  0  0  0  0  0  0  0  0  0  0
   38.0660   27.9990   35.3780 N   0  0  0  0  0  0  0  0  0  0  0  0
   37.5210   27.3810   34.2940 C   0  0  0  0  0  0  0  0  0  0  0  0
   37.3830   26.0670   34.5320 N   0  0  0  0  0  0  0  0  0  0  0  0
   38.6790   27.2530   37.2430 H   0  0  0  0  0  0  0  0  0  0  0  0
   38.2740   29.0200   35.4440 H   0  0  0  0  0  0  0  0  0  0  0  0
   36.0660   28.8750   32.8940 C   0  0  0  0  0  0  0  0  0  0  0  0
   37.1210   27.9890   33.0240 C   0  0  0  0  0  0  0  0  0  0  0  0
   37.8500   27.6490   31.8950 C   0  0  0  0  0  0  0  0  0  0  0  0
   38.6880   26.9530   31.9620 H   0  0  0  0  0  0  0  0  0  0  0  0
   37.5790   28.1530   30.6290 C   0  0  0  0  0  0  0  0  0  0  0  0
   38.1740   27.8590   29.7760 H   0  0  0  0  0  0  0  0  0  0  0  0
   36.5210   29.0310   30.5420 C   0  0  0  0  0  3  0  0  0  0  0  0
   35.7670   29.4000   31.6330 C   0  0  0  0  0  3  0  0  0  0  0  0
   34.7490   28.2370   35.0470 H   0  0  0  0  0  0  0  0  0  0  0  0
   35.1530   29.2990   34.3190 S   0  0  0  0  0  0  0  0  0  0  0  0
   33.9000   30.0220   33.8450 O   0  0  0  0  0  0  0  0  0  0  0  0
   35.8870   30.3430   35.1450 O   0  0  0  0  0  0  0  0  0  0  0  0
  1  3  1  0  0  0  0
  2  1  1  0  0  0  0
  4  7  1  1  0  0  0
  5  8  1  6  0  0  0
  5  1  1  0  0  0  0
  5  4  1  0  0  0  0
  6  5  1  0  0  0  0
  6  9  1  0  0  0  0
  6  4  1  0  0  0  0
 10  6  1  0  0  0  0
 11  4  1  0  0  0  0
 11 16  1  0  0  0  0
 12 11  2  0  0  0  0
 13 12  1  0  0  0  0
 13 14  2  0  0  0  0
 14 15  1  0  0  0  0
 15 16  2  0  0  0  0
 15 19  1  0  0  0  0
 17 12  1  0  0  0  0
 18 13  1  0  0  0  0
 20 21  2  0  0  0  0
 20  1  1  0  0  0  0
 21 25  1  0  0  0  0
 22 26  1  0  0  0  0
 22 21  1  0  0  0  0
 23 24  2  0  0  0  0
 23 22  1  0  0  0  0
 24 20  1  0  0  0  0
 27 28  1  0  0  0  0
 27 36  1  0  0  0  0
 28 23  1  0  0  0  0
 29 30  1  0  0  0  0
 29 28  2  0  0  0  0
 31 29  1  0  0  0  0
 32 31  1  0  0  0  0
 33 31  2  0  0  0  0
 33 34  1  0  0  0  0
 34 27  2  0  0  0  0
 36 35  1  0  0  0  0
 36 38  2  0  0  0  0
 37 36  2  0  0  0  0
M  END
>  <minimizedAffinity>
-5.31042862

$$$$
