
 OpenBabel03272508543D

 41 44  0  0  1  0  0  0  0  0999 V2000
   39.0810   31.5280   43.3900 C   0  0  0  0  0  0  0  0  0  0  0  0
   40.2180   30.7870   43.5540 C   0  0  0  0  0  0  0  0  0  0  0  0
   40.9120   30.4560   42.4090 C   0  0  0  0  0  0  0  0  0  0  0  0
   40.4440   30.8740   41.2010 C   0  0  0  0  0  0  0  0  0  0  0  0
   39.3040   31.6210   41.0240 C   0  0  0  0  0  0  0  0  0  0  0  0
   38.6830   31.9030   42.1700 N   0  0  0  0  0  0  0  0  0  0  0  0
   40.5950   30.4530   44.5130 H   0  0  0  0  0  0  0  0  0  0  0  0
   41.8080   29.8750   42.5060 H   0  0  0  0  0  0  0  0  0  0  0  0
   40.9990   30.5500   40.3520 H   0  0  0  0  0  0  0  0  0  0  0  0
   37.9000   31.4000   38.9240 C   0  0  0  0  0  0  0  0  0  0  0  0
   38.6720   32.0830   39.8280 C   0  0  0  0  0  0  0  0  0  0  0  0
   38.8760   33.4230   39.4750 C   0  0  0  0  0  0  0  0  0  0  0  0
   39.4860   34.0620   40.1340 H   0  0  0  0  0  0  0  0  0  0  0  0
   38.3850   34.0550   38.3590 C   0  0  0  0  0  0  0  0  0  0  0  0
   38.5870   35.0840   38.1610 H   0  0  0  0  0  0  0  0  0  0  0  0
   37.6140   33.3250   37.4860 C   0  0  0  0  0  3  0  0  0  0  0  0
   37.3870   32.0030   37.7910 C   0  0  0  0  0  3  0  0  0  0  0  0
   36.6910   29.3100   38.1130 H   0  0  0  0  0  0  0  0  0  0  0  0
   37.6100   29.7150   39.1170 S   0  0  0  0  0  0  0  0  0  0  0  0
   38.7820   28.8280   38.8720 O   0  0  0  0  0  0  0  0  0  0  0  0
   36.9150   29.3310   40.3870 O   0  0  0  0  0  0  0  0  0  0  0  0
   38.2950   31.9030   44.5920 C   0  0  0  0  0  0  0  0  0  0  0  0
   37.1160   32.3470   44.4860 O   0  0  0  0  0  0  0  0  0  0  0  0
   38.9160   31.7450   45.8700 N   0  0  0  0  0  0  0  0  0  0  0  0
   39.9310   31.5470   46.0170 H   0  0  0  0  0  0  0  0  0  0  0  0
   38.4370   31.1940   48.2560 C   0  0  2  0  0  0  0  0  0  0  0  0
   38.7310   32.6350   48.2070 C   0  0  0  0  0  0  0  0  0  0  0  0
   38.0560   31.8700   47.0420 C   0  0  1  0  0  0  0  0  0  0  0  0
   39.3680   30.5670   48.2880 H   0  0  0  0  0  0  0  0  0  0  0  0
   39.7510   33.0030   48.0490 H   0  0  0  0  0  0  0  0  0  0  0  0
   38.0660   33.3690   48.7010 H   0  0  0  0  0  0  0  0  0  0  0  0
   36.9870   32.1490   46.8560 H   0  0  0  0  0  0  0  0  0  0  0  0
   35.1310   30.2080   49.5670 C   0  0  0  0  0  0  0  0  0  0  0  0
   35.4720   29.5400   50.7870 C   0  0  0  0  0  0  0  0  0  0  0  0
   36.8650   29.4580   51.1250 C   0  0  0  0  0  0  0  0  0  0  0  0
   37.7800   30.0060   50.2910 N   0  0  0  0  0  0  0  0  0  0  0  0
   37.3900   30.6270   49.1450 C   0  0  0  0  0  0  0  0  0  0  0  0
   36.0710   30.7450   48.7540 N   0  0  0  0  0  0  0  0  0  0  0  0
   34.0780   30.2620   49.3260 H   0  0  0  0  0  0  0  0  0  0  0  0
   34.6900   29.1260   51.4060 H   0  0  0  0  0  0  0  0  0  0  0  0
   37.1110   28.9580   52.0380 H   0  0  0  0  0  0  0  0  0  0  0  0
  1  2  1  0  0  0  0
  1 22  1  0  0  0  0
  2  7  1  0  0  0  0
  3  8  1  0  0  0  0
  3  2  2  0  0  0  0
  4  3  1  0  0  0  0
  5  4  2  0  0  0  0
  5  6  1  0  0  0  0
  6  1  2  0  0  0  0
  9  4  1  0  0  0  0
 10 19  1  0  0  0  0
 10 11  1  0  0  0  0
 11  5  1  0  0  0  0
 12 11  2  0  0  0  0
 12 13  1  0  0  0  0
 14 12  1  0  0  0  0
 15 14  1  0  0  0  0
 16 17  1  0  0  0  0
 16 14  2  0  0  0  0
 17 10  2  0  0  0  0
 18 19  1  0  0  0  0
 19 21  2  0  0  0  0
 20 19  2  0  0  0  0
 22 24  1  0  0  0  0
 23 22  2  0  0  0  0
 24 25  1  0  0  0  0
 24 28  1  0  0  0  0
 26 29  1  6  0  0  0
 26 37  1  0  0  0  0
 27 26  1  0  0  0  0
 27 31  1  0  0  0  0
 28 32  1  6  0  0  0
 28 27  1  0  0  0  0
 28 26  1  0  0  0  0
 30 27  1  0  0  0  0
 33 34  1  0  0  0  0
 34 35  2  0  0  0  0
 34 40  1  0  0  0  0
 35 41  1  0  0  0  0
 36 35  1  0  0  0  0
 37 36  2  0  0  0  0
 38 37  1  0  0  0  0
 38 33  2  0  0  0  0
 39 33  1  0  0  0  0
M  END
>  <minimizedAffinity>
-4.97844505

>  <minimizedRMSD>
0.809690297

$$$$
