
 OpenBabel03272504333D

 43 46  0  0  0  0  0  0  0  0999 V2000
   34.7560   29.3980   47.7040 C   0  0  0  0  0  0  0  0  0  0  0  0
   34.8990   29.9520   46.4290 C   0  0  0  0  0  0  0  0  0  0  0  0
   33.8610   29.8890   45.5200 C   0  0  0  0  0  0  0  0  0  0  0  0
   32.7080   29.2720   45.9150 N   0  0  0  0  0  0  0  0  0  0  0  0
   32.5930   28.7440   47.1500 C   0  0  0  0  0  0  0  0  0  0  0  0
   33.6050   28.8020   48.0460 N   0  0  0  0  0  0  0  0  0  0  0  0
   35.8460   30.4260   46.1880 H   0  0  0  0  0  0  0  0  0  0  0  0
   33.9490   30.3080   44.5350 H   0  0  0  0  0  0  0  0  0  0  0  0
   35.7850   29.4250   48.6940 N   0  0  0  0  0  0  0  0  0  0  0  0
   35.6790   28.7290   49.9520 C   0  0  0  0  0  0  0  0  0  0  0  0
   36.1120   29.5190   51.1470 C   0  0  0  0  0  0  0  0  0  0  0  0
   37.0930   30.5280   50.9520 N   0  0  0  0  0  0  0  0  0  0  0  0
   36.9870   31.2140   49.6660 C   0  0  0  0  0  0  0  0  0  0  0  0
   37.0280   30.1130   48.6090 C   0  0  0  0  0  0  0  0  0  0  0  0
   36.3630   27.8420   49.8670 H   0  0  0  0  0  0  0  0  0  0  0  0
   34.6640   28.3290   50.1530 H   0  0  0  0  0  0  0  0  0  0  0  0
   35.2100   29.9630   51.6180 H   0  0  0  0  0  0  0  0  0  0  0  0
   36.5060   28.7980   51.9060 H   0  0  0  0  0  0  0  0  0  0  0  0
   38.0350   30.0680   51.0110 H   0  0  0  0  0  0  0  0  0  0  0  0
   35.9830   31.6580   49.6210 H   0  0  0  0  0  0  0  0  0  0  0  0
   37.8230   31.9180   49.5850 H   0  0  0  0  0  0  0  0  0  0  0  0
   37.8850   29.4520   48.8680 H   0  0  0  0  0  0  0  0  0  0  0  0
   37.2350   30.5210   47.6020 H   0  0  0  0  0  0  0  0  0  0  0  0
   31.3410   28.0930   47.5360 C   0  0  0  0  0  0  0  0  0  0  0  0
   31.1560   27.5920   48.7930 C   0  0  0  0  0  0  0  0  0  0  0  0
   29.9870   26.9710   49.2000 C   0  0  0  0  0  0  0  0  0  0  0  0
   29.0210   26.8880   48.2610 N   0  0  0  0  0  0  0  0  0  0  0  0
   29.1880   27.3720   47.0320 C   0  0  0  0  0  0  0  0  0  0  0  0
   30.3420   27.9690   46.6780 N   0  0  0  0  0  0  0  0  0  0  0  0
   31.9370   27.6610   49.5450 H   0  0  0  0  0  0  0  0  0  0  0  0
   29.8320   26.5770   50.1740 H   0  0  0  0  0  0  0  0  0  0  0  0
   27.0230   28.0850   46.0520 C   0  0  0  0  0  0  0  0  0  0  0  0
   28.1750   27.3140   45.9580 C   0  0  0  0  0  0  0  0  0  0  0  0
   28.3450   26.4920   44.8370 C   0  0  0  0  0  0  0  0  0  0  0  0
   29.2450   25.8960   44.7740 H   0  0  0  0  0  0  0  0  0  0  0  0
   27.4280   26.4070   43.8190 C   0  0  0  0  0  0  0  0  0  0  0  0
   27.6090   25.7600   42.9820 H   0  0  0  0  0  0  0  0  0  0  0  0
   26.2740   27.1570   43.8770 C   0  0  0  0  0  3  0  0  0  0  0  0
   26.1240   27.9590   44.9860 C   0  0  0  0  0  3  0  0  0  0  0  0
   25.6870   30.0120   46.9690 H   0  0  0  0  0  0  0  0  0  0  0  0
   26.6940   29.1460   47.3960 S   0  0  0  0  0  0  0  0  0  0  0  0
   26.1570   28.3920   48.5800 O   0  0  0  0  0  0  0  0  0  0  0  0
   27.8510   30.0250   47.7410 O   0  0  0  0  0  0  0  0  0  0  0  0
  1  6  1  0  0  0  0
  1  9  1  0  0  0  0
  2  1  2  0  0  0  0
  3  4  2  0  0  0  0
  3  2  1  0  0  0  0
  4  5  1  0  0  0  0
  5 24  1  0  0  0  0
  5  6  2  0  0  0  0
  7  2  1  0  0  0  0
  8  3  1  0  0  0  0
  9 10  1  0  0  0  0
 10 16  1  0  0  0  0
 10 11  1  0  0  0  0
 11 17  1  0  0  0  0
 11 18  1  0  0  0  0
 12 19  1  0  0  0  0
 12 11  1  0  0  0  0
 13 12  1  0  0  0  0
 14  9  1  0  0  0  0
 14 22  1  0  0  0  0
 14 13  1  0  0  0  0
 15 10  1  0  0  0  0
 20 13  1  0  0  0  0
 21 13  1  0  0  0  0
 23 14  1  0  0  0  0
 24 25  1  0  0  0  0
 25 26  2  0  0  0  0
 25 30  1  0  0  0  0
 26 31  1  0  0  0  0
 27 26  1  0  0  0  0
 28 27  2  0  0  0  0
 29 28  1  0  0  0  0
 29 24  2  0  0  0  0
 32 41  1  0  0  0  0
 33 32  1  0  0  0  0
 33 28  1  0  0  0  0
 34 33  2  0  0  0  0
 35 34  1  0  0  0  0
 36 38  2  0  0  0  0
 36 34  1  0  0  0  0
 37 36  1  0  0  0  0
 38 39  1  0  0  0  0
 39 32  2  0  0  0  0
 40 41  1  0  0  0  0
 41 43  2  0  0  0  0
 41 42  2  0  0  0  0
M  END
>  <minimizedAffinity>
-5.86033869

>  <minimizedRMSD>
1.47585738

$$$$
