
 OpenBabel03272508123D

 37 39  0  0  0  0  0  0  0  0999 V2000
   36.6610   29.5450   44.0750 Cl  0  0  0  0  0  0  0  0  0  0  0  0
   38.2900   29.9280   43.4990 C   0  0  0  0  0  0  0  0  0  0  0  0
   39.3160   30.3920   44.3140 C   0  0  0  0  0  0  0  0  0  0  0  0
   40.5500   30.6540   43.7310 C   0  0  0  0  0  0  0  0  0  0  0  0
   40.7410   30.4560   42.3810 C   0  0  0  0  0  0  0  0  0  0  0  0
   39.7470   30.0010   41.5690 C   0  0  0  0  0  0  0  0  0  0  0  0
   38.5310   29.7420   42.1360 C   0  0  0  0  0  0  0  0  0  0  0  0
   41.2810   31.0060   44.4200 H   0  0  0  0  0  0  0  0  0  0  0  0
   41.7150   30.6700   41.9600 H   0  0  0  0  0  0  0  0  0  0  0  0
   39.9550   29.8630   40.5120 H   0  0  0  0  0  0  0  0  0  0  0  0
   37.4540   27.8670   41.1370 C   0  0  0  0  0  0  0  0  0  0  0  0
   37.4770   29.2510   41.2310 C   0  0  0  0  0  0  0  0  0  0  0  0
   36.6020   30.0620   40.5450 C   0  0  0  0  0  0  0  0  0  0  0  0
   36.7150   31.1230   40.6960 H   0  0  0  0  0  0  0  0  0  0  0  0
   35.6460   29.5190   39.7180 C   0  0  0  0  0  0  0  0  0  0  0  0
   34.9880   30.2030   39.2060 H   0  0  0  0  0  0  0  0  0  0  0  0
   35.5960   28.1460   39.6020 C   0  0  0  0  0  3  0  0  0  0  0  0
   36.4720   27.3400   40.2890 C   0  0  0  0  0  3  0  0  0  0  0  0
   38.8500   27.3020   43.2390 H   0  0  0  0  0  0  0  0  0  0  0  0
   38.5350   26.8000   41.9810 S   0  0  0  0  0  0  0  0  0  0  0  0
   39.7530   26.4350   41.2180 O   0  0  0  0  0  0  0  0  0  0  0  0
   37.7920   25.5180   42.2590 O   0  0  0  0  0  0  0  0  0  0  0  0
   38.9250   30.5230   45.6170 O   0  0  0  0  0  0  0  0  0  0  0  0
   39.4530   32.5260   47.1550 O   0  0  0  0  0  0  0  0  0  0  0  0
   38.3360   31.8670   46.4310 P   0  0  1  0  0  0  0  0  0  0  0  0
   37.7490   32.8940   45.1980 O   0  0  0  0  0  0  0  0  0  0  0  0
   37.3490   32.3870   44.4550 H   0  0  0  0  0  0  0  0  0  0  0  0
   37.0520   31.3910   47.4290 O   0  0  0  0  0  0  0  0  0  0  0  0
   37.6060   30.5340   50.9750 C   0  0  0  0  0  0  0  0  0  0  0  0
   37.7080   31.2940   49.8060 C   0  0  0  0  0  0  0  0  0  0  0  0
   37.0860   30.8290   48.6590 C   0  0  0  0  0  0  0  0  0  0  0  0
   36.4020   29.6510   48.7210 N   0  0  0  0  0  0  0  0  0  0  0  0
   36.3230   28.9380   49.8720 C   0  0  0  0  0  0  0  0  0  0  0  0
   36.9300   29.3890   50.9960 N   0  0  0  0  0  0  0  0  0  0  0  0
   38.0890   30.9050   51.8470 H   0  0  0  0  0  0  0  0  0  0  0  0
   38.2240   32.2140   49.6980 H   0  0  0  0  0  0  0  0  0  0  0  0
   35.7740   27.9940   49.9180 H   0  0  0  0  0  0  0  0  0  0  0  0
  2  1  1  0  0  0  0
  2  3  1  0  0  0  0
  3 23  1  0  0  0  0
  4  3  2  0  0  0  0
  4  8  1  0  0  0  0
  5  4  1  0  0  0  0
  6  7  1  0  0  0  0
  6  5  2  0  0  0  0
  7  2  2  0  0  0  0
  9  5  1  0  0  0  0
 10  6  1  0  0  0  0
 11 12  1  0  0  0  0
 11 20  1  0  0  0  0
 12  7  1  0  0  0  0
 13 14  1  0  0  0  0
 13 12  2  0  0  0  0
 15 13  1  0  0  0  0
 16 15  1  0  0  0  0
 17 15  2  0  0  0  0
 17 18  1  0  0  0  0
 18 11  2  0  0  0  0
 20 22  2  0  0  0  0
 20 19  1  0  0  0  0
 21 20  2  0  0  0  0
 23 25  1  0  0  0  0
 25 24  2  1  0  0  0
 25 28  1  0  0  0  0
 26 25  1  0  0  0  0
 27 26  1  0  0  0  0
 28 31  1  0  0  0  0
 29 34  1  0  0  0  0
 29 35  1  0  0  0  0
 30 29  2  0  0  0  0
 31 32  2  0  0  0  0
 31 30  1  0  0  0  0
 32 33  1  0  0  0  0
 33 37  1  0  0  0  0
 33 34  2  0  0  0  0
 36 30  1  0  0  0  0
M  END
>  <minimizedAffinity>
-4.91198492

>  <minimizedRMSD>
1.05255187

$$$$
