
 OpenBabel03272510163D

 31 33  0  0  0  0  0  0  0  0999 V2000
   37.2270   29.2440   50.9310 Br  0  0  0  0  0  0  0  0  0  0  0  0
   35.9500   29.2820   49.5050 C   0  0  0  0  0  0  0  0  0  0  0  0
   35.9940   30.2640   48.5430 C   0  0  0  0  0  0  0  0  0  0  0  0
   35.0430   30.2230   47.5520 C   0  0  0  0  0  0  0  0  0  0  0  0
   34.0520   29.2470   47.4800 C   0  0  0  0  0  0  0  0  0  0  0  0
   34.0520   28.2920   48.4630 C   0  0  0  0  0  0  0  0  0  0  0  0
   34.9940   28.3100   49.4660 C   0  0  0  0  0  0  0  0  0  0  0  0
   35.1260   31.0320   46.8100 H   0  0  0  0  0  0  0  0  0  0  0  0
   33.2680   27.5540   48.3680 H   0  0  0  0  0  0  0  0  0  0  0  0
   34.9400   27.5220   50.2170 H   0  0  0  0  0  0  0  0  0  0  0  0
   37.8560   33.2080   49.6390 C   0  0  0  0  0  0  0  0  0  0  0  0
   38.9230   33.2960   48.7070 C   0  0  0  0  0  0  0  0  0  0  0  0
   38.9790   32.3270   47.7100 C   0  0  0  0  0  0  0  0  0  0  0  0
   38.0210   31.3570   47.6770 N   0  0  0  0  0  0  0  0  0  0  0  0
   37.0190   31.3070   48.5830 C   0  0  0  0  0  0  0  0  0  0  0  0
   36.9490   32.2370   49.5560 N   0  0  0  0  0  0  0  0  0  0  0  0
   37.7370   33.9270   50.4520 H   0  0  0  0  0  0  0  0  0  0  0  0
   39.6370   34.0970   48.8080 H   0  0  0  0  0  0  0  0  0  0  0  0
   39.7850   32.3660   46.9820 H   0  0  0  0  0  0  0  0  0  0  0  0
   33.4930   29.5030   45.0370 C   0  0  0  0  0  0  0  0  0  0  0  0
   33.1470   29.3920   46.3460 C   0  0  0  0  0  0  0  0  0  0  0  0
   31.7770   29.4210   46.6320 C   0  0  0  0  0  0  0  0  0  0  0  0
   31.4040   29.3370   47.6660 H   0  0  0  0  0  0  0  0  0  0  0  0
   30.7960   29.5530   45.6960 C   0  0  0  0  0  0  0  0  0  0  0  0
   29.7470   29.5730   45.9460 H   0  0  0  0  0  0  0  0  0  0  0  0
   31.1500   29.6650   44.3760 C   0  0  0  0  0  3  0  0  0  0  0  0
   32.4910   29.6380   44.0750 C   0  0  0  0  0  3  0  0  0  0  0  0
   35.9330   29.4050   45.7590 H   0  0  0  0  0  0  0  0  0  0  0  0
   35.1740   29.4690   44.6390 S   0  0  0  0  0  0  0  0  0  0  0  0
   35.5330   28.4190   43.6240 O   0  0  0  0  0  0  0  0  0  0  0  0
   35.4910   30.8120   43.9950 O   0  0  0  0  0  0  0  0  0  0  0  0
  2  1  1  0  0  0  0
  3 15  1  0  0  0  0
  3  2  2  0  0  0  0
  4  3  1  0  0  0  0
  5  4  2  0  0  0  0
  5  6  1  0  0  0  0
  6  7  2  0  0  0  0
  7  2  1  0  0  0  0
  7 10  1  0  0  0  0
  8  4  1  0  0  0  0
  9  6  1  0  0  0  0
 11 17  1  0  0  0  0
 12 18  1  0  0  0  0
 12 11  2  0  0  0  0
 13 12  1  0  0  0  0
 14 13  2  0  0  0  0
 14 15  1  0  0  0  0
 15 16  2  0  0  0  0
 16 11  1  0  0  0  0
 19 13  1  0  0  0  0
 20 21  1  0  0  0  0
 21 22  2  0  0  0  0
 21  5  1  0  0  0  0
 22 23  1  0  0  0  0
 24 25  1  0  0  0  0
 24 22  1  0  0  0  0
 26 24  2  0  0  0  0
 27 26  1  0  0  0  0
 27 20  2  0  0  0  0
 29 20  1  0  0  0  0
 29 28  1  0  0  0  0
 30 29  2  0  0  0  0
 31 29  2  0  0  0  0
M  END
>  <minimizedAffinity>
-5.71363163

>  <minimizedRMSD>
1.00365615

$$$$
