
 OpenBabel03272507203D

 33 35  0  0  1  0  0  0  0  0999 V2000
   37.9340   31.1110   49.7200 C   0  0  0  0  0  0  0  0  0  0  0  0
   38.2540   32.4470   49.8580 C   0  0  0  0  0  0  0  0  0  0  0  0
   38.4390   33.1480   48.6690 C   0  0  0  0  0  0  0  0  0  0  0  0
   38.2980   32.5010   47.4610 N   0  0  0  0  0  0  0  0  0  0  0  0
   37.9850   31.1930   47.3970 C   0  0  0  0  0  0  0  0  0  0  0  0
   37.7970   30.4710   48.5260 N   0  0  0  0  0  0  0  0  0  0  0  0
   38.3490   32.8930   50.8360 H   0  0  0  0  0  0  0  0  0  0  0  0
   38.6890   34.1890   48.7430 H   0  0  0  0  0  0  0  0  0  0  0  0
   38.8570   31.2470   44.9770 C   0  0  0  0  0  0  0  0  0  0  0  0
   37.9540   31.0160   45.9720 C   0  0  0  0  0  0  0  0  0  0  0  0
   36.7000   30.4950   45.6300 C   0  0  0  0  0  0  0  0  0  0  0  0
   35.7890   30.2080   46.1680 H   0  0  0  0  0  0  0  0  0  0  0  0
   36.4440   30.2410   44.2770 C   0  0  0  0  0  0  0  0  0  0  0  0
   35.5380   29.8430   43.8430 H   0  0  0  0  0  0  0  0  0  0  0  0
   37.4230   30.5070   43.3450 C   0  0  0  0  0  3  0  0  0  0  0  0
   38.6650   31.0170   43.6380 C   0  0  0  0  0  3  0  0  0  0  0  0
   40.1440   32.3350   46.8770 H   0  0  0  0  0  0  0  0  0  0  0  0
   40.3500   31.9210   45.5880 S   0  0  0  0  0  0  0  0  0  0  0  0
   40.5870   33.1560   44.7220 O   0  0  0  0  0  0  0  0  0  0  0  0
   41.4850   30.9780   45.4800 O   0  0  0  0  0  0  0  0  0  0  0  0
   37.6860   30.3590   50.9930 C   0  0  1  0  0  0  0  0  0  0  0  0
   36.4200   29.6760   51.2490 C   0  0  2  0  0  0  0  0  0  0  0  0
   37.5620   28.8390   50.7590 C   0  0  0  0  0  0  0  0  0  0  0  0
   38.3600   30.6380   51.8300 H   0  0  0  0  0  0  0  0  0  0  0  0
   36.1230   29.6990   52.3430 H   0  0  0  0  0  0  0  0  0  0  0  0
   37.5070   28.4720   49.7140 H   0  0  0  0  0  0  0  0  0  0  0  0
   38.1280   28.2100   51.4610 H   0  0  0  0  0  0  0  0  0  0  0  0
   35.3640   29.9500   50.3930 O   0  0  0  0  0  0  0  0  0  0  0  0
   34.2860   29.1880   50.0790 C   0  0  0  0  0  0  0  0  0  0  0  0
   34.3690   28.2210   49.3040 O   0  0  0  0  0  0  0  0  0  0  0  0
   33.1720   29.6860   50.7540 N   0  0  0  0  0  0  0  0  0  0  0  0
   32.8020   30.6630   50.7670 H   0  0  0  0  0  0  0  0  0  0  0  0
   32.3320   29.6050   51.3810 H   0  0  0  0  0  0  0  0  0  0  0  0
  1  2  1  0  0  0  0
  1 21  1  0  0  0  0
  2  7  1  0  0  0  0
  3  8  1  0  0  0  0
  3  2  2  0  0  0  0
  4  3  1  0  0  0  0
  5  4  2  0  0  0  0
  5  6  1  0  0  0  0
  6  1  2  0  0  0  0
  9 18  1  0  0  0  0
  9 10  1  0  0  0  0
 10  5  1  0  0  0  0
 11 10  2  0  0  0  0
 11 12  1  0  0  0  0
 13 11  1  0  0  0  0
 14 13  1  0  0  0  0
 15 16  1  0  0  0  0
 15 13  2  0  0  0  0
 16  9  2  0  0  0  0
 18 17  1  0  0  0  0
 19 18  2  0  0  0  0
 20 18  2  0  0  0  0
 21 22  1  0  0  0  0
 21 24  1  1  0  0  0
 22 25  1  1  0  0  0
 23 21  1  0  0  0  0
 23 22  1  0  0  0  0
 23 27  1  0  0  0  0
 26 23  1  0  0  0  0
 28 22  1  0  0  0  0
 29 28  1  0  0  0  0
 29 31  1  0  0  0  0
 30 29  2  0  0  0  0
 31 32  1  0  0  0  0
 31 33  1  0  0  0  0
M  END
>  <minimizedAffinity>
-5.9309926

>  <minimizedRMSD>
1.40102494

$$$$
