
 OpenBabel03272507203D

 33 35  0  0  1  0  0  0  0  0999 V2000
   38.0180   31.1380   49.7560 C   0  0  0  0  0  0  0  0  0  0  0  0
   38.3470   32.4730   49.8880 C   0  0  0  0  0  0  0  0  0  0  0  0
   38.5130   33.1720   48.6950 C   0  0  0  0  0  0  0  0  0  0  0  0
   38.3470   32.5250   47.4900 N   0  0  0  0  0  0  0  0  0  0  0  0
   38.0260   31.2190   47.4330 C   0  0  0  0  0  0  0  0  0  0  0  0
   37.8560   30.4980   48.5660 N   0  0  0  0  0  0  0  0  0  0  0  0
   38.4620   32.9190   50.8630 H   0  0  0  0  0  0  0  0  0  0  0  0
   38.7700   34.2120   48.7630 H   0  0  0  0  0  0  0  0  0  0  0  0
   38.8510   31.2700   44.9960 C   0  0  0  0  0  0  0  0  0  0  0  0
   37.9670   31.0400   46.0090 C   0  0  0  0  0  0  0  0  0  0  0  0
   36.7070   30.5200   45.6920 C   0  0  0  0  0  0  0  0  0  0  0  0
   35.8060   30.2340   46.2470 H   0  0  0  0  0  0  0  0  0  0  0  0
   36.4270   30.2650   44.3440 C   0  0  0  0  0  0  0  0  0  0  0  0
   35.5110   29.8680   43.9280 H   0  0  0  0  0  0  0  0  0  0  0  0
   37.3860   30.5310   43.3930 C   0  0  0  0  0  3  0  0  0  0  0  0
   38.6330   31.0400   43.6610 C   0  0  0  0  0  3  0  0  0  0  0  0
   40.1710   32.3700   46.8670 H   0  0  0  0  0  0  0  0  0  0  0  0
   40.3570   31.9450   45.5790 S   0  0  0  0  0  0  0  0  0  0  0  0
   40.5860   33.1720   44.6990 O   0  0  0  0  0  0  0  0  0  0  0  0
   41.4860   30.9960   45.4620 O   0  0  0  0  0  0  0  0  0  0  0  0
   37.7890   30.3890   51.0350 C   0  0  1  0  0  0  0  0  0  0  0  0
   36.5430   29.6690   51.2930 C   0  0  2  0  0  0  0  0  0  0  0  0
   37.7110   28.8640   50.8120 C   0  0  0  0  0  0  0  0  0  0  0  0
   38.4520   30.6940   51.8710 H   0  0  0  0  0  0  0  0  0  0  0  0
   36.2440   29.6920   52.3870 H   0  0  0  0  0  0  0  0  0  0  0  0
   37.6700   28.4880   49.7690 H   0  0  0  0  0  0  0  0  0  0  0  0
   38.2940   28.2580   51.5200 H   0  0  0  0  0  0  0  0  0  0  0  0
   35.4810   29.9060   50.4330 O   0  0  0  0  0  0  0  0  0  0  0  0
   34.4690   29.0810   50.0640 C   0  0  0  0  0  0  0  0  0  0  0  0
   34.6730   28.0370   49.4230 O   0  0  0  0  0  0  0  0  0  0  0  0
   33.2650   29.6180   50.5180 N   0  0  0  0  0  0  0  0  0  0  0  0
   32.8830   30.5790   50.3690 H   0  0  0  0  0  0  0  0  0  0  0  0
   32.3470   29.5820   51.0300 H   0  0  0  0  0  0  0  0  0  0  0  0
  1  2  1  0  0  0  0
  1 21  1  0  0  0  0
  2  7  1  0  0  0  0
  3  8  1  0  0  0  0
  3  2  2  0  0  0  0
  4  3  1  0  0  0  0
  5  4  2  0  0  0  0
  5  6  1  0  0  0  0
  6  1  2  0  0  0  0
  9 18  1  0  0  0  0
  9 10  1  0  0  0  0
 10  5  1  0  0  0  0
 11 10  2  0  0  0  0
 11 12  1  0  0  0  0
 13 11  1  0  0  0  0
 14 13  1  0  0  0  0
 15 16  1  0  0  0  0
 15 13  2  0  0  0  0
 16  9  2  0  0  0  0
 18 17  1  0  0  0  0
 19 18  2  0  0  0  0
 20 18  2  0  0  0  0
 21 22  1  0  0  0  0
 21 24  1  1  0  0  0
 22 25  1  1  0  0  0
 23 21  1  0  0  0  0
 23 22  1  0  0  0  0
 23 27  1  0  0  0  0
 26 23  1  0  0  0  0
 28 22  1  0  0  0  0
 29 28  1  0  0  0  0
 29 31  1  0  0  0  0
 30 29  2  0  0  0  0
 31 33  1  0  0  0  0
 32 31  1  0  0  0  0
M  END
>  <minimizedAffinity>
-5.97522879

>  <minimizedRMSD>
1.79742825

$$$$
