
 OpenBabel03272510173D

 31 33  0  0  0  0  0  0  0  0999 V2000
   37.5310   29.3220   51.0520 Br  0  0  0  0  0  0  0  0  0  0  0  0
   36.0950   29.3080   49.7850 C   0  0  0  0  0  0  0  0  0  0  0  0
   36.0440   30.2300   48.7650 C   0  0  0  0  0  0  0  0  0  0  0  0
   34.9830   30.1540   47.8950 C   0  0  0  0  0  0  0  0  0  0  0  0
   33.9720   29.2010   48.0000 C   0  0  0  0  0  0  0  0  0  0  0  0
   34.0710   28.3060   49.0330 C   0  0  0  0  0  0  0  0  0  0  0  0
   35.1240   28.3590   49.9170 C   0  0  0  0  0  0  0  0  0  0  0  0
   34.9920   30.9150   47.1000 H   0  0  0  0  0  0  0  0  0  0  0  0
   33.2680   27.5830   49.0750 H   0  0  0  0  0  0  0  0  0  0  0  0
   35.1450   27.6190   50.7160 H   0  0  0  0  0  0  0  0  0  0  0  0
   38.0180   33.2350   49.3990 C   0  0  0  0  0  0  0  0  0  0  0  0
   39.0230   33.1940   48.3980 C   0  0  0  0  0  0  0  0  0  0  0  0
   39.0000   32.1170   47.5160 C   0  0  0  0  0  0  0  0  0  0  0  0
   38.0270   31.1720   47.6550 N   0  0  0  0  0  0  0  0  0  0  0  0
   37.0850   31.2470   48.6210 C   0  0  0  0  0  0  0  0  0  0  0  0
   37.0930   32.2820   49.4840 N   0  0  0  0  0  0  0  0  0  0  0  0
   37.9640   34.0450   50.1300 H   0  0  0  0  0  0  0  0  0  0  0  0
   39.7540   33.9850   48.3610 H   0  0  0  0  0  0  0  0  0  0  0  0
   39.7570   32.0560   46.7390 H   0  0  0  0  0  0  0  0  0  0  0  0
   31.8300   28.5320   46.8570 C   0  0  0  0  0  0  0  0  0  0  0  0
   32.9440   29.3010   46.9710 C   0  0  0  0  0  0  0  0  0  0  0  0
   33.1200   30.2910   45.9980 C   0  0  0  0  0  0  0  0  0  0  0  0
   33.9950   30.9610   46.0110 H   0  0  0  0  0  0  0  0  0  0  0  0
   32.2580   30.5210   44.9670 C   0  0  0  0  0  0  0  0  0  0  0  0
   32.4200   31.2910   44.2290 H   0  0  0  0  0  0  0  0  0  0  0  0
   31.1360   29.7430   44.8550 C   0  0  0  0  0  3  0  0  0  0  0  0
   30.9450   28.7640   45.8030 C   0  0  0  0  0  3  0  0  0  0  0  0
   32.7520   26.8130   48.4930 H   0  0  0  0  0  0  0  0  0  0  0  0
   31.5720   27.2990   48.0390 S   0  0  0  0  0  0  0  0  0  0  0  0
   30.6400   27.7090   49.1460 O   0  0  0  0  0  0  0  0  0  0  0  0
   30.8930   26.1440   47.3160 O   0  0  0  0  0  0  0  0  0  0  0  0
  2  7  1  0  0  0  0
  2  1  1  0  0  0  0
  3  2  2  0  0  0  0
  4  5  2  0  0  0  0
  4  3  1  0  0  0  0
  5  6  1  0  0  0  0
  6  9  1  0  0  0  0
  6  7  2  0  0  0  0
  7 10  1  0  0  0  0
  8  4  1  0  0  0  0
 11 16  1  0  0  0  0
 11 17  1  0  0  0  0
 12 11  2  0  0  0  0
 13 14  2  0  0  0  0
 13 12  1  0  0  0  0
 14 15  1  0  0  0  0
 15  3  1  0  0  0  0
 15 16  2  0  0  0  0
 18 12  1  0  0  0  0
 19 13  1  0  0  0  0
 20 21  1  0  0  0  0
 20 29  1  0  0  0  0
 21  5  1  0  0  0  0
 22 23  1  0  0  0  0
 22 21  2  0  0  0  0
 24 22  1  0  0  0  0
 25 24  1  0  0  0  0
 26 24  2  0  0  0  0
 26 27  1  0  0  0  0
 27 20  2  0  0  0  0
 29 28  1  0  0  0  0
 29 30  2  0  0  0  0
 31 29  2  0  0  0  0
M  END
>  <minimizedAffinity>
-6.14939308

>  <minimizedRMSD>
0.631059766

$$$$
