
 OpenBabel03272507213D

 33 35  0  0  1  0  0  0  0  0999 V2000
   39.1940   24.4160   34.6180 C   0  0  0  0  0  0  0  0  0  0  0  0
   40.3120   25.0800   35.0830 C   0  0  0  0  0  0  0  0  0  0  0  0
   40.2920   26.4640   34.9380 C   0  0  0  0  0  0  0  0  0  0  0  0
   39.2030   27.0810   34.3620 N   0  0  0  0  0  0  0  0  0  0  0  0
   38.1440   26.3710   33.9280 C   0  0  0  0  0  0  0  0  0  0  0  0
   38.1180   25.0230   34.0470 N   0  0  0  0  0  0  0  0  0  0  0  0
   41.1320   24.5370   35.5250 H   0  0  0  0  0  0  0  0  0  0  0  0
   41.1470   27.0110   35.2900 H   0  0  0  0  0  0  0  0  0  0  0  0
   37.0640   27.9370   32.1940 C   0  0  0  0  0  0  0  0  0  0  0  0
   37.3150   27.4370   33.4390 C   0  0  0  0  0  0  0  0  0  0  0  0
   36.6770   28.0260   34.5370 C   0  0  0  0  0  0  0  0  0  0  0  0
   36.6620   27.8690   35.6210 H   0  0  0  0  0  0  0  0  0  0  0  0
   35.8110   29.0980   34.2910 C   0  0  0  0  0  0  0  0  0  0  0  0
   35.2420   29.6630   35.0170 H   0  0  0  0  0  0  0  0  0  0  0  0
   35.6220   29.5310   32.9970 C   0  0  0  0  0  3  0  0  0  0  0  0
   36.2280   28.9820   31.8940 C   0  0  0  0  0  3  0  0  0  0  0  0
   39.2840   27.0470   31.3380 H   0  0  0  0  0  0  0  0  0  0  0  0
   37.9710   27.0970   30.9550 S   0  0  0  0  0  0  0  0  0  0  0  0
   37.8640   28.0050   29.7310 O   0  0  0  0  0  0  0  0  0  0  0  0
   37.4220   25.7560   30.6630 O   0  0  0  0  0  0  0  0  0  0  0  0
   39.1850   22.9290   34.8140 C   0  0  1  0  0  0  0  0  0  0  0  0
   38.4310   22.3000   35.8960 C   0  0  2  0  0  0  0  0  0  0  0  0
   37.7970   22.3130   34.5390 C   0  0  0  0  0  0  0  0  0  0  0  0
   40.0250   22.3960   34.3230 H   0  0  0  0  0  0  0  0  0  0  0  0
   38.9430   21.3760   36.3070 H   0  0  0  0  0  0  0  0  0  0  0  0
   36.9380   22.9990   34.3890 H   0  0  0  0  0  0  0  0  0  0  0  0
   37.8020   21.4060   33.9180 H   0  0  0  0  0  0  0  0  0  0  0  0
   37.9280   23.1300   36.8880 O   0  0  0  0  0  0  0  0  0  0  0  0
   38.4780   23.4870   38.0750 C   0  0  0  0  0  0  0  0  0  0  0  0
   38.0680   24.4650   38.7220 O   0  0  0  0  0  0  0  0  0  0  0  0
   39.5090   22.5970   38.3780 N   0  0  0  0  0  0  0  0  0  0  0  0
   40.3260   22.3220   37.7870 H   0  0  0  0  0  0  0  0  0  0  0  0
   40.0200   21.9160   38.9950 H   0  0  0  0  0  0  0  0  0  0  0  0
  1 21  1  0  0  0  0
  1  2  1  0  0  0  0
  2  7  1  0  0  0  0
  3  2  2  0  0  0  0
  3  8  1  0  0  0  0
  4  3  1  0  0  0  0
  5  6  1  0  0  0  0
  5  4  2  0  0  0  0
  6  1  2  0  0  0  0
  9 10  1  0  0  0  0
 10  5  1  0  0  0  0
 10 11  2  0  0  0  0
 11 12  1  0  0  0  0
 13 11  1  0  0  0  0
 13 14  1  0  0  0  0
 15 13  2  0  0  0  0
 16  9  2  0  0  0  0
 16 15  1  0  0  0  0
 18 17  1  0  0  0  0
 18  9  1  0  0  0  0
 19 18  2  0  0  0  0
 20 18  2  0  0  0  0
 21 24  1  6  0  0  0
 21 22  1  0  0  0  0
 22 25  1  1  0  0  0
 22 28  1  0  0  0  0
 23 21  1  0  0  0  0
 23 22  1  0  0  0  0
 26 23  1  0  0  0  0
 27 23  1  0  0  0  0
 28 29  1  0  0  0  0
 29 31  1  0  0  0  0
 29 30  2  0  0  0  0
 31 33  1  0  0  0  0
 32 31  1  0  0  0  0
M  END
>  <minimizedAffinity>
-5.46811914

$$$$

 OpenBabel03272507213D

 33 35  0  0  1  0  0  0  0  0999 V2000
   37.1720   25.6370   32.7860 C   0  0  0  0  0  0  0  0  0  0  0  0
   36.9670   26.9230   33.2450 C   0  0  0  0  0  0  0  0  0  0  0  0
   37.3130   27.1500   34.5740 C   0  0  0  0  0  0  0  0  0  0  0  0
   37.8230   26.1220   35.3370 N   0  0  0  0  0  0  0  0  0  0  0  0
   37.9970   24.8890   34.8260 C   0  0  0  0  0  0  0  0  0  0  0  0
   37.6740   24.6210   33.5390 N   0  0  0  0  0  0  0  0  0  0  0  0
   36.5630   27.6830   32.5940 H   0  0  0  0  0  0  0  0  0  0  0  0
   37.1650   28.1400   34.9620 H   0  0  0  0  0  0  0  0  0  0  0  0
   39.5980   23.3820   36.1630 C   0  0  0  0  0  0  0  0  0  0  0  0
   38.5380   24.2190   35.9760 C   0  0  0  0  0  0  0  0  0  0  0  0
   37.7460   24.5530   37.0810 C   0  0  0  0  0  0  0  0  0  0  0  0
   36.8610   25.1730   37.2620 H   0  0  0  0  0  0  0  0  0  0  0  0
   38.0930   24.0050   38.3220 C   0  0  0  0  0  0  0  0  0  0  0  0
   37.5940   24.1570   39.2690 H   0  0  0  0  0  0  0  0  0  0  0  0
   39.1840   23.1690   38.4090 C   0  0  0  0  0  3  0  0  0  0  0  0
   39.9850   22.8170   37.3520 C   0  0  0  0  0  3  0  0  0  0  0  0
   40.2790   24.1250   33.8320 H   0  0  0  0  0  0  0  0  0  0  0  0
   40.4490   23.0560   34.6690 S   0  0  0  0  0  0  0  0  0  0  0  0
   39.7140   21.8590   34.0700 O   0  0  0  0  0  0  0  0  0  0  0  0
   41.8770   22.7400   34.8880 O   0  0  0  0  0  0  0  0  0  0  0  0
   36.8480   25.3950   31.3420 C   0  0  1  0  0  0  0  0  0  0  0  0
   35.9980   24.2840   30.9190 C   0  0  2  0  0  0  0  0  0  0  0  0
   35.3550   25.6330   31.0310 C   0  0  0  0  0  0  0  0  0  0  0  0
   37.5450   25.8810   30.6270 H   0  0  0  0  0  0  0  0  0  0  0  0
   36.3080   23.8520   29.9180 H   0  0  0  0  0  0  0  0  0  0  0  0
   34.6610   25.7930   31.8810 H   0  0  0  0  0  0  0  0  0  0  0  0
   35.1540   26.2260   30.1270 H   0  0  0  0  0  0  0  0  0  0  0  0
   35.7040   23.3130   31.8650 O   0  0  0  0  0  0  0  0  0  0  0  0
   35.9810   21.9850   31.8520 C   0  0  0  0  0  0  0  0  0  0  0  0
   35.5090   21.2240   30.9910 O   0  0  0  0  0  0  0  0  0  0  0  0
   36.8300   21.6920   32.9200 N   0  0  0  0  0  0  0  0  0  0  0  0
   36.7040   21.9210   33.9310 H   0  0  0  0  0  0  0  0  0  0  0  0
   37.6980   21.2890   33.3540 H   0  0  0  0  0  0  0  0  0  0  0  0
  1  2  2  0  0  0  0
  1  6  1  0  0  0  0
  2  3  1  0  0  0  0
  3  8  1  0  0  0  0
  3  4  2  0  0  0  0
  5  4  1  0  0  0  0
  5 10  1  0  0  0  0
  6  5  2  0  0  0  0
  7  2  1  0  0  0  0
  9 16  1  0  0  0  0
 10  9  2  0  0  0  0
 10 11  1  0  0  0  0
 11 12  1  0  0  0  0
 11 13  2  0  0  0  0
 13 15  1  0  0  0  0
 13 14  1  0  0  0  0
 16 15  2  0  0  0  0
 17 18  1  0  0  0  0
 18 20  2  0  0  0  0
 18  9  1  0  0  0  0
 19 18  2  0  0  0  0
 21 24  1  6  0  0  0
 21  1  1  0  0  0  0
 22 25  1  6  0  0  0
 22 23  1  0  0  0  0
 22 21  1  0  0  0  0
 22 28  1  0  0  0  0
 23 21  1  0  0  0  0
 23 26  1  0  0  0  0
 27 23  1  0  0  0  0
 29 28  1  0  0  0  0
 29 31  1  0  0  0  0
 30 29  2  0  0  0  0
 31 33  1  0  0  0  0
 31 32  1  0  0  0  0
M  END
>  <minimizedAffinity>
-5.29173708

$$$$

 OpenBabel03272507213D

 33 35  0  0  1  0  0  0  0  0999 V2000
   36.7220   28.2390   32.3470 C   0  0  0  0  0  0  0  0  0  0  0  0
   36.8470   29.1910   31.3550 C   0  0  0  0  0  0  0  0  0  0  0  0
   36.2940   30.4360   31.6440 C   0  0  0  0  0  0  0  0  0  0  0  0
   35.6760   30.6490   32.8570 N   0  0  0  0  0  0  0  0  0  0  0  0
   35.5890   29.6740   33.7810 C   0  0  0  0  0  0  0  0  0  0  0  0
   36.1100   28.4470   33.5440 N   0  0  0  0  0  0  0  0  0  0  0  0
   37.3440   28.9590   30.4260 H   0  0  0  0  0  0  0  0  0  0  0  0
   36.3740   31.1990   30.8930 H   0  0  0  0  0  0  0  0  0  0  0  0
   33.5860   30.4150   35.2170 C   0  0  0  0  0  0  0  0  0  0  0  0
   34.8900   30.3790   34.8190 C   0  0  0  0  0  0  0  0  0  0  0  0
   35.8220   31.1650   35.5090 C   0  0  0  0  0  0  0  0  0  0  0  0
   36.8990   31.3550   35.4440 H   0  0  0  0  0  0  0  0  0  0  0  0
   35.3560   31.9460   36.5730 C   0  0  0  0  0  0  0  0  0  0  0  0
   35.9340   32.6050   37.2060 H   0  0  0  0  0  0  0  0  0  0  0  0
   34.0180   31.9140   36.9000 C   0  0  0  0  0  3  0  0  0  0  0  0
   33.0730   31.1580   36.2500 C   0  0  0  0  0  3  0  0  0  0  0  0
   33.3390   28.3910   33.7030 H   0  0  0  0  0  0  0  0  0  0  0  0
   32.5680   29.3950   34.2240 S   0  0  0  0  0  0  0  0  0  0  0  0
   32.1290   30.3040   33.0780 O   0  0  0  0  0  0  0  0  0  0  0  0
   31.3960   28.8750   34.9610 O   0  0  0  0  0  0  0  0  0  0  0  0
   37.3560   26.9090   32.0640 C   0  0  1  0  0  0  0  0  0  0  0  0
   38.4580   26.3940   32.8750 C   0  0  2  0  0  0  0  0  0  0  0  0
   37.0840   25.8830   33.1840 C   0  0  0  0  0  0  0  0  0  0  0  0
   37.1770   26.5240   31.0390 H   0  0  0  0  0  0  0  0  0  0  0  0
   39.1990   25.7860   32.2700 H   0  0  0  0  0  0  0  0  0  0  0  0
   36.6110   26.2410   34.1210 H   0  0  0  0  0  0  0  0  0  0  0  0
   36.7750   24.8860   32.8390 H   0  0  0  0  0  0  0  0  0  0  0  0
   39.0670   27.2760   33.7550 O   0  0  0  0  0  0  0  0  0  0  0  0
   39.4680   27.0790   35.0360 C   0  0  0  0  0  0  0  0  0  0  0  0
   40.4860   26.4230   35.3120 O   0  0  0  0  0  0  0  0  0  0  0  0
   38.5670   27.7130   35.8910 N   0  0  0  0  0  0  0  0  0  0  0  0
   37.5280   27.6180   35.9280 H   0  0  0  0  0  0  0  0  0  0  0  0
   38.3050   28.3640   36.6740 H   0  0  0  0  0  0  0  0  0  0  0  0
  1  6  1  0  0  0  0
  2  3  1  0  0  0  0
  2  1  2  0  0  0  0
  3  4  2  0  0  0  0
  4  5  1  0  0  0  0
  5 10  1  0  0  0  0
  6  5  2  0  0  0  0
  7  2  1  0  0  0  0
  8  3  1  0  0  0  0
  9 16  1  0  0  0  0
 10  9  2  0  0  0  0
 10 11  1  0  0  0  0
 11 13  2  0  0  0  0
 12 11  1  0  0  0  0
 13 15  1  0  0  0  0
 13 14  1  0  0  0  0
 16 15  2  0  0  0  0
 17 18  1  0  0  0  0
 18 20  2  0  0  0  0
 18  9  1  0  0  0  0
 19 18  2  0  0  0  0
 21 24  1  6  0  0  0
 21  1  1  0  0  0  0
 21 22  1  0  0  0  0
 21 23  1  0  0  0  0
 22 25  1  6  0  0  0
 22 23  1  0  0  0  0
 22 28  1  0  0  0  0
 23 26  1  0  0  0  0
 27 23  1  0  0  0  0
 28 29  1  0  0  0  0
 29 30  2  0  0  0  0
 29 31  1  0  0  0  0
 31 32  1  0  0  0  0
 31 33  1  0  0  0  0
M  END
>  <minimizedAffinity>
-5.26669836

$$$$

 OpenBabel03272507213D

 33 35  0  0  1  0  0  0  0  0999 V2000
   36.5800   22.3840   32.2980 C   0  0  0  0  0  0  0  0  0  0  0  0
   35.5840   23.0970   31.6620 C   0  0  0  0  0  0  0  0  0  0  0  0
   35.7920   24.4710   31.5700 C   0  0  0  0  0  0  0  0  0  0  0  0
   36.9360   25.0300   32.0960 N   0  0  0  0  0  0  0  0  0  0  0  0
   37.8700   24.2760   32.7050 C   0  0  0  0  0  0  0  0  0  0  0  0
   37.7100   22.9360   32.8200 N   0  0  0  0  0  0  0  0  0  0  0  0
   34.7110   22.5980   31.2720 H   0  0  0  0  0  0  0  0  0  0  0  0
   35.0340   25.0550   31.0810 H   0  0  0  0  0  0  0  0  0  0  0  0
   39.2560   25.8070   34.2400 C   0  0  0  0  0  0  0  0  0  0  0  0
   38.8220   25.2930   33.0530 C   0  0  0  0  0  0  0  0  0  0  0  0
   39.3600   25.8030   31.8660 C   0  0  0  0  0  0  0  0  0  0  0  0
   39.2320   25.6160   30.7940 H   0  0  0  0  0  0  0  0  0  0  0  0
   40.3200   26.8180   31.9680 C   0  0  0  0  0  0  0  0  0  0  0  0
   40.8330   27.3200   31.1590 H   0  0  0  0  0  0  0  0  0  0  0  0
   40.6940   27.2710   33.2140 C   0  0  0  0  0  3  0  0  0  0  0  0
   40.1910   26.7980   34.4010 C   0  0  0  0  0  3  0  0  0  0  0  0
   37.2550   24.5600   35.1840 H   0  0  0  0  0  0  0  0  0  0  0  0
   38.4520   25.0690   35.6080 S   0  0  0  0  0  0  0  0  0  0  0  0
   38.1680   26.2360   36.5510 O   0  0  0  0  0  0  0  0  0  0  0  0
   39.2900   24.0480   36.2740 O   0  0  0  0  0  0  0  0  0  0  0  0
   36.3890   20.8990   32.3590 C   0  0  1  0  0  0  0  0  0  0  0  0
   35.6830   20.2580   33.4670 C   0  0  2  0  0  0  0  0  0  0  0  0
   34.9070   20.4950   32.2080 C   0  0  0  0  0  0  0  0  0  0  0  0
   37.0870   20.3190   31.7200 H   0  0  0  0  0  0  0  0  0  0  0  0
   36.1060   19.2390   33.7250 H   0  0  0  0  0  0  0  0  0  0  0  0
   34.1400   21.2950   32.2300 H   0  0  0  0  0  0  0  0  0  0  0  0
   34.7170   19.6650   31.5120 H   0  0  0  0  0  0  0  0  0  0  0  0
   35.4150   21.0350   34.5850 O   0  0  0  0  0  0  0  0  0  0  0  0
   36.0980   21.1310   35.7530 C   0  0  0  0  0  0  0  0  0  0  0  0
   37.2520   21.5860   35.8040 O   0  0  0  0  0  0  0  0  0  0  0  0
   35.2930   20.6480   36.7850 N   0  0  0  0  0  0  0  0  0  0  0  0
   34.7980   19.7300   36.8490 H   0  0  0  0  0  0  0  0  0  0  0  0
   34.8140   20.7110   37.7190 H   0  0  0  0  0  0  0  0  0  0  0  0
  1 21  1  0  0  0  0
  1  6  1  0  0  0  0
  2  1  2  0  0  0  0
  3  2  1  0  0  0  0
  3  4  2  0  0  0  0
  4  5  1  0  0  0  0
  5  6  2  0  0  0  0
  5 10  1  0  0  0  0
  7  2  1  0  0  0  0
  8  3  1  0  0  0  0
  9 16  1  0  0  0  0
  9 18  1  0  0  0  0
 10  9  2  0  0  0  0
 11 13  2  0  0  0  0
 11 10  1  0  0  0  0
 12 11  1  0  0  0  0
 13 15  1  0  0  0  0
 14 13  1  0  0  0  0
 15 16  2  0  0  0  0
 17 18  1  0  0  0  0
 18 20  2  0  0  0  0
 18 19  2  0  0  0  0
 21 24  1  6  0  0  0
 21 22  1  0  0  0  0
 22 25  1  1  0  0  0
 22 28  1  0  0  0  0
 23 26  1  0  0  0  0
 23 21  1  0  0  0  0
 23 22  1  0  0  0  0
 27 23  1  0  0  0  0
 28 29  1  0  0  0  0
 29 30  2  0  0  0  0
 29 31  1  0  0  0  0
 31 32  1  0  0  0  0
 31 33  1  0  0  0  0
M  END
>  <minimizedAffinity>
-5.24821138

$$$$

 OpenBabel03272507213D

 33 35  0  0  1  0  0  0  0  0999 V2000
   38.1140   25.1510   35.9400 C   0  0  0  0  0  0  0  0  0  0  0  0
   38.1510   26.3680   36.5890 C   0  0  0  0  0  0  0  0  0  0  0  0
   38.4840   27.4630   35.7960 C   0  0  0  0  0  0  0  0  0  0  0  0
   38.7510   27.2860   34.4560 N   0  0  0  0  0  0  0  0  0  0  0  0
   38.6980   26.0680   33.8850 C   0  0  0  0  0  0  0  0  0  0  0  0
   38.3790   24.9740   34.6160 N   0  0  0  0  0  0  0  0  0  0  0  0
   37.9310   26.4380   37.6430 H   0  0  0  0  0  0  0  0  0  0  0  0
   38.5220   28.4250   36.2720 H   0  0  0  0  0  0  0  0  0  0  0  0
   38.3660   26.3350   31.3480 C   0  0  0  0  0  0  0  0  0  0  0  0
   39.0360   26.4140   32.5330 C   0  0  0  0  0  0  0  0  0  0  0  0
   40.3400   26.9250   32.5320 C   0  0  0  0  0  0  0  0  0  0  0  0
   41.1170   27.1130   33.2810 H   0  0  0  0  0  0  0  0  0  0  0  0
   40.8810   27.3290   31.3050 C   0  0  0  0  0  0  0  0  0  0  0  0
   41.8640   27.7420   31.1260 H   0  0  0  0  0  0  0  0  0  0  0  0
   40.1230   27.2110   30.1610 C   0  0  0  0  0  3  0  0  0  0  0  0
   38.8430   26.7160   30.1190 C   0  0  0  0  0  3  0  0  0  0  0  0
   36.5990   25.3100   32.8560 H   0  0  0  0  0  0  0  0  0  0  0  0
   36.7680   25.6470   31.5410 S   0  0  0  0  0  0  0  0  0  0  0  0
   36.8120   24.3600   30.7200 O   0  0  0  0  0  0  0  0  0  0  0  0
   35.7010   26.5460   31.0510 O   0  0  0  0  0  0  0  0  0  0  0  0
   37.7090   23.9730   36.7740 C   0  0  1  0  0  0  0  0  0  0  0  0
   38.6960   23.0730   37.3680 C   0  0  2  0  0  0  0  0  0  0  0  0
   38.1200   24.1360   38.2530 C   0  0  0  0  0  0  0  0  0  0  0  0
   36.6580   23.6450   36.6270 H   0  0  0  0  0  0  0  0  0  0  0  0
   38.3370   21.9990   37.4140 H   0  0  0  0  0  0  0  0  0  0  0  0
   38.7830   24.9830   38.5230 H   0  0  0  0  0  0  0  0  0  0  0  0
   37.3410   23.8820   38.9860 H   0  0  0  0  0  0  0  0  0  0  0  0
   40.0070   23.1910   36.9320 O   0  0  0  0  0  0  0  0  0  0  0  0
   40.9410   22.2260   36.7340 C   0  0  0  0  0  0  0  0  0  0  0  0
   41.6290   22.1800   35.7010 O   0  0  0  0  0  0  0  0  0  0  0  0
   40.9530   21.3790   37.8420 N   0  0  0  0  0  0  0  0  0  0  0  0
   40.1510   20.8760   38.2850 H   0  0  0  0  0  0  0  0  0  0  0  0
   41.4150   20.8660   38.6350 H   0  0  0  0  0  0  0  0  0  0  0  0
  1  2  1  0  0  0  0
  1 21  1  0  0  0  0
  2  7  1  0  0  0  0
  3  8  1  0  0  0  0
  3  2  2  0  0  0  0
  4  3  1  0  0  0  0
  5  4  2  0  0  0  0
  5  6  1  0  0  0  0
  6  1  2  0  0  0  0
  9 18  1  0  0  0  0
  9 10  1  0  0  0  0
 10  5  1  0  0  0  0
 11 10  2  0  0  0  0
 11 12  1  0  0  0  0
 13 11  1  0  0  0  0
 14 13  1  0  0  0  0
 15 13  2  0  0  0  0
 16 15  1  0  0  0  0
 16  9  2  0  0  0  0
 18 17  1  0  0  0  0
 19 18  2  0  0  0  0
 20 18  2  0  0  0  0
 21 24  1  6  0  0  0
 21 22  1  0  0  0  0
 21 23  1  0  0  0  0
 22 25  1  1  0  0  0
 22 23  1  0  0  0  0
 23 26  1  0  0  0  0
 23 27  1  0  0  0  0
 28 22  1  0  0  0  0
 29 28  1  0  0  0  0
 29 31  1  0  0  0  0
 30 29  2  0  0  0  0
 31 32  1  0  0  0  0
 31 33  1  0  0  0  0
M  END
>  <minimizedAffinity>
-5.17502737

$$$$

 OpenBabel03272507213D

 33 35  0  0  1  0  0  0  0  0999 V2000
   37.2890   24.7620   32.4890 C   0  0  0  0  0  0  0  0  0  0  0  0
   37.0970   26.0670   32.8970 C   0  0  0  0  0  0  0  0  0  0  0  0
   37.7310   26.4270   34.0820 C   0  0  0  0  0  0  0  0  0  0  0  0
   38.4900   25.5010   34.7650 N   0  0  0  0  0  0  0  0  0  0  0  0
   38.6360   24.2420   34.3110 C   0  0  0  0  0  0  0  0  0  0  0  0
   38.0370   23.8460   33.1630 N   0  0  0  0  0  0  0  0  0  0  0  0
   36.4890   26.7430   32.3150 H   0  0  0  0  0  0  0  0  0  0  0  0
   37.6010   27.4350   34.4270 H   0  0  0  0  0  0  0  0  0  0  0  0
   39.2510   23.1530   36.5600 C   0  0  0  0  0  0  0  0  0  0  0  0
   39.4880   23.7060   35.3360 C   0  0  0  0  0  0  0  0  0  0  0  0
   40.8130   23.8210   34.8990 C   0  0  0  0  0  0  0  0  0  0  0  0
   41.3220   24.2020   34.0060 H   0  0  0  0  0  0  0  0  0  0  0  0
   41.8230   23.3570   35.7500 C   0  0  0  0  0  0  0  0  0  0  0  0
   42.8900   23.3690   35.5700 H   0  0  0  0  0  0  0  0  0  0  0  0
   41.4830   22.8120   36.9680 C   0  0  0  0  0  3  0  0  0  0  0  0
   40.1980   22.6820   37.4340 C   0  0  0  0  0  3  0  0  0  0  0  0
   36.9900   24.3110   36.5600 H   0  0  0  0  0  0  0  0  0  0  0  0
   37.5440   23.1210   36.9470 S   0  0  0  0  0  0  0  0  0  0  0  0
   37.5050   23.0480   38.4720 O   0  0  0  0  0  0  0  0  0  0  0  0
   36.8500   21.9600   36.3480 O   0  0  0  0  0  0  0  0  0  0  0  0
   36.6500   24.3790   31.1880 C   0  0  1  0  0  0  0  0  0  0  0  0
   35.5540   23.4150   31.1230 C   0  0  2  0  0  0  0  0  0  0  0  0
   35.1900   24.8670   31.0890 C   0  0  0  0  0  0  0  0  0  0  0  0
   37.2660   24.5990   30.2910 H   0  0  0  0  0  0  0  0  0  0  0  0
   35.5810   22.7840   30.1810 H   0  0  0  0  0  0  0  0  0  0  0  0
   34.7150   25.2910   31.9980 H   0  0  0  0  0  0  0  0  0  0  0  0
   34.9210   25.3470   30.1370 H   0  0  0  0  0  0  0  0  0  0  0  0
   35.2880   22.6750   32.2660 O   0  0  0  0  0  0  0  0  0  0  0  0
   35.4380   21.3450   32.4880 C   0  0  0  0  0  0  0  0  0  0  0  0
   34.7200   20.5010   31.9270 O   0  0  0  0  0  0  0  0  0  0  0  0
   36.4760   21.1570   33.4000 N   0  0  0  0  0  0  0  0  0  0  0  0
   36.6020   21.5920   34.3420 H   0  0  0  0  0  0  0  0  0  0  0  0
   37.3820   20.7350   33.7290 H   0  0  0  0  0  0  0  0  0  0  0  0
  1  2  2  0  0  0  0
  1  6  1  0  0  0  0
  2  3  1  0  0  0  0
  3  8  1  0  0  0  0
  3  4  2  0  0  0  0
  5  4  1  0  0  0  0
  5 10  1  0  0  0  0
  6  5  2  0  0  0  0
  7  2  1  0  0  0  0
  9 18  1  0  0  0  0
  9 16  1  0  0  0  0
 10  9  2  0  0  0  0
 11 10  1  0  0  0  0
 11 13  2  0  0  0  0
 12 11  1  0  0  0  0
 13 15  1  0  0  0  0
 14 13  1  0  0  0  0
 15 16  2  0  0  0  0
 17 18  1  0  0  0  0
 18 19  2  0  0  0  0
 20 18  2  0  0  0  0
 21 24  1  6  0  0  0
 21  1  1  0  0  0  0
 22 25  1  6  0  0  0
 22 21  1  0  0  0  0
 22 28  1  0  0  0  0
 23 22  1  0  0  0  0
 23 21  1  0  0  0  0
 23 26  1  0  0  0  0
 27 23  1  0  0  0  0
 28 29  1  0  0  0  0
 29 31  1  0  0  0  0
 30 29  2  0  0  0  0
 31 33  1  0  0  0  0
 31 32  1  0  0  0  0
M  END
>  <minimizedAffinity>
-5.15220594

$$$$

 OpenBabel03272507213D

 33 35  0  0  1  0  0  0  0  0999 V2000
   36.5440   22.1710   32.5130 C   0  0  0  0  0  0  0  0  0  0  0  0
   35.7390   22.8190   31.5990 C   0  0  0  0  0  0  0  0  0  0  0  0
   35.9360   24.1930   31.4920 C   0  0  0  0  0  0  0  0  0  0  0  0
   36.8880   24.8140   32.2710 N   0  0  0  0  0  0  0  0  0  0  0  0
   37.6410   24.1210   33.1450 C   0  0  0  0  0  0  0  0  0  0  0  0
   37.4830   22.7830   33.2850 N   0  0  0  0  0  0  0  0  0  0  0  0
   35.0110   22.2730   31.0190 H   0  0  0  0  0  0  0  0  0  0  0  0
   35.3250   24.7280   30.7890 H   0  0  0  0  0  0  0  0  0  0  0  0
   39.6780   25.6770   33.3640 C   0  0  0  0  0  0  0  0  0  0  0  0
   38.4450   25.1840   33.6780 C   0  0  0  0  0  0  0  0  0  0  0  0
   37.7370   25.7750   34.7310 C   0  0  0  0  0  0  0  0  0  0  0  0
   36.7660   25.6230   35.2150 H   0  0  0  0  0  0  0  0  0  0  0  0
   38.3400   26.8450   35.4030 C   0  0  0  0  0  0  0  0  0  0  0  0
   37.9360   27.4110   36.2320 H   0  0  0  0  0  0  0  0  0  0  0  0
   39.5890   27.2720   35.0110 C   0  0  0  0  0  3  0  0  0  0  0  0
   40.3170   26.7200   33.9860 C   0  0  0  0  0  3  0  0  0  0  0  0
   40.0760   23.4770   32.1580 H   0  0  0  0  0  0  0  0  0  0  0  0
   40.4210   24.7970   32.0460 S   0  0  0  0  0  0  0  0  0  0  0  0
   41.9200   24.9230   32.3080 O   0  0  0  0  0  0  0  0  0  0  0  0
   40.0700   25.3560   30.7230 O   0  0  0  0  0  0  0  0  0  0  0  0
   36.3730   20.6840   32.6010 C   0  0  1  0  0  0  0  0  0  0  0  0
   35.5910   20.0600   33.6680 C   0  0  2  0  0  0  0  0  0  0  0  0
   34.9150   20.2480   32.3450 C   0  0  0  0  0  0  0  0  0  0  0  0
   37.1290   20.1000   32.0360 H   0  0  0  0  0  0  0  0  0  0  0  0
   36.0100   19.0560   33.9880 H   0  0  0  0  0  0  0  0  0  0  0  0
   34.1350   21.0350   32.2830 H   0  0  0  0  0  0  0  0  0  0  0  0
   34.7940   19.3960   31.6600 H   0  0  0  0  0  0  0  0  0  0  0  0
   35.2230   20.8620   34.7380 O   0  0  0  0  0  0  0  0  0  0  0  0
   35.8200   21.0170   35.9470 C   0  0  0  0  0  0  0  0  0  0  0  0
   37.0090   21.3610   36.0530 O   0  0  0  0  0  0  0  0  0  0  0  0
   34.8910   20.7270   36.9470 N   0  0  0  0  0  0  0  0  0  0  0  0
   34.3000   19.8730   37.0580 H   0  0  0  0  0  0  0  0  0  0  0  0
   34.3510   20.9360   37.8240 H   0  0  0  0  0  0  0  0  0  0  0  0
  1 21  1  0  0  0  0
  1  6  1  0  0  0  0
  2  1  2  0  0  0  0
  3  2  1  0  0  0  0
  3  4  2  0  0  0  0
  4  5  1  0  0  0  0
  5  6  2  0  0  0  0
  5 10  1  0  0  0  0
  7  2  1  0  0  0  0
  8  3  1  0  0  0  0
  9 10  2  0  0  0  0
  9 16  1  0  0  0  0
 10 11  1  0  0  0  0
 11 12  1  0  0  0  0
 11 13  2  0  0  0  0
 13 14  1  0  0  0  0
 15 13  1  0  0  0  0
 16 15  2  0  0  0  0
 18 17  1  0  0  0  0
 18 19  2  0  0  0  0
 18  9  1  0  0  0  0
 20 18  2  0  0  0  0
 21 24  1  6  0  0  0
 21 22  1  0  0  0  0
 22 25  1  1  0  0  0
 22 28  1  0  0  0  0
 23 21  1  0  0  0  0
 23 22  1  0  0  0  0
 26 23  1  0  0  0  0
 27 23  1  0  0  0  0
 28 29  1  0  0  0  0
 29 30  2  0  0  0  0
 29 31  1  0  0  0  0
 31 32  1  0  0  0  0
 31 33  1  0  0  0  0
M  END
>  <minimizedAffinity>
-5.08771944

$$$$

 OpenBabel03272507213D

 33 35  0  0  1  0  0  0  0  0999 V2000
   33.5670   30.9640   35.4130 C   0  0  0  0  0  0  0  0  0  0  0  0
   34.4320   31.7660   36.1290 C   0  0  0  0  0  0  0  0  0  0  0  0
   35.7860   31.4760   35.9780 C   0  0  0  0  0  0  0  0  0  0  0  0
   36.1800   30.4430   35.1550 N   0  0  0  0  0  0  0  0  0  0  0  0
   35.2810   29.6980   34.4850 C   0  0  0  0  0  0  0  0  0  0  0  0
   33.9550   29.9430   34.6010 N   0  0  0  0  0  0  0  0  0  0  0  0
   34.0580   32.5600   36.7560 H   0  0  0  0  0  0  0  0  0  0  0  0
   36.4850   32.0820   36.5220 H   0  0  0  0  0  0  0  0  0  0  0  0
   36.6100   28.7230   32.5080 C   0  0  0  0  0  0  0  0  0  0  0  0
   36.1670   28.8020   33.7960 C   0  0  0  0  0  0  0  0  0  0  0  0
   36.6160   27.8470   34.7170 C   0  0  0  0  0  0  0  0  0  0  0  0
   36.4580   27.6390   35.7810 H   0  0  0  0  0  0  0  0  0  0  0  0
   37.5000   26.8630   34.2580 C   0  0  0  0  0  0  0  0  0  0  0  0
   37.9400   26.0570   34.8310 H   0  0  0  0  0  0  0  0  0  0  0  0
   37.8900   26.8680   32.9370 C   0  0  0  0  0  3  0  0  0  0  0  0
   37.4730   27.7840   32.0030 C   0  0  0  0  0  3  0  0  0  0  0  0
   34.5590   29.9300   31.6200 H   0  0  0  0  0  0  0  0  0  0  0  0
   35.9210   29.9770   31.5000 S   0  0  0  0  0  0  0  0  0  0  0  0
   36.2900   29.5600   30.0780 O   0  0  0  0  0  0  0  0  0  0  0  0
   36.4640   31.3160   31.8120 O   0  0  0  0  0  0  0  0  0  0  0  0
   32.1100   31.3000   35.5300 C   0  0  1  0  0  0  0  0  0  0  0  0
   31.2830   30.7720   36.6130 C   0  0  2  0  0  0  0  0  0  0  0  0
   31.8090   32.1650   36.7720 C   0  0  0  0  0  0  0  0  0  0  0  0
   31.6470   31.6730   34.5920 H   0  0  0  0  0  0  0  0  0  0  0  0
   30.2150   30.5700   36.2890 H   0  0  0  0  0  0  0  0  0  0  0  0
   32.6190   32.3180   37.5140 H   0  0  0  0  0  0  0  0  0  0  0  0
   31.1510   33.0280   36.5930 H   0  0  0  0  0  0  0  0  0  0  0  0
   31.8200   29.7520   37.3840 O   0  0  0  0  0  0  0  0  0  0  0  0
   31.4920   28.4360   37.4240 C   0  0  0  0  0  0  0  0  0  0  0  0
   31.3820   27.7550   36.3910 O   0  0  0  0  0  0  0  0  0  0  0  0
   31.3210   28.0560   38.7550 N   0  0  0  0  0  0  0  0  0  0  0  0
   30.7150   28.4950   39.4850 H   0  0  0  0  0  0  0  0  0  0  0  0
   31.5000   27.4520   39.5970 H   0  0  0  0  0  0  0  0  0  0  0  0
  1 21  1  0  0  0  0
  1  2  1  0  0  0  0
  2  7  1  0  0  0  0
  3  2  2  0  0  0  0
  3  8  1  0  0  0  0
  4  3  1  0  0  0  0
  5  6  1  0  0  0  0
  5  4  2  0  0  0  0
  6  1  2  0  0  0  0
  9 10  1  0  0  0  0
 10  5  1  0  0  0  0
 10 11  2  0  0  0  0
 11 12  1  0  0  0  0
 13 11  1  0  0  0  0
 13 14  1  0  0  0  0
 15 13  2  0  0  0  0
 16  9  2  0  0  0  0
 16 15  1  0  0  0  0
 18 17  1  0  0  0  0
 18 20  2  0  0  0  0
 18  9  1  0  0  0  0
 19 18  2  0  0  0  0
 21 24  1  6  0  0  0
 21 22  1  0  0  0  0
 21 23  1  0  0  0  0
 22 25  1  6  0  0  0
 22 23  1  0  0  0  0
 22 28  1  0  0  0  0
 23 26  1  0  0  0  0
 27 23  1  0  0  0  0
 28 29  1  0  0  0  0
 29 31  1  0  0  0  0
 30 29  2  0  0  0  0
 31 32  1  0  0  0  0
 31 33  1  0  0  0  0
M  END
>  <minimizedAffinity>
-5.05758476

$$$$

 OpenBabel03272507213D

 33 35  0  0  1  0  0  0  0  0999 V2000
   36.1470   29.2270   32.1700 C   0  0  0  0  0  0  0  0  0  0  0  0
   35.5510   29.9310   31.1430 C   0  0  0  0  0  0  0  0  0  0  0  0
   34.4210   30.6650   31.4930 C   0  0  0  0  0  0  0  0  0  0  0  0
   33.9710   30.6550   32.7950 N   0  0  0  0  0  0  0  0  0  0  0  0
   34.6000   29.9450   33.7500 C   0  0  0  0  0  0  0  0  0  0  0  0
   35.7020   29.2150   33.4570 N   0  0  0  0  0  0  0  0  0  0  0  0
   35.9550   29.8960   30.1430 H   0  0  0  0  0  0  0  0  0  0  0  0
   33.9330   31.2230   30.7170 H   0  0  0  0  0  0  0  0  0  0  0  0
   33.8520   31.2030   35.8660 C   0  0  0  0  0  0  0  0  0  0  0  0
   33.7740   30.2630   34.8810 C   0  0  0  0  0  0  0  0  0  0  0  0
   32.6950   29.3710   34.8910 C   0  0  0  0  0  0  0  0  0  0  0  0
   32.3540   28.5340   34.2700 H   0  0  0  0  0  0  0  0  0  0  0  0
   31.7520   29.4980   35.9180 C   0  0  0  0  0  0  0  0  0  0  0  0
   30.8670   28.8980   36.0750 H   0  0  0  0  0  0  0  0  0  0  0  0
   31.9180   30.4820   36.8680 C   0  0  0  0  0  3  0  0  0  0  0  0
   32.9600   31.3750   36.8950 C   0  0  0  0  0  3  0  0  0  0  0  0
   35.4180   32.5520   34.3900 H   0  0  0  0  0  0  0  0  0  0  0  0
   35.2770   32.2050   35.7070 S   0  0  0  0  0  0  0  0  0  0  0  0
   36.4320   31.2790   36.0830 O   0  0  0  0  0  0  0  0  0  0  0  0
   35.2410   33.3870   36.5950 O   0  0  0  0  0  0  0  0  0  0  0  0
   37.3930   28.4720   31.8130 C   0  0  1  0  0  0  0  0  0  0  0  0
   37.3650   27.0460   31.4960 C   0  0  2  0  0  0  0  0  0  0  0  0
   37.3890   28.0020   30.3440 C   0  0  0  0  0  0  0  0  0  0  0  0
   38.3360   28.9650   32.1320 H   0  0  0  0  0  0  0  0  0  0  0  0
   38.2980   26.5020   31.8410 H   0  0  0  0  0  0  0  0  0  0  0  0
   36.4540   28.1140   29.7590 H   0  0  0  0  0  0  0  0  0  0  0  0
   38.3250   28.1810   29.7930 H   0  0  0  0  0  0  0  0  0  0  0  0
   36.1960   26.3540   31.7790 O   0  0  0  0  0  0  0  0  0  0  0  0
   35.5900   25.3610   31.0800 C   0  0  0  0  0  0  0  0  0  0  0  0
   34.3580   25.3190   30.9330 O   0  0  0  0  0  0  0  0  0  0  0  0
   36.5670   24.4820   30.6110 N   0  0  0  0  0  0  0  0  0  0  0  0
   37.3190   23.9980   31.1500 H   0  0  0  0  0  0  0  0  0  0  0  0
   37.0610   23.9290   29.8670 H   0  0  0  0  0  0  0  0  0  0  0  0
  1  6  1  0  0  0  0
  2  3  1  0  0  0  0
  2  1  2  0  0  0  0
  3  4  2  0  0  0  0
  4  5  1  0  0  0  0
  5 10  1  0  0  0  0
  6  5  2  0  0  0  0
  7  2  1  0  0  0  0
  8  3  1  0  0  0  0
  9 16  1  0  0  0  0
 10 11  1  0  0  0  0
 10  9  2  0  0  0  0
 11 13  2  0  0  0  0
 12 11  1  0  0  0  0
 13 14  1  0  0  0  0
 13 15  1  0  0  0  0
 15 16  2  0  0  0  0
 17 18  1  0  0  0  0
 18  9  1  0  0  0  0
 18 19  2  0  0  0  0
 18 20  2  0  0  0  0
 21 24  1  1  0  0  0
 21  1  1  0  0  0  0
 22 28  1  0  0  0  0
 22 21  1  0  0  0  0
 22 25  1  1  0  0  0
 23 22  1  0  0  0  0
 23 21  1  0  0  0  0
 26 23  1  0  0  0  0
 27 23  1  0  0  0  0
 29 28  1  0  0  0  0
 30 29  2  0  0  0  0
 31 29  1  0  0  0  0
 31 32  1  0  0  0  0
 33 31  1  0  0  0  0
M  END
>  <minimizedAffinity>
-4.96546078

$$$$
