
 OpenBabel03272510333D

 31 33  0  0  0  0  0  0  0  0999 V2000
   38.6500   31.5950   47.0840 C   0  0  0  0  0  0  0  0  0  0  0  0
   39.7200   31.7570   46.2250 C   0  0  0  0  0  0  0  0  0  0  0  0
   39.9310   30.8870   45.1720 C   0  0  0  0  0  0  0  0  0  0  0  0
   39.0390   29.8450   45.0000 C   0  0  0  0  0  0  0  0  0  0  0  0
   37.9460   29.6530   45.8520 C   0  0  0  0  0  0  0  0  0  0  0  0
   37.7710   30.5440   46.8910 C   0  0  0  0  0  0  0  0  0  0  0  0
   40.4230   32.5760   46.3580 H   0  0  0  0  0  0  0  0  0  0  0  0
   40.7840   31.0580   44.5280 H   0  0  0  0  0  0  0  0  0  0  0  0
   39.2830   29.2060   44.1400 H   0  0  0  0  0  0  0  0  0  0  0  0
   37.3110   28.8150   45.6350 H   0  0  0  0  0  0  0  0  0  0  0  0
   37.0470   33.5920   49.6610 C   0  0  0  0  0  0  0  0  0  0  0  0
   38.1020   34.3640   50.1990 C   0  0  0  0  0  0  0  0  0  0  0  0
   39.4010   34.1750   49.6420 C   0  0  0  0  0  0  0  0  0  0  0  0
   39.5260   33.2740   48.6450 N   0  0  0  0  0  0  0  0  0  0  0  0
   38.4980   32.5600   48.1630 C   0  0  0  0  0  0  0  0  0  0  0  0
   37.2580   32.7190   48.6710 N   0  0  0  0  0  0  0  0  0  0  0  0
   36.0590   33.7530   50.1030 H   0  0  0  0  0  0  0  0  0  0  0  0
   37.9410   35.0760   50.9990 H   0  0  0  0  0  0  0  0  0  0  0  0
   40.2130   34.7580   50.0450 H   0  0  0  0  0  0  0  0  0  0  0  0
   36.6170   29.9850   49.1250 C   0  0  0  0  0  0  0  0  0  0  0  0
   36.6420   30.3450   47.7930 C   0  0  0  0  0  0  0  0  0  0  0  0
   35.4240   30.5780   47.1530 C   0  0  0  0  0  0  0  0  0  0  0  0
   35.2650   30.8680   46.1130 H   0  0  0  0  0  0  0  0  0  0  0  0
   34.2200   30.4490   47.8430 C   0  0  0  0  0  0  0  0  0  0  0  0
   33.2490   30.6170   47.4020 H   0  0  0  0  0  0  0  0  0  0  0  0
   34.2280   30.0820   49.1930 C   0  0  0  0  0  3  0  0  0  0  0  0
   35.4450   29.8590   49.8000 C   0  0  0  0  0  3  0  0  0  0  0  0
   39.1020   29.6530   48.7880 H   0  0  0  0  0  0  0  0  0  0  0  0
   38.1990   29.7200   49.8160 S   0  0  0  0  0  0  0  0  0  0  0  0
   38.1920   28.4070   50.5240 O   0  0  0  0  0  0  0  0  0  0  0  0
   38.5930   30.7810   50.7870 O   0  0  0  0  0  0  0  0  0  0  0  0
  1 15  1  0  0  0  0
  2  7  1  0  0  0  0
  2  1  2  0  0  0  0
  3  2  1  0  0  0  0
  4  3  2  0  0  0  0
  4  5  1  0  0  0  0
  5  6  2  0  0  0  0
  6  1  1  0  0  0  0
  6 21  1  0  0  0  0
  8  3  1  0  0  0  0
  9  4  1  0  0  0  0
 10  5  1  0  0  0  0
 11 17  1  0  0  0  0
 11 12  1  0  0  0  0
 12 18  1  0  0  0  0
 13 19  1  0  0  0  0
 13 12  2  0  0  0  0
 14 13  1  0  0  0  0
 15 14  2  0  0  0  0
 15 16  1  0  0  0  0
 16 11  2  0  0  0  0
 20 27  1  0  0  0  0
 20 29  1  0  0  0  0
 21 20  2  0  0  0  0
 22 21  1  0  0  0  0
 22 24  2  0  0  0  0
 23 22  1  0  0  0  0
 24 26  1  0  0  0  0
 25 24  1  0  0  0  0
 26 27  2  0  0  0  0
 28 29  1  0  0  0  0
 29 30  2  0  0  0  0
 29 31  2  0  0  0  0
M  END
>  <minimizedAffinity>
-1.64078665

>  <minimizedRMSD>
3.96451735

$$$$
