
 OpenBabel03272500543D

 35 37  0  0  0  0  0  0  0  0999 V2000
   35.7360   30.0710   43.5330 C   0  0  0  0  0  0  0  0  0  0  0  0
   35.6640   29.2610   42.4050 C   0  0  0  0  0  0  0  0  0  0  0  0
   36.6750   29.1830   41.4590 C   0  0  0  0  0  0  0  0  0  0  0  0
   37.8400   29.9760   41.6620 C   0  0  0  0  0  0  0  0  0  0  0  0
   37.8830   30.7600   42.7780 C   0  0  0  0  0  0  0  0  0  0  0  0
   36.8910   30.8300   43.7020 C   0  0  0  0  0  0  0  0  0  0  0  0
   34.7690   28.6450   42.2380 H   0  0  0  0  0  0  0  0  0  0  0  0
   36.5040   28.5060   40.6050 H   0  0  0  0  0  0  0  0  0  0  0  0
   38.5190   29.7990   40.8420 H   0  0  0  0  0  0  0  0  0  0  0  0
   38.8150   31.2750   42.6720 H   0  0  0  0  0  0  0  0  0  0  0  0
   34.6050   29.2140   45.4920 C   0  0  0  0  0  0  0  0  0  0  0  0
   34.5710   30.0760   44.3840 C   0  0  0  0  0  0  0  0  0  0  0  0
   33.4120   30.8490   44.2210 C   0  0  0  0  0  0  0  0  0  0  0  0
   32.3960   30.7560   45.0900 N   0  0  0  0  0  0  0  0  0  0  0  0
   32.4510   29.9150   46.1560 C   0  0  0  0  0  0  0  0  0  0  0  0
   33.5490   29.1600   46.3390 N   0  0  0  0  0  0  0  0  0  0  0  0
   35.4180   28.5650   45.7490 H   0  0  0  0  0  0  0  0  0  0  0  0
   33.4370   31.4980   43.3490 H   0  0  0  0  0  0  0  0  0  0  0  0
   31.5650   29.9640   46.7420 H   0  0  0  0  0  0  0  0  0  0  0  0
   37.8920   31.0980   45.8150 C   0  0  0  0  0  0  0  0  0  0  0  0
   38.4130   29.9510   45.5800 O   0  0  0  0  0  0  0  0  0  0  0  0
   36.9670   31.6220   44.8500 N   0  0  0  0  0  0  0  0  0  0  0  0
   36.4310   32.4690   44.9810 H   0  0  0  0  0  0  0  0  0  0  0  0
   39.2120   32.8180   47.1460 C   0  0  0  0  0  0  0  0  0  0  0  0
   38.2050   31.8870   47.0220 C   0  0  0  0  0  0  0  0  0  0  0  0
   37.3910   31.6540   48.1110 C   0  0  0  0  0  0  0  0  0  0  0  0
   36.5600   30.9460   48.1450 H   0  0  0  0  0  0  0  0  0  0  0  0
   37.5990   32.3500   49.2970 C   0  0  0  0  0  0  0  0  0  0  0  0
   37.0060   32.2180   50.1750 H   0  0  0  0  0  0  0  0  0  0  0  0
   38.6100   33.2810   49.4130 C   0  0  0  0  0  3  0  0  0  0  0  0
   39.4280   33.5150   48.3150 C   0  0  0  0  0  3  0  0  0  0  0  0
   40.9760   34.2370   46.0840 H   0  0  0  0  0  0  0  0  0  0  0  0
   40.2330   33.1040   45.7720 S   0  0  0  0  0  0  0  0  0  0  0  0
   41.1170   31.9890   45.3930 O   0  0  0  0  0  0  0  0  0  0  0  0
   39.3400   33.4800   44.6010 O   0  0  0  0  0  0  0  0  0  0  0  0
  1  6  1  0  0  0  0
  1 12  1  0  0  0  0
  2  1  2  0  0  0  0
  3  4  2  0  0  0  0
  3  2  1  0  0  0  0
  4  5  1  0  0  0  0
  5  6  2  0  0  0  0
  6 22  1  0  0  0  0
  7  2  1  0  0  0  0
  8  3  1  0  0  0  0
  9  4  1  0  0  0  0
 10  5  1  0  0  0  0
 11 17  1  0  0  0  0
 11 16  1  0  0  0  0
 12 11  2  0  0  0  0
 13 12  1  0  0  0  0
 13 14  2  0  0  0  0
 14 15  1  0  0  0  0
 15 16  2  0  0  0  0
 15 19  1  0  0  0  0
 18 13  1  0  0  0  0
 20 25  1  0  0  0  0
 21 20  2  0  0  0  0
 22 23  1  0  0  0  0
 22 20  1  0  0  0  0
 24 31  1  0  0  0  0
 25 24  2  0  0  0  0
 25 26  1  0  0  0  0
 26 27  1  0  0  0  0
 26 28  2  0  0  0  0
 28 30  1  0  0  0  0
 28 29  1  0  0  0  0
 31 30  2  0  0  0  0
 33 32  1  0  0  0  0
 33 24  1  0  0  0  0
 34 33  2  0  0  0  0
 35 33  2  0  0  0  0
M  END
>  <minimizedAffinity>
-5.10227251

>  <minimizedRMSD>
5.15298843

$$$$
