
 OpenBabel03272500543D

 35 37  0  0  0  0  0  0  0  0999 V2000
   35.3230   28.8070   43.3640 C   0  0  0  0  0  0  0  0  0  0  0  0
   34.9100   27.6420   42.7270 C   0  0  0  0  0  0  0  0  0  0  0  0
   35.6720   26.9860   41.7720 C   0  0  0  0  0  0  0  0  0  0  0  0
   36.9380   27.5430   41.4320 C   0  0  0  0  0  0  0  0  0  0  0  0
   37.3170   28.6860   42.0730 C   0  0  0  0  0  0  0  0  0  0  0  0
   36.5680   29.3220   43.0100 C   0  0  0  0  0  0  0  0  0  0  0  0
   33.9350   27.2030   42.9810 H   0  0  0  0  0  0  0  0  0  0  0  0
   35.2400   26.0700   41.3360 H   0  0  0  0  0  0  0  0  0  0  0  0
   37.3950   26.9180   40.6810 H   0  0  0  0  0  0  0  0  0  0  0  0
   38.2560   28.9160   41.6160 H   0  0  0  0  0  0  0  0  0  0  0  0
   34.4040   28.8850   45.6000 C   0  0  0  0  0  0  0  0  0  0  0  0
   34.3820   29.3900   44.2890 C   0  0  0  0  0  0  0  0  0  0  0  0
   33.4520   30.4030   44.0190 C   0  0  0  0  0  0  0  0  0  0  0  0
   32.6300   30.8560   44.9770 N   0  0  0  0  0  0  0  0  0  0  0  0
   32.6690   30.3520   46.2380 C   0  0  0  0  0  0  0  0  0  0  0  0
   33.5510   29.3790   46.5290 N   0  0  0  0  0  0  0  0  0  0  0  0
   35.0560   28.1140   45.9570 H   0  0  0  0  0  0  0  0  0  0  0  0
   33.4760   30.7580   42.9910 H   0  0  0  0  0  0  0  0  0  0  0  0
   31.9540   30.8210   46.8710 H   0  0  0  0  0  0  0  0  0  0  0  0
   38.2400   30.2990   44.3480 C   0  0  0  0  0  0  0  0  0  0  0  0
   38.7360   29.1180   44.3770 O   0  0  0  0  0  0  0  0  0  0  0  0
   36.9860   30.4790   43.6710 N   0  0  0  0  0  0  0  0  0  0  0  0
   36.4620   31.3440   43.6690 H   0  0  0  0  0  0  0  0  0  0  0  0
   39.5400   32.4850   44.3100 C   0  0  0  0  0  0  0  0  0  0  0  0
   38.8990   31.4610   44.9720 C   0  0  0  0  0  0  0  0  0  0  0  0
   38.8490   31.5020   46.3500 C   0  0  0  0  0  0  0  0  0  0  0  0
   38.3750   30.7570   46.9930 H   0  0  0  0  0  0  0  0  0  0  0  0
   39.4370   32.5590   47.0370 C   0  0  0  0  0  0  0  0  0  0  0  0
   39.4340   32.6520   48.1010 H   0  0  0  0  0  0  0  0  0  0  0  0
   40.0770   33.5810   46.3660 C   0  0  0  0  0  3  0  0  0  0  0  0
   40.1260   33.5380   44.9780 C   0  0  0  0  0  3  0  0  0  0  0  0
   40.3580   33.5230   42.1870 H   0  0  0  0  0  0  0  0  0  0  0  0
   39.6010   32.4240   42.5770 S   0  0  0  0  0  0  0  0  0  0  0  0
   40.1470   31.1840   42.0040 O   0  0  0  0  0  0  0  0  0  0  0  0
   38.1920   32.6620   42.0550 O   0  0  0  0  0  0  0  0  0  0  0  0
  1 12  1  0  0  0  0
  2  7  1  0  0  0  0
  2  1  2  0  0  0  0
  3  2  1  0  0  0  0
  4  3  2  0  0  0  0
  4  5  1  0  0  0  0
  5  6  2  0  0  0  0
  6  1  1  0  0  0  0
  6 22  1  0  0  0  0
  8  3  1  0  0  0  0
  9  4  1  0  0  0  0
 10  5  1  0  0  0  0
 11 17  1  0  0  0  0
 11 16  1  0  0  0  0
 12 11  2  0  0  0  0
 13 12  1  0  0  0  0
 13 14  2  0  0  0  0
 14 15  1  0  0  0  0
 15 16  2  0  0  0  0
 15 19  1  0  0  0  0
 18 13  1  0  0  0  0
 20 21  2  0  0  0  0
 20 25  1  0  0  0  0
 22 20  1  0  0  0  0
 23 22  1  0  0  0  0
 24 25  2  0  0  0  0
 24 31  1  0  0  0  0
 25 26  1  0  0  0  0
 26 27  1  0  0  0  0
 26 28  2  0  0  0  0
 28 29  1  0  0  0  0
 30 28  1  0  0  0  0
 31 30  2  0  0  0  0
 32 33  1  0  0  0  0
 33 24  1  0  0  0  0
 34 33  2  0  0  0  0
 35 33  2  0  0  0  0
M  END
>  <minimizedAffinity>
-4.02315283

>  <minimizedRMSD>
6.4997139

$$$$
