
 OpenBabel03272500553D

 35 37  0  0  0  0  0  0  0  0999 V2000
   36.2210   23.3440   31.8800 C   0  0  0  0  0  0  0  0  0  0  0  0
   35.1660   23.9050   31.1670 C   0  0  0  0  0  0  0  0  0  0  0  0
   35.0780   25.2580   30.8790 C   0  0  0  0  0  0  0  0  0  0  0  0
   36.1230   26.1080   31.3410 C   0  0  0  0  0  0  0  0  0  0  0  0
   37.1450   25.5300   32.0370 C   0  0  0  0  0  0  0  0  0  0  0  0
   37.2280   24.2030   32.3130 C   0  0  0  0  0  0  0  0  0  0  0  0
   34.3540   23.2590   30.8060 H   0  0  0  0  0  0  0  0  0  0  0  0
   34.1940   25.5870   30.3060 H   0  0  0  0  0  0  0  0  0  0  0  0
   35.9010   27.1180   31.0360 H   0  0  0  0  0  0  0  0  0  0  0  0
   37.7560   26.3660   32.3030 H   0  0  0  0  0  0  0  0  0  0  0  0
   36.5380   21.0750   31.1040 C   0  0  0  0  0  0  0  0  0  0  0  0
   36.1260   21.9280   32.1410 C   0  0  0  0  0  0  0  0  0  0  0  0
   35.6670   21.3170   33.3160 C   0  0  0  0  0  0  0  0  0  0  0  0
   35.6300   19.9810   33.4280 N   0  0  0  0  0  0  0  0  0  0  0  0
   36.0340   19.1760   32.4120 C   0  0  0  0  0  0  0  0  0  0  0  0
   36.4800   19.7320   31.2710 N   0  0  0  0  0  0  0  0  0  0  0  0
   36.9120   21.3910   30.1520 H   0  0  0  0  0  0  0  0  0  0  0  0
   35.3600   22.0220   34.0860 H   0  0  0  0  0  0  0  0  0  0  0  0
   35.9400   18.1470   32.6650 H   0  0  0  0  0  0  0  0  0  0  0  0
   38.4730   24.2070   34.3100 C   0  0  0  0  0  0  0  0  0  0  0  0
   37.7540   25.2230   34.6140 O   0  0  0  0  0  0  0  0  0  0  0  0
   38.2950   23.6290   33.0070 N   0  0  0  0  0  0  0  0  0  0  0  0
   38.8720   22.8890   32.6320 H   0  0  0  0  0  0  0  0  0  0  0  0
   39.1980   23.1120   36.4880 C   0  0  0  0  0  0  0  0  0  0  0  0
   39.4600   23.6180   35.2350 C   0  0  0  0  0  0  0  0  0  0  0  0
   40.7590   23.5810   34.7710 C   0  0  0  0  0  0  0  0  0  0  0  0
   41.0990   23.9480   33.8000 H   0  0  0  0  0  0  0  0  0  0  0  0
   41.7660   23.0410   35.5640 C   0  0  0  0  0  0  0  0  0  0  0  0
   42.7890   22.9820   35.2660 H   0  0  0  0  0  0  0  0  0  0  0  0
   41.4960   22.5360   36.8190 C   0  0  0  0  0  3  0  0  0  0  0  0
   40.1870   22.5740   37.2840 C   0  0  0  0  0  3  0  0  0  0  0  0
   37.0540   24.3890   36.6480 H   0  0  0  0  0  0  0  0  0  0  0  0
   37.5630   23.1640   37.0650 S   0  0  0  0  0  0  0  0  0  0  0  0
   36.6960   22.0600   36.6190 O   0  0  0  0  0  0  0  0  0  0  0  0
   37.6080   23.2080   38.5840 O   0  0  0  0  0  0  0  0  0  0  0  0
  1 12  1  0  0  0  0
  1  6  1  0  0  0  0
  2  1  2  0  0  0  0
  3  2  1  0  0  0  0
  3  4  2  0  0  0  0
  4  5  1  0  0  0  0
  5 10  1  0  0  0  0
  5  6  2  0  0  0  0
  6 22  1  0  0  0  0
  7  2  1  0  0  0  0
  8  3  1  0  0  0  0
  9  4  1  0  0  0  0
 11 16  2  0  0  0  0
 11 12  1  0  0  0  0
 12 13  2  0  0  0  0
 13 14  1  0  0  0  0
 13 18  1  0  0  0  0
 15 19  1  0  0  0  0
 15 14  2  0  0  0  0
 16 15  1  0  0  0  0
 17 11  1  0  0  0  0
 20 21  2  0  0  0  0
 20 25  1  0  0  0  0
 22 20  1  0  0  0  0
 23 22  1  0  0  0  0
 24 33  1  0  0  0  0
 24 31  1  0  0  0  0
 25 24  2  0  0  0  0
 26 25  1  0  0  0  0
 26 28  2  0  0  0  0
 27 26  1  0  0  0  0
 28 30  1  0  0  0  0
 29 28  1  0  0  0  0
 30 31  2  0  0  0  0
 32 33  1  0  0  0  0
 33 35  2  0  0  0  0
 34 33  2  0  0  0  0
M  END
>  <minimizedAffinity>
-5.76614094

$$$$

 OpenBabel03272500553D

 35 37  0  0  0  0  0  0  0  0999 V2000
   37.6770   26.3390   32.6840 C   0  0  0  0  0  0  0  0  0  0  0  0
   37.0890   27.5360   32.2880 C   0  0  0  0  0  0  0  0  0  0  0  0
   36.4920   28.4190   33.1740 C   0  0  0  0  0  0  0  0  0  0  0  0
   36.4860   28.0750   34.5560 C   0  0  0  0  0  0  0  0  0  0  0  0
   37.0700   26.8960   34.9150 C   0  0  0  0  0  0  0  0  0  0  0  0
   37.6560   26.0360   34.0430 C   0  0  0  0  0  0  0  0  0  0  0  0
   37.0880   27.8120   31.2250 H   0  0  0  0  0  0  0  0  0  0  0  0
   36.0580   29.3370   32.7430 H   0  0  0  0  0  0  0  0  0  0  0  0
   35.9870   28.8610   35.1000 H   0  0  0  0  0  0  0  0  0  0  0  0
   36.8930   26.8520   35.9690 H   0  0  0  0  0  0  0  0  0  0  0  0
   39.5110   25.7910   31.2060 C   0  0  0  0  0  0  0  0  0  0  0  0
   38.2000   25.5110   31.6250 C   0  0  0  0  0  0  0  0  0  0  0  0
   37.5410   24.4590   30.9730 C   0  0  0  0  0  0  0  0  0  0  0  0
   38.1460   23.7660   29.9990 N   0  0  0  0  0  0  0  0  0  0  0  0
   39.4160   24.0550   29.6090 C   0  0  0  0  0  0  0  0  0  0  0  0
   40.0750   25.0580   30.2150 N   0  0  0  0  0  0  0  0  0  0  0  0
   40.1400   26.5600   31.6060 H   0  0  0  0  0  0  0  0  0  0  0  0
   36.5300   24.2840   31.3360 H   0  0  0  0  0  0  0  0  0  0  0  0
   39.7430   23.4120   28.8280 H   0  0  0  0  0  0  0  0  0  0  0  0
   39.5600   25.0640   35.0270 C   0  0  0  0  0  0  0  0  0  0  0  0
   40.0320   26.2550   35.0020 O   0  0  0  0  0  0  0  0  0  0  0  0
   38.2700   24.8440   34.4350 N   0  0  0  0  0  0  0  0  0  0  0  0
   37.8480   23.9330   34.3170 H   0  0  0  0  0  0  0  0  0  0  0  0
   39.8820   23.2030   36.7310 C   0  0  0  0  0  0  0  0  0  0  0  0
   40.2820   23.9280   35.6300 C   0  0  0  0  0  0  0  0  0  0  0  0
   41.4640   23.5790   35.0110 C   0  0  0  0  0  0  0  0  0  0  0  0
   41.8930   24.0700   34.1340 H   0  0  0  0  0  0  0  0  0  0  0  0
   42.2200   22.5180   35.4990 C   0  0  0  0  0  0  0  0  0  0  0  0
   43.1420   22.1970   35.0670 H   0  0  0  0  0  0  0  0  0  0  0  0
   41.8120   21.7960   36.6020 C   0  0  0  0  0  3  0  0  0  0  0  0
   40.6210   22.1500   37.2240 C   0  0  0  0  0  3  0  0  0  0  0  0
   38.3800   25.0400   37.5210 H   0  0  0  0  0  0  0  0  0  0  0  0
   38.3960   23.6490   37.5060 S   0  0  0  0  0  0  0  0  0  0  0  0
   37.1700   23.1210   36.8830 O   0  0  0  0  0  0  0  0  0  0  0  0
   38.4750   23.2000   38.9560 O   0  0  0  0  0  0  0  0  0  0  0  0
  1  6  1  0  0  0  0
  2  1  2  0  0  0  0
  2  3  1  0  0  0  0
  3  4  2  0  0  0  0
  4  5  1  0  0  0  0
  4  9  1  0  0  0  0
  5 10  1  0  0  0  0
  6 22  1  0  0  0  0
  6  5  2  0  0  0  0
  7  2  1  0  0  0  0
  8  3  1  0  0  0  0
 11 17  1  0  0  0  0
 11 12  1  0  0  0  0
 12  1  1  0  0  0  0
 13 18  1  0  0  0  0
 13 12  2  0  0  0  0
 14 13  1  0  0  0  0
 15 14  2  0  0  0  0
 15 16  1  0  0  0  0
 16 11  2  0  0  0  0
 19 15  1  0  0  0  0
 20 25  1  0  0  0  0
 21 20  2  0  0  0  0
 22 20  1  0  0  0  0
 23 22  1  0  0  0  0
 24 31  1  0  0  0  0
 24 33  1  0  0  0  0
 25 24  2  0  0  0  0
 26 28  2  0  0  0  0
 26 25  1  0  0  0  0
 27 26  1  0  0  0  0
 28 30  1  0  0  0  0
 29 28  1  0  0  0  0
 30 31  2  0  0  0  0
 33 32  1  0  0  0  0
 33 35  2  0  0  0  0
 34 33  2  0  0  0  0
M  END
>  <minimizedAffinity>
-5.39057541

$$$$

 OpenBabel03272500553D

 35 37  0  0  0  0  0  0  0  0999 V2000
   37.1770   27.2840   32.4480 C   0  0  0  0  0  0  0  0  0  0  0  0
   36.8750   28.4700   31.7870 C   0  0  0  0  0  0  0  0  0  0  0  0
   36.2330   29.5380   32.3940 C   0  0  0  0  0  0  0  0  0  0  0  0
   35.8680   29.4050   33.7640 C   0  0  0  0  0  0  0  0  0  0  0  0
   36.1770   28.2310   34.3870 C   0  0  0  0  0  0  0  0  0  0  0  0
   36.8090   27.1890   33.7880 C   0  0  0  0  0  0  0  0  0  0  0  0
   37.1530   28.5840   30.7290 H   0  0  0  0  0  0  0  0  0  0  0  0
   36.0470   30.4270   31.7670 H   0  0  0  0  0  0  0  0  0  0  0  0
   35.3820   30.3150   34.0770 H   0  0  0  0  0  0  0  0  0  0  0  0
   35.7650   28.3640   35.3660 H   0  0  0  0  0  0  0  0  0  0  0  0
   39.1820   26.3610   31.4610 C   0  0  0  0  0  0  0  0  0  0  0  0
   37.7950   26.2540   31.6500 C   0  0  0  0  0  0  0  0  0  0  0  0
   37.1580   25.1600   31.0460 C   0  0  0  0  0  0  0  0  0  0  0  0
   37.8550   24.2700   30.3260 N   0  0  0  0  0  0  0  0  0  0  0  0
   39.1980   24.3940   30.1560 C   0  0  0  0  0  0  0  0  0  0  0  0
   39.8370   25.4320   30.7230 N   0  0  0  0  0  0  0  0  0  0  0  0
   39.8050   27.1360   31.8580 H   0  0  0  0  0  0  0  0  0  0  0  0
   36.0860   25.1240   31.2240 H   0  0  0  0  0  0  0  0  0  0  0  0
   39.5930   23.6060   29.5600 H   0  0  0  0  0  0  0  0  0  0  0  0
   38.1640   26.1980   35.4370 C   0  0  0  0  0  0  0  0  0  0  0  0
   38.7270   27.3470   35.4930 O   0  0  0  0  0  0  0  0  0  0  0  0
   37.1360   26.0050   34.4520 N   0  0  0  0  0  0  0  0  0  0  0  0
   36.6950   25.1160   34.2610 H   0  0  0  0  0  0  0  0  0  0  0  0
   39.3800   24.0450   36.0320 C   0  0  0  0  0  0  0  0  0  0  0  0
   38.5270   25.0840   36.3320 C   0  0  0  0  0  0  0  0  0  0  0  0
   37.9460   25.1130   37.5830 C   0  0  0  0  0  0  0  0  0  0  0  0
   37.2540   25.8770   37.9460 H   0  0  0  0  0  0  0  0  0  0  0  0
   38.2260   24.1110   38.5050 C   0  0  0  0  0  0  0  0  0  0  0  0
   37.8110   24.0750   39.4880 H   0  0  0  0  0  0  0  0  0  0  0  0
   39.0820   23.0730   38.1970 C   0  0  0  0  0  3  0  0  0  0  0  0
   39.6660   23.0450   36.9370 C   0  0  0  0  0  3  0  0  0  0  0  0
   40.3000   25.3430   34.1030 H   0  0  0  0  0  0  0  0  0  0  0  0
   40.1050   24.0120   34.4570 S   0  0  0  0  0  0  0  0  0  0  0  0
   41.3650   23.2560   34.3530 O   0  0  0  0  0  0  0  0  0  0  0  0
   39.0810   23.4500   33.4850 O   0  0  0  0  0  0  0  0  0  0  0  0
  1  6  1  0  0  0  0
  2  3  1  0  0  0  0
  2  1  2  0  0  0  0
  3  4  2  0  0  0  0
  4  9  1  0  0  0  0
  4  5  1  0  0  0  0
  5 10  1  0  0  0  0
  6  5  2  0  0  0  0
  6 22  1  0  0  0  0
  7  2  1  0  0  0  0
  8  3  1  0  0  0  0
 11 12  1  0  0  0  0
 11 17  1  0  0  0  0
 12  1  1  0  0  0  0
 13 18  1  0  0  0  0
 13 12  2  0  0  0  0
 14 13  1  0  0  0  0
 15 14  2  0  0  0  0
 15 16  1  0  0  0  0
 16 11  2  0  0  0  0
 19 15  1  0  0  0  0
 20 21  2  0  0  0  0
 20 25  1  0  0  0  0
 22 20  1  0  0  0  0
 23 22  1  0  0  0  0
 24 25  2  0  0  0  0
 24 31  1  0  0  0  0
 25 26  1  0  0  0  0
 26 27  1  0  0  0  0
 26 28  2  0  0  0  0
 28 29  1  0  0  0  0
 30 28  1  0  0  0  0
 31 30  2  0  0  0  0
 32 33  1  0  0  0  0
 33 24  1  0  0  0  0
 34 33  2  0  0  0  0
 35 33  2  0  0  0  0
M  END
>  <minimizedAffinity>
-5.35878038

$$$$

 OpenBabel03272500553D

 35 37  0  0  0  0  0  0  0  0999 V2000
   38.9960   23.5640   35.9460 C   0  0  0  0  0  0  0  0  0  0  0  0
   39.6510   22.8330   36.9320 C   0  0  0  0  0  0  0  0  0  0  0  0
   39.4360   23.0220   38.2880 C   0  0  0  0  0  0  0  0  0  0  0  0
   38.4970   24.0180   38.6820 C   0  0  0  0  0  0  0  0  0  0  0  0
   37.8700   24.7190   37.6930 C   0  0  0  0  0  0  0  0  0  0  0  0
   38.0820   24.5270   36.3660 C   0  0  0  0  0  0  0  0  0  0  0  0
   40.3780   22.0620   36.6390 H   0  0  0  0  0  0  0  0  0  0  0  0
   40.0140   22.3820   38.9760 H   0  0  0  0  0  0  0  0  0  0  0  0
   38.4520   24.0360   39.7590 H   0  0  0  0  0  0  0  0  0  0  0  0
   37.2690   25.4160   38.2390 H   0  0  0  0  0  0  0  0  0  0  0  0
   40.7270   23.5140   34.2570 C   0  0  0  0  0  0  0  0  0  0  0  0
   39.3820   23.2790   34.5850 C   0  0  0  0  0  0  0  0  0  0  0  0
   38.5580   22.7940   33.5600 C   0  0  0  0  0  0  0  0  0  0  0  0
   39.0460   22.5710   32.3320 N   0  0  0  0  0  0  0  0  0  0  0  0
   40.3520   22.8060   32.0370 C   0  0  0  0  0  0  0  0  0  0  0  0
   41.1680   23.2720   32.9990 N   0  0  0  0  0  0  0  0  0  0  0  0
   41.4750   23.8820   34.9300 H   0  0  0  0  0  0  0  0  0  0  0  0
   37.5270   22.6290   33.8670 H   0  0  0  0  0  0  0  0  0  0  0  0
   40.5730   22.5780   31.0220 H   0  0  0  0  0  0  0  0  0  0  0  0
   37.9420   26.5640   35.1960 C   0  0  0  0  0  0  0  0  0  0  0  0
   38.8340   26.9620   36.0240 O   0  0  0  0  0  0  0  0  0  0  0  0
   37.4110   25.2400   35.3700 N   0  0  0  0  0  0  0  0  0  0  0  0
   36.6420   24.8630   34.8350 H   0  0  0  0  0  0  0  0  0  0  0  0
   37.9660   27.4490   32.8110 C   0  0  0  0  0  0  0  0  0  0  0  0
   37.4480   27.4010   34.0860 C   0  0  0  0  0  0  0  0  0  0  0  0
   36.3600   28.1970   34.3810 C   0  0  0  0  0  0  0  0  0  0  0  0
   35.8560   28.2530   35.3490 H   0  0  0  0  0  0  0  0  0  0  0  0
   35.8150   29.0210   33.4030 C   0  0  0  0  0  0  0  0  0  0  0  0
   34.9750   29.6600   33.5650 H   0  0  0  0  0  0  0  0  0  0  0  0
   36.3390   29.0630   32.1270 C   0  0  0  0  0  3  0  0  0  0  0  0
   37.4350   28.2600   31.8330 C   0  0  0  0  0  3  0  0  0  0  0  0
   39.1880   25.3070   33.2320 H   0  0  0  0  0  0  0  0  0  0  0  0
   39.3340   26.4460   32.4480 S   0  0  0  0  0  0  0  0  0  0  0  0
   39.4990   26.0850   31.0300 O   0  0  0  0  0  0  0  0  0  0  0  0
   40.5790   27.1600   32.9490 O   0  0  0  0  0  0  0  0  0  0  0  0
  1  6  2  0  0  0  0
  1  2  1  0  0  0  0
  2  3  2  0  0  0  0
  3  4  1  0  0  0  0
  3  8  1  0  0  0  0
  4  9  1  0  0  0  0
  5 10  1  0  0  0  0
  5  4  2  0  0  0  0
  6  5  1  0  0  0  0
  7  2  1  0  0  0  0
 11 12  1  0  0  0  0
 11 17  1  0  0  0  0
 12  1  1  0  0  0  0
 13 18  1  0  0  0  0
 13 12  2  0  0  0  0
 14 13  1  0  0  0  0
 15 14  2  0  0  0  0
 15 16  1  0  0  0  0
 16 11  2  0  0  0  0
 19 15  1  0  0  0  0
 20 22  1  0  0  0  0
 20 21  2  0  0  0  0
 22  6  1  0  0  0  0
 23 22  1  0  0  0  0
 24 25  1  0  0  0  0
 25 26  2  0  0  0  0
 25 20  1  0  0  0  0
 26 27  1  0  0  0  0
 28 29  1  0  0  0  0
 28 26  1  0  0  0  0
 30 28  2  0  0  0  0
 31 30  1  0  0  0  0
 31 24  2  0  0  0  0
 33 24  1  0  0  0  0
 33 35  2  0  0  0  0
 33 32  1  0  0  0  0
 34 33  2  0  0  0  0
M  END
>  <minimizedAffinity>
-5.22963333

$$$$

 OpenBabel03272500553D

 35 37  0  0  0  0  0  0  0  0999 V2000
   36.3200   23.5750   31.8260 C   0  0  0  0  0  0  0  0  0  0  0  0
   35.2230   24.1250   31.1700 C   0  0  0  0  0  0  0  0  0  0  0  0
   35.0930   25.4810   30.9130 C   0  0  0  0  0  0  0  0  0  0  0  0
   36.1390   26.3450   31.3460 C   0  0  0  0  0  0  0  0  0  0  0  0
   37.2020   25.7770   31.9860 C   0  0  0  0  0  0  0  0  0  0  0  0
   37.3250   24.4480   32.2320 C   0  0  0  0  0  0  0  0  0  0  0  0
   34.4110   23.4680   30.8310 H   0  0  0  0  0  0  0  0  0  0  0  0
   34.1790   25.8000   30.3850 H   0  0  0  0  0  0  0  0  0  0  0  0
   35.8820   27.3560   31.0710 H   0  0  0  0  0  0  0  0  0  0  0  0
   37.8060   26.6220   32.2420 H   0  0  0  0  0  0  0  0  0  0  0  0
   36.7880   21.3330   31.0490 C   0  0  0  0  0  0  0  0  0  0  0  0
   36.2670   22.1530   32.0630 C   0  0  0  0  0  0  0  0  0  0  0  0
   35.7520   21.5060   33.1960 C   0  0  0  0  0  0  0  0  0  0  0  0
   35.7640   20.1680   33.2890 N   0  0  0  0  0  0  0  0  0  0  0  0
   36.2730   19.3950   32.2950 C   0  0  0  0  0  0  0  0  0  0  0  0
   36.7740   19.9860   31.1950 N   0  0  0  0  0  0  0  0  0  0  0  0
   37.2140   21.6780   30.1290 H   0  0  0  0  0  0  0  0  0  0  0  0
   35.3620   22.1860   33.9490 H   0  0  0  0  0  0  0  0  0  0  0  0
   36.2050   18.3590   32.5290 H   0  0  0  0  0  0  0  0  0  0  0  0
   38.5280   24.2750   34.2480 C   0  0  0  0  0  0  0  0  0  0  0  0
   37.7020   25.1570   34.6750 O   0  0  0  0  0  0  0  0  0  0  0  0
   38.4340   23.8850   32.8690 N   0  0  0  0  0  0  0  0  0  0  0  0
   39.0910   23.2710   32.4080 H   0  0  0  0  0  0  0  0  0  0  0  0
   40.8590   24.0730   35.2450 C   0  0  0  0  0  0  0  0  0  0  0  0
   39.5540   23.6550   35.1070 C   0  0  0  0  0  0  0  0  0  0  0  0
   39.1380   22.5590   35.8340 C   0  0  0  0  0  0  0  0  0  0  0  0
   38.1340   22.1270   35.8160 H   0  0  0  0  0  0  0  0  0  0  0  0
   40.0280   21.9040   36.6780 C   0  0  0  0  0  0  0  0  0  0  0  0
   39.7700   21.0520   37.2670 H   0  0  0  0  0  0  0  0  0  0  0  0
   41.3340   22.3290   36.8110 C   0  0  0  0  0  3  0  0  0  0  0  0
   41.7510   23.4340   36.0780 C   0  0  0  0  0  3  0  0  0  0  0  0
   42.7390   25.5810   34.5740 H   0  0  0  0  0  0  0  0  0  0  0  0
   41.3760   25.4510   34.3270 S   0  0  0  0  0  0  0  0  0  0  0  0
   41.1130   25.3850   32.8790 O   0  0  0  0  0  0  0  0  0  0  0  0
   40.7090   26.6810   34.9200 O   0  0  0  0  0  0  0  0  0  0  0  0
  1 12  1  0  0  0  0
  1  6  1  0  0  0  0
  2  1  2  0  0  0  0
  3  2  1  0  0  0  0
  3  4  2  0  0  0  0
  4  5  1  0  0  0  0
  5  6  2  0  0  0  0
  5 10  1  0  0  0  0
  6 22  1  0  0  0  0
  7  2  1  0  0  0  0
  8  3  1  0  0  0  0
  9  4  1  0  0  0  0
 11 16  2  0  0  0  0
 11 12  1  0  0  0  0
 12 13  2  0  0  0  0
 13 14  1  0  0  0  0
 13 18  1  0  0  0  0
 15 19  1  0  0  0  0
 15 14  2  0  0  0  0
 16 15  1  0  0  0  0
 17 11  1  0  0  0  0
 20 21  2  0  0  0  0
 20 25  1  0  0  0  0
 22 20  1  0  0  0  0
 23 22  1  0  0  0  0
 24 31  1  0  0  0  0
 25 24  2  0  0  0  0
 25 26  1  0  0  0  0
 26 28  2  0  0  0  0
 27 26  1  0  0  0  0
 28 30  1  0  0  0  0
 28 29  1  0  0  0  0
 31 30  2  0  0  0  0
 33 32  1  0  0  0  0
 33 35  2  0  0  0  0
 33 24  1  0  0  0  0
 34 33  2  0  0  0  0
M  END
>  <minimizedAffinity>
-5.22574759

$$$$

 OpenBabel03272500553D

 35 37  0  0  0  0  0  0  0  0999 V2000
   39.9490   23.4830   36.3120 C   0  0  0  0  0  0  0  0  0  0  0  0
   39.9080   23.0090   37.6190 C   0  0  0  0  0  0  0  0  0  0  0  0
   38.8620   23.2720   38.4900 C   0  0  0  0  0  0  0  0  0  0  0  0
   37.7810   24.0670   38.0140 C   0  0  0  0  0  0  0  0  0  0  0  0
   37.8490   24.5170   36.7270 C   0  0  0  0  0  0  0  0  0  0  0  0
   38.8750   24.2540   35.8780 C   0  0  0  0  0  0  0  0  0  0  0  0
   40.7360   22.3940   37.9970 H   0  0  0  0  0  0  0  0  0  0  0  0
   38.9400   22.8420   39.5030 H   0  0  0  0  0  0  0  0  0  0  0  0
   37.0610   24.1750   38.8090 H   0  0  0  0  0  0  0  0  0  0  0  0
   36.9640   25.1130   36.6360 H   0  0  0  0  0  0  0  0  0  0  0  0
   41.1540   21.9160   34.9180 C   0  0  0  0  0  0  0  0  0  0  0  0
   41.1390   23.1640   35.5610 C   0  0  0  0  0  0  0  0  0  0  0  0
   42.2780   23.9670   35.4060 C   0  0  0  0  0  0  0  0  0  0  0  0
   43.3220   23.5480   34.6760 N   0  0  0  0  0  0  0  0  0  0  0  0
   43.3140   22.3350   34.0630 C   0  0  0  0  0  0  0  0  0  0  0  0
   42.2360   21.5420   34.1930 N   0  0  0  0  0  0  0  0  0  0  0  0
   40.3620   21.1960   34.9430 H   0  0  0  0  0  0  0  0  0  0  0  0
   42.2150   24.9220   35.9240 H   0  0  0  0  0  0  0  0  0  0  0  0
   44.2160   22.1600   33.5280 H   0  0  0  0  0  0  0  0  0  0  0  0
   39.2920   26.0880   34.4630 C   0  0  0  0  0  0  0  0  0  0  0  0
   39.4140   26.7480   35.5550 O   0  0  0  0  0  0  0  0  0  0  0  0
   38.9120   24.7060   34.5560 N   0  0  0  0  0  0  0  0  0  0  0  0
   38.6980   24.1220   33.7600 H   0  0  0  0  0  0  0  0  0  0  0  0
   38.5540   27.0930   32.2460 C   0  0  0  0  0  0  0  0  0  0  0  0
   39.5240   26.6870   33.1350 C   0  0  0  0  0  0  0  0  0  0  0  0
   40.8470   26.8470   32.7790 C   0  0  0  0  0  0  0  0  0  0  0  0
   41.7090   26.5670   33.3890 H   0  0  0  0  0  0  0  0  0  0  0  0
   41.1740   27.4060   31.5480 C   0  0  0  0  0  0  0  0  0  0  0  0
   42.1760   27.5580   31.2130 H   0  0  0  0  0  0  0  0  0  0  0  0
   40.1970   27.8110   30.6630 C   0  0  0  0  0  3  0  0  0  0  0  0
   38.8650   27.6490   31.0240 C   0  0  0  0  0  3  0  0  0  0  0  0
   36.8430   27.1190   34.0690 H   0  0  0  0  0  0  0  0  0  0  0  0
   36.8930   26.8860   32.6990 S   0  0  0  0  0  0  0  0  0  0  0  0
   35.9290   27.7450   31.9900 O   0  0  0  0  0  0  0  0  0  0  0  0
   36.5330   25.4240   32.4940 O   0  0  0  0  0  0  0  0  0  0  0  0
  1  2  1  0  0  0  0
  2  7  1  0  0  0  0
  2  3  2  0  0  0  0
  3  8  1  0  0  0  0
  4  3  1  0  0  0  0
  4  9  1  0  0  0  0
  5  4  2  0  0  0  0
  6  1  2  0  0  0  0
  6  5  1  0  0  0  0
 10  5  1  0  0  0  0
 11 17  1  0  0  0  0
 11 12  1  0  0  0  0
 12  1  1  0  0  0  0
 13 12  2  0  0  0  0
 13 18  1  0  0  0  0
 14 13  1  0  0  0  0
 15 16  1  0  0  0  0
 15 14  2  0  0  0  0
 16 11  2  0  0  0  0
 19 15  1  0  0  0  0
 20 22  1  0  0  0  0
 20 21  2  0  0  0  0
 22  6  1  0  0  0  0
 23 22  1  0  0  0  0
 24 33  1  0  0  0  0
 24 25  1  0  0  0  0
 25 20  1  0  0  0  0
 26 25  2  0  0  0  0
 26 27  1  0  0  0  0
 28 26  1  0  0  0  0
 29 28  1  0  0  0  0
 30 31  1  0  0  0  0
 30 28  2  0  0  0  0
 31 24  2  0  0  0  0
 33 32  1  0  0  0  0
 34 33  2  0  0  0  0
 35 33  2  0  0  0  0
M  END
>  <minimizedAffinity>
-5.20994997

$$$$

 OpenBabel03272500553D

 35 37  0  0  0  0  0  0  0  0999 V2000
   37.4620   21.9270   34.5510 C   0  0  0  0  0  0  0  0  0  0  0  0
   36.3820   21.0770   34.7630 C   0  0  0  0  0  0  0  0  0  0  0  0
   35.5250   20.6700   33.7530 C   0  0  0  0  0  0  0  0  0  0  0  0
   35.7690   21.1540   32.4360 C   0  0  0  0  0  0  0  0  0  0  0  0
   36.8350   21.9870   32.2580 C   0  0  0  0  0  0  0  0  0  0  0  0
   37.6740   22.3790   33.2510 C   0  0  0  0  0  0  0  0  0  0  0  0
   36.1840   20.6970   35.7750 H   0  0  0  0  0  0  0  0  0  0  0  0
   34.7030   19.9940   34.0410 H   0  0  0  0  0  0  0  0  0  0  0  0
   35.0170   20.7480   31.7780 H   0  0  0  0  0  0  0  0  0  0  0  0
   36.7710   22.2380   31.2200 H   0  0  0  0  0  0  0  0  0  0  0  0
   37.5240   23.0160   36.7100 C   0  0  0  0  0  0  0  0  0  0  0  0
   38.2170   22.2950   35.7240 C   0  0  0  0  0  0  0  0  0  0  0  0
   39.5660   22.0100   35.9820 C   0  0  0  0  0  0  0  0  0  0  0  0
   40.1490   22.4140   37.1190 N   0  0  0  0  0  0  0  0  0  0  0  0
   39.4580   23.1110   38.0590 C   0  0  0  0  0  0  0  0  0  0  0  0
   38.1630   23.4000   37.8410 N   0  0  0  0  0  0  0  0  0  0  0  0
   36.4950   23.3070   36.6580 H   0  0  0  0  0  0  0  0  0  0  0  0
   40.0550   21.4510   35.1870 H   0  0  0  0  0  0  0  0  0  0  0  0
   40.0690   23.3520   38.8970 H   0  0  0  0  0  0  0  0  0  0  0  0
   38.4250   24.6050   33.1150 C   0  0  0  0  0  0  0  0  0  0  0  0
   37.1830   24.9030   33.2230 O   0  0  0  0  0  0  0  0  0  0  0  0
   38.7740   23.2140   33.0420 N   0  0  0  0  0  0  0  0  0  0  0  0
   39.7080   22.8730   32.8620 H   0  0  0  0  0  0  0  0  0  0  0  0
   39.9240   26.2910   31.9400 C   0  0  0  0  0  0  0  0  0  0  0  0
   39.4910   25.6230   33.0640 C   0  0  0  0  0  0  0  0  0  0  0  0
   40.0920   25.9150   34.2710 C   0  0  0  0  0  0  0  0  0  0  0  0
   39.8440   25.4590   35.2330 H   0  0  0  0  0  0  0  0  0  0  0  0
   41.1060   26.8640   34.3330 C   0  0  0  0  0  0  0  0  0  0  0  0
   41.6100   27.1370   35.2340 H   0  0  0  0  0  0  0  0  0  0  0  0
   41.5340   27.5300   33.2030 C   0  0  0  0  0  3  0  0  0  0  0  0
   40.9280   27.2340   31.9880 C   0  0  0  0  0  3  0  0  0  0  0  0
   37.8680   25.5290   30.7370 H   0  0  0  0  0  0  0  0  0  0  0  0
   39.1660   25.9170   30.4250 S   0  0  0  0  0  0  0  0  0  0  0  0
   39.1610   27.0040   29.4320 O   0  0  0  0  0  0  0  0  0  0  0  0
   39.8590   24.6920   29.8500 O   0  0  0  0  0  0  0  0  0  0  0  0
  1  2  1  0  0  0  0
  1 12  1  0  0  0  0
  2  7  1  0  0  0  0
  3  8  1  0  0  0  0
  3  2  2  0  0  0  0
  4  3  1  0  0  0  0
  5  4  2  0  0  0  0
  5  6  1  0  0  0  0
  6  1  2  0  0  0  0
  9  4  1  0  0  0  0
 10  5  1  0  0  0  0
 11 16  1  0  0  0  0
 12 13  1  0  0  0  0
 12 11  2  0  0  0  0
 13 14  2  0  0  0  0
 14 15  1  0  0  0  0
 15 19  1  0  0  0  0
 16 15  2  0  0  0  0
 17 11  1  0  0  0  0
 18 13  1  0  0  0  0
 20 21  2  0  0  0  0
 22 20  1  0  0  0  0
 22  6  1  0  0  0  0
 23 22  1  0  0  0  0
 24 31  2  0  0  0  0
 24 25  1  0  0  0  0
 25 20  1  0  0  0  0
 25 26  2  0  0  0  0
 26 28  1  0  0  0  0
 26 27  1  0  0  0  0
 28 29  1  0  0  0  0
 30 28  2  0  0  0  0
 31 30  1  0  0  0  0
 33 32  1  0  0  0  0
 33 24  1  0  0  0  0
 34 33  2  0  0  0  0
 35 33  2  0  0  0  0
M  END
>  <minimizedAffinity>
-5.20246124

$$$$

 OpenBabel03272500553D

 35 37  0  0  0  0  0  0  0  0999 V2000
   39.8330   27.1610   32.0400 C   0  0  0  0  0  0  0  0  0  0  0  0
   40.5060   27.6390   30.9200 C   0  0  0  0  0  0  0  0  0  0  0  0
   41.8470   27.9900   30.9310 C   0  0  0  0  0  0  0  0  0  0  0  0
   42.5620   27.8520   32.1550 C   0  0  0  0  0  0  0  0  0  0  0  0
   41.8760   27.3810   33.2360 C   0  0  0  0  0  0  0  0  0  0  0  0
   40.5630   27.0350   33.2190 C   0  0  0  0  0  0  0  0  0  0  0  0
   39.9640   27.7490   29.9710 H   0  0  0  0  0  0  0  0  0  0  0  0
   42.2710   28.3560   29.9810 H   0  0  0  0  0  0  0  0  0  0  0  0
   43.5810   28.1660   31.9910 H   0  0  0  0  0  0  0  0  0  0  0  0
   42.6070   27.4160   34.0170 H   0  0  0  0  0  0  0  0  0  0  0  0
   38.0880   25.6650   31.2870 C   0  0  0  0  0  0  0  0  0  0  0  0
   38.4250   26.8980   31.8680 C   0  0  0  0  0  0  0  0  0  0  0  0
   37.3610   27.7420   32.2180 C   0  0  0  0  0  0  0  0  0  0  0  0
   36.0900   27.3730   32.0020 N   0  0  0  0  0  0  0  0  0  0  0  0
   35.7880   26.1740   31.4380 C   0  0  0  0  0  0  0  0  0  0  0  0
   36.7870   25.3430   31.0910 N   0  0  0  0  0  0  0  0  0  0  0  0
   38.7860   24.9170   30.9690 H   0  0  0  0  0  0  0  0  0  0  0  0
   37.6760   28.6830   32.6630 H   0  0  0  0  0  0  0  0  0  0  0  0
   34.7380   26.0410   31.3380 H   0  0  0  0  0  0  0  0  0  0  0  0
   40.0310   25.1090   34.4620 C   0  0  0  0  0  0  0  0  0  0  0  0
   40.6210   24.4810   33.5140 O   0  0  0  0  0  0  0  0  0  0  0  0
   39.8870   26.5320   34.3330 N   0  0  0  0  0  0  0  0  0  0  0  0
   39.3590   27.1090   34.9730 H   0  0  0  0  0  0  0  0  0  0  0  0
   40.1590   23.4830   36.4140 C   0  0  0  0  0  0  0  0  0  0  0  0
   39.5050   24.4350   35.6640 C   0  0  0  0  0  0  0  0  0  0  0  0
   38.2380   24.8180   36.0530 C   0  0  0  0  0  0  0  0  0  0  0  0
   37.6130   25.5590   35.5480 H   0  0  0  0  0  0  0  0  0  0  0  0
   37.6510   24.2450   37.1760 C   0  0  0  0  0  0  0  0  0  0  0  0
   36.6760   24.4960   37.5300 H   0  0  0  0  0  0  0  0  0  0  0  0
   38.3130   23.2910   37.9220 C   0  0  0  0  0  3  0  0  0  0  0  0
   39.5890   22.9080   37.5290 C   0  0  0  0  0  3  0  0  0  0  0  0
   41.6880   22.8540   34.5370 H   0  0  0  0  0  0  0  0  0  0  0  0
   41.7510   23.0050   35.9180 S   0  0  0  0  0  0  0  0  0  0  0  0
   42.8370   23.9270   36.2920 O   0  0  0  0  0  0  0  0  0  0  0  0
   42.0220   21.6240   36.4930 O   0  0  0  0  0  0  0  0  0  0  0  0
  1  6  1  0  0  0  0
  2  3  1  0  0  0  0
  2  1  2  0  0  0  0
  3  4  2  0  0  0  0
  4  5  1  0  0  0  0
  5 10  1  0  0  0  0
  6  5  2  0  0  0  0
  6 22  1  0  0  0  0
  7  2  1  0  0  0  0
  8  3  1  0  0  0  0
  9  4  1  0  0  0  0
 11 12  1  0  0  0  0
 12  1  1  0  0  0  0
 12 13  2  0  0  0  0
 13 18  1  0  0  0  0
 14 13  1  0  0  0  0
 15 14  2  0  0  0  0
 16 11  2  0  0  0  0
 16 15  1  0  0  0  0
 17 11  1  0  0  0  0
 19 15  1  0  0  0  0
 20 25  1  0  0  0  0
 21 20  2  0  0  0  0
 22 20  1  0  0  0  0
 22 23  1  0  0  0  0
 24 31  1  0  0  0  0
 25 26  1  0  0  0  0
 25 24  2  0  0  0  0
 26 28  2  0  0  0  0
 27 26  1  0  0  0  0
 28 29  1  0  0  0  0
 28 30  1  0  0  0  0
 31 30  2  0  0  0  0
 32 33  1  0  0  0  0
 33 34  2  0  0  0  0
 33 24  1  0  0  0  0
 33 35  2  0  0  0  0
M  END
>  <minimizedAffinity>
-5.19776058

$$$$

 OpenBabel03272500553D

 35 37  0  0  0  0  0  0  0  0999 V2000
   39.6120   27.0610   32.5410 C   0  0  0  0  0  0  0  0  0  0  0  0
   39.4200   27.5610   31.2570 C   0  0  0  0  0  0  0  0  0  0  0  0
   38.1930   28.0080   30.7910 C   0  0  0  0  0  0  0  0  0  0  0  0
   37.0800   27.9470   31.6770 C   0  0  0  0  0  0  0  0  0  0  0  0
   37.2990   27.4520   32.9300 C   0  0  0  0  0  0  0  0  0  0  0  0
   38.5030   27.0190   33.3820 C   0  0  0  0  0  0  0  0  0  0  0  0
   40.2710   27.6140   30.5650 H   0  0  0  0  0  0  0  0  0  0  0  0
   38.1630   28.3840   29.7540 H   0  0  0  0  0  0  0  0  0  0  0  0
   36.2130   28.3270   31.1620 H   0  0  0  0  0  0  0  0  0  0  0  0
   36.3220   27.4670   33.3660 H   0  0  0  0  0  0  0  0  0  0  0  0
   41.3770   25.4610   32.1240 C   0  0  0  0  0  0  0  0  0  0  0  0
   40.9400   26.5860   32.8420 C   0  0  0  0  0  0  0  0  0  0  0  0
   41.8380   27.1270   33.7740 C   0  0  0  0  0  0  0  0  0  0  0  0
   43.0500   26.5840   33.9580 N   0  0  0  0  0  0  0  0  0  0  0  0
   43.4500   25.4940   33.2510 C   0  0  0  0  0  0  0  0  0  0  0  0
   42.6120   24.9520   32.3500 N   0  0  0  0  0  0  0  0  0  0  0  0
   40.8080   24.9390   31.3810 H   0  0  0  0  0  0  0  0  0  0  0  0
   41.4500   27.9950   34.3020 H   0  0  0  0  0  0  0  0  0  0  0  0
   44.4350   25.1930   33.5180 H   0  0  0  0  0  0  0  0  0  0  0  0
   38.3300   25.1580   34.8130 C   0  0  0  0  0  0  0  0  0  0  0  0
   37.7510   24.5990   33.8170 O   0  0  0  0  0  0  0  0  0  0  0  0
   38.7090   26.5370   34.6770 N   0  0  0  0  0  0  0  0  0  0  0  0
   39.0850   27.0980   35.4290 H   0  0  0  0  0  0  0  0  0  0  0  0
   39.6170   23.5230   36.2760 C   0  0  0  0  0  0  0  0  0  0  0  0
   38.6190   24.4500   36.0740 C   0  0  0  0  0  0  0  0  0  0  0  0
   37.7980   24.7690   37.1360 C   0  0  0  0  0  0  0  0  0  0  0  0
   36.9720   25.4840   37.1100 H   0  0  0  0  0  0  0  0  0  0  0  0
   37.9890   24.1600   38.3720 C   0  0  0  0  0  0  0  0  0  0  0  0
   37.3900   24.3620   39.2320 H   0  0  0  0  0  0  0  0  0  0  0  0
   38.9910   23.2320   38.5660 C   0  0  0  0  0  3  0  0  0  0  0  0
   39.8170   22.9120   37.4950 C   0  0  0  0  0  3  0  0  0  0  0  0
   40.5130   24.1750   34.0340 H   0  0  0  0  0  0  0  0  0  0  0  0
   40.6440   23.1240   34.9360 S   0  0  0  0  0  0  0  0  0  0  0  0
   42.0610   22.8950   35.2660 O   0  0  0  0  0  0  0  0  0  0  0  0
   40.0640   21.8950   34.2560 O   0  0  0  0  0  0  0  0  0  0  0  0
  1 12  1  0  0  0  0
  1  6  1  0  0  0  0
  2  1  2  0  0  0  0
  3  2  1  0  0  0  0
  3  4  2  0  0  0  0
  4  5  1  0  0  0  0
  5 10  1  0  0  0  0
  5  6  2  0  0  0  0
  6 22  1  0  0  0  0
  7  2  1  0  0  0  0
  8  3  1  0  0  0  0
  9  4  1  0  0  0  0
 11 16  2  0  0  0  0
 11 12  1  0  0  0  0
 12 13  2  0  0  0  0
 13 14  1  0  0  0  0
 13 18  1  0  0  0  0
 15 19  1  0  0  0  0
 15 14  2  0  0  0  0
 16 15  1  0  0  0  0
 17 11  1  0  0  0  0
 20 25  1  0  0  0  0
 21 20  2  0  0  0  0
 22 20  1  0  0  0  0
 22 23  1  0  0  0  0
 24 31  1  0  0  0  0
 25 24  2  0  0  0  0
 25 26  1  0  0  0  0
 26 28  2  0  0  0  0
 27 26  1  0  0  0  0
 28 30  1  0  0  0  0
 28 29  1  0  0  0  0
 31 30  2  0  0  0  0
 32 33  1  0  0  0  0
 33 34  2  0  0  0  0
 33 24  1  0  0  0  0
 35 33  2  0  0  0  0
M  END
>  <minimizedAffinity>
-5.18267536

$$$$
