
 OpenBabel03272508523D

 32 34  0  0  1  0  0  0  0  0999 V2000
   35.8870   27.7450   31.1690 C   0  0  2  0  0  0  0  0  0  0  0  0
   36.5730   28.7500   30.3710 C   0  0  0  0  0  0  0  0  0  0  0  0
   36.7670   28.6530   31.8920 C   0  0  1  0  0  0  0  0  0  0  0  0
   34.7960   27.8750   31.4260 H   0  0  0  0  0  0  0  0  0  0  0  0
   35.9910   29.6450   30.0730 H   0  0  0  0  0  0  0  0  0  0  0  0
   37.4630   28.5280   29.7580 H   0  0  0  0  0  0  0  0  0  0  0  0
   37.8280   28.5480   32.1500 H   0  0  0  0  0  0  0  0  0  0  0  0
   35.5330   24.0570   31.1210 C   0  0  0  0  0  0  0  0  0  0  0  0
   36.8790   23.6340   31.0030 C   0  0  0  0  0  0  0  0  0  0  0  0
   37.9040   24.6340   30.9400 C   0  0  0  0  0  0  0  0  0  0  0  0
   37.5370   25.9430   30.9970 N   0  0  0  0  0  0  0  0  0  0  0  0
   36.2240   26.2860   31.1110 C   0  0  0  0  0  0  0  0  0  0  0  0
   35.2080   25.3870   31.1750 N   0  0  0  0  0  0  0  0  0  0  0  0
   34.8220   23.2610   31.1620 H   0  0  0  0  0  0  0  0  0  0  0  0
   37.1250   22.5900   30.9600 H   0  0  0  0  0  0  0  0  0  0  0  0
   38.9390   24.3370   30.8470 H   0  0  0  0  0  0  0  0  0  0  0  0
   35.8220   29.4600   34.0270 C   0  0  0  0  0  0  0  0  0  0  0  0
   36.2280   28.4070   34.5780 O   0  0  0  0  0  0  0  0  0  0  0  0
   36.1110   29.7330   32.6420 N   0  0  0  0  0  0  0  0  0  0  0  0
   35.8430   30.6590   32.2660 H   0  0  0  0  0  0  0  0  0  0  0  0
   33.6740   30.4930   34.8700 C   0  0  0  0  0  0  0  0  0  0  0  0
   35.0490   30.3760   34.8660 C   0  0  0  0  0  0  0  0  0  0  0  0
   35.8470   31.1580   35.7030 C   0  0  0  0  0  0  0  0  0  0  0  0
   36.9300   31.1030   35.7370 H   0  0  0  0  0  0  0  0  0  0  0  0
   35.2710   32.0870   36.5730 C   0  0  0  0  0  0  0  0  0  0  0  0
   35.8810   32.7000   37.2250 H   0  0  0  0  0  0  0  0  0  0  0  0
   33.8900   32.2090   36.5800 C   0  0  0  0  0  3  0  0  0  0  0  0
   33.1230   31.4160   35.7360 C   0  0  0  0  0  3  0  0  0  0  0  0
   33.2600   28.1910   33.9090 H   0  0  0  0  0  0  0  0  0  0  0  0
   32.7800   29.4720   33.7890 S   0  0  0  0  0  0  0  0  0  0  0  0
   32.9460   29.9820   32.3680 O   0  0  0  0  0  0  0  0  0  0  0  0
   31.3210   29.4450   34.1130 O   0  0  0  0  0  0  0  0  0  0  0  0
  1  4  1  1  0  0  0
  1  3  1  0  0  0  0
  2  1  1  0  0  0  0
  2  3  1  0  0  0  0
  3  7  1  1  0  0  0
  3 19  1  0  0  0  0
  5  2  1  0  0  0  0
  6  2  1  0  0  0  0
  8 14  1  0  0  0  0
  8 13  1  0  0  0  0
  9  8  2  0  0  0  0
 10 11  2  0  0  0  0
 10  9  1  0  0  0  0
 11 12  1  0  0  0  0
 12  1  1  0  0  0  0
 12 13  2  0  0  0  0
 15  9  1  0  0  0  0
 16 10  1  0  0  0  0
 17 18  2  0  0  0  0
 17 22  1  0  0  0  0
 19 17  1  0  0  0  0
 20 19  1  0  0  0  0
 21 28  1  0  0  0  0
 22 21  2  0  0  0  0
 22 23  1  0  0  0  0
 23 24  1  0  0  0  0
 23 25  2  0  0  0  0
 25 27  1  0  0  0  0
 25 26  1  0  0  0  0
 28 27  2  0  0  0  0
 30 29  1  0  0  0  0
 30 32  2  0  0  0  0
 30 21  1  0  0  0  0
 31 30  2  0  0  0  0
M  END
>  <minimizedAffinity>
-5.0677352

$$$$

 OpenBabel03272508523D

 32 34  0  0  1  0  0  0  0  0999 V2000
   36.1010   28.0760   32.8280 C   0  0  2  0  0  0  0  0  0  0  0  0
   35.7180   28.7820   34.0420 C   0  0  0  0  0  0  0  0  0  0  0  0
   37.0330   27.9930   33.9460 C   0  0  1  0  0  0  0  0  0  0  0  0
   35.6170   27.0900   32.5710 H   0  0  0  0  0  0  0  0  0  0  0  0
   34.9750   28.2920   34.7010 H   0  0  0  0  0  0  0  0  0  0  0  0
   35.8210   29.8740   34.1610 H   0  0  0  0  0  0  0  0  0  0  0  0
   37.8940   28.6250   34.1930 H   0  0  0  0  0  0  0  0  0  0  0  0
   37.2590   28.6800   29.3610 C   0  0  0  0  0  0  0  0  0  0  0  0
   37.2820   30.0940   29.3010 C   0  0  0  0  0  0  0  0  0  0  0  0
   36.8940   30.8320   30.4670 C   0  0  0  0  0  0  0  0  0  0  0  0
   36.5220   30.1390   31.5780 N   0  0  0  0  0  0  0  0  0  0  0  0
   36.5210   28.7780   31.5730 C   0  0  0  0  0  0  0  0  0  0  0  0
   36.8770   28.0230   30.5010 N   0  0  0  0  0  0  0  0  0  0  0  0
   37.5590   28.1940   28.4580 H   0  0  0  0  0  0  0  0  0  0  0  0
   37.5820   30.6010   28.4030 H   0  0  0  0  0  0  0  0  0  0  0  0
   36.9020   31.9120   30.4460 H   0  0  0  0  0  0  0  0  0  0  0  0
   38.1210   26.5380   35.6200 C   0  0  0  0  0  0  0  0  0  0  0  0
   38.9560   27.4510   35.8370 O   0  0  0  0  0  0  0  0  0  0  0  0
   37.0240   26.7350   34.7060 N   0  0  0  0  0  0  0  0  0  0  0  0
   36.3090   25.9900   34.6420 H   0  0  0  0  0  0  0  0  0  0  0  0
   38.8740   24.1320   35.8080 C   0  0  0  0  0  0  0  0  0  0  0  0
   38.3290   25.2820   36.3410 C   0  0  0  0  0  0  0  0  0  0  0  0
   37.9160   25.3410   37.6730 C   0  0  0  0  0  0  0  0  0  0  0  0
   37.4820   26.2200   38.1380 H   0  0  0  0  0  0  0  0  0  0  0  0
   38.0430   24.2280   38.5090 C   0  0  0  0  0  0  0  0  0  0  0  0
   37.7250   24.2620   39.5430 H   0  0  0  0  0  0  0  0  0  0  0  0
   38.5900   23.0700   37.9780 C   0  0  0  0  0  3  0  0  0  0  0  0
   38.9930   23.0430   36.6490 C   0  0  0  0  0  3  0  0  0  0  0  0
   40.0340   25.3410   33.9150 H   0  0  0  0  0  0  0  0  0  0  0  0
   39.3540   24.1710   34.1410 S   0  0  0  0  0  0  0  0  0  0  0  0
   38.1170   24.0840   33.2640 O   0  0  0  0  0  0  0  0  0  0  0  0
   40.2640   23.0380   33.7880 O   0  0  0  0  0  0  0  0  0  0  0  0
  1  4  1  6  0  0  0
  1  3  1  0  0  0  0
  1  2  1  0  0  0  0
  2  6  1  0  0  0  0
  2  5  1  0  0  0  0
  3  2  1  0  0  0  0
  3  7  1  6  0  0  0
  3 19  1  0  0  0  0
  8 13  1  0  0  0  0
  9  8  2  0  0  0  0
  9 10  1  0  0  0  0
 10 11  2  0  0  0  0
 12 11  1  0  0  0  0
 12  1  1  0  0  0  0
 13 12  2  0  0  0  0
 14  8  1  0  0  0  0
 15  9  1  0  0  0  0
 16 10  1  0  0  0  0
 17 18  2  0  0  0  0
 17 22  1  0  0  0  0
 19 17  1  0  0  0  0
 20 19  1  0  0  0  0
 21 22  2  0  0  0  0
 21 28  1  0  0  0  0
 22 23  1  0  0  0  0
 23 24  1  0  0  0  0
 23 25  2  0  0  0  0
 25 26  1  0  0  0  0
 27 25  1  0  0  0  0
 28 27  2  0  0  0  0
 29 30  1  0  0  0  0
 30 21  1  0  0  0  0
 31 30  2  0  0  0  0
 32 30  2  0  0  0  0
M  END
>  <minimizedAffinity>
-4.93405247

$$$$

 OpenBabel03272508523D

 32 34  0  0  1  0  0  0  0  0999 V2000
   38.6120   26.8990   32.2340 C   0  0  2  0  0  0  0  0  0  0  0  0
   38.8740   25.7330   31.4020 C   0  0  0  0  0  0  0  0  0  0  0  0
   38.2570   25.6060   32.8050 C   0  0  1  0  0  0  0  0  0  0  0  0
   39.4610   27.4110   32.7730 H   0  0  0  0  0  0  0  0  0  0  0  0
   39.9170   25.3630   31.3620 H   0  0  0  0  0  0  0  0  0  0  0  0
   38.2240   25.4350   30.5640 H   0  0  0  0  0  0  0  0  0  0  0  0
   37.3070   25.0600   32.7710 H   0  0  0  0  0  0  0  0  0  0  0  0
   35.5120   28.9080   32.5130 C   0  0  0  0  0  0  0  0  0  0  0  0
   35.5760   29.7110   31.3490 C   0  0  0  0  0  0  0  0  0  0  0  0
   36.6990   29.5510   30.4710 C   0  0  0  0  0  0  0  0  0  0  0  0
   37.6500   28.6330   30.7980 N   0  0  0  0  0  0  0  0  0  0  0  0
   37.5310   27.8910   31.9330 C   0  0  0  0  0  0  0  0  0  0  0  0
   36.4930   27.9970   32.8030 N   0  0  0  0  0  0  0  0  0  0  0  0
   34.6510   29.0800   33.1210 H   0  0  0  0  0  0  0  0  0  0  0  0
   34.8040   30.4240   31.1290 H   0  0  0  0  0  0  0  0  0  0  0  0
   36.7720   30.1520   29.5770 H   0  0  0  0  0  0  0  0  0  0  0  0
   38.8500   23.7670   34.3440 C   0  0  0  0  0  0  0  0  0  0  0  0
   37.8970   23.0980   33.8740 O   0  0  0  0  0  0  0  0  0  0  0  0
   39.1820   25.0640   33.8100 N   0  0  0  0  0  0  0  0  0  0  0  0
   40.0370   25.5270   34.1620 H   0  0  0  0  0  0  0  0  0  0  0  0
   39.3180   23.3340   36.7900 C   0  0  0  0  0  0  0  0  0  0  0  0
   39.5900   23.1570   35.4490 C   0  0  0  0  0  0  0  0  0  0  0  0
   40.6410   22.3440   35.0210 C   0  0  0  0  0  0  0  0  0  0  0  0
   40.8950   22.1730   33.9810 H   0  0  0  0  0  0  0  0  0  0  0  0
   41.4520   21.6820   35.9470 C   0  0  0  0  0  0  0  0  0  0  0  0
   42.2700   21.0490   35.6270 H   0  0  0  0  0  0  0  0  0  0  0  0
   41.1830   21.8560   37.2960 C   0  0  0  0  0  3  0  0  0  0  0  0
   40.1300   22.6710   37.6900 C   0  0  0  0  0  3  0  0  0  0  0  0
   36.8510   23.8610   36.6310 H   0  0  0  0  0  0  0  0  0  0  0  0
   37.9880   24.3670   37.2090 S   0  0  0  0  0  0  0  0  0  0  0  0
   38.2720   25.7730   36.7080 O   0  0  0  0  0  0  0  0  0  0  0  0
   37.7630   24.4280   38.6850 O   0  0  0  0  0  0  0  0  0  0  0  0
  1  4  1  1  0  0  0
  1  3  1  0  0  0  0
  2  1  1  0  0  0  0
  2  3  1  0  0  0  0
  3  7  1  1  0  0  0
  3 19  1  0  0  0  0
  5  2  1  0  0  0  0
  6  2  1  0  0  0  0
  8 13  1  0  0  0  0
  8 14  1  0  0  0  0
  9  8  2  0  0  0  0
 10 11  2  0  0  0  0
 10  9  1  0  0  0  0
 11 12  1  0  0  0  0
 12  1  1  0  0  0  0
 12 13  2  0  0  0  0
 15  9  1  0  0  0  0
 16 10  1  0  0  0  0
 17 22  1  0  0  0  0
 18 17  2  0  0  0  0
 19 20  1  0  0  0  0
 19 17  1  0  0  0  0
 21 30  1  0  0  0  0
 21 28  1  0  0  0  0
 22 21  2  0  0  0  0
 23 22  1  0  0  0  0
 23 25  2  0  0  0  0
 24 23  1  0  0  0  0
 25 27  1  0  0  0  0
 26 25  1  0  0  0  0
 27 28  2  0  0  0  0
 29 30  1  0  0  0  0
 30 32  2  0  0  0  0
 31 30  2  0  0  0  0
M  END
>  <minimizedAffinity>
-4.8274498

$$$$

 OpenBabel03272508523D

 32 34  0  0  1  0  0  0  0  0999 V2000
   38.2750   25.7350   33.3590 C   0  0  2  0  0  0  0  0  0  0  0  0
   39.3380   26.6980   33.1090 C   0  0  0  0  0  0  0  0  0  0  0  0
   39.5570   25.1860   32.9370 C   0  0  1  0  0  0  0  0  0  0  0  0
   37.9960   25.4650   34.4180 H   0  0  0  0  0  0  0  0  0  0  0  0
   39.8690   27.1080   33.9900 H   0  0  0  0  0  0  0  0  0  0  0  0
   39.4000   27.2990   32.1860 H   0  0  0  0  0  0  0  0  0  0  0  0
   39.9250   24.9510   31.9320 H   0  0  0  0  0  0  0  0  0  0  0  0
   35.3840   26.5540   31.1920 C   0  0  0  0  0  0  0  0  0  0  0  0
   34.9080   25.2680   30.8380 C   0  0  0  0  0  0  0  0  0  0  0  0
   35.5960   24.1220   31.3550 C   0  0  0  0  0  0  0  0  0  0  0  0
   36.6740   24.3220   32.1620 N   0  0  0  0  0  0  0  0  0  0  0  0
   37.0820   25.5840   32.4660 C   0  0  0  0  0  0  0  0  0  0  0  0
   36.4730   26.7090   32.0080 N   0  0  0  0  0  0  0  0  0  0  0  0
   34.8260   27.3620   30.7730 H   0  0  0  0  0  0  0  0  0  0  0  0
   34.0540   25.1550   30.1980 H   0  0  0  0  0  0  0  0  0  0  0  0
   35.2540   23.1300   31.0980 H   0  0  0  0  0  0  0  0  0  0  0  0
   40.1630   23.1870   34.2560 C   0  0  0  0  0  0  0  0  0  0  0  0
   39.3970   22.5050   33.5310 O   0  0  0  0  0  0  0  0  0  0  0  0
   40.3850   24.5870   33.9930 N   0  0  0  0  0  0  0  0  0  0  0  0
   41.1030   25.0760   34.5550 H   0  0  0  0  0  0  0  0  0  0  0  0
   40.3420   22.4420   36.6660 C   0  0  0  0  0  0  0  0  0  0  0  0
   40.8050   22.4820   35.3660 C   0  0  0  0  0  0  0  0  0  0  0  0
   41.9760   21.8210   34.9910 C   0  0  0  0  0  0  0  0  0  0  0  0
   42.3800   21.8230   33.9850 H   0  0  0  0  0  0  0  0  0  0  0  0
   42.7160   21.0970   35.9290 C   0  0  0  0  0  0  0  0  0  0  0  0
   43.6260   20.5810   35.6490 H   0  0  0  0  0  0  0  0  0  0  0  0
   42.2550   21.0530   37.2350 C   0  0  0  0  0  3  0  0  0  0  0  0
   41.0860   21.7210   37.5780 C   0  0  0  0  0  3  0  0  0  0  0  0
   38.9280   24.5200   36.3930 H   0  0  0  0  0  0  0  0  0  0  0  0
   38.8750   23.3000   37.0200 S   0  0  0  0  0  0  0  0  0  0  0  0
   38.7470   23.4680   38.5240 O   0  0  0  0  0  0  0  0  0  0  0  0
   37.6650   22.5810   36.5200 O   0  0  0  0  0  0  0  0  0  0  0  0
  1  4  1  1  0  0  0
  2  1  1  0  0  0  0
  2  5  1  0  0  0  0
  3  7  1  6  0  0  0
  3  2  1  0  0  0  0
  3  1  1  0  0  0  0
  3 19  1  0  0  0  0
  6  2  1  0  0  0  0
  8 13  1  0  0  0  0
  9  8  2  0  0  0  0
  9 10  1  0  0  0  0
 10 11  2  0  0  0  0
 11 12  1  0  0  0  0
 12  1  1  0  0  0  0
 13 12  2  0  0  0  0
 14  8  1  0  0  0  0
 15  9  1  0  0  0  0
 16 10  1  0  0  0  0
 17 22  1  0  0  0  0
 18 17  2  0  0  0  0
 19 17  1  0  0  0  0
 19 20  1  0  0  0  0
 21 30  1  0  0  0  0
 21 28  1  0  0  0  0
 22 21  2  0  0  0  0
 23 22  1  0  0  0  0
 23 25  2  0  0  0  0
 24 23  1  0  0  0  0
 25 27  1  0  0  0  0
 26 25  1  0  0  0  0
 27 28  2  0  0  0  0
 29 30  1  0  0  0  0
 30 31  2  0  0  0  0
 32 30  2  0  0  0  0
M  END
>  <minimizedAffinity>
-4.7963438

$$$$

 OpenBabel03272508523D

 32 34  0  0  1  0  0  0  0  0999 V2000
   37.6030   27.0010   34.1160 C   0  0  2  0  0  0  0  0  0  0  0  0
   37.5900   27.8590   35.2920 C   0  0  0  0  0  0  0  0  0  0  0  0
   38.8890   27.2300   34.7630 C   0  0  1  0  0  0  0  0  0  0  0  0
   37.2450   25.9330   34.1920 H   0  0  0  0  0  0  0  0  0  0  0  0
   37.2570   27.4060   36.2470 H   0  0  0  0  0  0  0  0  0  0  0  0
   37.5300   28.9580   35.2330 H   0  0  0  0  0  0  0  0  0  0  0  0
   39.6480   27.9960   34.5660 H   0  0  0  0  0  0  0  0  0  0  0  0
   38.0100   27.5960   30.4820 C   0  0  0  0  0  0  0  0  0  0  0  0
   36.9330   28.4720   30.2060 C   0  0  0  0  0  0  0  0  0  0  0  0
   36.0690   28.8520   31.2850 C   0  0  0  0  0  0  0  0  0  0  0  0
   36.3250   28.3540   32.5250 N   0  0  0  0  0  0  0  0  0  0  0  0
   37.3770   27.5140   32.7270 C   0  0  0  0  0  0  0  0  0  0  0  0
   38.2300   27.1170   31.7470 N   0  0  0  0  0  0  0  0  0  0  0  0
   38.6120   27.3540   29.6340 H   0  0  0  0  0  0  0  0  0  0  0  0
   36.7670   28.8430   29.2120 H   0  0  0  0  0  0  0  0  0  0  0  0
   35.2400   29.5190   31.1000 H   0  0  0  0  0  0  0  0  0  0  0  0
   40.2020   25.1450   34.9290 C   0  0  0  0  0  0  0  0  0  0  0  0
   40.5440   25.2910   33.7290 O   0  0  0  0  0  0  0  0  0  0  0  0
   39.3990   26.1360   35.6000 N   0  0  0  0  0  0  0  0  0  0  0  0
   39.2330   26.0170   36.6140 H   0  0  0  0  0  0  0  0  0  0  0  0
   39.8550   22.9040   36.0470 C   0  0  0  0  0  0  0  0  0  0  0  0
   40.6650   23.9250   35.5920 C   0  0  0  0  0  0  0  0  0  0  0  0
   42.0520   23.8700   35.7340 C   0  0  0  0  0  0  0  0  0  0  0  0
   42.7300   24.6460   35.3930 H   0  0  0  0  0  0  0  0  0  0  0  0
   42.6640   22.7730   36.3450 C   0  0  0  0  0  0  0  0  0  0  0  0
   43.7390   22.7210   36.4610 H   0  0  0  0  0  0  0  0  0  0  0  0
   41.8550   21.7450   36.8040 C   0  0  0  0  0  3  0  0  0  0  0  0
   40.4770   21.8270   36.6470 C   0  0  0  0  0  3  0  0  0  0  0  0
   37.9300   23.6910   34.6100 H   0  0  0  0  0  0  0  0  0  0  0  0
   38.1430   23.0760   35.8180 S   0  0  0  0  0  0  0  0  0  0  0  0
   37.5690   23.9020   36.9560 O   0  0  0  0  0  0  0  0  0  0  0  0
   37.4420   21.7570   35.7900 O   0  0  0  0  0  0  0  0  0  0  0  0
  1  4  1  1  0  0  0
  1  3  1  0  0  0  0
  1  2  1  0  0  0  0
  2  5  1  0  0  0  0
  3  7  1  6  0  0  0
  3  2  1  0  0  0  0
  3 19  1  0  0  0  0
  6  2  1  0  0  0  0
  8 13  1  0  0  0  0
  9  8  2  0  0  0  0
  9 10  1  0  0  0  0
 10 11  2  0  0  0  0
 11 12  1  0  0  0  0
 12  1  1  0  0  0  0
 13 12  2  0  0  0  0
 14  8  1  0  0  0  0
 15  9  1  0  0  0  0
 16 10  1  0  0  0  0
 17 22  1  0  0  0  0
 17 19  1  0  0  0  0
 18 17  2  0  0  0  0
 19 20  1  0  0  0  0
 21 28  1  0  0  0  0
 22 23  1  0  0  0  0
 22 21  2  0  0  0  0
 23 25  2  0  0  0  0
 24 23  1  0  0  0  0
 25 26  1  0  0  0  0
 25 27  1  0  0  0  0
 28 27  2  0  0  0  0
 29 30  1  0  0  0  0
 30 21  1  0  0  0  0
 30 31  2  0  0  0  0
 32 30  2  0  0  0  0
M  END
>  <minimizedAffinity>
-4.77297878

$$$$

 OpenBabel03272508523D

 32 34  0  0  1  0  0  0  0  0999 V2000
   37.6100   25.9540   31.5480 C   0  0  2  0  0  0  0  0  0  0  0  0
   36.7690   24.8120   31.2210 C   0  0  0  0  0  0  0  0  0  0  0  0
   37.0030   25.2560   32.6740 C   0  0  1  0  0  0  0  0  0  0  0  0
   38.7340   25.8570   31.5110 H   0  0  0  0  0  0  0  0  0  0  0  0
   37.2790   23.8580   30.9810 H   0  0  0  0  0  0  0  0  0  0  0  0
   35.7360   24.9120   30.8490 H   0  0  0  0  0  0  0  0  0  0  0  0
   36.0530   25.4440   33.1880 H   0  0  0  0  0  0  0  0  0  0  0  0
   37.0860   29.1640   29.7730 C   0  0  0  0  0  0  0  0  0  0  0  0
   36.4760   29.9570   30.7740 C   0  0  0  0  0  0  0  0  0  0  0  0
   36.2480   29.3710   32.0630 C   0  0  0  0  0  0  0  0  0  0  0  0
   36.6300   28.0810   32.2640 N   0  0  0  0  0  0  0  0  0  0  0  0
   37.2130   27.3690   31.2600 C   0  0  0  0  0  0  0  0  0  0  0  0
   37.4550   27.8670   30.0200 N   0  0  0  0  0  0  0  0  0  0  0  0
   37.2250   29.6620   28.8380 H   0  0  0  0  0  0  0  0  0  0  0  0
   36.1890   30.9720   30.5730 H   0  0  0  0  0  0  0  0  0  0  0  0
   35.7830   29.9550   32.8430 H   0  0  0  0  0  0  0  0  0  0  0  0
   38.5320   24.9280   34.5860 C   0  0  0  0  0  0  0  0  0  0  0  0
   38.2500   26.0870   34.9800 O   0  0  0  0  0  0  0  0  0  0  0  0
   37.8840   24.3570   33.4320 N   0  0  0  0  0  0  0  0  0  0  0  0
   38.0760   23.3650   33.2120 H   0  0  0  0  0  0  0  0  0  0  0  0
   39.2970   23.4330   36.4760 C   0  0  0  0  0  0  0  0  0  0  0  0
   39.5430   24.2070   35.3590 C   0  0  0  0  0  0  0  0  0  0  0  0
   40.8350   24.3660   34.8560 C   0  0  0  0  0  0  0  0  0  0  0  0
   41.0790   24.9620   33.9830 H   0  0  0  0  0  0  0  0  0  0  0  0
   41.9220   23.7430   35.4740 C   0  0  0  0  0  0  0  0  0  0  0  0
   42.9290   23.8600   35.0930 H   0  0  0  0  0  0  0  0  0  0  0  0
   41.6810   22.9650   36.5960 C   0  0  0  0  0  3  0  0  0  0  0  0
   40.3830   22.8250   37.0730 C   0  0  0  0  0  3  0  0  0  0  0  0
   36.9820   24.4390   36.6290 H   0  0  0  0  0  0  0  0  0  0  0  0
   37.6520   23.3050   37.0150 S   0  0  0  0  0  0  0  0  0  0  0  0
   37.6330   23.1510   38.5250 O   0  0  0  0  0  0  0  0  0  0  0  0
   36.9500   22.1320   36.4110 O   0  0  0  0  0  0  0  0  0  0  0  0
  1  4  1  6  0  0  0
  1  3  1  0  0  0  0
  2  1  1  0  0  0  0
  2  3  1  0  0  0  0
  3  7  1  1  0  0  0
  3 19  1  0  0  0  0
  5  2  1  0  0  0  0
  6  2  1  0  0  0  0
  8 13  2  0  0  0  0
  8  9  1  0  0  0  0
  9 10  2  0  0  0  0
 10 11  1  0  0  0  0
 10 16  1  0  0  0  0
 12  1  1  0  0  0  0
 12 11  2  0  0  0  0
 13 12  1  0  0  0  0
 14  8  1  0  0  0  0
 15  9  1  0  0  0  0
 17 18  2  0  0  0  0
 17 22  1  0  0  0  0
 19 17  1  0  0  0  0
 20 19  1  0  0  0  0
 21 30  1  0  0  0  0
 21 28  1  0  0  0  0
 22 21  2  0  0  0  0
 23 22  1  0  0  0  0
 23 25  2  0  0  0  0
 24 23  1  0  0  0  0
 25 27  1  0  0  0  0
 26 25  1  0  0  0  0
 27 28  2  0  0  0  0
 29 30  1  0  0  0  0
 30 31  2  0  0  0  0
 32 30  2  0  0  0  0
M  END
>  <minimizedAffinity>
-4.69027519

$$$$

 OpenBabel03272508523D

 32 34  0  0  1  0  0  0  0  0999 V2000
   37.2650   27.0040   31.7280 C   0  0  2  0  0  0  0  0  0  0  0  0
   36.3640   27.6980   32.6370 C   0  0  0  0  0  0  0  0  0  0  0  0
   37.7590   27.2280   33.0800 C   0  0  1  0  0  0  0  0  0  0  0  0
   37.0940   25.9140   31.4850 H   0  0  0  0  0  0  0  0  0  0  0  0
   35.5500   27.1030   33.0960 H   0  0  0  0  0  0  0  0  0  0  0  0
   36.2110   28.7890   32.6140 H   0  0  0  0  0  0  0  0  0  0  0  0
   38.3470   28.0600   33.4850 H   0  0  0  0  0  0  0  0  0  0  0  0
   39.9010   28.2120   29.4230 C   0  0  0  0  0  0  0  0  0  0  0  0
   39.1460   28.9260   28.4610 C   0  0  0  0  0  0  0  0  0  0  0  0
   37.7230   28.9840   28.6190 C   0  0  0  0  0  0  0  0  0  0  0  0
   37.1630   28.3510   29.6850 N   0  0  0  0  0  0  0  0  0  0  0  0
   37.9440   27.6790   30.5760 C   0  0  0  0  0  0  0  0  0  0  0  0
   39.2950   27.5880   30.4810 N   0  0  0  0  0  0  0  0  0  0  0  0
   40.9540   28.2090   29.2440 H   0  0  0  0  0  0  0  0  0  0  0  0
   39.6290   29.4120   27.6340 H   0  0  0  0  0  0  0  0  0  0  0  0
   37.1240   29.5220   27.8980 H   0  0  0  0  0  0  0  0  0  0  0  0
   38.5360   26.1720   35.1740 C   0  0  0  0  0  0  0  0  0  0  0  0
   39.1150   27.2450   35.4740 O   0  0  0  0  0  0  0  0  0  0  0  0
   37.7330   26.0670   33.9820 N   0  0  0  0  0  0  0  0  0  0  0  0
   37.1960   25.1950   33.8360 H   0  0  0  0  0  0  0  0  0  0  0  0
   39.5680   23.9780   35.8920 C   0  0  0  0  0  0  0  0  0  0  0  0
   38.7250   25.0520   36.0970 C   0  0  0  0  0  0  0  0  0  0  0  0
   37.9520   25.1590   37.2540 C   0  0  0  0  0  0  0  0  0  0  0  0
   37.2760   25.9820   37.4610 H   0  0  0  0  0  0  0  0  0  0  0  0
   38.0110   24.1750   38.2440 C   0  0  0  0  0  0  0  0  0  0  0  0
   37.4160   24.2470   39.1450 H   0  0  0  0  0  0  0  0  0  0  0  0
   38.8570   23.0950   38.0440 C   0  0  0  0  0  3  0  0  0  0  0  0
   39.6140   23.0160   36.8820 C   0  0  0  0  0  3  0  0  0  0  0  0
   41.0100   25.1970   34.2110 H   0  0  0  0  0  0  0  0  0  0  0  0
   40.4830   23.9470   34.4180 S   0  0  0  0  0  0  0  0  0  0  0  0
   39.5680   23.5480   33.2730 O   0  0  0  0  0  0  0  0  0  0  0  0
   41.6170   22.9760   34.4770 O   0  0  0  0  0  0  0  0  0  0  0  0
  1  4  1  6  0  0  0
  1  2  1  0  0  0  0
  1  3  1  0  0  0  0
  2  3  1  0  0  0  0
  2  5  1  0  0  0  0
  3  7  1  1  0  0  0
  3 19  1  0  0  0  0
  6  2  1  0  0  0  0
  8 13  1  0  0  0  0
  9 10  1  0  0  0  0
  9  8  2  0  0  0  0
 10 11  2  0  0  0  0
 11 12  1  0  0  0  0
 12  1  1  0  0  0  0
 13 12  2  0  0  0  0
 14  8  1  0  0  0  0
 15  9  1  0  0  0  0
 16 10  1  0  0  0  0
 17 18  2  0  0  0  0
 17 22  1  0  0  0  0
 19 17  1  0  0  0  0
 20 19  1  0  0  0  0
 21 22  2  0  0  0  0
 21 28  1  0  0  0  0
 22 23  1  0  0  0  0
 23 24  1  0  0  0  0
 23 25  2  0  0  0  0
 25 26  1  0  0  0  0
 27 25  1  0  0  0  0
 28 27  2  0  0  0  0
 29 30  1  0  0  0  0
 30 32  2  0  0  0  0
 30 21  1  0  0  0  0
 31 30  2  0  0  0  0
M  END
>  <minimizedAffinity>
-4.63861227

$$$$

 OpenBabel03272508523D

 32 34  0  0  1  0  0  0  0  0999 V2000
   36.1790   28.0250   31.6820 C   0  0  2  0  0  0  0  0  0  0  0  0
   36.2520   28.3780   33.0930 C   0  0  0  0  0  0  0  0  0  0  0  0
   37.1630   27.3030   32.4780 C   0  0  1  0  0  0  0  0  0  0  0  0
   35.3390   27.3730   31.3050 H   0  0  0  0  0  0  0  0  0  0  0  0
   35.4810   27.9480   33.7630 H   0  0  0  0  0  0  0  0  0  0  0  0
   36.7600   29.2840   33.4610 H   0  0  0  0  0  0  0  0  0  0  0  0
   38.2210   27.5280   32.6630 H   0  0  0  0  0  0  0  0  0  0  0  0
   36.8100   31.0820   29.6870 C   0  0  0  0  0  0  0  0  0  0  0  0
   37.5110   30.5660   28.5700 C   0  0  0  0  0  0  0  0  0  0  0  0
   37.7610   29.1550   28.5170 C   0  0  0  0  0  0  0  0  0  0  0  0
   37.3130   28.3780   29.5410 N   0  0  0  0  0  0  0  0  0  0  0  0
   36.6450   28.9360   30.5880 C   0  0  0  0  0  0  0  0  0  0  0  0
   36.3780   30.2630   30.6960 N   0  0  0  0  0  0  0  0  0  0  0  0
   36.6590   32.1400   29.6630 H   0  0  0  0  0  0  0  0  0  0  0  0
   37.8470   31.2140   27.7840 H   0  0  0  0  0  0  0  0  0  0  0  0
   38.2940   28.7360   27.6760 H   0  0  0  0  0  0  0  0  0  0  0  0
   37.2880   24.8820   32.0040 C   0  0  0  0  0  0  0  0  0  0  0  0
   38.0740   25.1300   31.0580 O   0  0  0  0  0  0  0  0  0  0  0  0
   36.8050   25.9320   32.8660 N   0  0  0  0  0  0  0  0  0  0  0  0
   36.2430   25.6600   33.6910 H   0  0  0  0  0  0  0  0  0  0  0  0
   37.4140   22.6170   33.1220 C   0  0  0  0  0  0  0  0  0  0  0  0
   36.9000   23.4810   32.1760 C   0  0  0  0  0  0  0  0  0  0  0  0
   35.9230   23.0680   31.2690 C   0  0  0  0  0  0  0  0  0  0  0  0
   35.4880   23.7080   30.5080 H   0  0  0  0  0  0  0  0  0  0  0  0
   35.4360   21.7590   31.2930 C   0  0  0  0  0  0  0  0  0  0  0  0
   34.6790   21.4270   30.5930 H   0  0  0  0  0  0  0  0  0  0  0  0
   35.9490   20.8870   32.2410 C   0  0  0  0  0  3  0  0  0  0  0  0
   36.9200   21.3280   33.1310 C   0  0  0  0  0  3  0  0  0  0  0  0
   39.5360   23.9490   33.4600 H   0  0  0  0  0  0  0  0  0  0  0  0
   38.6240   23.2370   34.2000 S   0  0  0  0  0  0  0  0  0  0  0  0
   39.2930   22.0780   34.9170 O   0  0  0  0  0  0  0  0  0  0  0  0
   38.0480   24.1600   35.2250 O   0  0  0  0  0  0  0  0  0  0  0  0
  1  4  1  6  0  0  0
  1  3  1  0  0  0  0
  1  2  1  0  0  0  0
  2  6  1  0  0  0  0
  2  5  1  0  0  0  0
  3  7  1  6  0  0  0
  3 19  1  0  0  0  0
  3  2  1  0  0  0  0
  8 13  1  0  0  0  0
  9  8  2  0  0  0  0
 10  9  1  0  0  0  0
 10 11  2  0  0  0  0
 11 12  1  0  0  0  0
 12 13  2  0  0  0  0
 12  1  1  0  0  0  0
 14  8  1  0  0  0  0
 15  9  1  0  0  0  0
 16 10  1  0  0  0  0
 17 22  1  0  0  0  0
 17 19  1  0  0  0  0
 18 17  2  0  0  0  0
 19 20  1  0  0  0  0
 21 28  1  0  0  0  0
 21 30  1  0  0  0  0
 22 21  2  0  0  0  0
 23 25  2  0  0  0  0
 23 22  1  0  0  0  0
 24 23  1  0  0  0  0
 25 27  1  0  0  0  0
 26 25  1  0  0  0  0
 27 28  2  0  0  0  0
 29 30  1  0  0  0  0
 30 31  2  0  0  0  0
 30 32  2  0  0  0  0
M  END
>  <minimizedAffinity>
-4.605474

$$$$

 OpenBabel03272508523D

 32 34  0  0  1  0  0  0  0  0999 V2000
   37.4670   26.6710   33.5800 C   0  0  2  0  0  0  0  0  0  0  0  0
   37.7680   26.4970   34.9930 C   0  0  0  0  0  0  0  0  0  0  0  0
   36.5780   27.3460   34.5170 C   0  0  1  0  0  0  0  0  0  0  0  0
   38.0830   27.3800   32.9530 H   0  0  0  0  0  0  0  0  0  0  0  0
   38.5860   27.1120   35.4170 H   0  0  0  0  0  0  0  0  0  0  0  0
   37.5110   25.5840   35.5550 H   0  0  0  0  0  0  0  0  0  0  0  0
   35.6400   27.0030   34.9690 H   0  0  0  0  0  0  0  0  0  0  0  0
   36.9080   23.3210   32.1000 C   0  0  0  0  0  0  0  0  0  0  0  0
   35.9170   23.5910   31.1260 C   0  0  0  0  0  0  0  0  0  0  0  0
   35.4470   24.9390   30.9880 C   0  0  0  0  0  0  0  0  0  0  0  0
   35.9750   25.8950   31.8000 N   0  0  0  0  0  0  0  0  0  0  0  0
   36.9260   25.5720   32.7180 C   0  0  0  0  0  0  0  0  0  0  0  0
   37.4120   24.3160   32.8960 N   0  0  0  0  0  0  0  0  0  0  0  0
   37.2110   22.2980   32.1490 H   0  0  0  0  0  0  0  0  0  0  0  0
   35.5260   22.8070   30.5060 H   0  0  0  0  0  0  0  0  0  0  0  0
   34.6900   25.1710   30.2530 H   0  0  0  0  0  0  0  0  0  0  0  0
   35.6050   29.6170   34.5670 C   0  0  0  0  0  0  0  0  0  0  0  0
   34.4630   29.1040   34.4670 O   0  0  0  0  0  0  0  0  0  0  0  0
   36.7830   28.7930   34.6790 N   0  0  0  0  0  0  0  0  0  0  0  0
   37.6860   29.2630   34.8620 H   0  0  0  0  0  0  0  0  0  0  0  0
   35.7080   31.8770   33.4390 C   0  0  0  0  0  0  0  0  0  0  0  0
   35.6640   31.0780   34.5640 C   0  0  0  0  0  0  0  0  0  0  0  0
   35.6710   31.6300   35.8470 C   0  0  0  0  0  0  0  0  0  0  0  0
   35.6370   31.0460   36.7600 H   0  0  0  0  0  0  0  0  0  0  0  0
   35.7230   33.0140   36.0270 C   0  0  0  0  0  0  0  0  0  0  0  0
   35.7300   33.4520   37.0180 H   0  0  0  0  0  0  0  0  0  0  0  0
   35.7680   33.8200   34.9010 C   0  0  0  0  0  3  0  0  0  0  0  0
   35.7590   33.2420   33.6370 C   0  0  0  0  0  3  0  0  0  0  0  0
   36.1420   31.9760   30.9500 H   0  0  0  0  0  0  0  0  0  0  0  0
   35.6960   31.0860   31.8940 S   0  0  0  0  0  0  0  0  0  0  0  0
   34.2820   30.6260   31.5810 O   0  0  0  0  0  0  0  0  0  0  0  0
   36.5980   29.8940   31.8620 O   0  0  0  0  0  0  0  0  0  0  0  0
  1  4  1  6  0  0  0
  1  3  1  0  0  0  0
  1  2  1  0  0  0  0
  2  5  1  0  0  0  0
  2  6  1  0  0  0  0
  3 19  1  0  0  0  0
  3  7  1  1  0  0  0
  3  2  1  0  0  0  0
  8 14  1  0  0  0  0
  8 13  1  0  0  0  0
  9  8  2  0  0  0  0
 10  9  1  0  0  0  0
 10 11  2  0  0  0  0
 11 12  1  0  0  0  0
 12 13  2  0  0  0  0
 12  1  1  0  0  0  0
 15  9  1  0  0  0  0
 16 10  1  0  0  0  0
 17 19  1  0  0  0  0
 18 17  2  0  0  0  0
 19 20  1  0  0  0  0
 21 28  2  0  0  0  0
 21 22  1  0  0  0  0
 22 17  1  0  0  0  0
 22 23  2  0  0  0  0
 23 25  1  0  0  0  0
 23 24  1  0  0  0  0
 25 26  1  0  0  0  0
 27 25  2  0  0  0  0
 28 27  1  0  0  0  0
 29 30  1  0  0  0  0
 30 21  1  0  0  0  0
 31 30  2  0  0  0  0
 32 30  2  0  0  0  0
M  END
>  <minimizedAffinity>
-4.60071898

$$$$
