
 OpenBabel03272508503D

 32 34  0  0  1  0  0  0  0  0999 V2000
   38.0550   31.2340   43.9550 C   0  0  2  0  0  0  0  0  0  0  0  0
   37.5640   29.8650   43.8870 C   0  0  0  0  0  0  0  0  0  0  0  0
   37.0100   30.8750   44.9050 C   0  0  1  0  0  0  0  0  0  0  0  0
   39.0500   31.4540   44.4410 H   0  0  0  0  0  0  0  0  0  0  0  0
   38.1840   29.0800   44.3620 H   0  0  0  0  0  0  0  0  0  0  0  0
   36.8530   29.5190   43.1190 H   0  0  0  0  0  0  0  0  0  0  0  0
   35.9210   30.9660   44.8200 H   0  0  0  0  0  0  0  0  0  0  0  0
   38.5340   33.7100   41.2410 C   0  0  0  0  0  0  0  0  0  0  0  0
   37.2060   34.1250   40.9830 C   0  0  0  0  0  0  0  0  0  0  0  0
   36.1480   33.5410   41.7550 C   0  0  0  0  0  0  0  0  0  0  0  0
   36.4700   32.6150   42.6990 N   0  0  0  0  0  0  0  0  0  0  0  0
   37.7690   32.2580   42.9000 C   0  0  0  0  0  0  0  0  0  0  0  0
   38.8130   32.7740   42.2020 N   0  0  0  0  0  0  0  0  0  0  0  0
   39.2710   34.1840   40.6300 H   0  0  0  0  0  0  0  0  0  0  0  0
   36.9950   34.8580   40.2280 H   0  0  0  0  0  0  0  0  0  0  0  0
   35.1250   33.8390   41.5770 H   0  0  0  0  0  0  0  0  0  0  0  0
   36.3990   30.4380   47.2580 C   0  0  0  0  0  0  0  0  0  0  0  0
   35.1950   30.3720   46.9090 O   0  0  0  0  0  0  0  0  0  0  0  0
   37.4470   30.6220   46.2850 N   0  0  0  0  0  0  0  0  0  0  0  0
   38.4260   30.5670   46.6130 H   0  0  0  0  0  0  0  0  0  0  0  0
   35.8680   29.6620   49.6050 C   0  0  0  0  0  0  0  0  0  0  0  0
   36.6680   30.3180   48.6920 C   0  0  0  0  0  0  0  0  0  0  0  0
   37.8520   30.9460   49.0820 C   0  0  0  0  0  0  0  0  0  0  0  0
   38.5140   31.4740   48.4030 H   0  0  0  0  0  0  0  0  0  0  0  0
   38.2620   30.9280   50.4170 C   0  0  0  0  0  0  0  0  0  0  0  0
   39.1780   31.4120   50.7310 H   0  0  0  0  0  0  0  0  0  0  0  0
   37.4620   30.2700   51.3390 C   0  0  0  0  0  3  0  0  0  0  0  0
   36.2900   29.6540   50.9200 C   0  0  0  0  0  3  0  0  0  0  0  0
   34.0390   29.5670   47.8620 H   0  0  0  0  0  0  0  0  0  0  0  0
   34.4180   28.9170   49.0100 S   0  0  0  0  0  0  0  0  0  0  0  0
   33.3360   29.0130   50.0720 O   0  0  0  0  0  0  0  0  0  0  0  0
   34.6220   27.4750   48.6730 O   0  0  0  0  0  0  0  0  0  0  0  0
  1  4  1  1  0  0  0
  1  3  1  0  0  0  0
  2  1  1  0  0  0  0
  2  5  1  0  0  0  0
  2  3  1  0  0  0  0
  3  7  1  6  0  0  0
  3 19  1  0  0  0  0
  6  2  1  0  0  0  0
  8 13  1  0  0  0  0
  9  8  2  0  0  0  0
  9 10  1  0  0  0  0
 10 11  2  0  0  0  0
 11 12  1  0  0  0  0
 12  1  1  0  0  0  0
 13 12  2  0  0  0  0
 14  8  1  0  0  0  0
 15  9  1  0  0  0  0
 16 10  1  0  0  0  0
 17 22  1  0  0  0  0
 18 17  2  0  0  0  0
 19 20  1  0  0  0  0
 19 17  1  0  0  0  0
 21 28  1  0  0  0  0
 22 23  1  0  0  0  0
 22 21  2  0  0  0  0
 23 25  2  0  0  0  0
 24 23  1  0  0  0  0
 25 26  1  0  0  0  0
 25 27  1  0  0  0  0
 28 27  2  0  0  0  0
 29 30  1  0  0  0  0
 30 21  1  0  0  0  0
 30 31  2  0  0  0  0
 32 30  2  0  0  0  0
M  END
>  <minimizedAffinity>
-5.42324734

>  <minimizedRMSD>
3.89585304

$$$$
