
 OpenBabel03272509303D

 41 43  0  0  1  0  0  0  0  0999 V2000
   34.0030   29.9580   47.4240 C   0  0  2  0  0  0  0  0  0  0  0  0
   35.1790   30.4390   48.2220 C   0  0  0  0  0  0  0  0  0  0  0  0
   35.9640   29.3050   48.8550 C   0  0  0  0  0  0  0  0  0  0  0  0
   35.0430   28.4650   49.7410 C   0  0  0  0  0  0  0  0  0  0  0  0
   33.6630   28.2710   49.1800 C   0  0  0  0  0  0  0  0  0  0  0  0
   33.7180   28.5160   47.6620 C   0  0  1  0  0  0  0  0  0  0  0  0
   33.0480   30.5250   47.6500 H   0  0  0  0  0  0  0  0  0  0  0  0
   34.7060   30.9620   49.1250 H   0  0  0  0  0  0  0  0  0  0  0  0
   35.8070   31.1830   47.7770 H   0  0  0  0  0  0  0  0  0  0  0  0
   36.4170   28.6230   48.1270 H   0  0  0  0  0  0  0  0  0  0  0  0
   36.7140   29.7680   49.5070 H   0  0  0  0  0  0  0  0  0  0  0  0
   34.9320   28.9470   50.7350 H   0  0  0  0  0  0  0  0  0  0  0  0
   35.5320   27.4780   49.8480 H   0  0  0  0  0  0  0  0  0  0  0  0
   32.8800   28.8790   49.6430 H   0  0  0  0  0  0  0  0  0  0  0  0
   33.3520   27.2100   49.2750 H   0  0  0  0  0  0  0  0  0  0  0  0
   34.5310   27.8920   47.4040 H   0  0  0  0  0  0  0  0  0  0  0  0
   34.2280   30.1690   45.9710 C   0  0  0  0  0  0  0  0  0  0  0  0
   35.5630   30.0590   45.5320 C   0  0  0  0  0  0  0  0  0  0  0  0
   35.7860   30.2550   44.1680 C   0  0  0  0  0  0  0  0  0  0  0  0
   34.7130   30.5370   43.3460 N   0  0  0  0  0  0  0  0  0  0  0  0
   33.4290   30.6320   43.8280 C   0  0  0  0  0  0  0  0  0  0  0  0
   33.2140   30.4450   45.1420 N   0  0  0  0  0  0  0  0  0  0  0  0
   36.4620   29.8330   46.0750 H   0  0  0  0  0  0  0  0  0  0  0  0
   36.7540   30.2050   43.6870 H   0  0  0  0  0  0  0  0  0  0  0  0
   32.6970   30.8530   43.0770 H   0  0  0  0  0  0  0  0  0  0  0  0
   31.3110   27.7220   47.4400 C   0  0  0  0  0  0  0  0  0  0  0  0
   30.8100   27.8680   48.5880 O   0  0  0  0  0  0  0  0  0  0  0  0
   32.6080   27.9970   46.9380 N   0  0  0  0  0  0  0  0  0  0  0  0
   32.6470   27.7480   45.9030 H   0  0  0  0  0  0  0  0  0  0  0  0
   29.2760   27.8680   45.9250 C   0  0  0  0  0  0  0  0  0  0  0  0
   30.2160   27.1640   46.6390 C   0  0  0  0  0  0  0  0  0  0  0  0
   30.1850   25.7760   46.6450 C   0  0  0  0  0  0  0  0  0  0  0  0
   30.8900   25.1570   47.1870 H   0  0  0  0  0  0  0  0  0  0  0  0
   29.2120   25.1130   45.9320 C   0  0  0  0  0  0  0  0  0  0  0  0
   29.1240   24.0250   45.8830 H   0  0  0  0  0  0  0  0  0  0  0  0
   28.2570   25.7890   45.2060 C   0  0  0  0  0  3  0  0  0  0  0  0
   28.3040   27.1770   45.2130 C   0  0  0  0  0  3  0  0  0  0  0  0
   30.3700   30.0340   46.8430 H   0  0  0  0  0  0  0  0  0  0  0  0
   29.4010   29.6150   45.9870 S   0  0  0  0  0  0  0  0  0  0  0  0
   29.7960   30.1070   44.6130 O   0  0  0  0  0  0  0  0  0  0  0  0
   28.0520   30.2330   46.2780 O   0  0  0  0  0  0  0  0  0  0  0  0
  1  7  1  1  0  0  0
  1  6  1  0  0  0  0
  1  2  1  0  0  0  0
  2  3  1  0  0  0  0
  2  8  1  0  0  0  0
  3 11  1  0  0  0  0
  3  4  1  0  0  0  0
  4 13  1  0  0  0  0
  4 12  1  0  0  0  0
  5 15  1  0  0  0  0
  5 14  1  0  0  0  0
  5  4  1  0  0  0  0
  6 16  1  6  0  0  0
  6  5  1  0  0  0  0
  9  2  1  0  0  0  0
 10  3  1  0  0  0  0
 17  1  1  0  0  0  0
 18 17  1  0  0  0  0
 18 23  1  0  0  0  0
 19 18  2  0  0  0  0
 20 21  2  0  0  0  0
 20 19  1  0  0  0  0
 21 22  1  0  0  0  0
 22 17  2  0  0  0  0
 24 19  1  0  0  0  0
 25 21  1  0  0  0  0
 26 27  2  0  0  0  0
 28 26  1  0  0  0  0
 28  6  1  0  0  0  0
 29 28  1  0  0  0  0
 30 39  1  0  0  0  0
 30 31  1  0  0  0  0
 31 32  2  0  0  0  0
 31 26  1  0  0  0  0
 32 33  1  0  0  0  0
 34 32  1  0  0  0  0
 35 34  1  0  0  0  0
 36 37  1  0  0  0  0
 36 34  2  0  0  0  0
 37 30  2  0  0  0  0
 39 41  2  0  0  0  0
 39 38  1  0  0  0  0
 40 39  2  0  0  0  0
M  END
>  <minimizedAffinity>
-4.47158194

>  <minimizedRMSD>
4.39186478

$$$$
