
 OpenBabel03272509303D

 41 43  0  0  1  0  0  0  0  0999 V2000
   35.7560   30.5040   49.0100 C   0  0  2  0  0  0  0  0  0  0  0  0
   36.5830   31.4460   49.8350 C   0  0  0  0  0  0  0  0  0  0  0  0
   37.5490   30.7250   50.7570 C   0  0  0  0  0  0  0  0  0  0  0  0
   36.7820   29.7690   51.6720 C   0  0  0  0  0  0  0  0  0  0  0  0
   35.6380   29.0650   51.0000 C   0  0  0  0  0  0  0  0  0  0  0  0
   35.8740   29.0970   49.4800 C   0  0  1  0  0  0  0  0  0  0  0  0
   34.6520   30.7620   49.0130 H   0  0  0  0  0  0  0  0  0  0  0  0
   35.8300   31.9120   50.5620 H   0  0  0  0  0  0  0  0  0  0  0  0
   37.0280   32.2810   49.3350 H   0  0  0  0  0  0  0  0  0  0  0  0
   38.3010   30.1290   50.2280 H   0  0  0  0  0  0  0  0  0  0  0  0
   38.0070   31.4920   51.3940 H   0  0  0  0  0  0  0  0  0  0  0  0
   36.3660   30.3260   52.5380 H   0  0  0  0  0  0  0  0  0  0  0  0
   37.5160   29.0170   52.0190 H   0  0  0  0  0  0  0  0  0  0  0  0
   34.6430   29.4490   51.2460 H   0  0  0  0  0  0  0  0  0  0  0  0
   35.6440   27.9850   51.2560 H   0  0  0  0  0  0  0  0  0  0  0  0
   36.8660   28.7370   49.4410 H   0  0  0  0  0  0  0  0  0  0  0  0
   36.1500   30.5680   47.5800 C   0  0  0  0  0  0  0  0  0  0  0  0
   37.4230   31.1130   47.3160 C   0  0  0  0  0  0  0  0  0  0  0  0
   37.8050   31.1770   45.9750 C   0  0  0  0  0  0  0  0  0  0  0  0
   36.9380   30.7130   45.0070 N   0  0  0  0  0  0  0  0  0  0  0  0
   35.7060   30.1890   45.3200 C   0  0  0  0  0  0  0  0  0  0  0  0
   35.3370   30.1290   46.6120 N   0  0  0  0  0  0  0  0  0  0  0  0
   38.1770   31.4870   47.9850 H   0  0  0  0  0  0  0  0  0  0  0  0
   38.7490   31.5710   45.6200 H   0  0  0  0  0  0  0  0  0  0  0  0
   35.1400   29.8660   44.4700 H   0  0  0  0  0  0  0  0  0  0  0  0
   33.7070   27.9430   48.8110 C   0  0  0  0  0  0  0  0  0  0  0  0
   32.8090   28.5130   49.4890 O   0  0  0  0  0  0  0  0  0  0  0  0
   35.1070   28.1510   48.7420 N   0  0  0  0  0  0  0  0  0  0  0  0
   35.5310   27.4730   48.0380 H   0  0  0  0  0  0  0  0  0  0  0  0
   31.6250   26.7090   48.0360 C   0  0  0  0  0  0  0  0  0  0  0  0
   32.9820   26.9320   48.0350 C   0  0  0  0  0  0  0  0  0  0  0  0
   33.8110   26.1580   47.2350 C   0  0  0  0  0  0  0  0  0  0  0  0
   34.8860   26.2740   47.1870 H   0  0  0  0  0  0  0  0  0  0  0  0
   33.2670   25.1690   46.4460 C   0  0  0  0  0  0  0  0  0  0  0  0
   33.8510   24.5220   45.7880 H   0  0  0  0  0  0  0  0  0  0  0  0
   31.9130   24.9210   46.4250 C   0  0  0  0  0  3  0  0  0  0  0  0
   31.0990   25.7060   47.2310 C   0  0  0  0  0  3  0  0  0  0  0  0
   31.4230   28.6790   49.7110 H   0  0  0  0  0  0  0  0  0  0  0  0
   30.6690   27.7390   49.0820 S   0  0  0  0  0  0  0  0  0  0  0  0
   29.6730   28.4870   48.2240 O   0  0  0  0  0  0  0  0  0  0  0  0
   29.8490   26.9050   50.0420 O   0  0  0  0  0  0  0  0  0  0  0  0
  1  7  1  1  0  0  0
  1  6  1  0  0  0  0
  1  2  1  0  0  0  0
  2  8  1  0  0  0  0
  2  3  1  0  0  0  0
  3 11  1  0  0  0  0
  3  4  1  0  0  0  0
  4 13  1  0  0  0  0
  4 12  1  0  0  0  0
  5 14  1  0  0  0  0
  5 15  1  0  0  0  0
  5  4  1  0  0  0  0
  6 16  1  6  0  0  0
  6  5  1  0  0  0  0
  9  2  1  0  0  0  0
 10  3  1  0  0  0  0
 17  1  1  0  0  0  0
 18 17  1  0  0  0  0
 18 23  1  0  0  0  0
 19 18  2  0  0  0  0
 20 21  2  0  0  0  0
 20 19  1  0  0  0  0
 21 22  1  0  0  0  0
 22 17  2  0  0  0  0
 24 19  1  0  0  0  0
 25 21  1  0  0  0  0
 26 27  2  0  0  0  0
 28 26  1  0  0  0  0
 28  6  1  0  0  0  0
 29 28  1  0  0  0  0
 30 39  1  0  0  0  0
 31 30  1  0  0  0  0
 31 26  1  0  0  0  0
 32 31  2  0  0  0  0
 33 32  1  0  0  0  0
 34 32  1  0  0  0  0
 35 34  1  0  0  0  0
 36 34  2  0  0  0  0
 36 37  1  0  0  0  0
 37 30  2  0  0  0  0
 39 38  1  0  0  0  0
 39 41  2  0  0  0  0
 40 39  2  0  0  0  0
M  END
>  <minimizedAffinity>
-6.22230148

>  <minimizedRMSD>
0.690660477

$$$$
