
 OpenBabel03272503053D

 35 37  0  0  0  0  0  0  0  0999 V2000
   38.4250   30.2950   47.2670 F   0  0  0  0  0  0  0  0  0  0  0  0
   38.7160   31.5410   47.6940 C   0  0  0  0  0  0  0  0  0  0  0  0
   38.1870   32.0240   48.8700 C   0  0  0  0  0  0  0  0  0  0  0  0
   38.5280   33.2950   49.2420 C   0  0  0  0  0  0  0  0  0  0  0  0
   39.3650   34.0940   48.4950 C   0  0  0  0  0  0  0  0  0  0  0  0
   39.8930   33.5970   47.3120 C   0  0  0  0  0  0  0  0  0  0  0  0
   39.5590   32.3170   46.9250 C   0  0  0  0  0  0  0  0  0  0  0  0
   38.1030   33.6690   50.1760 H   0  0  0  0  0  0  0  0  0  0  0  0
   39.6240   35.0840   48.7940 H   0  0  0  0  0  0  0  0  0  0  0  0
   40.5600   34.1680   46.6730 H   0  0  0  0  0  0  0  0  0  0  0  0
   36.8500   29.6460   51.5000 C   0  0  0  0  0  0  0  0  0  0  0  0
   37.7110   30.4950   50.7880 C   0  0  0  0  0  0  0  0  0  0  0  0
   37.3010   31.1310   49.6280 C   0  0  0  0  0  0  0  0  0  0  0  0
   36.0170   30.8970   49.2050 N   0  0  0  0  0  0  0  0  0  0  0  0
   35.2060   30.0790   49.9030 C   0  0  0  0  0  0  0  0  0  0  0  0
   35.6030   29.4740   51.0090 N   0  0  0  0  0  0  0  0  0  0  0  0
   37.3420   29.2390   52.3760 H   0  0  0  0  0  0  0  0  0  0  0  0
   38.7450   30.7200   51.0780 H   0  0  0  0  0  0  0  0  0  0  0  0
   34.1840   29.8970   49.5560 H   0  0  0  0  0  0  0  0  0  0  0  0
   39.2080   31.8990   44.5690 C   0  0  0  0  0  0  0  0  0  0  0  0
   38.0930   32.4700   44.8240 O   0  0  0  0  0  0  0  0  0  0  0  0
   40.0930   31.7800   45.7010 N   0  0  0  0  0  0  0  0  0  0  0  0
   41.0360   31.3790   45.7880 H   0  0  0  0  0  0  0  0  0  0  0  0
   39.3510   31.8980   42.1330 C   0  0  0  0  0  0  0  0  0  0  0  0
   39.7630   31.3390   43.3410 C   0  0  0  0  0  0  0  0  0  0  0  0
   40.6560   30.2950   43.4610 C   0  0  0  0  0  0  0  0  0  0  0  0
   40.9230   29.9190   44.4420 H   0  0  0  0  0  0  0  0  0  0  0  0
   41.1800   29.7690   42.2720 C   0  0  0  0  0  0  0  0  0  0  0  0
   41.8910   28.9410   42.3370 H   0  0  0  0  0  0  0  0  0  0  0  0
   40.7830   30.3110   41.0610 C   0  0  0  0  0  0  0  0  0  0  0  0
   39.8860   31.3580   40.9560 C   0  0  0  0  0  0  0  0  0  0  0  0
   38.1690   33.7370   43.3790 H   0  0  0  0  0  0  0  0  0  0  0  0
   38.2070   33.2250   42.1120 S   0  0  0  0  0  0  0  0  0  0  0  0
   38.6230   34.2600   41.1070 O   0  0  0  0  0  0  0  0  0  0  0  0
   36.8500   32.6400   41.7790 O   0  0  0  0  0  0  0  0  0  0  0  0
  1  2  1  0  0  0  0
  2  3  1  0  0  0  0
  3  4  2  0  0  0  0
  3 13  1  0  0  0  0
  4  8  1  0  0  0  0
  5  9  1  0  0  0  0
  5  4  1  0  0  0  0
  6  5  2  0  0  0  0
  7  6  1  0  0  0  0
  7  2  2  0  0  0  0
 10  6  1  0  0  0  0
 11 17  1  0  0  0  0
 12 18  1  0  0  0  0
 12 11  2  0  0  0  0
 13 12  1  0  0  0  0
 14 13  2  0  0  0  0
 14 15  1  0  0  0  0
 15 16  2  0  0  0  0
 16 11  1  0  0  0  0
 19 15  1  0  0  0  0
 20 21  2  0  0  0  0
 20 22  1  0  0  0  0
 22 23  1  0  0  0  0
 22  7  1  0  0  0  0
 24 25  1  0  0  0  0
 25 26  2  0  0  0  0
 25 20  1  0  0  0  0
 26 27  1  0  0  0  0
 28 29  1  0  0  0  0
 28 26  1  0  0  0  0
 30 28  2  0  0  0  0
 31 30  1  0  0  0  0
 31 24  2  0  0  0  0
 33 24  1  0  0  0  0
 33 32  1  0  0  0  0
 34 33  2  0  0  0  0
 35 33  2  0  0  0  0
M  END
>  <minimizedAffinity>
-6.68446684

>  <minimizedRMSD>
0.658695996

$$$$
