
 OpenBabel03272509303D

 41 43  0  0  1  0  0  0  0  0999 V2000
   35.9000   30.5100   48.8150 C   0  0  2  0  0  0  0  0  0  0  0  0
   37.0840   31.1920   49.4350 C   0  0  0  0  0  0  0  0  0  0  0  0
   37.9680   30.2380   50.2170 C   0  0  0  0  0  0  0  0  0  0  0  0
   37.1460   29.5350   51.2990 C   0  0  0  0  0  0  0  0  0  0  0  0
   35.7540   29.1700   50.8700 C   0  0  0  0  0  0  0  0  0  0  0  0
   35.7150   29.1270   49.3330 C   0  0  1  0  0  0  0  0  0  0  0  0
   34.9250   31.0620   48.9900 H   0  0  0  0  0  0  0  0  0  0  0  0
   36.6270   31.8510   50.2530 H   0  0  0  0  0  0  0  0  0  0  0  0
   37.6420   31.8690   48.8220 H   0  0  0  0  0  0  0  0  0  0  0  0
   38.4230   29.4550   49.6010 H   0  0  0  0  0  0  0  0  0  0  0  0
   38.7210   30.8520   50.7250 H   0  0  0  0  0  0  0  0  0  0  0  0
   37.0580   30.1890   52.1920 H   0  0  0  0  0  0  0  0  0  0  0  0
   37.7000   28.6120   51.5570 H   0  0  0  0  0  0  0  0  0  0  0  0
   34.9600   29.8140   51.2600 H   0  0  0  0  0  0  0  0  0  0  0  0
   35.5130   28.1310   51.1790 H   0  0  0  0  0  0  0  0  0  0  0  0
   36.5500   28.5070   49.1450 H   0  0  0  0  0  0  0  0  0  0  0  0
   36.0360   30.4550   47.3360 C   0  0  0  0  0  0  0  0  0  0  0  0
   37.3150   30.7510   46.8240 C   0  0  0  0  0  0  0  0  0  0  0  0
   37.4550   30.7020   45.4360 C   0  0  0  0  0  0  0  0  0  0  0  0
   36.3610   30.3730   44.6620 N   0  0  0  0  0  0  0  0  0  0  0  0
   35.1340   30.0920   45.2150 C   0  0  0  0  0  0  0  0  0  0  0  0
   34.9980   30.1410   46.5520 N   0  0  0  0  0  0  0  0  0  0  0  0
   38.2300   31.0030   47.3290 H   0  0  0  0  0  0  0  0  0  0  0  0
   38.3730   30.9060   44.9010 H   0  0  0  0  0  0  0  0  0  0  0  0
   34.3760   29.8500   44.4970 H   0  0  0  0  0  0  0  0  0  0  0  0
   33.2690   28.4280   49.2690 C   0  0  0  0  0  0  0  0  0  0  0  0
   32.7320   29.0270   50.2390 O   0  0  0  0  0  0  0  0  0  0  0  0
   34.6030   28.4260   48.7880 N   0  0  0  0  0  0  0  0  0  0  0  0
   34.6680   27.7980   47.9290 H   0  0  0  0  0  0  0  0  0  0  0  0
   32.2830   26.6610   47.7330 C   0  0  0  0  0  0  0  0  0  0  0  0
   32.1730   27.6610   48.6690 C   0  0  0  0  0  0  0  0  0  0  0  0
   30.9220   28.0320   49.1420 C   0  0  0  0  0  0  0  0  0  0  0  0
   30.7600   28.8120   49.8750 H   0  0  0  0  0  0  0  0  0  0  0  0
   29.7970   27.3930   48.6700 C   0  0  0  0  0  0  0  0  0  0  0  0
   28.7810   27.6240   48.9960 H   0  0  0  0  0  0  0  0  0  0  0  0
   29.8760   26.3880   47.7320 C   0  0  0  0  0  3  0  0  0  0  0  0
   31.1350   26.0310   47.2700 C   0  0  0  0  0  3  0  0  0  0  0  0
   34.8500   26.6270   48.1110 H   0  0  0  0  0  0  0  0  0  0  0  0
   33.9060   26.2710   47.1990 S   0  0  0  0  0  0  0  0  0  0  0  0
   34.0020   24.7700   47.0420 O   0  0  0  0  0  0  0  0  0  0  0  0
   34.1670   26.8510   45.8260 O   0  0  0  0  0  0  0  0  0  0  0  0
  1  7  1  1  0  0  0
  1  6  1  0  0  0  0
  1  2  1  0  0  0  0
  2  3  1  0  0  0  0
  2  8  1  0  0  0  0
  3 11  1  0  0  0  0
  3  4  1  0  0  0  0
  4 13  1  0  0  0  0
  4 12  1  0  0  0  0
  5 15  1  0  0  0  0
  5 14  1  0  0  0  0
  5  4  1  0  0  0  0
  6 16  1  6  0  0  0
  6  5  1  0  0  0  0
  9  2  1  0  0  0  0
 10  3  1  0  0  0  0
 17  1  1  0  0  0  0
 18 23  1  0  0  0  0
 18 17  1  0  0  0  0
 19 18  2  0  0  0  0
 20 21  2  0  0  0  0
 20 19  1  0  0  0  0
 21 22  1  0  0  0  0
 22 17  2  0  0  0  0
 24 19  1  0  0  0  0
 25 21  1  0  0  0  0
 26 27  2  0  0  0  0
 28 26  1  0  0  0  0
 28  6  1  0  0  0  0
 29 28  1  0  0  0  0
 30 31  1  0  0  0  0
 31 32  2  0  0  0  0
 31 26  1  0  0  0  0
 32 33  1  0  0  0  0
 34 35  1  0  0  0  0
 34 32  1  0  0  0  0
 36 34  2  0  0  0  0
 37 36  1  0  0  0  0
 37 30  2  0  0  0  0
 39 30  1  0  0  0  0
 39 38  1  0  0  0  0
 40 39  2  0  0  0  0
 41 39  2  0  0  0  0
M  END
>  <minimizedAffinity>
-5.42107964

>  <minimizedRMSD>
1.11041296

$$$$
