
 OpenBabel03272509303D

 41 43  0  0  1  0  0  0  0  0999 V2000
   36.5530   30.8610   48.8700 C   0  0  2  0  0  0  0  0  0  0  0  0
   37.4090   31.5630   49.8820 C   0  0  0  0  0  0  0  0  0  0  0  0
   38.0300   30.6110   50.8880 C   0  0  0  0  0  0  0  0  0  0  0  0
   36.9340   29.8140   51.5970 C   0  0  0  0  0  0  0  0  0  0  0  0
   35.7970   29.4080   50.7040 C   0  0  0  0  0  0  0  0  0  0  0  0
   36.2880   29.4450   49.2460 C   0  0  1  0  0  0  0  0  0  0  0  0
   35.5440   31.3560   48.7180 H   0  0  0  0  0  0  0  0  0  0  0  0
   36.6610   32.1560   50.5150 H   0  0  0  0  0  0  0  0  0  0  0  0
   38.1000   32.2970   49.5220 H   0  0  0  0  0  0  0  0  0  0  0  0
   38.7160   29.8830   50.4410 H   0  0  0  0  0  0  0  0  0  0  0  0
   38.5260   31.2320   51.6440 H   0  0  0  0  0  0  0  0  0  0  0  0
   36.5060   30.4160   52.4270 H   0  0  0  0  0  0  0  0  0  0  0  0
   37.4220   28.9050   51.9980 H   0  0  0  0  0  0  0  0  0  0  0  0
   34.8790   29.9930   50.8190 H   0  0  0  0  0  0  0  0  0  0  0  0
   35.5300   28.3450   50.8760 H   0  0  0  0  0  0  0  0  0  0  0  0
   37.1730   28.8750   49.3360 H   0  0  0  0  0  0  0  0  0  0  0  0
   37.1880   30.8900   47.5280 C   0  0  0  0  0  0  0  0  0  0  0  0
   38.5670   31.1840   47.5060 C   0  0  0  0  0  0  0  0  0  0  0  0
   39.1750   31.2130   46.2490 C   0  0  0  0  0  0  0  0  0  0  0  0
   38.4120   30.9580   45.1280 N   0  0  0  0  0  0  0  0  0  0  0  0
   37.0690   30.6760   45.2070 C   0  0  0  0  0  0  0  0  0  0  0  0
   36.4820   30.6490   46.4160 N   0  0  0  0  0  0  0  0  0  0  0  0
   39.2530   31.3820   48.3090 H   0  0  0  0  0  0  0  0  0  0  0  0
   40.2220   31.4260   46.0750 H   0  0  0  0  0  0  0  0  0  0  0  0
   36.6040   30.4960   44.2580 H   0  0  0  0  0  0  0  0  0  0  0  0
   34.1130   28.3610   48.4920 C   0  0  0  0  0  0  0  0  0  0  0  0
   33.2960   28.5810   49.4260 O   0  0  0  0  0  0  0  0  0  0  0  0
   35.4740   28.7220   48.3290 N   0  0  0  0  0  0  0  0  0  0  0  0
   35.8260   28.3610   47.3900 H   0  0  0  0  0  0  0  0  0  0  0  0
   32.6850   28.0890   46.4080 C   0  0  0  0  0  0  0  0  0  0  0  0
   33.3380   27.5940   47.5110 C   0  0  0  0  0  0  0  0  0  0  0  0
   33.3060   26.2330   47.7820 C   0  0  0  0  0  0  0  0  0  0  0  0
   33.7940   25.7740   48.6320 H   0  0  0  0  0  0  0  0  0  0  0  0
   32.6180   25.3860   46.9420 C   0  0  0  0  0  0  0  0  0  0  0  0
   32.5500   24.3060   47.0850 H   0  0  0  0  0  0  0  0  0  0  0  0
   31.9530   25.8520   45.8300 C   0  0  0  0  0  3  0  0  0  0  0  0
   31.9970   27.2160   45.5750 C   0  0  0  0  0  3  0  0  0  0  0  0
   33.4960   30.4440   47.1360 H   0  0  0  0  0  0  0  0  0  0  0  0
   32.7840   29.8210   46.1580 S   0  0  0  0  0  0  0  0  0  0  0  0
   33.5230   30.0670   44.8620 O   0  0  0  0  0  0  0  0  0  0  0  0
   31.4050   30.4100   45.9690 O   0  0  0  0  0  0  0  0  0  0  0  0
  1  7  1  6  0  0  0
  1  6  1  0  0  0  0
  1  2  1  0  0  0  0
  2  8  1  0  0  0  0
  2  3  1  0  0  0  0
  3  4  1  0  0  0  0
  3 11  1  0  0  0  0
  4 13  1  0  0  0  0
  4 12  1  0  0  0  0
  5 14  1  0  0  0  0
  5 15  1  0  0  0  0
  5  4  1  0  0  0  0
  6 16  1  6  0  0  0
  6  5  1  0  0  0  0
  9  2  1  0  0  0  0
 10  3  1  0  0  0  0
 17  1  1  0  0  0  0
 18 17  1  0  0  0  0
 18 23  1  0  0  0  0
 19 18  2  0  0  0  0
 20 21  2  0  0  0  0
 20 19  1  0  0  0  0
 21 22  1  0  0  0  0
 22 17  2  0  0  0  0
 24 19  1  0  0  0  0
 25 21  1  0  0  0  0
 26 27  2  0  0  0  0
 28 26  1  0  0  0  0
 28  6  1  0  0  0  0
 29 28  1  0  0  0  0
 30 31  1  0  0  0  0
 31 32  2  0  0  0  0
 31 26  1  0  0  0  0
 32 33  1  0  0  0  0
 34 35  1  0  0  0  0
 34 32  1  0  0  0  0
 36 34  2  0  0  0  0
 37 36  1  0  0  0  0
 37 30  2  0  0  0  0
 39 30  1  0  0  0  0
 39 38  1  0  0  0  0
 40 39  2  0  0  0  0
 41 39  2  0  0  0  0
M  END
>  <minimizedAffinity>
-5.92736769

>  <minimizedRMSD>
1.49855411

$$$$
