
 OpenBabel03272503243D

 35 37  0  0  1  0  0  0  0  0999 V2000
   37.1500   30.6790   48.2180 N   0  0  0  0  0  0  0  0  0  0  0  0
   37.4800   31.8050   47.4240 C   0  0  1  0  0  0  0  0  0  0  0  0
   38.3290   32.6830   48.3360 C   0  0  0  0  0  0  0  0  0  0  0  0
   38.3990   31.8850   49.6620 C   0  0  0  0  0  0  0  0  0  0  0  0
   38.2560   30.4820   49.1170 C   0  0  0  0  0  0  0  0  0  0  0  0
   36.5100   32.4670   47.3360 H   0  0  0  0  0  0  0  0  0  0  0  0
   37.9530   33.6920   48.4770 H   0  0  0  0  0  0  0  0  0  0  0  0
   39.3560   32.6520   47.9050 H   0  0  0  0  0  0  0  0  0  0  0  0
   39.3640   32.0550   50.1650 H   0  0  0  0  0  0  0  0  0  0  0  0
   37.5060   32.1310   50.2340 H   0  0  0  0  0  0  0  0  0  0  0  0
   38.0000   29.8100   49.9570 H   0  0  0  0  0  0  0  0  0  0  0  0
   39.1620   30.1540   48.5710 H   0  0  0  0  0  0  0  0  0  0  0  0
   35.9510   29.9120   48.1470 C   0  0  0  0  0  0  0  0  0  0  0  0
   35.0300   30.2170   47.1290 C   0  0  0  0  0  0  0  0  0  0  0  0
   33.8610   29.4530   47.0350 C   0  0  0  0  0  0  0  0  0  0  0  0
   33.6970   28.4510   47.9540 N   0  0  0  0  0  0  0  0  0  0  0  0
   34.6050   28.1850   48.9200 C   0  0  0  0  0  0  0  0  0  0  0  0
   35.7450   28.9270   49.0150 N   0  0  0  0  0  0  0  0  0  0  0  0
   35.1730   31.0010   46.4220 H   0  0  0  0  0  0  0  0  0  0  0  0
   33.1330   29.6620   46.2640 H   0  0  0  0  0  0  0  0  0  0  0  0
   34.3760   27.3720   49.5930 H   0  0  0  0  0  0  0  0  0  0  0  0
   37.9500   31.6000   46.0890 C   0  0  0  0  0  0  0  0  0  0  0  0
   38.5770   32.5380   45.5900 O   0  0  0  0  0  0  0  0  0  0  0  0
   37.0650   30.6780   43.9510 C   0  0  0  0  0  0  0  0  0  0  0  0
   37.9920   30.6800   44.9630 C   0  0  0  0  0  0  0  0  0  0  0  0
   39.0120   29.7650   44.8410 C   0  0  0  0  0  0  0  0  0  0  0  0
   39.8410   29.6100   45.4980 H   0  0  0  0  0  0  0  0  0  0  0  0
   39.1930   28.8610   43.8200 C   0  0  0  0  0  0  0  0  0  0  0  0
   39.9590   28.1230   43.6630 H   0  0  0  0  0  0  0  0  0  0  0  0
   38.2470   28.8810   42.8190 C   0  0  0  0  0  3  0  0  0  0  0  0
   37.2040   29.7690   42.8790 C   0  0  0  0  0  3  0  0  0  0  0  0
   35.5330   32.3820   45.0770 H   0  0  0  0  0  0  0  0  0  0  0  0
   35.6900   31.7460   43.8940 S   0  0  0  0  0  0  0  0  0  0  0  0
   34.4930   30.9750   43.4250 O   0  0  0  0  0  0  0  0  0  0  0  0
   35.9290   32.8400   42.8640 O   0  0  0  0  0  0  0  0  0  0  0  0
  1  5  1  0  0  0  0
  2  6  1  6  0  0  0
  2  1  1  0  0  0  0
  2  3  1  0  0  0  0
  3  7  1  0  0  0  0
  3  4  1  0  0  0  0
  4  9  1  0  0  0  0
  4 10  1  0  0  0  0
  5  4  1  0  0  0  0
  5 11  1  0  0  0  0
  8  3  1  0  0  0  0
 12  5  1  0  0  0  0
 13  1  1  0  0  0  0
 13 18  1  0  0  0  0
 14 13  2  0  0  0  0
 15 14  1  0  0  0  0
 15 16  2  0  0  0  0
 16 17  1  0  0  0  0
 17 18  2  0  0  0  0
 17 21  1  0  0  0  0
 19 14  1  0  0  0  0
 20 15  1  0  0  0  0
 22  2  1  0  0  0  0
 23 22  2  0  0  0  0
 24 25  1  0  0  0  0
 25 22  1  0  0  0  0
 26 25  2  0  0  0  0
 26 27  1  0  0  0  0
 28 26  1  0  0  0  0
 29 28  1  0  0  0  0
 30 31  1  0  0  0  0
 30 28  2  0  0  0  0
 31 24  2  0  0  0  0
 33 24  1  0  0  0  0
 33 32  1  0  0  0  0
 34 33  2  0  0  0  0
 35 33  2  0  0  0  0
M  END
>  <minimizedAffinity>
-4.59707642

>  <minimizedRMSD>
1.58162224

$$$$
