
 OpenBabel03272509303D

 41 43  0  0  1  0  0  0  0  0999 V2000
   36.5400   30.8570   48.8700 C   0  0  2  0  0  0  0  0  0  0  0  0
   37.3850   31.5650   49.8880 C   0  0  0  0  0  0  0  0  0  0  0  0
   38.0090   30.6170   50.8950 C   0  0  0  0  0  0  0  0  0  0  0  0
   36.9160   29.8100   51.5970 C   0  0  0  0  0  0  0  0  0  0  0  0
   35.7860   29.3960   50.6980 C   0  0  0  0  0  0  0  0  0  0  0  0
   36.2840   29.4390   49.2420 C   0  0  1  0  0  0  0  0  0  0  0  0
   35.5280   31.3450   48.7140 H   0  0  0  0  0  0  0  0  0  0  0  0
   36.6290   32.1510   50.5170 H   0  0  0  0  0  0  0  0  0  0  0  0
   38.0720   32.3050   49.5320 H   0  0  0  0  0  0  0  0  0  0  0  0
   38.7030   29.8960   50.4500 H   0  0  0  0  0  0  0  0  0  0  0  0
   38.4950   31.2410   51.6540 H   0  0  0  0  0  0  0  0  0  0  0  0
   36.4780   30.4070   52.4250 H   0  0  0  0  0  0  0  0  0  0  0  0
   37.4090   28.9050   51.9990 H   0  0  0  0  0  0  0  0  0  0  0  0
   34.8630   29.9730   50.8090 H   0  0  0  0  0  0  0  0  0  0  0  0
   35.5270   28.3300   50.8670 H   0  0  0  0  0  0  0  0  0  0  0  0
   37.1740   28.8770   49.3360 H   0  0  0  0  0  0  0  0  0  0  0  0
   37.1810   30.8940   47.5310 C   0  0  0  0  0  0  0  0  0  0  0  0
   38.5590   31.1950   47.5160 C   0  0  0  0  0  0  0  0  0  0  0  0
   39.1730   31.2310   46.2630 C   0  0  0  0  0  0  0  0  0  0  0  0
   38.4170   30.9760   45.1370 N   0  0  0  0  0  0  0  0  0  0  0  0
   37.0750   30.6870   45.2090 C   0  0  0  0  0  0  0  0  0  0  0  0
   36.4820   30.6540   46.4150 N   0  0  0  0  0  0  0  0  0  0  0  0
   39.2400   31.3930   48.3230 H   0  0  0  0  0  0  0  0  0  0  0  0
   40.2200   31.4490   46.0950 H   0  0  0  0  0  0  0  0  0  0  0  0
   36.6150   30.5080   44.2570 H   0  0  0  0  0  0  0  0  0  0  0  0
   34.1240   28.3350   48.4770 C   0  0  0  0  0  0  0  0  0  0  0  0
   33.3010   28.5420   49.4100 O   0  0  0  0  0  0  0  0  0  0  0  0
   35.4810   28.7110   48.3200 N   0  0  0  0  0  0  0  0  0  0  0  0
   35.8400   28.3580   47.3810 H   0  0  0  0  0  0  0  0  0  0  0  0
   32.6850   28.0580   46.4020 C   0  0  0  0  0  0  0  0  0  0  0  0
   33.3600   27.5620   47.4910 C   0  0  0  0  0  0  0  0  0  0  0  0
   33.3660   26.1970   47.7420 C   0  0  0  0  0  0  0  0  0  0  0  0
   33.8730   25.7380   48.5810 H   0  0  0  0  0  0  0  0  0  0  0  0
   32.6930   25.3460   46.8940 C   0  0  0  0  0  0  0  0  0  0  0  0
   32.6540   24.2630   47.0200 H   0  0  0  0  0  0  0  0  0  0  0  0
   32.0070   25.8120   45.7950 C   0  0  0  0  0  3  0  0  0  0  0  0
   32.0120   27.1800   45.5610 C   0  0  0  0  0  3  0  0  0  0  0  0
   33.4100   30.4240   47.1780 H   0  0  0  0  0  0  0  0  0  0  0  0
   32.7370   29.7960   46.1780 S   0  0  0  0  0  0  0  0  0  0  0  0
   33.4930   30.0820   44.9000 O   0  0  0  0  0  0  0  0  0  0  0  0
   31.3430   30.3450   45.9700 O   0  0  0  0  0  0  0  0  0  0  0  0
  1  7  1  6  0  0  0
  1  6  1  0  0  0  0
  1  2  1  0  0  0  0
  2  8  1  0  0  0  0
  2  3  1  0  0  0  0
  3  4  1  0  0  0  0
  3 11  1  0  0  0  0
  4 13  1  0  0  0  0
  4 12  1  0  0  0  0
  5 14  1  0  0  0  0
  5 15  1  0  0  0  0
  5  4  1  0  0  0  0
  6 16  1  1  0  0  0
  6  5  1  0  0  0  0
  9  2  1  0  0  0  0
 10  3  1  0  0  0  0
 17  1  1  0  0  0  0
 18 17  1  0  0  0  0
 18 23  1  0  0  0  0
 19 18  2  0  0  0  0
 20 21  2  0  0  0  0
 20 19  1  0  0  0  0
 21 22  1  0  0  0  0
 22 17  2  0  0  0  0
 24 19  1  0  0  0  0
 25 21  1  0  0  0  0
 26 27  2  0  0  0  0
 28 26  1  0  0  0  0
 28  6  1  0  0  0  0
 29 28  1  0  0  0  0
 30 31  1  0  0  0  0
 31 32  2  0  0  0  0
 31 26  1  0  0  0  0
 32 33  1  0  0  0  0
 34 35  1  0  0  0  0
 34 32  1  0  0  0  0
 36 34  2  0  0  0  0
 37 36  1  0  0  0  0
 37 30  2  0  0  0  0
 39 30  1  0  0  0  0
 39 38  1  0  0  0  0
 40 39  2  0  0  0  0
 41 39  2  0  0  0  0
M  END
>  <minimizedAffinity>
-5.93591499

>  <minimizedRMSD>
1.25514114

$$$$
