
 OpenBabel03272501293D

 23 24  0  0  0  0  0  0  0  0999 V2000
   37.1440   30.6930   46.5460 C   0  0  0  0  0  0  0  0  0  0  0  0
   38.1820   31.2900   47.2330 C   0  0  0  0  0  0  0  0  0  0  0  0
   39.4380   31.3460   46.6630 C   0  0  0  0  0  0  0  0  0  0  0  0
   40.2120   31.8190   47.2310 H   0  0  0  0  0  0  0  0  0  0  0  0
   39.7280   30.8350   45.4280 C   0  0  0  0  0  0  0  0  0  0  0  0
   40.7480   30.9280   45.0630 H   0  0  0  0  0  0  0  0  0  0  0  0
   38.6950   30.2330   44.7300 C   0  0  0  0  0  3  0  0  0  0  0  0
   37.4160   30.1670   45.2920 C   0  0  0  0  0  3  0  0  0  0  0  0
   35.0200   31.5470   47.7770 H   0  0  0  0  0  0  0  0  0  0  0  0
   35.5000   30.5060   47.0560 S   0  0  0  0  0  0  0  0  0  0  0  0
   35.4010   29.2360   47.8830 O   0  0  0  0  0  0  0  0  0  0  0  0
   34.5830   30.2610   45.8660 O   0  0  0  0  0  0  0  0  0  0  0  0
   37.8200   31.8190   48.5440 C   0  0  0  0  0  0  0  0  0  0  0  0
   37.6570   33.0490   48.6690 O   0  0  0  0  0  0  0  0  0  0  0  0
   36.9490   30.2740   51.8360 C   0  0  0  0  0  0  0  0  0  0  0  0
   37.0650   31.2310   50.8250 C   0  0  0  0  0  0  0  0  0  0  0  0
   37.6730   30.8620   49.6320 C   0  0  0  0  0  0  0  0  0  0  0  0
   38.1110   29.5880   49.5440 N   0  0  0  0  0  0  0  0  0  0  0  0
   37.9940   28.6820   50.5180 C   0  0  0  0  0  0  0  0  0  0  0  0
   37.4130   29.0150   51.6700 N   0  0  0  0  0  0  0  0  0  0  0  0
   36.4940   30.4860   52.7780 H   0  0  0  0  0  0  0  0  0  0  0  0
   36.6810   32.2400   50.9870 H   0  0  0  0  0  0  0  0  0  0  0  0
   38.3830   27.6680   50.3460 H   0  0  0  0  0  0  0  0  0  0  0  0
  1 10  1  0  0  0  0
  1  2  1  0  0  0  0
  2 13  1  0  0  0  0
  3  4  1  0  0  0  0
  3  2  2  0  0  0  0
  5  3  1  0  0  0  0
  6  5  1  0  0  0  0
  7  8  1  0  0  0  0
  7  5  2  0  0  0  0
  8  1  2  0  0  0  0
 10  9  1  0  0  0  0
 10 11  2  0  0  0  0
 12 10  2  0  0  0  0
 13 14  2  0  0  0  0
 13 17  1  0  0  0  0
 15 21  1  0  0  0  0
 16 22  1  0  0  0  0
 16 15  2  0  0  0  0
 17 16  1  0  0  0  0
 18 17  2  0  0  0  0
 18 19  1  0  0  0  0
 19 20  2  0  0  0  0
 20 15  1  0  0  0  0
 23 19  1  0  0  0  0
M  END
>  <minimizedAffinity>
-3.10522866

>  <minimizedRMSD>
1.54538512

$$$$
