
 OpenBabel03262522083D

 23 24  0  0  0  0  0  0  0  0999 V2000
   38.4300   31.9480   47.8040 C   0  0  0  0  0  0  0  0  0  0  0  0
   37.5760   31.0330   47.2590 C   0  0  0  0  0  0  0  0  0  0  0  0
   37.9230   30.4330   46.0660 C   0  0  0  0  0  0  0  0  0  0  0  0
   37.2070   29.7020   45.6620 H   0  0  0  0  0  0  0  0  0  0  0  0
   39.0880   30.7190   45.4050 C   0  0  0  0  0  0  0  0  0  0  0  0
   39.2480   30.1870   44.4800 H   0  0  0  0  0  0  0  0  0  0  0  0
   39.9530   31.6530   45.9660 C   0  0  0  0  0  3  0  0  0  0  0  0
   39.6230   32.2720   47.1740 C   0  0  0  0  0  3  0  0  0  0  0  0
   37.8820   31.8360   50.2870 H   0  0  0  0  0  0  0  0  0  0  0  0
   38.1230   32.7760   49.2960 S   0  0  0  0  0  0  0  0  0  0  0  0
   39.3360   33.5540   49.7630 O   0  0  0  0  0  0  0  0  0  0  0  0
   37.0020   33.7380   49.2120 O   0  0  0  0  0  0  0  0  0  0  0  0
   36.3270   30.7100   47.9440 C   0  0  0  0  0  0  0  0  0  0  0  0
   35.1320   30.8000   47.6700 O   0  0  0  0  0  0  0  0  0  0  0  0
   37.8930   29.5640   49.5310 C   0  0  0  0  0  0  0  0  0  0  0  0
   36.6110   30.1400   49.2850 C   0  0  0  0  0  0  0  0  0  0  0  0
   35.6730   30.1420   50.3280 C   0  0  0  0  0  0  0  0  0  0  0  0
   36.0320   29.5980   51.5080 N   0  0  0  0  0  0  0  0  0  0  0  0
   37.2510   29.0610   51.7100 C   0  0  0  0  0  0  0  0  0  0  0  0
   38.1770   29.0390   50.7410 N   0  0  0  0  0  0  0  0  0  0  0  0
   38.6330   29.5530   48.7360 H   0  0  0  0  0  0  0  0  0  0  0  0
   34.7100   30.5860   50.1090 H   0  0  0  0  0  0  0  0  0  0  0  0
   37.4920   28.6330   52.6890 H   0  0  0  0  0  0  0  0  0  0  0  0
  1 10  1  0  0  0  0
  2  1  1  0  0  0  0
  2 13  1  0  0  0  0
  3  2  2  0  0  0  0
  4  3  1  0  0  0  0
  5  7  2  0  0  0  0
  5  3  1  0  0  0  0
  6  5  1  0  0  0  0
  7  8  1  0  0  0  0
  8  1  2  0  0  0  0
 10 11  2  0  0  0  0
 10  9  1  0  0  0  0
 12 10  2  0  0  0  0
 13 16  1  0  0  0  0
 14 13  2  0  0  0  0
 15 20  1  0  0  0  0
 16 15  2  0  0  0  0
 16 17  1  0  0  0  0
 17 18  2  0  0  0  0
 18 19  1  0  0  0  0
 19 23  1  0  0  0  0
 20 19  2  0  0  0  0
 21 15  1  0  0  0  0
 22 17  1  0  0  0  0
M  END
>  <minimizedAffinity>
-3.37713957

>  <minimizedRMSD>
4.54222012

$$$$
