
 OpenBabel03272501313D

 23 24  0  0  0  0  0  0  0  0999 V2000
   38.8740   27.0170   33.3000 C   0  0  0  0  0  0  0  0  0  0  0  0
   39.5240   26.7130   34.4800 C   0  0  0  0  0  0  0  0  0  0  0  0
   40.9050   26.7020   34.5190 C   0  0  0  0  0  0  0  0  0  0  0  0
   41.3650   26.4610   35.4550 H   0  0  0  0  0  0  0  0  0  0  0  0
   41.6900   26.9810   33.4350 C   0  0  0  0  0  0  0  0  0  0  0  0
   42.7700   26.9470   33.5650 H   0  0  0  0  0  0  0  0  0  0  0  0
   41.0500   27.2870   32.2460 C   0  0  0  0  0  3  0  0  0  0  0  0
   39.6520   27.3020   32.1890 C   0  0  0  0  0  3  0  0  0  0  0  0
   36.4280   27.3180   34.1250 H   0  0  0  0  0  0  0  0  0  0  0  0
   37.1690   27.0910   33.0150 S   0  0  0  0  0  0  0  0  0  0  0  0
   36.7360   25.7780   32.3840 O   0  0  0  0  0  0  0  0  0  0  0  0
   36.8340   28.1460   31.9690 O   0  0  0  0  0  0  0  0  0  0  0  0
   38.6410   26.4230   35.6050 C   0  0  0  0  0  0  0  0  0  0  0  0
   38.2110   27.3730   36.2880 O   0  0  0  0  0  0  0  0  0  0  0  0
   37.6580   23.2460   37.3160 C   0  0  0  0  0  0  0  0  0  0  0  0
   37.9570   24.5980   37.1290 C   0  0  0  0  0  0  0  0  0  0  0  0
   38.3190   25.0250   35.8570 C   0  0  0  0  0  0  0  0  0  0  0  0
   38.3540   24.0840   34.8900 N   0  0  0  0  0  0  0  0  0  0  0  0
   38.0660   22.7950   35.0810 C   0  0  0  0  0  0  0  0  0  0  0  0
   37.7160   22.3640   36.2930 N   0  0  0  0  0  0  0  0  0  0  0  0
   37.3730   22.8470   38.2640 H   0  0  0  0  0  0  0  0  0  0  0  0
   37.9010   25.2870   37.9730 H   0  0  0  0  0  0  0  0  0  0  0  0
   38.1240   22.1080   34.2250 H   0  0  0  0  0  0  0  0  0  0  0  0
  1  2  1  0  0  0  0
  2  3  2  0  0  0  0
  2 13  1  0  0  0  0
  3  4  1  0  0  0  0
  5  6  1  0  0  0  0
  5  3  1  0  0  0  0
  7  5  2  0  0  0  0
  8  7  1  0  0  0  0
  8  1  2  0  0  0  0
 10  1  1  0  0  0  0
 10  9  1  0  0  0  0
 11 10  2  0  0  0  0
 12 10  2  0  0  0  0
 13 17  1  0  0  0  0
 13 14  2  0  0  0  0
 15 21  1  0  0  0  0
 16 15  1  0  0  0  0
 16 22  1  0  0  0  0
 17 16  2  0  0  0  0
 18 19  2  0  0  0  0
 18 17  1  0  0  0  0
 19 20  1  0  0  0  0
 20 15  2  0  0  0  0
 23 19  1  0  0  0  0
M  END
>  <minimizedAffinity>
-4.44127989

$$$$

 OpenBabel03272501313D

 23 24  0  0  0  0  0  0  0  0999 V2000
   36.6840   26.1460   32.2220 C   0  0  0  0  0  0  0  0  0  0  0  0
   37.1790   24.8720   32.4130 C   0  0  0  0  0  0  0  0  0  0  0  0
   36.5470   23.7940   31.8230 C   0  0  0  0  0  0  0  0  0  0  0  0
   36.9670   22.8250   31.9990 H   0  0  0  0  0  0  0  0  0  0  0  0
   35.4330   23.9130   31.0400 C   0  0  0  0  0  0  0  0  0  0  0  0
   35.0060   23.0040   30.6190 H   0  0  0  0  0  0  0  0  0  0  0  0
   34.9260   25.1860   30.8410 C   0  0  0  0  0  3  0  0  0  0  0  0
   35.5530   26.2880   31.4320 C   0  0  0  0  0  3  0  0  0  0  0  0
   38.6280   27.6130   33.1280 H   0  0  0  0  0  0  0  0  0  0  0  0
   37.3020   27.6330   32.8560 S   0  0  0  0  0  0  0  0  0  0  0  0
   36.5360   27.9640   34.1250 O   0  0  0  0  0  0  0  0  0  0  0  0
   37.0050   28.7940   31.9160 O   0  0  0  0  0  0  0  0  0  0  0  0
   38.3690   24.8000   33.2560 C   0  0  0  0  0  0  0  0  0  0  0  0
   39.4640   25.1470   32.7750 O   0  0  0  0  0  0  0  0  0  0  0  0
   37.9820   24.7000   36.9740 C   0  0  0  0  0  0  0  0  0  0  0  0
   38.1550   25.2110   35.6870 C   0  0  0  0  0  0  0  0  0  0  0  0
   38.1910   24.3210   34.6200 C   0  0  0  0  0  0  0  0  0  0  0  0
   38.0560   23.0120   34.9200 N   0  0  0  0  0  0  0  0  0  0  0  0
   37.8910   22.5350   36.1560 C   0  0  0  0  0  0  0  0  0  0  0  0
   37.8520   23.3710   37.1920 N   0  0  0  0  0  0  0  0  0  0  0  0
   37.9440   25.3230   37.8400 H   0  0  0  0  0  0  0  0  0  0  0  0
   38.2560   26.2880   35.5400 H   0  0  0  0  0  0  0  0  0  0  0  0
   37.7890   21.4490   36.2930 H   0  0  0  0  0  0  0  0  0  0  0  0
  1  2  1  0  0  0  0
  1 10  1  0  0  0  0
  2 13  1  0  0  0  0
  3  4  1  0  0  0  0
  3  2  2  0  0  0  0
  5  3  1  0  0  0  0
  6  5  1  0  0  0  0
  7  5  2  0  0  0  0
  7  8  1  0  0  0  0
  8  1  2  0  0  0  0
 10  9  1  0  0  0  0
 10 11  2  0  0  0  0
 12 10  2  0  0  0  0
 13 17  1  0  0  0  0
 14 13  2  0  0  0  0
 15 20  1  0  0  0  0
 15 21  1  0  0  0  0
 16 15  2  0  0  0  0
 17 18  2  0  0  0  0
 17 16  1  0  0  0  0
 18 19  1  0  0  0  0
 19 23  1  0  0  0  0
 19 20  2  0  0  0  0
 22 16  1  0  0  0  0
M  END
>  <minimizedAffinity>
-4.4244194

$$$$

 OpenBabel03272501313D

 23 24  0  0  0  0  0  0  0  0999 V2000
   38.4000   24.6890   35.8380 C   0  0  0  0  0  0  0  0  0  0  0  0
   38.6460   24.6020   34.4830 C   0  0  0  0  0  0  0  0  0  0  0  0
   38.7520   25.7550   33.7290 C   0  0  0  0  0  0  0  0  0  0  0  0
   38.9430   25.6390   32.6830 H   0  0  0  0  0  0  0  0  0  0  0  0
   38.6240   27.0110   34.2550 C   0  0  0  0  0  0  0  0  0  0  0  0
   38.7230   27.8590   33.5800 H   0  0  0  0  0  0  0  0  0  0  0  0
   38.3760   27.1110   35.6140 C   0  0  0  0  0  3  0  0  0  0  0  0
   38.2660   25.9530   36.3910 C   0  0  0  0  0  3  0  0  0  0  0  0
   37.4750   22.3610   36.5290 H   0  0  0  0  0  0  0  0  0  0  0  0
   38.2290   23.3930   36.9730 S   0  0  0  0  0  0  0  0  0  0  0  0
   37.6130   23.9530   38.2440 O   0  0  0  0  0  0  0  0  0  0  0  0
   39.5900   22.8640   37.4080 O   0  0  0  0  0  0  0  0  0  0  0  0
   38.7730   23.2400   33.9720 C   0  0  0  0  0  0  0  0  0  0  0  0
   39.8930   22.6940   34.0000 O   0  0  0  0  0  0  0  0  0  0  0  0
   35.7960   22.4370   31.8570 C   0  0  0  0  0  0  0  0  0  0  0  0
   36.9510   23.0810   32.3080 C   0  0  0  0  0  0  0  0  0  0  0  0
   37.5680   22.6060   33.4580 C   0  0  0  0  0  0  0  0  0  0  0  0
   36.9920   21.5430   34.0590 N   0  0  0  0  0  0  0  0  0  0  0  0
   35.8880   20.9340   33.6180 C   0  0  0  0  0  0  0  0  0  0  0  0
   35.2810   21.3740   32.5160 N   0  0  0  0  0  0  0  0  0  0  0  0
   35.2700   22.7460   30.9810 H   0  0  0  0  0  0  0  0  0  0  0  0
   37.3450   23.9360   31.7550 H   0  0  0  0  0  0  0  0  0  0  0  0
   35.4990   20.0730   34.1800 H   0  0  0  0  0  0  0  0  0  0  0  0
  1  8  1  0  0  0  0
  1 10  1  0  0  0  0
  2  1  2  0  0  0  0
  3  5  2  0  0  0  0
  3  2  1  0  0  0  0
  4  3  1  0  0  0  0
  5  7  1  0  0  0  0
  6  5  1  0  0  0  0
  7  8  2  0  0  0  0
  9 10  1  0  0  0  0
 10 12  2  0  0  0  0
 10 11  2  0  0  0  0
 13 14  2  0  0  0  0
 13  2  1  0  0  0  0
 15 16  2  0  0  0  0
 15 20  1  0  0  0  0
 16 17  1  0  0  0  0
 17 13  1  0  0  0  0
 17 18  2  0  0  0  0
 19 18  1  0  0  0  0
 19 23  1  0  0  0  0
 20 19  2  0  0  0  0
 21 15  1  0  0  0  0
 22 16  1  0  0  0  0
M  END
>  <minimizedAffinity>
-4.39572144

$$$$

 OpenBabel03272501313D

 23 24  0  0  0  0  0  0  0  0999 V2000
   39.7900   23.0700   36.4480 C   0  0  0  0  0  0  0  0  0  0  0  0
   38.7730   23.8580   35.9500 C   0  0  0  0  0  0  0  0  0  0  0  0
   37.8430   24.4050   36.8130 C   0  0  0  0  0  0  0  0  0  0  0  0
   37.0730   25.0100   36.3820 H   0  0  0  0  0  0  0  0  0  0  0  0
   37.8680   24.2110   38.1660 C   0  0  0  0  0  0  0  0  0  0  0  0
   37.0910   24.6840   38.7630 H   0  0  0  0  0  0  0  0  0  0  0  0
   38.8840   23.4210   38.6780 C   0  0  0  0  0  3  0  0  0  0  0  0
   39.8330   22.8590   37.8180 C   0  0  0  0  0  3  0  0  0  0  0  0
   40.6600   21.7320   34.3970 H   0  0  0  0  0  0  0  0  0  0  0  0
   41.0570   22.2850   35.5660 S   0  0  0  0  0  0  0  0  0  0  0  0
   41.6550   21.2070   36.4530 O   0  0  0  0  0  0  0  0  0  0  0  0
   42.2100   23.2430   35.2960 O   0  0  0  0  0  0  0  0  0  0  0  0
   38.7920   24.0340   34.5000 C   0  0  0  0  0  0  0  0  0  0  0  0
   39.5850   24.8610   34.0090 O   0  0  0  0  0  0  0  0  0  0  0  0
   36.4950   22.8620   31.7930 C   0  0  0  0  0  0  0  0  0  0  0  0
   37.3760   23.6800   32.5030 C   0  0  0  0  0  0  0  0  0  0  0  0
   37.8710   23.2220   33.7180 C   0  0  0  0  0  0  0  0  0  0  0  0
   37.4530   22.0030   34.1210 N   0  0  0  0  0  0  0  0  0  0  0  0
   36.6100   21.2300   33.4320 C   0  0  0  0  0  0  0  0  0  0  0  0
   36.1250   21.6500   32.2650 N   0  0  0  0  0  0  0  0  0  0  0  0
   36.0760   23.1480   30.8530 H   0  0  0  0  0  0  0  0  0  0  0  0
   37.6590   24.6530   32.0980 H   0  0  0  0  0  0  0  0  0  0  0  0
   36.3320   20.2510   33.8480 H   0  0  0  0  0  0  0  0  0  0  0  0
  1  8  1  0  0  0  0
  2  1  2  0  0  0  0
  2  3  1  0  0  0  0
  3  5  2  0  0  0  0
  4  3  1  0  0  0  0
  5  7  1  0  0  0  0
  5  6  1  0  0  0  0
  8  7  2  0  0  0  0
  9 10  1  0  0  0  0
 10  1  1  0  0  0  0
 10 11  2  0  0  0  0
 12 10  2  0  0  0  0
 13  2  1  0  0  0  0
 14 13  2  0  0  0  0
 15 20  2  0  0  0  0
 15 16  1  0  0  0  0
 16 17  2  0  0  0  0
 17 18  1  0  0  0  0
 17 13  1  0  0  0  0
 19 23  1  0  0  0  0
 19 18  2  0  0  0  0
 20 19  1  0  0  0  0
 21 15  1  0  0  0  0
 22 16  1  0  0  0  0
M  END
>  <minimizedAffinity>
-4.36421394

$$$$

 OpenBabel03272501313D

 23 24  0  0  0  0  0  0  0  0999 V2000
   38.1110   27.2390   32.8940 C   0  0  0  0  0  0  0  0  0  0  0  0
   37.9650   27.2030   34.2660 C   0  0  0  0  0  0  0  0  0  0  0  0
   36.9460   27.9150   34.8670 C   0  0  0  0  0  0  0  0  0  0  0  0
   36.8710   27.8570   35.9330 H   0  0  0  0  0  0  0  0  0  0  0  0
   36.0480   28.6750   34.1700 C   0  0  0  0  0  0  0  0  0  0  0  0
   35.2800   29.2010   34.7330 H   0  0  0  0  0  0  0  0  0  0  0  0
   36.1850   28.7200   32.7920 C   0  0  0  0  0  3  0  0  0  0  0  0
   37.2120   28.0050   32.1680 C   0  0  0  0  0  3  0  0  0  0  0  0
   39.7180   25.2490   32.4340 H   0  0  0  0  0  0  0  0  0  0  0  0
   39.3030   26.4340   31.9300 S   0  0  0  0  0  0  0  0  0  0  0  0
   40.4980   27.3610   31.7810 O   0  0  0  0  0  0  0  0  0  0  0  0
   38.8030   26.2220   30.5070 O   0  0  0  0  0  0  0  0  0  0  0  0
   38.9480   26.3770   34.9620 C   0  0  0  0  0  0  0  0  0  0  0  0
   40.0940   26.8340   35.1400 O   0  0  0  0  0  0  0  0  0  0  0  0
   37.6750   23.5730   37.0830 C   0  0  0  0  0  0  0  0  0  0  0  0
   38.0780   24.8570   36.7090 C   0  0  0  0  0  0  0  0  0  0  0  0
   38.5170   25.0590   35.4060 C   0  0  0  0  0  0  0  0  0  0  0  0
   38.5200   23.9810   34.5940 N   0  0  0  0  0  0  0  0  0  0  0  0
   38.1320   22.7580   34.9640 C   0  0  0  0  0  0  0  0  0  0  0  0
   37.7070   22.5420   36.2080 N   0  0  0  0  0  0  0  0  0  0  0  0
   37.3260   23.3440   38.0660 H   0  0  0  0  0  0  0  0  0  0  0  0
   38.0410   25.6700   37.4350 H   0  0  0  0  0  0  0  0  0  0  0  0
   38.1720   21.9450   34.2240 H   0  0  0  0  0  0  0  0  0  0  0  0
  1  2  1  0  0  0  0
  2  3  2  0  0  0  0
  2 13  1  0  0  0  0
  3  4  1  0  0  0  0
  5  6  1  0  0  0  0
  5  3  1  0  0  0  0
  7  5  2  0  0  0  0
  8  7  1  0  0  0  0
  8  1  2  0  0  0  0
 10  9  1  0  0  0  0
 10  1  1  0  0  0  0
 11 10  2  0  0  0  0
 12 10  2  0  0  0  0
 13 14  2  0  0  0  0
 13 17  1  0  0  0  0
 15 21  1  0  0  0  0
 16 15  1  0  0  0  0
 16 22  1  0  0  0  0
 17 16  2  0  0  0  0
 18 19  2  0  0  0  0
 18 17  1  0  0  0  0
 19 20  1  0  0  0  0
 20 15  2  0  0  0  0
 23 19  1  0  0  0  0
M  END
>  <minimizedAffinity>
-4.33599091

$$$$

 OpenBabel03272501313D

 23 24  0  0  0  0  0  0  0  0999 V2000
   34.2650   30.5310   34.5920 C   0  0  0  0  0  0  0  0  0  0  0  0
   33.3770   30.9800   35.5480 C   0  0  0  0  0  0  0  0  0  0  0  0
   33.8370   31.7340   36.6110 C   0  0  0  0  0  0  0  0  0  0  0  0
   33.1120   32.0610   37.3280 H   0  0  0  0  0  0  0  0  0  0  0  0
   35.1510   32.0720   36.7800 C   0  0  0  0  0  0  0  0  0  0  0  0
   35.4160   32.6690   37.6500 H   0  0  0  0  0  0  0  0  0  0  0  0
   36.0520   31.6270   35.8270 C   0  0  0  0  0  3  0  0  0  0  0  0
   35.6030   30.8620   34.7450 C   0  0  0  0  0  3  0  0  0  0  0  0
   32.9460   28.6600   33.3620 H   0  0  0  0  0  0  0  0  0  0  0  0
   33.9220   29.5810   33.1860 S   0  0  0  0  0  0  0  0  0  0  0  0
   35.2020   28.8800   32.7630 O   0  0  0  0  0  0  0  0  0  0  0  0
   33.5620   30.4670   32.0010 O   0  0  0  0  0  0  0  0  0  0  0  0
   31.9880   30.5920   35.3210 C   0  0  0  0  0  0  0  0  0  0  0  0
   31.2720   31.3230   34.6100 O   0  0  0  0  0  0  0  0  0  0  0  0
   30.5940   27.1610   35.8390 C   0  0  0  0  0  0  0  0  0  0  0  0
   31.0210   28.3200   35.1850 C   0  0  0  0  0  0  0  0  0  0  0  0
   31.5280   29.3620   35.9510 C   0  0  0  0  0  0  0  0  0  0  0  0
   31.5680   29.1690   37.2860 N   0  0  0  0  0  0  0  0  0  0  0  0
   31.1570   28.0570   37.8990 C   0  0  0  0  0  0  0  0  0  0  0  0
   30.6670   27.0450   37.1840 N   0  0  0  0  0  0  0  0  0  0  0  0
   30.1940   26.3210   35.3150 H   0  0  0  0  0  0  0  0  0  0  0  0
   30.9510   28.3860   34.0980 H   0  0  0  0  0  0  0  0  0  0  0  0
   31.2320   27.9990   38.9950 H   0  0  0  0  0  0  0  0  0  0  0  0
  1  8  2  0  0  0  0
  1  2  1  0  0  0  0
  2  3  2  0  0  0  0
  3  5  1  0  0  0  0
  3  4  1  0  0  0  0
  5  6  1  0  0  0  0
  7  5  2  0  0  0  0
  8  7  1  0  0  0  0
 10  9  1  0  0  0  0
 10  1  1  0  0  0  0
 11 10  2  0  0  0  0
 12 10  2  0  0  0  0
 13  2  1  0  0  0  0
 13 17  1  0  0  0  0
 14 13  2  0  0  0  0
 15 20  1  0  0  0  0
 16 15  2  0  0  0  0
 16 17  1  0  0  0  0
 17 18  2  0  0  0  0
 18 19  1  0  0  0  0
 19 23  1  0  0  0  0
 20 19  2  0  0  0  0
 21 15  1  0  0  0  0
 22 16  1  0  0  0  0
M  END
>  <minimizedAffinity>
-4.32633495

$$$$

 OpenBabel03272501313D

 23 24  0  0  0  0  0  0  0  0999 V2000
   38.4130   25.1670   35.5260 C   0  0  0  0  0  0  0  0  0  0  0  0
   38.2580   23.9970   34.8090 C   0  0  0  0  0  0  0  0  0  0  0  0
   37.8940   22.8360   35.4620 C   0  0  0  0  0  0  0  0  0  0  0  0
   37.7860   21.9530   34.8660 H   0  0  0  0  0  0  0  0  0  0  0  0
   37.6720   22.7690   36.8100 C   0  0  0  0  0  0  0  0  0  0  0  0
   37.3900   21.8070   37.2330 H   0  0  0  0  0  0  0  0  0  0  0  0
   37.8250   23.9360   37.5400 C   0  0  0  0  0  3  0  0  0  0  0  0
   38.1940   25.1210   36.8940 C   0  0  0  0  0  3  0  0  0  0  0  0
   38.4970   26.9570   33.6440 H   0  0  0  0  0  0  0  0  0  0  0  0
   38.8590   26.7290   34.9280 S   0  0  0  0  0  0  0  0  0  0  0  0
   40.3660   26.8740   35.0570 O   0  0  0  0  0  0  0  0  0  0  0  0
   38.2910   27.8350   35.8080 O   0  0  0  0  0  0  0  0  0  0  0  0
   38.5070   24.1230   33.3760 C   0  0  0  0  0  0  0  0  0  0  0  0
   39.6810   24.0580   32.9650 O   0  0  0  0  0  0  0  0  0  0  0  0
   35.5570   23.4740   31.1710 C   0  0  0  0  0  0  0  0  0  0  0  0
   36.6610   23.2300   31.9920 C   0  0  0  0  0  0  0  0  0  0  0  0
   37.3490   24.3190   32.5140 C   0  0  0  0  0  0  0  0  0  0  0  0
   36.8900   25.5430   32.1800 N   0  0  0  0  0  0  0  0  0  0  0  0
   35.8330   25.7630   31.3930 C   0  0  0  0  0  0  0  0  0  0  0  0
   35.1580   24.7330   30.8830 N   0  0  0  0  0  0  0  0  0  0  0  0
   34.9810   22.6870   30.7350 H   0  0  0  0  0  0  0  0  0  0  0  0
   36.9600   22.2030   32.2080 H   0  0  0  0  0  0  0  0  0  0  0  0
   35.5380   26.8010   31.1820 H   0  0  0  0  0  0  0  0  0  0  0  0
  1  8  1  0  0  0  0
  2  3  1  0  0  0  0
  2  1  2  0  0  0  0
  3  5  2  0  0  0  0
  4  3  1  0  0  0  0
  5  6  1  0  0  0  0
  5  7  1  0  0  0  0
  8  7  2  0  0  0  0
  9 10  1  0  0  0  0
 10 11  2  0  0  0  0
 10  1  1  0  0  0  0
 10 12  2  0  0  0  0
 13  2  1  0  0  0  0
 14 13  2  0  0  0  0
 15 16  1  0  0  0  0
 16 22  1  0  0  0  0
 16 17  2  0  0  0  0
 17 13  1  0  0  0  0
 18 17  1  0  0  0  0
 19 18  2  0  0  0  0
 20 15  2  0  0  0  0
 20 19  1  0  0  0  0
 21 15  1  0  0  0  0
 23 19  1  0  0  0  0
M  END
>  <minimizedAffinity>
-4.32219076

$$$$

 OpenBabel03272501313D

 23 24  0  0  0  0  0  0  0  0999 V2000
   39.5950   22.9610   36.4380 C   0  0  0  0  0  0  0  0  0  0  0  0
   38.4250   23.5850   36.0550 C   0  0  0  0  0  0  0  0  0  0  0  0
   37.5840   24.1160   37.0130 C   0  0  0  0  0  0  0  0  0  0  0  0
   36.6890   24.5910   36.6700 H   0  0  0  0  0  0  0  0  0  0  0  0
   37.8440   24.0600   38.3550 C   0  0  0  0  0  0  0  0  0  0  0  0
   37.1190   24.5060   39.0330 H   0  0  0  0  0  0  0  0  0  0  0  0
   39.0140   23.4340   38.7520 C   0  0  0  0  0  3  0  0  0  0  0  0
   39.8760   22.8920   37.7940 C   0  0  0  0  0  3  0  0  0  0  0  0
   40.2840   21.5080   34.3960 H   0  0  0  0  0  0  0  0  0  0  0  0
   40.7910   22.2290   35.4230 S   0  0  0  0  0  0  0  0  0  0  0  0
   41.6590   21.3290   36.2860 O   0  0  0  0  0  0  0  0  0  0  0  0
   41.7530   23.2730   34.8710 O   0  0  0  0  0  0  0  0  0  0  0  0
   38.1960   23.6190   34.6130 C   0  0  0  0  0  0  0  0  0  0  0  0
   37.9450   22.5500   34.0230 O   0  0  0  0  0  0  0  0  0  0  0  0
   39.4170   26.9670   33.4800 C   0  0  0  0  0  0  0  0  0  0  0  0
   39.3870   25.7330   34.1340 C   0  0  0  0  0  0  0  0  0  0  0  0
   38.2780   24.9150   33.9550 C   0  0  0  0  0  0  0  0  0  0  0  0
   37.3020   25.3870   33.1510 N   0  0  0  0  0  0  0  0  0  0  0  0
   37.3410   26.5690   32.5310 C   0  0  0  0  0  0  0  0  0  0  0  0
   38.3960   27.3680   32.6880 N   0  0  0  0  0  0  0  0  0  0  0  0
   40.2350   27.6460   33.5710 H   0  0  0  0  0  0  0  0  0  0  0  0
   40.2250   25.4350   34.7660 H   0  0  0  0  0  0  0  0  0  0  0  0
   36.4930   26.8600   31.8950 H   0  0  0  0  0  0  0  0  0  0  0  0
  1  8  1  0  0  0  0
  2  1  2  0  0  0  0
  2  3  1  0  0  0  0
  3  5  2  0  0  0  0
  4  3  1  0  0  0  0
  5  7  1  0  0  0  0
  5  6  1  0  0  0  0
  8  7  2  0  0  0  0
  9 10  1  0  0  0  0
 10 11  2  0  0  0  0
 10  1  1  0  0  0  0
 12 10  2  0  0  0  0
 13  2  1  0  0  0  0
 14 13  2  0  0  0  0
 15 21  1  0  0  0  0
 15 16  1  0  0  0  0
 16 22  1  0  0  0  0
 17 16  2  0  0  0  0
 17 13  1  0  0  0  0
 18 17  1  0  0  0  0
 19 20  1  0  0  0  0
 19 18  2  0  0  0  0
 20 15  2  0  0  0  0
 23 19  1  0  0  0  0
M  END
>  <minimizedAffinity>
-4.3127079

$$$$

 OpenBabel03272501313D

 23 24  0  0  0  0  0  0  0  0999 V2000
   36.8620   21.5890   33.1090 C   0  0  0  0  0  0  0  0  0  0  0  0
   36.6070   21.6740   31.7550 C   0  0  0  0  0  0  0  0  0  0  0  0
   35.6710   20.8380   31.1790 C   0  0  0  0  0  0  0  0  0  0  0  0
   35.5050   20.9400   30.1270 H   0  0  0  0  0  0  0  0  0  0  0  0
   34.9620   19.9050   31.8840 C   0  0  0  0  0  0  0  0  0  0  0  0
   34.2460   19.2910   31.3410 H   0  0  0  0  0  0  0  0  0  0  0  0
   35.2090   19.8090   33.2440 C   0  0  0  0  0  3  0  0  0  0  0  0
   36.1550   20.6490   33.8420 C   0  0  0  0  0  3  0  0  0  0  0  0
   38.0440   23.8300   33.6880 H   0  0  0  0  0  0  0  0  0  0  0  0
   37.9810   22.5250   34.0410 S   0  0  0  0  0  0  0  0  0  0  0  0
   39.3580   21.9000   33.8970 O   0  0  0  0  0  0  0  0  0  0  0  0
   37.6700   22.4270   35.5290 O   0  0  0  0  0  0  0  0  0  0  0  0
   37.3890   22.6850   31.0500 C   0  0  0  0  0  0  0  0  0  0  0  0
   38.4570   22.3430   30.5060 O   0  0  0  0  0  0  0  0  0  0  0  0
   37.1600   26.4180   31.0440 C   0  0  0  0  0  0  0  0  0  0  0  0
   37.7180   25.1370   31.0630 C   0  0  0  0  0  0  0  0  0  0  0  0
   36.8620   24.0430   31.0310 C   0  0  0  0  0  0  0  0  0  0  0  0
   35.5400   24.3090   30.9830 N   0  0  0  0  0  0  0  0  0  0  0  0
   35.0190   25.5380   30.9650 C   0  0  0  0  0  0  0  0  0  0  0  0
   35.8220   26.6020   30.9940 N   0  0  0  0  0  0  0  0  0  0  0  0
   37.7560   27.3030   31.0660 H   0  0  0  0  0  0  0  0  0  0  0  0
   38.8020   25.0180   31.1030 H   0  0  0  0  0  0  0  0  0  0  0  0
   33.9260   25.6480   30.9240 H   0  0  0  0  0  0  0  0  0  0  0  0
  1  8  1  0  0  0  0
  1 10  1  0  0  0  0
  2  1  2  0  0  0  0
  3  2  1  0  0  0  0
  3  5  2  0  0  0  0
  4  3  1  0  0  0  0
  5  7  1  0  0  0  0
  6  5  1  0  0  0  0
  7  8  2  0  0  0  0
  9 10  1  0  0  0  0
 10 12  2  0  0  0  0
 11 10  2  0  0  0  0
 13  2  1  0  0  0  0
 14 13  2  0  0  0  0
 15 16  1  0  0  0  0
 15 21  1  0  0  0  0
 16 22  1  0  0  0  0
 17 13  1  0  0  0  0
 17 16  2  0  0  0  0
 18 17  1  0  0  0  0
 19 18  2  0  0  0  0
 19 20  1  0  0  0  0
 20 15  2  0  0  0  0
 23 19  1  0  0  0  0
M  END
>  <minimizedAffinity>
-4.29012632

$$$$
