
 OpenBabel03262522093D

 23 24  0  0  0  0  0  0  0  0999 V2000
   38.6180   24.0270   36.0430 C   0  0  0  0  0  0  0  0  0  0  0  0
   39.6860   23.2890   36.4670 C   0  0  0  0  0  0  0  0  0  0  0  0
   39.7830   22.9780   37.8080 C   0  0  0  0  0  0  0  0  0  0  0  0
   40.6600   22.3820   38.1070 H   0  0  0  0  0  0  0  0  0  0  0  0
   38.8550   23.3780   38.7300 C   0  0  0  0  0  0  0  0  0  0  0  0
   39.0400   23.0730   39.7490 H   0  0  0  0  0  0  0  0  0  0  0  0
   37.7680   24.1290   38.2910 C   0  0  0  0  0  3  0  0  0  0  0  0
   37.6490   24.4570   36.9390 C   0  0  0  0  0  3  0  0  0  0  0  0
   39.6020   24.7590   33.8130 H   0  0  0  0  0  0  0  0  0  0  0  0
   38.3690   24.4900   34.3920 S   0  0  0  0  0  0  0  0  0  0  0  0
   37.7800   23.3570   33.5770 O   0  0  0  0  0  0  0  0  0  0  0  0
   37.4620   25.6480   34.2360 O   0  0  0  0  0  0  0  0  0  0  0  0
   40.6910   22.8500   35.5030 C   0  0  0  0  0  0  0  0  0  0  0  0
   40.7670   21.9500   34.6680 O   0  0  0  0  0  0  0  0  0  0  0  0
   42.9720   23.3300   36.4270 C   0  0  0  0  0  0  0  0  0  0  0  0
   41.8910   23.7220   35.5810 C   0  0  0  0  0  0  0  0  0  0  0  0
   42.0130   24.9160   34.8570 C   0  0  0  0  0  0  0  0  0  0  0  0
   43.1460   25.6340   35.0000 N   0  0  0  0  0  0  0  0  0  0  0  0
   44.1480   25.2380   35.8070 C   0  0  0  0  0  0  0  0  0  0  0  0
   44.0730   24.1040   36.5160 N   0  0  0  0  0  0  0  0  0  0  0  0
   42.8950   22.4080   36.9950 H   0  0  0  0  0  0  0  0  0  0  0  0
   41.1760   25.1850   34.2250 H   0  0  0  0  0  0  0  0  0  0  0  0
   45.0490   25.8600   35.8860 H   0  0  0  0  0  0  0  0  0  0  0  0
  1  2  2  0  0  0  0
  1  8  1  0  0  0  0
  2  3  1  0  0  0  0
  3  4  1  0  0  0  0
  3  5  2  0  0  0  0
  5  6  1  0  0  0  0
  7  5  1  0  0  0  0
  8  7  2  0  0  0  0
  9 10  1  0  0  0  0
 10  1  1  0  0  0  0
 11 10  2  0  0  0  0
 12 10  2  0  0  0  0
 13 16  1  0  0  0  0
 13  2  1  0  0  0  0
 14 13  2  0  0  0  0
 15 20  1  0  0  0  0
 15 21  1  0  0  0  0
 16 15  2  0  0  0  0
 17 18  2  0  0  0  0
 17 16  1  0  0  0  0
 18 19  1  0  0  0  0
 19 23  1  0  0  0  0
 19 20  2  0  0  0  0
 22 17  1  0  0  0  0
M  END
>  <minimizedAffinity>
-4.38962984

$$$$

 OpenBabel03262522093D

 23 24  0  0  0  0  0  0  0  0999 V2000
   38.5040   24.9820   35.3510 C   0  0  0  0  0  0  0  0  0  0  0  0
   38.3580   24.0470   34.3670 C   0  0  0  0  0  0  0  0  0  0  0  0
   37.9590   22.7740   34.7190 C   0  0  0  0  0  0  0  0  0  0  0  0
   37.8540   22.0510   33.8950 H   0  0  0  0  0  0  0  0  0  0  0  0
   37.7030   22.4090   36.0130 C   0  0  0  0  0  0  0  0  0  0  0  0
   37.3970   21.3850   36.1630 H   0  0  0  0  0  0  0  0  0  0  0  0
   37.8520   23.3670   37.0120 C   0  0  0  0  0  3  0  0  0  0  0  0
   38.2570   24.6630   36.6790 C   0  0  0  0  0  3  0  0  0  0  0  0
   38.4120   27.0530   33.8740 H   0  0  0  0  0  0  0  0  0  0  0  0
   38.9990   26.6160   35.0540 S   0  0  0  0  0  0  0  0  0  0  0  0
   38.4940   27.5570   36.1280 O   0  0  0  0  0  0  0  0  0  0  0  0
   40.4670   26.7840   34.9920 O   0  0  0  0  0  0  0  0  0  0  0  0
   38.6260   24.4100   32.9780 C   0  0  0  0  0  0  0  0  0  0  0  0
   39.6360   24.5690   32.2960 O   0  0  0  0  0  0  0  0  0  0  0  0
   36.8510   25.9640   32.1310 C   0  0  0  0  0  0  0  0  0  0  0  0
   37.3500   24.6320   32.2510 C   0  0  0  0  0  0  0  0  0  0  0  0
   36.6110   23.5910   31.6740 C   0  0  0  0  0  0  0  0  0  0  0  0
   35.4640   23.9030   31.0350 N   0  0  0  0  0  0  0  0  0  0  0  0
   35.0190   25.1700   30.9380 C   0  0  0  0  0  0  0  0  0  0  0  0
   35.6950   26.1940   31.4750 N   0  0  0  0  0  0  0  0  0  0  0  0
   37.4100   26.7840   32.5710 H   0  0  0  0  0  0  0  0  0  0  0  0
   37.0160   22.5930   31.7830 H   0  0  0  0  0  0  0  0  0  0  0  0
   34.0800   25.3680   30.4070 H   0  0  0  0  0  0  0  0  0  0  0  0
  1  8  1  0  0  0  0
  2  3  1  0  0  0  0
  2  1  2  0  0  0  0
  3  5  2  0  0  0  0
  4  3  1  0  0  0  0
  5  6  1  0  0  0  0
  5  7  1  0  0  0  0
  8  7  2  0  0  0  0
  9 10  1  0  0  0  0
 10  1  1  0  0  0  0
 10 11  2  0  0  0  0
 12 10  2  0  0  0  0
 13  2  1  0  0  0  0
 14 13  2  0  0  0  0
 15 16  1  0  0  0  0
 15 21  1  0  0  0  0
 16 13  1  0  0  0  0
 17 22  1  0  0  0  0
 17 16  2  0  0  0  0
 18 17  1  0  0  0  0
 19 18  2  0  0  0  0
 19 20  1  0  0  0  0
 20 15  2  0  0  0  0
 23 19  1  0  0  0  0
M  END
>  <minimizedAffinity>
-4.34178877

$$$$

 OpenBabel03262522093D

 23 24  0  0  0  0  0  0  0  0999 V2000
   39.1760   27.0550   32.9490 C   0  0  0  0  0  0  0  0  0  0  0  0
   39.8460   26.9370   34.1330 C   0  0  0  0  0  0  0  0  0  0  0  0
   41.2200   27.0570   34.1300 C   0  0  0  0  0  0  0  0  0  0  0  0
   41.7200   26.9540   35.1060 H   0  0  0  0  0  0  0  0  0  0  0  0
   41.9410   27.2880   32.9900 C   0  0  0  0  0  0  0  0  0  0  0  0
   43.0110   27.3630   33.1150 H   0  0  0  0  0  0  0  0  0  0  0  0
   41.2530   27.4080   31.7870 C   0  0  0  0  0  3  0  0  0  0  0  0
   39.8610   27.2900   31.7650 C   0  0  0  0  0  3  0  0  0  0  0  0
   37.0920   27.2260   31.4990 H   0  0  0  0  0  0  0  0  0  0  0  0
   37.4540   26.9270   32.8050 S   0  0  0  0  0  0  0  0  0  0  0  0
   36.9780   25.5080   33.0420 O   0  0  0  0  0  0  0  0  0  0  0  0
   36.7180   27.7900   33.7550 O   0  0  0  0  0  0  0  0  0  0  0  0
   39.1000   26.6890   35.3640 C   0  0  0  0  0  0  0  0  0  0  0  0
   38.5660   27.3930   36.2190 O   0  0  0  0  0  0  0  0  0  0  0  0
   37.8840   24.7480   36.3820 C   0  0  0  0  0  0  0  0  0  0  0  0
   38.9810   25.2290   35.6070 C   0  0  0  0  0  0  0  0  0  0  0  0
   39.9000   24.2960   35.1060 C   0  0  0  0  0  0  0  0  0  0  0  0
   39.6990   22.9920   35.3850 N   0  0  0  0  0  0  0  0  0  0  0  0
   38.6540   22.5690   36.1200 C   0  0  0  0  0  0  0  0  0  0  0  0
   37.7520   23.4260   36.6170 N   0  0  0  0  0  0  0  0  0  0  0  0
   37.1610   25.4550   36.7790 H   0  0  0  0  0  0  0  0  0  0  0  0
   40.7210   24.6930   34.5220 H   0  0  0  0  0  0  0  0  0  0  0  0
   38.5370   21.4960   36.3170 H   0  0  0  0  0  0  0  0  0  0  0  0
  1  2  1  0  0  0  0
  2 13  1  0  0  0  0
  3  2  2  0  0  0  0
  3  4  1  0  0  0  0
  5  6  1  0  0  0  0
  5  3  1  0  0  0  0
  7  5  2  0  0  0  0
  8  7  1  0  0  0  0
  8  1  2  0  0  0  0
  9 10  1  0  0  0  0
 10  1  1  0  0  0  0
 10 11  2  0  0  0  0
 10 12  2  0  0  0  0
 13 16  1  0  0  0  0
 13 14  2  0  0  0  0
 15 20  1  0  0  0  0
 15 21  1  0  0  0  0
 16 15  2  0  0  0  0
 17 18  2  0  0  0  0
 17 16  1  0  0  0  0
 18 19  1  0  0  0  0
 19 23  1  0  0  0  0
 19 20  2  0  0  0  0
 22 17  1  0  0  0  0
M  END
>  <minimizedAffinity>
-4.33330536

$$$$

 OpenBabel03262522093D

 23 24  0  0  0  0  0  0  0  0999 V2000
   36.7920   26.0330   32.1620 C   0  0  0  0  0  0  0  0  0  0  0  0
   37.3480   24.8100   32.4080 C   0  0  0  0  0  0  0  0  0  0  0  0
   36.7210   23.6870   31.9080 C   0  0  0  0  0  0  0  0  0  0  0  0
   37.2020   22.7210   32.1300 H   0  0  0  0  0  0  0  0  0  0  0  0
   35.5660   23.7470   31.1770 C   0  0  0  0  0  0  0  0  0  0  0  0
   35.1710   22.8000   30.8400 H   0  0  0  0  0  0  0  0  0  0  0  0
   35.0050   24.9960   30.9290 C   0  0  0  0  0  3  0  0  0  0  0  0
   35.6210   26.1470   31.4260 C   0  0  0  0  0  3  0  0  0  0  0  0
   38.8230   27.3350   32.9740 H   0  0  0  0  0  0  0  0  0  0  0  0
   37.4700   27.5240   32.7280 S   0  0  0  0  0  0  0  0  0  0  0  0
   37.3990   28.6060   31.6700 O   0  0  0  0  0  0  0  0  0  0  0  0
   36.7960   28.0560   33.9320 O   0  0  0  0  0  0  0  0  0  0  0  0
   38.5800   24.7180   33.1860 C   0  0  0  0  0  0  0  0  0  0  0  0
   39.7700   24.9390   32.9690 O   0  0  0  0  0  0  0  0  0  0  0  0
   38.3440   22.8400   34.8300 C   0  0  0  0  0  0  0  0  0  0  0  0
   38.2830   24.2410   34.5610 C   0  0  0  0  0  0  0  0  0  0  0  0
   37.9470   25.1050   35.6120 C   0  0  0  0  0  0  0  0  0  0  0  0
   37.6960   24.5670   36.8230 N   0  0  0  0  0  0  0  0  0  0  0  0
   37.7610   23.2410   37.0460 C   0  0  0  0  0  0  0  0  0  0  0  0
   38.0800   22.3790   36.0700 N   0  0  0  0  0  0  0  0  0  0  0  0
   38.6040   22.1550   34.0290 H   0  0  0  0  0  0  0  0  0  0  0  0
   37.9090   26.1610   35.3750 H   0  0  0  0  0  0  0  0  0  0  0  0
   37.5490   22.8550   38.0500 H   0  0  0  0  0  0  0  0  0  0  0  0
  1  2  1  0  0  0  0
  1 10  1  0  0  0  0
  2 13  1  0  0  0  0
  3  4  1  0  0  0  0
  3  2  2  0  0  0  0
  5  3  1  0  0  0  0
  6  5  1  0  0  0  0
  7  5  2  0  0  0  0
  7  8  1  0  0  0  0
  8  1  2  0  0  0  0
 10  9  1  0  0  0  0
 10 12  2  0  0  0  0
 11 10  2  0  0  0  0
 13 16  1  0  0  0  0
 14 13  2  0  0  0  0
 15 20  1  0  0  0  0
 16 15  2  0  0  0  0
 16 17  1  0  0  0  0
 17 18  2  0  0  0  0
 18 19  1  0  0  0  0
 19 23  1  0  0  0  0
 20 19  2  0  0  0  0
 21 15  1  0  0  0  0
 22 17  1  0  0  0  0
M  END
>  <minimizedAffinity>
-4.3022356

$$$$

 OpenBabel03262522093D

 23 24  0  0  0  0  0  0  0  0999 V2000
   38.4890   24.7210   35.8540 C   0  0  0  0  0  0  0  0  0  0  0  0
   38.7640   24.6600   34.5180 C   0  0  0  0  0  0  0  0  0  0  0  0
   38.8140   25.8370   33.7990 C   0  0  0  0  0  0  0  0  0  0  0  0
   39.0390   25.7420   32.7250 H   0  0  0  0  0  0  0  0  0  0  0  0
   38.6000   27.0620   34.3690 C   0  0  0  0  0  0  0  0  0  0  0  0
   38.6660   27.9100   33.7040 H   0  0  0  0  0  0  0  0  0  0  0  0
   38.3200   27.1180   35.7310 C   0  0  0  0  0  3  0  0  0  0  0  0
   38.2630   25.9390   36.4790 C   0  0  0  0  0  3  0  0  0  0  0  0
   37.8370   22.2790   36.1540 H   0  0  0  0  0  0  0  0  0  0  0  0
   38.3940   23.3250   36.8770 S   0  0  0  0  0  0  0  0  0  0  0  0
   39.7680   22.8430   37.2930 O   0  0  0  0  0  0  0  0  0  0  0  0
   37.6270   23.5580   38.1200 O   0  0  0  0  0  0  0  0  0  0  0  0
   38.9960   23.3650   33.8850 C   0  0  0  0  0  0  0  0  0  0  0  0
   39.9670   22.6240   33.7410 O   0  0  0  0  0  0  0  0  0  0  0  0
   37.1640   21.6560   33.8040 C   0  0  0  0  0  0  0  0  0  0  0  0
   37.7380   22.8550   33.2840 C   0  0  0  0  0  0  0  0  0  0  0  0
   37.0840   23.5000   32.2240 C   0  0  0  0  0  0  0  0  0  0  0  0
   35.9460   22.9510   31.7510 N   0  0  0  0  0  0  0  0  0  0  0  0
   35.4290   21.8180   32.2630 C   0  0  0  0  0  0  0  0  0  0  0  0
   36.0210   21.1710   33.2760 N   0  0  0  0  0  0  0  0  0  0  0  0
   37.6560   21.1420   34.6240 H   0  0  0  0  0  0  0  0  0  0  0  0
   37.5450   24.4060   31.8530 H   0  0  0  0  0  0  0  0  0  0  0  0
   34.5000   21.4160   31.8420 H   0  0  0  0  0  0  0  0  0  0  0  0
  1  8  1  0  0  0  0
  1 10  1  0  0  0  0
  2  1  2  0  0  0  0
  3  5  2  0  0  0  0
  3  2  1  0  0  0  0
  4  3  1  0  0  0  0
  5  7  1  0  0  0  0
  6  5  1  0  0  0  0
  7  8  2  0  0  0  0
  9 10  1  0  0  0  0
 10 11  2  0  0  0  0
 10 12  2  0  0  0  0
 13  2  1  0  0  0  0
 14 13  2  0  0  0  0
 15 21  1  0  0  0  0
 16 15  1  0  0  0  0
 16 13  1  0  0  0  0
 17 16  2  0  0  0  0
 18 17  1  0  0  0  0
 18 19  2  0  0  0  0
 19 20  1  0  0  0  0
 20 15  2  0  0  0  0
 22 17  1  0  0  0  0
 23 19  1  0  0  0  0
M  END
>  <minimizedAffinity>
-4.28360176

$$$$

 OpenBabel03262522093D

 23 24  0  0  0  0  0  0  0  0999 V2000
   39.9670   23.0460   36.6730 C   0  0  0  0  0  0  0  0  0  0  0  0
   39.1450   23.8510   35.9380 C   0  0  0  0  0  0  0  0  0  0  0  0
   38.1010   24.4890   36.5760 C   0  0  0  0  0  0  0  0  0  0  0  0
   37.4620   25.1270   35.9460 H   0  0  0  0  0  0  0  0  0  0  0  0
   37.8550   24.3490   37.9150 C   0  0  0  0  0  0  0  0  0  0  0  0
   37.0090   24.8980   38.3000 H   0  0  0  0  0  0  0  0  0  0  0  0
   38.6970   23.5280   38.6590 C   0  0  0  0  0  3  0  0  0  0  0  0
   39.7600   22.8710   38.0340 C   0  0  0  0  0  3  0  0  0  0  0  0
   40.9880   21.7770   34.7170 H   0  0  0  0  0  0  0  0  0  0  0  0
   41.3140   22.1850   36.0030 S   0  0  0  0  0  0  0  0  0  0  0  0
   42.5270   23.0790   35.8480 O   0  0  0  0  0  0  0  0  0  0  0  0
   41.7360   21.0260   36.8200 O   0  0  0  0  0  0  0  0  0  0  0  0
   39.3850   24.0160   34.5070 C   0  0  0  0  0  0  0  0  0  0  0  0
   40.2320   24.5880   33.8230 O   0  0  0  0  0  0  0  0  0  0  0  0
   37.5470   24.0660   32.8020 C   0  0  0  0  0  0  0  0  0  0  0  0
   38.3350   23.3150   33.7260 C   0  0  0  0  0  0  0  0  0  0  0  0
   38.0800   21.9420   33.8540 C   0  0  0  0  0  0  0  0  0  0  0  0
   37.1020   21.4030   33.0960 N   0  0  0  0  0  0  0  0  0  0  0  0
   36.3760   22.1380   32.2330 C   0  0  0  0  0  0  0  0  0  0  0  0
   36.5870   23.4520   32.0800 N   0  0  0  0  0  0  0  0  0  0  0  0
   37.7300   25.1300   32.6900 H   0  0  0  0  0  0  0  0  0  0  0  0
   38.6940   21.4010   34.5620 H   0  0  0  0  0  0  0  0  0  0  0  0
   35.5930   21.6500   31.6410 H   0  0  0  0  0  0  0  0  0  0  0  0
  1  8  1  0  0  0  0
  2  3  1  0  0  0  0
  2  1  2  0  0  0  0
  3  5  2  0  0  0  0
  4  3  1  0  0  0  0
  5  6  1  0  0  0  0
  5  7  1  0  0  0  0
  8  7  2  0  0  0  0
  9 10  1  0  0  0  0
 10  1  1  0  0  0  0
 10 12  2  0  0  0  0
 11 10  2  0  0  0  0
 13  2  1  0  0  0  0
 14 13  2  0  0  0  0
 15 16  1  0  0  0  0
 16 17  2  0  0  0  0
 16 13  1  0  0  0  0
 17 22  1  0  0  0  0
 18 17  1  0  0  0  0
 19 18  2  0  0  0  0
 20 19  1  0  0  0  0
 20 15  2  0  0  0  0
 21 15  1  0  0  0  0
 23 19  1  0  0  0  0
M  END
>  <minimizedAffinity>
-4.23981571

$$$$

 OpenBabel03262522093D

 23 24  0  0  0  0  0  0  0  0999 V2000
   38.1840   27.2890   32.8020 C   0  0  0  0  0  0  0  0  0  0  0  0
   38.1540   27.1760   34.1620 C   0  0  0  0  0  0  0  0  0  0  0  0
   37.1250   27.7820   34.8530 C   0  0  0  0  0  0  0  0  0  0  0  0
   37.1390   27.6670   35.9490 H   0  0  0  0  0  0  0  0  0  0  0  0
   36.1340   28.4930   34.2330 C   0  0  0  0  0  0  0  0  0  0  0  0
   35.3830   28.9210   34.8810 H   0  0  0  0  0  0  0  0  0  0  0  0
   36.1690   28.6040   32.8460 C   0  0  0  0  0  3  0  0  0  0  0  0
   37.2020   27.9990   32.1250 C   0  0  0  0  0  3  0  0  0  0  0  0
   39.7490   25.3380   32.3300 H   0  0  0  0  0  0  0  0  0  0  0  0
   39.4150   26.5810   31.8090 S   0  0  0  0  0  0  0  0  0  0  0  0
   38.9120   26.3080   30.4060 O   0  0  0  0  0  0  0  0  0  0  0  0
   40.6210   27.4250   31.6750 O   0  0  0  0  0  0  0  0  0  0  0  0
   39.2000   26.4240   34.8490 C   0  0  0  0  0  0  0  0  0  0  0  0
   40.3820   26.6230   35.1250 O   0  0  0  0  0  0  0  0  0  0  0  0
   38.2160   24.9880   36.6530 C   0  0  0  0  0  0  0  0  0  0  0  0
   38.6740   25.1130   35.3070 C   0  0  0  0  0  0  0  0  0  0  0  0
   38.6040   23.9870   34.4740 C   0  0  0  0  0  0  0  0  0  0  0  0
   38.1080   22.8440   34.9910 N   0  0  0  0  0  0  0  0  0  0  0  0
   37.6840   22.7570   36.2660 C   0  0  0  0  0  0  0  0  0  0  0  0
   37.7320   23.8090   37.0950 N   0  0  0  0  0  0  0  0  0  0  0  0
   38.2620   25.8500   37.3130 H   0  0  0  0  0  0  0  0  0  0  0  0
   38.9590   24.1150   33.4600 H   0  0  0  0  0  0  0  0  0  0  0  0
   37.2890   21.8030   36.6350 H   0  0  0  0  0  0  0  0  0  0  0  0
  1  2  1  0  0  0  0
  2 13  1  0  0  0  0
  2  3  2  0  0  0  0
  3  4  1  0  0  0  0
  5  3  1  0  0  0  0
  5  6  1  0  0  0  0
  7  5  2  0  0  0  0
  8  1  2  0  0  0  0
  8  7  1  0  0  0  0
 10  9  1  0  0  0  0
 10  1  1  0  0  0  0
 11 10  2  0  0  0  0
 12 10  2  0  0  0  0
 13 14  2  0  0  0  0
 13 16  1  0  0  0  0
 15 20  1  0  0  0  0
 15 21  1  0  0  0  0
 16 15  2  0  0  0  0
 17 18  2  0  0  0  0
 17 16  1  0  0  0  0
 18 19  1  0  0  0  0
 19 23  1  0  0  0  0
 19 20  2  0  0  0  0
 22 17  1  0  0  0  0
M  END
>  <minimizedAffinity>
-4.23070383

$$$$

 OpenBabel03262522093D

 23 24  0  0  0  0  0  0  0  0999 V2000
   36.6160   22.8470   32.2310 C   0  0  0  0  0  0  0  0  0  0  0  0
   37.4790   23.7950   32.7000 C   0  0  0  0  0  0  0  0  0  0  0  0
   37.2550   25.1160   32.3680 C   0  0  0  0  0  0  0  0  0  0  0  0
   37.9760   25.8470   32.7670 H   0  0  0  0  0  0  0  0  0  0  0  0
   36.2040   25.5150   31.5890 C   0  0  0  0  0  0  0  0  0  0  0  0
   36.1330   26.5760   31.3990 H   0  0  0  0  0  0  0  0  0  0  0  0
   35.3270   24.5450   31.1140 C   0  0  0  0  0  3  0  0  0  0  0  0
   35.5340   23.2010   31.4360 C   0  0  0  0  0  3  0  0  0  0  0  0
   38.0240   20.9280   33.1290 H   0  0  0  0  0  0  0  0  0  0  0  0
   36.7760   21.1550   32.5670 S   0  0  0  0  0  0  0  0  0  0  0  0
   35.7750   20.6950   33.6070 O   0  0  0  0  0  0  0  0  0  0  0  0
   36.5830   20.2980   31.3770 O   0  0  0  0  0  0  0  0  0  0  0  0
   38.6100   23.3950   33.5330 C   0  0  0  0  0  0  0  0  0  0  0  0
   39.7280   22.9270   33.3230 O   0  0  0  0  0  0  0  0  0  0  0  0
   38.4800   24.9280   35.5130 C   0  0  0  0  0  0  0  0  0  0  0  0
   38.2960   23.6220   34.9670 C   0  0  0  0  0  0  0  0  0  0  0  0
   37.8240   22.6080   35.8130 C   0  0  0  0  0  0  0  0  0  0  0  0
   37.5690   22.9210   37.1000 N   0  0  0  0  0  0  0  0  0  0  0  0
   37.7530   24.1630   37.5860 C   0  0  0  0  0  0  0  0  0  0  0  0
   38.2020   25.1610   36.8120 N   0  0  0  0  0  0  0  0  0  0  0  0
   38.8440   25.7250   34.8730 H   0  0  0  0  0  0  0  0  0  0  0  0
   37.6950   21.6300   35.3680 H   0  0  0  0  0  0  0  0  0  0  0  0
   37.5300   24.3630   38.6410 H   0  0  0  0  0  0  0  0  0  0  0  0
  1 10  1  0  0  0  0
  1  2  1  0  0  0  0
  2 13  1  0  0  0  0
  3  2  2  0  0  0  0
  3  4  1  0  0  0  0
  5  3  1  0  0  0  0
  6  5  1  0  0  0  0
  7  8  1  0  0  0  0
  7  5  2  0  0  0  0
  8  1  2  0  0  0  0
 10  9  1  0  0  0  0
 10 11  2  0  0  0  0
 12 10  2  0  0  0  0
 13 16  1  0  0  0  0
 14 13  2  0  0  0  0
 15 20  1  0  0  0  0
 16 15  2  0  0  0  0
 16 17  1  0  0  0  0
 17 18  2  0  0  0  0
 18 19  1  0  0  0  0
 19 23  1  0  0  0  0
 20 19  2  0  0  0  0
 21 15  1  0  0  0  0
 22 17  1  0  0  0  0
M  END
>  <minimizedAffinity>
-4.20644712

$$$$

 OpenBabel03262522093D

 23 24  0  0  0  0  0  0  0  0999 V2000
   37.9300   25.0180   34.2060 C   0  0  0  0  0  0  0  0  0  0  0  0
   38.1460   24.5560   35.4720 C   0  0  0  0  0  0  0  0  0  0  0  0
   38.3480   25.4720   36.4840 C   0  0  0  0  0  0  0  0  0  0  0  0
   38.5180   25.0570   37.4900 H   0  0  0  0  0  0  0  0  0  0  0  0
   38.3410   26.8240   36.2720 C   0  0  0  0  0  0  0  0  0  0  0  0
   38.5100   27.4390   37.1430 H   0  0  0  0  0  0  0  0  0  0  0  0
   38.1200   27.2880   34.9790 C   0  0  0  0  0  3  0  0  0  0  0  0
   37.9140   26.3800   33.9380 C   0  0  0  0  0  3  0  0  0  0  0  0
   37.3720   22.7060   33.3000 H   0  0  0  0  0  0  0  0  0  0  0  0
   37.6630   23.9830   32.8410 S   0  0  0  0  0  0  0  0  0  0  0  0
   36.4490   24.4130   32.0440 O   0  0  0  0  0  0  0  0  0  0  0  0
   38.8030   23.9460   31.9000 O   0  0  0  0  0  0  0  0  0  0  0  0
   38.1580   23.1180   35.7260 C   0  0  0  0  0  0  0  0  0  0  0  0
   37.3040   22.2370   35.8040 O   0  0  0  0  0  0  0  0  0  0  0  0
   40.0040   22.4080   37.2670 C   0  0  0  0  0  0  0  0  0  0  0  0
   39.5510   22.6460   35.9340 C   0  0  0  0  0  0  0  0  0  0  0  0
   40.4450   22.4210   34.8780 C   0  0  0  0  0  0  0  0  0  0  0  0
   41.6880   21.9920   35.1770 N   0  0  0  0  0  0  0  0  0  0  0  0
   42.0870   21.7770   36.4450 C   0  0  0  0  0  0  0  0  0  0  0  0
   41.2650   21.9790   37.4840 N   0  0  0  0  0  0  0  0  0  0  0  0
   39.3260   22.5770   38.0980 H   0  0  0  0  0  0  0  0  0  0  0  0
   40.0700   22.6100   33.8800 H   0  0  0  0  0  0  0  0  0  0  0  0
   43.1090   21.4270   36.6330 H   0  0  0  0  0  0  0  0  0  0  0  0
  1  2  1  0  0  0  0
  2 13  1  0  0  0  0
  2  3  2  0  0  0  0
  3  4  1  0  0  0  0
  5  3  1  0  0  0  0
  5  6  1  0  0  0  0
  7  5  2  0  0  0  0
  8  1  2  0  0  0  0
  8  7  1  0  0  0  0
 10  9  1  0  0  0  0
 10  1  1  0  0  0  0
 11 10  2  0  0  0  0
 12 10  2  0  0  0  0
 13 14  2  0  0  0  0
 13 16  1  0  0  0  0
 15 20  1  0  0  0  0
 15 21  1  0  0  0  0
 16 15  2  0  0  0  0
 17 18  2  0  0  0  0
 17 16  1  0  0  0  0
 18 19  1  0  0  0  0
 19 23  1  0  0  0  0
 19 20  2  0  0  0  0
 22 17  1  0  0  0  0
M  END
>  <minimizedAffinity>
-4.14764833

$$$$
