
 OpenBabel03262522163D

 50 54  0  0  1  0  0  0  0  0999 V2000
   39.1020   29.8500   42.4930 C   0  0  1  0  0  0  0  0  0  0  0  0
   39.0640   31.3430   42.2050 C   0  0  0  0  0  0  0  0  0  0  0  0
   40.0340   31.8770   43.2150 C   0  0  2  0  0  0  0  0  0  0  0  0
   40.3860   30.8580   44.0470 O   0  0  0  0  0  0  0  0  0  0  0  0
   39.4100   29.8790   43.9800 C   0  0  0  0  0  0  0  0  0  0  0  0
   39.9760   29.3690   41.9930 H   0  0  0  0  0  0  0  0  0  0  0  0
   38.0630   31.6940   42.4730 H   0  0  0  0  0  0  0  0  0  0  0  0
   39.3680   31.5490   41.1600 H   0  0  0  0  0  0  0  0  0  0  0  0
   40.9540   32.2190   42.6770 H   0  0  0  0  0  0  0  0  0  0  0  0
   39.8920   28.9320   44.3240 H   0  0  0  0  0  0  0  0  0  0  0  0
   38.5020   30.1400   44.5520 H   0  0  0  0  0  0  0  0  0  0  0  0
   39.4700   33.0660   43.9490 C   0  0  0  0  0  0  0  0  0  0  0  0
   38.4070   32.9640   44.1940 H   0  0  0  0  0  0  0  0  0  0  0  0
   39.5880   33.9590   43.2890 H   0  0  0  0  0  0  0  0  0  0  0  0
   40.5300   33.3730   45.3850 S   0  0  0  0  0  0  0  0  0  0  0  0
   37.7730   31.8410   47.7890 C   0  0  0  0  0  0  0  0  0  0  0  0
   37.9280   32.5450   48.9840 C   0  0  0  0  0  0  0  0  0  0  0  0
   38.8870   33.5260   49.1070 C   0  0  0  0  0  0  0  0  0  0  0  0
   39.6630   33.7570   48.0010 C   0  0  0  0  0  0  0  0  0  0  0  0
   39.4980   33.0600   46.8410 C   0  0  0  0  0  0  0  0  0  0  0  0
   38.5580   32.0940   46.7130 N   0  0  0  0  0  0  0  0  0  0  0  0
   37.2810   32.3140   49.8240 H   0  0  0  0  0  0  0  0  0  0  0  0
   39.0080   34.0770   50.0420 H   0  0  0  0  0  0  0  0  0  0  0  0
   40.4410   34.5120   48.0150 H   0  0  0  0  0  0  0  0  0  0  0  0
   36.7450   30.8300   47.7410 C   0  0  0  0  0  0  0  0  0  0  0  0
   36.3120   30.4010   46.6710 O   0  0  0  0  0  0  0  0  0  0  0  0
   37.0150   29.6170   49.8760 C   0  0  0  0  0  0  0  0  0  0  0  0
   36.1530   30.2510   48.9650 C   0  0  0  0  0  0  0  0  0  0  0  0
   34.7740   30.3200   49.2320 C   0  0  0  0  0  0  0  0  0  0  0  0
   34.3230   29.7520   50.3970 N   0  0  0  0  0  0  0  0  0  0  0  0
   35.1640   29.1490   51.2560 C   0  0  0  0  0  0  0  0  0  0  0  0
   36.4810   29.0840   50.9990 N   0  0  0  0  0  0  0  0  0  0  0  0
   38.0590   29.5710   49.6630 H   0  0  0  0  0  0  0  0  0  0  0  0
   34.1490   30.8120   48.5130 H   0  0  0  0  0  0  0  0  0  0  0  0
   34.6390   28.7630   52.1080 H   0  0  0  0  0  0  0  0  0  0  0  0
   37.8840   29.2590   42.2260 O   0  0  0  0  0  0  0  0  0  0  0  0
   35.7560   27.7980   43.4290 H   0  0  0  0  0  0  0  0  0  0  0  0
   36.5270   27.2540   42.9830 N   0  0  0  0  0  0  0  0  0  0  0  0
   37.5510   27.9370   42.4030 C   0  0  0  0  0  0  0  0  0  0  0  0
   38.4440   27.0420   41.8850 N   0  0  0  0  0  0  0  0  0  0  0  0
   37.9690   25.7980   42.1440 C   0  0  0  0  0  0  0  0  0  0  0  0
   38.3920   24.5030   41.8890 C   0  0  0  0  0  0  0  0  0  0  0  0
   37.6390   23.4860   42.3090 N   0  0  0  0  0  0  0  0  0  0  0  0
   36.4780   23.6340   42.9750 C   0  0  0  0  0  0  0  0  0  0  0  0
   35.9040   22.7590   43.2950 H   0  0  0  0  0  0  0  0  0  0  0  0
   36.0260   24.8930   43.2460 N   0  0  0  0  0  0  0  0  0  0  0  0
   36.7770   25.9410   42.8260 C   0  0  0  0  0  0  0  0  0  0  0  0
   39.6220   24.3690   41.1840 N   0  0  0  0  0  0  0  0  0  0  0  0
   39.8560   24.1820   40.1660 H   0  0  0  0  0  0  0  0  0  0  0  0
   40.5040   24.4650   41.7310 H   0  0  0  0  0  0  0  0  0  0  0  0
  1  6  1  6  0  0  0
  1  5  1  0  0  0  0
  2  7  1  0  0  0  0
  2  1  1  0  0  0  0
  2  3  1  0  0  0  0
  3  9  1  6  0  0  0
  3 12  1  0  0  0  0
  3  4  1  0  0  0  0
  5  4  1  0  0  0  0
  5 10  1  0  0  0  0
  5 11  1  0  0  0  0
  8  2  1  0  0  0  0
 12 13  1  0  0  0  0
 12 15  1  0  0  0  0
 14 12  1  0  0  0  0
 15 20  1  0  0  0  0
 16 17  1  0  0  0  0
 17 18  2  0  0  0  0
 17 22  1  0  0  0  0
 18 23  1  0  0  0  0
 19 24  1  0  0  0  0
 19 18  1  0  0  0  0
 20 19  2  0  0  0  0
 21 20  1  0  0  0  0
 21 16  2  0  0  0  0
 25 16  1  0  0  0  0
 25 28  1  0  0  0  0
 26 25  2  0  0  0  0
 27 32  1  0  0  0  0
 28 29  1  0  0  0  0
 28 27  2  0  0  0  0
 29 30  2  0  0  0  0
 30 31  1  0  0  0  0
 31 35  1  0  0  0  0
 32 31  2  0  0  0  0
 33 27  1  0  0  0  0
 34 29  1  0  0  0  0
 36 39  1  0  0  0  0
 36  1  1  0  0  0  0
 38 37  1  0  0  0  0
 39 38  1  0  0  0  0
 40 41  1  0  0  0  0
 40 39  2  0  0  0  0
 41 47  1  0  0  0  0
 42 41  2  0  0  0  0
 42 43  1  0  0  0  0
 43 44  2  0  0  0  0
 44 46  1  0  0  0  0
 44 45  1  0  0  0  0
 47 38  1  0  0  0  0
 47 46  2  0  0  0  0
 48 50  1  0  0  0  0
 48 42  1  0  0  0  0
 49 48  1  0  0  0  0
M  END
>  <minimizedAffinity>
-5.58287287

>  <minimizedRMSD>
2.14676523

$$$$
