
 OpenBabel03272508273D

 43 47  0  0  1  0  0  0  0  0999 V2000
   33.9740   29.0430   47.3310 C   0  0  2  0  0  0  0  0  0  0  0  0
   34.7350   28.2580   48.3860 C   0  0  2  0  0  0  0  0  0  0  0  0
   33.8510   28.0580   49.4100 O   0  0  0  0  0  0  0  0  0  0  0  0
   32.5680   28.1170   48.9510 C   0  0  0  0  0  0  0  0  0  0  0  0
   32.6090   28.3630   47.4590 C   0  0  1  0  0  0  0  0  0  0  0  0
   33.8310   30.0950   47.6110 H   0  0  0  0  0  0  0  0  0  0  0  0
   35.0320   27.3090   47.8840 H   0  0  0  0  0  0  0  0  0  0  0  0
   32.0610   27.1180   49.0850 H   0  0  0  0  0  0  0  0  0  0  0  0
   31.9930   28.8690   49.5040 H   0  0  0  0  0  0  0  0  0  0  0  0
   32.7100   27.3890   46.9310 H   0  0  0  0  0  0  0  0  0  0  0  0
   35.8020   30.5220   49.0490 C   0  0  1  0  0  0  0  0  0  0  0  0
   35.8930   29.1000   48.8180 C   0  0  1  0  0  0  0  0  0  0  0  0
   36.0420   29.5680   50.2290 C   0  0  0  0  0  0  0  0  0  0  0  0
   34.8910   31.1240   49.2290 H   0  0  0  0  0  0  0  0  0  0  0  0
   36.8630   28.7400   48.3650 H   0  0  0  0  0  0  0  0  0  0  0  0
   35.1730   29.2990   50.8650 H   0  0  0  0  0  0  0  0  0  0  0  0
   37.0260   29.5770   50.7200 H   0  0  0  0  0  0  0  0  0  0  0  0
   36.9930   31.4360   48.8110 C   0  0  0  0  0  0  0  0  0  0  0  0
   37.1730   32.4940   49.7020 C   0  0  0  0  0  0  0  0  0  0  0  0
   38.2620   33.3100   49.4180 C   0  0  0  0  0  0  0  0  0  0  0  0
   39.0740   33.0660   48.3400 N   0  0  0  0  0  0  0  0  0  0  0  0
   38.8540   32.0230   47.5060 C   0  0  0  0  0  0  0  0  0  0  0  0
   37.8040   31.2020   47.7460 N   0  0  0  0  0  0  0  0  0  0  0  0
   36.5250   32.6560   50.5280 H   0  0  0  0  0  0  0  0  0  0  0  0
   38.4900   34.1580   50.0460 H   0  0  0  0  0  0  0  0  0  0  0  0
   39.5240   31.8770   46.6730 H   0  0  0  0  0  0  0  0  0  0  0  0
   34.4940   28.9050   46.0580 O   0  0  0  0  0  0  0  0  0  0  0  0
   33.8500   29.2740   45.4310 H   0  0  0  0  0  0  0  0  0  0  0  0
   31.5970   29.1420   46.9680 O   0  0  0  0  0  0  0  0  0  0  0  0
   31.0740   30.1320   44.3500 H   0  0  0  0  0  0  0  0  0  0  0  0
   30.6350   29.2550   44.6900 N   0  0  0  0  0  0  0  0  0  0  0  0
   30.8170   28.7080   45.9040 C   0  0  0  0  0  0  0  0  0  0  0  0
   30.0570   27.5930   45.8940 N   0  0  0  0  0  0  0  0  0  0  0  0
   29.4230   27.4510   44.7140 C   0  0  0  0  0  0  0  0  0  0  0  0
   28.5530   26.5100   44.2020 C   0  0  0  0  0  0  0  0  0  0  0  0
   28.0470   26.6060   42.9530 N   0  0  0  0  0  0  0  0  0  0  0  0
   28.4280   27.6720   42.2050 C   0  0  0  0  0  0  0  0  0  0  0  0
   28.1380   27.9260   41.1920 H   0  0  0  0  0  0  0  0  0  0  0  0
   29.2800   28.6000   42.6920 N   0  0  0  0  0  0  0  0  0  0  0  0
   29.7990   28.5320   43.9310 C   0  0  0  0  0  0  0  0  0  0  0  0
   28.1730   25.4030   45.0140 N   0  0  0  0  0  0  0  0  0  0  0  0
   28.3850   24.3820   44.8240 H   0  0  0  0  0  0  0  0  0  0  0  0
   27.6430   25.6730   45.8530 H   0  0  0  0  0  0  0  0  0  0  0  0
  1  5  1  0  0  0  0
  1  6  1  1  0  0  0
  1  2  1  0  0  0  0
  2  7  1  6  0  0  0
  2 12  1  0  0  0  0
  2  3  1  0  0  0  0
  4  8  1  0  0  0  0
  4  3  1  0  0  0  0
  4  9  1  0  0  0  0
  5 10  1  6  0  0  0
  5  4  1  0  0  0  0
 11 14  1  6  0  0  0
 11 13  1  0  0  0  0
 12 15  1  6  0  0  0
 12 11  1  0  0  0  0
 12 13  1  0  0  0  0
 13 17  1  0  0  0  0
 13 16  1  0  0  0  0
 18 11  1  0  0  0  0
 18 19  1  0  0  0  0
 19 24  1  0  0  0  0
 20 19  2  0  0  0  0
 20 25  1  0  0  0  0
 21 20  1  0  0  0  0
 22 23  1  0  0  0  0
 22 21  2  0  0  0  0
 23 18  2  0  0  0  0
 26 22  1  0  0  0  0
 27  1  1  0  0  0  0
 28 27  1  0  0  0  0
 29  5  1  0  0  0  0
 30 31  1  0  0  0  0
 31 32  1  0  0  0  0
 32 29  1  0  0  0  0
 33 32  2  0  0  0  0
 34 33  1  0  0  0  0
 35 34  1  0  0  0  0
 35 41  1  0  0  0  0
 36 35  2  0  0  0  0
 37 39  2  0  0  0  0
 37 36  1  0  0  0  0
 38 37  1  0  0  0  0
 39 40  1  0  0  0  0
 40 31  1  0  0  0  0
 40 34  2  0  0  0  0
 41 43  1  0  0  0  0
 42 41  1  0  0  0  0
M  END
>  <minimizedAffinity>
-5.06054974

>  <minimizedRMSD>
0.0987900943

$$$$
