
 OpenBabel03272509183D

 38 41  0  0  0  0  0  0  0  0999 V2000
   37.9440   31.3370   47.7310 C   0  0  0  0  0  0  0  0  0  0  0  0
   37.0660   31.3180   48.8090 C   0  0  0  0  0  0  0  0  0  0  0  0
   37.2210   32.3860   49.6940 C   0  0  0  0  0  0  0  0  0  0  0  0
   38.1850   33.3710   49.4840 C   0  0  0  0  0  0  0  0  0  0  0  0
   39.0220   33.3010   48.3670 C   0  0  0  0  0  0  0  0  0  0  0  0
   38.8920   32.2580   47.4760 C   0  0  0  0  0  0  0  0  0  0  0  0
   36.5840   32.4590   50.5640 H   0  0  0  0  0  0  0  0  0  0  0  0
   38.2730   34.1880   50.2000 H   0  0  0  0  0  0  0  0  0  0  0  0
   39.7600   34.0700   48.2230 H   0  0  0  0  0  0  0  0  0  0  0  0
   34.8880   30.3280   48.2750 C   0  0  0  0  0  0  0  0  0  0  0  0
   36.0790   30.3080   49.0230 C   0  0  0  0  0  0  0  0  0  0  0  0
   36.2420   29.2850   49.9540 C   0  0  0  0  0  0  0  0  0  0  0  0
   35.2430   28.3670   50.0860 N   0  0  0  0  0  0  0  0  0  0  0  0
   34.1020   28.4180   49.3430 C   0  0  0  0  0  0  0  0  0  0  0  0
   33.9320   29.3970   48.4440 N   0  0  0  0  0  0  0  0  0  0  0  0
   34.7310   31.1140   47.5400 H   0  0  0  0  0  0  0  0  0  0  0  0
   33.3170   27.6870   49.4540 H   0  0  0  0  0  0  0  0  0  0  0  0
   37.4640   29.2090   50.7670 C   0  0  0  0  0  0  0  0  0  0  0  0
   37.1380   29.0420   51.8310 H   0  0  0  0  0  0  0  0  0  0  0  0
   38.0670   28.3390   50.4490 H   0  0  0  0  0  0  0  0  0  0  0  0
   38.0170   30.1590   50.6730 H   0  0  0  0  0  0  0  0  0  0  0  0
   37.8460   30.2830   46.7860 O   0  0  0  0  0  0  0  0  0  0  0  0
   38.6210   29.6270   46.8050 H   0  0  0  0  0  0  0  0  0  0  0  0
   39.7310   32.2170   46.3860 O   0  0  0  0  0  0  0  0  0  0  0  0
   40.8540   33.5230   44.1170 H   0  0  0  0  0  0  0  0  0  0  0  0
   39.8940   33.1750   44.0750 N   0  0  0  0  0  0  0  0  0  0  0  0
   39.3210   32.5530   45.1210 C   0  0  0  0  0  0  0  0  0  0  0  0
   38.0670   32.2390   44.7130 N   0  0  0  0  0  0  0  0  0  0  0  0
   37.8830   32.6600   43.4510 C   0  0  0  0  0  0  0  0  0  0  0  0
   36.8740   32.6530   42.4900 C   0  0  0  0  0  0  0  0  0  0  0  0
   37.0600   33.1960   41.2720 N   0  0  0  0  0  0  0  0  0  0  0  0
   38.2440   33.7730   40.9380 C   0  0  0  0  0  0  0  0  0  0  0  0
   38.4520   34.2230   39.9800 H   0  0  0  0  0  0  0  0  0  0  0  0
   39.2730   33.8190   41.8170 N   0  0  0  0  0  0  0  0  0  0  0  0
   39.0540   33.2660   43.0270 C   0  0  0  0  0  0  0  0  0  0  0  0
   35.6410   32.0440   42.8600 N   0  0  0  0  0  0  0  0  0  0  0  0
   34.9030   32.3870   43.5210 H   0  0  0  0  0  0  0  0  0  0  0  0
   35.5780   31.1390   42.3360 H   0  0  0  0  0  0  0  0  0  0  0  0
  1  2  1  0  0  0  0
  2 11  1  0  0  0  0
  2  3  2  0  0  0  0
  3  7  1  0  0  0  0
  4  3  1  0  0  0  0
  4  8  1  0  0  0  0
  5  4  2  0  0  0  0
  6  1  2  0  0  0  0
  6  5  1  0  0  0  0
  9  5  1  0  0  0  0
 10 15  2  0  0  0  0
 10 11  1  0  0  0  0
 11 12  2  0  0  0  0
 12 13  1  0  0  0  0
 12 18  1  0  0  0  0
 14 17  1  0  0  0  0
 14 13  2  0  0  0  0
 15 14  1  0  0  0  0
 16 10  1  0  0  0  0
 18 19  1  0  0  0  0
 20 18  1  0  0  0  0
 21 18  1  0  0  0  0
 22 23  1  0  0  0  0
 22  1  1  0  0  0  0
 24  6  1  0  0  0  0
 26 25  1  0  0  0  0
 26 27  1  0  0  0  0
 27 24  1  0  0  0  0
 28 27  2  0  0  0  0
 29 28  1  0  0  0  0
 30 36  1  0  0  0  0
 30 29  2  0  0  0  0
 31 30  1  0  0  0  0
 32 31  2  0  0  0  0
 32 34  1  0  0  0  0
 33 32  1  0  0  0  0
 34 35  2  0  0  0  0
 35 29  1  0  0  0  0
 35 26  1  0  0  0  0
 36 37  1  0  0  0  0
 38 36  1  0  0  0  0
M  END
>  <minimizedAffinity>
-7.00750303

>  <minimizedRMSD>
0.601079822

$$$$
