
 OpenBabel03272505093D

 34 37  0  0  0  0  0  0  0  0999 V2000
   35.3220   30.2070   46.2130 Cl  0  0  0  0  0  0  0  0  0  0  0  0
   35.2380   29.6850   47.8730 C   0  0  0  0  0  0  0  0  0  0  0  0
   36.2640   30.0920   48.7010 C   0  0  0  0  0  0  0  0  0  0  0  0
   36.2070   29.6830   50.0230 C   0  0  0  0  0  0  0  0  0  0  0  0
   35.1700   28.9090   50.4650 C   0  0  0  0  0  0  0  0  0  0  0  0
   34.1780   28.5400   49.5790 C   0  0  0  0  0  0  0  0  0  0  0  0
   34.1600   28.9040   48.2520 C   0  0  0  0  0  0  0  0  0  0  0  0
   37.0140   30.0030   50.6730 H   0  0  0  0  0  0  0  0  0  0  0  0
   35.1420   28.5970   51.5080 H   0  0  0  0  0  0  0  0  0  0  0  0
   33.3620   27.9230   49.9540 H   0  0  0  0  0  0  0  0  0  0  0  0
   38.5340   32.9230   48.3780 C   0  0  0  0  0  0  0  0  0  0  0  0
   39.3780   32.5580   47.2970 C   0  0  0  0  0  0  0  0  0  0  0  0
   39.1490   31.3310   46.6930 C   0  0  0  0  0  0  0  0  0  0  0  0
   38.1320   30.5560   47.1720 N   0  0  0  0  0  0  0  0  0  0  0  0
   37.3590   30.9230   48.1830 C   0  0  0  0  0  0  0  0  0  0  0  0
   37.5630   32.1100   48.7860 N   0  0  0  0  0  0  0  0  0  0  0  0
   38.7610   33.8910   48.8080 H   0  0  0  0  0  0  0  0  0  0  0  0
   40.1780   33.1480   46.9070 H   0  0  0  0  0  0  0  0  0  0  0  0
   39.7460   30.9980   45.8790 H   0  0  0  0  0  0  0  0  0  0  0  0
   32.9020   28.4430   47.0980 S   0  0  0  0  0  0  0  0  0  0  0  0
   34.0230   25.7490   48.2240 H   0  0  0  0  0  0  0  0  0  0  0  0
   33.2010   25.6170   47.6250 N   0  0  0  0  0  0  0  0  0  0  0  0
   32.6250   26.6970   47.0780 C   0  0  0  0  0  0  0  0  0  0  0  0
   31.5710   26.2530   46.3390 N   0  0  0  0  0  0  0  0  0  0  0  0
   31.5350   24.8970   46.4590 C   0  0  0  0  0  0  0  0  0  0  0  0
   30.7200   23.8910   45.9580 C   0  0  0  0  0  0  0  0  0  0  0  0
   30.9380   22.5970   46.2600 N   0  0  0  0  0  0  0  0  0  0  0  0
   31.9510   22.2250   47.0570 C   0  0  0  0  0  0  0  0  0  0  0  0
   32.0580   21.1800   47.2500 H   0  0  0  0  0  0  0  0  0  0  0  0
   32.7690   23.1930   47.5630 N   0  0  0  0  0  0  0  0  0  0  0  0
   32.5610   24.4880   47.2690 C   0  0  0  0  0  0  0  0  0  0  0  0
   29.6440   24.3230   45.1090 N   0  0  0  0  0  0  0  0  0  0  0  0
   28.6110   24.4880   45.2570 H   0  0  0  0  0  0  0  0  0  0  0  0
   29.9810   24.5090   44.1310 H   0  0  0  0  0  0  0  0  0  0  0  0
  1  2  1  0  0  0  0
  2  7  2  0  0  0  0
  2  3  1  0  0  0  0
  3  4  2  0  0  0  0
  4  5  1  0  0  0  0
  4  8  1  0  0  0  0
  5  9  1  0  0  0  0
  6 10  1  0  0  0  0
  6  5  2  0  0  0  0
  7  6  1  0  0  0  0
 11 16  1  0  0  0  0
 11 17  1  0  0  0  0
 12 11  2  0  0  0  0
 13 14  2  0  0  0  0
 13 12  1  0  0  0  0
 14 15  1  0  0  0  0
 15  3  1  0  0  0  0
 15 16  2  0  0  0  0
 18 12  1  0  0  0  0
 19 13  1  0  0  0  0
 20  7  1  0  0  0  0
 22 21  1  0  0  0  0
 23 20  1  0  0  0  0
 23 22  1  0  0  0  0
 24 25  1  0  0  0  0
 24 23  2  0  0  0  0
 25 31  1  0  0  0  0
 26 27  1  0  0  0  0
 26 25  2  0  0  0  0
 27 28  2  0  0  0  0
 28 29  1  0  0  0  0
 28 30  1  0  0  0  0
 31 30  2  0  0  0  0
 31 22  1  0  0  0  0
 32 33  1  0  0  0  0
 32 26  1  0  0  0  0
 34 32  1  0  0  0  0
M  END
>  <minimizedAffinity>
-5.4944725

>  <minimizedRMSD>
2.75280619

$$$$
