
 OpenBabel03262520493D

 53 58  0  0  1  0  0  0  0  0999 V2000
   39.5080   28.7720   43.1680 C   0  0  0  0  0  0  0  0  0  0  0  0
   40.3690   29.8000   42.8250 C   0  0  0  0  0  0  0  0  0  0  0  0
   41.1240   29.7200   41.6490 C   0  0  0  0  0  0  0  0  0  0  0  0
   41.0170   28.6170   40.8250 C   0  0  0  0  0  0  0  0  0  0  0  0
   41.6280   28.3170   39.6630 N   0  0  0  0  0  0  0  0  0  0  0  0
   41.1570   27.1210   39.2840 C   0  0  0  0  0  0  0  0  0  0  0  0
   40.2440   26.6180   40.1720 C   0  0  0  0  0  0  0  0  0  0  0  0
   40.1620   27.5880   41.1590 C   0  0  0  0  0  0  0  0  0  0  0  0
   39.4230   27.6780   42.3200 C   0  0  0  0  0  0  0  0  0  0  0  0
   38.8790   28.7290   44.0440 H   0  0  0  0  0  0  0  0  0  0  0  0
   41.7870   30.5500   41.4200 H   0  0  0  0  0  0  0  0  0  0  0  0
   42.3280   28.9330   39.1860 H   0  0  0  0  0  0  0  0  0  0  0  0
   41.4960   26.6530   38.3700 H   0  0  0  0  0  0  0  0  0  0  0  0
   39.7080   25.6810   40.1210 H   0  0  0  0  0  0  0  0  0  0  0  0
   38.5540   26.5880   42.6190 N   0  0  0  0  0  0  0  0  0  0  0  0
   39.0190   25.5980   43.4280 C   0  0  0  0  0  0  0  0  0  0  0  0
   39.9860   25.4710   43.9200 H   0  0  0  0  0  0  0  0  0  0  0  0
   38.0180   24.6890   43.5590 N   0  0  0  0  0  0  0  0  0  0  0  0
   36.9550   25.1120   42.8430 C   0  0  0  0  0  0  0  0  0  0  0  0
   35.6710   24.6700   42.5670 C   0  0  0  0  0  0  0  0  0  0  0  0
   34.8630   25.3850   41.7810 N   0  0  0  0  0  0  0  0  0  0  0  0
   35.2300   26.5470   41.2220 C   0  0  0  0  0  0  0  0  0  0  0  0
   34.4940   27.0350   40.6070 H   0  0  0  0  0  0  0  0  0  0  0  0
   36.4770   27.0220   41.4640 N   0  0  0  0  0  0  0  0  0  0  0  0
   37.2980   26.3200   42.2460 C   0  0  0  0  0  0  0  0  0  0  0  0
   35.2680   23.4350   43.1540 N   0  0  0  0  0  0  0  0  0  0  0  0
   34.6980   22.7640   42.5670 H   0  0  0  0  0  0  0  0  0  0  0  0
   35.4560   23.0800   44.1100 H   0  0  0  0  0  0  0  0  0  0  0  0
   40.4650   30.9850   43.7340 C   0  0  0  0  0  0  0  0  0  0  0  0
   39.9860   31.8270   43.1710 H   0  0  0  0  0  0  0  0  0  0  0  0
   41.5250   31.2250   43.9670 H   0  0  0  0  0  0  0  0  0  0  0  0
   39.6620   30.6720   44.9760 C   0  0  0  0  0  0  0  0  0  0  0  0
   39.9220   29.6230   45.2740 H   0  0  0  0  0  0  0  0  0  0  0  0
   38.5890   30.7740   44.6770 H   0  0  0  0  0  0  0  0  0  0  0  0
   38.8540   32.2980   46.7300 C   0  0  1  0  0  0  0  0  0  0  0  0
   40.0080   33.0120   46.0640 C   0  0  0  0  0  0  0  0  0  0  0  0
   39.9730   31.5380   46.1410 C   0  0  2  0  0  0  0  0  0  0  0  0
   37.8620   32.2900   46.2150 H   0  0  0  0  0  0  0  0  0  0  0  0
   39.8520   33.4310   45.0420 H   0  0  0  0  0  0  0  0  0  0  0  0
   40.7300   33.5880   46.6460 H   0  0  0  0  0  0  0  0  0  0  0  0
   40.6850   31.1220   46.9160 H   0  0  0  0  0  0  0  0  0  0  0  0
   38.7400   32.5180   48.2040 C   0  0  0  0  0  0  0  0  0  0  0  0
   38.2240   33.5010   48.3570 H   0  0  0  0  0  0  0  0  0  0  0  0
   39.7400   32.6020   48.6750 H   0  0  0  0  0  0  0  0  0  0  0  0
   37.5530   30.1440   50.8530 C   0  0  0  0  0  0  0  0  0  0  0  0
   38.2430   31.1980   50.1890 C   0  0  0  0  0  0  0  0  0  0  0  0
   38.0020   31.4110   48.8610 C   0  0  0  0  0  0  0  0  0  0  0  0
   37.1230   30.6120   48.2470 N   0  0  0  0  0  0  0  0  0  0  0  0
   36.4730   29.6220   48.8650 C   0  0  0  0  0  0  0  0  0  0  0  0
   36.7010   29.4030   50.1680 N   0  0  0  0  0  0  0  0  0  0  0  0
   37.7890   30.0240   51.9180 H   0  0  0  0  0  0  0  0  0  0  0  0
   38.9460   31.8200   50.7290 H   0  0  0  0  0  0  0  0  0  0  0  0
   35.7640   28.9770   48.3680 H   0  0  0  0  0  0  0  0  0  0  0  0
  1 10  1  0  0  0  0
  2  1  1  0  0  0  0
  2 29  1  0  0  0  0
  3  2  2  0  0  0  0
  4  8  2  0  0  0  0
  4  3  1  0  0  0  0
  5  4  1  0  0  0  0
  6  5  1  0  0  0  0
  6  7  2  0  0  0  0
  7  8  1  0  0  0  0
  8  9  1  0  0  0  0
  9 15  1  0  0  0  0
  9  1  2  0  0  0  0
 11  3  1  0  0  0  0
 12  5  1  0  0  0  0
 13  6  1  0  0  0  0
 14  7  1  0  0  0  0
 15 16  1  0  0  0  0
 16 18  2  0  0  0  0
 16 17  1  0  0  0  0
 19 18  1  0  0  0  0
 20 19  1  0  0  0  0
 20 26  1  0  0  0  0
 21 20  2  0  0  0  0
 22 24  2  0  0  0  0
 22 21  1  0  0  0  0
 23 22  1  0  0  0  0
 24 25  1  0  0  0  0
 25 15  1  0  0  0  0
 25 19  2  0  0  0  0
 26 28  1  0  0  0  0
 27 26  1  0  0  0  0
 29 31  1  0  0  0  0
 29 32  1  0  0  0  0
 30 29  1  0  0  0  0
 32 33  1  0  0  0  0
 32 37  1  0  0  0  0
 34 32  1  0  0  0  0
 35 38  1  6  0  0  0
 35 42  1  0  0  0  0
 36 37  1  0  0  0  0
 36 40  1  0  0  0  0
 36 35  1  0  0  0  0
 37 35  1  0  0  0  0
 37 41  1  1  0  0  0
 39 36  1  0  0  0  0
 42 43  1  0  0  0  0
 42 44  1  0  0  0  0
 42 47  1  0  0  0  0
 45 51  1  0  0  0  0
 46 52  1  0  0  0  0
 46 45  1  0  0  0  0
 47 46  2  0  0  0  0
 48 47  1  0  0  0  0
 48 49  2  0  0  0  0
 49 50  1  0  0  0  0
 50 45  2  0  0  0  0
 53 49  1  0  0  0  0
M  END
>  <minimizedAffinity>
-6.05149889

>  <minimizedRMSD>
0.344183087

$$$$
