
 OpenBabel03272508273D

 43 47  0  0  1  0  0  0  0  0999 V2000
   33.7250   29.0130   47.1310 C   0  0  2  0  0  0  0  0  0  0  0  0
   34.4280   28.1450   48.1610 C   0  0  2  0  0  0  0  0  0  0  0  0
   33.5280   27.9670   49.1740 O   0  0  0  0  0  0  0  0  0  0  0  0
   32.2530   28.1240   48.7130 C   0  0  0  0  0  0  0  0  0  0  0  0
   32.3180   28.4180   47.2300 C   0  0  1  0  0  0  0  0  0  0  0  0
   33.6480   30.0620   47.4480 H   0  0  0  0  0  0  0  0  0  0  0  0
   34.6660   27.1970   47.6260 H   0  0  0  0  0  0  0  0  0  0  0  0
   31.6830   27.1550   48.8100 H   0  0  0  0  0  0  0  0  0  0  0  0
   31.7250   28.8910   49.2900 H   0  0  0  0  0  0  0  0  0  0  0  0
   32.3600   27.4590   46.6690 H   0  0  0  0  0  0  0  0  0  0  0  0
   35.6110   30.2890   49.0000 C   0  0  1  0  0  0  0  0  0  0  0  0
   35.6350   28.8950   48.6250 C   0  0  1  0  0  0  0  0  0  0  0  0
   35.8560   29.2130   50.0690 C   0  0  0  0  0  0  0  0  0  0  0  0
   34.7340   30.9040   49.2760 H   0  0  0  0  0  0  0  0  0  0  0  0
   36.5720   28.5470   48.0990 H   0  0  0  0  0  0  0  0  0  0  0  0
   35.0010   28.9140   50.7100 H   0  0  0  0  0  0  0  0  0  0  0  0
   36.8570   29.1360   50.5170 H   0  0  0  0  0  0  0  0  0  0  0  0
   36.8300   31.1770   48.8050 C   0  0  0  0  0  0  0  0  0  0  0  0
   37.0120   32.2190   49.7150 C   0  0  0  0  0  0  0  0  0  0  0  0
   38.1270   33.0120   49.4700 C   0  0  0  0  0  0  0  0  0  0  0  0
   38.9600   32.7630   48.4100 N   0  0  0  0  0  0  0  0  0  0  0  0
   38.7370   31.7370   47.5560 C   0  0  0  0  0  0  0  0  0  0  0  0
   37.6610   30.9380   47.7580 N   0  0  0  0  0  0  0  0  0  0  0  0
   36.3470   32.3860   50.5270 H   0  0  0  0  0  0  0  0  0  0  0  0
   38.3580   33.8460   50.1160 H   0  0  0  0  0  0  0  0  0  0  0  0
   39.4240   31.5860   46.7380 H   0  0  0  0  0  0  0  0  0  0  0  0
   34.2420   28.8870   45.8560 O   0  0  0  0  0  0  0  0  0  0  0  0
   33.6270   29.3180   45.2400 H   0  0  0  0  0  0  0  0  0  0  0  0
   31.3610   29.2770   46.7640 O   0  0  0  0  0  0  0  0  0  0  0  0
   30.9230   28.1600   44.1820 H   0  0  0  0  0  0  0  0  0  0  0  0
   30.1400   28.2840   44.8530 N   0  0  0  0  0  0  0  0  0  0  0  0
   30.2450   28.8000   46.0900 C   0  0  0  0  0  0  0  0  0  0  0  0
   28.9890   28.7650   46.5820 N   0  0  0  0  0  0  0  0  0  0  0  0
   28.1310   28.2460   45.6820 C   0  0  0  0  0  0  0  0  0  0  0  0
   26.7740   27.9960   45.6860 C   0  0  0  0  0  0  0  0  0  0  0  0
   26.1410   27.4530   44.6230 N   0  0  0  0  0  0  0  0  0  0  0  0
   26.8940   27.1540   43.5350 C   0  0  0  0  0  0  0  0  0  0  0  0
   26.5800   26.7190   42.5920 H   0  0  0  0  0  0  0  0  0  0  0  0
   28.2230   27.3930   43.5150 N   0  0  0  0  0  0  0  0  0  0  0  0
   28.8800   27.9330   44.5580 C   0  0  0  0  0  0  0  0  0  0  0  0
   26.0130   28.3220   46.8450 N   0  0  0  0  0  0  0  0  0  0  0  0
   25.4980   27.6370   47.4710 H   0  0  0  0  0  0  0  0  0  0  0  0
   25.9920   29.3280   47.0540 H   0  0  0  0  0  0  0  0  0  0  0  0
  1  5  1  0  0  0  0
  1  6  1  1  0  0  0
  1  2  1  0  0  0  0
  2  7  1  6  0  0  0
  2 12  1  0  0  0  0
  2  3  1  0  0  0  0
  4  8  1  0  0  0  0
  4  3  1  0  0  0  0
  4  9  1  0  0  0  0
  5 10  1  6  0  0  0
  5  4  1  0  0  0  0
 11 14  1  1  0  0  0
 11 13  1  0  0  0  0
 12 15  1  6  0  0  0
 12 11  1  0  0  0  0
 12 13  1  0  0  0  0
 13 17  1  0  0  0  0
 13 16  1  0  0  0  0
 18 11  1  0  0  0  0
 18 19  1  0  0  0  0
 19 24  1  0  0  0  0
 20 19  2  0  0  0  0
 20 25  1  0  0  0  0
 21 20  1  0  0  0  0
 22 23  1  0  0  0  0
 22 21  2  0  0  0  0
 23 18  2  0  0  0  0
 26 22  1  0  0  0  0
 27  1  1  0  0  0  0
 28 27  1  0  0  0  0
 29  5  1  0  0  0  0
 30 31  1  0  0  0  0
 31 32  1  0  0  0  0
 32 33  2  0  0  0  0
 32 29  1  0  0  0  0
 34 35  1  0  0  0  0
 34 33  1  0  0  0  0
 35 41  1  0  0  0  0
 36 35  2  0  0  0  0
 37 36  1  0  0  0  0
 38 37  1  0  0  0  0
 39 37  2  0  0  0  0
 39 40  1  0  0  0  0
 40 31  1  0  0  0  0
 40 34  2  0  0  0  0
 41 43  1  0  0  0  0
 41 42  1  0  0  0  0
M  END
>  <minimizedAffinity>
-5.70073128

>  <minimizedRMSD>
1.59288657

$$$$
