
 OpenBabel03272505093D

 34 37  0  0  0  0  0  0  0  0999 V2000
   36.3560   30.8780   46.0230 Cl  0  0  0  0  0  0  0  0  0  0  0  0
   36.7600   30.8430   47.7180 C   0  0  0  0  0  0  0  0  0  0  0  0
   38.0550   31.1870   48.0500 C   0  0  0  0  0  0  0  0  0  0  0  0
   38.3880   31.1620   49.3950 C   0  0  0  0  0  0  0  0  0  0  0  0
   37.4580   30.8070   50.3330 C   0  0  0  0  0  0  0  0  0  0  0  0
   36.1810   30.4750   49.9260 C   0  0  0  0  0  0  0  0  0  0  0  0
   35.7700   30.4750   48.6130 C   0  0  0  0  0  0  0  0  0  0  0  0
   39.4040   31.4330   49.6560 H   0  0  0  0  0  0  0  0  0  0  0  0
   37.7370   30.7930   51.3850 H   0  0  0  0  0  0  0  0  0  0  0  0
   35.4580   30.1960   50.6900 H   0  0  0  0  0  0  0  0  0  0  0  0
   40.1960   33.2910   45.9870 C   0  0  0  0  0  0  0  0  0  0  0  0
   40.8160   32.3740   45.0990 C   0  0  0  0  0  0  0  0  0  0  0  0
   40.4830   31.0340   45.2280 C   0  0  0  0  0  0  0  0  0  0  0  0
   39.5850   30.6830   46.1940 N   0  0  0  0  0  0  0  0  0  0  0  0
   39.0210   31.5610   47.0090 C   0  0  0  0  0  0  0  0  0  0  0  0
   39.3290   32.8680   46.9040 N   0  0  0  0  0  0  0  0  0  0  0  0
   40.4950   34.3210   45.8370 H   0  0  0  0  0  0  0  0  0  0  0  0
   41.5210   32.6270   44.3370 H   0  0  0  0  0  0  0  0  0  0  0  0
   40.9130   30.2960   44.5950 H   0  0  0  0  0  0  0  0  0  0  0  0
   34.1430   30.0520   48.0660 S   0  0  0  0  0  0  0  0  0  0  0  0
   34.0520   27.1390   49.2000 H   0  0  0  0  0  0  0  0  0  0  0  0
   33.9990   27.1680   48.1760 N   0  0  0  0  0  0  0  0  0  0  0  0
   34.0270   28.3600   47.5650 C   0  0  0  0  0  0  0  0  0  0  0  0
   33.9440   28.1230   46.2260 N   0  0  0  0  0  0  0  0  0  0  0  0
   33.8660   26.7740   46.0590 C   0  0  0  0  0  0  0  0  0  0  0  0
   33.7630   25.9280   44.9640 C   0  0  0  0  0  0  0  0  0  0  0  0
   33.7020   24.5910   45.1130 N   0  0  0  0  0  0  0  0  0  0  0  0
   33.7370   24.0200   46.3280 C   0  0  0  0  0  0  0  0  0  0  0  0
   33.6840   22.9540   46.3640 H   0  0  0  0  0  0  0  0  0  0  0  0
   33.8380   24.8280   47.4240 N   0  0  0  0  0  0  0  0  0  0  0  0
   33.9000   26.1640   47.2850 C   0  0  0  0  0  0  0  0  0  0  0  0
   33.7280   26.5700   43.6790 N   0  0  0  0  0  0  0  0  0  0  0  0
   32.9540   26.8240   43.0050 H   0  0  0  0  0  0  0  0  0  0  0  0
   34.6930   26.8350   43.3590 H   0  0  0  0  0  0  0  0  0  0  0  0
  1  2  1  0  0  0  0
  2  3  2  0  0  0  0
  2  7  1  0  0  0  0
  3  4  1  0  0  0  0
  4  8  1  0  0  0  0
  4  5  2  0  0  0  0
  5  9  1  0  0  0  0
  6  5  1  0  0  0  0
  6 10  1  0  0  0  0
  7  6  2  0  0  0  0
 11 16  1  0  0  0  0
 12 13  1  0  0  0  0
 12 11  2  0  0  0  0
 13 14  2  0  0  0  0
 14 15  1  0  0  0  0
 15  3  1  0  0  0  0
 16 15  2  0  0  0  0
 17 11  1  0  0  0  0
 18 12  1  0  0  0  0
 19 13  1  0  0  0  0
 20  7  1  0  0  0  0
 22 21  1  0  0  0  0
 23 20  1  0  0  0  0
 23 22  1  0  0  0  0
 24 23  2  0  0  0  0
 25 24  1  0  0  0  0
 25 31  1  0  0  0  0
 26 27  1  0  0  0  0
 26 25  2  0  0  0  0
 27 28  2  0  0  0  0
 28 29  1  0  0  0  0
 28 30  1  0  0  0  0
 31 30  2  0  0  0  0
 31 22  1  0  0  0  0
 32 26  1  0  0  0  0
 33 32  1  0  0  0  0
 34 32  1  0  0  0  0
M  END
>  <minimizedAffinity>
-5.64266634

>  <minimizedRMSD>
1.37304389

$$$$
