
 OpenBabel03272501193D

 35 38  0  0  0  0  0  0  0  0999 V2000
   39.0400   32.0220   47.3920 C   0  0  0  0  0  0  0  0  0  0  0  0
   38.3130   32.0060   48.5730 C   0  0  0  0  0  0  0  0  0  0  0  0
   38.4750   33.1350   49.3780 C   0  0  0  0  0  0  0  0  0  0  0  0
   39.3120   34.1880   49.0030 C   0  0  0  0  0  0  0  0  0  0  0  0
   40.0040   34.1210   47.8000 C   0  0  0  0  0  0  0  0  0  0  0  0
   39.8670   33.0170   46.9760 C   0  0  0  0  0  0  0  0  0  0  0  0
   37.9380   33.1910   50.3140 H   0  0  0  0  0  0  0  0  0  0  0  0
   39.4430   35.0650   49.6210 H   0  0  0  0  0  0  0  0  0  0  0  0
   40.6590   34.9450   47.5070 H   0  0  0  0  0  0  0  0  0  0  0  0
   36.2190   30.7520   48.3350 C   0  0  0  0  0  0  0  0  0  0  0  0
   37.4590   30.9310   48.9560 C   0  0  0  0  0  0  0  0  0  0  0  0
   37.8150   30.0120   49.9620 C   0  0  0  0  0  0  0  0  0  0  0  0
   36.9380   29.0120   50.2660 N   0  0  0  0  0  0  0  0  0  0  0  0
   35.7550   28.8810   49.6390 C   0  0  0  0  0  0  0  0  0  0  0  0
   35.3920   29.7490   48.6730 N   0  0  0  0  0  0  0  0  0  0  0  0
   35.9650   31.4730   47.5620 H   0  0  0  0  0  0  0  0  0  0  0  0
   38.7700   30.1110   50.4750 H   0  0  0  0  0  0  0  0  0  0  0  0
   35.0540   28.0860   49.8780 H   0  0  0  0  0  0  0  0  0  0  0  0
   38.9390   30.9290   46.5210 O   0  0  0  0  0  0  0  0  0  0  0  0
   39.1070   29.9760   46.8170 H   0  0  0  0  0  0  0  0  0  0  0  0
   40.5740   32.9950   45.7950 O   0  0  0  0  0  0  0  0  0  0  0  0
   38.3830   33.0730   43.9770 H   0  0  0  0  0  0  0  0  0  0  0  0
   39.1260   32.3730   43.8660 N   0  0  0  0  0  0  0  0  0  0  0  0
   40.1910   32.2730   44.6820 C   0  0  0  0  0  0  0  0  0  0  0  0
   40.9340   31.2540   44.2290 N   0  0  0  0  0  0  0  0  0  0  0  0
   40.3390   30.7210   43.1350 C   0  0  0  0  0  0  0  0  0  0  0  0
   40.5970   29.6930   42.2500 C   0  0  0  0  0  0  0  0  0  0  0  0
   39.7820   29.4150   41.2420 N   0  0  0  0  0  0  0  0  0  0  0  0
   38.6590   30.1410   41.0490 C   0  0  0  0  0  0  0  0  0  0  0  0
   37.9610   29.9510   40.2370 H   0  0  0  0  0  0  0  0  0  0  0  0
   38.3800   31.1380   41.8820 N   0  0  0  0  0  0  0  0  0  0  0  0
   39.1870   31.4360   42.9070 C   0  0  0  0  0  0  0  0  0  0  0  0
   41.7990   28.9480   42.4900 N   0  0  0  0  0  0  0  0  0  0  0  0
   42.5960   29.5560   42.1450 H   0  0  0  0  0  0  0  0  0  0  0  0
   42.1060   28.0180   42.8910 H   0  0  0  0  0  0  0  0  0  0  0  0
  1  2  1  0  0  0  0
  2 11  1  0  0  0  0
  2  3  2  0  0  0  0
  3  7  1  0  0  0  0
  4  3  1  0  0  0  0
  4  8  1  0  0  0  0
  5  4  2  0  0  0  0
  6  1  2  0  0  0  0
  6  5  1  0  0  0  0
  9  5  1  0  0  0  0
 10 15  2  0  0  0  0
 10 11  1  0  0  0  0
 11 12  2  0  0  0  0
 12 13  1  0  0  0  0
 12 17  1  0  0  0  0
 14 18  1  0  0  0  0
 14 13  2  0  0  0  0
 15 14  1  0  0  0  0
 16 10  1  0  0  0  0
 19 20  1  0  0  0  0
 19  1  1  0  0  0  0
 21  6  1  0  0  0  0
 23 22  1  0  0  0  0
 23 24  1  0  0  0  0
 24 21  1  0  0  0  0
 25 24  2  0  0  0  0
 26 25  1  0  0  0  0
 27 33  1  0  0  0  0
 27 26  2  0  0  0  0
 28 27  1  0  0  0  0
 29 28  2  0  0  0  0
 29 31  1  0  0  0  0
 30 29  1  0  0  0  0
 31 32  2  0  0  0  0
 32 26  1  0  0  0  0
 32 23  1  0  0  0  0
 33 35  1  0  0  0  0
 34 33  1  0  0  0  0
M  END
>  <minimizedAffinity>
-7.20313454

>  <minimizedRMSD>
3.01881289

$$$$
