
 OpenBabel03262521553D

 44 47  0  0  1  0  0  0  0  0999 V2000
   33.3010   27.1340   48.3420 C   0  0  1  0  0  0  0  0  0  0  0  0
   33.7660   28.5250   48.6900 C   0  0  2  0  0  0  0  0  0  0  0  0
   33.6000   29.3910   47.4770 C   0  0  0  0  0  0  0  0  0  0  0  0
   33.1040   28.6920   46.3870 O   0  0  0  0  0  0  0  0  0  0  0  0
   31.8640   28.1180   46.6510 C   0  0  0  0  0  0  0  0  0  0  0  0
   31.8640   27.2550   47.8810 C   0  0  2  0  0  0  0  0  0  0  0  0
   33.3140   26.4580   49.2240 H   0  0  0  0  0  0  0  0  0  0  0  0
   33.0730   28.8830   49.4900 H   0  0  0  0  0  0  0  0  0  0  0  0
   32.9240   30.2530   47.6510 H   0  0  0  0  0  0  0  0  0  0  0  0
   34.5710   29.8340   47.1550 H   0  0  0  0  0  0  0  0  0  0  0  0
   31.5840   27.5500   45.7270 H   0  0  0  0  0  0  0  0  0  0  0  0
   31.1050   28.9190   46.7260 H   0  0  0  0  0  0  0  0  0  0  0  0
   31.4260   26.2740   47.5900 H   0  0  0  0  0  0  0  0  0  0  0  0
   34.0380   26.6230   47.2700 O   0  0  0  0  0  0  0  0  0  0  0  0
   34.0010   25.6420   47.3160 H   0  0  0  0  0  0  0  0  0  0  0  0
   35.4720   28.5490   49.2880 S   0  0  0  0  0  0  0  0  0  0  0  0
   35.6700   29.7990   50.5760 C   0  0  0  0  0  0  0  0  0  0  0  0
   35.0490   30.6770   50.2980 H   0  0  0  0  0  0  0  0  0  0  0  0
   35.2430   29.4140   51.5450 H   0  0  0  0  0  0  0  0  0  0  0  0
   37.3630   30.2900   50.8770 S   0  0  0  0  0  0  0  0  0  0  0  0
   38.0030   31.1300   49.4440 C   0  0  0  0  0  0  0  0  0  0  0  0
   38.3780   32.4320   49.6730 C   0  0  0  0  0  0  0  0  0  0  0  0
   38.8970   33.1780   48.5900 C   0  0  0  0  0  0  0  0  0  0  0  0
   38.9960   32.5510   47.3740 N   0  0  0  0  0  0  0  0  0  0  0  0
   38.6080   31.2640   47.2230 C   0  0  0  0  0  0  0  0  0  0  0  0
   38.1240   30.5710   48.2320 N   0  0  0  0  0  0  0  0  0  0  0  0
   38.3270   32.9860   50.5990 H   0  0  0  0  0  0  0  0  0  0  0  0
   39.2080   34.2040   48.7060 H   0  0  0  0  0  0  0  0  0  0  0  0
   38.7400   30.8920   46.2140 H   0  0  0  0  0  0  0  0  0  0  0  0
   31.1880   27.8930   48.9120 O   0  0  0  0  0  0  0  0  0  0  0  0
   29.4830   29.4650   47.2590 H   0  0  0  0  0  0  0  0  0  0  0  0
   29.1100   28.9850   48.1070 N   0  0  0  0  0  0  0  0  0  0  0  0
   29.8630   28.2290   48.9270 C   0  0  0  0  0  0  0  0  0  0  0  0
   29.0860   27.7420   49.9370 N   0  0  0  0  0  0  0  0  0  0  0  0
   27.8270   28.1810   49.7760 C   0  0  0  0  0  0  0  0  0  0  0  0
   26.6230   28.0340   50.4530 C   0  0  0  0  0  0  0  0  0  0  0  0
   25.5190   28.6420   49.9840 N   0  0  0  0  0  0  0  0  0  0  0  0
   25.5530   29.4000   48.8600 C   0  0  0  0  0  0  0  0  0  0  0  0
   24.6240   29.8620   48.5380 H   0  0  0  0  0  0  0  0  0  0  0  0
   26.7210   29.5450   48.2020 N   0  0  0  0  0  0  0  0  0  0  0  0
   27.8680   28.9550   48.6260 C   0  0  0  0  0  0  0  0  0  0  0  0
   26.5810   27.2490   51.6200 N   0  0  0  0  0  0  0  0  0  0  0  0
   27.2550   27.1030   52.3800 H   0  0  0  0  0  0  0  0  0  0  0  0
   25.8040   26.6210   51.9580 H   0  0  0  0  0  0  0  0  0  0  0  0
  1  2  1  0  0  0  0
  1  7  1  1  0  0  0
  2 16  1  0  0  0  0
  2  8  1  1  0  0  0
  3  9  1  0  0  0  0
  3  2  1  0  0  0  0
  4  5  1  0  0  0  0
  4  3  1  0  0  0  0
  5 12  1  0  0  0  0
  5  6  1  0  0  0  0
  6 13  1  6  0  0  0
  6  1  1  0  0  0  0
  6 30  1  0  0  0  0
 10  3  1  0  0  0  0
 11  5  1  0  0  0  0
 14 15  1  0  0  0  0
 14  1  1  0  0  0  0
 16 17  1  0  0  0  0
 17 20  1  0  0  0  0
 17 19  1  0  0  0  0
 18 17  1  0  0  0  0
 21 22  1  0  0  0  0
 21 20  1  0  0  0  0
 22 27  1  0  0  0  0
 23 28  1  0  0  0  0
 23 22  2  0  0  0  0
 24 23  1  0  0  0  0
 25 24  2  0  0  0  0
 25 26  1  0  0  0  0
 26 21  2  0  0  0  0
 29 25  1  0  0  0  0
 30 33  1  0  0  0  0
 31 32  1  0  0  0  0
 32 41  1  0  0  0  0
 32 33  1  0  0  0  0
 33 34  2  0  0  0  0
 35 34  1  0  0  0  0
 35 36  1  0  0  0  0
 36 42  1  0  0  0  0
 37 36  2  0  0  0  0
 38 37  1  0  0  0  0
 39 38  1  0  0  0  0
 40 41  1  0  0  0  0
 40 38  2  0  0  0  0
 41 35  2  0  0  0  0
 42 44  1  0  0  0  0
 42 43  1  0  0  0  0
M  END
>  <minimizedAffinity>
-6.47045803

>  <minimizedRMSD>
1.0899049

$$$$
