
 OpenBabel03272509433D

 43 46  0  0  1  0  0  0  0  0999 V2000
   36.9870   30.8810   49.1700 C   0  0  0  0  0  0  0  0  0  0  0  0
   36.6450   31.7960   50.1690 C   0  0  0  0  0  0  0  0  0  0  0  0
   37.1770   33.0770   50.2000 C   0  0  0  0  0  0  0  0  0  0  0  0
   38.0800   33.4680   49.2080 C   0  0  0  0  0  0  0  0  0  0  0  0
   38.4050   32.5640   48.2400 C   0  0  0  0  0  0  0  0  0  0  0  0
   37.8540   31.2920   48.2380 C   0  0  0  0  0  0  0  0  0  0  0  0
   35.9360   31.4610   50.9290 H   0  0  0  0  0  0  0  0  0  0  0  0
   36.8360   33.6860   51.0180 H   0  0  0  0  0  0  0  0  0  0  0  0
   38.4460   34.4790   49.3060 H   0  0  0  0  0  0  0  0  0  0  0  0
   39.1180   33.0120   47.5420 H   0  0  0  0  0  0  0  0  0  0  0  0
   36.4590   29.5350   49.1540 C   0  0  2  0  0  0  0  0  0  0  0  0
   36.9290   29.0320   48.2230 H   0  0  0  0  0  0  0  0  0  0  0  0
   33.5840   29.5730   46.9320 C   0  0  0  0  0  0  0  0  0  0  0  0
   32.7970   28.5300   47.3830 C   0  0  0  0  0  0  0  0  0  0  0  0
   33.2170   27.8360   48.5030 C   0  0  0  0  0  0  0  0  0  0  0  0
   34.3920   28.2020   49.1240 N   0  0  0  0  0  0  0  0  0  0  0  0
   35.0980   29.2040   48.6430 C   0  0  0  0  0  0  0  0  0  0  0  0
   34.7030   29.8960   47.5500 N   0  0  0  0  0  0  0  0  0  0  0  0
   33.2600   30.1190   46.0540 H   0  0  0  0  0  0  0  0  0  0  0  0
   31.8700   28.2100   46.9250 H   0  0  0  0  0  0  0  0  0  0  0  0
   32.6650   27.0120   48.9240 H   0  0  0  0  0  0  0  0  0  0  0  0
   37.0130   28.7780   50.0340 O   0  0  0  0  0  0  0  0  0  0  0  0
   36.8950   28.9590   51.0080 H   0  0  0  0  0  0  0  0  0  0  0  0
   38.3080   30.4290   47.1730 C   0  0  0  0  0  3  0  0  0  0  0  0
   38.5880   30.8530   45.9360 C   0  0  0  0  0  3  0  0  0  0  0  0
   39.0990   30.0710   44.7860 C   0  0  0  0  0  0  0  0  0  0  0  0
   38.2830   30.0240   44.0350 H   0  0  0  0  0  0  0  0  0  0  0  0
   39.3270   29.0230   45.0690 H   0  0  0  0  0  0  0  0  0  0  0  0
   40.5150   30.9060   44.0640 S   0  0  0  0  0  0  0  0  0  0  0  0
   42.1460   28.5560   42.8010 H   0  0  0  0  0  0  0  0  0  0  0  0
   41.6950   29.2010   42.1190 N   0  0  0  0  0  0  0  0  0  0  0  0
   40.9550   30.2670   42.4790 C   0  0  0  0  0  0  0  0  0  0  0  0
   40.5030   30.9110   41.3870 N   0  0  0  0  0  0  0  0  0  0  0  0
   40.9500   30.2650   40.2780 C   0  0  0  0  0  0  0  0  0  0  0  0
   40.8010   30.4720   38.9210 C   0  0  0  0  0  0  0  0  0  0  0  0
   41.4000   29.6070   38.0530 N   0  0  0  0  0  0  0  0  0  0  0  0
   42.1260   28.5670   38.5470 C   0  0  0  0  0  0  0  0  0  0  0  0
   42.5850   27.9040   37.8150 H   0  0  0  0  0  0  0  0  0  0  0  0
   42.2640   28.3730   39.8900 N   0  0  0  0  0  0  0  0  0  0  0  0
   41.6850   29.2100   40.7740 C   0  0  0  0  0  0  0  0  0  0  0  0
   40.0210   31.5920   38.5060 N   0  0  0  0  0  0  0  0  0  0  0  0
   39.1230   31.8760   38.9390 H   0  0  0  0  0  0  0  0  0  0  0  0
   40.4620   32.1000   37.7040 H   0  0  0  0  0  0  0  0  0  0  0  0
  1  2  1  0  0  0  0
  2  3  2  0  0  0  0
  2  7  1  0  0  0  0
  3  8  1  0  0  0  0
  4  9  1  0  0  0  0
  4  3  1  0  0  0  0
  5  4  2  0  0  0  0
  6  5  1  0  0  0  0
  6  1  2  0  0  0  0
 10  5  1  0  0  0  0
 11 12  1  6  0  0  0
 11  1  1  0  0  0  0
 11 22  1  0  0  0  0
 13 14  2  0  0  0  0
 13 18  1  0  0  0  0
 14 15  1  0  0  0  0
 15 21  1  0  0  0  0
 15 16  2  0  0  0  0
 17 16  1  0  0  0  0
 17 11  1  0  0  0  0
 18 17  2  0  0  0  0
 19 13  1  0  0  0  0
 20 14  1  0  0  0  0
 22 23  1  0  0  0  0
 24  6  1  0  0  0  0
 25 24  2  0  0  0  0
 26 28  1  0  0  0  0
 26 25  1  0  0  0  0
 27 26  1  0  0  0  0
 29 26  1  0  0  0  0
 31 32  1  0  0  0  0
 31 30  1  0  0  0  0
 32 29  1  0  0  0  0
 33 32  2  0  0  0  0
 34 40  1  0  0  0  0
 34 33  1  0  0  0  0
 35 34  2  0  0  0  0
 36 37  2  0  0  0  0
 36 35  1  0  0  0  0
 37 39  1  0  0  0  0
 38 37  1  0  0  0  0
 39 40  2  0  0  0  0
 40 31  1  0  0  0  0
 41 35  1  0  0  0  0
 41 42  1  0  0  0  0
 43 41  1  0  0  0  0
M  END
>  <minimizedAffinity>
-6.34960604

>  <minimizedRMSD>
0.936601281

$$$$
