
 OpenBabel03272504193D

 32 34  0  0  0  0  0  0  0  0999 V2000
   35.3100   28.5870   48.7340 O   0  0  0  0  0  0  0  0  0  0  0  0
   34.8800   29.9990   49.0030 P   0  0  2  0  0  0  0  0  0  0  0  0
   33.8720   29.9680   50.3920 O   0  0  0  0  0  0  0  0  0  0  0  0
   33.1500   30.6640   50.2850 H   0  0  0  0  0  0  0  0  0  0  0  0
   33.9960   30.6200   47.7150 O   0  0  0  0  0  0  0  0  0  0  0  0
   34.1280   29.7710   46.6430 C   0  0  0  0  0  0  0  0  0  0  0  0
   35.1790   29.5600   46.3570 H   0  0  0  0  0  0  0  0  0  0  0  0
   33.6870   28.7590   46.8760 H   0  0  0  0  0  0  0  0  0  0  0  0
   33.4410   30.2660   45.4210 C   0  0  0  0  0  0  0  0  0  0  0  0
   32.2340   30.9360   45.5760 C   0  0  0  0  0  0  0  0  0  0  0  0
   31.5790   31.4070   44.4340 C   0  0  0  0  0  0  0  0  0  0  0  0
   32.1720   31.1760   43.2250 N   0  0  0  0  0  0  0  0  0  0  0  0
   33.3420   30.5220   43.1110 C   0  0  0  0  0  0  0  0  0  0  0  0
   33.9780   30.0680   44.1960 N   0  0  0  0  0  0  0  0  0  0  0  0
   31.8170   31.0870   46.5630 H   0  0  0  0  0  0  0  0  0  0  0  0
   30.6340   31.9330   44.5330 H   0  0  0  0  0  0  0  0  0  0  0  0
   33.6990   30.4080   42.0960 H   0  0  0  0  0  0  0  0  0  0  0  0
   36.2510   30.9520   49.3000 O   0  0  0  0  0  0  0  0  0  0  0  0
   37.2770   29.3970   47.1540 H   0  0  0  0  0  0  0  0  0  0  0  0
   37.6530   30.3620   47.3890 N   0  0  0  0  0  0  0  0  0  0  0  0
   37.2490   31.1920   48.3800 C   0  0  0  0  0  0  0  0  0  0  0  0
   37.9980   32.3090   48.3160 N   0  0  0  0  0  0  0  0  0  0  0  0
   38.8790   32.2000   47.2910 C   0  0  0  0  0  0  0  0  0  0  0  0
   39.8510   33.0870   46.8310 C   0  0  0  0  0  0  0  0  0  0  0  0
   40.6060   32.7200   45.7690 N   0  0  0  0  0  0  0  0  0  0  0  0
   40.3750   31.5020   45.2060 C   0  0  0  0  0  0  0  0  0  0  0  0
   41.0050   31.2570   44.3620 H   0  0  0  0  0  0  0  0  0  0  0  0
   39.4370   30.6600   45.6590 N   0  0  0  0  0  0  0  0  0  0  0  0
   38.6460   30.9550   46.7120 C   0  0  0  0  0  0  0  0  0  0  0  0
   40.0050   34.3410   47.5000 N   0  0  0  0  0  0  0  0  0  0  0  0
   39.1930   34.8350   47.9090 H   0  0  0  0  0  0  0  0  0  0  0  0
   40.9790   34.7410   47.5580 H   0  0  0  0  0  0  0  0  0  0  0  0
  2  1  2  6  0  0  0
  2 18  1  0  0  0  0
  2  3  1  0  0  0  0
  4  3  1  0  0  0  0
  5  2  1  0  0  0  0
  6  8  1  0  0  0  0
  6  5  1  0  0  0  0
  7  6  1  0  0  0  0
  9 10  1  0  0  0  0
  9  6  1  0  0  0  0
 10 15  1  0  0  0  0
 11 16  1  0  0  0  0
 11 10  2  0  0  0  0
 12 11  1  0  0  0  0
 13 12  2  0  0  0  0
 13 14  1  0  0  0  0
 14  9  2  0  0  0  0
 17 13  1  0  0  0  0
 19 20  1  0  0  0  0
 20 21  1  0  0  0  0
 21 18  1  0  0  0  0
 22 21  2  0  0  0  0
 23 22  1  0  0  0  0
 24 23  1  0  0  0  0
 24 30  1  0  0  0  0
 25 24  2  0  0  0  0
 26 28  2  0  0  0  0
 26 25  1  0  0  0  0
 27 26  1  0  0  0  0
 28 29  1  0  0  0  0
 29 23  2  0  0  0  0
 29 20  1  0  0  0  0
 30 32  1  0  0  0  0
 30 31  1  0  0  0  0
M  END
>  <minimizedAffinity>
-4.97684813

>  <minimizedRMSD>
4.92059755

$$$$
