
 OpenBabel03262522203D

 24 26  0  0  0  0  0  0  0  0999 V2000
   35.6150   30.3890   46.5580 H   0  0  0  0  0  0  0  0  0  0  0  0
   35.8050   30.0590   47.5500 N   0  0  0  0  0  0  0  0  0  0  0  0
   35.2470   29.0710   48.2820 C   0  0  0  0  0  0  0  0  0  0  0  0
   35.8290   29.0390   49.5000 N   0  0  0  0  0  0  0  0  0  0  0  0
   36.7690   30.0240   49.5420 C   0  0  0  0  0  0  0  0  0  0  0  0
   37.6450   30.4400   50.5130 C   0  0  0  0  0  0  0  0  0  0  0  0
   38.4660   31.4690   50.2330 N   0  0  0  0  0  0  0  0  0  0  0  0
   38.4360   32.0800   49.0330 C   0  0  0  0  0  0  0  0  0  0  0  0
   39.1140   32.8990   48.8590 H   0  0  0  0  0  0  0  0  0  0  0  0
   37.5820   31.6710   48.0940 N   0  0  0  0  0  0  0  0  0  0  0  0
   36.7440   30.6510   48.3210 C   0  0  0  0  0  0  0  0  0  0  0  0
   37.6970   29.8170   51.7790 N   0  0  0  0  0  0  0  0  0  0  0  0
   37.2920   29.8440   52.7210 H   0  0  0  0  0  0  0  0  0  0  0  0
   38.4320   29.1020   51.5570 H   0  0  0  0  0  0  0  0  0  0  0  0
   34.2590   28.3190   47.7100 O   0  0  0  0  0  0  0  0  0  0  0  0
   31.9440   28.0270   47.6130 C   0  0  0  0  0  0  0  0  0  0  0  0
   33.0660   28.7670   47.1880 C   0  0  0  0  0  0  0  0  0  0  0  0
   32.8450   29.8380   46.3140 C   0  0  0  0  0  0  0  0  0  0  0  0
   31.5830   30.1000   45.9280 N   0  0  0  0  0  0  0  0  0  0  0  0
   30.5280   29.3720   46.3540 C   0  0  0  0  0  0  0  0  0  0  0  0
   30.6970   28.3220   47.2040 N   0  0  0  0  0  0  0  0  0  0  0  0
   31.9740   27.1780   48.2850 H   0  0  0  0  0  0  0  0  0  0  0  0
   33.7280   30.3490   46.0360 H   0  0  0  0  0  0  0  0  0  0  0  0
   29.6110   29.7610   45.9170 H   0  0  0  0  0  0  0  0  0  0  0  0
  1  2  1  0  0  0  0
  2  3  1  0  0  0  0
  2 11  1  0  0  0  0
  3  4  2  0  0  0  0
  4  5  1  0  0  0  0
  5  6  1  0  0  0  0
  6 12  1  0  0  0  0
  7  6  2  0  0  0  0
  8  7  1  0  0  0  0
  9  8  1  0  0  0  0
 10 11  1  0  0  0  0
 10  8  2  0  0  0  0
 11  5  2  0  0  0  0
 12 13  1  0  0  0  0
 14 12  1  0  0  0  0
 15  3  1  0  0  0  0
 16 22  1  0  0  0  0
 17 16  2  0  0  0  0
 17 15  1  0  0  0  0
 18 17  1  0  0  0  0
 19 18  2  0  0  0  0
 19 20  1  0  0  0  0
 20 21  2  0  0  0  0
 21 16  1  0  0  0  0
 23 18  1  0  0  0  0
 24 20  1  0  0  0  0
M  END
>  <minimizedAffinity>
-4.84091234

>  <minimizedRMSD>
5.4619422

$$$$
