
 OpenBabel03262520493D

 53 58  0  0  1  0  0  0  0  0999 V2000
   39.3600   28.8700   43.1080 C   0  0  0  0  0  0  0  0  0  0  0  0
   40.3630   29.7850   42.8420 C   0  0  0  0  0  0  0  0  0  0  0  0
   41.1920   29.6130   41.7270 C   0  0  0  0  0  0  0  0  0  0  0  0
   41.0160   28.5320   40.8870 C   0  0  0  0  0  0  0  0  0  0  0  0
   41.6740   28.1590   39.7730 N   0  0  0  0  0  0  0  0  0  0  0  0
   41.0920   27.0290   39.3490 C   0  0  0  0  0  0  0  0  0  0  0  0
   40.0590   26.6410   40.1580 C   0  0  0  0  0  0  0  0  0  0  0  0
   40.0180   27.6150   41.1450 C   0  0  0  0  0  0  0  0  0  0  0  0
   39.2080   27.7940   42.2460 C   0  0  0  0  0  0  0  0  0  0  0  0
   38.6640   28.9040   43.9330 H   0  0  0  0  0  0  0  0  0  0  0  0
   41.9660   30.3560   41.5570 H   0  0  0  0  0  0  0  0  0  0  0  0
   42.4780   28.6840   39.3570 H   0  0  0  0  0  0  0  0  0  0  0  0
   41.4410   26.5220   38.4590 H   0  0  0  0  0  0  0  0  0  0  0  0
   39.4180   25.7770   40.0580 H   0  0  0  0  0  0  0  0  0  0  0  0
   38.1920   26.8190   42.4680 N   0  0  0  0  0  0  0  0  0  0  0  0
   36.9690   27.0240   41.9080 C   0  0  0  0  0  0  0  0  0  0  0  0
   36.5950   27.8400   41.2860 H   0  0  0  0  0  0  0  0  0  0  0  0
   36.1890   25.9690   42.2610 N   0  0  0  0  0  0  0  0  0  0  0  0
   36.9190   25.1300   43.0250 C   0  0  0  0  0  0  0  0  0  0  0  0
   36.7300   23.9230   43.6810 C   0  0  0  0  0  0  0  0  0  0  0  0
   37.7250   23.3640   44.3720 N   0  0  0  0  0  0  0  0  0  0  0  0
   38.9420   23.9180   44.4740 C   0  0  0  0  0  0  0  0  0  0  0  0
   39.6660   23.3770   45.0570 H   0  0  0  0  0  0  0  0  0  0  0  0
   39.1770   25.1000   43.8510 N   0  0  0  0  0  0  0  0  0  0  0  0
   38.1920   25.6720   43.1560 C   0  0  0  0  0  0  0  0  0  0  0  0
   35.4410   23.3240   43.5790 N   0  0  0  0  0  0  0  0  0  0  0  0
   35.0300   22.8700   44.4440 H   0  0  0  0  0  0  0  0  0  0  0  0
   34.8170   23.2610   42.7530 H   0  0  0  0  0  0  0  0  0  0  0  0
   40.5320   30.9500   43.7660 C   0  0  0  0  0  0  0  0  0  0  0  0
   40.1480   31.8360   43.1960 H   0  0  0  0  0  0  0  0  0  0  0  0
   41.6000   31.0950   44.0370 H   0  0  0  0  0  0  0  0  0  0  0  0
   39.6620   30.7000   44.9770 C   0  0  0  0  0  0  0  0  0  0  0  0
   39.8490   29.6420   45.2970 H   0  0  0  0  0  0  0  0  0  0  0  0
   38.6100   30.8590   44.6330 H   0  0  0  0  0  0  0  0  0  0  0  0
   38.8560   32.3160   46.7410 C   0  0  1  0  0  0  0  0  0  0  0  0
   40.0040   33.0370   46.0730 C   0  0  0  0  0  0  0  0  0  0  0  0
   39.9740   31.5630   46.1450 C   0  0  2  0  0  0  0  0  0  0  0  0
   37.8610   32.3070   46.2290 H   0  0  0  0  0  0  0  0  0  0  0  0
   39.8430   33.4600   45.0530 H   0  0  0  0  0  0  0  0  0  0  0  0
   40.7270   33.6130   46.6540 H   0  0  0  0  0  0  0  0  0  0  0  0
   40.6910   31.1460   46.9140 H   0  0  0  0  0  0  0  0  0  0  0  0
   38.7460   32.5300   48.2160 C   0  0  0  0  0  0  0  0  0  0  0  0
   38.2320   33.5130   48.3750 H   0  0  0  0  0  0  0  0  0  0  0  0
   39.7480   32.6110   48.6840 H   0  0  0  0  0  0  0  0  0  0  0  0
   37.5550   30.1540   50.8610 C   0  0  0  0  0  0  0  0  0  0  0  0
   38.2440   31.2100   50.2000 C   0  0  0  0  0  0  0  0  0  0  0  0
   38.0090   31.4210   48.8710 C   0  0  0  0  0  0  0  0  0  0  0  0
   37.1370   30.6180   48.2530 N   0  0  0  0  0  0  0  0  0  0  0  0
   36.4880   29.6260   48.8690 C   0  0  0  0  0  0  0  0  0  0  0  0
   36.7090   29.4090   50.1730 N   0  0  0  0  0  0  0  0  0  0  0  0
   37.7860   30.0360   51.9280 H   0  0  0  0  0  0  0  0  0  0  0  0
   38.9430   31.8350   50.7420 H   0  0  0  0  0  0  0  0  0  0  0  0
   35.7830   28.9780   48.3680 H   0  0  0  0  0  0  0  0  0  0  0  0
  1 10  1  0  0  0  0
  2  1  1  0  0  0  0
  2 29  1  0  0  0  0
  3  2  2  0  0  0  0
  4  8  2  0  0  0  0
  4  3  1  0  0  0  0
  5  4  1  0  0  0  0
  6  5  1  0  0  0  0
  6  7  2  0  0  0  0
  7  8  1  0  0  0  0
  8  9  1  0  0  0  0
  9 15  1  0  0  0  0
  9  1  2  0  0  0  0
 11  3  1  0  0  0  0
 12  5  1  0  0  0  0
 13  6  1  0  0  0  0
 14  7  1  0  0  0  0
 15 25  1  0  0  0  0
 16 18  2  0  0  0  0
 16 15  1  0  0  0  0
 17 16  1  0  0  0  0
 18 19  1  0  0  0  0
 19 25  2  0  0  0  0
 19 20  1  0  0  0  0
 20 21  2  0  0  0  0
 21 22  1  0  0  0  0
 22 23  1  0  0  0  0
 24 22  2  0  0  0  0
 25 24  1  0  0  0  0
 26 20  1  0  0  0  0
 26 27  1  0  0  0  0
 28 26  1  0  0  0  0
 29 31  1  0  0  0  0
 29 32  1  0  0  0  0
 30 29  1  0  0  0  0
 32 33  1  0  0  0  0
 32 37  1  0  0  0  0
 34 32  1  0  0  0  0
 35 38  1  6  0  0  0
 35 42  1  0  0  0  0
 36 37  1  0  0  0  0
 36 40  1  0  0  0  0
 36 35  1  0  0  0  0
 37 35  1  0  0  0  0
 37 41  1  1  0  0  0
 39 36  1  0  0  0  0
 42 43  1  0  0  0  0
 42 44  1  0  0  0  0
 42 47  1  0  0  0  0
 45 51  1  0  0  0  0
 46 52  1  0  0  0  0
 46 45  1  0  0  0  0
 47 46  2  0  0  0  0
 48 49  2  0  0  0  0
 48 47  1  0  0  0  0
 49 50  1  0  0  0  0
 50 45  2  0  0  0  0
 53 49  1  0  0  0  0
M  END
>  <minimizedAffinity>
-6.21246433

>  <minimizedRMSD>
0.538344264

$$$$
