
 OpenBabel03262521523D

 28 30  0  0  0  0  0  0  0  0999 V2000
   34.4150   28.0860   48.9720 S   0  0  0  0  0  0  0  0  0  0  0  0
   33.5330   30.0550   46.7080 H   0  0  0  0  0  0  0  0  0  0  0  0
   32.7560   29.4190   46.9710 N   0  0  0  0  0  0  0  0  0  0  0  0
   33.0330   28.5290   47.9410 C   0  0  0  0  0  0  0  0  0  0  0  0
   31.9140   27.7900   48.1510 N   0  0  0  0  0  0  0  0  0  0  0  0
   30.9220   28.1860   47.3350 C   0  0  0  0  0  0  0  0  0  0  0  0
   29.6130   27.8380   47.0880 C   0  0  0  0  0  0  0  0  0  0  0  0
   28.9210   28.5160   46.1360 N   0  0  0  0  0  0  0  0  0  0  0  0
   29.5130   29.5230   45.4390 C   0  0  0  0  0  0  0  0  0  0  0  0
   28.8850   30.0210   44.6870 H   0  0  0  0  0  0  0  0  0  0  0  0
   30.8090   29.8800   45.6710 N   0  0  0  0  0  0  0  0  0  0  0  0
   31.4970   29.2090   46.6140 C   0  0  0  0  0  0  0  0  0  0  0  0
   29.0500   26.7750   47.8520 N   0  0  0  0  0  0  0  0  0  0  0  0
   28.3090   27.1650   48.4710 H   0  0  0  0  0  0  0  0  0  0  0  0
   29.2940   25.7610   47.8370 H   0  0  0  0  0  0  0  0  0  0  0  0
   34.7180   29.3570   50.2490 C   0  0  0  0  0  0  0  0  0  0  0  0
   34.3230   30.3270   49.8580 H   0  0  0  0  0  0  0  0  0  0  0  0
   34.0910   29.1240   51.1390 H   0  0  0  0  0  0  0  0  0  0  0  0
   36.4570   29.4840   50.6990 S   0  0  0  0  0  0  0  0  0  0  0  0
   37.2440   30.6360   49.6010 C   0  0  0  0  0  0  0  0  0  0  0  0
   37.2850   31.9510   50.0490 C   0  0  0  0  0  0  0  0  0  0  0  0
   37.8950   32.9070   49.2220 C   0  0  0  0  0  0  0  0  0  0  0  0
   38.4190   32.5170   48.0220 N   0  0  0  0  0  0  0  0  0  0  0  0
   38.3420   31.2150   47.6480 C   0  0  0  0  0  0  0  0  0  0  0  0
   37.7730   30.3080   48.4150 N   0  0  0  0  0  0  0  0  0  0  0  0
   36.8790   32.2840   50.9930 H   0  0  0  0  0  0  0  0  0  0  0  0
   37.9520   33.9450   49.5280 H   0  0  0  0  0  0  0  0  0  0  0  0
   38.7640   30.9190   46.6900 H   0  0  0  0  0  0  0  0  0  0  0  0
  1 16  1  0  0  0  0
  2  3  1  0  0  0  0
  3  4  1  0  0  0  0
  4  5  2  0  0  0  0
  4  1  1  0  0  0  0
  6  5  1  0  0  0  0
  7  6  1  0  0  0  0
  7 13  1  0  0  0  0
  8  7  2  0  0  0  0
  9 11  2  0  0  0  0
  9  8  1  0  0  0  0
 10  9  1  0  0  0  0
 11 12  1  0  0  0  0
 12  3  1  0  0  0  0
 12  6  2  0  0  0  0
 13 14  1  0  0  0  0
 15 13  1  0  0  0  0
 16 19  1  0  0  0  0
 16 18  1  0  0  0  0
 17 16  1  0  0  0  0
 20 21  1  0  0  0  0
 20 19  1  0  0  0  0
 21 26  1  0  0  0  0
 22 27  1  0  0  0  0
 22 21  2  0  0  0  0
 23 22  1  0  0  0  0
 24 23  2  0  0  0  0
 24 25  1  0  0  0  0
 25 20  2  0  0  0  0
 28 24  1  0  0  0  0
M  END
>  <minimizedAffinity>
-4.5128336

>  <minimizedRMSD>
2.57136774

$$$$
