
 OpenBabel03272507163D

 31 34  0  0  1  0  0  0  0  0999 V2000
   36.8550   30.9640   50.5750 C   0  0  1  0  0  0  0  0  0  0  0  0
   36.1890   29.6810   50.6050 C   0  0  2  0  0  0  0  0  0  0  0  0
   37.5140   29.8020   51.3290 C   0  0  0  0  0  0  0  0  0  0  0  0
   36.5770   31.8150   51.2440 H   0  0  0  0  0  0  0  0  0  0  0  0
   35.2530   29.6010   51.1820 H   0  0  0  0  0  0  0  0  0  0  0  0
   37.3960   29.7990   52.4230 H   0  0  0  0  0  0  0  0  0  0  0  0
   38.3860   29.3140   50.8910 H   0  0  0  0  0  0  0  0  0  0  0  0
   37.6660   31.3990   49.3810 C   0  0  0  0  0  0  0  0  0  0  0  0
   38.2220   32.6760   49.4520 C   0  0  0  0  0  0  0  0  0  0  0  0
   38.9520   33.0750   48.3230 C   0  0  0  0  0  0  0  0  0  0  0  0
   39.0790   32.2310   47.2540 N   0  0  0  0  0  0  0  0  0  0  0  0
   38.5210   30.9980   47.2330 C   0  0  0  0  0  0  0  0  0  0  0  0
   37.8010   30.5700   48.3130 N   0  0  0  0  0  0  0  0  0  0  0  0
   38.0840   33.2930   50.3290 H   0  0  0  0  0  0  0  0  0  0  0  0
   39.4050   34.0540   48.3220 H   0  0  0  0  0  0  0  0  0  0  0  0
   38.6230   30.3340   46.3870 H   0  0  0  0  0  0  0  0  0  0  0  0
   36.2200   28.8700   49.4590 O   0  0  0  0  0  0  0  0  0  0  0  0
   34.5100   26.5950   49.3660 H   0  0  0  0  0  0  0  0  0  0  0  0
   34.2520   27.4500   48.8270 N   0  0  0  0  0  0  0  0  0  0  0  0
   35.0210   28.5540   48.8330 C   0  0  0  0  0  0  0  0  0  0  0  0
   34.3730   29.4260   48.0400 N   0  0  0  0  0  0  0  0  0  0  0  0
   33.2420   28.9060   47.5480 C   0  0  0  0  0  0  0  0  0  0  0  0
   32.1990   29.2770   46.7240 C   0  0  0  0  0  0  0  0  0  0  0  0
   31.1820   28.4580   46.4340 N   0  0  0  0  0  0  0  0  0  0  0  0
   31.1330   27.2080   46.9500 C   0  0  0  0  0  0  0  0  0  0  0  0
   30.2810   26.6130   46.6690 H   0  0  0  0  0  0  0  0  0  0  0  0
   32.1360   26.8170   47.7590 N   0  0  0  0  0  0  0  0  0  0  0  0
   33.1700   27.6120   48.0680 C   0  0  0  0  0  0  0  0  0  0  0  0
   32.2340   30.5720   46.1790 N   0  0  0  0  0  0  0  0  0  0  0  0
   32.0020   31.4700   46.6820 H   0  0  0  0  0  0  0  0  0  0  0  0
   32.4260   31.1390   45.3290 H   0  0  0  0  0  0  0  0  0  0  0  0
  1  2  1  0  0  0  0
  1  4  1  1  0  0  0
  1  3  1  0  0  0  0
  2  5  1  1  0  0  0
  2  3  1  0  0  0  0
  3  6  1  0  0  0  0
  7  3  1  0  0  0  0
  8  9  1  0  0  0  0
  8  1  1  0  0  0  0
  9 14  1  0  0  0  0
 10  9  2  0  0  0  0
 11 10  1  0  0  0  0
 12 11  2  0  0  0  0
 12 13  1  0  0  0  0
 13  8  2  0  0  0  0
 15 10  1  0  0  0  0
 16 12  1  0  0  0  0
 17  2  1  0  0  0  0
 19 20  1  0  0  0  0
 19 18  1  0  0  0  0
 20 17  1  0  0  0  0
 21 20  2  0  0  0  0
 22 21  1  0  0  0  0
 22 28  1  0  0  0  0
 23 22  2  0  0  0  0
 24 23  1  0  0  0  0
 24 25  2  0  0  0  0
 25 27  1  0  0  0  0
 26 25  1  0  0  0  0
 27 28  2  0  0  0  0
 28 19  1  0  0  0  0
 29 30  1  0  0  0  0
 29 23  1  0  0  0  0
 31 29  1  0  0  0  0
M  END
>  <minimizedAffinity>
-5.74032927

>  <minimizedRMSD>
1.94477522

$$$$
