
 OpenBabel03272509183D

 38 41  0  0  0  0  0  0  0  0999 V2000
   37.9440   31.4010   48.0420 C   0  0  0  0  0  0  0  0  0  0  0  0
   36.8420   31.2780   48.8800 C   0  0  0  0  0  0  0  0  0  0  0  0
   36.7090   32.3120   49.8060 C   0  0  0  0  0  0  0  0  0  0  0  0
   37.6220   33.3640   49.8600 C   0  0  0  0  0  0  0  0  0  0  0  0
   38.7000   33.3970   48.9720 C   0  0  0  0  0  0  0  0  0  0  0  0
   38.8580   32.3890   48.0450 C   0  0  0  0  0  0  0  0  0  0  0  0
   35.8820   32.3060   50.5020 H   0  0  0  0  0  0  0  0  0  0  0  0
   37.4810   34.1520   50.6000 H   0  0  0  0  0  0  0  0  0  0  0  0
   39.3940   34.2160   49.0300 H   0  0  0  0  0  0  0  0  0  0  0  0
   34.8520   30.2390   47.8950 C   0  0  0  0  0  0  0  0  0  0  0  0
   35.9070   30.1990   48.8230 C   0  0  0  0  0  0  0  0  0  0  0  0
   35.9920   29.0890   49.6590 C   0  0  0  0  0  0  0  0  0  0  0  0
   35.0520   28.1100   49.5300 N   0  0  0  0  0  0  0  0  0  0  0  0
   34.0430   28.1830   48.6180 C   0  0  0  0  0  0  0  0  0  0  0  0
   33.9490   29.2460   47.8080 N   0  0  0  0  0  0  0  0  0  0  0  0
   34.7580   31.0930   47.2280 H   0  0  0  0  0  0  0  0  0  0  0  0
   33.3030   27.4030   48.5230 H   0  0  0  0  0  0  0  0  0  0  0  0
   37.0730   28.9870   50.6510 C   0  0  0  0  0  0  0  0  0  0  0  0
   36.5940   28.6850   51.6240 H   0  0  0  0  0  0  0  0  0  0  0  0
   37.7780   28.1910   50.3510 H   0  0  0  0  0  0  0  0  0  0  0  0
   37.5650   29.9700   50.7470 H   0  0  0  0  0  0  0  0  0  0  0  0
   38.1470   30.3860   47.0700 O   0  0  0  0  0  0  0  0  0  0  0  0
   38.9410   29.7790   47.2530 H   0  0  0  0  0  0  0  0  0  0  0  0
   39.9300   32.4510   47.1840 O   0  0  0  0  0  0  0  0  0  0  0  0
   38.6430   33.9720   45.1500 H   0  0  0  0  0  0  0  0  0  0  0  0
   39.1680   33.1320   44.8950 N   0  0  0  0  0  0  0  0  0  0  0  0
   39.7920   32.3820   45.8220 C   0  0  0  0  0  0  0  0  0  0  0  0
   40.3740   31.3690   45.1350 N   0  0  0  0  0  0  0  0  0  0  0  0
   40.1110   31.5000   43.8250 C   0  0  0  0  0  0  0  0  0  0  0  0
   40.3950   30.8320   42.6350 C   0  0  0  0  0  0  0  0  0  0  0  0
   39.9370   31.2790   41.4520 N   0  0  0  0  0  0  0  0  0  0  0  0
   39.1780   32.4050   41.3750 C   0  0  0  0  0  0  0  0  0  0  0  0
   38.7850   32.8110   40.4570 H   0  0  0  0  0  0  0  0  0  0  0  0
   38.8590   33.1090   42.4860 N   0  0  0  0  0  0  0  0  0  0  0  0
   39.3330   32.6340   43.6570 C   0  0  0  0  0  0  0  0  0  0  0  0
   41.1920   29.6550   42.7370 N   0  0  0  0  0  0  0  0  0  0  0  0
   40.9380   28.7110   43.1160 H   0  0  0  0  0  0  0  0  0  0  0  0
   42.1350   29.8920   42.3470 H   0  0  0  0  0  0  0  0  0  0  0  0
  1  6  2  0  0  0  0
  1  2  1  0  0  0  0
  2  3  2  0  0  0  0
  3  4  1  0  0  0  0
  3  7  1  0  0  0  0
  4  8  1  0  0  0  0
  5  9  1  0  0  0  0
  5  4  2  0  0  0  0
  6  5  1  0  0  0  0
 10 11  1  0  0  0  0
 11  2  1  0  0  0  0
 11 12  2  0  0  0  0
 12 18  1  0  0  0  0
 13 12  1  0  0  0  0
 14 13  2  0  0  0  0
 15 10  2  0  0  0  0
 15 14  1  0  0  0  0
 16 10  1  0  0  0  0
 17 14  1  0  0  0  0
 18 21  1  0  0  0  0
 18 19  1  0  0  0  0
 20 18  1  0  0  0  0
 22 23  1  0  0  0  0
 22  1  1  0  0  0  0
 24  6  1  0  0  0  0
 26 25  1  0  0  0  0
 26 27  1  0  0  0  0
 27 24  1  0  0  0  0
 28 27  2  0  0  0  0
 29 28  1  0  0  0  0
 30 36  1  0  0  0  0
 30 29  2  0  0  0  0
 31 30  1  0  0  0  0
 32 31  2  0  0  0  0
 32 34  1  0  0  0  0
 33 32  1  0  0  0  0
 34 35  2  0  0  0  0
 35 29  1  0  0  0  0
 35 26  1  0  0  0  0
 36 37  1  0  0  0  0
 38 36  1  0  0  0  0
M  END
>  <minimizedAffinity>
-7.4910779

>  <minimizedRMSD>
0.951531947

$$$$
