
 OpenBabel03262522153D

 50 54  0  0  1  0  0  0  0  0999 V2000
   39.0420   29.7400   42.7800 C   0  0  1  0  0  0  0  0  0  0  0  0
   38.9100   31.2030   42.3840 C   0  0  0  0  0  0  0  0  0  0  0  0
   39.9660   31.8490   43.2290 C   0  0  2  0  0  0  0  0  0  0  0  0
   40.4510   30.9130   44.0910 O   0  0  0  0  0  0  0  0  0  0  0  0
   39.5150   29.9020   44.2150 C   0  0  0  0  0  0  0  0  0  0  0  0
   39.8720   29.2470   42.2220 H   0  0  0  0  0  0  0  0  0  0  0  0
   37.9320   31.5430   42.7370 H   0  0  0  0  0  0  0  0  0  0  0  0
   39.0840   31.3310   41.2970 H   0  0  0  0  0  0  0  0  0  0  0  0
   40.8040   32.1740   42.5630 H   0  0  0  0  0  0  0  0  0  0  0  0
   40.0710   29.0020   44.5740 H   0  0  0  0  0  0  0  0  0  0  0  0
   38.6670   30.1800   44.8670 H   0  0  0  0  0  0  0  0  0  0  0  0
   39.4400   33.0750   43.9290 C   0  0  0  0  0  0  0  0  0  0  0  0
   38.3740   33.0140   44.1760 H   0  0  0  0  0  0  0  0  0  0  0  0
   39.5850   33.9450   43.2430 H   0  0  0  0  0  0  0  0  0  0  0  0
   40.5110   33.3900   45.3550 S   0  0  0  0  0  0  0  0  0  0  0  0
   37.7770   31.8520   47.7820 C   0  0  0  0  0  0  0  0  0  0  0  0
   37.9440   32.5530   48.9760 C   0  0  0  0  0  0  0  0  0  0  0  0
   38.9050   33.5330   49.0930 C   0  0  0  0  0  0  0  0  0  0  0  0
   39.6690   33.7670   47.9800 C   0  0  0  0  0  0  0  0  0  0  0  0
   39.4930   33.0730   46.8200 C   0  0  0  0  0  0  0  0  0  0  0  0
   38.5510   32.1080   46.6980 N   0  0  0  0  0  0  0  0  0  0  0  0
   37.3050   32.3200   49.8220 H   0  0  0  0  0  0  0  0  0  0  0  0
   39.0360   34.0810   50.0290 H   0  0  0  0  0  0  0  0  0  0  0  0
   40.4480   34.5220   47.9890 H   0  0  0  0  0  0  0  0  0  0  0  0
   36.7470   30.8420   47.7400 C   0  0  0  0  0  0  0  0  0  0  0  0
   36.3060   30.4150   46.6740 O   0  0  0  0  0  0  0  0  0  0  0  0
   37.0370   29.6480   49.8840 C   0  0  0  0  0  0  0  0  0  0  0  0
   36.1650   30.2630   48.9680 C   0  0  0  0  0  0  0  0  0  0  0  0
   34.7850   30.3130   49.2360 C   0  0  0  0  0  0  0  0  0  0  0  0
   34.3430   29.7450   50.4050 N   0  0  0  0  0  0  0  0  0  0  0  0
   35.1930   29.1610   51.2680 C   0  0  0  0  0  0  0  0  0  0  0  0
   36.5110   29.1140   51.0100 N   0  0  0  0  0  0  0  0  0  0  0  0
   38.0820   29.6160   49.6700 H   0  0  0  0  0  0  0  0  0  0  0  0
   34.1520   30.7900   48.5140 H   0  0  0  0  0  0  0  0  0  0  0  0
   34.6750   28.7730   52.1220 H   0  0  0  0  0  0  0  0  0  0  0  0
   37.8260   29.0910   42.7050 O   0  0  0  0  0  0  0  0  0  0  0  0
   36.1130   27.7490   40.8670 H   0  0  0  0  0  0  0  0  0  0  0  0
   36.7800   27.1700   41.4210 N   0  0  0  0  0  0  0  0  0  0  0  0
   37.6050   27.7940   42.3030 C   0  0  0  0  0  0  0  0  0  0  0  0
   38.3900   26.8590   42.9170 N   0  0  0  0  0  0  0  0  0  0  0  0
   38.0480   25.6480   42.4110 C   0  0  0  0  0  0  0  0  0  0  0  0
   38.4580   24.3390   42.6110 C   0  0  0  0  0  0  0  0  0  0  0  0
   37.8740   23.3670   41.9090 N   0  0  0  0  0  0  0  0  0  0  0  0
   36.8990   23.5750   41.0040 C   0  0  0  0  0  0  0  0  0  0  0  0
   36.4580   22.7350   40.4580 H   0  0  0  0  0  0  0  0  0  0  0  0
   36.4670   24.8500   40.7780 N   0  0  0  0  0  0  0  0  0  0  0  0
   37.0470   25.8510   41.4820 C   0  0  0  0  0  0  0  0  0  0  0  0
   39.4900   24.1410   43.5710 N   0  0  0  0  0  0  0  0  0  0  0  0
   40.5390   23.9980   43.4900 H   0  0  0  0  0  0  0  0  0  0  0  0
   39.2170   24.1260   44.5770 H   0  0  0  0  0  0  0  0  0  0  0  0
  1  6  1  6  0  0  0
  1  5  1  0  0  0  0
  2  7  1  0  0  0  0
  2  1  1  0  0  0  0
  2  3  1  0  0  0  0
  3  9  1  6  0  0  0
  3 12  1  0  0  0  0
  3  4  1  0  0  0  0
  4  5  1  0  0  0  0
  5 10  1  0  0  0  0
  5 11  1  0  0  0  0
  8  2  1  0  0  0  0
 12 13  1  0  0  0  0
 12 15  1  0  0  0  0
 14 12  1  0  0  0  0
 15 20  1  0  0  0  0
 16 17  1  0  0  0  0
 17 18  2  0  0  0  0
 17 22  1  0  0  0  0
 18 23  1  0  0  0  0
 19 24  1  0  0  0  0
 19 18  1  0  0  0  0
 20 19  2  0  0  0  0
 21 20  1  0  0  0  0
 21 16  2  0  0  0  0
 25 16  1  0  0  0  0
 25 28  1  0  0  0  0
 26 25  2  0  0  0  0
 27 32  1  0  0  0  0
 28 29  1  0  0  0  0
 28 27  2  0  0  0  0
 29 30  2  0  0  0  0
 30 31  1  0  0  0  0
 31 35  1  0  0  0  0
 32 31  2  0  0  0  0
 33 27  1  0  0  0  0
 34 29  1  0  0  0  0
 36  1  1  0  0  0  0
 37 38  1  0  0  0  0
 38 47  1  0  0  0  0
 38 39  1  0  0  0  0
 39 36  1  0  0  0  0
 39 40  2  0  0  0  0
 41 42  1  0  0  0  0
 41 40  1  0  0  0  0
 42 48  1  0  0  0  0
 43 42  2  0  0  0  0
 44 43  1  0  0  0  0
 45 44  1  0  0  0  0
 46 44  2  0  0  0  0
 46 47  1  0  0  0  0
 47 41  2  0  0  0  0
 48 50  1  0  0  0  0
 49 48  1  0  0  0  0
M  END
>  <minimizedAffinity>
-5.58950233

>  <minimizedRMSD>
1.23195112

$$$$
