
 OpenBabel03272501073D

 45 49  0  0  1  0  0  0  0  0999 V2000
   39.4340   32.2670   44.3760 Cl  0  0  0  0  0  0  0  0  0  0  0  0
   38.0460   31.2380   44.1480 C   0  0  0  0  0  0  0  0  0  0  0  0
   37.2750   31.0720   45.2890 C   0  0  0  0  0  0  0  0  0  0  0  0
   36.1670   30.2550   45.1140 C   0  0  0  0  0  0  0  0  0  0  0  0
   35.8560   29.6550   43.9150 C   0  0  0  0  0  0  0  0  0  0  0  0
   36.6720   29.8670   42.8220 C   0  0  0  0  0  0  0  0  0  0  0  0
   37.7770   30.6630   42.9310 C   0  0  0  0  0  0  0  0  0  0  0  0
   35.4490   30.0060   45.8840 H   0  0  0  0  0  0  0  0  0  0  0  0
   35.0120   29.0190   43.7400 H   0  0  0  0  0  0  0  0  0  0  0  0
   36.4620   29.4160   41.8620 H   0  0  0  0  0  0  0  0  0  0  0  0
   38.6640   30.9300   41.8610 N   0  0  0  0  0  0  0  0  0  0  0  0
   38.5080   31.9040   40.9530 C   0  0  0  0  0  0  0  0  0  0  0  0
   37.7380   32.6490   40.8340 H   0  0  0  0  0  0  0  0  0  0  0  0
   39.5200   31.8950   40.0700 N   0  0  0  0  0  0  0  0  0  0  0  0
   40.3740   30.8990   40.3850 C   0  0  0  0  0  0  0  0  0  0  0  0
   41.5560   30.3930   39.8840 C   0  0  0  0  0  0  0  0  0  0  0  0
   42.1580   29.3380   40.4870 N   0  0  0  0  0  0  0  0  0  0  0  0
   41.6080   28.7640   41.5880 C   0  0  0  0  0  0  0  0  0  0  0  0
   42.1310   27.9210   42.0310 H   0  0  0  0  0  0  0  0  0  0  0  0
   40.4510   29.2630   42.0730 N   0  0  0  0  0  0  0  0  0  0  0  0
   39.8170   30.3110   41.5080 C   0  0  0  0  0  0  0  0  0  0  0  0
   42.1010   31.0220   38.7290 N   0  0  0  0  0  0  0  0  0  0  0  0
   42.9430   31.5450   38.4090 H   0  0  0  0  0  0  0  0  0  0  0  0
   41.7770   31.1630   37.7280 H   0  0  0  0  0  0  0  0  0  0  0  0
   37.3690   31.5410   46.5480 O   0  0  0  0  0  0  0  0  0  0  0  0
   37.7790   31.0720   47.7480 C   0  0  2  0  0  0  0  0  0  0  0  0
   36.6740   31.2320   48.8480 C   0  0  2  0  0  0  0  0  0  0  0  0
   37.4960   31.3080   50.0470 C   0  0  0  0  0  0  0  0  0  0  0  0
   38.6580   31.9970   49.7330 O   0  0  0  0  0  0  0  0  0  0  0  0
   38.7520   32.0990   48.3890 C   0  0  0  0  0  0  0  0  0  0  0  0
   38.2680   30.1060   47.8260 H   0  0  0  0  0  0  0  0  0  0  0  0
   36.2020   32.2130   48.6240 H   0  0  0  0  0  0  0  0  0  0  0  0
   36.9340   31.9070   50.8230 H   0  0  0  0  0  0  0  0  0  0  0  0
   37.7990   30.3620   50.5050 H   0  0  0  0  0  0  0  0  0  0  0  0
   39.7740   31.9170   48.0090 H   0  0  0  0  0  0  0  0  0  0  0  0
   38.4020   33.0990   48.0380 H   0  0  0  0  0  0  0  0  0  0  0  0
   34.7670   28.0290   49.3740 C   0  0  0  0  0  0  0  0  0  0  0  0
   35.7960   29.0060   49.5150 C   0  0  0  0  0  0  0  0  0  0  0  0
   35.6670   30.2080   48.7580 C   0  0  0  0  0  0  0  0  0  0  0  0
   34.5740   30.3760   47.9310 N   0  0  0  0  0  0  0  0  0  0  0  0
   33.6380   29.4200   47.8380 C   0  0  0  0  0  0  0  0  0  0  0  0
   33.7180   28.2550   48.5430 N   0  0  0  0  0  0  0  0  0  0  0  0
   34.9030   27.1460   49.9570 H   0  0  0  0  0  0  0  0  0  0  0  0
   36.6120   28.8220   50.1650 H   0  0  0  0  0  0  0  0  0  0  0  0
   32.8100   29.6140   47.1740 H   0  0  0  0  0  0  0  0  0  0  0  0
  2  1  1  0  0  0  0
  2  3  1  0  0  0  0
  3 25  1  0  0  0  0
  4  3  2  0  0  0  0
  4  8  1  0  0  0  0
  5  4  1  0  0  0  0
  6  7  1  0  0  0  0
  6  5  2  0  0  0  0
  7  2  2  0  0  0  0
  9  5  1  0  0  0  0
 10  6  1  0  0  0  0
 11  7  1  0  0  0  0
 12 11  1  0  0  0  0
 13 12  1  0  0  0  0
 14 15  1  0  0  0  0
 14 12  2  0  0  0  0
 15 21  1  0  0  0  0
 16 15  2  0  0  0  0
 16 17  1  0  0  0  0
 17 18  2  0  0  0  0
 18 19  1  0  0  0  0
 18 20  1  0  0  0  0
 21 11  1  0  0  0  0
 21 20  2  0  0  0  0
 22 16  1  0  0  0  0
 23 22  1  0  0  0  0
 24 22  1  0  0  0  0
 25 26  1  0  0  0  0
 26 31  1  6  0  0  0
 26 30  1  0  0  0  0
 26 27  1  0  0  0  0
 27 32  1  6  0  0  0
 27 28  1  0  0  0  0
 28 34  1  0  0  0  0
 28 33  1  0  0  0  0
 29 28  1  0  0  0  0
 30 29  1  0  0  0  0
 35 30  1  0  0  0  0
 36 30  1  0  0  0  0
 37 38  1  0  0  0  0
 37 43  1  0  0  0  0
 38 44  1  0  0  0  0
 39 27  1  0  0  0  0
 39 38  2  0  0  0  0
 40 39  1  0  0  0  0
 41 40  2  0  0  0  0
 41 42  1  0  0  0  0
 42 37  2  0  0  0  0
 45 41  1  0  0  0  0
M  END
>  <minimizedAffinity>
-5.96988726

>  <minimizedRMSD>
2.63106656

$$$$
