
 OpenBabel03272509433D

 43 46  0  0  1  0  0  0  0  0999 V2000
   37.1800   30.9500   49.0160 C   0  0  0  0  0  0  0  0  0  0  0  0
   36.9710   31.9210   49.9980 C   0  0  0  0  0  0  0  0  0  0  0  0
   37.5930   33.1600   49.9460 C   0  0  0  0  0  0  0  0  0  0  0  0
   38.4530   33.4510   48.8830 C   0  0  0  0  0  0  0  0  0  0  0  0
   38.6480   32.4930   47.9320 C   0  0  0  0  0  0  0  0  0  0  0  0
   38.0100   31.2650   48.0160 C   0  0  0  0  0  0  0  0  0  0  0  0
   36.2920   31.6650   50.8150 H   0  0  0  0  0  0  0  0  0  0  0  0
   37.3500   33.8200   50.7600 H   0  0  0  0  0  0  0  0  0  0  0  0
   38.8950   34.4350   48.9180 H   0  0  0  0  0  0  0  0  0  0  0  0
   39.3430   32.8640   47.1740 H   0  0  0  0  0  0  0  0  0  0  0  0
   36.5590   29.6460   49.0860 C   0  0  2  0  0  0  0  0  0  0  0  0
   37.0530   29.0250   48.2440 H   0  0  0  0  0  0  0  0  0  0  0  0
   33.6530   30.0280   46.9390 C   0  0  0  0  0  0  0  0  0  0  0  0
   32.9460   28.8530   47.1180 C   0  0  0  0  0  0  0  0  0  0  0  0
   33.4300   27.9370   48.0330 C   0  0  0  0  0  0  0  0  0  0  0  0
   34.5870   28.2200   48.7270 N   0  0  0  0  0  0  0  0  0  0  0  0
   35.2160   29.3570   48.5090 C   0  0  0  0  0  0  0  0  0  0  0  0
   34.7560   30.2670   47.6190 N   0  0  0  0  0  0  0  0  0  0  0  0
   33.2770   30.7490   46.2230 H   0  0  0  0  0  0  0  0  0  0  0  0
   32.0360   28.5920   46.5940 H   0  0  0  0  0  0  0  0  0  0  0  0
   32.9430   26.9970   48.2370 H   0  0  0  0  0  0  0  0  0  0  0  0
   36.9950   28.9450   50.0720 O   0  0  0  0  0  0  0  0  0  0  0  0
   36.8250   29.2280   51.0130 H   0  0  0  0  0  0  0  0  0  0  0  0
   38.3300   30.3350   46.9580 C   0  0  0  0  0  3  0  0  0  0  0  0
   38.7190   30.7030   45.7330 C   0  0  0  0  0  3  0  0  0  0  0  0
   39.1120   29.8430   44.5920 C   0  0  0  0  0  0  0  0  0  0  0  0
   38.1960   29.6530   43.9950 H   0  0  0  0  0  0  0  0  0  0  0  0
   39.4790   28.8520   44.9300 H   0  0  0  0  0  0  0  0  0  0  0  0
   40.3120   30.7020   43.5680 S   0  0  0  0  0  0  0  0  0  0  0  0
   42.0140   31.0310   40.9660 H   0  0  0  0  0  0  0  0  0  0  0  0
   41.5310   30.1130   41.0690 N   0  0  0  0  0  0  0  0  0  0  0  0
   40.7570   29.7930   42.1220 C   0  0  0  0  0  0  0  0  0  0  0  0
   40.2690   28.5460   41.9810 N   0  0  0  0  0  0  0  0  0  0  0  0
   40.7260   28.0250   40.8130 C   0  0  0  0  0  0  0  0  0  0  0  0
   40.5540   26.8150   40.1690 C   0  0  0  0  0  0  0  0  0  0  0  0
   41.1750   26.6110   38.9710 N   0  0  0  0  0  0  0  0  0  0  0  0
   41.9430   27.6040   38.4450 C   0  0  0  0  0  0  0  0  0  0  0  0
   42.4170   27.3940   37.4880 H   0  0  0  0  0  0  0  0  0  0  0  0
   42.1050   28.7940   39.0910 N   0  0  0  0  0  0  0  0  0  0  0  0
   41.5050   29.0260   40.2760 C   0  0  0  0  0  0  0  0  0  0  0  0
   39.7290   25.8400   40.8050 N   0  0  0  0  0  0  0  0  0  0  0  0
   39.7470   25.6260   41.8200 H   0  0  0  0  0  0  0  0  0  0  0  0
   39.0950   25.3600   40.1250 H   0  0  0  0  0  0  0  0  0  0  0  0
  1 11  1  0  0  0  0
  1  2  1  0  0  0  0
  2  7  1  0  0  0  0
  3  2  2  0  0  0  0
  3  8  1  0  0  0  0
  4  9  1  0  0  0  0
  4  3  1  0  0  0  0
  5  6  1  0  0  0  0
  5  4  2  0  0  0  0
  6  1  2  0  0  0  0
 10  5  1  0  0  0  0
 11 12  1  6  0  0  0
 11 22  1  0  0  0  0
 13 14  2  0  0  0  0
 13 18  1  0  0  0  0
 14 15  1  0  0  0  0
 15 21  1  0  0  0  0
 15 16  2  0  0  0  0
 17 16  1  0  0  0  0
 17 11  1  0  0  0  0
 18 17  2  0  0  0  0
 19 13  1  0  0  0  0
 20 14  1  0  0  0  0
 22 23  1  0  0  0  0
 24  6  1  0  0  0  0
 25 24  2  0  0  0  0
 26 28  1  0  0  0  0
 26 25  1  0  0  0  0
 27 26  1  0  0  0  0
 29 26  1  0  0  0  0
 30 31  1  0  0  0  0
 31 32  1  0  0  0  0
 32 29  1  0  0  0  0
 33 32  2  0  0  0  0
 34 33  1  0  0  0  0
 35 41  1  0  0  0  0
 35 34  2  0  0  0  0
 36 35  1  0  0  0  0
 37 36  2  0  0  0  0
 37 39  1  0  0  0  0
 38 37  1  0  0  0  0
 39 40  2  0  0  0  0
 40 34  1  0  0  0  0
 40 31  1  0  0  0  0
 41 42  1  0  0  0  0
 43 41  1  0  0  0  0
M  END
>  <minimizedAffinity>
-6.38650799

>  <minimizedRMSD>
0.674972296

$$$$
