
 OpenBabel03262520493D

 53 58  0  0  1  0  0  0  0  0999 V2000
   39.5130   28.7750   43.2070 C   0  0  0  0  0  0  0  0  0  0  0  0
   40.3780   29.7960   42.8540 C   0  0  0  0  0  0  0  0  0  0  0  0
   41.1210   29.7060   41.6710 C   0  0  0  0  0  0  0  0  0  0  0  0
   40.9990   28.6020   40.8510 C   0  0  0  0  0  0  0  0  0  0  0  0
   41.5970   28.2940   39.6850 N   0  0  0  0  0  0  0  0  0  0  0  0
   41.1140   27.1000   39.3150 C   0  0  0  0  0  0  0  0  0  0  0  0
   40.2060   26.6060   40.2120 C   0  0  0  0  0  0  0  0  0  0  0  0
   40.1390   27.5800   41.1970 C   0  0  0  0  0  0  0  0  0  0  0  0
   39.4120   27.6790   42.3640 C   0  0  0  0  0  0  0  0  0  0  0  0
   38.8910   28.7390   44.0900 H   0  0  0  0  0  0  0  0  0  0  0  0
   41.7880   30.5310   41.4340 H   0  0  0  0  0  0  0  0  0  0  0  0
   42.2970   28.9030   39.2000 H   0  0  0  0  0  0  0  0  0  0  0  0
   41.4410   26.6260   38.4000 H   0  0  0  0  0  0  0  0  0  0  0  0
   39.6630   25.6730   40.1690 H   0  0  0  0  0  0  0  0  0  0  0  0
   38.5370   26.5960   42.6750 N   0  0  0  0  0  0  0  0  0  0  0  0
   39.0260   25.5700   43.4210 C   0  0  0  0  0  0  0  0  0  0  0  0
   40.0160   25.4050   43.8520 H   0  0  0  0  0  0  0  0  0  0  0  0
   38.0150   24.6760   43.5780 N   0  0  0  0  0  0  0  0  0  0  0  0
   36.9220   25.1450   42.9400 C   0  0  0  0  0  0  0  0  0  0  0  0
   35.6160   24.7390   42.7220 C   0  0  0  0  0  0  0  0  0  0  0  0
   34.7800   25.4970   42.0100 N   0  0  0  0  0  0  0  0  0  0  0  0
   35.1400   26.6710   41.4710 C   0  0  0  0  0  0  0  0  0  0  0  0
   34.3810   27.1950   40.9160 H   0  0  0  0  0  0  0  0  0  0  0  0
   36.4090   27.1120   41.6570 N   0  0  0  0  0  0  0  0  0  0  0  0
   37.2560   26.3660   42.3670 C   0  0  0  0  0  0  0  0  0  0  0  0
   35.2190   23.4920   43.2900 N   0  0  0  0  0  0  0  0  0  0  0  0
   34.6030   22.8530   42.7120 H   0  0  0  0  0  0  0  0  0  0  0  0
   35.4540   23.1000   44.2200 H   0  0  0  0  0  0  0  0  0  0  0  0
   40.4910   30.9830   43.7580 C   0  0  0  0  0  0  0  0  0  0  0  0
   40.0530   31.8370   43.1780 H   0  0  0  0  0  0  0  0  0  0  0  0
   41.5510   31.1900   44.0160 H   0  0  0  0  0  0  0  0  0  0  0  0
   39.6470   30.7050   44.9810 C   0  0  0  0  0  0  0  0  0  0  0  0
   39.8590   29.6480   45.2880 H   0  0  0  0  0  0  0  0  0  0  0  0
   38.5860   30.8480   44.6570 H   0  0  0  0  0  0  0  0  0  0  0  0
   38.8500   32.3270   46.7440 C   0  0  1  0  0  0  0  0  0  0  0  0
   40.0080   33.0360   46.0820 C   0  0  0  0  0  0  0  0  0  0  0  0
   39.9630   31.5630   46.1520 C   0  0  2  0  0  0  0  0  0  0  0  0
   37.8570   32.3290   46.2280 H   0  0  0  0  0  0  0  0  0  0  0  0
   39.8560   33.4630   45.0630 H   0  0  0  0  0  0  0  0  0  0  0  0
   40.7350   33.6040   46.6680 H   0  0  0  0  0  0  0  0  0  0  0  0
   40.6710   31.1370   46.9240 H   0  0  0  0  0  0  0  0  0  0  0  0
   38.7360   32.5400   48.2190 C   0  0  0  0  0  0  0  0  0  0  0  0
   38.2160   33.5200   48.3770 H   0  0  0  0  0  0  0  0  0  0  0  0
   39.7360   32.6260   48.6890 H   0  0  0  0  0  0  0  0  0  0  0  0
   37.5610   30.1490   50.8580 C   0  0  0  0  0  0  0  0  0  0  0  0
   38.2450   31.2090   50.1990 C   0  0  0  0  0  0  0  0  0  0  0  0
   38.0040   31.4270   48.8720 C   0  0  0  0  0  0  0  0  0  0  0  0
   37.1280   30.6260   48.2550 N   0  0  0  0  0  0  0  0  0  0  0  0
   36.4830   29.6310   48.8690 C   0  0  0  0  0  0  0  0  0  0  0  0
   36.7120   29.4070   50.1700 N   0  0  0  0  0  0  0  0  0  0  0  0
   37.7980   30.0260   51.9230 H   0  0  0  0  0  0  0  0  0  0  0  0
   38.9470   31.8320   50.7410 H   0  0  0  0  0  0  0  0  0  0  0  0
   35.7770   28.9840   48.3690 H   0  0  0  0  0  0  0  0  0  0  0  0
  1 10  1  0  0  0  0
  2  1  1  0  0  0  0
  2 29  1  0  0  0  0
  3  2  2  0  0  0  0
  4  8  2  0  0  0  0
  4  3  1  0  0  0  0
  5  4  1  0  0  0  0
  6  5  1  0  0  0  0
  6  7  2  0  0  0  0
  7  8  1  0  0  0  0
  8  9  1  0  0  0  0
  9 15  1  0  0  0  0
  9  1  2  0  0  0  0
 11  3  1  0  0  0  0
 12  5  1  0  0  0  0
 13  6  1  0  0  0  0
 14  7  1  0  0  0  0
 15 16  1  0  0  0  0
 16 18  2  0  0  0  0
 16 17  1  0  0  0  0
 19 18  1  0  0  0  0
 20 19  1  0  0  0  0
 20 26  1  0  0  0  0
 21 20  2  0  0  0  0
 22 24  2  0  0  0  0
 22 21  1  0  0  0  0
 23 22  1  0  0  0  0
 24 25  1  0  0  0  0
 25 15  1  0  0  0  0
 25 19  2  0  0  0  0
 26 28  1  0  0  0  0
 27 26  1  0  0  0  0
 29 31  1  0  0  0  0
 29 32  1  0  0  0  0
 30 29  1  0  0  0  0
 32 33  1  0  0  0  0
 32 37  1  0  0  0  0
 34 32  1  0  0  0  0
 35 38  1  6  0  0  0
 35 42  1  0  0  0  0
 36 37  1  0  0  0  0
 36 40  1  0  0  0  0
 36 35  1  0  0  0  0
 37 35  1  0  0  0  0
 37 41  1  1  0  0  0
 39 36  1  0  0  0  0
 42 43  1  0  0  0  0
 42 44  1  0  0  0  0
 42 47  1  0  0  0  0
 45 51  1  0  0  0  0
 46 52  1  0  0  0  0
 46 45  1  0  0  0  0
 47 46  2  0  0  0  0
 48 49  2  0  0  0  0
 48 47  1  0  0  0  0
 49 50  1  0  0  0  0
 50 45  2  0  0  0  0
 53 49  1  0  0  0  0
M  END
>  <minimizedAffinity>
-6.07700443

>  <minimizedRMSD>
1.01807487

$$$$
