
 OpenBabel03262522163D

 50 54  0  0  1  0  0  0  0  0999 V2000
   39.0420   29.8090   42.2590 C   0  0  1  0  0  0  0  0  0  0  0  0
   38.8340   31.3000   42.0460 C   0  0  0  0  0  0  0  0  0  0  0  0
   39.9280   31.8880   42.8850 C   0  0  2  0  0  0  0  0  0  0  0  0
   40.5060   30.8810   43.5960 O   0  0  0  0  0  0  0  0  0  0  0  0
   39.6140   29.8250   43.6660 C   0  0  0  0  0  0  0  0  0  0  0  0
   39.8440   29.4170   41.5910 H   0  0  0  0  0  0  0  0  0  0  0  0
   37.8740   31.5580   42.5040 H   0  0  0  0  0  0  0  0  0  0  0  0
   38.9230   31.5590   40.9720 H   0  0  0  0  0  0  0  0  0  0  0  0
   40.7040   32.3210   42.2040 H   0  0  0  0  0  0  0  0  0  0  0  0
   40.2240   28.9140   43.8790 H   0  0  0  0  0  0  0  0  0  0  0  0
   38.8080   29.9920   44.4040 H   0  0  0  0  0  0  0  0  0  0  0  0
   39.4160   33.0050   43.7580 C   0  0  0  0  0  0  0  0  0  0  0  0
   38.3610   32.8940   44.0350 H   0  0  0  0  0  0  0  0  0  0  0  0
   39.5240   33.9590   43.1860 H   0  0  0  0  0  0  0  0  0  0  0  0
   40.5380   33.1490   45.1720 S   0  0  0  0  0  0  0  0  0  0  0  0
   37.7630   31.7660   47.6450 C   0  0  0  0  0  0  0  0  0  0  0  0
   37.9510   32.4990   48.8180 C   0  0  0  0  0  0  0  0  0  0  0  0
   38.9410   33.4540   48.9040 C   0  0  0  0  0  0  0  0  0  0  0  0
   39.7100   33.6310   47.7840 C   0  0  0  0  0  0  0  0  0  0  0  0
   39.5130   32.9070   46.6460 C   0  0  0  0  0  0  0  0  0  0  0  0
   38.5440   31.9660   46.5540 N   0  0  0  0  0  0  0  0  0  0  0  0
   37.3070   32.3100   49.6700 H   0  0  0  0  0  0  0  0  0  0  0  0
   39.0870   34.0270   49.8220 H   0  0  0  0  0  0  0  0  0  0  0  0
   40.5100   34.3630   47.7700 H   0  0  0  0  0  0  0  0  0  0  0  0
   36.7050   30.7850   47.6350 C   0  0  0  0  0  0  0  0  0  0  0  0
   36.2210   30.3700   46.5830 O   0  0  0  0  0  0  0  0  0  0  0  0
   37.0310   29.6190   49.7890 C   0  0  0  0  0  0  0  0  0  0  0  0
   36.1430   30.2220   48.8800 C   0  0  0  0  0  0  0  0  0  0  0  0
   34.7680   30.2760   49.1700 C   0  0  0  0  0  0  0  0  0  0  0  0
   34.3460   29.7240   50.3540 N   0  0  0  0  0  0  0  0  0  0  0  0
   35.2110   29.1520   51.2100 C   0  0  0  0  0  0  0  0  0  0  0  0
   36.5240   29.1010   50.9320 N   0  0  0  0  0  0  0  0  0  0  0  0
   38.0720   29.5850   49.5580 H   0  0  0  0  0  0  0  0  0  0  0  0
   34.1230   30.7440   48.4530 H   0  0  0  0  0  0  0  0  0  0  0  0
   34.7060   28.7750   52.0780 H   0  0  0  0  0  0  0  0  0  0  0  0
   37.8450   29.1240   42.1930 O   0  0  0  0  0  0  0  0  0  0  0  0
   36.0250   27.3310   43.4530 H   0  0  0  0  0  0  0  0  0  0  0  0
   36.7890   26.9200   42.8760 N   0  0  0  0  0  0  0  0  0  0  0  0
   37.6680   27.7620   42.2670 C   0  0  0  0  0  0  0  0  0  0  0  0
   38.5790   27.0230   41.5680 N   0  0  0  0  0  0  0  0  0  0  0  0
   38.2640   25.7160   41.7440 C   0  0  0  0  0  0  0  0  0  0  0  0
   38.7820   24.5040   41.3150 C   0  0  0  0  0  0  0  0  0  0  0  0
   38.1880   23.3750   41.7040 N   0  0  0  0  0  0  0  0  0  0  0  0
   37.1020   23.3320   42.4980 C   0  0  0  0  0  0  0  0  0  0  0  0
   36.6570   22.3740   42.7850 H   0  0  0  0  0  0  0  0  0  0  0  0
   36.5600   24.5050   42.9440 N   0  0  0  0  0  0  0  0  0  0  0  0
   37.1510   25.6630   42.5590 C   0  0  0  0  0  0  0  0  0  0  0  0
   39.9310   24.5710   40.4760 N   0  0  0  0  0  0  0  0  0  0  0  0
   40.0650   24.5060   39.4250 H   0  0  0  0  0  0  0  0  0  0  0  0
   40.8550   24.7140   40.9350 H   0  0  0  0  0  0  0  0  0  0  0  0
  1  6  1  6  0  0  0
  1  5  1  0  0  0  0
  2  1  1  0  0  0  0
  2  7  1  0  0  0  0
  2  3  1  0  0  0  0
  3  9  1  6  0  0  0
  3  4  1  0  0  0  0
  3 12  1  0  0  0  0
  4  5  1  0  0  0  0
  5 10  1  0  0  0  0
  5 11  1  0  0  0  0
  8  2  1  0  0  0  0
 12 13  1  0  0  0  0
 12 15  1  0  0  0  0
 14 12  1  0  0  0  0
 15 20  1  0  0  0  0
 16 17  1  0  0  0  0
 17 18  2  0  0  0  0
 17 22  1  0  0  0  0
 18 23  1  0  0  0  0
 19 18  1  0  0  0  0
 20 19  2  0  0  0  0
 21 20  1  0  0  0  0
 21 16  2  0  0  0  0
 24 19  1  0  0  0  0
 25 16  1  0  0  0  0
 25 28  1  0  0  0  0
 26 25  2  0  0  0  0
 27 32  1  0  0  0  0
 28 29  1  0  0  0  0
 28 27  2  0  0  0  0
 29 30  2  0  0  0  0
 30 31  1  0  0  0  0
 31 35  1  0  0  0  0
 32 31  2  0  0  0  0
 33 27  1  0  0  0  0
 34 29  1  0  0  0  0
 36  1  1  0  0  0  0
 36 39  1  0  0  0  0
 38 37  1  0  0  0  0
 39 38  1  0  0  0  0
 40 41  1  0  0  0  0
 40 39  2  0  0  0  0
 41 47  1  0  0  0  0
 42 43  1  0  0  0  0
 42 41  2  0  0  0  0
 43 44  2  0  0  0  0
 44 45  1  0  0  0  0
 44 46  1  0  0  0  0
 47 38  1  0  0  0  0
 47 46  2  0  0  0  0
 48 50  1  0  0  0  0
 48 42  1  0  0  0  0
 49 48  1  0  0  0  0
M  END
>  <minimizedAffinity>
-5.65178633

>  <minimizedRMSD>
1.59962773

$$$$
