
 OpenBabel03262521523D

 28 30  0  0  0  0  0  0  0  0999 V2000
   33.3540   27.6620   48.3850 S   0  0  0  0  0  0  0  0  0  0  0  0
   31.3470   28.8570   50.4660 H   0  0  0  0  0  0  0  0  0  0  0  0
   30.8480   28.3120   49.7390 N   0  0  0  0  0  0  0  0  0  0  0  0
   31.6230   27.7530   48.7910 C   0  0  0  0  0  0  0  0  0  0  0  0
   30.8080   27.0870   47.9350 N   0  0  0  0  0  0  0  0  0  0  0  0
   29.5220   27.2050   48.3110 C   0  0  0  0  0  0  0  0  0  0  0  0
   28.2940   26.7750   47.8670 C   0  0  0  0  0  0  0  0  0  0  0  0
   27.1820   27.1290   48.5630 N   0  0  0  0  0  0  0  0  0  0  0  0
   27.2830   27.8970   49.6820 C   0  0  0  0  0  0  0  0  0  0  0  0
   26.3390   28.1370   50.1860 H   0  0  0  0  0  0  0  0  0  0  0  0
   28.4940   28.3310   50.1350 N   0  0  0  0  0  0  0  0  0  0  0  0
   29.5980   27.9820   49.4460 C   0  0  0  0  0  0  0  0  0  0  0  0
   28.2510   25.9730   46.6900 N   0  0  0  0  0  0  0  0  0  0  0  0
   27.9400   25.0150   46.9500 H   0  0  0  0  0  0  0  0  0  0  0  0
   28.4820   26.2440   45.7080 H   0  0  0  0  0  0  0  0  0  0  0  0
   34.1980   29.2430   48.7380 C   0  0  0  0  0  0  0  0  0  0  0  0
   34.2700   29.8070   47.7760 H   0  0  0  0  0  0  0  0  0  0  0  0
   33.5380   29.8600   49.3890 H   0  0  0  0  0  0  0  0  0  0  0  0
   35.8160   29.0110   49.4930 S   0  0  0  0  0  0  0  0  0  0  0  0
   36.8810   30.3300   48.9650 C   0  0  0  0  0  0  0  0  0  0  0  0
   37.5490   30.9970   49.9840 C   0  0  0  0  0  0  0  0  0  0  0  0
   38.4050   32.0500   49.6280 C   0  0  0  0  0  0  0  0  0  0  0  0
   38.5510   32.3770   48.3090 N   0  0  0  0  0  0  0  0  0  0  0  0
   37.8660   31.6820   47.3670 C   0  0  0  0  0  0  0  0  0  0  0  0
   37.0590   30.6910   47.6880 N   0  0  0  0  0  0  0  0  0  0  0  0
   37.4520   30.7580   51.0340 H   0  0  0  0  0  0  0  0  0  0  0  0
   38.9480   32.6010   50.3870 H   0  0  0  0  0  0  0  0  0  0  0  0
   37.9910   31.9540   46.3210 H   0  0  0  0  0  0  0  0  0  0  0  0
  1 16  1  0  0  0  0
  1  4  1  0  0  0  0
  3  2  1  0  0  0  0
  4  3  1  0  0  0  0
  5  6  1  0  0  0  0
  5  4  2  0  0  0  0
  6 12  1  0  0  0  0
  7  6  2  0  0  0  0
  7  8  1  0  0  0  0
  8  9  2  0  0  0  0
  9 11  1  0  0  0  0
  9 10  1  0  0  0  0
 12  3  1  0  0  0  0
 12 11  2  0  0  0  0
 13 14  1  0  0  0  0
 13  7  1  0  0  0  0
 15 13  1  0  0  0  0
 16 18  1  0  0  0  0
 16 19  1  0  0  0  0
 17 16  1  0  0  0  0
 20 19  1  0  0  0  0
 20 21  1  0  0  0  0
 21 26  1  0  0  0  0
 22 21  2  0  0  0  0
 22 27  1  0  0  0  0
 23 22  1  0  0  0  0
 24 25  1  0  0  0  0
 24 23  2  0  0  0  0
 25 20  2  0  0  0  0
 28 24  1  0  0  0  0
M  END
>  <minimizedAffinity>
-5.19319105

>  <minimizedRMSD>
2.20957446

$$$$
