
 OpenBabel03262522163D

 50 54  0  0  1  0  0  0  0  0999 V2000
   39.5180   29.5800   42.5090 C   0  0  1  0  0  0  0  0  0  0  0  0
   38.9870   30.9610   42.1550 C   0  0  0  0  0  0  0  0  0  0  0  0
   39.9390   31.8560   42.8900 C   0  0  2  0  0  0  0  0  0  0  0  0
   40.7320   31.0770   43.6770 O   0  0  0  0  0  0  0  0  0  0  0  0
   40.0930   29.8680   43.8850 C   0  0  0  0  0  0  0  0  0  0  0  0
   40.3770   29.3010   41.8540 H   0  0  0  0  0  0  0  0  0  0  0  0
   38.0010   31.0530   42.6200 H   0  0  0  0  0  0  0  0  0  0  0  0
   39.0030   31.1180   41.0580 H   0  0  0  0  0  0  0  0  0  0  0  0
   40.5920   32.3710   42.1410 H   0  0  0  0  0  0  0  0  0  0  0  0
   40.8900   29.1370   44.1650 H   0  0  0  0  0  0  0  0  0  0  0  0
   39.2810   29.9350   44.6310 H   0  0  0  0  0  0  0  0  0  0  0  0
   39.2080   32.9220   43.6650 C   0  0  0  0  0  0  0  0  0  0  0  0
   38.2060   32.6180   43.9870 H   0  0  0  0  0  0  0  0  0  0  0  0
   39.1020   33.8120   42.9980 H   0  0  0  0  0  0  0  0  0  0  0  0
   40.2890   33.4480   45.0190 S   0  0  0  0  0  0  0  0  0  0  0  0
   37.7590   31.7990   47.5890 C   0  0  0  0  0  0  0  0  0  0  0  0
   38.0270   32.4430   48.7980 C   0  0  0  0  0  0  0  0  0  0  0  0
   38.9980   33.4160   48.8800 C   0  0  0  0  0  0  0  0  0  0  0  0
   39.6690   33.7020   47.7200 C   0  0  0  0  0  0  0  0  0  0  0  0
   39.3950   33.0630   46.5470 C   0  0  0  0  0  0  0  0  0  0  0  0
   38.4420   32.1050   46.4580 N   0  0  0  0  0  0  0  0  0  0  0  0
   37.4590   32.1710   49.6820 H   0  0  0  0  0  0  0  0  0  0  0  0
   39.2080   33.9200   49.8260 H   0  0  0  0  0  0  0  0  0  0  0  0
   40.4490   34.4550   47.6990 H   0  0  0  0  0  0  0  0  0  0  0  0
   36.7250   30.7920   47.5860 C   0  0  0  0  0  0  0  0  0  0  0  0
   36.2590   30.3500   46.5360 O   0  0  0  0  0  0  0  0  0  0  0  0
   37.0580   29.6250   49.7390 C   0  0  0  0  0  0  0  0  0  0  0  0
   36.1690   30.2330   48.8360 C   0  0  0  0  0  0  0  0  0  0  0  0
   34.7960   30.2960   49.1350 C   0  0  0  0  0  0  0  0  0  0  0  0
   34.3790   29.7470   50.3220 N   0  0  0  0  0  0  0  0  0  0  0  0
   35.2450   29.1700   51.1720 C   0  0  0  0  0  0  0  0  0  0  0  0
   36.5560   29.1110   50.8850 N   0  0  0  0  0  0  0  0  0  0  0  0
   38.0970   29.5830   49.5010 H   0  0  0  0  0  0  0  0  0  0  0  0
   34.1490   30.7680   48.4220 H   0  0  0  0  0  0  0  0  0  0  0  0
   34.7440   28.7970   52.0440 H   0  0  0  0  0  0  0  0  0  0  0  0
   38.4990   28.6500   42.5560 O   0  0  0  0  0  0  0  0  0  0  0  0
   38.3480   26.8780   40.3320 H   0  0  0  0  0  0  0  0  0  0  0  0
   38.5320   26.4630   41.2710 N   0  0  0  0  0  0  0  0  0  0  0  0
   38.6060   27.2960   42.3450 C   0  0  0  0  0  0  0  0  0  0  0  0
   38.8510   26.5550   43.4660 N   0  0  0  0  0  0  0  0  0  0  0  0
   38.9270   25.2550   43.0840 C   0  0  0  0  0  0  0  0  0  0  0  0
   39.1470   24.0460   43.7250 C   0  0  0  0  0  0  0  0  0  0  0  0
   39.1530   22.9260   43.0010 N   0  0  0  0  0  0  0  0  0  0  0  0
   38.9580   22.8890   41.6690 C   0  0  0  0  0  0  0  0  0  0  0  0
   38.9750   21.9380   41.1290 H   0  0  0  0  0  0  0  0  0  0  0  0
   38.7370   24.0600   41.0010 N   0  0  0  0  0  0  0  0  0  0  0  0
   38.7270   25.2090   41.7200 C   0  0  0  0  0  0  0  0  0  0  0  0
   39.3520   24.1060   45.1330 N   0  0  0  0  0  0  0  0  0  0  0  0
   40.2220   24.0890   45.7400 H   0  0  0  0  0  0  0  0  0  0  0  0
   38.5070   24.1830   45.7390 H   0  0  0  0  0  0  0  0  0  0  0  0
  1  6  1  6  0  0  0
  1 36  1  0  0  0  0
  1  5  1  0  0  0  0
  2  1  1  0  0  0  0
  2  7  1  0  0  0  0
  2  3  1  0  0  0  0
  3  9  1  6  0  0  0
  3 12  1  0  0  0  0
  3  4  1  0  0  0  0
  4  5  1  0  0  0  0
  5 10  1  0  0  0  0
  5 11  1  0  0  0  0
  8  2  1  0  0  0  0
 12 13  1  0  0  0  0
 12 15  1  0  0  0  0
 14 12  1  0  0  0  0
 15 20  1  0  0  0  0
 16 17  1  0  0  0  0
 17 18  2  0  0  0  0
 17 22  1  0  0  0  0
 18 23  1  0  0  0  0
 19 18  1  0  0  0  0
 20 19  2  0  0  0  0
 21 20  1  0  0  0  0
 21 16  2  0  0  0  0
 24 19  1  0  0  0  0
 25 16  1  0  0  0  0
 25 28  1  0  0  0  0
 26 25  2  0  0  0  0
 27 32  1  0  0  0  0
 28 29  1  0  0  0  0
 28 27  2  0  0  0  0
 29 30  2  0  0  0  0
 30 31  1  0  0  0  0
 31 35  1  0  0  0  0
 32 31  2  0  0  0  0
 33 27  1  0  0  0  0
 34 29  1  0  0  0  0
 37 38  1  0  0  0  0
 38 47  1  0  0  0  0
 38 39  1  0  0  0  0
 39 36  1  0  0  0  0
 39 40  2  0  0  0  0
 41 40  1  0  0  0  0
 41 42  1  0  0  0  0
 42 48  1  0  0  0  0
 43 42  2  0  0  0  0
 44 43  1  0  0  0  0
 45 44  1  0  0  0  0
 46 44  2  0  0  0  0
 46 47  1  0  0  0  0
 47 41  2  0  0  0  0
 48 50  1  0  0  0  0
 48 49  1  0  0  0  0
M  END
>  <minimizedAffinity>
-5.69977665

>  <minimizedRMSD>
1.97583961

$$$$
