
 OpenBabel03262521103D

 29 31  0  0  0  0  0  0  0  0999 V2000
   37.0620   26.1280   34.7360 O   0  0  0  0  0  0  0  0  0  0  0  0
   39.5950   25.2140   33.8060 H   0  0  0  0  0  0  0  0  0  0  0  0
   39.2010   24.8900   34.7170 N   0  0  0  0  0  0  0  0  0  0  0  0
   38.0230   25.2640   35.2330 C   0  0  0  0  0  0  0  0  0  0  0  0
   37.8380   24.6420   36.4320 N   0  0  0  0  0  0  0  0  0  0  0  0
   38.9310   23.8950   36.6090 C   0  0  0  0  0  0  0  0  0  0  0  0
   39.3420   23.0380   37.6220 C   0  0  0  0  0  0  0  0  0  0  0  0
   40.4930   22.3760   37.6050 N   0  0  0  0  0  0  0  0  0  0  0  0
   41.3400   22.5180   36.5590 C   0  0  0  0  0  0  0  0  0  0  0  0
   42.2760   22.0050   36.5030 H   0  0  0  0  0  0  0  0  0  0  0  0
   40.9440   23.3500   35.5740 N   0  0  0  0  0  0  0  0  0  0  0  0
   39.8050   24.0290   35.5510 C   0  0  0  0  0  0  0  0  0  0  0  0
   38.5470   22.8040   38.7690 N   0  0  0  0  0  0  0  0  0  0  0  0
   38.1430   23.0470   39.6860 H   0  0  0  0  0  0  0  0  0  0  0  0
   38.6320   23.6500   39.4000 H   0  0  0  0  0  0  0  0  0  0  0  0
   38.7040   27.3180   33.1310 O   0  0  0  0  0  0  0  0  0  0  0  0
   37.2320   27.0850   33.3660 P   0  0  2  0  0  0  0  0  0  0  0  0
   36.4050   28.5680   33.5680 O   0  0  0  0  0  0  0  0  0  0  0  0
   35.5880   28.3500   34.0760 H   0  0  0  0  0  0  0  0  0  0  0  0
   36.4530   26.3250   32.0310 O   0  0  0  0  0  0  0  0  0  0  0  0
   36.5830   24.9700   31.7760 C   0  0  0  0  0  0  0  0  0  0  0  0
   35.5090   24.0940   31.5190 C   0  0  0  0  0  0  0  0  0  0  0  0
   35.8010   22.7590   31.2820 C   0  0  0  0  0  0  0  0  0  0  0  0
   37.1000   22.3460   31.3060 N   0  0  0  0  0  0  0  0  0  0  0  0
   38.1110   23.2180   31.5590 C   0  0  0  0  0  0  0  0  0  0  0  0
   37.8430   24.5210   31.7910 N   0  0  0  0  0  0  0  0  0  0  0  0
   34.5190   24.5310   31.5230 H   0  0  0  0  0  0  0  0  0  0  0  0
   34.9730   22.0920   31.0840 H   0  0  0  0  0  0  0  0  0  0  0  0
   39.1320   22.8590   31.5720 H   0  0  0  0  0  0  0  0  0  0  0  0
  1  4  1  0  0  0  0
  2  3  1  0  0  0  0
  3  4  1  0  0  0  0
  3 12  1  0  0  0  0
  4  5  2  0  0  0  0
  5  6  1  0  0  0  0
  6  7  1  0  0  0  0
  7 13  1  0  0  0  0
  8  7  2  0  0  0  0
  9  8  1  0  0  0  0
 10  9  1  0  0  0  0
 11  9  2  0  0  0  0
 12 11  1  0  0  0  0
 12  6  2  0  0  0  0
 13 15  1  0  0  0  0
 13 14  1  0  0  0  0
 17 16  2  6  0  0  0
 17 18  1  0  0  0  0
 17  1  1  0  0  0  0
 18 19  1  0  0  0  0
 20 17  1  0  0  0  0
 21 26  1  0  0  0  0
 21 20  1  0  0  0  0
 22 27  1  0  0  0  0
 22 21  2  0  0  0  0
 23 24  2  0  0  0  0
 23 22  1  0  0  0  0
 24 25  1  0  0  0  0
 25 29  1  0  0  0  0
 25 26  2  0  0  0  0
 28 23  1  0  0  0  0
M  END
>  <minimizedAffinity>
-5.21424532

$$$$

 OpenBabel03262521103D

 29 31  0  0  0  0  0  0  0  0999 V2000
   38.8720   22.5320   32.8110 O   0  0  0  0  0  0  0  0  0  0  0  0
   37.1960   24.2720   34.3190 H   0  0  0  0  0  0  0  0  0  0  0  0
   37.9300   23.6900   34.7800 N   0  0  0  0  0  0  0  0  0  0  0  0
   38.7610   22.8470   34.1550 C   0  0  0  0  0  0  0  0  0  0  0  0
   39.5840   22.2620   35.0710 N   0  0  0  0  0  0  0  0  0  0  0  0
   39.2180   22.7790   36.2470 C   0  0  0  0  0  0  0  0  0  0  0  0
   39.6660   22.5900   37.5480 C   0  0  0  0  0  0  0  0  0  0  0  0
   39.1550   23.2170   38.6020 N   0  0  0  0  0  0  0  0  0  0  0  0
   38.1390   24.0970   38.4380 C   0  0  0  0  0  0  0  0  0  0  0  0
   37.6980   24.6230   39.2570 H   0  0  0  0  0  0  0  0  0  0  0  0
   37.7020   24.2820   37.1770 N   0  0  0  0  0  0  0  0  0  0  0  0
   38.1830   23.6780   36.0980 C   0  0  0  0  0  0  0  0  0  0  0  0
   40.7220   21.6970   37.8510 N   0  0  0  0  0  0  0  0  0  0  0  0
   41.1380   20.7660   37.9980 H   0  0  0  0  0  0  0  0  0  0  0  0
   40.3360   20.7120   37.8010 H   0  0  0  0  0  0  0  0  0  0  0  0
   38.4300   22.7020   30.2690 O   0  0  0  0  0  0  0  0  0  0  0  0
   38.3850   23.5150   31.5390 P   0  0  2  0  0  0  0  0  0  0  0  0
   39.4020   24.8840   31.4210 O   0  0  0  0  0  0  0  0  0  0  0  0
   39.6220   25.1340   32.3500 H   0  0  0  0  0  0  0  0  0  0  0  0
   36.8210   24.1550   31.8710 O   0  0  0  0  0  0  0  0  0  0  0  0
   36.6090   25.5070   32.0830 C   0  0  0  0  0  0  0  0  0  0  0  0
   35.8290   26.3380   31.2540 C   0  0  0  0  0  0  0  0  0  0  0  0
   35.7120   27.6760   31.6000 C   0  0  0  0  0  0  0  0  0  0  0  0
   36.3470   28.1340   32.7170 N   0  0  0  0  0  0  0  0  0  0  0  0
   37.0910   27.3040   33.4930 C   0  0  0  0  0  0  0  0  0  0  0  0
   37.2150   25.9980   33.1700 N   0  0  0  0  0  0  0  0  0  0  0  0
   35.3700   25.8670   30.3940 H   0  0  0  0  0  0  0  0  0  0  0  0
   35.1120   28.3090   30.9610 H   0  0  0  0  0  0  0  0  0  0  0  0
   37.5830   27.6970   34.3730 H   0  0  0  0  0  0  0  0  0  0  0  0
  1  4  1  0  0  0  0
  2  3  1  0  0  0  0
  3 12  1  0  0  0  0
  4  3  1  0  0  0  0
  4  5  2  0  0  0  0
  5  6  1  0  0  0  0
  6  7  1  0  0  0  0
  7 13  1  0  0  0  0
  7  8  2  0  0  0  0
  9  8  1  0  0  0  0
  9 10  1  0  0  0  0
 11  9  2  0  0  0  0
 12  6  2  0  0  0  0
 12 11  1  0  0  0  0
 13 14  1  0  0  0  0
 15 13  1  0  0  0  0
 17 16  2  6  0  0  0
 17 20  1  0  0  0  0
 17  1  1  0  0  0  0
 18 17  1  0  0  0  0
 18 19  1  0  0  0  0
 20 21  1  0  0  0  0
 21 26  1  0  0  0  0
 22 23  1  0  0  0  0
 22 21  2  0  0  0  0
 23 24  2  0  0  0  0
 24 25  1  0  0  0  0
 25 29  1  0  0  0  0
 26 25  2  0  0  0  0
 27 22  1  0  0  0  0
 28 23  1  0  0  0  0
M  END
>  <minimizedAffinity>
-5.04559612

$$$$

 OpenBabel03262521103D

 29 31  0  0  0  0  0  0  0  0999 V2000
   39.3170   22.7500   32.6780 O   0  0  0  0  0  0  0  0  0  0  0  0
   37.4230   24.3750   34.0500 H   0  0  0  0  0  0  0  0  0  0  0  0
   38.1250   23.8030   34.5680 N   0  0  0  0  0  0  0  0  0  0  0  0
   39.0500   23.0120   34.0110 C   0  0  0  0  0  0  0  0  0  0  0  0
   39.7910   22.4220   34.9920 N   0  0  0  0  0  0  0  0  0  0  0  0
   39.2800   22.8830   36.1370 C   0  0  0  0  0  0  0  0  0  0  0  0
   39.5920   22.6620   37.4720 C   0  0  0  0  0  0  0  0  0  0  0  0
   38.9470   23.2330   38.4840 N   0  0  0  0  0  0  0  0  0  0  0  0
   37.9220   24.0820   38.2400 C   0  0  0  0  0  0  0  0  0  0  0  0
   37.3750   24.5630   39.0220 H   0  0  0  0  0  0  0  0  0  0  0  0
   37.6170   24.2990   36.9450 N   0  0  0  0  0  0  0  0  0  0  0  0
   38.2340   23.7510   35.9060 C   0  0  0  0  0  0  0  0  0  0  0  0
   40.6420   21.7950   37.8600 N   0  0  0  0  0  0  0  0  0  0  0  0
   41.0750   20.8740   38.0210 H   0  0  0  0  0  0  0  0  0  0  0  0
   40.3020   20.8000   37.7360 H   0  0  0  0  0  0  0  0  0  0  0  0
   39.2850   23.8990   30.3620 O   0  0  0  0  0  0  0  0  0  0  0  0
   38.3770   23.2570   31.3810 P   0  0  2  0  0  0  0  0  0  0  0  0
   37.1790   24.3580   31.9080 O   0  0  0  0  0  0  0  0  0  0  0  0
   36.8910   24.0350   32.7940 H   0  0  0  0  0  0  0  0  0  0  0  0
   37.4980   21.9190   30.7470 O   0  0  0  0  0  0  0  0  0  0  0  0
   36.8260   21.0260   31.5640 C   0  0  0  0  0  0  0  0  0  0  0  0
   36.7170   19.6410   31.3220 C   0  0  0  0  0  0  0  0  0  0  0  0
   36.0090   18.8750   32.2360 C   0  0  0  0  0  0  0  0  0  0  0  0
   35.4500   19.4810   33.3230 N   0  0  0  0  0  0  0  0  0  0  0  0
   35.5750   20.8190   33.5240 C   0  0  0  0  0  0  0  0  0  0  0  0
   36.2620   21.5780   32.6440 N   0  0  0  0  0  0  0  0  0  0  0  0
   37.2010   19.2680   30.4290 H   0  0  0  0  0  0  0  0  0  0  0  0
   35.9290   17.8140   32.0460 H   0  0  0  0  0  0  0  0  0  0  0  0
   35.1200   21.2700   34.3960 H   0  0  0  0  0  0  0  0  0  0  0  0
  1  4  1  0  0  0  0
  2  3  1  0  0  0  0
  3 12  1  0  0  0  0
  4  3  1  0  0  0  0
  4  5  2  0  0  0  0
  5  6  1  0  0  0  0
  6  7  1  0  0  0  0
  7 13  1  0  0  0  0
  7  8  2  0  0  0  0
  9  8  1  0  0  0  0
  9 10  1  0  0  0  0
 11  9  2  0  0  0  0
 12  6  2  0  0  0  0
 12 11  1  0  0  0  0
 13 14  1  0  0  0  0
 15 13  1  0  0  0  0
 17 16  2  6  0  0  0
 17 18  1  0  0  0  0
 17  1  1  0  0  0  0
 18 19  1  0  0  0  0
 20 17  1  0  0  0  0
 20 21  1  0  0  0  0
 21 26  1  0  0  0  0
 22 21  2  0  0  0  0
 22 23  1  0  0  0  0
 23 24  2  0  0  0  0
 24 25  1  0  0  0  0
 25 29  1  0  0  0  0
 26 25  2  0  0  0  0
 27 22  1  0  0  0  0
 28 23  1  0  0  0  0
M  END
>  <minimizedAffinity>
-5.04297829

$$$$

 OpenBabel03262521103D

 29 31  0  0  0  0  0  0  0  0999 V2000
   40.0910   24.0940   32.8440 O   0  0  0  0  0  0  0  0  0  0  0  0
   38.0930   25.4800   34.3260 H   0  0  0  0  0  0  0  0  0  0  0  0
   38.6850   24.7430   34.7690 N   0  0  0  0  0  0  0  0  0  0  0  0
   39.6450   24.0420   34.1530 C   0  0  0  0  0  0  0  0  0  0  0  0
   40.2070   23.1710   35.0390 N   0  0  0  0  0  0  0  0  0  0  0  0
   39.5560   23.3760   36.1880 C   0  0  0  0  0  0  0  0  0  0  0  0
   39.6600   22.8090   37.4510 C   0  0  0  0  0  0  0  0  0  0  0  0
   38.9000   23.1640   38.4830 N   0  0  0  0  0  0  0  0  0  0  0  0
   37.9620   24.1270   38.3320 C   0  0  0  0  0  0  0  0  0  0  0  0
   37.3290   24.4430   39.1330 H   0  0  0  0  0  0  0  0  0  0  0  0
   37.8590   24.6790   37.1060 N   0  0  0  0  0  0  0  0  0  0  0  0
   38.5960   24.3550   36.0510 C   0  0  0  0  0  0  0  0  0  0  0  0
   40.6010   21.7920   37.7380 N   0  0  0  0  0  0  0  0  0  0  0  0
   40.9640   20.8280   37.7150 H   0  0  0  0  0  0  0  0  0  0  0  0
   40.2380   20.8880   37.3220 H   0  0  0  0  0  0  0  0  0  0  0  0
   41.6060   25.6420   31.4310 O   0  0  0  0  0  0  0  0  0  0  0  0
   40.1820   25.4830   31.9040 P   0  0  2  0  0  0  0  0  0  0  0  0
   39.6860   26.8480   32.8070 O   0  0  0  0  0  0  0  0  0  0  0  0
   38.9470   26.5340   33.3800 H   0  0  0  0  0  0  0  0  0  0  0  0
   39.0540   25.3790   30.6070 O   0  0  0  0  0  0  0  0  0  0  0  0
   37.7020   25.1690   30.8230 C   0  0  0  0  0  0  0  0  0  0  0  0
   37.0730   23.9070   30.8080 C   0  0  0  0  0  0  0  0  0  0  0  0
   35.7060   23.8600   31.0420 C   0  0  0  0  0  0  0  0  0  0  0  0
   35.0290   25.0210   31.2750 N   0  0  0  0  0  0  0  0  0  0  0  0
   35.6680   26.2190   31.2810 C   0  0  0  0  0  0  0  0  0  0  0  0
   36.9980   26.2820   31.0550 N   0  0  0  0  0  0  0  0  0  0  0  0
   37.7080   23.0540   30.6130 H   0  0  0  0  0  0  0  0  0  0  0  0
   35.2280   22.8900   31.0300 H   0  0  0  0  0  0  0  0  0  0  0  0
   35.1030   27.1230   31.4690 H   0  0  0  0  0  0  0  0  0  0  0  0
  1  4  1  0  0  0  0
  2  3  1  0  0  0  0
  3 12  1  0  0  0  0
  4  3  1  0  0  0  0
  4  5  2  0  0  0  0
  5  6  1  0  0  0  0
  6  7  1  0  0  0  0
  7 13  1  0  0  0  0
  7  8  2  0  0  0  0
  9  8  1  0  0  0  0
  9 10  1  0  0  0  0
 11  9  2  0  0  0  0
 12  6  2  0  0  0  0
 12 11  1  0  0  0  0
 14 13  1  0  0  0  0
 15 13  1  0  0  0  0
 17 16  2  6  0  0  0
 17 18  1  0  0  0  0
 17  1  1  0  0  0  0
 18 19  1  0  0  0  0
 20 21  1  0  0  0  0
 20 17  1  0  0  0  0
 21 26  1  0  0  0  0
 22 21  2  0  0  0  0
 22 23  1  0  0  0  0
 23 24  2  0  0  0  0
 24 25  1  0  0  0  0
 25 29  1  0  0  0  0
 26 25  2  0  0  0  0
 27 22  1  0  0  0  0
 28 23  1  0  0  0  0
M  END
>  <minimizedAffinity>
-5.00646019

$$$$

 OpenBabel03262521103D

 29 31  0  0  0  0  0  0  0  0999 V2000
   38.7820   22.4880   32.7730 O   0  0  0  0  0  0  0  0  0  0  0  0
   37.1120   24.2460   34.2670 H   0  0  0  0  0  0  0  0  0  0  0  0
   37.8510   23.6730   34.7310 N   0  0  0  0  0  0  0  0  0  0  0  0
   38.6800   22.8230   34.1120 C   0  0  0  0  0  0  0  0  0  0  0  0
   39.5110   22.2540   35.0310 N   0  0  0  0  0  0  0  0  0  0  0  0
   39.1530   22.7870   36.2020 C   0  0  0  0  0  0  0  0  0  0  0  0
   39.6110   22.6190   37.5020 C   0  0  0  0  0  0  0  0  0  0  0  0
   39.1060   23.2610   38.5510 N   0  0  0  0  0  0  0  0  0  0  0  0
   38.0860   24.1350   38.3820 C   0  0  0  0  0  0  0  0  0  0  0  0
   37.6490   24.6720   39.1960 H   0  0  0  0  0  0  0  0  0  0  0  0
   37.6390   24.3000   37.1210 N   0  0  0  0  0  0  0  0  0  0  0  0
   38.1140   23.6810   36.0480 C   0  0  0  0  0  0  0  0  0  0  0  0
   40.6710   21.7340   37.8110 N   0  0  0  0  0  0  0  0  0  0  0  0
   41.0910   20.8060   37.9690 H   0  0  0  0  0  0  0  0  0  0  0  0
   40.2880   20.7470   37.7790 H   0  0  0  0  0  0  0  0  0  0  0  0
   36.2560   22.0040   32.5080 O   0  0  0  0  0  0  0  0  0  0  0  0
   37.4910   22.3370   31.7090 P   0  0  2  0  0  0  0  0  0  0  0  0
   37.8120   21.1210   30.5510 O   0  0  0  0  0  0  0  0  0  0  0  0
   38.7760   21.1900   30.3510 H   0  0  0  0  0  0  0  0  0  0  0  0
   37.3260   23.7860   30.7930 O   0  0  0  0  0  0  0  0  0  0  0  0
   37.6050   25.0320   31.3290 C   0  0  0  0  0  0  0  0  0  0  0  0
   38.6730   25.8590   30.9260 C   0  0  0  0  0  0  0  0  0  0  0  0
   38.8220   27.0830   31.5600 C   0  0  0  0  0  0  0  0  0  0  0  0
   37.9420   27.4390   32.5390 N   0  0  0  0  0  0  0  0  0  0  0  0
   36.9240   26.6160   32.9030 C   0  0  0  0  0  0  0  0  0  0  0  0
   36.7650   25.4210   32.2940 N   0  0  0  0  0  0  0  0  0  0  0  0
   39.3090   25.4760   30.1390 H   0  0  0  0  0  0  0  0  0  0  0  0
   39.6430   27.7140   31.2470 H   0  0  0  0  0  0  0  0  0  0  0  0
   36.2420   26.9270   33.6830 H   0  0  0  0  0  0  0  0  0  0  0  0
  1  4  1  0  0  0  0
  2  3  1  0  0  0  0
  3 12  1  0  0  0  0
  4  3  1  0  0  0  0
  4  5  2  0  0  0  0
  5  6  1  0  0  0  0
  6  7  1  0  0  0  0
  7 13  1  0  0  0  0
  7  8  2  0  0  0  0
  9  8  1  0  0  0  0
  9 10  1  0  0  0  0
 11  9  2  0  0  0  0
 12  6  2  0  0  0  0
 12 11  1  0  0  0  0
 13 14  1  0  0  0  0
 15 13  1  0  0  0  0
 17 16  2  1  0  0  0
 17  1  1  0  0  0  0
 18 17  1  0  0  0  0
 19 18  1  0  0  0  0
 20 21  1  0  0  0  0
 20 17  1  0  0  0  0
 21 26  1  0  0  0  0
 22 21  2  0  0  0  0
 22 23  1  0  0  0  0
 23 24  2  0  0  0  0
 24 25  1  0  0  0  0
 25 29  1  0  0  0  0
 26 25  2  0  0  0  0
 27 22  1  0  0  0  0
 28 23  1  0  0  0  0
M  END
>  <minimizedAffinity>
-4.98897362

$$$$

 OpenBabel03262521103D

 29 31  0  0  0  0  0  0  0  0999 V2000
   36.2920   21.4960   33.7850 O   0  0  0  0  0  0  0  0  0  0  0  0
   38.8580   22.0440   32.6770 H   0  0  0  0  0  0  0  0  0  0  0  0
   38.6890   22.0890   33.7060 N   0  0  0  0  0  0  0  0  0  0  0  0
   37.5220   21.8480   34.3150 C   0  0  0  0  0  0  0  0  0  0  0  0
   37.6750   22.0000   35.6610 N   0  0  0  0  0  0  0  0  0  0  0  0
   38.9570   22.3340   35.8300 C   0  0  0  0  0  0  0  0  0  0  0  0
   39.7250   22.6190   36.9510 C   0  0  0  0  0  0  0  0  0  0  0  0
   41.0140   22.9370   36.9010 N   0  0  0  0  0  0  0  0  0  0  0  0
   41.6500   22.9960   35.7080 C   0  0  0  0  0  0  0  0  0  0  0  0
   42.6850   23.2470   35.6210 H   0  0  0  0  0  0  0  0  0  0  0  0
   40.9080   22.7190   34.6170 N   0  0  0  0  0  0  0  0  0  0  0  0
   39.6200   22.3990   34.6230 C   0  0  0  0  0  0  0  0  0  0  0  0
   39.1770   22.5920   38.2570 N   0  0  0  0  0  0  0  0  0  0  0  0
   38.6180   22.9650   39.0380 H   0  0  0  0  0  0  0  0  0  0  0  0
   38.5990   23.4700   38.3830 H   0  0  0  0  0  0  0  0  0  0  0  0
   35.0880   19.6710   32.4050 O   0  0  0  0  0  0  0  0  0  0  0  0
   36.0450   20.8280   32.2640 P   0  0  2  0  0  0  0  0  0  0  0  0
   37.5300   20.3100   31.5920 O   0  0  0  0  0  0  0  0  0  0  0  0
   38.1990   20.9780   31.8760 H   0  0  0  0  0  0  0  0  0  0  0  0
   35.4740   22.0430   31.1850 O   0  0  0  0  0  0  0  0  0  0  0  0
   36.0120   23.3180   31.1610 C   0  0  0  0  0  0  0  0  0  0  0  0
   35.2610   24.5090   31.2320 C   0  0  0  0  0  0  0  0  0  0  0  0
   35.9470   25.7140   31.1960 C   0  0  0  0  0  0  0  0  0  0  0  0
   37.3070   25.7040   31.0930 N   0  0  0  0  0  0  0  0  0  0  0  0
   37.9990   24.5370   31.0260 C   0  0  0  0  0  0  0  0  0  0  0  0
   37.3460   23.3550   31.0600 N   0  0  0  0  0  0  0  0  0  0  0  0
   34.1880   24.3980   31.3130 H   0  0  0  0  0  0  0  0  0  0  0  0
   35.3660   26.6240   31.2510 H   0  0  0  0  0  0  0  0  0  0  0  0
   39.0780   24.5620   30.9440 H   0  0  0  0  0  0  0  0  0  0  0  0
  1  4  1  0  0  0  0
  2  3  1  0  0  0  0
  3  4  1  0  0  0  0
  3 12  1  0  0  0  0
  4  5  2  0  0  0  0
  5  6  1  0  0  0  0
  6  7  1  0  0  0  0
  7 13  1  0  0  0  0
  8  7  2  0  0  0  0
  9  8  1  0  0  0  0
 10  9  1  0  0  0  0
 11 12  1  0  0  0  0
 11  9  2  0  0  0  0
 12  6  2  0  0  0  0
 13 15  1  0  0  0  0
 13 14  1  0  0  0  0
 17 16  2  1  0  0  0
 17  1  1  0  0  0  0
 18 19  1  0  0  0  0
 18 17  1  0  0  0  0
 20 17  1  0  0  0  0
 21 20  1  0  0  0  0
 21 22  1  0  0  0  0
 22 27  1  0  0  0  0
 23 22  2  0  0  0  0
 23 28  1  0  0  0  0
 24 23  1  0  0  0  0
 25 26  1  0  0  0  0
 25 24  2  0  0  0  0
 26 21  2  0  0  0  0
 29 25  1  0  0  0  0
M  END
>  <minimizedAffinity>
-4.95509291

$$$$

 OpenBabel03262521103D

 29 31  0  0  0  0  0  0  0  0999 V2000
   34.8720   28.4590   32.1980 O   0  0  0  0  0  0  0  0  0  0  0  0
   36.7770   29.9480   33.7030 H   0  0  0  0  0  0  0  0  0  0  0  0
   35.7640   29.9460   33.9570 N   0  0  0  0  0  0  0  0  0  0  0  0
   34.8000   29.2790   33.3110 C   0  0  0  0  0  0  0  0  0  0  0  0
   33.6040   29.5100   33.9230 N   0  0  0  0  0  0  0  0  0  0  0  0
   33.8850   30.3260   34.9420 C   0  0  0  0  0  0  0  0  0  0  0  0
   33.1070   30.9170   35.9290 C   0  0  0  0  0  0  0  0  0  0  0  0
   33.5950   31.7150   36.8720 N   0  0  0  0  0  0  0  0  0  0  0  0
   34.9190   31.9930   36.9060 C   0  0  0  0  0  0  0  0  0  0  0  0
   35.3540   32.6290   37.6460 H   0  0  0  0  0  0  0  0  0  0  0  0
   35.6770   31.4210   35.9490 N   0  0  0  0  0  0  0  0  0  0  0  0
   35.2320   30.6190   34.9900 C   0  0  0  0  0  0  0  0  0  0  0  0
   31.7090   30.7060   36.0020 N   0  0  0  0  0  0  0  0  0  0  0  0
   30.7320   30.8470   35.7080 H   0  0  0  0  0  0  0  0  0  0  0  0
   31.2540   31.2880   35.2430 H   0  0  0  0  0  0  0  0  0  0  0  0
   37.2840   28.9680   31.4200 O   0  0  0  0  0  0  0  0  0  0  0  0
   36.2860   27.8430   31.5350 P   0  0  2  0  0  0  0  0  0  0  0  0
   35.9740   27.1490   30.0040 O   0  0  0  0  0  0  0  0  0  0  0  0
   35.0870   26.7230   30.0790 H   0  0  0  0  0  0  0  0  0  0  0  0
   36.8570   26.5370   32.5030 O   0  0  0  0  0  0  0  0  0  0  0  0
   37.7730   26.7230   33.5230 C   0  0  0  0  0  0  0  0  0  0  0  0
   39.1590   26.4920   33.4100 C   0  0  0  0  0  0  0  0  0  0  0  0
   39.9500   26.7250   34.5250 C   0  0  0  0  0  0  0  0  0  0  0  0
   39.3670   27.1630   35.6780 N   0  0  0  0  0  0  0  0  0  0  0  0
   38.0270   27.3740   35.7510 C   0  0  0  0  0  0  0  0  0  0  0  0
   37.2430   27.1520   34.6740 N   0  0  0  0  0  0  0  0  0  0  0  0
   39.5140   26.1470   32.4480 H   0  0  0  0  0  0  0  0  0  0  0  0
   41.0130   26.5470   34.4330 H   0  0  0  0  0  0  0  0  0  0  0  0
   37.5930   27.7210   36.6800 H   0  0  0  0  0  0  0  0  0  0  0  0
  1  4  1  0  0  0  0
  2  3  1  0  0  0  0
  3 12  1  0  0  0  0
  4  5  2  0  0  0  0
  4  3  1  0  0  0  0
  5  6  1  0  0  0  0
  6 12  2  0  0  0  0
  6  7  1  0  0  0  0
  7 13  1  0  0  0  0
  7  8  2  0  0  0  0
  8  9  1  0  0  0  0
  9 10  1  0  0  0  0
 11  9  2  0  0  0  0
 12 11  1  0  0  0  0
 14 13  1  0  0  0  0
 15 13  1  0  0  0  0
 17 16  2  6  0  0  0
 17  1  1  0  0  0  0
 17 20  1  0  0  0  0
 18 19  1  0  0  0  0
 18 17  1  0  0  0  0
 20 21  1  0  0  0  0
 21 26  1  0  0  0  0
 22 21  2  0  0  0  0
 22 23  1  0  0  0  0
 23 24  2  0  0  0  0
 24 25  1  0  0  0  0
 25 29  1  0  0  0  0
 26 25  2  0  0  0  0
 27 22  1  0  0  0  0
 28 23  1  0  0  0  0
M  END
>  <minimizedAffinity>
-4.92608356

$$$$

 OpenBabel03262521103D

 29 31  0  0  0  0  0  0  0  0999 V2000
   35.5630   25.9270   31.4480 O   0  0  0  0  0  0  0  0  0  0  0  0
   36.9010   26.7750   29.0820 H   0  0  0  0  0  0  0  0  0  0  0  0
   36.6350   27.4540   29.8290 N   0  0  0  0  0  0  0  0  0  0  0  0
   36.0070   27.1480   30.9710 C   0  0  0  0  0  0  0  0  0  0  0  0
   35.8250   28.2830   31.7040 N   0  0  0  0  0  0  0  0  0  0  0  0
   36.3590   29.2620   30.9690 C   0  0  0  0  0  0  0  0  0  0  0  0
   36.4900   30.6310   31.1610 C   0  0  0  0  0  0  0  0  0  0  0  0
   37.0690   31.4460   30.2860 N   0  0  0  0  0  0  0  0  0  0  0  0
   37.5710   30.9510   29.1300 C   0  0  0  0  0  0  0  0  0  0  0  0
   38.0440   31.5700   28.3980 H   0  0  0  0  0  0  0  0  0  0  0  0
   37.4460   29.6230   28.9410 N   0  0  0  0  0  0  0  0  0  0  0  0
   36.8760   28.7740   29.7870 C   0  0  0  0  0  0  0  0  0  0  0  0
   36.0060   31.2700   32.3280 N   0  0  0  0  0  0  0  0  0  0  0  0
   35.2720   31.6590   32.9380 H   0  0  0  0  0  0  0  0  0  0  0  0
   34.9530   31.3450   32.2420 H   0  0  0  0  0  0  0  0  0  0  0  0
   37.2260   24.4430   32.7590 O   0  0  0  0  0  0  0  0  0  0  0  0
   36.4580   24.5060   31.4630 P   0  0  2  0  0  0  0  0  0  0  0  0
   37.5210   24.4570   30.1230 O   0  0  0  0  0  0  0  0  0  0  0  0
   37.0280   24.8730   29.3760 H   0  0  0  0  0  0  0  0  0  0  0  0
   35.4080   23.1590   31.2410 O   0  0  0  0  0  0  0  0  0  0  0  0
   35.7940   21.8660   31.5490 C   0  0  0  0  0  0  0  0  0  0  0  0
   35.0700   20.9880   32.3810 C   0  0  0  0  0  0  0  0  0  0  0  0
   35.5880   19.7190   32.5950 C   0  0  0  0  0  0  0  0  0  0  0  0
   36.7660   19.3710   32.0020 N   0  0  0  0  0  0  0  0  0  0  0  0
   37.4380   20.2440   31.2060 C   0  0  0  0  0  0  0  0  0  0  0  0
   36.9460   21.4830   30.9870 N   0  0  0  0  0  0  0  0  0  0  0  0
   34.1470   21.3690   32.7970 H   0  0  0  0  0  0  0  0  0  0  0  0
   35.0280   19.0490   33.2330 H   0  0  0  0  0  0  0  0  0  0  0  0
   38.3700   19.9380   30.7500 H   0  0  0  0  0  0  0  0  0  0  0  0
  1 17  1  0  0  0  0
  2  3  1  0  0  0  0
  3  4  1  0  0  0  0
  4  1  1  0  0  0  0
  4  5  2  0  0  0  0
  6  7  1  0  0  0  0
  6  5  1  0  0  0  0
  7 13  1  0  0  0  0
  8  7  2  0  0  0  0
  9  8  1  0  0  0  0
 10  9  1  0  0  0  0
 11  9  2  0  0  0  0
 11 12  1  0  0  0  0
 12  3  1  0  0  0  0
 12  6  2  0  0  0  0
 13 14  1  0  0  0  0
 15 13  1  0  0  0  0
 17 16  2  1  0  0  0
 18 17  1  0  0  0  0
 19 18  1  0  0  0  0
 20 17  1  0  0  0  0
 20 21  1  0  0  0  0
 21 22  1  0  0  0  0
 22 23  2  0  0  0  0
 22 27  1  0  0  0  0
 23 28  1  0  0  0  0
 24 23  1  0  0  0  0
 25 24  2  0  0  0  0
 26 25  1  0  0  0  0
 26 21  2  0  0  0  0
 29 25  1  0  0  0  0
M  END
>  <minimizedAffinity>
-4.88921499

$$$$

 OpenBabel03262521103D

 29 31  0  0  0  0  0  0  0  0999 V2000
   38.8270   24.4850   32.6640 O   0  0  0  0  0  0  0  0  0  0  0  0
   37.4450   25.8950   34.7160 H   0  0  0  0  0  0  0  0  0  0  0  0
   38.0440   25.0680   34.9330 N   0  0  0  0  0  0  0  0  0  0  0  0
   38.7290   24.3460   34.0380 C   0  0  0  0  0  0  0  0  0  0  0  0
   39.3980   23.3460   34.6800 N   0  0  0  0  0  0  0  0  0  0  0  0
   39.0920   23.4970   35.9710 C   0  0  0  0  0  0  0  0  0  0  0  0
   39.4510   22.8040   37.1190 C   0  0  0  0  0  0  0  0  0  0  0  0
   39.0270   23.1240   38.3370 N   0  0  0  0  0  0  0  0  0  0  0  0
   38.1960   24.1780   38.5080 C   0  0  0  0  0  0  0  0  0  0  0  0
   37.8300   24.4710   39.4690 H   0  0  0  0  0  0  0  0  0  0  0  0
   37.8440   24.8530   37.3960 N   0  0  0  0  0  0  0  0  0  0  0  0
   38.2450   24.5680   36.1630 C   0  0  0  0  0  0  0  0  0  0  0  0
   40.3150   21.6830   37.0750 N   0  0  0  0  0  0  0  0  0  0  0  0
   40.5480   20.6960   36.8880 H   0  0  0  0  0  0  0  0  0  0  0  0
   39.7580   20.8600   36.7080 H   0  0  0  0  0  0  0  0  0  0  0  0
   36.3140   24.9420   32.2640 O   0  0  0  0  0  0  0  0  0  0  0  0
   37.6770   25.2080   31.6760 P   0  0  2  0  0  0  0  0  0  0  0  0
   37.7840   24.5910   30.0850 O   0  0  0  0  0  0  0  0  0  0  0  0
   38.7470   24.4500   29.9170 H   0  0  0  0  0  0  0  0  0  0  0  0
   38.0240   26.8880   31.5210 O   0  0  0  0  0  0  0  0  0  0  0  0
   38.2510   27.4820   30.2910 C   0  0  0  0  0  0  0  0  0  0  0  0
   37.4640   28.5140   29.7400 C   0  0  0  0  0  0  0  0  0  0  0  0
   37.8190   29.0070   28.4940 C   0  0  0  0  0  0  0  0  0  0  0  0
   38.9040   28.4840   27.8530 N   0  0  0  0  0  0  0  0  0  0  0  0
   39.6390   27.4890   28.4140 C   0  0  0  0  0  0  0  0  0  0  0  0
   39.3060   26.9970   29.6280 N   0  0  0  0  0  0  0  0  0  0  0  0
   36.6280   28.8530   30.3370 H   0  0  0  0  0  0  0  0  0  0  0  0
   37.2130   29.7990   28.0760 H   0  0  0  0  0  0  0  0  0  0  0  0
   40.4940   27.0940   27.8810 H   0  0  0  0  0  0  0  0  0  0  0  0
  1  4  1  0  0  0  0
  2  3  1  0  0  0  0
  3 12  1  0  0  0  0
  4  5  2  0  0  0  0
  4  3  1  0  0  0  0
  5  6  1  0  0  0  0
  6 12  2  0  0  0  0
  6  7  1  0  0  0  0
  7  8  2  0  0  0  0
  8  9  1  0  0  0  0
  9 10  1  0  0  0  0
 11  9  2  0  0  0  0
 12 11  1  0  0  0  0
 13  7  1  0  0  0  0
 14 13  1  0  0  0  0
 15 13  1  0  0  0  0
 17 16  2  1  0  0  0
 17  1  1  0  0  0  0
 18 17  1  0  0  0  0
 19 18  1  0  0  0  0
 20 17  1  0  0  0  0
 21 20  1  0  0  0  0
 22 21  1  0  0  0  0
 22 27  1  0  0  0  0
 23 22  2  0  0  0  0
 24 25  2  0  0  0  0
 24 23  1  0  0  0  0
 25 26  1  0  0  0  0
 26 21  2  0  0  0  0
 28 23  1  0  0  0  0
 29 25  1  0  0  0  0
M  END
>  <minimizedAffinity>
-4.8812952

$$$$
