
 OpenBabel03272505443D

 29 31  0  0  0  0  0  0  0  0999 V2000
   38.4010   23.2570   32.4150 O   0  0  0  0  0  0  0  0  0  0  0  0
   37.1250   24.8060   34.2630 H   0  0  0  0  0  0  0  0  0  0  0  0
   37.8330   24.1040   34.5790 N   0  0  0  0  0  0  0  0  0  0  0  0
   38.5270   23.2840   33.7730 C   0  0  0  0  0  0  0  0  0  0  0  0
   39.3170   22.5570   34.6110 N   0  0  0  0  0  0  0  0  0  0  0  0
   39.0980   22.9330   35.8820 C   0  0  0  0  0  0  0  0  0  0  0  0
   39.5970   22.5580   37.1180 C   0  0  0  0  0  0  0  0  0  0  0  0
   39.1340   23.1700   38.2240 N   0  0  0  0  0  0  0  0  0  0  0  0
   38.2060   24.1350   38.1880 C   0  0  0  0  0  0  0  0  0  0  0  0
   37.9180   24.5500   39.1590 H   0  0  0  0  0  0  0  0  0  0  0  0
   37.6890   24.5360   36.9950 N   0  0  0  0  0  0  0  0  0  0  0  0
   38.1440   23.9300   35.8790 C   0  0  0  0  0  0  0  0  0  0  0  0
   40.5850   21.5270   37.1330 N   0  0  0  0  0  0  0  0  0  0  0  0
   40.1060   20.6160   36.9630 H   0  0  0  0  0  0  0  0  0  0  0  0
   41.6080   21.7360   37.2940 H   0  0  0  0  0  0  0  0  0  0  0  0
   36.7060   25.1940   32.2570 O   0  0  0  0  0  0  0  0  0  0  0  0
   37.1910   23.9560   31.4980 P   0  0  1  0  0  0  0  0  0  0  0  0
   37.8440   24.5040   30.0520 O   0  0  0  0  0  0  0  0  0  0  0  0
   38.8210   24.3590   29.9620 H   0  0  0  0  0  0  0  0  0  0  0  0
   35.8550   22.9360   31.2550 O   0  0  0  0  0  0  0  0  0  0  0  0
   35.9750   19.2960   31.2600 C   0  0  0  0  0  0  0  0  0  0  0  0
   35.6700   19.0350   32.6240 C   0  0  0  0  0  0  0  0  0  0  0  0
   35.4460   20.1470   33.4420 C   0  0  0  0  0  0  0  0  0  0  0  0
   35.5300   21.3820   32.8950 N   0  0  0  0  0  0  0  0  0  0  0  0
   35.8190   21.5960   31.6070 C   0  0  0  0  0  0  0  0  0  0  0  0
   36.0430   20.5420   30.7830 N   0  0  0  0  0  0  0  0  0  0  0  0
   36.1680   18.4940   30.5300 H   0  0  0  0  0  0  0  0  0  0  0  0
   35.6310   18.0170   32.9450 H   0  0  0  0  0  0  0  0  0  0  0  0
   35.2130   19.9690   34.4840 H   0  0  0  0  0  0  0  0  0  0  0  0
  1  4  1  0  0  0  0
  2  3  1  0  0  0  0
  3 12  1  0  0  0  0
  4  3  1  0  0  0  0
  4  5  2  0  0  0  0
  5  6  1  0  0  0  0
  6  7  1  0  0  0  0
  7 13  1  0  0  0  0
  7  8  2  0  0  0  0
  9  8  1  0  0  0  0
  9 10  1  0  0  0  0
 11  9  2  0  0  0  0
 12  6  2  0  0  0  0
 12 11  1  0  0  0  0
 13 15  1  0  0  0  0
 14 13  1  0  0  0  0
 17 16  2  1  0  0  0
 17  1  1  0  0  0  0
 18 17  1  0  0  0  0
 19 18  1  0  0  0  0
 20 17  1  0  0  0  0
 20 25  1  0  0  0  0
 21 22  1  0  0  0  0
 22 28  1  0  0  0  0
 22 23  2  0  0  0  0
 23 29  1  0  0  0  0
 24 23  1  0  0  0  0
 25 24  2  0  0  0  0
 26 21  2  0  0  0  0
 26 25  1  0  0  0  0
 27 21  1  0  0  0  0
M  END
>  <minimizedAffinity>
-5.38177919

$$$$

 OpenBabel03272505443D

 29 31  0  0  0  0  0  0  0  0999 V2000
   37.0830   26.3610   34.9360 O   0  0  0  0  0  0  0  0  0  0  0  0
   39.4070   25.2860   33.9940 H   0  0  0  0  0  0  0  0  0  0  0  0
   39.0320   24.9740   34.9190 N   0  0  0  0  0  0  0  0  0  0  0  0
   37.9040   25.4230   35.4920 C   0  0  0  0  0  0  0  0  0  0  0  0
   37.8160   24.7460   36.6700 N   0  0  0  0  0  0  0  0  0  0  0  0
   38.8660   23.9160   36.7960 C   0  0  0  0  0  0  0  0  0  0  0  0
   39.2920   23.0090   37.7510 C   0  0  0  0  0  0  0  0  0  0  0  0
   40.4320   22.3250   37.5410 N   0  0  0  0  0  0  0  0  0  0  0  0
   41.1810   22.4780   36.4410 C   0  0  0  0  0  0  0  0  0  0  0  0
   42.0840   21.8600   36.3940 H   0  0  0  0  0  0  0  0  0  0  0  0
   40.7990   23.3580   35.4760 N   0  0  0  0  0  0  0  0  0  0  0  0
   39.6590   24.0500   35.6750 C   0  0  0  0  0  0  0  0  0  0  0  0
   38.4780   22.8620   38.9150 N   0  0  0  0  0  0  0  0  0  0  0  0
   38.6300   23.6940   39.5250 H   0  0  0  0  0  0  0  0  0  0  0  0
   37.8530   22.0220   39.0580 H   0  0  0  0  0  0  0  0  0  0  0  0
   36.6230   28.4290   33.4650 O   0  0  0  0  0  0  0  0  0  0  0  0
   37.1800   27.0040   33.3960 P   0  0  1  0  0  0  0  0  0  0  0  0
   38.7940   27.1390   32.9580 O   0  0  0  0  0  0  0  0  0  0  0  0
   39.4360   26.8500   33.6580 H   0  0  0  0  0  0  0  0  0  0  0  0
   36.2720   26.1430   32.2480 O   0  0  0  0  0  0  0  0  0  0  0  0
   35.8950   22.6790   31.1900 C   0  0  0  0  0  0  0  0  0  0  0  0
   37.2300   22.2170   31.3530 C   0  0  0  0  0  0  0  0  0  0  0  0
   38.1640   23.1480   31.8190 C   0  0  0  0  0  0  0  0  0  0  0  0
   37.7470   24.4090   32.0840 N   0  0  0  0  0  0  0  0  0  0  0  0
   36.4830   24.8140   31.9200 C   0  0  0  0  0  0  0  0  0  0  0  0
   35.5490   23.9390   31.4700 N   0  0  0  0  0  0  0  0  0  0  0  0
   35.0810   22.0290   30.8300 H   0  0  0  0  0  0  0  0  0  0  0  0
   37.4440   21.1990   31.1130 H   0  0  0  0  0  0  0  0  0  0  0  0
   39.1860   22.8160   31.9490 H   0  0  0  0  0  0  0  0  0  0  0  0
  1  4  1  0  0  0  0
  2  3  1  0  0  0  0
  3  4  1  0  0  0  0
  3 12  1  0  0  0  0
  4  5  2  0  0  0  0
  5  6  1  0  0  0  0
  6  7  1  0  0  0  0
  7 13  1  0  0  0  0
  8  7  2  0  0  0  0
  9  8  1  0  0  0  0
 10  9  1  0  0  0  0
 11 12  1  0  0  0  0
 11  9  2  0  0  0  0
 12  6  2  0  0  0  0
 13 15  1  0  0  0  0
 13 14  1  0  0  0  0
 17 16  2  1  0  0  0
 17  1  1  0  0  0  0
 18 17  1  0  0  0  0
 18 19  1  0  0  0  0
 20 17  1  0  0  0  0
 21 22  2  0  0  0  0
 21 26  1  0  0  0  0
 22 23  1  0  0  0  0
 23 29  1  0  0  0  0
 23 24  2  0  0  0  0
 25 24  1  0  0  0  0
 25 20  1  0  0  0  0
 26 25  2  0  0  0  0
 27 21  1  0  0  0  0
 28 22  1  0  0  0  0
M  END
>  <minimizedAffinity>
-5.16941977

$$$$

 OpenBabel03272505443D

 29 31  0  0  0  0  0  0  0  0999 V2000
   39.1580   23.8000   32.8240 O   0  0  0  0  0  0  0  0  0  0  0  0
   37.5380   25.1690   34.5410 H   0  0  0  0  0  0  0  0  0  0  0  0
   38.2110   24.4630   34.9190 N   0  0  0  0  0  0  0  0  0  0  0  0
   39.0590   23.7260   34.1830 C   0  0  0  0  0  0  0  0  0  0  0  0
   39.7270   22.9570   35.0860 N   0  0  0  0  0  0  0  0  0  0  0  0
   39.2890   23.2280   36.3280 C   0  0  0  0  0  0  0  0  0  0  0  0
   39.5930   22.7720   37.5990 C   0  0  0  0  0  0  0  0  0  0  0  0
   38.9320   23.2850   38.6530 N   0  0  0  0  0  0  0  0  0  0  0  0
   37.9860   24.2260   38.5330 C   0  0  0  0  0  0  0  0  0  0  0  0
   37.5270   24.5570   39.4700 H   0  0  0  0  0  0  0  0  0  0  0  0
   37.6570   24.7040   37.3020 N   0  0  0  0  0  0  0  0  0  0  0  0
   38.3110   24.1970   36.2370 C   0  0  0  0  0  0  0  0  0  0  0  0
   40.6030   21.7690   37.7040 N   0  0  0  0  0  0  0  0  0  0  0  0
   40.1940   20.8620   37.3920 H   0  0  0  0  0  0  0  0  0  0  0  0
   41.5780   21.9910   38.0480 H   0  0  0  0  0  0  0  0  0  0  0  0
   38.3730   24.0260   30.3780 O   0  0  0  0  0  0  0  0  0  0  0  0
   38.1270   24.5960   31.7780 P   0  0  1  0  0  0  0  0  0  0  0  0
   36.5410   24.2210   32.1780 O   0  0  0  0  0  0  0  0  0  0  0  0
   36.4460   23.5870   32.9350 H   0  0  0  0  0  0  0  0  0  0  0  0
   38.3940   26.2720   31.7130 O   0  0  0  0  0  0  0  0  0  0  0  0
   36.2540   29.1330   32.4190 C   0  0  0  0  0  0  0  0  0  0  0  0
   35.9990   28.9230   33.8020 C   0  0  0  0  0  0  0  0  0  0  0  0
   36.5910   27.7990   34.3870 C   0  0  0  0  0  0  0  0  0  0  0  0
   37.3590   26.9940   33.6150 N   0  0  0  0  0  0  0  0  0  0  0  0
   37.5800   27.2180   32.3150 C   0  0  0  0  0  0  0  0  0  0  0  0
   37.0220   28.2980   31.7130 N   0  0  0  0  0  0  0  0  0  0  0  0
   35.8370   29.9860   31.8590 H   0  0  0  0  0  0  0  0  0  0  0  0
   35.3760   29.6260   34.3110 H   0  0  0  0  0  0  0  0  0  0  0  0
   36.4090   27.6230   35.4390 H   0  0  0  0  0  0  0  0  0  0  0  0
  1  4  1  0  0  0  0
  2  3  1  0  0  0  0
  3 12  1  0  0  0  0
  4  3  1  0  0  0  0
  4  5  2  0  0  0  0
  5  6  1  0  0  0  0
  6  7  1  0  0  0  0
  7 13  1  0  0  0  0
  7  8  2  0  0  0  0
  9  8  1  0  0  0  0
  9 10  1  0  0  0  0
 11  9  2  0  0  0  0
 12  6  2  0  0  0  0
 12 11  1  0  0  0  0
 13 15  1  0  0  0  0
 14 13  1  0  0  0  0
 17 16  2  6  0  0  0
 17 18  1  0  0  0  0
 17  1  1  0  0  0  0
 18 19  1  0  0  0  0
 20 17  1  0  0  0  0
 20 25  1  0  0  0  0
 21 22  1  0  0  0  0
 22 28  1  0  0  0  0
 22 23  2  0  0  0  0
 23 29  1  0  0  0  0
 24 23  1  0  0  0  0
 25 24  2  0  0  0  0
 26 25  1  0  0  0  0
 26 21  2  0  0  0  0
 27 21  1  0  0  0  0
M  END
>  <minimizedAffinity>
-5.08295584

$$$$

 OpenBabel03272505443D

 29 31  0  0  0  0  0  0  0  0999 V2000
   38.1360   27.4010   33.3050 O   0  0  0  0  0  0  0  0  0  0  0  0
   37.4570   28.9580   31.1700 H   0  0  0  0  0  0  0  0  0  0  0  0
   36.8130   28.9010   31.9930 N   0  0  0  0  0  0  0  0  0  0  0  0
   37.0300   28.1740   33.1010 C   0  0  0  0  0  0  0  0  0  0  0  0
   35.9430   28.4030   33.8880 N   0  0  0  0  0  0  0  0  0  0  0  0
   35.1000   29.2440   33.2650 C   0  0  0  0  0  0  0  0  0  0  0  0
   33.8760   29.8150   33.5710 C   0  0  0  0  0  0  0  0  0  0  0  0
   33.2980   30.6410   32.6800 N   0  0  0  0  0  0  0  0  0  0  0  0
   33.8540   30.9430   31.4990 C   0  0  0  0  0  0  0  0  0  0  0  0
   33.2800   31.6270   30.8670 H   0  0  0  0  0  0  0  0  0  0  0  0
   35.0560   30.4050   31.1570 N   0  0  0  0  0  0  0  0  0  0  0  0
   35.6460   29.5750   32.0420 C   0  0  0  0  0  0  0  0  0  0  0  0
   33.3020   29.4780   34.8340 N   0  0  0  0  0  0  0  0  0  0  0  0
   32.9220   28.5100   34.7710 H   0  0  0  0  0  0  0  0  0  0  0  0
   33.3040   30.1550   35.6470 H   0  0  0  0  0  0  0  0  0  0  0  0
   40.2280   26.9750   34.7520 O   0  0  0  0  0  0  0  0  0  0  0  0
   38.7050   26.8150   34.7630 P   0  0  1  0  0  0  0  0  0  0  0  0
   38.1290   27.7850   36.0060 O   0  0  0  0  0  0  0  0  0  0  0  0
   37.5720   28.5500   35.7070 H   0  0  0  0  0  0  0  0  0  0  0  0
   38.3540   25.1730   35.0140 O   0  0  0  0  0  0  0  0  0  0  0  0
   39.6500   22.8850   37.5330 C   0  0  0  0  0  0  0  0  0  0  0  0
   38.9210   23.3230   38.6730 C   0  0  0  0  0  0  0  0  0  0  0  0
   38.0310   24.3850   38.4790 C   0  0  0  0  0  0  0  0  0  0  0  0
   37.9200   24.9210   37.2400 N   0  0  0  0  0  0  0  0  0  0  0  0
   38.6200   24.4860   36.1870 C   0  0  0  0  0  0  0  0  0  0  0  0
   39.4920   23.4580   36.3360 N   0  0  0  0  0  0  0  0  0  0  0  0
   40.3760   22.0570   37.5740 H   0  0  0  0  0  0  0  0  0  0  0  0
   39.0910   22.8250   39.6010 H   0  0  0  0  0  0  0  0  0  0  0  0
   37.4670   24.7340   39.3340 H   0  0  0  0  0  0  0  0  0  0  0  0
  1 17  1  0  0  0  0
  2  3  1  0  0  0  0
  3 12  1  0  0  0  0
  3  4  1  0  0  0  0
  4  1  1  0  0  0  0
  4  5  2  0  0  0  0
  6  7  1  0  0  0  0
  6  5  1  0  0  0  0
  7 13  1  0  0  0  0
  8  7  2  0  0  0  0
  9  8  1  0  0  0  0
 10  9  1  0  0  0  0
 11  9  2  0  0  0  0
 11 12  1  0  0  0  0
 12  6  2  0  0  0  0
 13 15  1  0  0  0  0
 14 13  1  0  0  0  0
 17 16  2  6  0  0  0
 17 20  1  0  0  0  0
 17 18  1  0  0  0  0
 19 18  1  0  0  0  0
 20 25  1  0  0  0  0
 21 27  1  0  0  0  0
 21 22  1  0  0  0  0
 22 28  1  0  0  0  0
 23 22  2  0  0  0  0
 23 29  1  0  0  0  0
 24 23  1  0  0  0  0
 25 26  1  0  0  0  0
 25 24  2  0  0  0  0
 26 21  2  0  0  0  0
M  END
>  <minimizedAffinity>
-5.06252766

$$$$

 OpenBabel03272505443D

 29 31  0  0  0  0  0  0  0  0999 V2000
   37.5170   22.1600   36.5200 O   0  0  0  0  0  0  0  0  0  0  0  0
   39.3280   22.4720   34.5020 H   0  0  0  0  0  0  0  0  0  0  0  0
   38.3910   22.0540   34.2950 N   0  0  0  0  0  0  0  0  0  0  0  0
   37.4160   21.8470   35.1950 C   0  0  0  0  0  0  0  0  0  0  0  0
   36.3970   21.2910   34.4850 N   0  0  0  0  0  0  0  0  0  0  0  0
   36.7550   21.1690   33.1950 C   0  0  0  0  0  0  0  0  0  0  0  0
   36.1470   20.6900   32.0470 C   0  0  0  0  0  0  0  0  0  0  0  0
   36.8260   20.7220   30.8850 N   0  0  0  0  0  0  0  0  0  0  0  0
   38.0730   21.2010   30.7830 C   0  0  0  0  0  0  0  0  0  0  0  0
   38.5100   21.1700   29.7800 H   0  0  0  0  0  0  0  0  0  0  0  0
   38.7080   21.6830   31.8850 N   0  0  0  0  0  0  0  0  0  0  0  0
   38.0380   21.6560   33.0560 C   0  0  0  0  0  0  0  0  0  0  0  0
   34.8190   20.1830   32.1800 N   0  0  0  0  0  0  0  0  0  0  0  0
   34.8720   19.2470   32.6360 H   0  0  0  0  0  0  0  0  0  0  0  0
   33.9770   20.7290   31.8470 H   0  0  0  0  0  0  0  0  0  0  0  0
   37.6630   24.1280   38.1800 O   0  0  0  0  0  0  0  0  0  0  0  0
   38.5190   23.3030   37.2150 P   0  0  1  0  0  0  0  0  0  0  0  0
   39.6770   22.5230   38.1460 O   0  0  0  0  0  0  0  0  0  0  0  0
   39.5910   21.5350   38.1670 H   0  0  0  0  0  0  0  0  0  0  0  0
   39.2100   24.3680   36.0880 O   0  0  0  0  0  0  0  0  0  0  0  0
   37.8450   27.6850   35.4560 C   0  0  0  0  0  0  0  0  0  0  0  0
   37.1790   27.4530   34.2210 C   0  0  0  0  0  0  0  0  0  0  0  0
   37.2560   26.1580   33.6990 C   0  0  0  0  0  0  0  0  0  0  0  0
   37.9450   25.2200   34.3890 N   0  0  0  0  0  0  0  0  0  0  0  0
   38.5620   25.4680   35.5500 C   0  0  0  0  0  0  0  0  0  0  0  0
   38.5100   26.7120   36.0870 N   0  0  0  0  0  0  0  0  0  0  0  0
   37.8480   28.6670   35.9550 H   0  0  0  0  0  0  0  0  0  0  0  0
   36.6650   28.2710   33.7660 H   0  0  0  0  0  0  0  0  0  0  0  0
   36.7550   25.9620   32.7590 H   0  0  0  0  0  0  0  0  0  0  0  0
  1 17  1  0  0  0  0
  3  2  1  0  0  0  0
  3  4  1  0  0  0  0
  4  1  1  0  0  0  0
  5  4  2  0  0  0  0
  6  5  1  0  0  0  0
  7 13  1  0  0  0  0
  7  6  2  0  0  0  0
  8  7  1  0  0  0  0
  9  8  2  0  0  0  0
  9 11  1  0  0  0  0
 10  9  1  0  0  0  0
 11 12  2  0  0  0  0
 12  6  1  0  0  0  0
 12  3  1  0  0  0  0
 13 14  1  0  0  0  0
 15 13  1  0  0  0  0
 17 18  1  0  0  0  0
 17 16  2  1  0  0  0
 18 19  1  0  0  0  0
 20 17  1  0  0  0  0
 21 27  1  0  0  0  0
 21 26  1  0  0  0  0
 22 21  2  0  0  0  0
 23 22  1  0  0  0  0
 23 24  2  0  0  0  0
 24 25  1  0  0  0  0
 25 26  2  0  0  0  0
 25 20  1  0  0  0  0
 28 22  1  0  0  0  0
 29 23  1  0  0  0  0
M  END
>  <minimizedAffinity>
-5.01468325

$$$$

 OpenBabel03272505443D

 29 31  0  0  0  0  0  0  0  0999 V2000
   38.7640   24.2370   35.6180 O   0  0  0  0  0  0  0  0  0  0  0  0
   37.6360   26.6160   36.3350 H   0  0  0  0  0  0  0  0  0  0  0  0
   37.5830   26.2990   35.3390 N   0  0  0  0  0  0  0  0  0  0  0  0
   38.0960   25.1550   34.8600 C   0  0  0  0  0  0  0  0  0  0  0  0
   37.7920   25.1650   33.5330 N   0  0  0  0  0  0  0  0  0  0  0  0
   37.1170   26.2860   33.2290 C   0  0  0  0  0  0  0  0  0  0  0  0
   36.5670   26.8210   32.0770 C   0  0  0  0  0  0  0  0  0  0  0  0
   35.9380   28.0090   32.1420 N   0  0  0  0  0  0  0  0  0  0  0  0
   35.8160   28.7070   33.2790 C   0  0  0  0  0  0  0  0  0  0  0  0
   35.2820   29.6590   33.1950 H   0  0  0  0  0  0  0  0  0  0  0  0
   36.3410   28.2190   34.4360 N   0  0  0  0  0  0  0  0  0  0  0  0
   36.9740   27.0290   34.3830 C   0  0  0  0  0  0  0  0  0  0  0  0
   36.7100   26.0610   30.8770 N   0  0  0  0  0  0  0  0  0  0  0  0
   37.6930   26.1580   30.5450 H   0  0  0  0  0  0  0  0  0  0  0  0
   35.9040   25.5170   30.4610 H   0  0  0  0  0  0  0  0  0  0  0  0
   39.7370   21.9760   36.3860 O   0  0  0  0  0  0  0  0  0  0  0  0
   38.5670   22.5780   35.6020 P   0  0  1  0  0  0  0  0  0  0  0  0
   37.1710   22.1820   36.4450 O   0  0  0  0  0  0  0  0  0  0  0  0
   36.6920   22.9580   36.8350 H   0  0  0  0  0  0  0  0  0  0  0  0
   38.5870   21.9110   34.0410 O   0  0  0  0  0  0  0  0  0  0  0  0
   36.0980   21.7800   31.3850 C   0  0  0  0  0  0  0  0  0  0  0  0
   35.0810   21.0230   32.0280 C   0  0  0  0  0  0  0  0  0  0  0  0
   35.3370   20.6140   33.3410 C   0  0  0  0  0  0  0  0  0  0  0  0
   36.5170   20.9580   33.9090 N   0  0  0  0  0  0  0  0  0  0  0  0
   37.4560   21.6710   33.2780 C   0  0  0  0  0  0  0  0  0  0  0  0
   37.2430   22.0860   32.0040 N   0  0  0  0  0  0  0  0  0  0  0  0
   36.0000   22.1520   30.3520 H   0  0  0  0  0  0  0  0  0  0  0  0
   34.1890   20.8110   31.4810 H   0  0  0  0  0  0  0  0  0  0  0  0
   34.5750   20.0360   33.8480 H   0  0  0  0  0  0  0  0  0  0  0  0
  3  2  1  0  0  0  0
  4  3  1  0  0  0  0
  4  1  1  0  0  0  0
  5  4  2  0  0  0  0
  6  5  1  0  0  0  0
  6 12  1  0  0  0  0
  7  8  1  0  0  0  0
  7  6  2  0  0  0  0
  8  9  2  0  0  0  0
  9 11  1  0  0  0  0
 10  9  1  0  0  0  0
 12 11  2  0  0  0  0
 12  3  1  0  0  0  0
 13  7  1  0  0  0  0
 14 13  1  0  0  0  0
 15 13  1  0  0  0  0
 17  1  1  0  0  0  0
 17 16  2  1  0  0  0
 17 18  1  0  0  0  0
 18 19  1  0  0  0  0
 20 17  1  0  0  0  0
 21 26  2  0  0  0  0
 21 22  1  0  0  0  0
 22 23  2  0  0  0  0
 23 29  1  0  0  0  0
 23 24  1  0  0  0  0
 25 24  2  0  0  0  0
 25 20  1  0  0  0  0
 26 25  1  0  0  0  0
 27 21  1  0  0  0  0
 28 22  1  0  0  0  0
M  END
>  <minimizedAffinity>
-5.00923872

$$$$

 OpenBabel03272505443D

 29 31  0  0  0  0  0  0  0  0999 V2000
   38.1700   24.6220   36.1790 O   0  0  0  0  0  0  0  0  0  0  0  0
   39.1370   24.7070   33.6280 H   0  0  0  0  0  0  0  0  0  0  0  0
   38.4490   25.4300   33.9440 N   0  0  0  0  0  0  0  0  0  0  0  0
   37.9000   25.4990   35.1680 C   0  0  0  0  0  0  0  0  0  0  0  0
   37.0780   26.5830   35.1210 N   0  0  0  0  0  0  0  0  0  0  0  0
   37.1350   27.1450   33.9020 C   0  0  0  0  0  0  0  0  0  0  0  0
   36.5370   28.2360   33.2940 C   0  0  0  0  0  0  0  0  0  0  0  0
   36.8380   28.5160   32.0120 N   0  0  0  0  0  0  0  0  0  0  0  0
   37.6970   27.7860   31.2890 C   0  0  0  0  0  0  0  0  0  0  0  0
   37.8530   28.1220   30.2590 H   0  0  0  0  0  0  0  0  0  0  0  0
   38.3080   26.7060   31.8470 N   0  0  0  0  0  0  0  0  0  0  0  0
   38.0150   26.4140   33.1310 C   0  0  0  0  0  0  0  0  0  0  0  0
   35.6250   28.9990   34.0830 N   0  0  0  0  0  0  0  0  0  0  0  0
   34.7360   28.4600   34.1660 H   0  0  0  0  0  0  0  0  0  0  0  0
   35.8850   29.9430   34.4810 H   0  0  0  0  0  0  0  0  0  0  0  0
   39.5830   22.5620   36.8160 O   0  0  0  0  0  0  0  0  0  0  0  0
   38.3090   22.9610   36.0660 P   0  0  1  0  0  0  0  0  0  0  0  0
   37.0280   22.2450   36.8790 O   0  0  0  0  0  0  0  0  0  0  0  0
   36.4060   22.8860   37.3120 H   0  0  0  0  0  0  0  0  0  0  0  0
   38.4490   22.4030   34.4680 O   0  0  0  0  0  0  0  0  0  0  0  0
   35.9960   22.4270   31.7760 C   0  0  0  0  0  0  0  0  0  0  0  0
   35.1500   21.3630   32.1950 C   0  0  0  0  0  0  0  0  0  0  0  0
   35.4980   20.7150   33.3850 C   0  0  0  0  0  0  0  0  0  0  0  0
   36.5980   21.1340   34.0540 N   0  0  0  0  0  0  0  0  0  0  0  0
   37.3740   22.1390   33.6350 C   0  0  0  0  0  0  0  0  0  0  0  0
   37.0690   22.7910   32.4850 N   0  0  0  0  0  0  0  0  0  0  0  0
   35.8140   23.0040   30.8550 H   0  0  0  0  0  0  0  0  0  0  0  0
   34.3080   21.1200   31.5850 H   0  0  0  0  0  0  0  0  0  0  0  0
   34.8660   19.9020   33.7200 H   0  0  0  0  0  0  0  0  0  0  0  0
  2  3  1  0  0  0  0
  3  4  1  0  0  0  0
  4  1  1  0  0  0  0
  5  4  2  0  0  0  0
  6  5  1  0  0  0  0
  7  6  1  0  0  0  0
  7 13  1  0  0  0  0
  8  7  2  0  0  0  0
  9 11  2  0  0  0  0
  9  8  1  0  0  0  0
 10  9  1  0  0  0  0
 11 12  1  0  0  0  0
 12  6  2  0  0  0  0
 12  3  1  0  0  0  0
 13 14  1  0  0  0  0
 13 15  1  0  0  0  0
 17  1  1  0  0  0  0
 17 16  2  1  0  0  0
 17 18  1  0  0  0  0
 18 19  1  0  0  0  0
 20 17  1  0  0  0  0
 21 22  2  0  0  0  0
 21 26  1  0  0  0  0
 22 23  1  0  0  0  0
 23 29  1  0  0  0  0
 23 24  2  0  0  0  0
 25 24  1  0  0  0  0
 25 20  1  0  0  0  0
 26 25  2  0  0  0  0
 27 21  1  0  0  0  0
 28 22  1  0  0  0  0
M  END
>  <minimizedAffinity>
-4.8735671

$$$$

 OpenBabel03272505443D

 29 31  0  0  0  0  0  0  0  0999 V2000
   38.2640   26.7780   33.7580 O   0  0  0  0  0  0  0  0  0  0  0  0
   36.3440   27.7720   35.4220 H   0  0  0  0  0  0  0  0  0  0  0  0
   36.3770   28.0880   34.4250 N   0  0  0  0  0  0  0  0  0  0  0  0
   37.2680   27.6770   33.5090 C   0  0  0  0  0  0  0  0  0  0  0  0
   36.9320   28.3440   32.3710 N   0  0  0  0  0  0  0  0  0  0  0  0
   35.8680   29.1320   32.6030 C   0  0  0  0  0  0  0  0  0  0  0  0
   35.1110   30.0090   31.8450 C   0  0  0  0  0  0  0  0  0  0  0  0
   34.0800   30.6520   32.4240 N   0  0  0  0  0  0  0  0  0  0  0  0
   33.7450   30.4820   33.7100 C   0  0  0  0  0  0  0  0  0  0  0  0
   32.8850   31.0640   34.0560 H   0  0  0  0  0  0  0  0  0  0  0  0
   34.4620   29.6290   34.4910 N   0  0  0  0  0  0  0  0  0  0  0  0
   35.4980   28.9790   33.9230 C   0  0  0  0  0  0  0  0  0  0  0  0
   35.4860   30.1750   30.4780 N   0  0  0  0  0  0  0  0  0  0  0  0
   36.3440   30.7660   30.4450 H   0  0  0  0  0  0  0  0  0  0  0  0
   34.9330   29.7380   29.6900 H   0  0  0  0  0  0  0  0  0  0  0  0
   40.6150   26.8670   34.8150 O   0  0  0  0  0  0  0  0  0  0  0  0
   39.1470   26.6130   35.1680 P   0  0  1  0  0  0  0  0  0  0  0  0
   38.6950   27.8190   36.2440 O   0  0  0  0  0  0  0  0  0  0  0  0
   38.0100   28.4470   35.8940 H   0  0  0  0  0  0  0  0  0  0  0  0
   39.0350   25.0640   35.8540 O   0  0  0  0  0  0  0  0  0  0  0  0
   38.2560   22.5350   33.3520 C   0  0  0  0  0  0  0  0  0  0  0  0
   37.5340   21.6050   34.1490 C   0  0  0  0  0  0  0  0  0  0  0  0
   37.3730   21.9270   35.5000 C   0  0  0  0  0  0  0  0  0  0  0  0
   37.9030   23.0850   35.9590 N   0  0  0  0  0  0  0  0  0  0  0  0
   38.5780   23.9410   35.1840 C   0  0  0  0  0  0  0  0  0  0  0  0
   38.7550   23.6630   33.8680 N   0  0  0  0  0  0  0  0  0  0  0  0
   38.4410   22.3800   32.2770 H   0  0  0  0  0  0  0  0  0  0  0  0
   37.1610   20.7220   33.6780 H   0  0  0  0  0  0  0  0  0  0  0  0
   36.8260   21.2310   36.1230 H   0  0  0  0  0  0  0  0  0  0  0  0
  1 17  1  0  0  0  0
  3  2  1  0  0  0  0
  4  1  1  0  0  0  0
  4  3  1  0  0  0  0
  5  6  1  0  0  0  0
  5  4  2  0  0  0  0
  6 12  1  0  0  0  0
  7  8  1  0  0  0  0
  7  6  2  0  0  0  0
  8  9  2  0  0  0  0
  9 10  1  0  0  0  0
  9 11  1  0  0  0  0
 12  3  1  0  0  0  0
 12 11  2  0  0  0  0
 13  7  1  0  0  0  0
 14 13  1  0  0  0  0
 15 13  1  0  0  0  0
 17 16  2  6  0  0  0
 17 20  1  0  0  0  0
 17 18  1  0  0  0  0
 19 18  1  0  0  0  0
 21 26  2  0  0  0  0
 21 22  1  0  0  0  0
 22 23  2  0  0  0  0
 23 24  1  0  0  0  0
 23 29  1  0  0  0  0
 25 20  1  0  0  0  0
 25 24  2  0  0  0  0
 26 25  1  0  0  0  0
 27 21  1  0  0  0  0
 28 22  1  0  0  0  0
M  END
>  <minimizedAffinity>
-4.85352325

$$$$

 OpenBabel03272505443D

 29 31  0  0  0  0  0  0  0  0999 V2000
   38.4930   22.1710   32.9010 O   0  0  0  0  0  0  0  0  0  0  0  0
   36.9880   23.8720   34.4130 H   0  0  0  0  0  0  0  0  0  0  0  0
   37.7780   23.3480   34.8570 N   0  0  0  0  0  0  0  0  0  0  0  0
   38.5890   22.4840   34.2250 C   0  0  0  0  0  0  0  0  0  0  0  0
   39.4520   22.0510   35.1840 N   0  0  0  0  0  0  0  0  0  0  0  0
   39.1630   22.6400   36.3570 C   0  0  0  0  0  0  0  0  0  0  0  0
   39.6840   22.5880   37.6390 C   0  0  0  0  0  0  0  0  0  0  0  0
   39.1240   23.3410   38.6040 N   0  0  0  0  0  0  0  0  0  0  0  0
   38.0770   24.1470   38.3840 C   0  0  0  0  0  0  0  0  0  0  0  0
   37.7180   24.7040   39.2550 H   0  0  0  0  0  0  0  0  0  0  0  0
   37.5330   24.2290   37.1390 N   0  0  0  0  0  0  0  0  0  0  0  0
   38.0850   23.4800   36.1630 C   0  0  0  0  0  0  0  0  0  0  0  0
   40.7990   21.7230   37.8500 N   0  0  0  0  0  0  0  0  0  0  0  0
   40.4490   20.7410   37.8700 H   0  0  0  0  0  0  0  0  0  0  0  0
   41.7830   22.0950   37.9590 H   0  0  0  0  0  0  0  0  0  0  0  0
   40.5990   23.5320   32.3000 O   0  0  0  0  0  0  0  0  0  0  0  0
   39.4990   22.6760   31.6660 P   0  0  1  0  0  0  0  0  0  0  0  0
   40.2580   21.3390   30.9930 O   0  0  0  0  0  0  0  0  0  0  0  0
   40.0260   20.4750   31.4230 H   0  0  0  0  0  0  0  0  0  0  0  0
   38.7100   23.6230   30.4980 O   0  0  0  0  0  0  0  0  0  0  0  0
   35.3090   24.7780   31.1030 C   0  0  0  0  0  0  0  0  0  0  0  0
   35.5360   26.1760   31.2300 C   0  0  0  0  0  0  0  0  0  0  0  0
   36.8570   26.6130   31.0950 C   0  0  0  0  0  0  0  0  0  0  0  0
   37.8240   25.6960   30.8560 N   0  0  0  0  0  0  0  0  0  0  0  0
   37.5790   24.3850   30.7420 C   0  0  0  0  0  0  0  0  0  0  0  0
   36.3100   23.9240   30.8670 N   0  0  0  0  0  0  0  0  0  0  0  0
   34.3080   24.3270   31.1910 H   0  0  0  0  0  0  0  0  0  0  0  0
   34.6950   26.8070   31.4190 H   0  0  0  0  0  0  0  0  0  0  0  0
   37.0500   27.6750   31.1890 H   0  0  0  0  0  0  0  0  0  0  0  0
  1  4  1  0  0  0  0
  2  3  1  0  0  0  0
  3 12  1  0  0  0  0
  4  3  1  0  0  0  0
  4  5  2  0  0  0  0
  5  6  1  0  0  0  0
  6  7  1  0  0  0  0
  7 13  1  0  0  0  0
  7  8  2  0  0  0  0
  9  8  1  0  0  0  0
  9 10  1  0  0  0  0
 11  9  2  0  0  0  0
 12  6  2  0  0  0  0
 12 11  1  0  0  0  0
 13 14  1  0  0  0  0
 13 15  1  0  0  0  0
 17 16  2  1  0  0  0
 17  1  1  0  0  0  0
 18 19  1  0  0  0  0
 18 17  1  0  0  0  0
 20 25  1  0  0  0  0
 20 17  1  0  0  0  0
 21 27  1  0  0  0  0
 21 22  1  0  0  0  0
 22 28  1  0  0  0  0
 23 29  1  0  0  0  0
 23 22  2  0  0  0  0
 24 23  1  0  0  0  0
 25 24  2  0  0  0  0
 25 26  1  0  0  0  0
 26 21  2  0  0  0  0
M  END
>  <minimizedAffinity>
-4.84740639

$$$$
