
 OpenBabel03272508083D

 29 31  0  0  0  0  0  0  0  0999 V2000
   40.0170   31.4020   46.1480 O   0  0  0  0  0  0  0  0  0  0  0  0
   41.9700   31.0710   44.2710 H   0  0  0  0  0  0  0  0  0  0  0  0
   41.0050   30.6700   44.1780 N   0  0  0  0  0  0  0  0  0  0  0  0
   39.8890   30.6910   44.9480 C   0  0  0  0  0  0  0  0  0  0  0  0
   38.9280   29.9940   44.3170 N   0  0  0  0  0  0  0  0  0  0  0  0
   39.4330   29.5340   43.1580 C   0  0  0  0  0  0  0  0  0  0  0  0
   38.8100   28.7750   42.1940 C   0  0  0  0  0  0  0  0  0  0  0  0
   39.5190   28.4280   41.1040 N   0  0  0  0  0  0  0  0  0  0  0  0
   40.8090   28.8500   41.0190 C   0  0  0  0  0  0  0  0  0  0  0  0
   41.4530   28.6120   40.1690 H   0  0  0  0  0  0  0  0  0  0  0  0
   41.4210   29.5900   41.9560 N   0  0  0  0  0  0  0  0  0  0  0  0
   40.7430   29.9530   43.0550 C   0  0  0  0  0  0  0  0  0  0  0  0
   37.4570   28.3470   42.3090 N   0  0  0  0  0  0  0  0  0  0  0  0
   36.8560   29.0010   41.7280 H   0  0  0  0  0  0  0  0  0  0  0  0
   36.9430   27.5750   42.8080 H   0  0  0  0  0  0  0  0  0  0  0  0
   39.0890   32.8080   48.0840 O   0  0  0  0  0  0  0  0  0  0  0  0
   38.6460   31.7710   47.0890 P   0  0  1  0  0  0  0  0  0  0  0  0
   37.4980   32.4240   46.0300 O   0  0  0  0  0  0  0  0  0  0  0  0
   36.6400   32.6210   46.4740 H   0  0  0  0  0  0  0  0  0  0  0  0
   38.0820   30.3470   47.7860 O   0  0  0  0  0  0  0  0  0  0  0  0
   37.3180   30.2350   51.4110 C   0  0  0  0  0  0  0  0  0  0  0  0
   38.0410   30.5610   50.2630 C   0  0  0  0  0  0  0  0  0  0  0  0
   37.5510   30.1460   49.0230 C   0  0  0  0  0  0  0  0  0  0  0  0
   36.3900   29.4420   49.0000 N   0  0  0  0  0  0  0  0  0  0  0  0
   35.7120   29.1420   50.1310 C   0  0  0  0  0  0  0  0  0  0  0  0
   36.1740   29.5360   51.3220 N   0  0  0  0  0  0  0  0  0  0  0  0
   37.8090   30.6180   52.2910 H   0  0  0  0  0  0  0  0  0  0  0  0
   38.9500   31.1060   50.2110 H   0  0  0  0  0  0  0  0  0  0  0  0
   34.7860   28.5790   50.0870 H   0  0  0  0  0  0  0  0  0  0  0  0
  1 17  1  0  0  0  0
  3  2  1  0  0  0  0
  3  4  1  0  0  0  0
  4  1  1  0  0  0  0
  5  4  2  0  0  0  0
  6  5  1  0  0  0  0
  7 13  1  0  0  0  0
  7  6  2  0  0  0  0
  8  7  1  0  0  0  0
  9  8  2  0  0  0  0
  9 11  1  0  0  0  0
 10  9  1  0  0  0  0
 11 12  2  0  0  0  0
 12  6  1  0  0  0  0
 12  3  1  0  0  0  0
 13 15  1  0  0  0  0
 14 13  1  0  0  0  0
 17 20  1  0  0  0  0
 17 16  2  1  0  0  0
 18 19  1  0  0  0  0
 18 17  1  0  0  0  0
 20 23  1  0  0  0  0
 21 27  1  0  0  0  0
 22 21  2  0  0  0  0
 23 22  1  0  0  0  0
 24 23  2  0  0  0  0
 24 25  1  0  0  0  0
 25 26  2  0  0  0  0
 26 21  1  0  0  0  0
 28 22  1  0  0  0  0
 29 25  1  0  0  0  0
M  END
>  <minimizedAffinity>
-5.74164724

>  <minimizedRMSD>
1.08041847

$$$$
