
 OpenBabel03272508093D

 29 31  0  0  0  0  0  0  0  0999 V2000
   40.0180   31.4030   46.1480 O   0  0  0  0  0  0  0  0  0  0  0  0
   41.9700   31.0710   44.2720 H   0  0  0  0  0  0  0  0  0  0  0  0
   41.0050   30.6700   44.1780 N   0  0  0  0  0  0  0  0  0  0  0  0
   39.8890   30.6920   44.9490 C   0  0  0  0  0  0  0  0  0  0  0  0
   38.9280   29.9940   44.3180 N   0  0  0  0  0  0  0  0  0  0  0  0
   39.4320   29.5340   43.1590 C   0  0  0  0  0  0  0  0  0  0  0  0
   38.8110   28.7750   42.1940 C   0  0  0  0  0  0  0  0  0  0  0  0
   39.5200   28.4280   41.1050 N   0  0  0  0  0  0  0  0  0  0  0  0
   40.8100   28.8490   41.0200 C   0  0  0  0  0  0  0  0  0  0  0  0
   41.4540   28.6120   40.1700 H   0  0  0  0  0  0  0  0  0  0  0  0
   41.4220   29.5900   41.9560 N   0  0  0  0  0  0  0  0  0  0  0  0
   40.7430   29.9520   43.0550 C   0  0  0  0  0  0  0  0  0  0  0  0
   37.4570   28.3470   42.3090 N   0  0  0  0  0  0  0  0  0  0  0  0
   36.8560   29.0020   41.7280 H   0  0  0  0  0  0  0  0  0  0  0  0
   36.9420   27.5760   42.8090 H   0  0  0  0  0  0  0  0  0  0  0  0
   39.0890   32.8080   48.0850 O   0  0  0  0  0  0  0  0  0  0  0  0
   38.6470   31.7720   47.0890 P   0  0  1  0  0  0  0  0  0  0  0  0
   37.4980   32.4240   46.0310 O   0  0  0  0  0  0  0  0  0  0  0  0
   36.6400   32.6210   46.4750 H   0  0  0  0  0  0  0  0  0  0  0  0
   38.0830   30.3470   47.7870 O   0  0  0  0  0  0  0  0  0  0  0  0
   37.3180   30.2350   51.4120 C   0  0  0  0  0  0  0  0  0  0  0  0
   38.0410   30.5620   50.2640 C   0  0  0  0  0  0  0  0  0  0  0  0
   37.5520   30.1460   49.0230 C   0  0  0  0  0  0  0  0  0  0  0  0
   36.3910   29.4430   49.0000 N   0  0  0  0  0  0  0  0  0  0  0  0
   35.7120   29.1430   50.1310 C   0  0  0  0  0  0  0  0  0  0  0  0
   36.1740   29.5360   51.3230 N   0  0  0  0  0  0  0  0  0  0  0  0
   37.8090   30.6180   52.2920 H   0  0  0  0  0  0  0  0  0  0  0  0
   38.9500   31.1060   50.2110 H   0  0  0  0  0  0  0  0  0  0  0  0
   34.7860   28.5790   50.0870 H   0  0  0  0  0  0  0  0  0  0  0  0
  1 17  1  0  0  0  0
  3  2  1  0  0  0  0
  3  4  1  0  0  0  0
  4  1  1  0  0  0  0
  5  4  2  0  0  0  0
  6  5  1  0  0  0  0
  7 13  1  0  0  0  0
  7  6  2  0  0  0  0
  8  7  1  0  0  0  0
  9  8  2  0  0  0  0
  9 11  1  0  0  0  0
 10  9  1  0  0  0  0
 11 12  2  0  0  0  0
 12  6  1  0  0  0  0
 12  3  1  0  0  0  0
 13 15  1  0  0  0  0
 14 13  1  0  0  0  0
 17 20  1  0  0  0  0
 17 16  2  1  0  0  0
 18 19  1  0  0  0  0
 18 17  1  0  0  0  0
 20 23  1  0  0  0  0
 21 27  1  0  0  0  0
 22 21  2  0  0  0  0
 23 22  1  0  0  0  0
 24 23  2  0  0  0  0
 24 25  1  0  0  0  0
 25 26  2  0  0  0  0
 26 21  1  0  0  0  0
 28 22  1  0  0  0  0
 29 25  1  0  0  0  0
M  END
>  <minimizedAffinity>
-5.74161816

>  <minimizedRMSD>
1.0856179

$$$$
