
 OpenBabel03262522153D

 50 54  0  0  1  0  0  0  0  0999 V2000
   39.0410   29.8160   42.5110 C   0  0  1  0  0  0  0  0  0  0  0  0
   38.8640   31.2990   42.2190 C   0  0  0  0  0  0  0  0  0  0  0  0
   39.9190   31.9120   43.0900 C   0  0  2  0  0  0  0  0  0  0  0  0
   40.4440   30.9320   43.8760 O   0  0  0  0  0  0  0  0  0  0  0  0
   39.5360   29.8910   43.9440 C   0  0  0  0  0  0  0  0  0  0  0  0
   39.8730   29.3860   41.9050 H   0  0  0  0  0  0  0  0  0  0  0  0
   37.8850   31.5870   42.6120 H   0  0  0  0  0  0  0  0  0  0  0  0
   39.0160   31.5070   41.1420 H   0  0  0  0  0  0  0  0  0  0  0  0
   40.7360   32.3060   42.4340 H   0  0  0  0  0  0  0  0  0  0  0  0
   40.1210   28.9830   44.2310 H   0  0  0  0  0  0  0  0  0  0  0  0
   38.6940   30.1000   44.6290 H   0  0  0  0  0  0  0  0  0  0  0  0
   39.3750   33.0730   43.8820 C   0  0  0  0  0  0  0  0  0  0  0  0
   38.3190   32.9610   44.1520 H   0  0  0  0  0  0  0  0  0  0  0  0
   39.4740   33.9900   43.2510 H   0  0  0  0  0  0  0  0  0  0  0  0
   40.4750   33.3290   45.2980 S   0  0  0  0  0  0  0  0  0  0  0  0
   37.7510   31.8090   47.7460 C   0  0  0  0  0  0  0  0  0  0  0  0
   37.9350   32.5050   48.9410 C   0  0  0  0  0  0  0  0  0  0  0  0
   38.9070   33.4750   49.0520 C   0  0  0  0  0  0  0  0  0  0  0  0
   39.6630   33.7060   47.9320 C   0  0  0  0  0  0  0  0  0  0  0  0
   39.4690   33.0170   46.7720 C   0  0  0  0  0  0  0  0  0  0  0  0
   38.5170   32.0620   46.6560 N   0  0  0  0  0  0  0  0  0  0  0  0
   37.3030   32.2750   49.7930 H   0  0  0  0  0  0  0  0  0  0  0  0
   39.0510   34.0200   49.9880 H   0  0  0  0  0  0  0  0  0  0  0  0
   40.4480   34.4530   47.9360 H   0  0  0  0  0  0  0  0  0  0  0  0
   36.7110   30.8080   47.7120 C   0  0  0  0  0  0  0  0  0  0  0  0
   36.2600   30.3830   46.6480 O   0  0  0  0  0  0  0  0  0  0  0  0
   37.0010   29.6180   49.8570 C   0  0  0  0  0  0  0  0  0  0  0  0
   36.1300   30.2370   48.9440 C   0  0  0  0  0  0  0  0  0  0  0  0
   34.7510   30.2970   49.2160 C   0  0  0  0  0  0  0  0  0  0  0  0
   34.3100   29.7360   50.3890 N   0  0  0  0  0  0  0  0  0  0  0  0
   35.1590   29.1480   51.2500 C   0  0  0  0  0  0  0  0  0  0  0  0
   36.4760   29.0920   50.9880 N   0  0  0  0  0  0  0  0  0  0  0  0
   38.0450   29.5790   49.6400 H   0  0  0  0  0  0  0  0  0  0  0  0
   34.1190   30.7770   48.4960 H   0  0  0  0  0  0  0  0  0  0  0  0
   34.6420   28.7660   52.1070 H   0  0  0  0  0  0  0  0  0  0  0  0
   37.8410   29.1420   42.4100 O   0  0  0  0  0  0  0  0  0  0  0  0
   35.9560   27.2400   43.3810 H   0  0  0  0  0  0  0  0  0  0  0  0
   36.7520   26.8850   42.8090 N   0  0  0  0  0  0  0  0  0  0  0  0
   37.6620   27.7800   42.3370 C   0  0  0  0  0  0  0  0  0  0  0  0
   38.6120   27.1120   41.6190 N   0  0  0  0  0  0  0  0  0  0  0  0
   38.2900   25.7940   41.6470 C   0  0  0  0  0  0  0  0  0  0  0  0
   38.8330   24.6290   41.1270 C   0  0  0  0  0  0  0  0  0  0  0  0
   38.2200   23.4700   41.3670 N   0  0  0  0  0  0  0  0  0  0  0  0
   37.0910   23.3520   42.0920 C   0  0  0  0  0  0  0  0  0  0  0  0
   36.6320   22.3710   42.2560 H   0  0  0  0  0  0  0  0  0  0  0  0
   36.5240   24.4760   42.6220 N   0  0  0  0  0  0  0  0  0  0  0  0
   37.1320   25.6650   42.3880 C   0  0  0  0  0  0  0  0  0  0  0  0
   40.0250   24.7770   40.3630 N   0  0  0  0  0  0  0  0  0  0  0  0
   40.2180   24.8160   39.3210 H   0  0  0  0  0  0  0  0  0  0  0  0
   40.9240   24.8680   40.8860 H   0  0  0  0  0  0  0  0  0  0  0  0
  1  6  1  6  0  0  0
  1  5  1  0  0  0  0
  2  1  1  0  0  0  0
  2  7  1  0  0  0  0
  2  3  1  0  0  0  0
  3  9  1  6  0  0  0
  3  4  1  0  0  0  0
  3 12  1  0  0  0  0
  4  5  1  0  0  0  0
  5 10  1  0  0  0  0
  5 11  1  0  0  0  0
  8  2  1  0  0  0  0
 12 13  1  0  0  0  0
 12 15  1  0  0  0  0
 14 12  1  0  0  0  0
 15 20  1  0  0  0  0
 16 17  1  0  0  0  0
 17 18  2  0  0  0  0
 17 22  1  0  0  0  0
 18 23  1  0  0  0  0
 19 24  1  0  0  0  0
 19 18  1  0  0  0  0
 20 19  2  0  0  0  0
 21 20  1  0  0  0  0
 21 16  2  0  0  0  0
 25 16  1  0  0  0  0
 25 28  1  0  0  0  0
 26 25  2  0  0  0  0
 27 32  1  0  0  0  0
 28 29  1  0  0  0  0
 28 27  2  0  0  0  0
 29 30  2  0  0  0  0
 30 31  1  0  0  0  0
 31 35  1  0  0  0  0
 32 31  2  0  0  0  0
 33 27  1  0  0  0  0
 34 29  1  0  0  0  0
 36  1  1  0  0  0  0
 38 37  1  0  0  0  0
 39 36  1  0  0  0  0
 39 38  1  0  0  0  0
 40 41  1  0  0  0  0
 40 39  2  0  0  0  0
 41 47  1  0  0  0  0
 42 43  1  0  0  0  0
 42 41  2  0  0  0  0
 43 44  2  0  0  0  0
 44 45  1  0  0  0  0
 44 46  1  0  0  0  0
 47 46  2  0  0  0  0
 47 38  1  0  0  0  0
 48 50  1  0  0  0  0
 48 42  1  0  0  0  0
 49 48  1  0  0  0  0
M  END
>  <minimizedAffinity>
-5.6340704

>  <minimizedRMSD>
1.32935929

$$$$
