
 OpenBabel03262522153D

 50 54  0  0  1  0  0  0  0  0999 V2000
   39.1010   29.7600   42.2180 C   0  0  1  0  0  0  0  0  0  0  0  0
   38.9290   31.2560   41.9990 C   0  0  0  0  0  0  0  0  0  0  0  0
   39.9810   31.8230   42.9030 C   0  0  2  0  0  0  0  0  0  0  0  0
   40.5000   30.8050   43.6430 O   0  0  0  0  0  0  0  0  0  0  0  0
   39.5900   29.7630   43.6560 C   0  0  0  0  0  0  0  0  0  0  0  0
   39.9360   29.3580   41.5960 H   0  0  0  0  0  0  0  0  0  0  0  0
   37.9490   31.5270   42.4010 H   0  0  0  0  0  0  0  0  0  0  0  0
   39.0860   31.5160   40.9340 H   0  0  0  0  0  0  0  0  0  0  0  0
   40.8020   32.2460   42.2720 H   0  0  0  0  0  0  0  0  0  0  0  0
   40.1720   28.8410   43.9000 H   0  0  0  0  0  0  0  0  0  0  0  0
   38.7450   29.9400   44.3460 H   0  0  0  0  0  0  0  0  0  0  0  0
   39.4360   32.9450   43.7490 C   0  0  0  0  0  0  0  0  0  0  0  0
   38.3820   32.8140   44.0220 H   0  0  0  0  0  0  0  0  0  0  0  0
   39.5240   33.8890   43.1580 H   0  0  0  0  0  0  0  0  0  0  0  0
   40.5450   33.1470   45.1660 S   0  0  0  0  0  0  0  0  0  0  0  0
   37.7680   31.7660   47.6380 C   0  0  0  0  0  0  0  0  0  0  0  0
   37.9530   32.5000   48.8090 C   0  0  0  0  0  0  0  0  0  0  0  0
   38.9420   33.4560   48.8960 C   0  0  0  0  0  0  0  0  0  0  0  0
   39.7130   33.6320   47.7770 C   0  0  0  0  0  0  0  0  0  0  0  0
   39.5180   32.9060   46.6400 C   0  0  0  0  0  0  0  0  0  0  0  0
   38.5490   31.9650   46.5470 N   0  0  0  0  0  0  0  0  0  0  0  0
   37.3080   32.3120   49.6610 H   0  0  0  0  0  0  0  0  0  0  0  0
   39.0870   34.0300   49.8130 H   0  0  0  0  0  0  0  0  0  0  0  0
   40.5130   34.3650   47.7630 H   0  0  0  0  0  0  0  0  0  0  0  0
   36.7100   30.7840   47.6280 C   0  0  0  0  0  0  0  0  0  0  0  0
   36.2270   30.3670   46.5740 O   0  0  0  0  0  0  0  0  0  0  0  0
   37.0340   29.6250   49.7860 C   0  0  0  0  0  0  0  0  0  0  0  0
   36.1470   30.2220   48.8730 C   0  0  0  0  0  0  0  0  0  0  0  0
   34.7710   30.2710   49.1580 C   0  0  0  0  0  0  0  0  0  0  0  0
   34.3480   29.7210   50.3430 N   0  0  0  0  0  0  0  0  0  0  0  0
   35.2120   29.1540   51.2030 C   0  0  0  0  0  0  0  0  0  0  0  0
   36.5260   29.1080   50.9280 N   0  0  0  0  0  0  0  0  0  0  0  0
   38.0760   29.5940   49.5580 H   0  0  0  0  0  0  0  0  0  0  0  0
   34.1260   30.7340   48.4380 H   0  0  0  0  0  0  0  0  0  0  0  0
   34.7070   28.7780   52.0700 H   0  0  0  0  0  0  0  0  0  0  0  0
   37.9000   29.0940   42.0790 O   0  0  0  0  0  0  0  0  0  0  0  0
   36.0350   27.4320   43.4460 H   0  0  0  0  0  0  0  0  0  0  0  0
   36.7830   26.9650   42.8870 N   0  0  0  0  0  0  0  0  0  0  0  0
   37.6820   27.7450   42.2280 C   0  0  0  0  0  0  0  0  0  0  0  0
   38.5660   26.9410   41.5650 N   0  0  0  0  0  0  0  0  0  0  0  0
   38.2120   25.6550   41.8160 C   0  0  0  0  0  0  0  0  0  0  0  0
   38.6890   24.4060   41.4510 C   0  0  0  0  0  0  0  0  0  0  0  0
   38.0630   23.3190   41.9050 N   0  0  0  0  0  0  0  0  0  0  0  0
   36.9820   23.3540   42.7070 C   0  0  0  0  0  0  0  0  0  0  0  0
   36.5100   22.4270   43.0470 H   0  0  0  0  0  0  0  0  0  0  0  0
   36.4800   24.5650   43.0890 N   0  0  0  0  0  0  0  0  0  0  0  0
   37.1020   25.6820   42.6390 C   0  0  0  0  0  0  0  0  0  0  0  0
   39.8330   24.3920   40.6030 N   0  0  0  0  0  0  0  0  0  0  0  0
   39.9570   24.2650   39.5570 H   0  0  0  0  0  0  0  0  0  0  0  0
   40.7640   24.5310   41.0480 H   0  0  0  0  0  0  0  0  0  0  0  0
  1  6  1  6  0  0  0
  1  5  1  0  0  0  0
  2  1  1  0  0  0  0
  2  7  1  0  0  0  0
  2  3  1  0  0  0  0
  3  9  1  6  0  0  0
  3  4  1  0  0  0  0
  3 12  1  0  0  0  0
  4  5  1  0  0  0  0
  5 10  1  0  0  0  0
  5 11  1  0  0  0  0
  8  2  1  0  0  0  0
 12 13  1  0  0  0  0
 12 15  1  0  0  0  0
 14 12  1  0  0  0  0
 15 20  1  0  0  0  0
 16 17  1  0  0  0  0
 17 18  2  0  0  0  0
 17 22  1  0  0  0  0
 18 23  1  0  0  0  0
 19 18  1  0  0  0  0
 20 19  2  0  0  0  0
 21 20  1  0  0  0  0
 21 16  2  0  0  0  0
 24 19  1  0  0  0  0
 25 16  1  0  0  0  0
 25 28  1  0  0  0  0
 26 25  2  0  0  0  0
 27 32  1  0  0  0  0
 28 29  1  0  0  0  0
 28 27  2  0  0  0  0
 29 30  2  0  0  0  0
 30 31  1  0  0  0  0
 31 35  1  0  0  0  0
 32 31  2  0  0  0  0
 33 27  1  0  0  0  0
 34 29  1  0  0  0  0
 36  1  1  0  0  0  0
 36 39  1  0  0  0  0
 38 37  1  0  0  0  0
 39 38  1  0  0  0  0
 40 41  1  0  0  0  0
 40 39  2  0  0  0  0
 41 47  1  0  0  0  0
 42 41  2  0  0  0  0
 42 43  1  0  0  0  0
 43 44  2  0  0  0  0
 44 45  1  0  0  0  0
 44 46  1  0  0  0  0
 47 38  1  0  0  0  0
 47 46  2  0  0  0  0
 48 50  1  0  0  0  0
 48 42  1  0  0  0  0
 49 48  1  0  0  0  0
M  END
>  <minimizedAffinity>
-5.64479637

>  <minimizedRMSD>
1.49443424

$$$$
