
 OpenBabel03272508023D

 33 36  0  0  0  0  0  0  0  0999 V2000
   38.9160   31.0330   45.9070 C   0  0  0  0  0  0  0  0  0  0  0  0
   40.0370   31.7700   46.1740 C   0  0  0  0  0  0  0  0  0  0  0  0
   40.9050   31.7560   45.0870 C   0  0  0  0  0  0  0  0  0  0  0  0
   40.2570   30.9920   44.1770 N   0  0  0  0  0  0  0  0  0  0  0  0
   39.0940   30.5680   44.6540 N   0  0  0  0  0  0  0  0  0  0  0  0
   40.2730   32.3100   47.0890 H   0  0  0  0  0  0  0  0  0  0  0  0
   41.8550   32.1900   44.8910 H   0  0  0  0  0  0  0  0  0  0  0  0
   41.5970   28.7900   43.2150 H   0  0  0  0  0  0  0  0  0  0  0  0
   41.2570   29.4670   42.4960 N   0  0  0  0  0  0  0  0  0  0  0  0
   40.5900   30.5790   42.8540 C   0  0  0  0  0  0  0  0  0  0  0  0
   40.3060   31.2150   41.6800 N   0  0  0  0  0  0  0  0  0  0  0  0
   40.7990   30.4870   40.6590 C   0  0  0  0  0  0  0  0  0  0  0  0
   40.8070   30.6450   39.2690 C   0  0  0  0  0  0  0  0  0  0  0  0
   41.4030   29.7050   38.5140 N   0  0  0  0  0  0  0  0  0  0  0  0
   42.0030   28.6030   39.0310 C   0  0  0  0  0  0  0  0  0  0  0  0
   42.4850   27.8410   38.4420 H   0  0  0  0  0  0  0  0  0  0  0  0
   42.0020   28.4360   40.3850 N   0  0  0  0  0  0  0  0  0  0  0  0
   41.4130   29.3610   41.1650 C   0  0  0  0  0  0  0  0  0  0  0  0
   37.7690   30.7950   46.7760 C   0  0  0  0  0  0  0  0  0  0  0  0
   37.9440   30.9640   48.1650 C   0  0  0  0  0  0  0  0  0  0  0  0
   36.8620   30.7410   49.0040 C   0  0  0  0  0  0  0  0  0  0  0  0
   35.6850   30.3680   48.4270 N   0  0  0  0  0  0  0  0  0  0  0  0
   35.5320   30.2110   47.0940 C   0  0  0  0  0  0  0  0  0  0  0  0
   36.5850   30.4290   46.2840 N   0  0  0  0  0  0  0  0  0  0  0  0
   38.9150   31.2610   48.5220 H   0  0  0  0  0  0  0  0  0  0  0  0
   34.5730   29.9150   46.7040 H   0  0  0  0  0  0  0  0  0  0  0  0
   37.0220   30.9110   50.4670 C   0  0  0  0  0  0  0  0  0  0  0  0
   36.5240   32.1540   50.7650 F   0  0  0  0  0  0  0  0  0  0  0  0
   36.3200   29.9720   51.2000 F   0  0  0  0  0  0  0  0  0  0  0  0
   38.3610   30.8760   50.8440 F   0  0  0  0  0  0  0  0  0  0  0  0
   40.1840   31.7940   38.7060 N   0  0  0  0  0  0  0  0  0  0  0  0
   40.0780   32.6850   39.2120 H   0  0  0  0  0  0  0  0  0  0  0  0
   39.7850   31.8290   37.7420 H   0  0  0  0  0  0  0  0  0  0  0  0
  1  2  1  0  0  0  0
  1 19  1  0  0  0  0
  2  6  1  0  0  0  0
  3  2  2  0  0  0  0
  4  5  1  0  0  0  0
  4  3  1  0  0  0  0
  5  1  2  0  0  0  0
  7  3  1  0  0  0  0
  9 10  1  0  0  0  0
  9  8  1  0  0  0  0
 10  4  1  0  0  0  0
 11 10  2  0  0  0  0
 12 18  1  0  0  0  0
 12 11  1  0  0  0  0
 13 12  2  0  0  0  0
 14 15  2  0  0  0  0
 14 13  1  0  0  0  0
 15 17  1  0  0  0  0
 16 15  1  0  0  0  0
 17 18  2  0  0  0  0
 18  9  1  0  0  0  0
 19 20  1  0  0  0  0
 20 25  1  0  0  0  0
 20 21  2  0  0  0  0
 21 27  1  0  0  0  0
 22 21  1  0  0  0  0
 23 22  2  0  0  0  0
 24 19  2  0  0  0  0
 24 23  1  0  0  0  0
 26 23  1  0  0  0  0
 27 28  1  0  0  0  0
 27 30  1  0  0  0  0
 27 29  1  0  0  0  0
 31 32  1  0  0  0  0
 31 13  1  0  0  0  0
 33 31  1  0  0  0  0
M  END
>  <minimizedAffinity>
-6.99254942

>  <minimizedRMSD>
1.41407835

$$$$
