
 OpenBabel03272501053D

 35 38  0  0  1  0  0  0  0  0999 V2000
   36.4800   30.3050   46.9560 C   0  0  2  0  0  0  0  0  0  0  0  0
   37.0120   31.2260   48.0900 C   0  0  2  0  0  0  0  0  0  0  0  0
   38.3890   31.4230   47.6080 C   0  0  0  0  0  0  0  0  0  0  0  0
   38.3130   31.5740   46.2300 O   0  0  0  0  0  0  0  0  0  0  0  0
   37.1420   31.0180   45.7820 C   0  0  0  0  0  0  0  0  0  0  0  0
   36.8520   29.2980   47.1280 H   0  0  0  0  0  0  0  0  0  0  0  0
   36.3980   32.1610   48.0060 H   0  0  0  0  0  0  0  0  0  0  0  0
   38.9660   32.2380   48.0810 H   0  0  0  0  0  0  0  0  0  0  0  0
   38.9640   30.4850   47.8020 H   0  0  0  0  0  0  0  0  0  0  0  0
   36.4780   31.8370   45.4350 H   0  0  0  0  0  0  0  0  0  0  0  0
   37.3500   30.2630   45.0010 H   0  0  0  0  0  0  0  0  0  0  0  0
   37.6600   30.0870   51.6340 C   0  0  0  0  0  0  0  0  0  0  0  0
   37.8690   30.7050   50.3730 C   0  0  0  0  0  0  0  0  0  0  0  0
   36.8510   30.6300   49.3920 C   0  0  0  0  0  0  0  0  0  0  0  0
   35.7030   29.9490   49.7280 N   0  0  0  0  0  0  0  0  0  0  0  0
   35.5380   29.3790   50.9220 C   0  0  0  0  0  0  0  0  0  0  0  0
   36.5080   29.4410   51.8820 N   0  0  0  0  0  0  0  0  0  0  0  0
   38.5040   30.2130   52.2970 H   0  0  0  0  0  0  0  0  0  0  0  0
   38.7910   31.2380   50.1350 H   0  0  0  0  0  0  0  0  0  0  0  0
   34.6100   28.8450   51.1540 H   0  0  0  0  0  0  0  0  0  0  0  0
   35.0900   30.3870   46.8780 O   0  0  0  0  0  0  0  0  0  0  0  0
   33.2320   29.9550   48.8300 H   0  0  0  0  0  0  0  0  0  0  0  0
   33.3970   29.3060   48.0060 N   0  0  0  0  0  0  0  0  0  0  0  0
   34.2350   29.3080   46.9420 C   0  0  0  0  0  0  0  0  0  0  0  0
   33.9740   28.1920   46.2200 N   0  0  0  0  0  0  0  0  0  0  0  0
   32.9780   27.4970   46.8280 C   0  0  0  0  0  0  0  0  0  0  0  0
   32.3740   26.2970   46.4590 C   0  0  0  0  0  0  0  0  0  0  0  0
   31.3810   25.8020   47.2520 N   0  0  0  0  0  0  0  0  0  0  0  0
   31.0250   26.5030   48.3680 C   0  0  0  0  0  0  0  0  0  0  0  0
   30.2230   26.0940   48.9980 H   0  0  0  0  0  0  0  0  0  0  0  0
   31.6340   27.6570   48.6850 N   0  0  0  0  0  0  0  0  0  0  0  0
   32.6200   28.2080   47.9540 C   0  0  0  0  0  0  0  0  0  0  0  0
   32.8190   25.6470   45.2780 N   0  0  0  0  0  0  0  0  0  0  0  0
   32.1900   25.5200   44.4480 H   0  0  0  0  0  0  0  0  0  0  0  0
   33.7150   25.2080   44.9790 H   0  0  0  0  0  0  0  0  0  0  0  0
  1  6  1  1  0  0  0
  1  2  1  0  0  0  0
  2  7  1  6  0  0  0
  2 14  1  0  0  0  0
  3  9  1  0  0  0  0
  3  8  1  0  0  0  0
  3  2  1  0  0  0  0
  4  3  1  0  0  0  0
  5  4  1  0  0  0  0
  5  1  1  0  0  0  0
 10  5  1  0  0  0  0
 11  5  1  0  0  0  0
 12 17  1  0  0  0  0
 12 18  1  0  0  0  0
 13 12  2  0  0  0  0
 14 15  2  0  0  0  0
 14 13  1  0  0  0  0
 15 16  1  0  0  0  0
 16 20  1  0  0  0  0
 16 17  2  0  0  0  0
 19 13  1  0  0  0  0
 21 24  1  0  0  0  0
 21  1  1  0  0  0  0
 23 22  1  0  0  0  0
 24 23  1  0  0  0  0
 25 26  1  0  0  0  0
 25 24  2  0  0  0  0
 26 32  1  0  0  0  0
 27 26  2  0  0  0  0
 27 28  1  0  0  0  0
 28 29  2  0  0  0  0
 29 31  1  0  0  0  0
 29 30  1  0  0  0  0
 32 23  1  0  0  0  0
 32 31  2  0  0  0  0
 33 27  1  0  0  0  0
 34 33  1  0  0  0  0
 35 33  1  0  0  0  0
M  END
>  <minimizedAffinity>
-5.06880665

>  <minimizedRMSD>
2.12718248

$$$$
