
 OpenBabel03272509183D

 38 41  0  0  0  0  0  0  0  0999 V2000
   38.1910   31.3590   47.8100 C   0  0  0  0  0  0  0  0  0  0  0  0
   37.0890   31.3350   48.6580 C   0  0  0  0  0  0  0  0  0  0  0  0
   37.0060   32.4300   49.5180 C   0  0  0  0  0  0  0  0  0  0  0  0
   37.9630   33.4440   49.5030 C   0  0  0  0  0  0  0  0  0  0  0  0
   39.0360   33.3750   48.6110 C   0  0  0  0  0  0  0  0  0  0  0  0
   39.1450   32.3060   47.7480 C   0  0  0  0  0  0  0  0  0  0  0  0
   36.1840   32.5020   50.2170 H   0  0  0  0  0  0  0  0  0  0  0  0
   37.8600   34.2810   50.1930 H   0  0  0  0  0  0  0  0  0  0  0  0
   39.7640   34.1660   48.6140 H   0  0  0  0  0  0  0  0  0  0  0  0
   35.0530   30.3200   47.7440 C   0  0  0  0  0  0  0  0  0  0  0  0
   36.1100   30.2960   48.6730 C   0  0  0  0  0  0  0  0  0  0  0  0
   36.1500   29.2400   49.5790 C   0  0  0  0  0  0  0  0  0  0  0  0
   35.1690   28.2950   49.5150 N   0  0  0  0  0  0  0  0  0  0  0  0
   34.1610   28.3520   48.6010 C   0  0  0  0  0  0  0  0  0  0  0  0
   34.1090   29.3630   47.7230 N   0  0  0  0  0  0  0  0  0  0  0  0
   34.9930   31.1330   47.0240 H   0  0  0  0  0  0  0  0  0  0  0  0
   33.3890   27.6000   48.5580 H   0  0  0  0  0  0  0  0  0  0  0  0
   37.2290   29.1570   50.5750 C   0  0  0  0  0  0  0  0  0  0  0  0
   36.7420   28.9400   51.5650 H   0  0  0  0  0  0  0  0  0  0  0  0
   37.8990   28.3140   50.3260 H   0  0  0  0  0  0  0  0  0  0  0  0
   37.7630   30.1220   50.6060 H   0  0  0  0  0  0  0  0  0  0  0  0
   38.3440   30.2770   46.9030 O   0  0  0  0  0  0  0  0  0  0  0  0
   39.1130   29.6500   47.1200 H   0  0  0  0  0  0  0  0  0  0  0  0
   40.2130   32.2680   46.8810 O   0  0  0  0  0  0  0  0  0  0  0  0
   40.6330   29.8580   45.4220 H   0  0  0  0  0  0  0  0  0  0  0  0
   40.3090   30.6950   44.9330 N   0  0  0  0  0  0  0  0  0  0  0  0
   40.0980   31.8540   45.5800 C   0  0  0  0  0  0  0  0  0  0  0  0
   39.6810   32.7280   44.6290 N   0  0  0  0  0  0  0  0  0  0  0  0
   39.6400   32.1130   43.4360 C   0  0  0  0  0  0  0  0  0  0  0  0
   39.3170   32.4250   42.1170 C   0  0  0  0  0  0  0  0  0  0  0  0
   39.4010   31.5050   41.1370 N   0  0  0  0  0  0  0  0  0  0  0  0
   39.8070   30.2360   41.4020 C   0  0  0  0  0  0  0  0  0  0  0  0
   39.8940   29.4580   40.6600 H   0  0  0  0  0  0  0  0  0  0  0  0
   40.1390   29.8560   42.6590 N   0  0  0  0  0  0  0  0  0  0  0  0
   40.0440   30.8010   43.6180 C   0  0  0  0  0  0  0  0  0  0  0  0
   38.8940   33.7610   41.8590 N   0  0  0  0  0  0  0  0  0  0  0  0
   39.4560   34.6450   41.8490 H   0  0  0  0  0  0  0  0  0  0  0  0
   37.8650   33.7220   41.6690 H   0  0  0  0  0  0  0  0  0  0  0  0
  1  2  1  0  0  0  0
  2 11  1  0  0  0  0
  2  3  2  0  0  0  0
  3  7  1  0  0  0  0
  4  3  1  0  0  0  0
  4  8  1  0  0  0  0
  5  9  1  0  0  0  0
  5  4  2  0  0  0  0
  6  1  2  0  0  0  0
  6  5  1  0  0  0  0
 10 11  1  0  0  0  0
 11 12  2  0  0  0  0
 12 18  1  0  0  0  0
 13 12  1  0  0  0  0
 14 13  2  0  0  0  0
 15 10  2  0  0  0  0
 15 14  1  0  0  0  0
 16 10  1  0  0  0  0
 17 14  1  0  0  0  0
 18 21  1  0  0  0  0
 18 19  1  0  0  0  0
 20 18  1  0  0  0  0
 22 23  1  0  0  0  0
 22  1  1  0  0  0  0
 24  6  1  0  0  0  0
 26 25  1  0  0  0  0
 26 27  1  0  0  0  0
 27 24  1  0  0  0  0
 28 27  2  0  0  0  0
 29 35  1  0  0  0  0
 29 28  1  0  0  0  0
 30 29  2  0  0  0  0
 31 32  2  0  0  0  0
 31 30  1  0  0  0  0
 32 34  1  0  0  0  0
 33 32  1  0  0  0  0
 34 35  2  0  0  0  0
 35 26  1  0  0  0  0
 36 30  1  0  0  0  0
 37 36  1  0  0  0  0
 38 36  1  0  0  0  0
M  END
>  <minimizedAffinity>
-6.92245722

>  <minimizedRMSD>
1.29314148

$$$$
