
 OpenBabel03272506413D

 24 26  0  0  0  0  0  0  0  0999 V2000
   34.5810   26.1410   47.1980 H   0  0  0  0  0  0  0  0  0  0  0  0
   33.9100   26.8980   47.0250 N   0  0  0  0  0  0  0  0  0  0  0  0
   33.8370   27.9020   47.9230 C   0  0  0  0  0  0  0  0  0  0  0  0
   32.9170   28.7680   47.5120 N   0  0  0  0  0  0  0  0  0  0  0  0
   32.3980   28.3180   46.3500 C   0  0  0  0  0  0  0  0  0  0  0  0
   31.4430   28.7560   45.4650 C   0  0  0  0  0  0  0  0  0  0  0  0
   31.1700   28.0330   44.3710 N   0  0  0  0  0  0  0  0  0  0  0  0
   31.7920   26.8840   44.0890 C   0  0  0  0  0  0  0  0  0  0  0  0
   31.5000   26.3760   43.1810 H   0  0  0  0  0  0  0  0  0  0  0  0
   32.7470   26.4140   44.9400 N   0  0  0  0  0  0  0  0  0  0  0  0
   33.0280   27.1320   46.0410 C   0  0  0  0  0  0  0  0  0  0  0  0
   30.7960   29.9870   45.7960 N   0  0  0  0  0  0  0  0  0  0  0  0
   30.3000   29.9070   46.7280 H   0  0  0  0  0  0  0  0  0  0  0  0
   30.6820   30.9310   45.3680 H   0  0  0  0  0  0  0  0  0  0  0  0
   34.6690   28.2960   49.4620 S   0  0  0  0  0  0  0  0  0  0  0  0
   37.9660   30.4110   50.0300 C   0  0  0  0  0  0  0  0  0  0  0  0
   38.0980   31.1760   48.8700 C   0  0  0  0  0  0  0  0  0  0  0  0
   37.1340   31.0440   47.8580 C   0  0  0  0  0  0  0  0  0  0  0  0
   36.1130   30.1650   48.0710 N   0  0  0  0  0  0  0  0  0  0  0  0
   36.0120   29.4450   49.1930 C   0  0  0  0  0  0  0  0  0  0  0  0
   36.9320   29.5580   50.1820 N   0  0  0  0  0  0  0  0  0  0  0  0
   38.7050   30.5100   50.8110 H   0  0  0  0  0  0  0  0  0  0  0  0
   38.9370   31.8770   48.7310 H   0  0  0  0  0  0  0  0  0  0  0  0
   37.1880   31.6150   46.9360 H   0  0  0  0  0  0  0  0  0  0  0  0
  2  1  1  0  0  0  0
  2  3  1  0  0  0  0
  3 15  1  0  0  0  0
  4  3  2  0  0  0  0
  5  4  1  0  0  0  0
  6 12  1  0  0  0  0
  6  5  2  0  0  0  0
  7  6  1  0  0  0  0
  8  7  2  0  0  0  0
  8 10  1  0  0  0  0
  9  8  1  0  0  0  0
 10 11  2  0  0  0  0
 11  5  1  0  0  0  0
 11  2  1  0  0  0  0
 12 13  1  0  0  0  0
 14 12  1  0  0  0  0
 16 21  1  0  0  0  0
 16 22  1  0  0  0  0
 17 16  2  0  0  0  0
 18 19  2  0  0  0  0
 18 17  1  0  0  0  0
 19 20  1  0  0  0  0
 20 15  1  0  0  0  0
 20 21  2  0  0  0  0
 23 17  1  0  0  0  0
 24 18  1  0  0  0  0
M  END
>  <minimizedAffinity>
-3.65392542

>  <minimizedRMSD>
4.53806448

$$$$
