
 OpenBabel03262521573D

 44 47  0  0  1  0  0  0  0  0999 V2000
   35.7570   27.2260   31.6870 C   0  0  1  0  0  0  0  0  0  0  0  0
   36.9670   26.7160   32.4280 C   0  0  2  0  0  0  0  0  0  0  0  0
   38.1770   27.4130   31.8800 C   0  0  0  0  0  0  0  0  0  0  0  0
   37.8680   28.2900   30.8520 O   0  0  0  0  0  0  0  0  0  0  0  0
   36.9760   29.2790   31.2560 C   0  0  0  0  0  0  0  0  0  0  0  0
   35.7250   28.7270   31.8770 C   0  0  2  0  0  0  0  0  0  0  0  0
   34.8110   26.8160   32.1020 H   0  0  0  0  0  0  0  0  0  0  0  0
   36.8200   27.0250   33.4910 H   0  0  0  0  0  0  0  0  0  0  0  0
   38.7290   27.9890   32.6510 H   0  0  0  0  0  0  0  0  0  0  0  0
   38.9150   26.6870   31.4670 H   0  0  0  0  0  0  0  0  0  0  0  0
   36.7670   29.8970   30.3440 H   0  0  0  0  0  0  0  0  0  0  0  0
   37.4940   29.9710   31.9470 H   0  0  0  0  0  0  0  0  0  0  0  0
   34.8650   29.2050   31.3580 H   0  0  0  0  0  0  0  0  0  0  0  0
   35.8820   26.9860   30.3150 O   0  0  0  0  0  0  0  0  0  0  0  0
   34.9800   26.9580   29.9280 H   0  0  0  0  0  0  0  0  0  0  0  0
   37.1340   24.9200   32.3170 S   0  0  0  0  0  0  0  0  0  0  0  0
   38.4990   24.3500   33.3520 C   0  0  0  0  0  0  0  0  0  0  0  0
   39.4030   24.2670   32.7100 H   0  0  0  0  0  0  0  0  0  0  0  0
   38.7420   25.1340   34.1240 H   0  0  0  0  0  0  0  0  0  0  0  0
   38.1880   22.8110   34.2070 S   0  0  0  0  0  0  0  0  0  0  0  0
   38.4740   23.0300   35.9500 C   0  0  0  0  0  0  0  0  0  0  0  0
   39.7020   22.5880   36.3810 C   0  0  0  0  0  0  0  0  0  0  0  0
   40.0160   22.7210   37.7530 C   0  0  0  0  0  0  0  0  0  0  0  0
   39.0720   23.2860   38.5710 N   0  0  0  0  0  0  0  0  0  0  0  0
   37.8820   23.7000   38.0760 C   0  0  0  0  0  0  0  0  0  0  0  0
   37.5910   23.5750   36.7980 N   0  0  0  0  0  0  0  0  0  0  0  0
   40.4890   22.1360   35.7950 H   0  0  0  0  0  0  0  0  0  0  0  0
   40.9640   22.3930   38.1520 H   0  0  0  0  0  0  0  0  0  0  0  0
   37.2300   24.1270   38.8270 H   0  0  0  0  0  0  0  0  0  0  0  0
   35.7420   28.9350   33.2500 O   0  0  0  0  0  0  0  0  0  0  0  0
   32.8950   28.9380   33.2110 H   0  0  0  0  0  0  0  0  0  0  0  0
   33.4190   29.4940   33.9210 N   0  0  0  0  0  0  0  0  0  0  0  0
   34.7630   29.5340   33.9920 C   0  0  0  0  0  0  0  0  0  0  0  0
   35.1400   30.3440   35.0230 N   0  0  0  0  0  0  0  0  0  0  0  0
   34.0420   30.8320   35.6230 C   0  0  0  0  0  0  0  0  0  0  0  0
   33.7820   31.6810   36.6930 C   0  0  0  0  0  0  0  0  0  0  0  0
   32.5090   31.9590   37.0260 N   0  0  0  0  0  0  0  0  0  0  0  0
   31.4670   31.4280   36.3380 C   0  0  0  0  0  0  0  0  0  0  0  0
   30.4650   31.6950   36.6610 H   0  0  0  0  0  0  0  0  0  0  0  0
   31.7180   30.6050   35.3000 N   0  0  0  0  0  0  0  0  0  0  0  0
   32.9810   30.2870   34.9170 C   0  0  0  0  0  0  0  0  0  0  0  0
   34.8580   32.2350   37.4090 N   0  0  0  0  0  0  0  0  0  0  0  0
   35.7880   32.5600   37.1200 H   0  0  0  0  0  0  0  0  0  0  0  0
   34.9220   32.4340   38.4440 H   0  0  0  0  0  0  0  0  0  0  0  0
  1  6  1  0  0  0  0
  1  7  1  1  0  0  0
  1  2  1  0  0  0  0
  2  8  1  1  0  0  0
  3  2  1  0  0  0  0
  3  9  1  0  0  0  0
  4  5  1  0  0  0  0
  4  3  1  0  0  0  0
  5  6  1  0  0  0  0
  5 12  1  0  0  0  0
  6 13  1  6  0  0  0
  6 30  1  0  0  0  0
 10  3  1  0  0  0  0
 11  5  1  0  0  0  0
 14  1  1  0  0  0  0
 15 14  1  0  0  0  0
 16  2  1  0  0  0  0
 16 17  1  0  0  0  0
 17 19  1  0  0  0  0
 17 20  1  0  0  0  0
 18 17  1  0  0  0  0
 20 21  1  0  0  0  0
 21 22  2  0  0  0  0
 21 26  1  0  0  0  0
 22 23  1  0  0  0  0
 23 28  1  0  0  0  0
 23 24  2  0  0  0  0
 25 24  1  0  0  0  0
 25 29  1  0  0  0  0
 26 25  2  0  0  0  0
 27 22  1  0  0  0  0
 30 33  1  0  0  0  0
 31 32  1  0  0  0  0
 32 33  1  0  0  0  0
 32 41  1  0  0  0  0
 33 34  2  0  0  0  0
 34 35  1  0  0  0  0
 35 36  1  0  0  0  0
 36 37  2  0  0  0  0
 36 42  1  0  0  0  0
 38 39  1  0  0  0  0
 38 37  1  0  0  0  0
 40 38  2  0  0  0  0
 41 40  1  0  0  0  0
 41 35  2  0  0  0  0
 42 44  1  0  0  0  0
 43 42  1  0  0  0  0
M  END
>  <minimizedAffinity>
-6.06074524

$$$$

 OpenBabel03262521573D

 44 47  0  0  1  0  0  0  0  0999 V2000
   35.9190   27.0660   31.6460 C   0  0  1  0  0  0  0  0  0  0  0  0
   37.2600   26.6710   32.2100 C   0  0  2  0  0  0  0  0  0  0  0  0
   38.2830   27.6450   31.7050 C   0  0  0  0  0  0  0  0  0  0  0  0
   37.7400   28.5990   30.8590 O   0  0  0  0  0  0  0  0  0  0  0  0
   36.7410   29.3430   31.4800 C   0  0  0  0  0  0  0  0  0  0  0  0
   35.6610   28.4910   32.0840 C   0  0  2  0  0  0  0  0  0  0  0  0
   35.0960   26.4370   32.0500 H   0  0  0  0  0  0  0  0  0  0  0  0
   37.1660   26.7840   33.3170 H   0  0  0  0  0  0  0  0  0  0  0  0
   38.8040   28.1850   32.5220 H   0  0  0  0  0  0  0  0  0  0  0  0
   39.0880   27.1310   31.1290 H   0  0  0  0  0  0  0  0  0  0  0  0
   36.3490   30.0460   30.7000 H   0  0  0  0  0  0  0  0  0  0  0  0
   37.2030   30.0020   32.2410 H   0  0  0  0  0  0  0  0  0  0  0  0
   34.6900   28.8840   31.7100 H   0  0  0  0  0  0  0  0  0  0  0  0
   35.9520   27.0630   30.2480 O   0  0  0  0  0  0  0  0  0  0  0  0
   35.0340   26.9350   29.9230 H   0  0  0  0  0  0  0  0  0  0  0  0
   37.7070   24.9700   31.7930 S   0  0  0  0  0  0  0  0  0  0  0  0
   38.0970   24.0370   33.2880 C   0  0  0  0  0  0  0  0  0  0  0  0
   37.1500   23.8760   33.8470 H   0  0  0  0  0  0  0  0  0  0  0  0
   38.4670   23.0100   33.0080 H   0  0  0  0  0  0  0  0  0  0  0  0
   39.3280   24.8000   34.3370 S   0  0  0  0  0  0  0  0  0  0  0  0
   39.1870   24.1530   35.9880 C   0  0  0  0  0  0  0  0  0  0  0  0
   38.1280   24.6570   36.7050 C   0  0  0  0  0  0  0  0  0  0  0  0
   37.9390   24.1990   38.0290 C   0  0  0  0  0  0  0  0  0  0  0  0
   38.8280   23.2770   38.5170 N   0  0  0  0  0  0  0  0  0  0  0  0
   39.8490   22.8240   37.7530 C   0  0  0  0  0  0  0  0  0  0  0  0
   40.0230   23.2510   36.5210 N   0  0  0  0  0  0  0  0  0  0  0  0
   37.3930   25.3810   36.3850 H   0  0  0  0  0  0  0  0  0  0  0  0
   37.1260   24.5570   38.6420 H   0  0  0  0  0  0  0  0  0  0  0  0
   40.4750   22.0990   38.2590 H   0  0  0  0  0  0  0  0  0  0  0  0
   35.7730   28.4890   33.4680 O   0  0  0  0  0  0  0  0  0  0  0  0
   37.0530   30.4030   35.1440 H   0  0  0  0  0  0  0  0  0  0  0  0
   36.0120   30.3520   35.0890 N   0  0  0  0  0  0  0  0  0  0  0  0
   35.3490   29.4710   34.3180 C   0  0  0  0  0  0  0  0  0  0  0  0
   34.0050   29.6590   34.4670 N   0  0  0  0  0  0  0  0  0  0  0  0
   33.7940   30.6600   35.3360 C   0  0  0  0  0  0  0  0  0  0  0  0
   32.6830   31.2960   35.8770 C   0  0  0  0  0  0  0  0  0  0  0  0
   32.8550   32.3020   36.7530 N   0  0  0  0  0  0  0  0  0  0  0  0
   34.0940   32.7140   37.1230 C   0  0  0  0  0  0  0  0  0  0  0  0
   34.1590   33.5310   37.8350 H   0  0  0  0  0  0  0  0  0  0  0  0
   35.1720   32.0970   36.5990 N   0  0  0  0  0  0  0  0  0  0  0  0
   35.0630   31.0770   35.7100 C   0  0  0  0  0  0  0  0  0  0  0  0
   31.3960   30.8740   35.4990 N   0  0  0  0  0  0  0  0  0  0  0  0
   31.0080   29.9490   35.2790 H   0  0  0  0  0  0  0  0  0  0  0  0
   30.5300   31.4600   35.3570 H   0  0  0  0  0  0  0  0  0  0  0  0
  1  7  1  1  0  0  0
  1  6  1  0  0  0  0
  1  2  1  0  0  0  0
  2  8  1  1  0  0  0
  3  2  1  0  0  0  0
  3  9  1  0  0  0  0
  4  5  1  0  0  0  0
  4  3  1  0  0  0  0
  5  6  1  0  0  0  0
  5 12  1  0  0  0  0
  6 13  1  6  0  0  0
  6 30  1  0  0  0  0
 10  3  1  0  0  0  0
 11  5  1  0  0  0  0
 14  1  1  0  0  0  0
 15 14  1  0  0  0  0
 16  2  1  0  0  0  0
 16 17  1  0  0  0  0
 17 18  1  0  0  0  0
 17 20  1  0  0  0  0
 19 17  1  0  0  0  0
 20 21  1  0  0  0  0
 21 26  2  0  0  0  0
 21 22  1  0  0  0  0
 22 23  2  0  0  0  0
 23 24  1  0  0  0  0
 23 28  1  0  0  0  0
 25 29  1  0  0  0  0
 25 24  2  0  0  0  0
 26 25  1  0  0  0  0
 27 22  1  0  0  0  0
 30 33  1  0  0  0  0
 32 31  1  0  0  0  0
 32 41  1  0  0  0  0
 33 34  2  0  0  0  0
 33 32  1  0  0  0  0
 34 35  1  0  0  0  0
 35 41  2  0  0  0  0
 35 36  1  0  0  0  0
 36 37  2  0  0  0  0
 37 38  1  0  0  0  0
 38 39  1  0  0  0  0
 40 38  2  0  0  0  0
 41 40  1  0  0  0  0
 42 36  1  0  0  0  0
 43 42  1  0  0  0  0
 44 42  1  0  0  0  0
M  END
>  <minimizedAffinity>
-5.70628834

$$$$

 OpenBabel03262521573D

 44 47  0  0  1  0  0  0  0  0999 V2000
   37.9230   26.7570   31.2130 C   0  0  1  0  0  0  0  0  0  0  0  0
   36.6340   27.3130   31.7630 C   0  0  2  0  0  0  0  0  0  0  0  0
   35.5290   26.3590   31.4170 C   0  0  0  0  0  0  0  0  0  0  0  0
   35.9740   25.2720   30.6810 O   0  0  0  0  0  0  0  0  0  0  0  0
   36.9450   24.5410   31.3600 C   0  0  0  0  0  0  0  0  0  0  0  0
   38.1020   25.3820   31.8190 C   0  0  2  0  0  0  0  0  0  0  0  0
   38.8010   27.3710   31.5100 H   0  0  0  0  0  0  0  0  0  0  0  0
   36.7640   27.3310   32.8720 H   0  0  0  0  0  0  0  0  0  0  0  0
   35.0060   25.9620   32.3100 H   0  0  0  0  0  0  0  0  0  0  0  0
   34.7390   26.8540   30.8050 H   0  0  0  0  0  0  0  0  0  0  0  0
   37.2590   23.7210   30.6630 H   0  0  0  0  0  0  0  0  0  0  0  0
   36.4710   24.0160   32.2120 H   0  0  0  0  0  0  0  0  0  0  0  0
   39.0300   24.8780   31.4680 H   0  0  0  0  0  0  0  0  0  0  0  0
   37.8350   26.5900   29.8280 O   0  0  0  0  0  0  0  0  0  0  0  0
   38.7470   26.6110   29.4610 H   0  0  0  0  0  0  0  0  0  0  0  0
   36.2860   28.9770   31.1490 S   0  0  0  0  0  0  0  0  0  0  0  0
   35.9310   30.0940   32.5220 C   0  0  0  0  0  0  0  0  0  0  0  0
   36.8050   30.7690   32.6470 H   0  0  0  0  0  0  0  0  0  0  0  0
   35.0630   30.7600   32.2540 H   0  0  0  0  0  0  0  0  0  0  0  0
   35.5410   29.2730   34.0620 S   0  0  0  0  0  0  0  0  0  0  0  0
   34.7900   30.4330   35.1830 C   0  0  0  0  0  0  0  0  0  0  0  0
   35.6750   31.3100   35.7650 C   0  0  0  0  0  0  0  0  0  0  0  0
   35.1660   32.2680   36.6710 C   0  0  0  0  0  0  0  0  0  0  0  0
   33.8170   32.2640   36.9130 N   0  0  0  0  0  0  0  0  0  0  0  0
   33.0050   31.3700   36.3020 C   0  0  0  0  0  0  0  0  0  0  0  0
   33.4800   30.4780   35.4590 N   0  0  0  0  0  0  0  0  0  0  0  0
   36.7440   31.3690   35.6210 H   0  0  0  0  0  0  0  0  0  0  0  0
   35.8100   32.9830   37.1600 H   0  0  0  0  0  0  0  0  0  0  0  0
   31.9630   31.4760   36.5810 H   0  0  0  0  0  0  0  0  0  0  0  0
   38.0450   25.5640   33.1950 O   0  0  0  0  0  0  0  0  0  0  0  0
   40.7890   24.8650   33.4950 H   0  0  0  0  0  0  0  0  0  0  0  0
   40.0870   24.5930   34.2170 N   0  0  0  0  0  0  0  0  0  0  0  0
   38.7780   24.8920   34.1330 C   0  0  0  0  0  0  0  0  0  0  0  0
   38.1270   24.4000   35.2270 N   0  0  0  0  0  0  0  0  0  0  0  0
   39.0130   23.7800   36.0230 C   0  0  0  0  0  0  0  0  0  0  0  0
   38.9640   23.1040   37.2370 C   0  0  0  0  0  0  0  0  0  0  0  0
   40.0930   22.5920   37.7580 N   0  0  0  0  0  0  0  0  0  0  0  0
   41.2860   22.7200   37.1240 C   0  0  0  0  0  0  0  0  0  0  0  0
   42.1570   22.2830   37.6010 H   0  0  0  0  0  0  0  0  0  0  0  0
   41.3350   23.3750   35.9460 N   0  0  0  0  0  0  0  0  0  0  0  0
   40.2290   23.9140   35.3710 C   0  0  0  0  0  0  0  0  0  0  0  0
   37.7300   22.9680   37.8990 N   0  0  0  0  0  0  0  0  0  0  0  0
   36.7720   22.8300   37.5560 H   0  0  0  0  0  0  0  0  0  0  0  0
   37.5400   22.9830   38.9370 H   0  0  0  0  0  0  0  0  0  0  0  0
  1  7  1  1  0  0  0
  1  2  1  0  0  0  0
  1  6  1  0  0  0  0
  2  8  1  1  0  0  0
  3  2  1  0  0  0  0
  3  9  1  0  0  0  0
  4  5  1  0  0  0  0
  4  3  1  0  0  0  0
  5  6  1  0  0  0  0
  5 12  1  0  0  0  0
  6 13  1  6  0  0  0
  6 30  1  0  0  0  0
 10  3  1  0  0  0  0
 11  5  1  0  0  0  0
 14  1  1  0  0  0  0
 15 14  1  0  0  0  0
 16  2  1  0  0  0  0
 16 17  1  0  0  0  0
 17 18  1  0  0  0  0
 17 20  1  0  0  0  0
 19 17  1  0  0  0  0
 20 21  1  0  0  0  0
 21 26  2  0  0  0  0
 21 22  1  0  0  0  0
 22 23  2  0  0  0  0
 23 24  1  0  0  0  0
 23 28  1  0  0  0  0
 25 29  1  0  0  0  0
 25 24  2  0  0  0  0
 26 25  1  0  0  0  0
 27 22  1  0  0  0  0
 30 33  1  0  0  0  0
 31 32  1  0  0  0  0
 32 41  1  0  0  0  0
 33 32  1  0  0  0  0
 33 34  2  0  0  0  0
 34 35  1  0  0  0  0
 35 36  1  0  0  0  0
 36 37  2  0  0  0  0
 36 42  1  0  0  0  0
 38 39  1  0  0  0  0
 38 37  1  0  0  0  0
 40 38  2  0  0  0  0
 41 40  1  0  0  0  0
 41 35  2  0  0  0  0
 42 44  1  0  0  0  0
 43 42  1  0  0  0  0
M  END
>  <minimizedAffinity>
-5.57651186

$$$$

 OpenBabel03262521573D

 44 47  0  0  1  0  0  0  0  0999 V2000
   38.0630   25.0460   31.2750 C   0  0  1  0  0  0  0  0  0  0  0  0
   37.4330   26.2970   31.8330 C   0  0  2  0  0  0  0  0  0  0  0  0
   35.9490   26.1980   31.6380 C   0  0  0  0  0  0  0  0  0  0  0  0
   35.5720   25.0320   30.9910 O   0  0  0  0  0  0  0  0  0  0  0  0
   35.9680   23.8940   31.6880 C   0  0  0  0  0  0  0  0  0  0  0  0
   37.4370   23.8760   32.0030 C   0  0  2  0  0  0  0  0  0  0  0  0
   39.1580   25.0110   31.4660 H   0  0  0  0  0  0  0  0  0  0  0  0
   37.6570   26.2840   32.9270 H   0  0  0  0  0  0  0  0  0  0  0  0
   35.3850   26.2440   32.5920 H   0  0  0  0  0  0  0  0  0  0  0  0
   35.5610   27.0420   31.0220 H   0  0  0  0  0  0  0  0  0  0  0  0
   35.6520   23.0210   31.0590 H   0  0  0  0  0  0  0  0  0  0  0  0
   35.3610   23.8060   32.6090 H   0  0  0  0  0  0  0  0  0  0  0  0
   37.8320   22.8960   31.6550 H   0  0  0  0  0  0  0  0  0  0  0  0
   37.7550   24.9030   29.9190 O   0  0  0  0  0  0  0  0  0  0  0  0
   38.4530   24.3470   29.5060 H   0  0  0  0  0  0  0  0  0  0  0  0
   38.0990   27.7980   31.0780 S   0  0  0  0  0  0  0  0  0  0  0  0
   36.7900   28.7140   30.2370 C   0  0  0  0  0  0  0  0  0  0  0  0
   37.0940   28.8470   29.1770 H   0  0  0  0  0  0  0  0  0  0  0  0
   35.8500   28.0930   30.2120 H   0  0  0  0  0  0  0  0  0  0  0  0
   36.3910   30.2890   30.9850 S   0  0  0  0  0  0  0  0  0  0  0  0
   35.1050   30.0650   32.1940 C   0  0  0  0  0  0  0  0  0  0  0  0
   35.5550   29.6680   33.4310 C   0  0  0  0  0  0  0  0  0  0  0  0
   34.6020   29.4660   34.4550 C   0  0  0  0  0  0  0  0  0  0  0  0
   33.2830   29.6800   34.1490 N   0  0  0  0  0  0  0  0  0  0  0  0
   32.9120   30.0710   32.9080 C   0  0  0  0  0  0  0  0  0  0  0  0
   33.8010   30.2590   31.9560 N   0  0  0  0  0  0  0  0  0  0  0  0
   36.5740   29.4820   33.7400 H   0  0  0  0  0  0  0  0  0  0  0  0
   34.8930   29.1540   35.4460 H   0  0  0  0  0  0  0  0  0  0  0  0
   31.8430   30.2050   32.8020 H   0  0  0  0  0  0  0  0  0  0  0  0
   37.6380   24.1190   33.3550 O   0  0  0  0  0  0  0  0  0  0  0  0
   40.1280   22.8100   32.9160 H   0  0  0  0  0  0  0  0  0  0  0  0
   39.7480   22.9240   33.8810 N   0  0  0  0  0  0  0  0  0  0  0  0
   38.5790   23.5320   34.1540 C   0  0  0  0  0  0  0  0  0  0  0  0
   38.3640   23.5200   35.5010 N   0  0  0  0  0  0  0  0  0  0  0  0
   39.3920   22.9040   36.1060 C   0  0  0  0  0  0  0  0  0  0  0  0
   39.7390   22.5900   37.4150 C   0  0  0  0  0  0  0  0  0  0  0  0
   40.8920   21.9410   37.6580 N   0  0  0  0  0  0  0  0  0  0  0  0
   41.7280   21.5830   36.6510 C   0  0  0  0  0  0  0  0  0  0  0  0
   42.6420   21.0620   36.9200 H   0  0  0  0  0  0  0  0  0  0  0  0
   41.3920   21.8870   35.3820 N   0  0  0  0  0  0  0  0  0  0  0  0
   40.2430   22.5410   35.0730 C   0  0  0  0  0  0  0  0  0  0  0  0
   38.8760   22.9570   38.4620 N   0  0  0  0  0  0  0  0  0  0  0  0
   37.8530   23.0000   38.5340 H   0  0  0  0  0  0  0  0  0  0  0  0
   39.1280   23.2810   39.4350 H   0  0  0  0  0  0  0  0  0  0  0  0
  1  7  1  1  0  0  0
  1  2  1  0  0  0  0
  1  6  1  0  0  0  0
  2  8  1  1  0  0  0
  3  2  1  0  0  0  0
  3  9  1  0  0  0  0
  4  3  1  0  0  0  0
  4  5  1  0  0  0  0
  5  6  1  0  0  0  0
  5 12  1  0  0  0  0
  6 13  1  6  0  0  0
  6 30  1  0  0  0  0
 10  3  1  0  0  0  0
 11  5  1  0  0  0  0
 14  1  1  0  0  0  0
 15 14  1  0  0  0  0
 16  2  1  0  0  0  0
 17 20  1  0  0  0  0
 17 16  1  0  0  0  0
 18 17  1  0  0  0  0
 19 17  1  0  0  0  0
 20 21  1  0  0  0  0
 21 22  1  0  0  0  0
 22 27  1  0  0  0  0
 22 23  2  0  0  0  0
 23 28  1  0  0  0  0
 24 23  1  0  0  0  0
 25 24  2  0  0  0  0
 26 21  2  0  0  0  0
 26 25  1  0  0  0  0
 29 25  1  0  0  0  0
 30 33  1  0  0  0  0
 31 32  1  0  0  0  0
 32 33  1  0  0  0  0
 32 41  1  0  0  0  0
 33 34  2  0  0  0  0
 34 35  1  0  0  0  0
 35 36  1  0  0  0  0
 36 37  2  0  0  0  0
 36 42  1  0  0  0  0
 38 39  1  0  0  0  0
 38 37  1  0  0  0  0
 40 38  2  0  0  0  0
 41 40  1  0  0  0  0
 41 35  2  0  0  0  0
 42 43  1  0  0  0  0
 42 44  1  0  0  0  0
M  END
>  <minimizedAffinity>
-5.49243212

$$$$

 OpenBabel03262521573D

 44 47  0  0  1  0  0  0  0  0999 V2000
   37.7870   25.5660   31.1470 C   0  0  1  0  0  0  0  0  0  0  0  0
   37.8170   26.1460   32.5390 C   0  0  2  0  0  0  0  0  0  0  0  0
   36.6330   27.0540   32.6910 C   0  0  0  0  0  0  0  0  0  0  0  0
   35.8700   27.1350   31.5360 O   0  0  0  0  0  0  0  0  0  0  0  0
   35.3820   25.8930   31.1420 C   0  0  0  0  0  0  0  0  0  0  0  0
   36.4590   24.8550   30.9960 C   0  0  2  0  0  0  0  0  0  0  0  0
   38.5890   24.8130   30.9930 H   0  0  0  0  0  0  0  0  0  0  0  0
   37.6990   25.2760   33.2290 H   0  0  0  0  0  0  0  0  0  0  0  0
   35.9560   26.7460   33.5130 H   0  0  0  0  0  0  0  0  0  0  0  0
   36.9460   28.0960   32.9380 H   0  0  0  0  0  0  0  0  0  0  0  0
   34.8230   26.0700   30.1870 H   0  0  0  0  0  0  0  0  0  0  0  0
   34.6070   25.5650   31.8610 H   0  0  0  0  0  0  0  0  0  0  0  0
   36.3330   24.3950   29.9910 H   0  0  0  0  0  0  0  0  0  0  0  0
   37.8230   26.5840   30.1890 O   0  0  0  0  0  0  0  0  0  0  0  0
   38.1850   26.2050   29.3580 H   0  0  0  0  0  0  0  0  0  0  0  0
   39.3630   27.0140   32.8880 S   0  0  0  0  0  0  0  0  0  0  0  0
   40.0320   26.4910   34.4820 C   0  0  0  0  0  0  0  0  0  0  0  0
   40.9060   27.1370   34.7130 H   0  0  0  0  0  0  0  0  0  0  0  0
   39.2770   26.6930   35.2930 H   0  0  0  0  0  0  0  0  0  0  0  0
   40.4830   24.7630   34.5640 S   0  0  0  0  0  0  0  0  0  0  0  0
   39.1720   23.8420   35.3400 C   0  0  0  0  0  0  0  0  0  0  0  0
   38.6040   24.4700   36.4230 C   0  0  0  0  0  0  0  0  0  0  0  0
   37.5540   23.8110   37.1020 C   0  0  0  0  0  0  0  0  0  0  0  0
   37.1660   22.5820   36.6370 N   0  0  0  0  0  0  0  0  0  0  0  0
   37.7720   22.0230   35.5630 C   0  0  0  0  0  0  0  0  0  0  0  0
   38.7490   22.6380   34.9310 N   0  0  0  0  0  0  0  0  0  0  0  0
   38.8580   25.4330   36.8420 H   0  0  0  0  0  0  0  0  0  0  0  0
   37.0680   24.2530   37.9590 H   0  0  0  0  0  0  0  0  0  0  0  0
   37.3700   21.0530   35.3000 H   0  0  0  0  0  0  0  0  0  0  0  0
   36.3930   23.9480   32.0450 O   0  0  0  0  0  0  0  0  0  0  0  0
   38.7770   22.3990   31.8820 H   0  0  0  0  0  0  0  0  0  0  0  0
   37.8410   21.9380   31.9060 N   0  0  0  0  0  0  0  0  0  0  0  0
   36.6800   22.6140   31.9830 C   0  0  0  0  0  0  0  0  0  0  0  0
   35.6400   21.7300   31.9960 N   0  0  0  0  0  0  0  0  0  0  0  0
   36.1240   20.4790   31.9280 C   0  0  0  0  0  0  0  0  0  0  0  0
   35.5850   19.1980   31.9050 C   0  0  0  0  0  0  0  0  0  0  0  0
   36.4030   18.1340   31.8290 N   0  0  0  0  0  0  0  0  0  0  0  0
   37.7510   18.2820   31.7740 C   0  0  0  0  0  0  0  0  0  0  0  0
   38.3520   17.3800   31.7140 H   0  0  0  0  0  0  0  0  0  0  0  0
   38.2760   19.5240   31.7970 N   0  0  0  0  0  0  0  0  0  0  0  0
   37.5010   20.6360   31.8730 C   0  0  0  0  0  0  0  0  0  0  0  0
   34.1880   19.0390   31.9600 N   0  0  0  0  0  0  0  0  0  0  0  0
   33.4130   19.5880   31.5710 H   0  0  0  0  0  0  0  0  0  0  0  0
   33.6350   18.2810   32.4430 H   0  0  0  0  0  0  0  0  0  0  0  0
  1  7  1  6  0  0  0
  1  2  1  0  0  0  0
  2  3  1  0  0  0  0
  2 16  1  0  0  0  0
  2  8  1  1  0  0  0
  3 10  1  0  0  0  0
  3  9  1  0  0  0  0
  4  3  1  0  0  0  0
  5  4  1  0  0  0  0
  5 12  1  0  0  0  0
  6 13  1  6  0  0  0
  6  5  1  0  0  0  0
  6  1  1  0  0  0  0
  6 30  1  0  0  0  0
 11  5  1  0  0  0  0
 14  1  1  0  0  0  0
 15 14  1  0  0  0  0
 16 17  1  0  0  0  0
 17 20  1  0  0  0  0
 17 18  1  0  0  0  0
 17 19  1  0  0  0  0
 20 21  1  0  0  0  0
 21 22  1  0  0  0  0
 22 27  1  0  0  0  0
 22 23  2  0  0  0  0
 23 28  1  0  0  0  0
 24 23  1  0  0  0  0
 25 24  2  0  0  0  0
 26 21  2  0  0  0  0
 26 25  1  0  0  0  0
 29 25  1  0  0  0  0
 31 32  1  0  0  0  0
 32 33  1  0  0  0  0
 33 34  2  0  0  0  0
 33 30  1  0  0  0  0
 35 34  1  0  0  0  0
 36 35  1  0  0  0  0
 36 42  1  0  0  0  0
 37 36  2  0  0  0  0
 38 40  2  0  0  0  0
 38 37  1  0  0  0  0
 39 38  1  0  0  0  0
 40 41  1  0  0  0  0
 41 32  1  0  0  0  0
 41 35  2  0  0  0  0
 42 44  1  0  0  0  0
 43 42  1  0  0  0  0
M  END
>  <minimizedAffinity>
-5.4387064

$$$$

 OpenBabel03262521573D

 44 47  0  0  1  0  0  0  0  0999 V2000
   35.6720   27.1890   31.5860 C   0  0  1  0  0  0  0  0  0  0  0  0
   36.7910   26.5370   32.3580 C   0  0  2  0  0  0  0  0  0  0  0  0
   38.0790   27.1900   31.9530 C   0  0  0  0  0  0  0  0  0  0  0  0
   37.9010   28.1680   30.9870 O   0  0  0  0  0  0  0  0  0  0  0  0
   37.0480   29.1810   31.4160 C   0  0  0  0  0  0  0  0  0  0  0  0
   35.7230   28.6680   31.9040 C   0  0  2  0  0  0  0  0  0  0  0  0
   34.6750   26.8130   31.9010 H   0  0  0  0  0  0  0  0  0  0  0  0
   36.5890   26.7670   33.4310 H   0  0  0  0  0  0  0  0  0  0  0  0
   38.6100   27.6610   32.8050 H   0  0  0  0  0  0  0  0  0  0  0  0
   38.7970   26.4510   31.5270 H   0  0  0  0  0  0  0  0  0  0  0  0
   36.9440   29.8850   30.5500 H   0  0  0  0  0  0  0  0  0  0  0  0
   37.5590   29.7750   32.1970 H   0  0  0  0  0  0  0  0  0  0  0  0
   34.9350   29.2460   31.3720 H   0  0  0  0  0  0  0  0  0  0  0  0
   35.8800   27.0540   30.2100 O   0  0  0  0  0  0  0  0  0  0  0  0
   35.0070   27.1210   29.7630 H   0  0  0  0  0  0  0  0  0  0  0  0
   36.8500   24.7480   32.1030 S   0  0  0  0  0  0  0  0  0  0  0  0
   38.3160   24.0480   32.8920 C   0  0  0  0  0  0  0  0  0  0  0  0
   39.0680   23.8490   32.0990 H   0  0  0  0  0  0  0  0  0  0  0  0
   38.7810   24.8160   33.5730 H   0  0  0  0  0  0  0  0  0  0  0  0
   38.0050   22.5730   33.8540 S   0  0  0  0  0  0  0  0  0  0  0  0
   37.0030   21.4460   32.9090 C   0  0  0  0  0  0  0  0  0  0  0  0
   37.5600   21.0620   31.7120 C   0  0  0  0  0  0  0  0  0  0  0  0
   36.8340   20.1670   30.8940 C   0  0  0  0  0  0  0  0  0  0  0  0
   35.6140   19.7360   31.3480 N   0  0  0  0  0  0  0  0  0  0  0  0
   35.1270   20.1560   32.5390 C   0  0  0  0  0  0  0  0  0  0  0  0
   35.8050   20.9890   33.2990 N   0  0  0  0  0  0  0  0  0  0  0  0
   38.5110   21.3610   31.2950 H   0  0  0  0  0  0  0  0  0  0  0  0
   37.2170   19.8290   29.9440 H   0  0  0  0  0  0  0  0  0  0  0  0
   34.1560   19.7400   32.7770 H   0  0  0  0  0  0  0  0  0  0  0  0
   35.6550   28.7610   33.2870 O   0  0  0  0  0  0  0  0  0  0  0  0
   32.8120   28.9130   33.2450 H   0  0  0  0  0  0  0  0  0  0  0  0
   33.3660   29.4610   33.9390 N   0  0  0  0  0  0  0  0  0  0  0  0
   34.7090   29.4320   34.0100 C   0  0  0  0  0  0  0  0  0  0  0  0
   35.1290   30.2510   35.0180 N   0  0  0  0  0  0  0  0  0  0  0  0
   34.0590   30.8130   35.6020 C   0  0  0  0  0  0  0  0  0  0  0  0
   33.8440   31.7060   36.6460 C   0  0  0  0  0  0  0  0  0  0  0  0
   32.5880   32.0600   36.9690 N   0  0  0  0  0  0  0  0  0  0  0  0
   31.5180   31.5650   36.2950 C   0  0  0  0  0  0  0  0  0  0  0  0
   30.5320   31.8940   36.6090 H   0  0  0  0  0  0  0  0  0  0  0  0
   31.7250   30.7000   35.2820 N   0  0  0  0  0  0  0  0  0  0  0  0
   32.9700   30.3040   34.9110 C   0  0  0  0  0  0  0  0  0  0  0  0
   34.9480   32.2230   37.3470 N   0  0  0  0  0  0  0  0  0  0  0  0
   35.8940   32.4900   37.0490 H   0  0  0  0  0  0  0  0  0  0  0  0
   35.0230   32.4480   38.3750 H   0  0  0  0  0  0  0  0  0  0  0  0
  1  7  1  1  0  0  0
  1  6  1  0  0  0  0
  1  2  1  0  0  0  0
  2  8  1  1  0  0  0
  3  2  1  0  0  0  0
  3  9  1  0  0  0  0
  4  5  1  0  0  0  0
  4  3  1  0  0  0  0
  5  6  1  0  0  0  0
  5 12  1  0  0  0  0
  6 13  1  6  0  0  0
  6 30  1  0  0  0  0
 10  3  1  0  0  0  0
 11  5  1  0  0  0  0
 14  1  1  0  0  0  0
 15 14  1  0  0  0  0
 16  2  1  0  0  0  0
 16 17  1  0  0  0  0
 17 19  1  0  0  0  0
 17 20  1  0  0  0  0
 18 17  1  0  0  0  0
 21 26  1  0  0  0  0
 21 20  1  0  0  0  0
 22 21  2  0  0  0  0
 23 24  2  0  0  0  0
 23 22  1  0  0  0  0
 24 25  1  0  0  0  0
 25 29  1  0  0  0  0
 25 26  2  0  0  0  0
 27 22  1  0  0  0  0
 28 23  1  0  0  0  0
 30 33  1  0  0  0  0
 31 32  1  0  0  0  0
 32 33  1  0  0  0  0
 32 41  1  0  0  0  0
 33 34  2  0  0  0  0
 34 35  1  0  0  0  0
 35 36  1  0  0  0  0
 36 37  2  0  0  0  0
 36 42  1  0  0  0  0
 38 39  1  0  0  0  0
 38 37  1  0  0  0  0
 40 38  2  0  0  0  0
 41 40  1  0  0  0  0
 41 35  2  0  0  0  0
 42 44  1  0  0  0  0
 43 42  1  0  0  0  0
M  END
>  <minimizedAffinity>
-5.39469385

$$$$

 OpenBabel03262521573D

 44 47  0  0  1  0  0  0  0  0999 V2000
   37.9910   27.6360   32.0470 C   0  0  1  0  0  0  0  0  0  0  0  0
   36.5010   27.8390   31.9450 C   0  0  2  0  0  0  0  0  0  0  0  0
   35.9440   26.7690   31.0540 C   0  0  0  0  0  0  0  0  0  0  0  0
   36.9250   25.9240   30.5570 O   0  0  0  0  0  0  0  0  0  0  0  0
   37.6300   25.2840   31.5720 C   0  0  0  0  0  0  0  0  0  0  0  0
   38.2080   26.2360   32.5800 C   0  0  2  0  0  0  0  0  0  0  0  0
   38.4600   28.3430   32.7660 H   0  0  0  0  0  0  0  0  0  0  0  0
   36.1060   27.6920   32.9790 H   0  0  0  0  0  0  0  0  0  0  0  0
   35.1890   26.1350   31.5610 H   0  0  0  0  0  0  0  0  0  0  0  0
   35.4230   27.2040   30.1700 H   0  0  0  0  0  0  0  0  0  0  0  0
   38.4140   24.6670   31.0620 H   0  0  0  0  0  0  0  0  0  0  0  0
   36.9660   24.5420   32.0580 H   0  0  0  0  0  0  0  0  0  0  0  0
   39.2860   25.9810   32.6870 H   0  0  0  0  0  0  0  0  0  0  0  0
   38.5840   27.6930   30.7830 O   0  0  0  0  0  0  0  0  0  0  0  0
   39.5270   27.9460   30.9000 H   0  0  0  0  0  0  0  0  0  0  0  0
   36.0730   29.4880   31.3420 S   0  0  0  0  0  0  0  0  0  0  0  0
   35.4310   30.5040   32.6900 C   0  0  0  0  0  0  0  0  0  0  0  0
   36.0180   31.4470   32.7150 H   0  0  0  0  0  0  0  0  0  0  0  0
   34.3700   30.8080   32.4620 H   0  0  0  0  0  0  0  0  0  0  0  0
   35.4460   29.7060   34.2900 S   0  0  0  0  0  0  0  0  0  0  0  0
   34.6020   30.7310   35.4740 C   0  0  0  0  0  0  0  0  0  0  0  0
   35.4050   31.6580   36.0940 C   0  0  0  0  0  0  0  0  0  0  0  0
   34.8190   32.5160   37.0520 C   0  0  0  0  0  0  0  0  0  0  0  0
   33.4800   32.3700   37.3040 N   0  0  0  0  0  0  0  0  0  0  0  0
   32.7490   31.4350   36.6540 C   0  0  0  0  0  0  0  0  0  0  0  0
   33.2960   30.6370   35.7620 N   0  0  0  0  0  0  0  0  0  0  0  0
   36.4620   31.8270   35.9460 H   0  0  0  0  0  0  0  0  0  0  0  0
   35.3980   33.2640   37.5730 H   0  0  0  0  0  0  0  0  0  0  0  0
   31.7060   31.4260   36.9450 H   0  0  0  0  0  0  0  0  0  0  0  0
   37.4920   26.1670   33.7680 O   0  0  0  0  0  0  0  0  0  0  0  0
   36.6600   26.1810   36.4910 H   0  0  0  0  0  0  0  0  0  0  0  0
   37.4180   25.5410   36.1680 N   0  0  0  0  0  0  0  0  0  0  0  0
   37.8560   25.4870   34.8960 C   0  0  0  0  0  0  0  0  0  0  0  0
   38.8480   24.5560   34.7960 N   0  0  0  0  0  0  0  0  0  0  0  0
   39.0570   24.0040   36.0020 C   0  0  0  0  0  0  0  0  0  0  0  0
   39.9040   23.0320   36.5230 C   0  0  0  0  0  0  0  0  0  0  0  0
   39.8330   22.7220   37.8290 N   0  0  0  0  0  0  0  0  0  0  0  0
   38.9490   23.3370   38.6560 C   0  0  0  0  0  0  0  0  0  0  0  0
   38.9460   23.0370   39.6990 H   0  0  0  0  0  0  0  0  0  0  0  0
   38.1280   24.2790   38.1510 N   0  0  0  0  0  0  0  0  0  0  0  0
   38.1520   24.6350   36.8410 C   0  0  0  0  0  0  0  0  0  0  0  0
   40.8220   22.3920   35.6720 N   0  0  0  0  0  0  0  0  0  0  0  0
   41.3710   22.7240   34.8700 H   0  0  0  0  0  0  0  0  0  0  0  0
   41.1420   21.3860   35.6930 H   0  0  0  0  0  0  0  0  0  0  0  0
  1  6  1  0  0  0  0
  1  7  1  1  0  0  0
  2  1  1  0  0  0  0
  2  8  1  1  0  0  0
  3  9  1  0  0  0  0
  3  2  1  0  0  0  0
  4  3  1  0  0  0  0
  4  5  1  0  0  0  0
  5 12  1  0  0  0  0
  5  6  1  0  0  0  0
  6 13  1  1  0  0  0
  6 30  1  0  0  0  0
 10  3  1  0  0  0  0
 11  5  1  0  0  0  0
 14 15  1  0  0  0  0
 14  1  1  0  0  0  0
 16  2  1  0  0  0  0
 16 17  1  0  0  0  0
 17 18  1  0  0  0  0
 17 20  1  0  0  0  0
 19 17  1  0  0  0  0
 20 21  1  0  0  0  0
 21 26  2  0  0  0  0
 21 22  1  0  0  0  0
 22 23  2  0  0  0  0
 23 24  1  0  0  0  0
 23 28  1  0  0  0  0
 25 29  1  0  0  0  0
 25 24  2  0  0  0  0
 26 25  1  0  0  0  0
 27 22  1  0  0  0  0
 30 33  1  0  0  0  0
 32 31  1  0  0  0  0
 32 41  1  0  0  0  0
 33 32  1  0  0  0  0
 34 33  2  0  0  0  0
 34 35  1  0  0  0  0
 35 36  2  0  0  0  0
 35 41  1  0  0  0  0
 36 37  1  0  0  0  0
 37 38  2  0  0  0  0
 38 39  1  0  0  0  0
 40 38  1  0  0  0  0
 41 40  2  0  0  0  0
 42 44  1  0  0  0  0
 42 36  1  0  0  0  0
 43 42  1  0  0  0  0
M  END
>  <minimizedAffinity>
-5.37913227

$$$$

 OpenBabel03262521573D

 44 47  0  0  1  0  0  0  0  0999 V2000
   39.5910   24.3620   34.6700 C   0  0  1  0  0  0  0  0  0  0  0  0
   38.8340   23.0900   34.3860 C   0  0  2  0  0  0  0  0  0  0  0  0
   38.3130   22.5560   35.6870 C   0  0  0  0  0  0  0  0  0  0  0  0
   38.6820   23.3380   36.7710 O   0  0  0  0  0  0  0  0  0  0  0  0
   38.2220   24.6470   36.6540 C   0  0  0  0  0  0  0  0  0  0  0  0
   38.6270   25.3010   35.3630 C   0  0  2  0  0  0  0  0  0  0  0  0
   39.9310   24.8620   33.7370 H   0  0  0  0  0  0  0  0  0  0  0  0
   37.9700   23.3910   33.7450 H   0  0  0  0  0  0  0  0  0  0  0  0
   37.2080   22.4660   35.7060 H   0  0  0  0  0  0  0  0  0  0  0  0
   38.6980   21.5300   35.8910 H   0  0  0  0  0  0  0  0  0  0  0  0
   38.6110   25.1920   37.5530 H   0  0  0  0  0  0  0  0  0  0  0  0
   37.1220   24.6540   36.7780 H   0  0  0  0  0  0  0  0  0  0  0  0
   39.0940   26.2760   35.6260 H   0  0  0  0  0  0  0  0  0  0  0  0
   40.6430   24.1210   35.5570 O   0  0  0  0  0  0  0  0  0  0  0  0
   41.3200   24.8220   35.4240 H   0  0  0  0  0  0  0  0  0  0  0  0
   39.8480   21.8640   33.5280 S   0  0  0  0  0  0  0  0  0  0  0  0
   39.9100   22.2240   31.7600 C   0  0  0  0  0  0  0  0  0  0  0  0
   39.5700   23.2710   31.6130 H   0  0  0  0  0  0  0  0  0  0  0  0
   40.9800   22.1960   31.4060 H   0  0  0  0  0  0  0  0  0  0  0  0
   38.9620   21.1010   30.7420 S   0  0  0  0  0  0  0  0  0  0  0  0
   37.3200   20.9360   31.4090 C   0  0  0  0  0  0  0  0  0  0  0  0
   36.9250   19.6370   31.6240 C   0  0  0  0  0  0  0  0  0  0  0  0
   35.6340   19.4090   32.1520 C   0  0  0  0  0  0  0  0  0  0  0  0
   34.8530   20.5040   32.4180 N   0  0  0  0  0  0  0  0  0  0  0  0
   35.3080   21.7560   32.1810 C   0  0  0  0  0  0  0  0  0  0  0  0
   36.5100   21.9660   31.6900 N   0  0  0  0  0  0  0  0  0  0  0  0
   37.4860   18.7320   31.4380 H   0  0  0  0  0  0  0  0  0  0  0  0
   35.2670   18.4130   32.3430 H   0  0  0  0  0  0  0  0  0  0  0  0
   34.5920   22.5280   32.4360 H   0  0  0  0  0  0  0  0  0  0  0  0
   37.5300   25.4100   34.5190 O   0  0  0  0  0  0  0  0  0  0  0  0
   36.5600   27.9180   35.4550 H   0  0  0  0  0  0  0  0  0  0  0  0
   36.6220   27.7180   34.4330 N   0  0  0  0  0  0  0  0  0  0  0  0
   37.0710   26.5540   33.9290 C   0  0  0  0  0  0  0  0  0  0  0  0
   37.0300   26.6040   32.5650 N   0  0  0  0  0  0  0  0  0  0  0  0
   36.5550   27.7990   32.1830 C   0  0  0  0  0  0  0  0  0  0  0  0
   36.2890   28.4280   30.9720 C   0  0  0  0  0  0  0  0  0  0  0  0
   35.7970   29.6800   30.9670 N   0  0  0  0  0  0  0  0  0  0  0  0
   35.5530   30.3470   32.1240 C   0  0  0  0  0  0  0  0  0  0  0  0
   35.1560   31.3550   32.0460 H   0  0  0  0  0  0  0  0  0  0  0  0
   35.8100   29.7380   33.2980 N   0  0  0  0  0  0  0  0  0  0  0  0
   36.3070   28.4770   33.3670 C   0  0  0  0  0  0  0  0  0  0  0  0
   36.5390   27.7410   29.7700 N   0  0  0  0  0  0  0  0  0  0  0  0
   36.4470   26.7530   29.5050 H   0  0  0  0  0  0  0  0  0  0  0  0
   36.8930   28.1300   28.8550 H   0  0  0  0  0  0  0  0  0  0  0  0
  1  7  1  6  0  0  0
  1  6  1  0  0  0  0
  1 14  1  0  0  0  0
  2  8  1  6  0  0  0
  2  1  1  0  0  0  0
  2  3  1  0  0  0  0
  3  9  1  0  0  0  0
  3 10  1  0  0  0  0
  3  4  1  0  0  0  0
  5  4  1  0  0  0  0
  5 12  1  0  0  0  0
  5 11  1  0  0  0  0
  6 13  1  1  0  0  0
  6  5  1  0  0  0  0
 15 14  1  0  0  0  0
 16  2  1  0  0  0  0
 17 16  1  0  0  0  0
 18 17  1  0  0  0  0
 19 17  1  0  0  0  0
 20 21  1  0  0  0  0
 20 17  1  0  0  0  0
 21 22  2  0  0  0  0
 21 26  1  0  0  0  0
 22 23  1  0  0  0  0
 23 28  1  0  0  0  0
 23 24  2  0  0  0  0
 25 24  1  0  0  0  0
 25 29  1  0  0  0  0
 26 25  2  0  0  0  0
 27 22  1  0  0  0  0
 30  6  1  0  0  0  0
 32 31  1  0  0  0  0
 33 32  1  0  0  0  0
 33 30  1  0  0  0  0
 34 33  2  0  0  0  0
 35 34  1  0  0  0  0
 35 41  1  0  0  0  0
 36 35  2  0  0  0  0
 37 36  1  0  0  0  0
 37 38  2  0  0  0  0
 38 40  1  0  0  0  0
 39 38  1  0  0  0  0
 40 41  2  0  0  0  0
 41 32  1  0  0  0  0
 42 36  1  0  0  0  0
 43 42  1  0  0  0  0
 44 42  1  0  0  0  0
M  END
>  <minimizedAffinity>
-5.20035076

$$$$

 OpenBabel03262521573D

 44 47  0  0  1  0  0  0  0  0999 V2000
   39.3390   25.3590   32.6330 C   0  0  1  0  0  0  0  0  0  0  0  0
   38.4300   26.3800   33.2680 C   0  0  2  0  0  0  0  0  0  0  0  0
   38.1820   27.4690   32.2680 C   0  0  0  0  0  0  0  0  0  0  0  0
   38.8580   27.2640   31.0750 O   0  0  0  0  0  0  0  0  0  0  0  0
   38.4990   26.0640   30.4680 C   0  0  0  0  0  0  0  0  0  0  0  0
   38.6480   24.8760   31.3760 C   0  0  2  0  0  0  0  0  0  0  0  0
   39.4950   24.4750   33.2890 H   0  0  0  0  0  0  0  0  0  0  0  0
   37.4700   25.8440   33.4680 H   0  0  0  0  0  0  0  0  0  0  0  0
   37.1070   27.5920   32.0210 H   0  0  0  0  0  0  0  0  0  0  0  0
   38.5130   28.4620   32.6530 H   0  0  0  0  0  0  0  0  0  0  0  0
   39.1310   25.9830   29.5460 H   0  0  0  0  0  0  0  0  0  0  0  0
   37.4630   26.1490   30.0880 H   0  0  0  0  0  0  0  0  0  0  0  0
   39.2460   24.1180   30.8240 H   0  0  0  0  0  0  0  0  0  0  0  0
   40.5450   25.9490   32.2410 O   0  0  0  0  0  0  0  0  0  0  0  0
   41.2290   25.2450   32.2040 H   0  0  0  0  0  0  0  0  0  0  0  0
   39.1080   27.0400   34.8080 S   0  0  0  0  0  0  0  0  0  0  0  0
   38.3210   26.2530   36.2300 C   0  0  0  0  0  0  0  0  0  0  0  0
   38.9370   26.4760   37.1280 H   0  0  0  0  0  0  0  0  0  0  0  0
   37.3180   26.7310   36.4190 H   0  0  0  0  0  0  0  0  0  0  0  0
   38.0690   24.4920   36.0560 S   0  0  0  0  0  0  0  0  0  0  0  0
   39.6210   23.6450   36.2610 C   0  0  0  0  0  0  0  0  0  0  0  0
   39.6450   22.7520   37.3050 C   0  0  0  0  0  0  0  0  0  0  0  0
   40.8390   22.0340   37.5430 C   0  0  0  0  0  0  0  0  0  0  0  0
   41.9030   22.2730   36.7130 N   0  0  0  0  0  0  0  0  0  0  0  0
   41.8070   23.1690   35.7020 C   0  0  0  0  0  0  0  0  0  0  0  0
   40.6950   23.8360   35.4820 N   0  0  0  0  0  0  0  0  0  0  0  0
   38.8480   22.5150   37.9960 H   0  0  0  0  0  0  0  0  0  0  0  0
   40.9200   21.3190   38.3480 H   0  0  0  0  0  0  0  0  0  0  0  0
   42.7180   23.2610   35.1230 H   0  0  0  0  0  0  0  0  0  0  0  0
   37.3990   24.4250   31.7800 O   0  0  0  0  0  0  0  0  0  0  0  0
   37.1120   22.3520   29.8480 H   0  0  0  0  0  0  0  0  0  0  0  0
   36.8630   22.1880   30.8480 N   0  0  0  0  0  0  0  0  0  0  0  0
   36.9750   23.1260   31.8070 C   0  0  0  0  0  0  0  0  0  0  0  0
   36.5730   22.6040   33.0020 N   0  0  0  0  0  0  0  0  0  0  0  0
   36.1980   21.3270   32.8210 C   0  0  0  0  0  0  0  0  0  0  0  0
   35.7110   20.3050   33.6270 C   0  0  0  0  0  0  0  0  0  0  0  0
   35.4320   19.1070   33.0840 N   0  0  0  0  0  0  0  0  0  0  0  0
   35.6160   18.8700   31.7600 C   0  0  0  0  0  0  0  0  0  0  0  0
   35.3710   17.8800   31.3880 H   0  0  0  0  0  0  0  0  0  0  0  0
   36.0880   19.8610   30.9770 N   0  0  0  0  0  0  0  0  0  0  0  0
   36.3880   21.0920   31.4680 C   0  0  0  0  0  0  0  0  0  0  0  0
   35.5170   20.5440   34.9990 N   0  0  0  0  0  0  0  0  0  0  0  0
   35.2070   21.3720   35.5210 H   0  0  0  0  0  0  0  0  0  0  0  0
   35.6630   19.8790   35.8060 H   0  0  0  0  0  0  0  0  0  0  0  0
  1  2  1  0  0  0  0
  1  7  1  1  0  0  0
  2  8  1  1  0  0  0
  2 16  1  0  0  0  0
  3 10  1  0  0  0  0
  3  2  1  0  0  0  0
  4  3  1  0  0  0  0
  5  4  1  0  0  0  0
  5  6  1  0  0  0  0
  6 13  1  6  0  0  0
  6 30  1  0  0  0  0
  6  1  1  0  0  0  0
  9  3  1  0  0  0  0
 11  5  1  0  0  0  0
 12  5  1  0  0  0  0
 14  1  1  0  0  0  0
 15 14  1  0  0  0  0
 16 17  1  0  0  0  0
 17 19  1  0  0  0  0
 17 18  1  0  0  0  0
 20 17  1  0  0  0  0
 20 21  1  0  0  0  0
 21 22  1  0  0  0  0
 22 23  2  0  0  0  0
 22 27  1  0  0  0  0
 23 28  1  0  0  0  0
 24 23  1  0  0  0  0
 25 24  2  0  0  0  0
 26 25  1  0  0  0  0
 26 21  2  0  0  0  0
 29 25  1  0  0  0  0
 30 33  1  0  0  0  0
 31 32  1  0  0  0  0
 32 41  1  0  0  0  0
 32 33  1  0  0  0  0
 33 34  2  0  0  0  0
 35 34  1  0  0  0  0
 35 36  1  0  0  0  0
 36 42  1  0  0  0  0
 37 36  2  0  0  0  0
 38 37  1  0  0  0  0
 39 38  1  0  0  0  0
 40 41  1  0  0  0  0
 40 38  2  0  0  0  0
 41 35  2  0  0  0  0
 42 43  1  0  0  0  0
 42 44  1  0  0  0  0
M  END
>  <minimizedAffinity>
-5.15517902

$$$$
