
 OpenBabel03272509433D

 43 46  0  0  1  0  0  0  0  0999 V2000
   37.1790   30.9500   49.0160 C   0  0  0  0  0  0  0  0  0  0  0  0
   36.9710   31.9210   49.9990 C   0  0  0  0  0  0  0  0  0  0  0  0
   37.5930   33.1600   49.9460 C   0  0  0  0  0  0  0  0  0  0  0  0
   38.4520   33.4500   48.8830 C   0  0  0  0  0  0  0  0  0  0  0  0
   38.6460   32.4930   47.9310 C   0  0  0  0  0  0  0  0  0  0  0  0
   38.0080   31.2640   48.0150 C   0  0  0  0  0  0  0  0  0  0  0  0
   36.2930   31.6640   50.8160 H   0  0  0  0  0  0  0  0  0  0  0  0
   37.3510   33.8190   50.7610 H   0  0  0  0  0  0  0  0  0  0  0  0
   38.8940   34.4350   48.9170 H   0  0  0  0  0  0  0  0  0  0  0  0
   39.3400   32.8640   47.1720 H   0  0  0  0  0  0  0  0  0  0  0  0
   36.5580   29.6460   49.0860 C   0  0  2  0  0  0  0  0  0  0  0  0
   37.0520   29.0250   48.2430 H   0  0  0  0  0  0  0  0  0  0  0  0
   33.6510   30.0270   46.9400 C   0  0  0  0  0  0  0  0  0  0  0  0
   32.9450   28.8530   47.1190 C   0  0  0  0  0  0  0  0  0  0  0  0
   33.4290   27.9360   48.0330 C   0  0  0  0  0  0  0  0  0  0  0  0
   34.5860   28.2190   48.7270 N   0  0  0  0  0  0  0  0  0  0  0  0
   35.2150   29.3560   48.5090 C   0  0  0  0  0  0  0  0  0  0  0  0
   34.7550   30.2670   47.6190 N   0  0  0  0  0  0  0  0  0  0  0  0
   33.2760   30.7490   46.2240 H   0  0  0  0  0  0  0  0  0  0  0  0
   32.0340   28.5910   46.5950 H   0  0  0  0  0  0  0  0  0  0  0  0
   32.9420   26.9960   48.2370 H   0  0  0  0  0  0  0  0  0  0  0  0
   36.9950   28.9440   50.0720 O   0  0  0  0  0  0  0  0  0  0  0  0
   36.8250   29.2270   51.0130 H   0  0  0  0  0  0  0  0  0  0  0  0
   38.3270   30.3350   46.9560 C   0  0  0  0  0  3  0  0  0  0  0  0
   38.7210   30.7040   45.7330 C   0  0  0  0  0  3  0  0  0  0  0  0
   39.1130   29.8440   44.5920 C   0  0  0  0  0  0  0  0  0  0  0  0
   38.1970   29.6560   43.9940 H   0  0  0  0  0  0  0  0  0  0  0  0
   39.4780   28.8520   44.9290 H   0  0  0  0  0  0  0  0  0  0  0  0
   40.3150   30.7010   43.5690 S   0  0  0  0  0  0  0  0  0  0  0  0
   42.0120   31.0320   40.9640 H   0  0  0  0  0  0  0  0  0  0  0  0
   41.5300   30.1140   41.0680 N   0  0  0  0  0  0  0  0  0  0  0  0
   40.7580   29.7930   42.1220 C   0  0  0  0  0  0  0  0  0  0  0  0
   40.2710   28.5470   41.9820 N   0  0  0  0  0  0  0  0  0  0  0  0
   40.7270   28.0260   40.8120 C   0  0  0  0  0  0  0  0  0  0  0  0
   40.5550   26.8160   40.1680 C   0  0  0  0  0  0  0  0  0  0  0  0
   41.1740   26.6130   38.9690 N   0  0  0  0  0  0  0  0  0  0  0  0
   41.9410   27.6060   38.4420 C   0  0  0  0  0  0  0  0  0  0  0  0
   42.4150   27.3980   37.4840 H   0  0  0  0  0  0  0  0  0  0  0  0
   42.1030   28.7970   39.0880 N   0  0  0  0  0  0  0  0  0  0  0  0
   41.5040   29.0280   40.2750 C   0  0  0  0  0  0  0  0  0  0  0  0
   39.7310   25.8400   40.8040 N   0  0  0  0  0  0  0  0  0  0  0  0
   39.7510   25.6260   41.8190 H   0  0  0  0  0  0  0  0  0  0  0  0
   39.0970   25.3600   40.1250 H   0  0  0  0  0  0  0  0  0  0  0  0
  1 11  1  0  0  0  0
  1  2  1  0  0  0  0
  2  7  1  0  0  0  0
  3  2  2  0  0  0  0
  3  8  1  0  0  0  0
  4  9  1  0  0  0  0
  4  3  1  0  0  0  0
  5  6  1  0  0  0  0
  5  4  2  0  0  0  0
  6  1  2  0  0  0  0
 10  5  1  0  0  0  0
 11 12  1  6  0  0  0
 11 22  1  0  0  0  0
 13 14  2  0  0  0  0
 13 18  1  0  0  0  0
 14 15  1  0  0  0  0
 15 21  1  0  0  0  0
 15 16  2  0  0  0  0
 17 16  1  0  0  0  0
 17 11  1  0  0  0  0
 18 17  2  0  0  0  0
 19 13  1  0  0  0  0
 20 14  1  0  0  0  0
 22 23  1  0  0  0  0
 24  6  1  0  0  0  0
 25 24  2  0  0  0  0
 26 28  1  0  0  0  0
 26 25  1  0  0  0  0
 27 26  1  0  0  0  0
 29 26  1  0  0  0  0
 30 31  1  0  0  0  0
 31 32  1  0  0  0  0
 32 29  1  0  0  0  0
 33 32  2  0  0  0  0
 34 33  1  0  0  0  0
 35 41  1  0  0  0  0
 35 34  2  0  0  0  0
 36 35  1  0  0  0  0
 37 36  2  0  0  0  0
 37 39  1  0  0  0  0
 38 37  1  0  0  0  0
 39 40  2  0  0  0  0
 40 34  1  0  0  0  0
 40 31  1  0  0  0  0
 41 42  1  0  0  0  0
 43 41  1  0  0  0  0
M  END
>  <minimizedAffinity>
-6.38483667

>  <minimizedRMSD>
0.882612407

$$$$
