
 OpenBabel03262522163D

 50 54  0  0  1  0  0  0  0  0999 V2000
   39.3860   29.6200   42.4490 C   0  0  1  0  0  0  0  0  0  0  0  0
   38.9620   31.0430   42.1140 C   0  0  0  0  0  0  0  0  0  0  0  0
   39.9380   31.8520   42.9140 C   0  0  2  0  0  0  0  0  0  0  0  0
   40.6440   31.0010   43.7090 O   0  0  0  0  0  0  0  0  0  0  0  0
   39.9190   29.8320   43.8550 C   0  0  0  0  0  0  0  0  0  0  0  0
   40.2520   29.3020   41.8220 H   0  0  0  0  0  0  0  0  0  0  0  0
   37.9660   31.1880   42.5410 H   0  0  0  0  0  0  0  0  0  0  0  0
   39.0350   31.2270   41.0240 H   0  0  0  0  0  0  0  0  0  0  0  0
   40.6550   32.3420   42.2080 H   0  0  0  0  0  0  0  0  0  0  0  0
   40.6530   29.0420   44.1460 H   0  0  0  0  0  0  0  0  0  0  0  0
   39.0820   29.9340   44.5700 H   0  0  0  0  0  0  0  0  0  0  0  0
   39.2470   32.9440   43.6890 C   0  0  0  0  0  0  0  0  0  0  0  0
   38.2300   32.6810   44.0010 H   0  0  0  0  0  0  0  0  0  0  0  0
   39.1840   33.8410   43.0260 H   0  0  0  0  0  0  0  0  0  0  0  0
   40.3390   33.4160   45.0540 S   0  0  0  0  0  0  0  0  0  0  0  0
   37.7670   31.8040   47.6070 C   0  0  0  0  0  0  0  0  0  0  0  0
   38.0170   32.4640   48.8100 C   0  0  0  0  0  0  0  0  0  0  0  0
   38.9880   33.4370   48.8950 C   0  0  0  0  0  0  0  0  0  0  0  0
   39.6770   33.7070   47.7410 C   0  0  0  0  0  0  0  0  0  0  0  0
   39.4210   33.0530   46.5730 C   0  0  0  0  0  0  0  0  0  0  0  0
   38.4680   32.0950   46.4830 N   0  0  0  0  0  0  0  0  0  0  0  0
   37.4350   32.2040   49.6890 H   0  0  0  0  0  0  0  0  0  0  0  0
   39.1840   33.9540   49.8370 H   0  0  0  0  0  0  0  0  0  0  0  0
   40.4590   34.4590   47.7230 H   0  0  0  0  0  0  0  0  0  0  0  0
   36.7320   30.7980   47.6010 C   0  0  0  0  0  0  0  0  0  0  0  0
   36.2670   30.3570   46.5500 O   0  0  0  0  0  0  0  0  0  0  0  0
   37.0580   29.6290   49.7530 C   0  0  0  0  0  0  0  0  0  0  0  0
   36.1720   30.2400   48.8490 C   0  0  0  0  0  0  0  0  0  0  0  0
   34.7990   30.3060   49.1460 C   0  0  0  0  0  0  0  0  0  0  0  0
   34.3780   29.7570   50.3310 N   0  0  0  0  0  0  0  0  0  0  0  0
   35.2410   29.1770   51.1830 C   0  0  0  0  0  0  0  0  0  0  0  0
   36.5520   29.1150   50.8970 N   0  0  0  0  0  0  0  0  0  0  0  0
   38.0980   29.5860   49.5170 H   0  0  0  0  0  0  0  0  0  0  0  0
   34.1540   30.7800   48.4320 H   0  0  0  0  0  0  0  0  0  0  0  0
   34.7380   28.8040   52.0530 H   0  0  0  0  0  0  0  0  0  0  0  0
   38.3060   28.7600   42.4270 O   0  0  0  0  0  0  0  0  0  0  0  0
   40.2400   26.8080   43.1700 H   0  0  0  0  0  0  0  0  0  0  0  0
   39.2440   26.5050   43.1100 N   0  0  0  0  0  0  0  0  0  0  0  0
   38.3070   27.4260   42.7570 C   0  0  0  0  0  0  0  0  0  0  0  0
   37.0800   26.8260   42.7390 N   0  0  0  0  0  0  0  0  0  0  0  0
   37.2580   25.5260   43.0850 C   0  0  0  0  0  0  0  0  0  0  0  0
   36.4360   24.4220   43.2480 C   0  0  0  0  0  0  0  0  0  0  0  0
   36.9830   23.2600   43.6090 N   0  0  0  0  0  0  0  0  0  0  0  0
   38.2990   23.0840   43.8290 C   0  0  0  0  0  0  0  0  0  0  0  0
   38.6900   22.1050   44.1240 H   0  0  0  0  0  0  0  0  0  0  0  0
   39.1430   24.1480   43.6800 N   0  0  0  0  0  0  0  0  0  0  0  0
   38.6070   25.3380   43.3140 C   0  0  0  0  0  0  0  0  0  0  0  0
   35.0480   24.6290   43.0090 N   0  0  0  0  0  0  0  0  0  0  0  0
   34.2190   24.7950   43.6510 H   0  0  0  0  0  0  0  0  0  0  0  0
   34.7230   24.6260   42.0190 H   0  0  0  0  0  0  0  0  0  0  0  0
  1  6  1  6  0  0  0
  1  5  1  0  0  0  0
  2  1  1  0  0  0  0
  2  7  1  0  0  0  0
  2  3  1  0  0  0  0
  3  9  1  6  0  0  0
  3 12  1  0  0  0  0
  3  4  1  0  0  0  0
  4  5  1  0  0  0  0
  5 10  1  0  0  0  0
  5 11  1  0  0  0  0
  8  2  1  0  0  0  0
 12 13  1  0  0  0  0
 12 15  1  0  0  0  0
 14 12  1  0  0  0  0
 15 20  1  0  0  0  0
 16 17  1  0  0  0  0
 17 18  2  0  0  0  0
 17 22  1  0  0  0  0
 18 23  1  0  0  0  0
 19 18  1  0  0  0  0
 20 19  2  0  0  0  0
 21 20  1  0  0  0  0
 21 16  2  0  0  0  0
 24 19  1  0  0  0  0
 25 16  1  0  0  0  0
 25 28  1  0  0  0  0
 26 25  2  0  0  0  0
 27 32  1  0  0  0  0
 28 29  1  0  0  0  0
 28 27  2  0  0  0  0
 29 30  2  0  0  0  0
 30 31  1  0  0  0  0
 31 35  1  0  0  0  0
 32 31  2  0  0  0  0
 33 27  1  0  0  0  0
 34 29  1  0  0  0  0
 36  1  1  0  0  0  0
 36 39  1  0  0  0  0
 38 37  1  0  0  0  0
 38 47  1  0  0  0  0
 39 38  1  0  0  0  0
 40 39  2  0  0  0  0
 40 41  1  0  0  0  0
 41 42  2  0  0  0  0
 41 47  1  0  0  0  0
 42 43  1  0  0  0  0
 43 44  2  0  0  0  0
 44 45  1  0  0  0  0
 46 44  1  0  0  0  0
 47 46  2  0  0  0  0
 48 42  1  0  0  0  0
 48 49  1  0  0  0  0
 50 48  1  0  0  0  0
M  END
>  <minimizedAffinity>
-5.60228109

>  <minimizedRMSD>
2.41507125

$$$$
