
 OpenBabel03272509183D

 38 41  0  0  0  0  0  0  0  0999 V2000
   38.1150   31.2800   47.7300 C   0  0  0  0  0  0  0  0  0  0  0  0
   37.1100   31.3120   48.6900 C   0  0  0  0  0  0  0  0  0  0  0  0
   37.1480   32.4320   49.5220 C   0  0  0  0  0  0  0  0  0  0  0  0
   38.1260   33.4150   49.3750 C   0  0  0  0  0  0  0  0  0  0  0  0
   39.0960   33.2910   48.3770 C   0  0  0  0  0  0  0  0  0  0  0  0
   39.0820   32.1960   47.5400 C   0  0  0  0  0  0  0  0  0  0  0  0
   36.4080   32.5470   50.3010 H   0  0  0  0  0  0  0  0  0  0  0  0
   38.1200   34.2740   50.0470 H   0  0  0  0  0  0  0  0  0  0  0  0
   39.8410   34.0590   48.2790 H   0  0  0  0  0  0  0  0  0  0  0  0
   34.9640   30.3330   48.0240 C   0  0  0  0  0  0  0  0  0  0  0  0
   36.1090   30.3040   48.8390 C   0  0  0  0  0  0  0  0  0  0  0  0
   36.2150   29.2740   49.7710 C   0  0  0  0  0  0  0  0  0  0  0  0
   35.2080   28.3580   49.8390 N   0  0  0  0  0  0  0  0  0  0  0  0
   34.1120   28.4190   49.0320 C   0  0  0  0  0  0  0  0  0  0  0  0
   33.9960   29.4050   48.1310 N   0  0  0  0  0  0  0  0  0  0  0  0
   34.8510   31.1250   47.2880 H   0  0  0  0  0  0  0  0  0  0  0  0
   33.3190   27.6890   49.0930 H   0  0  0  0  0  0  0  0  0  0  0  0
   37.3890   29.1890   50.6530 C   0  0  0  0  0  0  0  0  0  0  0  0
   37.0020   29.0160   51.6940 H   0  0  0  0  0  0  0  0  0  0  0  0
   38.0060   28.3190   50.3640 H   0  0  0  0  0  0  0  0  0  0  0  0
   37.9490   30.1380   50.5970 H   0  0  0  0  0  0  0  0  0  0  0  0
   38.1410   30.1710   46.8440 O   0  0  0  0  0  0  0  0  0  0  0  0
   38.9110   29.5270   46.9970 H   0  0  0  0  0  0  0  0  0  0  0  0
   40.0510   32.1020   46.5660 O   0  0  0  0  0  0  0  0  0  0  0  0
   39.7260   29.7760   44.9540 H   0  0  0  0  0  0  0  0  0  0  0  0
   39.6150   30.7020   44.5330 N   0  0  0  0  0  0  0  0  0  0  0  0
   39.7600   31.8270   45.2550 C   0  0  0  0  0  0  0  0  0  0  0  0
   39.5460   32.8440   44.3830 N   0  0  0  0  0  0  0  0  0  0  0  0
   39.2800   32.3480   43.1640 C   0  0  0  0  0  0  0  0  0  0  0  0
   38.9840   32.8260   41.8890 C   0  0  0  0  0  0  0  0  0  0  0  0
   38.7650   31.9900   40.8580 N   0  0  0  0  0  0  0  0  0  0  0  0
   38.8260   30.6410   41.0270 C   0  0  0  0  0  0  0  0  0  0  0  0
   38.6600   29.9240   40.2390 H   0  0  0  0  0  0  0  0  0  0  0  0
   39.1080   30.1000   42.2350 N   0  0  0  0  0  0  0  0  0  0  0  0
   39.3210   30.9660   43.2470 C   0  0  0  0  0  0  0  0  0  0  0  0
   38.9250   34.2420   41.7330 N   0  0  0  0  0  0  0  0  0  0  0  0
   39.7050   34.9420   41.7320 H   0  0  0  0  0  0  0  0  0  0  0  0
   37.9170   34.4930   41.6120 H   0  0  0  0  0  0  0  0  0  0  0  0
  1  2  1  0  0  0  0
  2 11  1  0  0  0  0
  2  3  2  0  0  0  0
  3  7  1  0  0  0  0
  4  3  1  0  0  0  0
  4  8  1  0  0  0  0
  5  4  2  0  0  0  0
  6  1  2  0  0  0  0
  6  5  1  0  0  0  0
  9  5  1  0  0  0  0
 10 15  2  0  0  0  0
 10 11  1  0  0  0  0
 11 12  2  0  0  0  0
 12 13  1  0  0  0  0
 12 18  1  0  0  0  0
 14 17  1  0  0  0  0
 14 13  2  0  0  0  0
 15 14  1  0  0  0  0
 16 10  1  0  0  0  0
 18 19  1  0  0  0  0
 20 18  1  0  0  0  0
 21 18  1  0  0  0  0
 22 23  1  0  0  0  0
 22  1  1  0  0  0  0
 24  6  1  0  0  0  0
 26 25  1  0  0  0  0
 26 27  1  0  0  0  0
 27 24  1  0  0  0  0
 28 27  2  0  0  0  0
 29 35  1  0  0  0  0
 29 28  1  0  0  0  0
 30 29  2  0  0  0  0
 31 32  2  0  0  0  0
 31 30  1  0  0  0  0
 32 34  1  0  0  0  0
 33 32  1  0  0  0  0
 34 35  2  0  0  0  0
 35 26  1  0  0  0  0
 36 30  1  0  0  0  0
 37 36  1  0  0  0  0
 38 36  1  0  0  0  0
M  END
>  <minimizedAffinity>
-6.6646328

>  <minimizedRMSD>
0.918962479

$$$$
