
 OpenBabel03262521523D

 28 30  0  0  0  0  0  0  0  0999 V2000
   34.6800   28.3020   48.9750 S   0  0  0  0  0  0  0  0  0  0  0  0
   31.9420   28.9710   50.3320 H   0  0  0  0  0  0  0  0  0  0  0  0
   31.8090   28.3490   49.5130 N   0  0  0  0  0  0  0  0  0  0  0  0
   32.9290   28.0000   48.8560 C   0  0  0  0  0  0  0  0  0  0  0  0
   32.5670   27.1940   47.8260 N   0  0  0  0  0  0  0  0  0  0  0  0
   31.2350   27.0170   47.8060 C   0  0  0  0  0  0  0  0  0  0  0  0
   30.3140   26.3380   47.0410 C   0  0  0  0  0  0  0  0  0  0  0  0
   28.9990   26.4210   47.3690 N   0  0  0  0  0  0  0  0  0  0  0  0
   28.5970   27.1620   48.4360 C   0  0  0  0  0  0  0  0  0  0  0  0
   27.5180   27.1760   48.6340 H   0  0  0  0  0  0  0  0  0  0  0  0
   29.4980   27.8390   49.2050 N   0  0  0  0  0  0  0  0  0  0  0  0
   30.8020   27.7600   48.8820 C   0  0  0  0  0  0  0  0  0  0  0  0
   30.7940   25.5780   45.9350 N   0  0  0  0  0  0  0  0  0  0  0  0
   30.6380   24.5680   46.1310 H   0  0  0  0  0  0  0  0  0  0  0  0
   31.2370   25.9190   45.0530 H   0  0  0  0  0  0  0  0  0  0  0  0
   35.0750   29.3190   50.4400 C   0  0  0  0  0  0  0  0  0  0  0  0
   34.5790   30.3110   50.3050 H   0  0  0  0  0  0  0  0  0  0  0  0
   34.5810   28.8660   51.3310 H   0  0  0  0  0  0  0  0  0  0  0  0
   36.8470   29.4940   50.7050 S   0  0  0  0  0  0  0  0  0  0  0  0
   37.4910   30.6220   49.4950 C   0  0  0  0  0  0  0  0  0  0  0  0
   37.6160   31.9400   49.9170 C   0  0  0  0  0  0  0  0  0  0  0  0
   38.1190   32.8780   49.0040 C   0  0  0  0  0  0  0  0  0  0  0  0
   38.4640   32.4690   47.7460 N   0  0  0  0  0  0  0  0  0  0  0  0
   38.3150   31.1650   47.4020 C   0  0  0  0  0  0  0  0  0  0  0  0
   37.8440   30.2740   48.2500 N   0  0  0  0  0  0  0  0  0  0  0  0
   37.3500   32.2890   50.9060 H   0  0  0  0  0  0  0  0  0  0  0  0
   38.2340   33.9180   49.2870 H   0  0  0  0  0  0  0  0  0  0  0  0
   38.5940   30.8540   46.3970 H   0  0  0  0  0  0  0  0  0  0  0  0
  1 16  1  0  0  0  0
  3  2  1  0  0  0  0
  4  1  1  0  0  0  0
  4  3  1  0  0  0  0
  5  4  2  0  0  0  0
  6  5  1  0  0  0  0
  6 12  1  0  0  0  0
  7  8  1  0  0  0  0
  7  6  2  0  0  0  0
  8  9  2  0  0  0  0
  9 10  1  0  0  0  0
  9 11  1  0  0  0  0
 12 11  2  0  0  0  0
 12  3  1  0  0  0  0
 13 14  1  0  0  0  0
 13  7  1  0  0  0  0
 15 13  1  0  0  0  0
 16 19  1  0  0  0  0
 16 18  1  0  0  0  0
 17 16  1  0  0  0  0
 20 21  1  0  0  0  0
 20 19  1  0  0  0  0
 21 26  1  0  0  0  0
 22 27  1  0  0  0  0
 22 21  2  0  0  0  0
 23 22  1  0  0  0  0
 24 23  2  0  0  0  0
 24 25  1  0  0  0  0
 25 20  2  0  0  0  0
 28 24  1  0  0  0  0
M  END
>  <minimizedAffinity>
-4.86726856

>  <minimizedRMSD>
1.14932466

$$$$
