
 OpenBabel03262522153D

 50 54  0  0  1  0  0  0  0  0999 V2000
   39.0330   29.7910   42.1700 C   0  0  1  0  0  0  0  0  0  0  0  0
   38.9600   31.2970   41.9650 C   0  0  0  0  0  0  0  0  0  0  0  0
   40.0020   31.7890   42.9240 C   0  0  2  0  0  0  0  0  0  0  0  0
   40.4260   30.7320   43.6710 O   0  0  0  0  0  0  0  0  0  0  0  0
   39.4560   29.7470   43.6280 C   0  0  0  0  0  0  0  0  0  0  0  0
   39.8690   29.3470   41.5790 H   0  0  0  0  0  0  0  0  0  0  0  0
   37.9810   31.6220   42.3280 H   0  0  0  0  0  0  0  0  0  0  0  0
   39.1800   31.5610   40.9120 H   0  0  0  0  0  0  0  0  0  0  0  0
   40.8740   32.1700   42.3350 H   0  0  0  0  0  0  0  0  0  0  0  0
   39.9710   28.7890   43.8840 H   0  0  0  0  0  0  0  0  0  0  0  0
   38.5930   29.9670   44.2820 H   0  0  0  0  0  0  0  0  0  0  0  0
   39.4880   32.9320   43.7610 C   0  0  0  0  0  0  0  0  0  0  0  0
   38.4270   32.8380   44.0230 H   0  0  0  0  0  0  0  0  0  0  0  0
   39.6150   33.8700   43.1690 H   0  0  0  0  0  0  0  0  0  0  0  0
   40.5870   33.0970   45.1910 S   0  0  0  0  0  0  0  0  0  0  0  0
   37.7690   31.7600   47.6400 C   0  0  0  0  0  0  0  0  0  0  0  0
   37.9420   32.5080   48.8050 C   0  0  0  0  0  0  0  0  0  0  0  0
   38.9350   33.4590   48.8940 C   0  0  0  0  0  0  0  0  0  0  0  0
   39.7220   33.6180   47.7830 C   0  0  0  0  0  0  0  0  0  0  0  0
   39.5390   32.8800   46.6520 C   0  0  0  0  0  0  0  0  0  0  0  0
   38.5670   31.9420   46.5580 N   0  0  0  0  0  0  0  0  0  0  0  0
   37.2840   32.3340   49.6500 H   0  0  0  0  0  0  0  0  0  0  0  0
   39.0700   34.0440   49.8060 H   0  0  0  0  0  0  0  0  0  0  0  0
   40.5260   34.3460   47.7710 H   0  0  0  0  0  0  0  0  0  0  0  0
   36.7060   30.7840   47.6270 C   0  0  0  0  0  0  0  0  0  0  0  0
   36.2200   30.3740   46.5730 O   0  0  0  0  0  0  0  0  0  0  0  0
   37.0290   29.6280   49.7860 C   0  0  0  0  0  0  0  0  0  0  0  0
   36.1420   30.2200   48.8700 C   0  0  0  0  0  0  0  0  0  0  0  0
   34.7650   30.2610   49.1510 C   0  0  0  0  0  0  0  0  0  0  0  0
   34.3410   29.7090   50.3340 N   0  0  0  0  0  0  0  0  0  0  0  0
   35.2050   29.1470   51.1970 C   0  0  0  0  0  0  0  0  0  0  0  0
   36.5200   29.1090   50.9270 N   0  0  0  0  0  0  0  0  0  0  0  0
   38.0720   29.6030   49.5620 H   0  0  0  0  0  0  0  0  0  0  0  0
   34.1200   30.7200   48.4280 H   0  0  0  0  0  0  0  0  0  0  0  0
   34.6990   28.7690   52.0630 H   0  0  0  0  0  0  0  0  0  0  0  0
   37.8020   29.2000   41.9680 O   0  0  0  0  0  0  0  0  0  0  0  0
   38.8000   26.6800   41.0950 H   0  0  0  0  0  0  0  0  0  0  0  0
   37.9710   26.6810   41.7280 N   0  0  0  0  0  0  0  0  0  0  0  0
   37.4800   27.8770   42.1540 C   0  0  0  0  0  0  0  0  0  0  0  0
   36.4050   27.6520   42.9640 N   0  0  0  0  0  0  0  0  0  0  0  0
   36.2270   26.3090   43.0410 C   0  0  0  0  0  0  0  0  0  0  0  0
   35.3370   25.4620   43.6830 C   0  0  0  0  0  0  0  0  0  0  0  0
   35.4720   24.1440   43.5220 N   0  0  0  0  0  0  0  0  0  0  0  0
   36.4300   23.5740   42.7670 C   0  0  0  0  0  0  0  0  0  0  0  0
   36.4900   22.4850   42.6730 H   0  0  0  0  0  0  0  0  0  0  0  0
   37.3260   24.3740   42.1180 N   0  0  0  0  0  0  0  0  0  0  0  0
   37.2060   25.7150   42.2680 C   0  0  0  0  0  0  0  0  0  0  0  0
   34.3330   26.0860   44.4760 N   0  0  0  0  0  0  0  0  0  0  0  0
   34.2390   26.2640   45.5180 H   0  0  0  0  0  0  0  0  0  0  0  0
   33.4960   26.4640   43.9840 H   0  0  0  0  0  0  0  0  0  0  0  0
  1  6  1  6  0  0  0
  1  5  1  0  0  0  0
  2  1  1  0  0  0  0
  2  7  1  0  0  0  0
  2  3  1  0  0  0  0
  3  9  1  6  0  0  0
  3  4  1  0  0  0  0
  3 12  1  0  0  0  0
  5  4  1  0  0  0  0
  5 10  1  0  0  0  0
  5 11  1  0  0  0  0
  8  2  1  0  0  0  0
 12 13  1  0  0  0  0
 12 15  1  0  0  0  0
 14 12  1  0  0  0  0
 15 20  1  0  0  0  0
 16 17  1  0  0  0  0
 17 18  2  0  0  0  0
 17 22  1  0  0  0  0
 18 23  1  0  0  0  0
 19 18  1  0  0  0  0
 20 19  2  0  0  0  0
 21 20  1  0  0  0  0
 21 16  2  0  0  0  0
 24 19  1  0  0  0  0
 25 16  1  0  0  0  0
 25 28  1  0  0  0  0
 26 25  2  0  0  0  0
 27 32  1  0  0  0  0
 28 29  1  0  0  0  0
 28 27  2  0  0  0  0
 29 30  2  0  0  0  0
 30 31  1  0  0  0  0
 31 35  1  0  0  0  0
 32 31  2  0  0  0  0
 33 27  1  0  0  0  0
 34 29  1  0  0  0  0
 36 39  1  0  0  0  0
 36  1  1  0  0  0  0
 37 38  1  0  0  0  0
 38 39  1  0  0  0  0
 38 47  1  0  0  0  0
 39 40  2  0  0  0  0
 40 41  1  0  0  0  0
 41 42  1  0  0  0  0
 42 48  1  0  0  0  0
 43 42  2  0  0  0  0
 44 43  1  0  0  0  0
 45 44  1  0  0  0  0
 46 47  1  0  0  0  0
 46 44  2  0  0  0  0
 47 41  2  0  0  0  0
 48 49  1  0  0  0  0
 50 48  1  0  0  0  0
M  END
>  <minimizedAffinity>
-5.42384005

>  <minimizedRMSD>
1.51675606

$$$$
