
 OpenBabel03262520493D

 53 58  0  0  1  0  0  0  0  0999 V2000
   39.3290   28.8820   43.1660 C   0  0  0  0  0  0  0  0  0  0  0  0
   40.3280   29.8050   42.9110 C   0  0  0  0  0  0  0  0  0  0  0  0
   41.1610   29.6460   41.7970 C   0  0  0  0  0  0  0  0  0  0  0  0
   40.9950   28.5690   40.9490 C   0  0  0  0  0  0  0  0  0  0  0  0
   41.6590   28.2090   39.8340 N   0  0  0  0  0  0  0  0  0  0  0  0
   41.0850   27.0780   39.4000 C   0  0  0  0  0  0  0  0  0  0  0  0
   40.0510   26.6790   40.2030 C   0  0  0  0  0  0  0  0  0  0  0  0
   40.0020   27.6450   41.1960 C   0  0  0  0  0  0  0  0  0  0  0  0
   39.1860   27.8120   42.2960 C   0  0  0  0  0  0  0  0  0  0  0  0
   38.6300   28.9060   43.9890 H   0  0  0  0  0  0  0  0  0  0  0  0
   41.9320   30.3950   41.6360 H   0  0  0  0  0  0  0  0  0  0  0  0
   42.4620   28.7420   39.4260 H   0  0  0  0  0  0  0  0  0  0  0  0
   41.4400   26.5800   38.5080 H   0  0  0  0  0  0  0  0  0  0  0  0
   39.4160   25.8120   40.0940 H   0  0  0  0  0  0  0  0  0  0  0  0
   38.1750   26.8290   42.5070 N   0  0  0  0  0  0  0  0  0  0  0  0
   36.9480   27.0400   41.9590 C   0  0  0  0  0  0  0  0  0  0  0  0
   36.5660   27.8650   41.3550 H   0  0  0  0  0  0  0  0  0  0  0  0
   36.1740   25.9760   42.2990 N   0  0  0  0  0  0  0  0  0  0  0  0
   36.9120   25.1260   43.0420 C   0  0  0  0  0  0  0  0  0  0  0  0
   36.7320   23.9070   43.6760 C   0  0  0  0  0  0  0  0  0  0  0  0
   37.7340   23.3390   44.3500 N   0  0  0  0  0  0  0  0  0  0  0  0
   38.9500   23.8950   44.4540 C   0  0  0  0  0  0  0  0  0  0  0  0
   39.6790   23.3460   45.0220 H   0  0  0  0  0  0  0  0  0  0  0  0
   39.1750   25.0880   43.8500 N   0  0  0  0  0  0  0  0  0  0  0  0
   38.1840   25.6690   43.1720 C   0  0  0  0  0  0  0  0  0  0  0  0
   35.4440   23.3040   43.5740 N   0  0  0  0  0  0  0  0  0  0  0  0
   35.0400   22.8330   44.4320 H   0  0  0  0  0  0  0  0  0  0  0  0
   34.8150   23.2550   42.7500 H   0  0  0  0  0  0  0  0  0  0  0  0
   40.4870   30.9640   43.8440 C   0  0  0  0  0  0  0  0  0  0  0  0
   40.0940   31.8510   43.2810 H   0  0  0  0  0  0  0  0  0  0  0  0
   41.5530   31.1160   44.1150 H   0  0  0  0  0  0  0  0  0  0  0  0
   39.6200   30.6960   45.0540 C   0  0  0  0  0  0  0  0  0  0  0  0
   39.8130   29.6350   45.3620 H   0  0  0  0  0  0  0  0  0  0  0  0
   38.5660   30.8540   44.7130 H   0  0  0  0  0  0  0  0  0  0  0  0
   38.7990   32.2440   46.8710 C   0  0  1  0  0  0  0  0  0  0  0  0
   39.9000   33.0220   46.1880 C   0  0  0  0  0  0  0  0  0  0  0  0
   39.9300   31.5470   46.2300 C   0  0  2  0  0  0  0  0  0  0  0  0
   37.7920   32.2050   46.3860 H   0  0  0  0  0  0  0  0  0  0  0  0
   39.6950   33.4590   45.1820 H   0  0  0  0  0  0  0  0  0  0  0  0
   40.6150   33.6150   46.7620 H   0  0  0  0  0  0  0  0  0  0  0  0
   40.6830   31.1440   46.9720 H   0  0  0  0  0  0  0  0  0  0  0  0
   38.7220   32.4240   48.3530 C   0  0  0  0  0  0  0  0  0  0  0  0
   38.2350   33.4150   48.5450 H   0  0  0  0  0  0  0  0  0  0  0  0
   39.7330   32.4690   48.8040 H   0  0  0  0  0  0  0  0  0  0  0  0
   37.4670   30.0590   50.9780 C   0  0  0  0  0  0  0  0  0  0  0  0
   38.1720   31.1120   50.3300 C   0  0  0  0  0  0  0  0  0  0  0  0
   37.9690   31.3180   48.9940 C   0  0  0  0  0  0  0  0  0  0  0  0
   37.1110   30.5120   48.3590 N   0  0  0  0  0  0  0  0  0  0  0  0
   36.4470   29.5240   48.9640 C   0  0  0  0  0  0  0  0  0  0  0  0
   36.6380   29.3120   50.2730 N   0  0  0  0  0  0  0  0  0  0  0  0
   37.6720   29.9450   52.0510 H   0  0  0  0  0  0  0  0  0  0  0  0
   38.8580   31.7400   50.8860 H   0  0  0  0  0  0  0  0  0  0  0  0
   35.7540   28.8730   48.4490 H   0  0  0  0  0  0  0  0  0  0  0  0
  1 10  1  0  0  0  0
  2  1  1  0  0  0  0
  2 29  1  0  0  0  0
  3  2  2  0  0  0  0
  4  8  2  0  0  0  0
  4  3  1  0  0  0  0
  5  4  1  0  0  0  0
  6  5  1  0  0  0  0
  6  7  2  0  0  0  0
  7  8  1  0  0  0  0
  8  9  1  0  0  0  0
  9 15  1  0  0  0  0
  9  1  2  0  0  0  0
 11  3  1  0  0  0  0
 12  5  1  0  0  0  0
 13  6  1  0  0  0  0
 14  7  1  0  0  0  0
 15 25  1  0  0  0  0
 16 18  2  0  0  0  0
 16 15  1  0  0  0  0
 17 16  1  0  0  0  0
 18 19  1  0  0  0  0
 19 25  2  0  0  0  0
 19 20  1  0  0  0  0
 20 21  2  0  0  0  0
 21 22  1  0  0  0  0
 22 23  1  0  0  0  0
 24 22  2  0  0  0  0
 25 24  1  0  0  0  0
 26 20  1  0  0  0  0
 26 27  1  0  0  0  0
 28 26  1  0  0  0  0
 29 31  1  0  0  0  0
 29 32  1  0  0  0  0
 30 29  1  0  0  0  0
 32 33  1  0  0  0  0
 32 37  1  0  0  0  0
 34 32  1  0  0  0  0
 35 38  1  6  0  0  0
 35 42  1  0  0  0  0
 36 37  1  0  0  0  0
 36 40  1  0  0  0  0
 36 35  1  0  0  0  0
 37 35  1  0  0  0  0
 37 41  1  1  0  0  0
 39 36  1  0  0  0  0
 42 43  1  0  0  0  0
 42 44  1  0  0  0  0
 42 47  1  0  0  0  0
 45 51  1  0  0  0  0
 46 52  1  0  0  0  0
 46 45  1  0  0  0  0
 47 46  2  0  0  0  0
 48 49  2  0  0  0  0
 48 47  1  0  0  0  0
 49 50  1  0  0  0  0
 50 45  2  0  0  0  0
 53 49  1  0  0  0  0
M  END
>  <minimizedAffinity>
-6.22320557

>  <minimizedRMSD>
0.903243005

$$$$
