
 OpenBabel03272508283D

 43 47  0  0  1  0  0  0  0  0999 V2000
   33.5310   29.0450   47.0580 C   0  0  2  0  0  0  0  0  0  0  0  0
   34.2500   28.1020   48.0080 C   0  0  2  0  0  0  0  0  0  0  0  0
   33.3650   27.8440   49.0160 O   0  0  0  0  0  0  0  0  0  0  0  0
   32.0840   28.0330   48.5870 C   0  0  0  0  0  0  0  0  0  0  0  0
   32.1270   28.4400   47.1300 C   0  0  1  0  0  0  0  0  0  0  0  0
   33.4570   30.0660   47.4550 H   0  0  0  0  0  0  0  0  0  0  0  0
   34.4830   27.1990   47.3990 H   0  0  0  0  0  0  0  0  0  0  0  0
   31.5160   27.0580   48.6170 H   0  0  0  0  0  0  0  0  0  0  0  0
   31.5620   28.7520   49.2280 H   0  0  0  0  0  0  0  0  0  0  0  0
   32.1630   27.5270   46.4970 H   0  0  0  0  0  0  0  0  0  0  0  0
   35.4560   30.2000   48.9280 C   0  0  1  0  0  0  0  0  0  0  0  0
   35.4630   28.8180   48.5110 C   0  0  1  0  0  0  0  0  0  0  0  0
   35.6680   29.0880   49.9670 C   0  0  0  0  0  0  0  0  0  0  0  0
   34.5840   30.8200   49.2120 H   0  0  0  0  0  0  0  0  0  0  0  0
   36.4010   28.4710   47.9880 H   0  0  0  0  0  0  0  0  0  0  0  0
   34.7990   28.7840   50.5870 H   0  0  0  0  0  0  0  0  0  0  0  0
   36.6620   28.9810   50.4260 H   0  0  0  0  0  0  0  0  0  0  0  0
   36.6910   31.0740   48.7780 C   0  0  0  0  0  0  0  0  0  0  0  0
   36.9130   32.0390   49.7600 C   0  0  0  0  0  0  0  0  0  0  0  0
   38.0410   32.8250   49.5540 C   0  0  0  0  0  0  0  0  0  0  0  0
   38.8500   32.6390   48.4620 N   0  0  0  0  0  0  0  0  0  0  0  0
   38.5870   31.6860   47.5370 C   0  0  0  0  0  0  0  0  0  0  0  0
   37.4980   30.8970   47.6990 N   0  0  0  0  0  0  0  0  0  0  0  0
   36.2660   32.1580   50.5950 H   0  0  0  0  0  0  0  0  0  0  0  0
   38.3030   33.6020   50.2560 H   0  0  0  0  0  0  0  0  0  0  0  0
   39.2560   31.5820   46.6970 H   0  0  0  0  0  0  0  0  0  0  0  0
   34.0300   29.0190   45.7690 O   0  0  0  0  0  0  0  0  0  0  0  0
   33.4060   29.4940   45.1970 H   0  0  0  0  0  0  0  0  0  0  0  0
   31.1620   29.3290   46.7450 O   0  0  0  0  0  0  0  0  0  0  0  0
   28.4540   30.2120   46.8050 H   0  0  0  0  0  0  0  0  0  0  0  0
   28.7380   29.3830   46.2470 N   0  0  0  0  0  0  0  0  0  0  0  0
   29.9840   28.8890   46.1550 C   0  0  0  0  0  0  0  0  0  0  0  0
   29.8710   27.8240   45.3340 N   0  0  0  0  0  0  0  0  0  0  0  0
   28.5960   27.6590   44.9280 C   0  0  0  0  0  0  0  0  0  0  0  0
   27.9630   26.7490   44.1070 C   0  0  0  0  0  0  0  0  0  0  0  0
   26.6360   26.8100   43.8590 N   0  0  0  0  0  0  0  0  0  0  0  0
   25.9350   27.8100   44.4510 C   0  0  0  0  0  0  0  0  0  0  0  0
   24.8760   28.0280   44.3800 H   0  0  0  0  0  0  0  0  0  0  0  0
   26.5410   28.7080   45.2570 N   0  0  0  0  0  0  0  0  0  0  0  0
   27.8600   28.6730   45.5230 C   0  0  0  0  0  0  0  0  0  0  0  0
   28.7280   25.7130   43.5020 N   0  0  0  0  0  0  0  0  0  0  0  0
   28.8910   25.5770   42.4630 H   0  0  0  0  0  0  0  0  0  0  0  0
   29.1410   25.0580   44.1790 H   0  0  0  0  0  0  0  0  0  0  0  0
  1  5  1  0  0  0  0
  1  6  1  1  0  0  0
  1  2  1  0  0  0  0
  2  7  1  6  0  0  0
  2 12  1  0  0  0  0
  2  3  1  0  0  0  0
  4  8  1  0  0  0  0
  4  3  1  0  0  0  0
  4  9  1  0  0  0  0
  5 10  1  6  0  0  0
  5  4  1  0  0  0  0
 11 14  1  1  0  0  0
 11 13  1  0  0  0  0
 12 15  1  6  0  0  0
 12 11  1  0  0  0  0
 12 13  1  0  0  0  0
 13 17  1  0  0  0  0
 13 16  1  0  0  0  0
 18 11  1  0  0  0  0
 18 19  1  0  0  0  0
 19 24  1  0  0  0  0
 20 19  2  0  0  0  0
 20 25  1  0  0  0  0
 21 20  1  0  0  0  0
 22 23  1  0  0  0  0
 22 21  2  0  0  0  0
 23 18  2  0  0  0  0
 26 22  1  0  0  0  0
 27  1  1  0  0  0  0
 28 27  1  0  0  0  0
 29  5  1  0  0  0  0
 31 30  1  0  0  0  0
 32 31  1  0  0  0  0
 32 29  1  0  0  0  0
 33 32  2  0  0  0  0
 34 33  1  0  0  0  0
 34 40  1  0  0  0  0
 35 34  2  0  0  0  0
 36 35  1  0  0  0  0
 36 37  2  0  0  0  0
 37 39  1  0  0  0  0
 38 37  1  0  0  0  0
 39 40  2  0  0  0  0
 40 31  1  0  0  0  0
 41 35  1  0  0  0  0
 41 43  1  0  0  0  0
 42 41  1  0  0  0  0
M  END
>  <minimizedAffinity>
-5.41067743

>  <minimizedRMSD>
1.38095236

$$$$
