
 OpenBabel03272509183D

 38 41  0  0  0  0  0  0  0  0999 V2000
   38.1090   31.4130   47.8810 C   0  0  0  0  0  0  0  0  0  0  0  0
   37.0180   31.3390   48.7390 C   0  0  0  0  0  0  0  0  0  0  0  0
   36.9260   32.3980   49.6420 C   0  0  0  0  0  0  0  0  0  0  0  0
   37.8670   33.4270   49.6560 C   0  0  0  0  0  0  0  0  0  0  0  0
   38.9310   33.4110   48.7500 C   0  0  0  0  0  0  0  0  0  0  0  0
   39.0470   32.3770   47.8460 C   0  0  0  0  0  0  0  0  0  0  0  0
   36.1110   32.4300   50.3510 H   0  0  0  0  0  0  0  0  0  0  0  0
   37.7580   34.2360   50.3780 H   0  0  0  0  0  0  0  0  0  0  0  0
   39.6470   34.2130   48.7760 H   0  0  0  0  0  0  0  0  0  0  0  0
   34.9970   30.3190   47.7990 C   0  0  0  0  0  0  0  0  0  0  0  0
   36.0550   30.2840   48.7240 C   0  0  0  0  0  0  0  0  0  0  0  0
   36.1150   29.2020   49.5990 C   0  0  0  0  0  0  0  0  0  0  0  0
   35.1480   28.2440   49.5080 N   0  0  0  0  0  0  0  0  0  0  0  0
   34.1380   28.3120   48.5980 C   0  0  0  0  0  0  0  0  0  0  0  0
   34.0680   29.3480   47.7500 N   0  0  0  0  0  0  0  0  0  0  0  0
   34.9220   31.1510   47.1030 H   0  0  0  0  0  0  0  0  0  0  0  0
   33.3780   27.5490   48.5330 H   0  0  0  0  0  0  0  0  0  0  0  0
   37.1960   29.1060   50.5900 C   0  0  0  0  0  0  0  0  0  0  0  0
   36.7150   28.8520   51.5740 H   0  0  0  0  0  0  0  0  0  0  0  0
   37.8790   28.2820   50.3150 H   0  0  0  0  0  0  0  0  0  0  0  0
   37.7150   30.0790   50.6490 H   0  0  0  0  0  0  0  0  0  0  0  0
   38.2690   30.3700   46.9310 O   0  0  0  0  0  0  0  0  0  0  0  0
   39.0500   29.7470   47.1160 H   0  0  0  0  0  0  0  0  0  0  0  0
   40.1060   32.3900   46.9670 O   0  0  0  0  0  0  0  0  0  0  0  0
   38.7840   33.8280   44.8940 H   0  0  0  0  0  0  0  0  0  0  0  0
   39.3060   32.9790   44.6650 N   0  0  0  0  0  0  0  0  0  0  0  0
   39.9460   32.2670   45.6110 C   0  0  0  0  0  0  0  0  0  0  0  0
   40.5160   31.2260   44.9550 N   0  0  0  0  0  0  0  0  0  0  0  0
   40.2300   31.3050   43.6450 C   0  0  0  0  0  0  0  0  0  0  0  0
   40.4950   30.5890   42.4800 C   0  0  0  0  0  0  0  0  0  0  0  0
   40.0180   30.9890   41.2870 N   0  0  0  0  0  0  0  0  0  0  0  0
   39.2560   32.1100   41.1770 C   0  0  0  0  0  0  0  0  0  0  0  0
   38.8470   32.4790   40.2500 H   0  0  0  0  0  0  0  0  0  0  0  0
   38.9560   32.8590   42.2640 N   0  0  0  0  0  0  0  0  0  0  0  0
   39.4500   32.4310   43.4450 C   0  0  0  0  0  0  0  0  0  0  0  0
   41.2940   29.4170   42.6140 N   0  0  0  0  0  0  0  0  0  0  0  0
   41.0460   28.4890   43.0350 H   0  0  0  0  0  0  0  0  0  0  0  0
   42.2300   29.6370   42.2000 H   0  0  0  0  0  0  0  0  0  0  0  0
  1  2  1  0  0  0  0
  2  3  2  0  0  0  0
  3  4  1  0  0  0  0
  3  7  1  0  0  0  0
  4  8  1  0  0  0  0
  5  9  1  0  0  0  0
  5  4  2  0  0  0  0
  6  1  2  0  0  0  0
  6  5  1  0  0  0  0
 10 11  1  0  0  0  0
 11  2  1  0  0  0  0
 11 12  2  0  0  0  0
 12 18  1  0  0  0  0
 13 12  1  0  0  0  0
 14 13  2  0  0  0  0
 15 10  2  0  0  0  0
 15 14  1  0  0  0  0
 16 10  1  0  0  0  0
 17 14  1  0  0  0  0
 18 21  1  0  0  0  0
 18 19  1  0  0  0  0
 20 18  1  0  0  0  0
 22 23  1  0  0  0  0
 22  1  1  0  0  0  0
 24  6  1  0  0  0  0
 26 25  1  0  0  0  0
 26 27  1  0  0  0  0
 27 24  1  0  0  0  0
 28 27  2  0  0  0  0
 29 28  1  0  0  0  0
 30 36  1  0  0  0  0
 30 29  2  0  0  0  0
 31 30  1  0  0  0  0
 32 31  2  0  0  0  0
 32 34  1  0  0  0  0
 33 32  1  0  0  0  0
 34 35  2  0  0  0  0
 35 29  1  0  0  0  0
 35 26  1  0  0  0  0
 36 37  1  0  0  0  0
 38 36  1  0  0  0  0
M  END
>  <minimizedAffinity>
-7.41467619

>  <minimizedRMSD>
1.39136434

$$$$
