
 OpenBabel03272509183D

 38 41  0  0  0  0  0  0  0  0999 V2000
   38.0540   31.3520   47.8180 C   0  0  0  0  0  0  0  0  0  0  0  0
   37.0930   31.3310   48.8230 C   0  0  0  0  0  0  0  0  0  0  0  0
   37.1540   32.4170   49.6960 C   0  0  0  0  0  0  0  0  0  0  0  0
   38.1110   33.4200   49.5470 C   0  0  0  0  0  0  0  0  0  0  0  0
   39.0370   33.3500   48.5020 C   0  0  0  0  0  0  0  0  0  0  0  0
   39.0000   32.2890   47.6230 C   0  0  0  0  0  0  0  0  0  0  0  0
   36.4480   32.4910   50.5110 H   0  0  0  0  0  0  0  0  0  0  0  0
   38.1240   34.2510   50.2520 H   0  0  0  0  0  0  0  0  0  0  0  0
   39.7670   34.1320   48.4030 H   0  0  0  0  0  0  0  0  0  0  0  0
   34.9620   30.3120   48.1680 C   0  0  0  0  0  0  0  0  0  0  0  0
   36.1140   30.3030   48.9750 C   0  0  0  0  0  0  0  0  0  0  0  0
   36.2460   29.2720   49.9020 C   0  0  0  0  0  0  0  0  0  0  0  0
   35.2570   28.3360   49.9730 N   0  0  0  0  0  0  0  0  0  0  0  0
   34.1550   28.3780   49.1740 C   0  0  0  0  0  0  0  0  0  0  0  0
   34.0140   29.3650   48.2780 N   0  0  0  0  0  0  0  0  0  0  0  0
   34.8280   31.1050   47.4350 H   0  0  0  0  0  0  0  0  0  0  0  0
   33.3770   27.6330   49.2380 H   0  0  0  0  0  0  0  0  0  0  0  0
   37.4270   29.2060   50.7750 C   0  0  0  0  0  0  0  0  0  0  0  0
   37.0510   29.0220   51.8190 H   0  0  0  0  0  0  0  0  0  0  0  0
   38.0600   28.3500   50.4790 H   0  0  0  0  0  0  0  0  0  0  0  0
   37.9680   30.1660   50.7190 H   0  0  0  0  0  0  0  0  0  0  0  0
   38.0550   30.2800   46.8880 O   0  0  0  0  0  0  0  0  0  0  0  0
   38.8400   29.6420   46.9810 H   0  0  0  0  0  0  0  0  0  0  0  0
   39.9250   32.2490   46.6040 O   0  0  0  0  0  0  0  0  0  0  0  0
   41.1990   31.7510   44.1050 H   0  0  0  0  0  0  0  0  0  0  0  0
   40.2140   32.0270   44.1240 N   0  0  0  0  0  0  0  0  0  0  0  0
   39.5720   32.2720   45.2800 C   0  0  0  0  0  0  0  0  0  0  0  0
   38.3060   32.6050   44.9260 N   0  0  0  0  0  0  0  0  0  0  0  0
   38.1830   32.5630   43.5890 C   0  0  0  0  0  0  0  0  0  0  0  0
   37.1990   32.7830   42.6280 C   0  0  0  0  0  0  0  0  0  0  0  0
   37.4540   32.6370   41.3150 N   0  0  0  0  0  0  0  0  0  0  0  0
   38.6870   32.2680   40.8780 C   0  0  0  0  0  0  0  0  0  0  0  0
   38.9500   32.1350   39.8400 H   0  0  0  0  0  0  0  0  0  0  0  0
   39.6960   32.0360   41.7510 N   0  0  0  0  0  0  0  0  0  0  0  0
   39.4080   32.1920   43.0600 C   0  0  0  0  0  0  0  0  0  0  0  0
   35.9130   33.1700   43.1050 N   0  0  0  0  0  0  0  0  0  0  0  0
   35.6040   34.0820   43.5190 H   0  0  0  0  0  0  0  0  0  0  0  0
   35.2790   32.3470   42.9710 H   0  0  0  0  0  0  0  0  0  0  0  0
  1  2  1  0  0  0  0
  2 11  1  0  0  0  0
  2  3  2  0  0  0  0
  3  7  1  0  0  0  0
  4  3  1  0  0  0  0
  4  8  1  0  0  0  0
  5  4  2  0  0  0  0
  6  1  2  0  0  0  0
  6  5  1  0  0  0  0
  9  5  1  0  0  0  0
 10 15  2  0  0  0  0
 10 11  1  0  0  0  0
 11 12  2  0  0  0  0
 12 13  1  0  0  0  0
 12 18  1  0  0  0  0
 14 17  1  0  0  0  0
 14 13  2  0  0  0  0
 15 14  1  0  0  0  0
 16 10  1  0  0  0  0
 18 19  1  0  0  0  0
 20 18  1  0  0  0  0
 21 18  1  0  0  0  0
 22 23  1  0  0  0  0
 22  1  1  0  0  0  0
 24  6  1  0  0  0  0
 25 26  1  0  0  0  0
 26 27  1  0  0  0  0
 27 24  1  0  0  0  0
 28 27  2  0  0  0  0
 29 28  1  0  0  0  0
 30 36  1  0  0  0  0
 30 29  2  0  0  0  0
 31 30  1  0  0  0  0
 32 31  2  0  0  0  0
 32 34  1  0  0  0  0
 33 32  1  0  0  0  0
 34 35  2  0  0  0  0
 35 29  1  0  0  0  0
 35 26  1  0  0  0  0
 36 37  1  0  0  0  0
 38 36  1  0  0  0  0
M  END
>  <minimizedAffinity>
-7.53880596

>  <minimizedRMSD>
0.3993496

$$$$
