
 OpenBabel03272509433D

 43 46  0  0  1  0  0  0  0  0999 V2000
   37.1870   30.9680   49.0300 C   0  0  0  0  0  0  0  0  0  0  0  0
   36.9140   31.9430   49.9930 C   0  0  0  0  0  0  0  0  0  0  0  0
   37.5200   33.1900   49.9620 C   0  0  0  0  0  0  0  0  0  0  0  0
   38.4300   33.4850   48.9430 C   0  0  0  0  0  0  0  0  0  0  0  0
   38.6870   32.5240   48.0110 C   0  0  0  0  0  0  0  0  0  0  0  0
   38.0620   31.2870   48.0710 C   0  0  0  0  0  0  0  0  0  0  0  0
   36.1980   31.6820   50.7760 H   0  0  0  0  0  0  0  0  0  0  0  0
   37.2270   33.8520   50.7580 H   0  0  0  0  0  0  0  0  0  0  0  0
   38.8550   34.4760   48.9930 H   0  0  0  0  0  0  0  0  0  0  0  0
   39.4140   32.8990   47.2860 H   0  0  0  0  0  0  0  0  0  0  0  0
   36.5810   29.6550   49.0790 C   0  0  2  0  0  0  0  0  0  0  0  0
   37.0830   29.0540   48.2260 H   0  0  0  0  0  0  0  0  0  0  0  0
   33.6930   30.0050   46.9010 C   0  0  0  0  0  0  0  0  0  0  0  0
   32.9810   28.8370   47.0980 C   0  0  0  0  0  0  0  0  0  0  0  0
   33.4540   27.9370   48.0350 C   0  0  0  0  0  0  0  0  0  0  0  0
   34.6060   28.2300   48.7320 N   0  0  0  0  0  0  0  0  0  0  0  0
   35.2410   29.3600   48.4960 C   0  0  0  0  0  0  0  0  0  0  0  0
   34.7930   30.2530   47.5850 N   0  0  0  0  0  0  0  0  0  0  0  0
   33.3270   30.7130   46.1680 H   0  0  0  0  0  0  0  0  0  0  0  0
   32.0730   28.5690   46.5730 H   0  0  0  0  0  0  0  0  0  0  0  0
   32.9610   27.0040   48.2550 H   0  0  0  0  0  0  0  0  0  0  0  0
   37.0260   28.9430   50.0530 O   0  0  0  0  0  0  0  0  0  0  0  0
   36.8530   29.2080   50.9980 H   0  0  0  0  0  0  0  0  0  0  0  0
   38.4500   30.3540   47.0390 C   0  0  0  0  0  3  0  0  0  0  0  0
   38.5660   30.6770   45.7460 C   0  0  0  0  0  3  0  0  0  0  0  0
   38.9940   29.8200   44.6160 C   0  0  0  0  0  0  0  0  0  0  0  0
   38.0950   29.2770   44.2580 H   0  0  0  0  0  0  0  0  0  0  0  0
   39.7220   29.0470   44.9370 H   0  0  0  0  0  0  0  0  0  0  0  0
   39.6310   30.8440   43.2850 S   0  0  0  0  0  0  0  0  0  0  0  0
   39.3900   27.9940   42.0190 H   0  0  0  0  0  0  0  0  0  0  0  0
   40.0590   28.6380   41.5440 N   0  0  0  0  0  0  0  0  0  0  0  0
   40.2920   29.9000   41.9480 C   0  0  0  0  0  0  0  0  0  0  0  0
   41.2000   30.4870   41.1460 N   0  0  0  0  0  0  0  0  0  0  0  0
   41.5790   29.5990   40.1890 C   0  0  0  0  0  0  0  0  0  0  0  0
   42.4610   29.6510   39.1270 C   0  0  0  0  0  0  0  0  0  0  0  0
   42.6080   28.5480   38.3380 N   0  0  0  0  0  0  0  0  0  0  0  0
   41.8870   27.4290   38.6190 C   0  0  0  0  0  0  0  0  0  0  0  0
   42.0380   26.5750   37.9620 H   0  0  0  0  0  0  0  0  0  0  0  0
   41.0190   27.3910   39.6710 N   0  0  0  0  0  0  0  0  0  0  0  0
   40.8500   28.4650   40.4700 C   0  0  0  0  0  0  0  0  0  0  0  0
   43.1700   30.8710   38.9170 N   0  0  0  0  0  0  0  0  0  0  0  0
   42.7490   31.8170   38.9870 H   0  0  0  0  0  0  0  0  0  0  0  0
   44.1750   30.7040   38.6810 H   0  0  0  0  0  0  0  0  0  0  0  0
  1 11  1  0  0  0  0
  1  2  1  0  0  0  0
  2  7  1  0  0  0  0
  3  2  2  0  0  0  0
  3  8  1  0  0  0  0
  4  9  1  0  0  0  0
  4  3  1  0  0  0  0
  5  6  1  0  0  0  0
  5  4  2  0  0  0  0
  6  1  2  0  0  0  0
 10  5  1  0  0  0  0
 11 12  1  6  0  0  0
 11 22  1  0  0  0  0
 13 14  2  0  0  0  0
 13 18  1  0  0  0  0
 14 15  1  0  0  0  0
 15 21  1  0  0  0  0
 15 16  2  0  0  0  0
 17 16  1  0  0  0  0
 17 11  1  0  0  0  0
 18 17  2  0  0  0  0
 19 13  1  0  0  0  0
 20 14  1  0  0  0  0
 22 23  1  0  0  0  0
 24  6  1  0  0  0  0
 25 24  2  0  0  0  0
 26 28  1  0  0  0  0
 26 25  1  0  0  0  0
 27 26  1  0  0  0  0
 29 26  1  0  0  0  0
 31 32  1  0  0  0  0
 31 30  1  0  0  0  0
 32 29  1  0  0  0  0
 33 32  2  0  0  0  0
 34 40  1  0  0  0  0
 34 33  1  0  0  0  0
 35 34  2  0  0  0  0
 36 37  2  0  0  0  0
 36 35  1  0  0  0  0
 37 39  1  0  0  0  0
 38 37  1  0  0  0  0
 39 40  2  0  0  0  0
 40 31  1  0  0  0  0
 41 42  1  0  0  0  0
 41 35  1  0  0  0  0
 43 41  1  0  0  0  0
M  END
>  <minimizedAffinity>
-6.06484222

>  <minimizedRMSD>
0.698673487

$$$$
