
 OpenBabel03272506443D

 37 40  0  0  1  0  0  0  0  0999 V2000
   32.2430   28.2770   47.5450 C   0  0  2  0  0  0  0  0  0  0  0  0
   33.5350   28.1790   48.3340 C   0  0  1  0  0  0  0  0  0  0  0  0
   34.0190   26.8960   48.2040 O   0  0  0  0  0  0  0  0  0  0  0  0
   33.2520   26.2280   47.2840 C   0  0  0  0  0  0  0  0  0  0  0  0
   32.5590   27.3080   46.4400 C   0  0  1  0  0  0  0  0  0  0  0  0
   31.3790   27.8880   48.1290 H   0  0  0  0  0  0  0  0  0  0  0  0
   33.3460   28.4780   49.3770 H   0  0  0  0  0  0  0  0  0  0  0  0
   32.5320   25.5050   47.6970 H   0  0  0  0  0  0  0  0  0  0  0  0
   33.9520   25.7100   46.5820 H   0  0  0  0  0  0  0  0  0  0  0  0
   33.2490   27.7220   45.6930 H   0  0  0  0  0  0  0  0  0  0  0  0
   32.0260   29.5740   47.0930 O   0  0  0  0  0  0  0  0  0  0  0  0
   31.6910   30.0770   47.8950 H   0  0  0  0  0  0  0  0  0  0  0  0
   34.7190   29.2980   47.5190 S   0  0  0  0  0  0  0  0  0  0  0  0
   37.2350   29.3630   50.5690 C   0  0  0  0  0  0  0  0  0  0  0  0
   37.7630   30.6480   50.5950 C   0  0  0  0  0  0  0  0  0  0  0  0
   37.3150   31.5480   49.6130 C   0  0  0  0  0  0  0  0  0  0  0  0
   36.4030   31.1100   48.7060 N   0  0  0  0  0  0  0  0  0  0  0  0
   35.9130   29.8570   48.7130 C   0  0  0  0  0  0  0  0  0  0  0  0
   36.3310   28.9730   49.6510 N   0  0  0  0  0  0  0  0  0  0  0  0
   37.6130   28.7060   51.3490 H   0  0  0  0  0  0  0  0  0  0  0  0
   38.4750   31.0400   51.2780 H   0  0  0  0  0  0  0  0  0  0  0  0
   37.6290   32.5950   49.4910 H   0  0  0  0  0  0  0  0  0  0  0  0
   31.4280   26.7900   45.8320 O   0  0  0  0  0  0  0  0  0  0  0  0
   31.2510   28.8750   43.9060 H   0  0  0  0  0  0  0  0  0  0  0  0
   30.3960   28.6220   44.4550 N   0  0  0  0  0  0  0  0  0  0  0  0
   30.4400   27.6390   45.3760 C   0  0  0  0  0  0  0  0  0  0  0  0
   29.2150   27.5330   45.9170 N   0  0  0  0  0  0  0  0  0  0  0  0
   28.3970   28.4300   45.3560 C   0  0  0  0  0  0  0  0  0  0  0  0
   27.0740   28.7980   45.4800 C   0  0  0  0  0  0  0  0  0  0  0  0
   26.5380   29.7940   44.7210 N   0  0  0  0  0  0  0  0  0  0  0  0
   27.3410   30.4270   43.8300 C   0  0  0  0  0  0  0  0  0  0  0  0
   26.8140   31.2090   43.2730 H   0  0  0  0  0  0  0  0  0  0  0  0
   28.6360   30.1120   43.6660 N   0  0  0  0  0  0  0  0  0  0  0  0
   29.1540   29.1290   44.4170 C   0  0  0  0  0  0  0  0  0  0  0  0
   26.2690   28.1130   46.4220 N   0  0  0  0  0  0  0  0  0  0  0  0
   25.7380   28.7220   47.0910 H   0  0  0  0  0  0  0  0  0  0  0  0
   26.1520   27.0640   46.5150 H   0  0  0  0  0  0  0  0  0  0  0  0
  1  6  1  1  0  0  0
  1  2  1  0  0  0  0
  2  7  1  1  0  0  0
  3  2  1  0  0  0  0
  4  8  1  0  0  0  0
  4  3  1  0  0  0  0
  5 10  1  6  0  0  0
  5  4  1  0  0  0  0
  5  1  1  0  0  0  0
  9  4  1  0  0  0  0
 11  1  1  0  0  0  0
 11 12  1  0  0  0  0
 13  2  1  0  0  0  0
 13 18  1  0  0  0  0
 14 15  1  0  0  0  0
 14 20  1  0  0  0  0
 15 21  1  0  0  0  0
 16 15  2  0  0  0  0
 17 18  2  0  0  0  0
 17 16  1  0  0  0  0
 18 19  1  0  0  0  0
 19 14  2  0  0  0  0
 22 16  1  0  0  0  0
 23  5  1  0  0  0  0
 24 25  1  0  0  0  0
 25 26  1  0  0  0  0
 26 23  1  0  0  0  0
 26 27  2  0  0  0  0
 28 29  1  0  0  0  0
 28 27  1  0  0  0  0
 29 35  1  0  0  0  0
 30 29  2  0  0  0  0
 31 30  1  0  0  0  0
 32 31  1  0  0  0  0
 33 31  2  0  0  0  0
 33 34  1  0  0  0  0
 34 25  1  0  0  0  0
 34 28  2  0  0  0  0
 35 37  1  0  0  0  0
 35 36  1  0  0  0  0
M  END
>  <minimizedAffinity>
-4.79986334

>  <minimizedRMSD>
3.43061399

$$$$
