
 OpenBabel03272506443D

 37 40  0  0  1  0  0  0  0  0999 V2000
   32.4070   28.3760   47.4950 C   0  0  2  0  0  0  0  0  0  0  0  0
   33.6390   28.4420   48.3770 C   0  0  1  0  0  0  0  0  0  0  0  0
   34.2030   27.1870   48.4210 O   0  0  0  0  0  0  0  0  0  0  0  0
   33.5480   26.3790   47.5260 C   0  0  0  0  0  0  0  0  0  0  0  0
   32.8610   27.3210   46.5240 C   0  0  1  0  0  0  0  0  0  0  0  0
   31.5250   27.9940   48.0550 H   0  0  0  0  0  0  0  0  0  0  0  0
   33.3540   28.8350   49.3670 H   0  0  0  0  0  0  0  0  0  0  0  0
   32.8400   25.6580   47.9620 H   0  0  0  0  0  0  0  0  0  0  0  0
   34.3280   25.8380   46.9350 H   0  0  0  0  0  0  0  0  0  0  0  0
   33.5820   27.6990   45.7880 H   0  0  0  0  0  0  0  0  0  0  0  0
   32.1530   29.6030   46.8920 O   0  0  0  0  0  0  0  0  0  0  0  0
   31.7290   30.1630   47.6090 H   0  0  0  0  0  0  0  0  0  0  0  0
   34.8170   29.5450   47.5330 S   0  0  0  0  0  0  0  0  0  0  0  0
   37.4210   29.5030   50.5070 C   0  0  0  0  0  0  0  0  0  0  0  0
   38.0240   30.7560   50.4990 C   0  0  0  0  0  0  0  0  0  0  0  0
   37.6010   31.6670   49.5160 C   0  0  0  0  0  0  0  0  0  0  0  0
   36.6380   31.2710   48.6430 N   0  0  0  0  0  0  0  0  0  0  0  0
   36.0760   30.0490   48.6830 C   0  0  0  0  0  0  0  0  0  0  0  0
   36.4690   29.1550   49.6220 N   0  0  0  0  0  0  0  0  0  0  0  0
   37.7830   28.8360   51.2870 H   0  0  0  0  0  0  0  0  0  0  0  0
   38.7780   31.1130   51.1550 H   0  0  0  0  0  0  0  0  0  0  0  0
   37.9720   32.6920   49.3700 H   0  0  0  0  0  0  0  0  0  0  0  0
   31.8110   26.6710   45.8980 O   0  0  0  0  0  0  0  0  0  0  0  0
   30.1380   27.5700   43.7800 H   0  0  0  0  0  0  0  0  0  0  0  0
   30.9800   26.9940   43.5470 N   0  0  0  0  0  0  0  0  0  0  0  0
   31.7970   26.5490   44.5230 C   0  0  0  0  0  0  0  0  0  0  0  0
   32.7830   25.8460   43.9410 N   0  0  0  0  0  0  0  0  0  0  0  0
   32.6050   25.8370   42.6160 C   0  0  0  0  0  0  0  0  0  0  0  0
   33.2520   25.3080   41.5190 C   0  0  0  0  0  0  0  0  0  0  0  0
   32.7840   25.4970   40.2550 N   0  0  0  0  0  0  0  0  0  0  0  0
   31.6520   26.2260   40.0920 C   0  0  0  0  0  0  0  0  0  0  0  0
   31.3600   26.3190   39.0390 H   0  0  0  0  0  0  0  0  0  0  0  0
   30.9790   26.7660   41.1210 N   0  0  0  0  0  0  0  0  0  0  0  0
   31.4490   26.5740   42.3610 C   0  0  0  0  0  0  0  0  0  0  0  0
   34.4310   24.5520   41.7320 N   0  0  0  0  0  0  0  0  0  0  0  0
   34.4510   23.6060   41.2800 H   0  0  0  0  0  0  0  0  0  0  0  0
   35.2810   24.8450   42.2930 H   0  0  0  0  0  0  0  0  0  0  0  0
  1  6  1  1  0  0  0
  1  2  1  0  0  0  0
  2  3  1  0  0  0  0
  2  7  1  1  0  0  0
  4  8  1  0  0  0  0
  4  3  1  0  0  0  0
  5 10  1  6  0  0  0
  5  1  1  0  0  0  0
  5  4  1  0  0  0  0
  9  4  1  0  0  0  0
 11  1  1  0  0  0  0
 11 12  1  0  0  0  0
 13  2  1  0  0  0  0
 13 18  1  0  0  0  0
 14 20  1  0  0  0  0
 15 14  1  0  0  0  0
 15 21  1  0  0  0  0
 16 15  2  0  0  0  0
 17 18  2  0  0  0  0
 17 16  1  0  0  0  0
 18 19  1  0  0  0  0
 19 14  2  0  0  0  0
 22 16  1  0  0  0  0
 23  5  1  0  0  0  0
 25 24  1  0  0  0  0
 25 26  1  0  0  0  0
 26 23  1  0  0  0  0
 27 26  2  0  0  0  0
 28 27  1  0  0  0  0
 29 35  1  0  0  0  0
 29 28  2  0  0  0  0
 30 29  1  0  0  0  0
 31 30  2  0  0  0  0
 31 33  1  0  0  0  0
 32 31  1  0  0  0  0
 33 34  2  0  0  0  0
 34 28  1  0  0  0  0
 34 25  1  0  0  0  0
 35 37  1  0  0  0  0
 36 35  1  0  0  0  0
M  END
>  <minimizedAffinity>
-3.70865178

>  <minimizedRMSD>
0.202417016

$$$$
