
 OpenBabel03272506443D

 37 40  0  0  1  0  0  0  0  0999 V2000
   32.2550   28.3980   47.4770 C   0  0  2  0  0  0  0  0  0  0  0  0
   33.5260   28.2650   48.2930 C   0  0  1  0  0  0  0  0  0  0  0  0
   33.9780   26.9700   48.1730 O   0  0  0  0  0  0  0  0  0  0  0  0
   33.2140   26.3230   47.2350 C   0  0  0  0  0  0  0  0  0  0  0  0
   32.5690   27.4230   46.3770 C   0  0  1  0  0  0  0  0  0  0  0  0
   31.3680   28.0330   48.0410 H   0  0  0  0  0  0  0  0  0  0  0  0
   33.3220   28.5680   49.3330 H   0  0  0  0  0  0  0  0  0  0  0  0
   32.4650   25.6200   47.6300 H   0  0  0  0  0  0  0  0  0  0  0  0
   33.9150   25.7870   46.5470 H   0  0  0  0  0  0  0  0  0  0  0  0
   33.2870   27.8190   45.6460 H   0  0  0  0  0  0  0  0  0  0  0  0
   32.0830   29.7020   47.0220 O   0  0  0  0  0  0  0  0  0  0  0  0
   31.7440   30.2120   47.8170 H   0  0  0  0  0  0  0  0  0  0  0  0
   34.7580   29.3530   47.5080 S   0  0  0  0  0  0  0  0  0  0  0  0
   37.2600   29.3370   50.5680 C   0  0  0  0  0  0  0  0  0  0  0  0
   37.7600   30.6310   50.6530 C   0  0  0  0  0  0  0  0  0  0  0  0
   37.2970   31.5640   49.7090 C   0  0  0  0  0  0  0  0  0  0  0  0
   36.3970   31.1470   48.7800 N   0  0  0  0  0  0  0  0  0  0  0  0
   35.9350   29.8840   48.7290 C   0  0  0  0  0  0  0  0  0  0  0  0
   36.3680   28.9690   49.6300 N   0  0  0  0  0  0  0  0  0  0  0  0
   37.6500   28.6560   51.3210 H   0  0  0  0  0  0  0  0  0  0  0  0
   38.4620   31.0070   51.3560 H   0  0  0  0  0  0  0  0  0  0  0  0
   37.5880   32.6210   49.6350 H   0  0  0  0  0  0  0  0  0  0  0  0
   31.4380   26.9350   45.7430 O   0  0  0  0  0  0  0  0  0  0  0  0
   31.2600   29.1330   43.9450 H   0  0  0  0  0  0  0  0  0  0  0  0
   30.4040   28.8430   44.4730 N   0  0  0  0  0  0  0  0  0  0  0  0
   30.4490   27.8070   45.3340 C   0  0  0  0  0  0  0  0  0  0  0  0
   29.2220   27.6600   45.8620 N   0  0  0  0  0  0  0  0  0  0  0  0
   28.4010   28.5850   45.3510 C   0  0  0  0  0  0  0  0  0  0  0  0
   27.0760   28.9390   45.4900 C   0  0  0  0  0  0  0  0  0  0  0  0
   26.5380   29.9760   44.7910 N   0  0  0  0  0  0  0  0  0  0  0  0
   27.3420   30.6650   43.9430 C   0  0  0  0  0  0  0  0  0  0  0  0
   26.8130   31.4780   43.4320 H   0  0  0  0  0  0  0  0  0  0  0  0
   28.6380   30.3670   43.7670 N   0  0  0  0  0  0  0  0  0  0  0  0
   29.1580   29.3440   44.4600 C   0  0  0  0  0  0  0  0  0  0  0  0
   26.2700   28.1940   46.3850 N   0  0  0  0  0  0  0  0  0  0  0  0
   25.7330   28.7590   47.0870 H   0  0  0  0  0  0  0  0  0  0  0  0
   26.1580   27.1400   46.4130 H   0  0  0  0  0  0  0  0  0  0  0  0
  1  6  1  1  0  0  0
  1  2  1  0  0  0  0
  2  7  1  1  0  0  0
  3  2  1  0  0  0  0
  4  8  1  0  0  0  0
  4  3  1  0  0  0  0
  5 10  1  6  0  0  0
  5  4  1  0  0  0  0
  5  1  1  0  0  0  0
  9  4  1  0  0  0  0
 11  1  1  0  0  0  0
 11 12  1  0  0  0  0
 13  2  1  0  0  0  0
 13 18  1  0  0  0  0
 14 15  1  0  0  0  0
 14 20  1  0  0  0  0
 15 21  1  0  0  0  0
 16 15  2  0  0  0  0
 17 16  1  0  0  0  0
 18 17  2  0  0  0  0
 18 19  1  0  0  0  0
 19 14  2  0  0  0  0
 22 16  1  0  0  0  0
 23  5  1  0  0  0  0
 24 25  1  0  0  0  0
 25 26  1  0  0  0  0
 26 23  1  0  0  0  0
 26 27  2  0  0  0  0
 28 29  1  0  0  0  0
 28 27  1  0  0  0  0
 29 35  1  0  0  0  0
 30 29  2  0  0  0  0
 31 30  1  0  0  0  0
 32 31  1  0  0  0  0
 33 31  2  0  0  0  0
 33 34  1  0  0  0  0
 34 25  1  0  0  0  0
 34 28  2  0  0  0  0
 35 37  1  0  0  0  0
 35 36  1  0  0  0  0
M  END
>  <minimizedAffinity>
-4.81971836

>  <minimizedRMSD>
3.41212869

$$$$
