
 OpenBabel03272506443D

 37 40  0  0  1  0  0  0  0  0999 V2000
   32.3930   28.3710   47.4840 C   0  0  2  0  0  0  0  0  0  0  0  0
   33.6280   28.4250   48.3630 C   0  0  1  0  0  0  0  0  0  0  0  0
   34.1890   27.1670   48.3900 O   0  0  0  0  0  0  0  0  0  0  0  0
   33.5290   26.3710   47.4900 C   0  0  0  0  0  0  0  0  0  0  0  0
   32.8410   27.3250   46.5000 C   0  0  1  0  0  0  0  0  0  0  0  0
   31.5120   27.9860   48.0430 H   0  0  0  0  0  0  0  0  0  0  0  0
   33.3480   28.8070   49.3570 H   0  0  0  0  0  0  0  0  0  0  0  0
   32.8200   25.6470   47.9210 H   0  0  0  0  0  0  0  0  0  0  0  0
   34.3050   25.8340   46.8890 H   0  0  0  0  0  0  0  0  0  0  0  0
   33.5600   27.7090   45.7650 H   0  0  0  0  0  0  0  0  0  0  0  0
   32.1410   29.6050   46.8940 O   0  0  0  0  0  0  0  0  0  0  0  0
   31.7210   30.1580   47.6200 H   0  0  0  0  0  0  0  0  0  0  0  0
   34.8070   29.5330   47.5250 S   0  0  0  0  0  0  0  0  0  0  0  0
   37.3910   29.4930   50.5170 C   0  0  0  0  0  0  0  0  0  0  0  0
   38.0000   30.7420   50.5070 C   0  0  0  0  0  0  0  0  0  0  0  0
   37.5870   31.6510   49.5170 C   0  0  0  0  0  0  0  0  0  0  0  0
   36.6280   31.2560   48.6400 N   0  0  0  0  0  0  0  0  0  0  0  0
   36.0610   30.0370   48.6810 C   0  0  0  0  0  0  0  0  0  0  0  0
   36.4440   29.1440   49.6270 N   0  0  0  0  0  0  0  0  0  0  0  0
   37.7460   28.8280   51.3010 H   0  0  0  0  0  0  0  0  0  0  0  0
   38.7510   31.1000   51.1660 H   0  0  0  0  0  0  0  0  0  0  0  0
   37.9630   32.6740   49.3690 H   0  0  0  0  0  0  0  0  0  0  0  0
   31.7870   26.6840   45.8710 O   0  0  0  0  0  0  0  0  0  0  0  0
   30.2250   27.8700   43.8110 H   0  0  0  0  0  0  0  0  0  0  0  0
   30.9830   27.1990   43.5450 N   0  0  0  0  0  0  0  0  0  0  0  0
   31.7450   26.6170   44.4930 C   0  0  0  0  0  0  0  0  0  0  0  0
   32.6260   25.8160   43.8720 N   0  0  0  0  0  0  0  0  0  0  0  0
   32.4370   25.8800   42.5500 C   0  0  0  0  0  0  0  0  0  0  0  0
   33.0000   25.3140   41.4260 C   0  0  0  0  0  0  0  0  0  0  0  0
   32.5480   25.6090   40.1760 N   0  0  0  0  0  0  0  0  0  0  0  0
   31.5180   26.4820   40.0550 C   0  0  0  0  0  0  0  0  0  0  0  0
   31.2310   26.6500   39.0110 H   0  0  0  0  0  0  0  0  0  0  0  0
   30.9300   27.0650   41.1120 N   0  0  0  0  0  0  0  0  0  0  0  0
   31.3830   26.7670   42.3380 C   0  0  0  0  0  0  0  0  0  0  0  0
   34.0740   24.4060   41.5950 N   0  0  0  0  0  0  0  0  0  0  0  0
   33.9670   23.4820   41.1090 H   0  0  0  0  0  0  0  0  0  0  0  0
   34.9600   24.5660   42.1550 H   0  0  0  0  0  0  0  0  0  0  0  0
  1  6  1  1  0  0  0
  1  2  1  0  0  0  0
  2  3  1  0  0  0  0
  2  7  1  1  0  0  0
  4  8  1  0  0  0  0
  4  3  1  0  0  0  0
  5 10  1  6  0  0  0
  5  1  1  0  0  0  0
  5  4  1  0  0  0  0
  9  4  1  0  0  0  0
 11  1  1  0  0  0  0
 11 12  1  0  0  0  0
 13  2  1  0  0  0  0
 13 18  1  0  0  0  0
 14 20  1  0  0  0  0
 15 14  1  0  0  0  0
 15 21  1  0  0  0  0
 16 15  2  0  0  0  0
 17 18  2  0  0  0  0
 17 16  1  0  0  0  0
 18 19  1  0  0  0  0
 19 14  2  0  0  0  0
 22 16  1  0  0  0  0
 23  5  1  0  0  0  0
 25 24  1  0  0  0  0
 25 26  1  0  0  0  0
 26 23  1  0  0  0  0
 27 26  2  0  0  0  0
 28 27  1  0  0  0  0
 29 35  1  0  0  0  0
 29 28  2  0  0  0  0
 30 29  1  0  0  0  0
 31 30  2  0  0  0  0
 31 33  1  0  0  0  0
 32 31  1  0  0  0  0
 33 34  2  0  0  0  0
 34 28  1  0  0  0  0
 34 25  1  0  0  0  0
 35 37  1  0  0  0  0
 36 35  1  0  0  0  0
M  END
>  <minimizedAffinity>
-3.6886642

>  <minimizedRMSD>
0.0698540583

$$$$
