
 OpenBabel03272506443D

 37 40  0  0  1  0  0  0  0  0999 V2000
   32.4230   28.3730   47.4680 C   0  0  2  0  0  0  0  0  0  0  0  0
   33.6440   28.4510   48.3640 C   0  0  1  0  0  0  0  0  0  0  0  0
   34.2240   27.2030   48.4070 O   0  0  0  0  0  0  0  0  0  0  0  0
   33.5890   26.3920   47.5010 C   0  0  0  0  0  0  0  0  0  0  0  0
   32.9010   27.3300   46.4970 C   0  0  1  0  0  0  0  0  0  0  0  0
   31.5400   27.9780   48.0170 H   0  0  0  0  0  0  0  0  0  0  0  0
   33.3430   28.8340   49.3530 H   0  0  0  0  0  0  0  0  0  0  0  0
   32.8850   25.6600   47.9260 H   0  0  0  0  0  0  0  0  0  0  0  0
   34.3820   25.8640   46.9150 H   0  0  0  0  0  0  0  0  0  0  0  0
   33.6250   27.7220   45.7700 H   0  0  0  0  0  0  0  0  0  0  0  0
   32.1600   29.6010   46.8680 O   0  0  0  0  0  0  0  0  0  0  0  0
   31.7210   30.1510   47.5850 H   0  0  0  0  0  0  0  0  0  0  0  0
   34.8170   29.5740   47.5390 S   0  0  0  0  0  0  0  0  0  0  0  0
   37.4030   29.5000   50.5290 C   0  0  0  0  0  0  0  0  0  0  0  0
   38.0190   30.7460   50.5250 C   0  0  0  0  0  0  0  0  0  0  0  0
   37.6120   31.6630   49.5410 C   0  0  0  0  0  0  0  0  0  0  0  0
   36.6500   31.2790   48.6620 N   0  0  0  0  0  0  0  0  0  0  0  0
   36.0750   30.0630   48.6960 C   0  0  0  0  0  0  0  0  0  0  0  0
   36.4530   29.1630   49.6370 N   0  0  0  0  0  0  0  0  0  0  0  0
   37.7530   28.8290   51.3090 H   0  0  0  0  0  0  0  0  0  0  0  0
   38.7730   31.0950   51.1860 H   0  0  0  0  0  0  0  0  0  0  0  0
   37.9940   32.6840   49.3980 H   0  0  0  0  0  0  0  0  0  0  0  0
   31.8660   26.6700   45.8560 O   0  0  0  0  0  0  0  0  0  0  0  0
   30.4280   25.1810   43.9040 H   0  0  0  0  0  0  0  0  0  0  0  0
   31.1400   25.8790   43.5830 N   0  0  0  0  0  0  0  0  0  0  0  0
   31.8400   26.6030   44.4770 C   0  0  0  0  0  0  0  0  0  0  0  0
   32.6690   27.4090   43.7910 N   0  0  0  0  0  0  0  0  0  0  0  0
   32.5040   27.2070   42.4790 C   0  0  0  0  0  0  0  0  0  0  0  0
   33.0400   27.7070   41.3110 C   0  0  0  0  0  0  0  0  0  0  0  0
   32.6310   27.2640   40.0920 N   0  0  0  0  0  0  0  0  0  0  0  0
   31.6710   26.3070   40.0450 C   0  0  0  0  0  0  0  0  0  0  0  0
   31.4130   26.0190   39.0190 H   0  0  0  0  0  0  0  0  0  0  0  0
   31.1130   25.7810   41.1480 N   0  0  0  0  0  0  0  0  0  0  0  0
   31.5240   26.2260   42.3440 C   0  0  0  0  0  0  0  0  0  0  0  0
   34.0400   28.7060   41.4020 N   0  0  0  0  0  0  0  0  0  0  0  0
   34.9190   28.5180   40.8610 H   0  0  0  0  0  0  0  0  0  0  0  0
   33.9870   29.6100   41.9540 H   0  0  0  0  0  0  0  0  0  0  0  0
  1  6  1  1  0  0  0
  1  2  1  0  0  0  0
  2  3  1  0  0  0  0
  2  7  1  1  0  0  0
  4  8  1  0  0  0  0
  4  3  1  0  0  0  0
  5 10  1  6  0  0  0
  5  1  1  0  0  0  0
  5  4  1  0  0  0  0
  9  4  1  0  0  0  0
 11  1  1  0  0  0  0
 11 12  1  0  0  0  0
 13  2  1  0  0  0  0
 13 18  1  0  0  0  0
 14 20  1  0  0  0  0
 15 14  1  0  0  0  0
 15 21  1  0  0  0  0
 16 15  2  0  0  0  0
 17 18  2  0  0  0  0
 17 16  1  0  0  0  0
 18 19  1  0  0  0  0
 19 14  2  0  0  0  0
 22 16  1  0  0  0  0
 23  5  1  0  0  0  0
 25 24  1  0  0  0  0
 25 26  1  0  0  0  0
 26 23  1  0  0  0  0
 27 26  2  0  0  0  0
 28 27  1  0  0  0  0
 29 35  1  0  0  0  0
 29 28  2  0  0  0  0
 30 29  1  0  0  0  0
 31 30  2  0  0  0  0
 31 33  1  0  0  0  0
 32 31  1  0  0  0  0
 33 34  2  0  0  0  0
 34 28  1  0  0  0  0
 34 25  1  0  0  0  0
 35 37  1  0  0  0  0
 36 35  1  0  0  0  0
M  END
>  <minimizedAffinity>
-3.7128098

>  <minimizedRMSD>
0.098846212

$$$$
