
 OpenBabel03272506443D

 37 40  0  0  1  0  0  0  0  0999 V2000
   32.4050   28.3360   47.5670 C   0  0  2  0  0  0  0  0  0  0  0  0
   33.6760   28.3690   48.3950 C   0  0  1  0  0  0  0  0  0  0  0  0
   34.2570   27.1220   48.3360 O   0  0  0  0  0  0  0  0  0  0  0  0
   33.5710   26.3590   47.4260 C   0  0  0  0  0  0  0  0  0  0  0  0
   32.8260   27.3470   46.5150 C   0  0  1  0  0  0  0  0  0  0  0  0
   31.5550   27.9090   48.1440 H   0  0  0  0  0  0  0  0  0  0  0  0
   33.4330   28.6970   49.4180 H   0  0  0  0  0  0  0  0  0  0  0  0
   32.8930   25.6030   47.8500 H   0  0  0  0  0  0  0  0  0  0  0  0
   34.3290   25.8650   46.7680 H   0  0  0  0  0  0  0  0  0  0  0  0
   33.5070   27.7800   45.7700 H   0  0  0  0  0  0  0  0  0  0  0  0
   32.1080   29.5930   47.0510 O   0  0  0  0  0  0  0  0  0  0  0  0
   31.7120   30.1020   47.8200 H   0  0  0  0  0  0  0  0  0  0  0  0
   34.8000   29.5380   47.5640 S   0  0  0  0  0  0  0  0  0  0  0  0
   37.4120   29.5060   50.5320 C   0  0  0  0  0  0  0  0  0  0  0  0
   38.0270   30.7520   50.5060 C   0  0  0  0  0  0  0  0  0  0  0  0
   37.6100   31.6560   49.5130 C   0  0  0  0  0  0  0  0  0  0  0  0
   36.6410   31.2590   48.6480 N   0  0  0  0  0  0  0  0  0  0  0  0
   36.0670   30.0430   48.7040 C   0  0  0  0  0  0  0  0  0  0  0  0
   36.4540   29.1560   49.6530 N   0  0  0  0  0  0  0  0  0  0  0  0
   37.7700   28.8450   51.3180 H   0  0  0  0  0  0  0  0  0  0  0  0
   38.7870   31.1110   51.1560 H   0  0  0  0  0  0  0  0  0  0  0  0
   37.9900   32.6750   49.3540 H   0  0  0  0  0  0  0  0  0  0  0  0
   31.7560   26.7200   45.9000 O   0  0  0  0  0  0  0  0  0  0  0  0
   31.9210   28.9980   44.2040 H   0  0  0  0  0  0  0  0  0  0  0  0
   31.5520   28.1010   43.8100 N   0  0  0  0  0  0  0  0  0  0  0  0
   31.4580   27.0000   44.5820 C   0  0  0  0  0  0  0  0  0  0  0  0
   30.9550   26.0110   43.8240 N   0  0  0  0  0  0  0  0  0  0  0  0
   30.7310   26.4650   42.5860 C   0  0  0  0  0  0  0  0  0  0  0  0
   30.2440   25.9540   41.4020 C   0  0  0  0  0  0  0  0  0  0  0  0
   30.1430   26.7230   40.2830 N   0  0  0  0  0  0  0  0  0  0  0  0
   30.5350   28.0180   40.3540 C   0  0  0  0  0  0  0  0  0  0  0  0
   30.4130   28.5470   39.4020 H   0  0  0  0  0  0  0  0  0  0  0  0
   31.0160   28.5710   41.4790 N   0  0  0  0  0  0  0  0  0  0  0  0
   31.1120   27.8070   42.5760 C   0  0  0  0  0  0  0  0  0  0  0  0
   29.8440   24.5960   41.3670 N   0  0  0  0  0  0  0  0  0  0  0  0
   28.8820   24.4160   40.9890 H   0  0  0  0  0  0  0  0  0  0  0  0
   30.4120   23.7580   41.6820 H   0  0  0  0  0  0  0  0  0  0  0  0
  1  6  1  1  0  0  0
  1  2  1  0  0  0  0
  2  7  1  1  0  0  0
  3  2  1  0  0  0  0
  4  8  1  0  0  0  0
  4  3  1  0  0  0  0
  5 10  1  6  0  0  0
  5  4  1  0  0  0  0
  5  1  1  0  0  0  0
  9  4  1  0  0  0  0
 11  1  1  0  0  0  0
 11 12  1  0  0  0  0
 13  2  1  0  0  0  0
 13 18  1  0  0  0  0
 14 20  1  0  0  0  0
 15 14  1  0  0  0  0
 15 21  1  0  0  0  0
 16 15  2  0  0  0  0
 17 18  2  0  0  0  0
 17 16  1  0  0  0  0
 18 19  1  0  0  0  0
 19 14  2  0  0  0  0
 22 16  1  0  0  0  0
 23  5  1  0  0  0  0
 25 24  1  0  0  0  0
 25 26  1  0  0  0  0
 26 23  1  0  0  0  0
 27 26  2  0  0  0  0
 28 27  1  0  0  0  0
 29 28  2  0  0  0  0
 30 31  2  0  0  0  0
 30 29  1  0  0  0  0
 31 33  1  0  0  0  0
 32 31  1  0  0  0  0
 33 34  2  0  0  0  0
 34 28  1  0  0  0  0
 34 25  1  0  0  0  0
 35 29  1  0  0  0  0
 35 37  1  0  0  0  0
 36 35  1  0  0  0  0
M  END
>  <minimizedAffinity>
-3.70504069

>  <minimizedRMSD>
0.865874887

$$$$
