
 OpenBabel03272506443D

 37 40  0  0  1  0  0  0  0  0999 V2000
   32.2400   28.2270   47.5440 C   0  0  2  0  0  0  0  0  0  0  0  0
   33.5110   28.1500   48.3690 C   0  0  1  0  0  0  0  0  0  0  0  0
   34.0460   26.8910   48.2150 O   0  0  0  0  0  0  0  0  0  0  0  0
   33.3330   26.2260   47.2500 C   0  0  0  0  0  0  0  0  0  0  0  0
   32.6260   27.3070   46.4190 C   0  0  1  0  0  0  0  0  0  0  0  0
   31.3750   27.7880   48.0880 H   0  0  0  0  0  0  0  0  0  0  0  0
   33.2790   28.4080   49.4150 H   0  0  0  0  0  0  0  0  0  0  0  0
   32.6280   25.4640   47.6170 H   0  0  0  0  0  0  0  0  0  0  0  0
   34.0730   25.7560   46.5550 H   0  0  0  0  0  0  0  0  0  0  0  0
   33.3220   27.7700   45.7080 H   0  0  0  0  0  0  0  0  0  0  0  0
   31.9890   29.5300   47.1260 O   0  0  0  0  0  0  0  0  0  0  0  0
   31.6110   29.9930   47.9330 H   0  0  0  0  0  0  0  0  0  0  0  0
   34.6770   29.3380   47.6280 S   0  0  0  0  0  0  0  0  0  0  0  0
   37.2780   29.2570   50.6040 C   0  0  0  0  0  0  0  0  0  0  0  0
   37.6760   30.5760   50.7930 C   0  0  0  0  0  0  0  0  0  0  0  0
   37.1080   31.5470   49.9510 C   0  0  0  0  0  0  0  0  0  0  0  0
   36.2120   31.1410   49.0130 N   0  0  0  0  0  0  0  0  0  0  0  0
   35.8500   29.8540   48.8600 C   0  0  0  0  0  0  0  0  0  0  0  0
   36.3860   28.9010   49.6610 N   0  0  0  0  0  0  0  0  0  0  0  0
   37.7470   28.5460   51.2800 H   0  0  0  0  0  0  0  0  0  0  0  0
   38.3700   30.9450   51.5070 H   0  0  0  0  0  0  0  0  0  0  0  0
   37.3110   32.6270   49.9660 H   0  0  0  0  0  0  0  0  0  0  0  0
   31.5340   26.7680   45.7600 O   0  0  0  0  0  0  0  0  0  0  0  0
   28.7840   26.9580   46.4630 H   0  0  0  0  0  0  0  0  0  0  0  0
   29.1750   27.6360   45.7690 N   0  0  0  0  0  0  0  0  0  0  0  0
   30.4720   27.5770   45.4090 C   0  0  0  0  0  0  0  0  0  0  0  0
   30.6930   28.5550   44.5140 N   0  0  0  0  0  0  0  0  0  0  0  0
   29.5590   29.2300   44.3000 C   0  0  0  0  0  0  0  0  0  0  0  0
   29.1570   30.2970   43.5260 C   0  0  0  0  0  0  0  0  0  0  0  0
   27.8720   30.7490   43.5460 N   0  0  0  0  0  0  0  0  0  0  0  0
   26.9830   30.1230   44.3550 C   0  0  0  0  0  0  0  0  0  0  0  0
   25.9810   30.5630   44.2990 H   0  0  0  0  0  0  0  0  0  0  0  0
   27.3170   29.0790   45.1320 N   0  0  0  0  0  0  0  0  0  0  0  0
   28.5840   28.6420   45.1040 C   0  0  0  0  0  0  0  0  0  0  0  0
   30.1160   30.9250   42.6930 N   0  0  0  0  0  0  0  0  0  0  0  0
   29.8400   31.0360   41.6870 H   0  0  0  0  0  0  0  0  0  0  0  0
   31.0670   31.2880   42.9830 H   0  0  0  0  0  0  0  0  0  0  0  0
  1  6  1  1  0  0  0
  1  2  1  0  0  0  0
  2  7  1  1  0  0  0
  3  2  1  0  0  0  0
  4  8  1  0  0  0  0
  4  3  1  0  0  0  0
  5 10  1  6  0  0  0
  5  4  1  0  0  0  0
  5  1  1  0  0  0  0
  9  4  1  0  0  0  0
 11  1  1  0  0  0  0
 11 12  1  0  0  0  0
 13  2  1  0  0  0  0
 13 18  1  0  0  0  0
 14 15  1  0  0  0  0
 14 20  1  0  0  0  0
 15 21  1  0  0  0  0
 16 22  1  0  0  0  0
 16 15  2  0  0  0  0
 17 16  1  0  0  0  0
 18 17  2  0  0  0  0
 18 19  1  0  0  0  0
 19 14  2  0  0  0  0
 23  5  1  0  0  0  0
 25 24  1  0  0  0  0
 26 23  1  0  0  0  0
 26 25  1  0  0  0  0
 27 26  2  0  0  0  0
 28 27  1  0  0  0  0
 28 34  1  0  0  0  0
 29 30  1  0  0  0  0
 29 28  2  0  0  0  0
 30 31  2  0  0  0  0
 31 33  1  0  0  0  0
 32 31  1  0  0  0  0
 34 33  2  0  0  0  0
 34 25  1  0  0  0  0
 35 37  1  0  0  0  0
 35 29  1  0  0  0  0
 36 35  1  0  0  0  0
M  END
>  <minimizedAffinity>
-4.42308807

>  <minimizedRMSD>
2.99728847

$$$$
