
 OpenBabel03272506433D

 37 40  0  0  1  0  0  0  0  0999 V2000
   32.2430   28.2770   47.5450 C   0  0  2  0  0  0  0  0  0  0  0  0
   33.5350   28.1790   48.3340 C   0  0  1  0  0  0  0  0  0  0  0  0
   34.0190   26.8970   48.2040 O   0  0  0  0  0  0  0  0  0  0  0  0
   33.2520   26.2280   47.2840 C   0  0  0  0  0  0  0  0  0  0  0  0
   32.5590   27.3090   46.4400 C   0  0  1  0  0  0  0  0  0  0  0  0
   31.3790   27.8890   48.1290 H   0  0  0  0  0  0  0  0  0  0  0  0
   33.3460   28.4790   49.3770 H   0  0  0  0  0  0  0  0  0  0  0  0
   32.5310   25.5060   47.6960 H   0  0  0  0  0  0  0  0  0  0  0  0
   33.9520   25.7100   46.5820 H   0  0  0  0  0  0  0  0  0  0  0  0
   33.2500   27.7230   45.6930 H   0  0  0  0  0  0  0  0  0  0  0  0
   32.0270   29.5750   47.0930 O   0  0  0  0  0  0  0  0  0  0  0  0
   31.6910   30.0770   47.8950 H   0  0  0  0  0  0  0  0  0  0  0  0
   34.7200   29.2980   47.5200 S   0  0  0  0  0  0  0  0  0  0  0  0
   37.2350   29.3620   50.5690 C   0  0  0  0  0  0  0  0  0  0  0  0
   37.7630   30.6480   50.5950 C   0  0  0  0  0  0  0  0  0  0  0  0
   37.3150   31.5480   49.6140 C   0  0  0  0  0  0  0  0  0  0  0  0
   36.4030   31.1100   48.7070 N   0  0  0  0  0  0  0  0  0  0  0  0
   35.9130   29.8570   48.7130 C   0  0  0  0  0  0  0  0  0  0  0  0
   36.3320   28.9720   49.6510 N   0  0  0  0  0  0  0  0  0  0  0  0
   37.6140   28.7060   51.3490 H   0  0  0  0  0  0  0  0  0  0  0  0
   38.4750   31.0390   51.2790 H   0  0  0  0  0  0  0  0  0  0  0  0
   37.6280   32.5950   49.4930 H   0  0  0  0  0  0  0  0  0  0  0  0
   31.4280   26.7900   45.8320 O   0  0  0  0  0  0  0  0  0  0  0  0
   31.2510   28.8760   43.9060 H   0  0  0  0  0  0  0  0  0  0  0  0
   30.3970   28.6220   44.4540 N   0  0  0  0  0  0  0  0  0  0  0  0
   30.4410   27.6400   45.3750 C   0  0  0  0  0  0  0  0  0  0  0  0
   29.2160   27.5320   45.9180 N   0  0  0  0  0  0  0  0  0  0  0  0
   28.3970   28.4290   45.3560 C   0  0  0  0  0  0  0  0  0  0  0  0
   27.0740   28.7970   45.4790 C   0  0  0  0  0  0  0  0  0  0  0  0
   26.5390   29.7930   44.7210 N   0  0  0  0  0  0  0  0  0  0  0  0
   27.3400   30.4250   43.8290 C   0  0  0  0  0  0  0  0  0  0  0  0
   26.8130   31.2090   43.2720 H   0  0  0  0  0  0  0  0  0  0  0  0
   28.6350   30.1110   43.6650 N   0  0  0  0  0  0  0  0  0  0  0  0
   29.1530   29.1290   44.4160 C   0  0  0  0  0  0  0  0  0  0  0  0
   26.2690   28.1130   46.4220 N   0  0  0  0  0  0  0  0  0  0  0  0
   25.7380   28.7220   47.0910 H   0  0  0  0  0  0  0  0  0  0  0  0
   26.1530   27.0640   46.5150 H   0  0  0  0  0  0  0  0  0  0  0  0
  1  6  1  1  0  0  0
  1  2  1  0  0  0  0
  2  7  1  1  0  0  0
  3  2  1  0  0  0  0
  4  8  1  0  0  0  0
  4  3  1  0  0  0  0
  5 10  1  6  0  0  0
  5  4  1  0  0  0  0
  5  1  1  0  0  0  0
  9  4  1  0  0  0  0
 11  1  1  0  0  0  0
 11 12  1  0  0  0  0
 13  2  1  0  0  0  0
 13 18  1  0  0  0  0
 14 15  1  0  0  0  0
 14 20  1  0  0  0  0
 15 21  1  0  0  0  0
 16 15  2  0  0  0  0
 17 18  2  0  0  0  0
 17 16  1  0  0  0  0
 18 19  1  0  0  0  0
 19 14  2  0  0  0  0
 22 16  1  0  0  0  0
 23  5  1  0  0  0  0
 24 25  1  0  0  0  0
 25 26  1  0  0  0  0
 26 23  1  0  0  0  0
 26 27  2  0  0  0  0
 28 29  1  0  0  0  0
 28 27  1  0  0  0  0
 29 35  1  0  0  0  0
 30 29  2  0  0  0  0
 31 30  1  0  0  0  0
 32 31  1  0  0  0  0
 33 31  2  0  0  0  0
 33 34  1  0  0  0  0
 34 25  1  0  0  0  0
 34 28  2  0  0  0  0
 35 37  1  0  0  0  0
 35 36  1  0  0  0  0
M  END
>  <minimizedAffinity>
-4.79998779

>  <minimizedRMSD>
3.23687553

$$$$
