
 OpenBabel03272502173D

 38 41  0  0  1  0  0  0  0  0999 V2000
   37.3830   30.6520   48.8750 C   0  0  0  0  0  0  0  0  0  0  0  0
   37.5730   31.5930   49.8950 C   0  0  0  0  0  0  0  0  0  0  0  0
   38.3570   32.7140   49.6160 C   0  0  0  0  0  0  0  0  0  0  0  0
   38.8930   32.8210   48.3530 N   0  0  0  0  0  0  0  0  0  0  0  0
   38.6880   31.9030   47.4110 C   0  0  0  0  0  0  0  0  0  0  0  0
   37.9400   30.8320   47.6740 N   0  0  0  0  0  0  0  0  0  0  0  0
   37.2030   31.5940   50.8910 H   0  0  0  0  0  0  0  0  0  0  0  0
   38.5640   33.4910   50.3260 H   0  0  0  0  0  0  0  0  0  0  0  0
   39.2350   32.0000   46.1010 N   0  0  0  0  0  0  0  0  0  0  0  0
   40.2060   32.8480   45.6540 C   0  0  0  0  0  0  0  0  0  0  0  0
   40.6480   33.5580   46.3490 H   0  0  0  0  0  0  0  0  0  0  0  0
   40.4180   32.5940   44.3340 N   0  0  0  0  0  0  0  0  0  0  0  0
   39.5990   31.6180   43.9840 C   0  0  0  0  0  0  0  0  0  0  0  0
   39.4490   31.0130   42.7400 C   0  0  0  0  0  0  0  0  0  0  0  0
   38.5270   30.0270   42.6600 N   0  0  0  0  0  0  0  0  0  0  0  0
   37.8000   29.6620   43.7470 C   0  0  0  0  0  0  0  0  0  0  0  0
   37.0880   28.8500   43.5450 H   0  0  0  0  0  0  0  0  0  0  0  0
   37.9540   30.2530   44.9450 N   0  0  0  0  0  0  0  0  0  0  0  0
   38.8560   31.2410   45.0840 C   0  0  0  0  0  0  0  0  0  0  0  0
   40.2370   31.4320   41.6290 N   0  0  0  0  0  0  0  0  0  0  0  0
   39.7390   31.8630   40.8210 H   0  0  0  0  0  0  0  0  0  0  0  0
   41.2180   31.1770   41.9260 H   0  0  0  0  0  0  0  0  0  0  0  0
   36.3680   29.2930   49.3870 S   0  0  0  0  0  0  0  0  0  0  0  0
   33.8160   28.4310   49.0850 N   0  0  0  0  0  0  0  0  0  0  0  0
   34.5830   29.6450   49.0900 C   0  0  2  0  0  0  0  0  0  0  0  0
   34.4490   30.3100   47.7350 C   0  0  0  0  0  0  0  0  0  0  0  0
   33.3420   29.7840   47.0390 O   0  0  0  0  0  0  0  0  0  0  0  0
   33.7150   28.4820   46.7030 C   0  0  0  0  0  0  0  0  0  0  0  0
   34.1820   27.6850   47.8980 C   0  0  2  0  0  0  0  0  0  0  0  0
   34.0090   27.8770   49.9450 H   0  0  0  0  0  0  0  0  0  0  0  0
   34.1990   30.2690   49.9220 H   0  0  0  0  0  0  0  0  0  0  0  0
   34.2160   31.3780   47.9180 H   0  0  0  0  0  0  0  0  0  0  0  0
   35.3650   30.2730   47.1310 H   0  0  0  0  0  0  0  0  0  0  0  0
   34.5600   28.5450   45.9690 H   0  0  0  0  0  0  0  0  0  0  0  0
   32.8760   28.0050   46.1710 H   0  0  0  0  0  0  0  0  0  0  0  0
   35.2800   27.5200   47.8440 H   0  0  0  0  0  0  0  0  0  0  0  0
   33.5200   26.4400   47.9510 O   0  0  0  0  0  0  0  0  0  0  0  0
   33.8920   25.9030   47.2090 H   0  0  0  0  0  0  0  0  0  0  0  0
  1 23  1  0  0  0  0
  1  2  1  0  0  0  0
  2  7  1  0  0  0  0
  3  2  2  0  0  0  0
  3  8  1  0  0  0  0
  4  3  1  0  0  0  0
  5  6  1  0  0  0  0
  5  4  2  0  0  0  0
  6  1  2  0  0  0  0
  9  5  1  0  0  0  0
 10  9  1  0  0  0  0
 10 11  1  0  0  0  0
 12 10  2  0  0  0  0
 13 12  1  0  0  0  0
 13 19  1  0  0  0  0
 14 13  2  0  0  0  0
 15 14  1  0  0  0  0
 15 16  2  0  0  0  0
 16 18  1  0  0  0  0
 17 16  1  0  0  0  0
 18 19  2  0  0  0  0
 19  9  1  0  0  0  0
 20 22  1  0  0  0  0
 20 14  1  0  0  0  0
 21 20  1  0  0  0  0
 24 25  1  0  0  0  0
 24 30  1  0  0  0  0
 25 23  1  0  0  0  0
 25 31  1  1  0  0  0
 26 32  1  0  0  0  0
 26 25  1  0  0  0  0
 27 26  1  0  0  0  0
 28 27  1  0  0  0  0
 28 29  1  0  0  0  0
 29 36  1  6  0  0  0
 29 37  1  0  0  0  0
 29 24  1  0  0  0  0
 33 26  1  0  0  0  0
 34 28  1  0  0  0  0
 35 28  1  0  0  0  0
 38 37  1  0  0  0  0
M  END
>  <minimizedAffinity>
-6.39661884

>  <minimizedRMSD>
0.91723001

$$$$
