
 OpenBabel03272502193D

 38 41  0  0  1  0  0  0  0  0999 V2000
   37.8280   25.7530   31.7320 C   0  0  0  0  0  0  0  0  0  0  0  0
   36.6470   25.2400   31.1820 C   0  0  0  0  0  0  0  0  0  0  0  0
   36.2200   23.9790   31.6020 C   0  0  0  0  0  0  0  0  0  0  0  0
   36.9900   23.3210   32.5330 N   0  0  0  0  0  0  0  0  0  0  0  0
   38.1080   23.8440   33.0320 C   0  0  0  0  0  0  0  0  0  0  0  0
   38.5180   25.0480   32.6330 N   0  0  0  0  0  0  0  0  0  0  0  0
   35.9930   25.6710   30.4630 H   0  0  0  0  0  0  0  0  0  0  0  0
   35.3320   23.4980   31.2420 H   0  0  0  0  0  0  0  0  0  0  0  0
   38.9150   23.1770   33.9970 N   0  0  0  0  0  0  0  0  0  0  0  0
   39.9300   22.2940   33.7770 C   0  0  0  0  0  0  0  0  0  0  0  0
   40.1950   22.0350   32.7540 H   0  0  0  0  0  0  0  0  0  0  0  0
   40.4250   21.9030   34.9840 N   0  0  0  0  0  0  0  0  0  0  0  0
   39.7270   22.5320   35.9150 C   0  0  0  0  0  0  0  0  0  0  0  0
   39.8600   22.4580   37.2990 C   0  0  0  0  0  0  0  0  0  0  0  0
   39.0060   23.2150   38.0230 N   0  0  0  0  0  0  0  0  0  0  0  0
   38.0790   23.9980   37.4170 C   0  0  0  0  0  0  0  0  0  0  0  0
   37.4510   24.5590   38.1200 H   0  0  0  0  0  0  0  0  0  0  0  0
   37.9590   24.0610   36.0770 N   0  0  0  0  0  0  0  0  0  0  0  0
   38.7810   23.3300   35.3050 C   0  0  0  0  0  0  0  0  0  0  0  0
   40.8510   21.6210   37.8900 N   0  0  0  0  0  0  0  0  0  0  0  0
   40.5220   20.8210   38.4710 H   0  0  0  0  0  0  0  0  0  0  0  0
   41.7540   22.0590   37.5630 H   0  0  0  0  0  0  0  0  0  0  0  0
   38.2320   27.3570   31.0970 S   0  0  0  0  0  0  0  0  0  0  0  0
   36.9760   28.3740   28.9210 N   0  0  0  0  0  0  0  0  0  0  0  0
   36.7610   28.1570   30.3240 C   0  0  2  0  0  0  0  0  0  0  0  0
   36.5430   29.4990   30.9950 C   0  0  0  0  0  0  0  0  0  0  0  0
   36.2230   30.4800   30.0360 O   0  0  0  0  0  0  0  0  0  0  0  0
   37.4050   30.6850   29.3250 C   0  0  0  0  0  0  0  0  0  0  0  0
   37.9890   29.4010   28.7850 C   0  0  2  0  0  0  0  0  0  0  0  0
   37.2780   27.4910   28.4600 H   0  0  0  0  0  0  0  0  0  0  0  0
   35.8920   27.4760   30.4190 H   0  0  0  0  0  0  0  0  0  0  0  0
   35.6470   29.3980   31.6410 H   0  0  0  0  0  0  0  0  0  0  0  0
   37.3760   29.8130   31.6370 H   0  0  0  0  0  0  0  0  0  0  0  0
   38.1510   31.1450   30.0230 H   0  0  0  0  0  0  0  0  0  0  0  0
   37.2140   31.4330   28.5370 H   0  0  0  0  0  0  0  0  0  0  0  0
   38.9140   29.1350   29.3420 H   0  0  0  0  0  0  0  0  0  0  0  0
   38.2870   29.5320   27.4120 O   0  0  0  0  0  0  0  0  0  0  0  0
   39.0720   30.1320   27.3600 H   0  0  0  0  0  0  0  0  0  0  0  0
  1  6  1  0  0  0  0
  2  3  1  0  0  0  0
  2  1  2  0  0  0  0
  3  4  2  0  0  0  0
  4  5  1  0  0  0  0
  5  9  1  0  0  0  0
  6  5  2  0  0  0  0
  7  2  1  0  0  0  0
  8  3  1  0  0  0  0
  9 19  1  0  0  0  0
 10  9  1  0  0  0  0
 10 12  2  0  0  0  0
 11 10  1  0  0  0  0
 12 13  1  0  0  0  0
 13 14  1  0  0  0  0
 14 20  1  0  0  0  0
 14 15  2  0  0  0  0
 16 15  1  0  0  0  0
 16 17  1  0  0  0  0
 18 16  2  0  0  0  0
 19 13  2  0  0  0  0
 19 18  1  0  0  0  0
 20 21  1  0  0  0  0
 22 20  1  0  0  0  0
 23  1  1  0  0  0  0
 24 25  1  0  0  0  0
 25 31  1  1  0  0  0
 25 26  1  0  0  0  0
 25 23  1  0  0  0  0
 26 33  1  0  0  0  0
 26 32  1  0  0  0  0
 27 26  1  0  0  0  0
 28 34  1  0  0  0  0
 28 27  1  0  0  0  0
 29 24  1  0  0  0  0
 29 28  1  0  0  0  0
 29 36  1  1  0  0  0
 30 24  1  0  0  0  0
 35 28  1  0  0  0  0
 37 29  1  0  0  0  0
 38 37  1  0  0  0  0
M  END
>  <minimizedAffinity>
-6.3278861

$$$$

 OpenBabel03272502193D

 38 41  0  0  1  0  0  0  0  0999 V2000
   38.1340   24.6760   33.5640 C   0  0  0  0  0  0  0  0  0  0  0  0
   37.5850   23.4910   33.0590 C   0  0  0  0  0  0  0  0  0  0  0  0
   36.6410   23.5890   32.0350 C   0  0  0  0  0  0  0  0  0  0  0  0
   36.3110   24.8470   31.5870 N   0  0  0  0  0  0  0  0  0  0  0  0
   36.8570   25.9500   32.0940 C   0  0  0  0  0  0  0  0  0  0  0  0
   37.7590   25.8600   33.0710 N   0  0  0  0  0  0  0  0  0  0  0  0
   37.7750   22.4840   33.3400 H   0  0  0  0  0  0  0  0  0  0  0  0
   36.1610   22.7430   31.5810 H   0  0  0  0  0  0  0  0  0  0  0  0
   36.5280   27.2590   31.6400 N   0  0  0  0  0  0  0  0  0  0  0  0
   35.5210   28.0690   32.0720 C   0  0  0  0  0  0  0  0  0  0  0  0
   34.8590   27.7180   32.8610 H   0  0  0  0  0  0  0  0  0  0  0  0
   35.5740   29.2300   31.3640 N   0  0  0  0  0  0  0  0  0  0  0  0
   36.5880   29.1290   30.5210 C   0  0  0  0  0  0  0  0  0  0  0  0
   37.0390   30.0590   29.5880 C   0  0  0  0  0  0  0  0  0  0  0  0
   38.1080   29.6920   28.8470 N   0  0  0  0  0  0  0  0  0  0  0  0
   38.6950   28.4810   29.0170 C   0  0  0  0  0  0  0  0  0  0  0  0
   39.5510   28.3110   28.3520 H   0  0  0  0  0  0  0  0  0  0  0  0
   38.2490   27.5890   29.9220 N   0  0  0  0  0  0  0  0  0  0  0  0
   37.1890   27.8990   30.6880 C   0  0  0  0  0  0  0  0  0  0  0  0
   36.3900   31.3200   29.4470 N   0  0  0  0  0  0  0  0  0  0  0  0
   35.9190   31.5200   28.5390 H   0  0  0  0  0  0  0  0  0  0  0  0
   36.5630   31.7800   30.3800 H   0  0  0  0  0  0  0  0  0  0  0  0
   39.3120   24.3830   34.8540 S   0  0  0  0  0  0  0  0  0  0  0  0
   38.7930   22.2800   36.4850 N   0  0  0  0  0  0  0  0  0  0  0  0
   39.4420   22.5850   35.2410 C   0  0  2  0  0  0  0  0  0  0  0  0
   40.9110   22.2290   35.3600 C   0  0  0  0  0  0  0  0  0  0  0  0
   41.1200   21.3700   36.4570 O   0  0  0  0  0  0  0  0  0  0  0  0
   40.9080   22.1660   37.5820 C   0  0  0  0  0  0  0  0  0  0  0  0
   39.5770   22.8790   37.5470 C   0  0  2  0  0  0  0  0  0  0  0  0
   37.8210   22.6520   36.4870 H   0  0  0  0  0  0  0  0  0  0  0  0
   38.9180   22.0100   34.4510 H   0  0  0  0  0  0  0  0  0  0  0  0
   41.1790   21.6450   34.4570 H   0  0  0  0  0  0  0  0  0  0  0  0
   41.5760   23.1030   35.3940 H   0  0  0  0  0  0  0  0  0  0  0  0
   41.7200   22.9380   37.6150 H   0  0  0  0  0  0  0  0  0  0  0  0
   41.0350   21.5410   38.4810 H   0  0  0  0  0  0  0  0  0  0  0  0
   39.7280   23.9670   37.3760 H   0  0  0  0  0  0  0  0  0  0  0  0
   38.8790   22.6840   38.7580 O   0  0  0  0  0  0  0  0  0  0  0  0
   39.3600   23.2170   39.4380 H   0  0  0  0  0  0  0  0  0  0  0  0
  1 23  1  0  0  0  0
  2  7  1  0  0  0  0
  2  1  2  0  0  0  0
  3  2  1  0  0  0  0
  4  3  2  0  0  0  0
  4  5  1  0  0  0  0
  5  6  2  0  0  0  0
  6  1  1  0  0  0  0
  8  3  1  0  0  0  0
  9 10  1  0  0  0  0
  9  5  1  0  0  0  0
 10 11  1  0  0  0  0
 12 10  2  0  0  0  0
 13 19  1  0  0  0  0
 13 12  1  0  0  0  0
 14 13  2  0  0  0  0
 15 16  2  0  0  0  0
 15 14  1  0  0  0  0
 16 18  1  0  0  0  0
 17 16  1  0  0  0  0
 18 19  2  0  0  0  0
 19  9  1  0  0  0  0
 20 14  1  0  0  0  0
 20 22  1  0  0  0  0
 21 20  1  0  0  0  0
 23 25  1  0  0  0  0
 24 30  1  0  0  0  0
 24 29  1  0  0  0  0
 25 31  1  6  0  0  0
 25 26  1  0  0  0  0
 25 24  1  0  0  0  0
 26 33  1  0  0  0  0
 26 27  1  0  0  0  0
 27 28  1  0  0  0  0
 28 34  1  0  0  0  0
 28 35  1  0  0  0  0
 29 36  1  6  0  0  0
 29 28  1  0  0  0  0
 29 37  1  0  0  0  0
 32 26  1  0  0  0  0
 37 38  1  0  0  0  0
M  END
>  <minimizedAffinity>
-6.11303234

$$$$

 OpenBabel03272502193D

 38 41  0  0  1  0  0  0  0  0999 V2000
   37.4430   24.6520   32.4540 C   0  0  0  0  0  0  0  0  0  0  0  0
   36.5580   23.7110   31.9140 C   0  0  0  0  0  0  0  0  0  0  0  0
   35.4380   24.1820   31.2260 C   0  0  0  0  0  0  0  0  0  0  0  0
   35.2770   25.5440   31.1230 N   0  0  0  0  0  0  0  0  0  0  0  0
   36.1430   26.4060   31.6510 C   0  0  0  0  0  0  0  0  0  0  0  0
   37.2140   25.9600   32.3080 N   0  0  0  0  0  0  0  0  0  0  0  0
   36.5980   22.6490   31.9440 H   0  0  0  0  0  0  0  0  0  0  0  0
   34.7000   23.5450   30.7770 H   0  0  0  0  0  0  0  0  0  0  0  0
   35.9920   27.8180   31.5520 N   0  0  0  0  0  0  0  0  0  0  0  0
   35.3050   28.6510   32.3850 C   0  0  0  0  0  0  0  0  0  0  0  0
   34.7930   28.2320   33.2480 H   0  0  0  0  0  0  0  0  0  0  0  0
   35.4250   29.9220   31.9130 N   0  0  0  0  0  0  0  0  0  0  0  0
   36.1660   29.8650   30.8190 C   0  0  0  0  0  0  0  0  0  0  0  0
   36.5640   30.9050   29.9830 C   0  0  0  0  0  0  0  0  0  0  0  0
   37.3270   30.5610   28.9210 N   0  0  0  0  0  0  0  0  0  0  0  0
   37.6740   29.2690   28.7000 C   0  0  0  0  0  0  0  0  0  0  0  0
   38.2940   29.1290   27.8050 H   0  0  0  0  0  0  0  0  0  0  0  0
   37.2840   28.2710   29.5140 N   0  0  0  0  0  0  0  0  0  0  0  0
   36.5230   28.5530   30.5870 C   0  0  0  0  0  0  0  0  0  0  0  0
   36.1730   32.2480   30.2580 N   0  0  0  0  0  0  0  0  0  0  0  0
   35.5510   32.7190   29.5680 H   0  0  0  0  0  0  0  0  0  0  0  0
   36.6540   32.4500   31.1750 H   0  0  0  0  0  0  0  0  0  0  0  0
   38.8080   23.8960   33.2930 S   0  0  0  0  0  0  0  0  0  0  0  0
   39.8750   23.8500   35.7840 N   0  0  0  0  0  0  0  0  0  0  0  0
   39.1310   24.7150   34.9130 C   0  0  2  0  0  0  0  0  0  0  0  0
   37.7970   25.0270   35.5620 C   0  0  0  0  0  0  0  0  0  0  0  0
   37.8400   24.7270   36.9380 O   0  0  0  0  0  0  0  0  0  0  0  0
   37.8890   23.3340   37.0000 C   0  0  0  0  0  0  0  0  0  0  0  0
   39.0050   22.7550   36.1640 C   0  0  2  0  0  0  0  0  0  0  0  0
   40.7280   23.4970   35.3020 H   0  0  0  0  0  0  0  0  0  0  0  0
   39.7520   25.6170   34.7400 H   0  0  0  0  0  0  0  0  0  0  0  0
   37.6490   26.1230   35.4920 H   0  0  0  0  0  0  0  0  0  0  0  0
   36.9420   24.5490   35.0670 H   0  0  0  0  0  0  0  0  0  0  0  0
   36.9160   22.9380   36.6110 H   0  0  0  0  0  0  0  0  0  0  0  0
   37.9480   23.0340   38.0590 H   0  0  0  0  0  0  0  0  0  0  0  0
   38.5890   22.2390   35.2710 H   0  0  0  0  0  0  0  0  0  0  0  0
   39.7690   21.8420   36.9220 O   0  0  0  0  0  0  0  0  0  0  0  0
   39.1960   21.0470   37.0480 H   0  0  0  0  0  0  0  0  0  0  0  0
  1 23  1  0  0  0  0
  2  7  1  0  0  0  0
  2  1  2  0  0  0  0
  3  2  1  0  0  0  0
  4  3  2  0  0  0  0
  4  5  1  0  0  0  0
  5  6  2  0  0  0  0
  6  1  1  0  0  0  0
  8  3  1  0  0  0  0
  9  5  1  0  0  0  0
  9 10  1  0  0  0  0
 10 11  1  0  0  0  0
 12 10  2  0  0  0  0
 13 12  1  0  0  0  0
 14 20  1  0  0  0  0
 14 13  2  0  0  0  0
 15 14  1  0  0  0  0
 16 15  2  0  0  0  0
 16 18  1  0  0  0  0
 17 16  1  0  0  0  0
 18 19  2  0  0  0  0
 19 13  1  0  0  0  0
 19  9  1  0  0  0  0
 20 22  1  0  0  0  0
 21 20  1  0  0  0  0
 23 25  1  0  0  0  0
 24 29  1  0  0  0  0
 25 31  1  6  0  0  0
 25 26  1  0  0  0  0
 25 24  1  0  0  0  0
 26 27  1  0  0  0  0
 27 28  1  0  0  0  0
 28 35  1  0  0  0  0
 29 36  1  6  0  0  0
 29 37  1  0  0  0  0
 29 28  1  0  0  0  0
 30 24  1  0  0  0  0
 32 26  1  0  0  0  0
 33 26  1  0  0  0  0
 34 28  1  0  0  0  0
 37 38  1  0  0  0  0
M  END
>  <minimizedAffinity>
-5.92272758

$$$$

 OpenBabel03272502193D

 38 41  0  0  1  0  0  0  0  0999 V2000
   36.8260   28.1320   31.8960 C   0  0  0  0  0  0  0  0  0  0  0  0
   37.0680   28.9260   30.7680 C   0  0  0  0  0  0  0  0  0  0  0  0
   36.2710   30.0560   30.5770 C   0  0  0  0  0  0  0  0  0  0  0  0
   35.2960   30.3160   31.5120 N   0  0  0  0  0  0  0  0  0  0  0  0
   35.0970   29.5350   32.5720 C   0  0  0  0  0  0  0  0  0  0  0  0
   35.8570   28.4560   32.7570 N   0  0  0  0  0  0  0  0  0  0  0  0
   37.7910   28.8050   29.9990 H   0  0  0  0  0  0  0  0  0  0  0  0
   36.3750   30.7280   29.7470 H   0  0  0  0  0  0  0  0  0  0  0  0
   34.0940   29.7910   33.5480 N   0  0  0  0  0  0  0  0  0  0  0  0
   32.7910   29.3900   33.5400 C   0  0  0  0  0  0  0  0  0  0  0  0
   32.4240   28.7970   32.7050 H   0  0  0  0  0  0  0  0  0  0  0  0
   32.1930   29.8580   34.6700 N   0  0  0  0  0  0  0  0  0  0  0  0
   33.1090   30.5280   35.3490 C   0  0  0  0  0  0  0  0  0  0  0  0
   32.9770   31.1890   36.5670 C   0  0  0  0  0  0  0  0  0  0  0  0
   34.0870   31.7990   37.0400 N   0  0  0  0  0  0  0  0  0  0  0  0
   35.2550   31.7580   36.3510 C   0  0  0  0  0  0  0  0  0  0  0  0
   36.0750   32.2930   36.8450 H   0  0  0  0  0  0  0  0  0  0  0  0
   35.3700   31.1160   35.1730 N   0  0  0  0  0  0  0  0  0  0  0  0
   34.3000   30.4900   34.6540 C   0  0  0  0  0  0  0  0  0  0  0  0
   31.7290   31.2040   37.2550 N   0  0  0  0  0  0  0  0  0  0  0  0
   31.2570   32.1250   37.3770 H   0  0  0  0  0  0  0  0  0  0  0  0
   31.5780   30.1870   37.4910 H   0  0  0  0  0  0  0  0  0  0  0  0
   37.9180   26.7410   31.9940 S   0  0  0  0  0  0  0  0  0  0  0  0
   37.4490   26.4400   34.6470 N   0  0  0  0  0  0  0  0  0  0  0  0
   37.5060   25.6690   33.4360 C   0  0  2  0  0  0  0  0  0  0  0  0
   38.5930   24.6230   33.5770 C   0  0  0  0  0  0  0  0  0  0  0  0
   38.9360   24.4530   34.9340 O   0  0  0  0  0  0  0  0  0  0  0  0
   39.5980   25.6290   35.2860 C   0  0  0  0  0  0  0  0  0  0  0  0
   38.7970   26.8670   34.9590 C   0  0  2  0  0  0  0  0  0  0  0  0
   36.8190   27.2590   34.5250 H   0  0  0  0  0  0  0  0  0  0  0  0
   36.4990   25.2320   33.2800 H   0  0  0  0  0  0  0  0  0  0  0  0
   38.1620   23.6570   33.2470 H   0  0  0  0  0  0  0  0  0  0  0  0
   39.4770   24.8170   32.9550 H   0  0  0  0  0  0  0  0  0  0  0  0
   40.5590   25.6680   34.7110 H   0  0  0  0  0  0  0  0  0  0  0  0
   39.8750   25.5670   36.3520 H   0  0  0  0  0  0  0  0  0  0  0  0
   39.2600   27.4090   34.1060 H   0  0  0  0  0  0  0  0  0  0  0  0
   38.7290   27.7220   36.0800 O   0  0  0  0  0  0  0  0  0  0  0  0
   39.6340   28.1060   36.1850 H   0  0  0  0  0  0  0  0  0  0  0  0
  1 23  1  0  0  0  0
  1  6  1  0  0  0  0
  2  1  2  0  0  0  0
  3  2  1  0  0  0  0
  3  4  2  0  0  0  0
  4  5  1  0  0  0  0
  5  6  2  0  0  0  0
  5  9  1  0  0  0  0
  7  2  1  0  0  0  0
  8  3  1  0  0  0  0
  9 19  1  0  0  0  0
 10  9  1  0  0  0  0
 10 12  2  0  0  0  0
 11 10  1  0  0  0  0
 12 13  1  0  0  0  0
 13 14  1  0  0  0  0
 14 15  2  0  0  0  0
 14 20  1  0  0  0  0
 16 17  1  0  0  0  0
 16 15  1  0  0  0  0
 18 16  2  0  0  0  0
 19 18  1  0  0  0  0
 19 13  2  0  0  0  0
 20 21  1  0  0  0  0
 20 22  1  0  0  0  0
 23 25  1  0  0  0  0
 24 29  1  0  0  0  0
 25 31  1  6  0  0  0
 25 26  1  0  0  0  0
 25 24  1  0  0  0  0
 26 27  1  0  0  0  0
 27 28  1  0  0  0  0
 28 35  1  0  0  0  0
 29 36  1  6  0  0  0
 29 28  1  0  0  0  0
 29 37  1  0  0  0  0
 30 24  1  0  0  0  0
 32 26  1  0  0  0  0
 33 26  1  0  0  0  0
 34 28  1  0  0  0  0
 37 38  1  0  0  0  0
M  END
>  <minimizedAffinity>
-5.91124964

$$$$

 OpenBabel03272502193D

 38 41  0  0  1  0  0  0  0  0999 V2000
   39.2630   25.2620   32.8880 C   0  0  0  0  0  0  0  0  0  0  0  0
   39.7240   26.5800   32.9940 C   0  0  0  0  0  0  0  0  0  0  0  0
   40.4890   26.9200   34.1110 C   0  0  0  0  0  0  0  0  0  0  0  0
   40.7400   25.9350   35.0380 N   0  0  0  0  0  0  0  0  0  0  0  0
   40.2820   24.6920   34.9000 C   0  0  0  0  0  0  0  0  0  0  0  0
   39.5530   24.3640   33.8340 N   0  0  0  0  0  0  0  0  0  0  0  0
   39.5820   27.4010   32.3350 H   0  0  0  0  0  0  0  0  0  0  0  0
   40.8890   27.9000   34.2860 H   0  0  0  0  0  0  0  0  0  0  0  0
   40.5340   23.6620   35.8500 N   0  0  0  0  0  0  0  0  0  0  0  0
   39.8130   23.3510   36.9630 C   0  0  0  0  0  0  0  0  0  0  0  0
   38.9240   23.9330   37.1990 H   0  0  0  0  0  0  0  0  0  0  0  0
   40.4130   22.2960   37.5800 N   0  0  0  0  0  0  0  0  0  0  0  0
   41.4740   21.9730   36.8600 C   0  0  0  0  0  0  0  0  0  0  0  0
   42.4040   20.9620   37.0860 C   0  0  0  0  0  0  0  0  0  0  0  0
   43.4020   20.8530   36.1810 N   0  0  0  0  0  0  0  0  0  0  0  0
   43.4760   21.6920   35.1180 C   0  0  0  0  0  0  0  0  0  0  0  0
   44.3340   21.4950   34.4620 H   0  0  0  0  0  0  0  0  0  0  0  0
   42.5720   22.6670   34.9090 N   0  0  0  0  0  0  0  0  0  0  0  0
   41.5560   22.8230   35.7760 C   0  0  0  0  0  0  0  0  0  0  0  0
   42.2830   20.1040   38.2180 N   0  0  0  0  0  0  0  0  0  0  0  0
   43.0360   20.1460   38.9370 H   0  0  0  0  0  0  0  0  0  0  0  0
   41.3800   19.5920   38.0300 H   0  0  0  0  0  0  0  0  0  0  0  0
   38.3110   24.9920   31.4180 S   0  0  0  0  0  0  0  0  0  0  0  0
   36.2510   26.4440   30.4200 N   0  0  0  0  0  0  0  0  0  0  0  0
   36.6130   25.6890   31.5870 C   0  0  2  0  0  0  0  0  0  0  0  0
   36.5950   26.6130   32.7880 C   0  0  0  0  0  0  0  0  0  0  0  0
   35.8710   27.7860   32.4930 O   0  0  0  0  0  0  0  0  0  0  0  0
   36.6690   28.4820   31.5850 C   0  0  0  0  0  0  0  0  0  0  0  0
   37.0700   27.6380   30.3980 C   0  0  2  0  0  0  0  0  0  0  0  0
   36.4000   25.8760   29.5610 H   0  0  0  0  0  0  0  0  0  0  0  0
   35.8900   24.8520   31.6710 H   0  0  0  0  0  0  0  0  0  0  0  0
   36.0290   26.0970   33.5890 H   0  0  0  0  0  0  0  0  0  0  0  0
   37.5930   26.8400   33.1860 H   0  0  0  0  0  0  0  0  0  0  0  0
   37.6000   28.8020   32.1210 H   0  0  0  0  0  0  0  0  0  0  0  0
   36.1430   29.4060   31.2950 H   0  0  0  0  0  0  0  0  0  0  0  0
   38.1520   27.3900   30.4520 H   0  0  0  0  0  0  0  0  0  0  0  0
   36.8020   28.3220   29.1930 O   0  0  0  0  0  0  0  0  0  0  0  0
   37.4680   29.0500   29.1400 H   0  0  0  0  0  0  0  0  0  0  0  0
  1  2  2  0  0  0  0
  1  6  1  0  0  0  0
  2  3  1  0  0  0  0
  3  8  1  0  0  0  0
  3  4  2  0  0  0  0
  5  4  1  0  0  0  0
  5  9  1  0  0  0  0
  6  5  2  0  0  0  0
  7  2  1  0  0  0  0
  9 10  1  0  0  0  0
 10 11  1  0  0  0  0
 10 12  2  0  0  0  0
 13 14  1  0  0  0  0
 13 12  1  0  0  0  0
 14 20  1  0  0  0  0
 15 14  2  0  0  0  0
 16 15  1  0  0  0  0
 17 16  1  0  0  0  0
 18 16  2  0  0  0  0
 18 19  1  0  0  0  0
 19  9  1  0  0  0  0
 19 13  2  0  0  0  0
 20 21  1  0  0  0  0
 22 20  1  0  0  0  0
 23 25  1  0  0  0  0
 23  1  1  0  0  0  0
 24 25  1  0  0  0  0
 25 31  1  1  0  0  0
 25 26  1  0  0  0  0
 26 33  1  0  0  0  0
 26 32  1  0  0  0  0
 27 26  1  0  0  0  0
 28 34  1  0  0  0  0
 28 27  1  0  0  0  0
 29 24  1  0  0  0  0
 29 36  1  1  0  0  0
 29 28  1  0  0  0  0
 30 24  1  0  0  0  0
 35 28  1  0  0  0  0
 37 29  1  0  0  0  0
 38 37  1  0  0  0  0
M  END
>  <minimizedAffinity>
-5.90743113

$$$$

 OpenBabel03272502193D

 38 41  0  0  1  0  0  0  0  0999 V2000
   37.0970   27.9360   32.2290 C   0  0  0  0  0  0  0  0  0  0  0  0
   37.4510   28.6850   31.1000 C   0  0  0  0  0  0  0  0  0  0  0  0
   36.7170   29.8390   30.8210 C   0  0  0  0  0  0  0  0  0  0  0  0
   35.6890   30.1660   31.6750 N   0  0  0  0  0  0  0  0  0  0  0  0
   35.3840   29.4260   32.7390 C   0  0  0  0  0  0  0  0  0  0  0  0
   36.0830   28.3240   33.0090 N   0  0  0  0  0  0  0  0  0  0  0  0
   38.2210   28.5120   30.3890 H   0  0  0  0  0  0  0  0  0  0  0  0
   36.9080   30.4810   29.9820 H   0  0  0  0  0  0  0  0  0  0  0  0
   34.3250   29.7510   33.6330 N   0  0  0  0  0  0  0  0  0  0  0  0
   33.0110   29.4020   33.5420 C   0  0  0  0  0  0  0  0  0  0  0  0
   32.6800   28.7990   32.6990 H   0  0  0  0  0  0  0  0  0  0  0  0
   32.3540   29.9270   34.6130 N   0  0  0  0  0  0  0  0  0  0  0  0
   33.2460   30.5810   35.3370 C   0  0  0  0  0  0  0  0  0  0  0  0
   33.0560   31.2840   36.5240 C   0  0  0  0  0  0  0  0  0  0  0  0
   34.1540   31.8640   37.0580 N   0  0  0  0  0  0  0  0  0  0  0  0
   35.3640   31.7560   36.4570 C   0  0  0  0  0  0  0  0  0  0  0  0
   36.1700   32.2730   36.9940 H   0  0  0  0  0  0  0  0  0  0  0  0
   35.5370   31.0740   35.3090 N   0  0  0  0  0  0  0  0  0  0  0  0
   34.4810   30.4750   34.7310 C   0  0  0  0  0  0  0  0  0  0  0  0
   31.7630   31.3690   37.1190 N   0  0  0  0  0  0  0  0  0  0  0  0
   31.3230   32.3110   37.1810 H   0  0  0  0  0  0  0  0  0  0  0  0
   31.5540   30.3660   37.3720 H   0  0  0  0  0  0  0  0  0  0  0  0
   38.1210   26.5070   32.4440 S   0  0  0  0  0  0  0  0  0  0  0  0
   36.6300   25.4560   30.4380 N   0  0  0  0  0  0  0  0  0  0  0  0
   37.9300   25.3320   31.0350 C   0  0  2  0  0  0  0  0  0  0  0  0
   38.0880   23.9220   31.5680 C   0  0  0  0  0  0  0  0  0  0  0  0
   37.1250   23.0700   30.9900 O   0  0  0  0  0  0  0  0  0  0  0  0
   35.9110   23.4720   31.5470 C   0  0  0  0  0  0  0  0  0  0  0  0
   35.6600   24.9520   31.3890 C   0  0  2  0  0  0  0  0  0  0  0  0
   36.4350   26.4500   30.1990 H   0  0  0  0  0  0  0  0  0  0  0  0
   38.6740   25.5880   30.2540 H   0  0  0  0  0  0  0  0  0  0  0  0
   39.0730   23.5510   31.2210 H   0  0  0  0  0  0  0  0  0  0  0  0
   38.0810   23.8600   32.6640 H   0  0  0  0  0  0  0  0  0  0  0  0
   35.9390   23.2340   32.6420 H   0  0  0  0  0  0  0  0  0  0  0  0
   35.1070   22.8530   31.1140 H   0  0  0  0  0  0  0  0  0  0  0  0
   35.7510   25.4640   32.3710 H   0  0  0  0  0  0  0  0  0  0  0  0
   34.3740   25.1820   30.8540 O   0  0  0  0  0  0  0  0  0  0  0  0
   33.7370   24.9590   31.5750 H   0  0  0  0  0  0  0  0  0  0  0  0
  1 23  1  0  0  0  0
  1  6  1  0  0  0  0
  2  1  2  0  0  0  0
  3  2  1  0  0  0  0
  3  4  2  0  0  0  0
  4  5  1  0  0  0  0
  5  6  2  0  0  0  0
  5  9  1  0  0  0  0
  7  2  1  0  0  0  0
  8  3  1  0  0  0  0
  9 19  1  0  0  0  0
 10  9  1  0  0  0  0
 10 12  2  0  0  0  0
 11 10  1  0  0  0  0
 12 13  1  0  0  0  0
 13 14  1  0  0  0  0
 14 15  2  0  0  0  0
 14 20  1  0  0  0  0
 16 17  1  0  0  0  0
 16 15  1  0  0  0  0
 18 16  2  0  0  0  0
 19 18  1  0  0  0  0
 19 13  2  0  0  0  0
 20 21  1  0  0  0  0
 20 22  1  0  0  0  0
 24 25  1  0  0  0  0
 24 29  1  0  0  0  0
 25 31  1  6  0  0  0
 25 26  1  0  0  0  0
 25 23  1  0  0  0  0
 26 33  1  0  0  0  0
 27 28  1  0  0  0  0
 27 26  1  0  0  0  0
 28 34  1  0  0  0  0
 29 28  1  0  0  0  0
 29 36  1  1  0  0  0
 30 24  1  0  0  0  0
 32 26  1  0  0  0  0
 35 28  1  0  0  0  0
 37 29  1  0  0  0  0
 37 38  1  0  0  0  0
M  END
>  <minimizedAffinity>
-5.84052753

$$$$

 OpenBabel03272502193D

 38 41  0  0  1  0  0  0  0  0999 V2000
   37.4160   25.7780   31.8140 C   0  0  0  0  0  0  0  0  0  0  0  0
   36.2890   25.1750   31.2420 C   0  0  0  0  0  0  0  0  0  0  0  0
   35.9830   23.8660   31.6180 C   0  0  0  0  0  0  0  0  0  0  0  0
   36.8110   23.2520   32.5280 N   0  0  0  0  0  0  0  0  0  0  0  0
   37.8740   23.8600   33.0490 C   0  0  0  0  0  0  0  0  0  0  0  0
   38.1680   25.1100   32.6930 N   0  0  0  0  0  0  0  0  0  0  0  0
   35.5970   25.5670   30.5360 H   0  0  0  0  0  0  0  0  0  0  0  0
   35.1430   23.3160   31.2380 H   0  0  0  0  0  0  0  0  0  0  0  0
   38.7390   23.2390   33.9930 N   0  0  0  0  0  0  0  0  0  0  0  0
   39.8330   22.4640   33.7480 C   0  0  0  0  0  0  0  0  0  0  0  0
   40.1220   22.2660   32.7180 H   0  0  0  0  0  0  0  0  0  0  0  0
   40.3620   22.0800   34.9420 N   0  0  0  0  0  0  0  0  0  0  0  0
   39.6080   22.6080   35.8920 C   0  0  0  0  0  0  0  0  0  0  0  0
   39.7460   22.4990   37.2730 C   0  0  0  0  0  0  0  0  0  0  0  0
   38.8240   23.1480   38.0200 N   0  0  0  0  0  0  0  0  0  0  0  0
   37.8280   23.8600   37.4370 C   0  0  0  0  0  0  0  0  0  0  0  0
   37.1490   24.3350   38.1560 H   0  0  0  0  0  0  0  0  0  0  0  0
   37.7040   23.9580   36.1000 N   0  0  0  0  0  0  0  0  0  0  0  0
   38.5920   23.3340   35.3060 C   0  0  0  0  0  0  0  0  0  0  0  0
   40.8110   21.7400   37.8390 N   0  0  0  0  0  0  0  0  0  0  0  0
   40.5590   20.8930   38.3910 H   0  0  0  0  0  0  0  0  0  0  0  0
   41.6690   22.2710   37.5310 H   0  0  0  0  0  0  0  0  0  0  0  0
   37.6670   27.4330   31.2350 S   0  0  0  0  0  0  0  0  0  0  0  0
   36.2540   29.4220   30.0540 N   0  0  0  0  0  0  0  0  0  0  0  0
   36.0610   28.2690   30.8870 C   0  0  2  0  0  0  0  0  0  0  0  0
   35.4620   28.7170   32.2050 C   0  0  0  0  0  0  0  0  0  0  0  0
   34.9190   30.0110   32.0820 O   0  0  0  0  0  0  0  0  0  0  0  0
   36.0230   30.8520   31.9480 C   0  0  0  0  0  0  0  0  0  0  0  0
   36.9530   30.4190   30.8390 C   0  0  2  0  0  0  0  0  0  0  0  0
   36.8010   29.1680   29.2050 H   0  0  0  0  0  0  0  0  0  0  0  0
   35.4080   27.5680   30.3280 H   0  0  0  0  0  0  0  0  0  0  0  0
   34.6070   28.0450   32.4210 H   0  0  0  0  0  0  0  0  0  0  0  0
   36.1560   28.6450   33.0530 H   0  0  0  0  0  0  0  0  0  0  0  0
   36.5920   30.8300   32.9130 H   0  0  0  0  0  0  0  0  0  0  0  0
   35.6610   31.8860   31.8230 H   0  0  0  0  0  0  0  0  0  0  0  0
   37.8960   30.0130   31.2650 H   0  0  0  0  0  0  0  0  0  0  0  0
   37.2490   31.5060   29.9890 O   0  0  0  0  0  0  0  0  0  0  0  0
   37.8410   32.1030   30.5080 H   0  0  0  0  0  0  0  0  0  0  0  0
  1  6  1  0  0  0  0
  2  3  1  0  0  0  0
  2  1  2  0  0  0  0
  3  4  2  0  0  0  0
  4  5  1  0  0  0  0
  5  9  1  0  0  0  0
  6  5  2  0  0  0  0
  7  2  1  0  0  0  0
  8  3  1  0  0  0  0
  9 19  1  0  0  0  0
 10  9  1  0  0  0  0
 10 12  2  0  0  0  0
 11 10  1  0  0  0  0
 12 13  1  0  0  0  0
 13 14  1  0  0  0  0
 14 20  1  0  0  0  0
 14 15  2  0  0  0  0
 16 15  1  0  0  0  0
 16 17  1  0  0  0  0
 18 16  2  0  0  0  0
 19 13  2  0  0  0  0
 19 18  1  0  0  0  0
 20 21  1  0  0  0  0
 22 20  1  0  0  0  0
 23  1  1  0  0  0  0
 24 29  1  0  0  0  0
 24 25  1  0  0  0  0
 25 31  1  6  0  0  0
 25 23  1  0  0  0  0
 25 26  1  0  0  0  0
 26 32  1  0  0  0  0
 26 33  1  0  0  0  0
 27 26  1  0  0  0  0
 28 27  1  0  0  0  0
 28 34  1  0  0  0  0
 29 36  1  1  0  0  0
 29 28  1  0  0  0  0
 30 24  1  0  0  0  0
 35 28  1  0  0  0  0
 37 38  1  0  0  0  0
 37 29  1  0  0  0  0
M  END
>  <minimizedAffinity>
-5.81325245

$$$$

 OpenBabel03272502193D

 38 41  0  0  1  0  0  0  0  0999 V2000
   37.5900   27.0500   34.6780 C   0  0  0  0  0  0  0  0  0  0  0  0
   38.0760   26.9870   33.3660 C   0  0  0  0  0  0  0  0  0  0  0  0
   37.4850   27.8090   32.4060 C   0  0  0  0  0  0  0  0  0  0  0  0
   36.4590   28.6310   32.8120 N   0  0  0  0  0  0  0  0  0  0  0  0
   36.0260   28.6610   34.0700 C   0  0  0  0  0  0  0  0  0  0  0  0
   36.5890   27.8780   34.9900 N   0  0  0  0  0  0  0  0  0  0  0  0
   38.8560   26.3880   32.9630 H   0  0  0  0  0  0  0  0  0  0  0  0
   37.7830   27.8360   31.3760 H   0  0  0  0  0  0  0  0  0  0  0  0
   34.9660   29.5070   34.5070 N   0  0  0  0  0  0  0  0  0  0  0  0
   33.6280   29.2490   34.4990 C   0  0  0  0  0  0  0  0  0  0  0  0
   33.2740   28.2920   34.1230 H   0  0  0  0  0  0  0  0  0  0  0  0
   32.9810   30.3350   35.0060 N   0  0  0  0  0  0  0  0  0  0  0  0
   33.9030   31.2320   35.3130 C   0  0  0  0  0  0  0  0  0  0  0  0
   33.7340   32.5010   35.8600 C   0  0  0  0  0  0  0  0  0  0  0  0
   34.8610   33.2150   36.0750 N   0  0  0  0  0  0  0  0  0  0  0  0
   36.0800   32.7060   35.7690 C   0  0  0  0  0  0  0  0  0  0  0  0
   36.9100   33.3890   35.9930 H   0  0  0  0  0  0  0  0  0  0  0  0
   36.2320   31.4780   35.2400 N   0  0  0  0  0  0  0  0  0  0  0  0
   35.1470   30.7210   35.0040 C   0  0  0  0  0  0  0  0  0  0  0  0
   32.4310   32.9920   36.1660 N   0  0  0  0  0  0  0  0  0  0  0  0
   32.0920   33.8210   35.6340 H   0  0  0  0  0  0  0  0  0  0  0  0
   32.1030   32.3340   36.9230 H   0  0  0  0  0  0  0  0  0  0  0  0
   38.4430   25.9480   35.7720 S   0  0  0  0  0  0  0  0  0  0  0  0
   37.7100   23.5070   36.6950 N   0  0  0  0  0  0  0  0  0  0  0  0
   37.9630   24.1950   35.4610 C   0  0  2  0  0  0  0  0  0  0  0  0
   39.1100   23.5080   34.7470 C   0  0  0  0  0  0  0  0  0  0  0  0
   39.3140   22.2190   35.2780 O   0  0  0  0  0  0  0  0  0  0  0  0
   39.8350   22.4340   36.5530 C   0  0  0  0  0  0  0  0  0  0  0  0
   38.9770   23.3600   37.3830 C   0  0  2  0  0  0  0  0  0  0  0  0
   37.0330   24.0430   37.2760 H   0  0  0  0  0  0  0  0  0  0  0  0
   37.0180   24.1810   34.8800 H   0  0  0  0  0  0  0  0  0  0  0  0
   38.7970   23.3610   33.6940 H   0  0  0  0  0  0  0  0  0  0  0  0
   40.0380   24.0950   34.7340 H   0  0  0  0  0  0  0  0  0  0  0  0
   40.8470   22.9010   36.4370 H   0  0  0  0  0  0  0  0  0  0  0  0
   39.9970   21.4550   37.0340 H   0  0  0  0  0  0  0  0  0  0  0  0
   39.4850   24.3400   37.5140 H   0  0  0  0  0  0  0  0  0  0  0  0
   38.7160   22.7910   38.6480 O   0  0  0  0  0  0  0  0  0  0  0  0
   39.5690   22.8300   39.1450 H   0  0  0  0  0  0  0  0  0  0  0  0
  1  6  1  0  0  0  0
  1 23  1  0  0  0  0
  2  1  2  0  0  0  0
  3  4  2  0  0  0  0
  3  2  1  0  0  0  0
  4  5  1  0  0  0  0
  5  9  1  0  0  0  0
  5  6  2  0  0  0  0
  7  2  1  0  0  0  0
  8  3  1  0  0  0  0
  9 19  1  0  0  0  0
 10  9  1  0  0  0  0
 10 12  2  0  0  0  0
 11 10  1  0  0  0  0
 12 13  1  0  0  0  0
 13 14  1  0  0  0  0
 14 15  2  0  0  0  0
 14 20  1  0  0  0  0
 16 17  1  0  0  0  0
 16 15  1  0  0  0  0
 18 16  2  0  0  0  0
 19 18  1  0  0  0  0
 19 13  2  0  0  0  0
 20 22  1  0  0  0  0
 21 20  1  0  0  0  0
 24 30  1  0  0  0  0
 24 29  1  0  0  0  0
 25 31  1  6  0  0  0
 25 23  1  0  0  0  0
 25 24  1  0  0  0  0
 26 27  1  0  0  0  0
 26 25  1  0  0  0  0
 27 28  1  0  0  0  0
 28 35  1  0  0  0  0
 28 29  1  0  0  0  0
 29 36  1  1  0  0  0
 29 37  1  0  0  0  0
 32 26  1  0  0  0  0
 33 26  1  0  0  0  0
 34 28  1  0  0  0  0
 37 38  1  0  0  0  0
M  END
>  <minimizedAffinity>
-5.72909832

$$$$

 OpenBabel03272502193D

 38 41  0  0  1  0  0  0  0  0999 V2000
   39.9720   27.3160   31.8390 C   0  0  0  0  0  0  0  0  0  0  0  0
   41.3070   27.7320   31.9040 C   0  0  0  0  0  0  0  0  0  0  0  0
   42.0080   27.5080   33.0900 C   0  0  0  0  0  0  0  0  0  0  0  0
   41.3380   26.8910   34.1210 N   0  0  0  0  0  0  0  0  0  0  0  0
   40.0670   26.5100   34.0190 C   0  0  0  0  0  0  0  0  0  0  0  0
   39.3950   26.7220   32.8880 N   0  0  0  0  0  0  0  0  0  0  0  0
   41.9020   28.2130   31.1660 H   0  0  0  0  0  0  0  0  0  0  0  0
   43.0320   27.7880   33.2410 H   0  0  0  0  0  0  0  0  0  0  0  0
   39.3610   25.8700   35.0770 N   0  0  0  0  0  0  0  0  0  0  0  0
   38.6630   26.4500   36.0930 C   0  0  0  0  0  0  0  0  0  0  0  0
   38.6080   27.5350   36.1480 H   0  0  0  0  0  0  0  0  0  0  0  0
   38.1480   25.4620   36.8760 N   0  0  0  0  0  0  0  0  0  0  0  0
   38.5240   24.3080   36.3490 C   0  0  0  0  0  0  0  0  0  0  0  0
   38.2460   23.0180   36.7920 C   0  0  0  0  0  0  0  0  0  0  0  0
   38.7610   22.0090   36.0550 N   0  0  0  0  0  0  0  0  0  0  0  0
   39.5060   22.2590   34.9500 C   0  0  0  0  0  0  0  0  0  0  0  0
   39.8630   21.3520   34.4460 H   0  0  0  0  0  0  0  0  0  0  0  0
   39.7690   23.5110   34.5310 N   0  0  0  0  0  0  0  0  0  0  0  0
   39.2830   24.5560   35.2240 C   0  0  0  0  0  0  0  0  0  0  0  0
   37.4570   22.8050   37.9600 N   0  0  0  0  0  0  0  0  0  0  0  0
   37.9180   22.3510   38.7760 H   0  0  0  0  0  0  0  0  0  0  0  0
   36.5170   23.1960   37.6830 H   0  0  0  0  0  0  0  0  0  0  0  0
   39.2250   27.6710   30.2720 S   0  0  0  0  0  0  0  0  0  0  0  0
   36.6490   28.2590   29.6700 N   0  0  0  0  0  0  0  0  0  0  0  0
   37.4380   27.2190   30.2660 C   0  0  2  0  0  0  0  0  0  0  0  0
   36.9910   27.0310   31.7020 C   0  0  0  0  0  0  0  0  0  0  0  0
   35.7240   27.6170   31.9010 O   0  0  0  0  0  0  0  0  0  0  0  0
   35.9500   28.9910   31.8290 C   0  0  0  0  0  0  0  0  0  0  0  0
   36.6730   29.3970   30.5670 C   0  0  2  0  0  0  0  0  0  0  0  0
   37.0310   28.5150   28.7370 H   0  0  0  0  0  0  0  0  0  0  0  0
   37.3020   26.3100   29.6460 H   0  0  0  0  0  0  0  0  0  0  0  0
   36.8540   25.9430   31.8620 H   0  0  0  0  0  0  0  0  0  0  0  0
   37.7220   27.3820   32.4430 H   0  0  0  0  0  0  0  0  0  0  0  0
   36.5830   29.2820   32.7070 H   0  0  0  0  0  0  0  0  0  0  0  0
   34.9850   29.5100   31.9560 H   0  0  0  0  0  0  0  0  0  0  0  0
   37.7140   29.7060   30.8030 H   0  0  0  0  0  0  0  0  0  0  0  0
   35.9980   30.4610   29.9310 O   0  0  0  0  0  0  0  0  0  0  0  0
   36.1480   31.2560   30.4980 H   0  0  0  0  0  0  0  0  0  0  0  0
  1  2  2  0  0  0  0
  1  6  1  0  0  0  0
  2  3  1  0  0  0  0
  3  8  1  0  0  0  0
  3  4  2  0  0  0  0
  5  4  1  0  0  0  0
  5  9  1  0  0  0  0
  6  5  2  0  0  0  0
  7  2  1  0  0  0  0
  9 19  1  0  0  0  0
  9 10  1  0  0  0  0
 10 11  1  0  0  0  0
 10 12  2  0  0  0  0
 13 14  1  0  0  0  0
 13 12  1  0  0  0  0
 14 20  1  0  0  0  0
 15 14  2  0  0  0  0
 16 15  1  0  0  0  0
 17 16  1  0  0  0  0
 18 16  2  0  0  0  0
 18 19  1  0  0  0  0
 19 13  2  0  0  0  0
 20 21  1  0  0  0  0
 22 20  1  0  0  0  0
 23  1  1  0  0  0  0
 24 25  1  0  0  0  0
 24 29  1  0  0  0  0
 25 31  1  6  0  0  0
 25 23  1  0  0  0  0
 25 26  1  0  0  0  0
 26 32  1  0  0  0  0
 26 27  1  0  0  0  0
 26 33  1  0  0  0  0
 28 27  1  0  0  0  0
 28 35  1  0  0  0  0
 28 34  1  0  0  0  0
 29 36  1  1  0  0  0
 29 28  1  0  0  0  0
 30 24  1  0  0  0  0
 37 38  1  0  0  0  0
 37 29  1  0  0  0  0
M  END
>  <minimizedAffinity>
-5.70626116

$$$$
