
 OpenBabel03272502173D

 38 41  0  0  1  0  0  0  0  0999 V2000
   37.5330   30.6840   48.9210 C   0  0  0  0  0  0  0  0  0  0  0  0
   37.6750   31.8120   49.7390 C   0  0  0  0  0  0  0  0  0  0  0  0
   38.4340   32.8800   49.2580 C   0  0  0  0  0  0  0  0  0  0  0  0
   38.9950   32.7550   48.0080 N   0  0  0  0  0  0  0  0  0  0  0  0
   38.8370   31.6640   47.2620 C   0  0  0  0  0  0  0  0  0  0  0  0
   38.1120   30.6420   47.7180 N   0  0  0  0  0  0  0  0  0  0  0  0
   37.2830   31.9970   50.7090 H   0  0  0  0  0  0  0  0  0  0  0  0
   38.6030   33.7880   49.8050 H   0  0  0  0  0  0  0  0  0  0  0  0
   39.4100   31.5190   45.9670 N   0  0  0  0  0  0  0  0  0  0  0  0
   40.6460   31.0450   45.6430 C   0  0  0  0  0  0  0  0  0  0  0  0
   41.3150   30.7240   46.4380 H   0  0  0  0  0  0  0  0  0  0  0  0
   40.7760   31.0810   44.2880 N   0  0  0  0  0  0  0  0  0  0  0  0
   39.6470   31.5660   43.7990 C   0  0  0  0  0  0  0  0  0  0  0  0
   39.3020   31.7930   42.4700 C   0  0  0  0  0  0  0  0  0  0  0  0
   38.0690   32.3020   42.2500 N   0  0  0  0  0  0  0  0  0  0  0  0
   37.2300   32.5710   43.2810 C   0  0  0  0  0  0  0  0  0  0  0  0
   36.2620   32.9810   42.9640 H   0  0  0  0  0  0  0  0  0  0  0  0
   37.5740   32.3480   44.5640 N   0  0  0  0  0  0  0  0  0  0  0  0
   38.7880   31.8430   44.8430 C   0  0  0  0  0  0  0  0  0  0  0  0
   40.2180   31.4940   41.4200 N   0  0  0  0  0  0  0  0  0  0  0  0
   40.5710   32.2890   40.8470 H   0  0  0  0  0  0  0  0  0  0  0  0
   40.3210   30.4460   41.4890 H   0  0  0  0  0  0  0  0  0  0  0  0
   36.5450   29.4210   49.6730 S   0  0  0  0  0  0  0  0  0  0  0  0
   34.0280   28.4890   49.2930 N   0  0  0  0  0  0  0  0  0  0  0  0
   34.7480   29.7270   49.3970 C   0  0  2  0  0  0  0  0  0  0  0  0
   34.5900   30.4920   48.0980 C   0  0  0  0  0  0  0  0  0  0  0  0
   33.5060   29.9800   47.3580 O   0  0  0  0  0  0  0  0  0  0  0  0
   33.9290   28.7250   46.9220 C   0  0  0  0  0  0  0  0  0  0  0  0
   34.4240   27.8540   48.0520 C   0  0  2  0  0  0  0  0  0  0  0  0
   34.2410   27.8770   50.1070 H   0  0  0  0  0  0  0  0  0  0  0  0
   34.3390   30.2690   50.2740 H   0  0  0  0  0  0  0  0  0  0  0  0
   34.3170   31.5320   48.3630 H   0  0  0  0  0  0  0  0  0  0  0  0
   35.5080   30.5370   47.4980 H   0  0  0  0  0  0  0  0  0  0  0  0
   34.7720   28.8780   46.1990 H   0  0  0  0  0  0  0  0  0  0  0  0
   33.1090   28.2590   46.3500 H   0  0  0  0  0  0  0  0  0  0  0  0
   35.5280   27.7360   47.9910 H   0  0  0  0  0  0  0  0  0  0  0  0
   33.8100   26.5840   48.0030 O   0  0  0  0  0  0  0  0  0  0  0  0
   34.2030   26.1220   47.2230 H   0  0  0  0  0  0  0  0  0  0  0  0
  1 23  1  0  0  0  0
  1  2  1  0  0  0  0
  2  7  1  0  0  0  0
  3  2  2  0  0  0  0
  3  8  1  0  0  0  0
  4  3  1  0  0  0  0
  5  6  1  0  0  0  0
  5  4  2  0  0  0  0
  6  1  2  0  0  0  0
  9  5  1  0  0  0  0
 10  9  1  0  0  0  0
 10 11  1  0  0  0  0
 12 10  2  0  0  0  0
 13 12  1  0  0  0  0
 13 19  1  0  0  0  0
 14 13  2  0  0  0  0
 15 14  1  0  0  0  0
 15 16  2  0  0  0  0
 16 18  1  0  0  0  0
 17 16  1  0  0  0  0
 18 19  2  0  0  0  0
 19  9  1  0  0  0  0
 20 22  1  0  0  0  0
 20 14  1  0  0  0  0
 21 20  1  0  0  0  0
 24 25  1  0  0  0  0
 24 30  1  0  0  0  0
 25 23  1  0  0  0  0
 25 31  1  1  0  0  0
 26 32  1  0  0  0  0
 26 25  1  0  0  0  0
 27 26  1  0  0  0  0
 28 27  1  0  0  0  0
 28 29  1  0  0  0  0
 29 36  1  6  0  0  0
 29 24  1  0  0  0  0
 33 26  1  0  0  0  0
 34 28  1  0  0  0  0
 35 28  1  0  0  0  0
 37 29  1  0  0  0  0
 38 37  1  0  0  0  0
M  END
>  <minimizedAffinity>
-6.64396572

>  <minimizedRMSD>
0.74390626

$$$$
