
 OpenBabel03262522463D

 42 46  0  0  1  0  0  0  0  0999 V2000
   36.6950   27.7810   34.0230 C   0  0  0  0  0  0  0  0  0  0  0  0
   38.0350   27.2490   33.8160 C   0  0  0  0  0  0  0  0  0  0  0  0
   38.5940   27.3350   32.5760 C   0  0  0  0  0  0  0  0  0  0  0  0
   37.8360   27.9270   31.5830 N   0  0  0  0  0  0  0  0  0  0  0  0
   36.5990   28.4090   31.7950 C   0  0  0  0  0  0  0  0  0  0  0  0
   36.0410   28.3340   33.0070 N   0  0  0  0  0  0  0  0  0  0  0  0
   35.8410   28.9730   30.7430 N   0  0  0  0  0  0  0  0  0  0  0  0
   36.3020   27.6870   35.0280 H   0  0  0  0  0  0  0  0  0  0  0  0
   35.3160   28.1270   30.3890 H   0  0  0  0  0  0  0  0  0  0  0  0
   35.8360   29.9540   30.4380 H   0  0  0  0  0  0  0  0  0  0  0  0
   39.8900   26.8630   32.2370 N   0  0  0  0  0  0  0  0  0  0  0  0
   40.6360   25.9850   32.9700 C   0  0  0  0  0  0  0  0  0  0  0  0
   40.3080   25.5440   33.9070 H   0  0  0  0  0  0  0  0  0  0  0  0
   41.8130   25.7940   32.3060 N   0  0  0  0  0  0  0  0  0  0  0  0
   41.8350   26.5250   31.1740 C   0  0  0  0  0  0  0  0  0  0  0  0
   42.7120   26.7380   30.1350 C   0  0  0  0  0  0  0  0  0  0  0  0
   42.4330   27.5550   29.1170 N   0  0  0  0  0  0  0  0  0  0  0  0
   41.2570   28.2030   29.0860 C   0  0  0  0  0  0  0  0  0  0  0  0
   41.0920   28.8500   28.2350 H   0  0  0  0  0  0  0  0  0  0  0  0
   40.3590   28.0290   30.0820 N   0  0  0  0  0  0  0  0  0  0  0  0
   40.6130   27.2060   31.1290 C   0  0  0  0  0  0  0  0  0  0  0  0
   38.8470   26.6670   34.9420 C   0  0  1  0  0  0  0  0  0  0  0  0
   38.4320   26.8500   36.3000 C   0  0  0  0  0  0  0  0  0  0  0  0
   38.1490   25.4850   35.7000 C   0  0  2  0  0  0  0  0  0  0  0  0
   39.8460   26.2620   34.6300 H   0  0  0  0  0  0  0  0  0  0  0  0
   39.2090   26.8710   37.1200 H   0  0  0  0  0  0  0  0  0  0  0  0
   37.5460   27.4280   36.6110 H   0  0  0  0  0  0  0  0  0  0  0  0
   37.0720   25.3390   35.8100 H   0  0  0  0  0  0  0  0  0  0  0  0
   37.8120   24.4380   38.5970 Cl  0  0  0  0  0  0  0  0  0  0  0  0
   38.9880   23.8040   37.4710 C   0  0  0  0  0  0  0  0  0  0  0  0
   39.0130   24.4380   36.2510 C   0  0  0  0  0  0  0  0  0  0  0  0
   39.9520   23.9630   35.3450 C   0  0  0  0  0  0  0  0  0  0  0  0
   40.8150   22.9120   35.6590 C   0  0  0  0  0  0  0  0  0  0  0  0
   40.7430   22.3070   36.9270 C   0  0  0  0  0  0  0  0  0  0  0  0
   41.8020   21.0180   37.4550 Cl  0  0  0  0  0  0  0  0  0  0  0  0
   39.7970   22.7790   37.8400 C   0  0  0  0  0  0  0  0  0  0  0  0
   40.2110   24.2210   34.3310 H   0  0  0  0  0  0  0  0  0  0  0  0
   41.5780   22.4570   35.0520 H   0  0  0  0  0  0  0  0  0  0  0  0
   39.6860   22.3610   38.8250 H   0  0  0  0  0  0  0  0  0  0  0  0
   43.9530   26.0480   30.1790 N   0  0  0  0  0  0  0  0  0  0  0  0
   44.6430   25.9870   29.4090 H   0  0  0  0  0  0  0  0  0  0  0  0
   44.2900   25.5320   31.0010 H   0  0  0  0  0  0  0  0  0  0  0  0
  1  8  1  0  0  0  0
  2  1  1  0  0  0  0
  2 22  1  0  0  0  0
  3  2  2  0  0  0  0
  4  5  2  0  0  0  0
  4  3  1  0  0  0  0
  5  6  1  0  0  0  0
  6  1  2  0  0  0  0
  7  5  1  0  0  0  0
  9  7  1  0  0  0  0
 10  7  1  0  0  0  0
 11  3  1  0  0  0  0
 11 12  1  0  0  0  0
 12 13  1  0  0  0  0
 14 12  2  0  0  0  0
 15 14  1  0  0  0  0
 16 40  1  0  0  0  0
 16 15  2  0  0  0  0
 17 16  1  0  0  0  0
 18 17  2  0  0  0  0
 18 20  1  0  0  0  0
 19 18  1  0  0  0  0
 20 21  2  0  0  0  0
 21 15  1  0  0  0  0
 21 11  1  0  0  0  0
 22 25  1  6  0  0  0
 22 24  1  0  0  0  0
 22 23  1  0  0  0  0
 23 27  1  0  0  0  0
 23 26  1  0  0  0  0
 24 28  1  6  0  0  0
 24 31  1  0  0  0  0
 24 23  1  0  0  0  0
 30 36  1  0  0  0  0
 30 29  1  0  0  0  0
 31 30  2  0  0  0  0
 32 33  2  0  0  0  0
 32 31  1  0  0  0  0
 33 34  1  0  0  0  0
 34 35  1  0  0  0  0
 34 36  2  0  0  0  0
 36 39  1  0  0  0  0
 37 32  1  0  0  0  0
 38 33  1  0  0  0  0
 40 42  1  0  0  0  0
 41 40  1  0  0  0  0
M  END
>  <minimizedAffinity>
-6.36290693

$$$$

 OpenBabel03262522463D

 42 46  0  0  1  0  0  0  0  0999 V2000
   36.6960   27.8610   34.5760 C   0  0  0  0  0  0  0  0  0  0  0  0
   37.5140   27.5300   33.4170 C   0  0  0  0  0  0  0  0  0  0  0  0
   37.2540   28.1480   32.2300 C   0  0  0  0  0  0  0  0  0  0  0  0
   36.2130   29.0570   32.2070 N   0  0  0  0  0  0  0  0  0  0  0  0
   35.4680   29.3440   33.2880 C   0  0  0  0  0  0  0  0  0  0  0  0
   35.7140   28.7490   34.4590 N   0  0  0  0  0  0  0  0  0  0  0  0
   34.3870   30.2530   33.2140 N   0  0  0  0  0  0  0  0  0  0  0  0
   36.9480   27.3420   35.4920 H   0  0  0  0  0  0  0  0  0  0  0  0
   33.5840   29.6020   32.9890 H   0  0  0  0  0  0  0  0  0  0  0  0
   34.4200   31.2700   33.3480 H   0  0  0  0  0  0  0  0  0  0  0  0
   37.9740   27.9240   31.0260 N   0  0  0  0  0  0  0  0  0  0  0  0
   38.7940   26.8610   30.7730 C   0  0  0  0  0  0  0  0  0  0  0  0
   38.9820   26.0570   31.4790 H   0  0  0  0  0  0  0  0  0  0  0  0
   39.2930   27.0200   29.5130 N   0  0  0  0  0  0  0  0  0  0  0  0
   38.8140   28.1530   28.9600 C   0  0  0  0  0  0  0  0  0  0  0  0
   38.9500   28.8190   27.7640 C   0  0  0  0  0  0  0  0  0  0  0  0
   38.3190   29.9670   27.5070 N   0  0  0  0  0  0  0  0  0  0  0  0
   37.5170   30.5100   28.4390 C   0  0  0  0  0  0  0  0  0  0  0  0
   37.0370   31.4400   28.1690 H   0  0  0  0  0  0  0  0  0  0  0  0
   37.3500   29.8950   29.6320 N   0  0  0  0  0  0  0  0  0  0  0  0
   37.9760   28.7280   29.9220 C   0  0  0  0  0  0  0  0  0  0  0  0
   38.6760   26.5780   33.5050 C   0  0  1  0  0  0  0  0  0  0  0  0
   40.0020   27.0750   33.7130 C   0  0  0  0  0  0  0  0  0  0  0  0
   39.3220   26.4730   34.9290 C   0  0  2  0  0  0  0  0  0  0  0  0
   38.4300   25.5210   33.2190 H   0  0  0  0  0  0  0  0  0  0  0  0
   40.8830   26.4940   33.3090 H   0  0  0  0  0  0  0  0  0  0  0  0
   40.2640   28.1440   33.7930 H   0  0  0  0  0  0  0  0  0  0  0  0
   39.3370   27.2590   35.6880 H   0  0  0  0  0  0  0  0  0  0  0  0
   37.7000   24.3640   36.5190 Cl  0  0  0  0  0  0  0  0  0  0  0  0
   39.3330   24.1030   35.9540 C   0  0  0  0  0  0  0  0  0  0  0  0
   39.8960   25.1810   35.3120 C   0  0  0  0  0  0  0  0  0  0  0  0
   41.2010   25.0040   34.8700 C   0  0  0  0  0  0  0  0  0  0  0  0
   41.8930   23.8080   35.0710 C   0  0  0  0  0  0  0  0  0  0  0  0
   41.2620   22.7430   35.7390 C   0  0  0  0  0  0  0  0  0  0  0  0
   42.0400   21.2160   36.0940 Cl  0  0  0  0  0  0  0  0  0  0  0  0
   39.9490   22.9150   36.1820 C   0  0  0  0  0  0  0  0  0  0  0  0
   41.9010   25.6250   34.3350 H   0  0  0  0  0  0  0  0  0  0  0  0
   42.8950   23.5480   34.7800 H   0  0  0  0  0  0  0  0  0  0  0  0
   39.4060   22.1420   36.6970 H   0  0  0  0  0  0  0  0  0  0  0  0
   39.8000   28.2360   26.7860 N   0  0  0  0  0  0  0  0  0  0  0  0
   39.8840   28.5330   25.7980 H   0  0  0  0  0  0  0  0  0  0  0  0
   40.4280   27.4450   26.9760 H   0  0  0  0  0  0  0  0  0  0  0  0
  1  8  1  0  0  0  0
  2 22  1  0  0  0  0
  2  1  2  0  0  0  0
  3  2  1  0  0  0  0
  4  3  2  0  0  0  0
  4  5  1  0  0  0  0
  5  6  2  0  0  0  0
  6  1  1  0  0  0  0
  7  5  1  0  0  0  0
  7 10  1  0  0  0  0
  9  7  1  0  0  0  0
 11  3  1  0  0  0  0
 12 11  1  0  0  0  0
 12 13  1  0  0  0  0
 14 12  2  0  0  0  0
 15 14  1  0  0  0  0
 15 21  1  0  0  0  0
 16 15  2  0  0  0  0
 17 16  1  0  0  0  0
 17 18  2  0  0  0  0
 18 20  1  0  0  0  0
 19 18  1  0  0  0  0
 20 21  2  0  0  0  0
 21 11  1  0  0  0  0
 22 25  1  6  0  0  0
 22 23  1  0  0  0  0
 22 24  1  0  0  0  0
 23 27  1  0  0  0  0
 23 24  1  0  0  0  0
 24 31  1  0  0  0  0
 24 28  1  1  0  0  0
 26 23  1  0  0  0  0
 30 36  1  0  0  0  0
 30 29  1  0  0  0  0
 31 30  2  0  0  0  0
 32 33  2  0  0  0  0
 32 31  1  0  0  0  0
 33 34  1  0  0  0  0
 34 35  1  0  0  0  0
 34 36  2  0  0  0  0
 36 39  1  0  0  0  0
 37 32  1  0  0  0  0
 38 33  1  0  0  0  0
 40 42  1  0  0  0  0
 40 16  1  0  0  0  0
 41 40  1  0  0  0  0
M  END
>  <minimizedAffinity>
-6.21033907

$$$$

 OpenBabel03262522463D

 42 46  0  0  1  0  0  0  0  0999 V2000
   35.4630   26.0120   31.0830 C   0  0  0  0  0  0  0  0  0  0  0  0
   36.6450   26.4880   31.7880 C   0  0  0  0  0  0  0  0  0  0  0  0
   37.4590   25.5790   32.3970 C   0  0  0  0  0  0  0  0  0  0  0  0
   37.0980   24.2480   32.3050 N   0  0  0  0  0  0  0  0  0  0  0  0
   36.0000   23.8310   31.6510 C   0  0  0  0  0  0  0  0  0  0  0  0
   35.1960   24.7110   31.0470 N   0  0  0  0  0  0  0  0  0  0  0  0
   35.6450   22.4630   31.6120 N   0  0  0  0  0  0  0  0  0  0  0  0
   34.8550   26.7770   30.6160 H   0  0  0  0  0  0  0  0  0  0  0  0
   35.0160   22.3870   32.4590 H   0  0  0  0  0  0  0  0  0  0  0  0
   35.9440   21.7620   30.9230 H   0  0  0  0  0  0  0  0  0  0  0  0
   38.6420   25.9030   33.1130 N   0  0  0  0  0  0  0  0  0  0  0  0
   38.9770   27.1430   33.5800 C   0  0  0  0  0  0  0  0  0  0  0  0
   38.3600   28.0270   33.4520 H   0  0  0  0  0  0  0  0  0  0  0  0
   40.1850   27.0310   34.2050 N   0  0  0  0  0  0  0  0  0  0  0  0
   40.6260   25.7580   34.1480 C   0  0  0  0  0  0  0  0  0  0  0  0
   41.7290   25.0600   34.5820 C   0  0  0  0  0  0  0  0  0  0  0  0
   41.8810   23.7520   34.3610 N   0  0  0  0  0  0  0  0  0  0  0  0
   40.9330   23.0740   33.6920 C   0  0  0  0  0  0  0  0  0  0  0  0
   41.1160   22.0180   33.5470 H   0  0  0  0  0  0  0  0  0  0  0  0
   39.8280   23.7140   33.2450 N   0  0  0  0  0  0  0  0  0  0  0  0
   39.6450   25.0410   33.4540 C   0  0  0  0  0  0  0  0  0  0  0  0
   37.0310   27.9420   31.8110 C   0  0  1  0  0  0  0  0  0  0  0  0
   37.0310   28.7080   30.6020 C   0  0  0  0  0  0  0  0  0  0  0  0
   35.8490   28.9310   31.5270 C   0  0  2  0  0  0  0  0  0  0  0  0
   37.4720   28.2880   32.7840 H   0  0  0  0  0  0  0  0  0  0  0  0
   37.7390   29.5820   30.4970 H   0  0  0  0  0  0  0  0  0  0  0  0
   36.7870   28.3030   29.6050 H   0  0  0  0  0  0  0  0  0  0  0  0
   34.9640   28.7180   30.9220 H   0  0  0  0  0  0  0  0  0  0  0  0
   34.7740   29.3470   34.4040 Cl  0  0  0  0  0  0  0  0  0  0  0  0
   35.5280   30.6100   33.4620 C   0  0  0  0  0  0  0  0  0  0  0  0
   35.8910   30.2360   32.1890 C   0  0  0  0  0  0  0  0  0  0  0  0
   36.4770   31.2300   31.4150 C   0  0  0  0  0  0  0  0  0  0  0  0
   36.6770   32.5230   31.9000 C   0  0  0  0  0  0  0  0  0  0  0  0
   36.2790   32.8440   33.2110 C   0  0  0  0  0  0  0  0  0  0  0  0
   36.4320   34.4390   33.9150 Cl  0  0  0  0  0  0  0  0  0  0  0  0
   35.6940   31.8470   33.9950 C   0  0  0  0  0  0  0  0  0  0  0  0
   36.8770   31.2600   30.4140 H   0  0  0  0  0  0  0  0  0  0  0  0
   37.1140   33.3730   31.4060 H   0  0  0  0  0  0  0  0  0  0  0  0
   35.3690   32.0230   35.0050 H   0  0  0  0  0  0  0  0  0  0  0  0
   42.7250   25.7860   35.2870 N   0  0  0  0  0  0  0  0  0  0  0  0
   43.5270   25.3790   35.8000 H   0  0  0  0  0  0  0  0  0  0  0  0
   42.7430   26.8120   35.3530 H   0  0  0  0  0  0  0  0  0  0  0  0
  1  2  1  0  0  0  0
  2 22  1  0  0  0  0
  2  3  2  0  0  0  0
  3 11  1  0  0  0  0
  4  3  1  0  0  0  0
  5  4  2  0  0  0  0
  6  1  2  0  0  0  0
  6  5  1  0  0  0  0
  7  5  1  0  0  0  0
  7  9  1  0  0  0  0
  8  1  1  0  0  0  0
 10  7  1  0  0  0  0
 11 21  1  0  0  0  0
 11 12  1  0  0  0  0
 12 14  2  0  0  0  0
 13 12  1  0  0  0  0
 15 14  1  0  0  0  0
 15 16  1  0  0  0  0
 16 40  1  0  0  0  0
 17 16  2  0  0  0  0
 18 17  1  0  0  0  0
 19 18  1  0  0  0  0
 20 21  1  0  0  0  0
 20 18  2  0  0  0  0
 21 15  2  0  0  0  0
 22 25  1  1  0  0  0
 23 24  1  0  0  0  0
 23 22  1  0  0  0  0
 24 28  1  6  0  0  0
 24 22  1  0  0  0  0
 24 31  1  0  0  0  0
 26 23  1  0  0  0  0
 27 23  1  0  0  0  0
 30 36  1  0  0  0  0
 30 29  1  0  0  0  0
 31 30  2  0  0  0  0
 32 33  2  0  0  0  0
 32 31  1  0  0  0  0
 33 34  1  0  0  0  0
 34 35  1  0  0  0  0
 34 36  2  0  0  0  0
 36 39  1  0  0  0  0
 37 32  1  0  0  0  0
 38 33  1  0  0  0  0
 40 42  1  0  0  0  0
 40 41  1  0  0  0  0
M  END
>  <minimizedAffinity>
-6.20094538

$$$$

 OpenBabel03262522463D

 42 46  0  0  1  0  0  0  0  0999 V2000
   38.4220   24.8810   30.2570 C   0  0  0  0  0  0  0  0  0  0  0  0
   38.2890   25.3880   31.6160 C   0  0  0  0  0  0  0  0  0  0  0  0
   38.2140   24.4980   32.6460 C   0  0  0  0  0  0  0  0  0  0  0  0
   38.2660   23.1550   32.3240 N   0  0  0  0  0  0  0  0  0  0  0  0
   38.3860   22.7090   31.0620 C   0  0  0  0  0  0  0  0  0  0  0  0
   38.4650   23.5700   30.0430 N   0  0  0  0  0  0  0  0  0  0  0  0
   38.3980   21.3250   30.7700 N   0  0  0  0  0  0  0  0  0  0  0  0
   38.4800   25.6320   29.4800 H   0  0  0  0  0  0  0  0  0  0  0  0
   37.3700   21.1390   30.6050 H   0  0  0  0  0  0  0  0  0  0  0  0
   39.2150   20.7030   30.7400 H   0  0  0  0  0  0  0  0  0  0  0  0
   38.0880   24.8530   34.0160 N   0  0  0  0  0  0  0  0  0  0  0  0
   37.7020   26.0750   34.4910 C   0  0  0  0  0  0  0  0  0  0  0  0
   37.4430   26.9180   33.8570 H   0  0  0  0  0  0  0  0  0  0  0  0
   37.7110   26.0050   35.8540 N   0  0  0  0  0  0  0  0  0  0  0  0
   38.0920   24.7760   36.2560 C   0  0  0  0  0  0  0  0  0  0  0  0
   38.2820   24.1300   37.4560 C   0  0  0  0  0  0  0  0  0  0  0  0
   38.6800   22.8570   37.5290 N   0  0  0  0  0  0  0  0  0  0  0  0
   38.9070   22.1640   36.4010 C   0  0  0  0  0  0  0  0  0  0  0  0
   39.2270   21.1390   36.5290 H   0  0  0  0  0  0  0  0  0  0  0  0
   38.7350   22.7530   35.1950 N   0  0  0  0  0  0  0  0  0  0  0  0
   38.3310   24.0430   35.0890 C   0  0  0  0  0  0  0  0  0  0  0  0
   38.2970   26.8610   31.9250 C   0  0  1  0  0  0  0  0  0  0  0  0
   38.6860   27.8050   30.9230 C   0  0  0  0  0  0  0  0  0  0  0  0
   37.1950   27.6850   31.1750 C   0  0  2  0  0  0  0  0  0  0  0  0
   38.1550   27.1060   33.0110 H   0  0  0  0  0  0  0  0  0  0  0  0
   39.1570   28.7840   31.2350 H   0  0  0  0  0  0  0  0  0  0  0  0
   39.0220   27.5380   29.9060 H   0  0  0  0  0  0  0  0  0  0  0  0
   36.7560   27.4400   30.2050 H   0  0  0  0  0  0  0  0  0  0  0  0
   37.2070   30.5050   29.8900 Cl  0  0  0  0  0  0  0  0  0  0  0  0
   36.5030   30.1580   31.4500 C   0  0  0  0  0  0  0  0  0  0  0  0
   36.6450   28.8550   31.8660 C   0  0  0  0  0  0  0  0  0  0  0  0
   36.1090   28.5580   33.1120 C   0  0  0  0  0  0  0  0  0  0  0  0
   35.4710   29.5260   33.8900 C   0  0  0  0  0  0  0  0  0  0  0  0
   35.3600   30.8440   33.4100 C   0  0  0  0  0  0  0  0  0  0  0  0
   34.6290   32.1530   34.3120 Cl  0  0  0  0  0  0  0  0  0  0  0  0
   35.8950   31.1450   32.1560 C   0  0  0  0  0  0  0  0  0  0  0  0
   36.0390   27.6590   33.7020 H   0  0  0  0  0  0  0  0  0  0  0  0
   35.0190   29.4250   34.8610 H   0  0  0  0  0  0  0  0  0  0  0  0
   35.8440   32.1300   31.7280 H   0  0  0  0  0  0  0  0  0  0  0  0
   38.0390   24.8720   38.6420 N   0  0  0  0  0  0  0  0  0  0  0  0
   37.9930   24.4870   39.6030 H   0  0  0  0  0  0  0  0  0  0  0  0
   37.8840   25.8880   38.6580 H   0  0  0  0  0  0  0  0  0  0  0  0
  1  2  1  0  0  0  0
  2 22  1  0  0  0  0
  2  3  2  0  0  0  0
  3 11  1  0  0  0  0
  4  3  1  0  0  0  0
  5  4  2  0  0  0  0
  6  1  2  0  0  0  0
  6  5  1  0  0  0  0
  7  5  1  0  0  0  0
  8  1  1  0  0  0  0
  9  7  1  0  0  0  0
 10  7  1  0  0  0  0
 11 12  1  0  0  0  0
 11 21  1  0  0  0  0
 12 14  2  0  0  0  0
 13 12  1  0  0  0  0
 14 15  1  0  0  0  0
 15 16  1  0  0  0  0
 16 17  2  0  0  0  0
 16 40  1  0  0  0  0
 18 19  1  0  0  0  0
 18 17  1  0  0  0  0
 20 18  2  0  0  0  0
 21 20  1  0  0  0  0
 21 15  2  0  0  0  0
 22 25  1  1  0  0  0
 23 24  1  0  0  0  0
 23 26  1  0  0  0  0
 23 22  1  0  0  0  0
 24 28  1  6  0  0  0
 24 31  1  0  0  0  0
 24 22  1  0  0  0  0
 27 23  1  0  0  0  0
 29 30  1  0  0  0  0
 30 31  2  0  0  0  0
 30 36  1  0  0  0  0
 31 32  1  0  0  0  0
 32 37  1  0  0  0  0
 32 33  2  0  0  0  0
 33 38  1  0  0  0  0
 34 33  1  0  0  0  0
 34 35  1  0  0  0  0
 36 34  2  0  0  0  0
 39 36  1  0  0  0  0
 40 42  1  0  0  0  0
 40 41  1  0  0  0  0
M  END
>  <minimizedAffinity>
-6.13733482

$$$$

 OpenBabel03262522463D

 42 46  0  0  1  0  0  0  0  0999 V2000
   35.9370   28.8140   34.0650 C   0  0  0  0  0  0  0  0  0  0  0  0
   36.4690   28.6480   32.7190 C   0  0  0  0  0  0  0  0  0  0  0  0
   36.3660   29.6840   31.8380 C   0  0  0  0  0  0  0  0  0  0  0  0
   35.7530   30.8370   32.2900 N   0  0  0  0  0  0  0  0  0  0  0  0
   35.2660   30.9680   33.5360 C   0  0  0  0  0  0  0  0  0  0  0  0
   35.3630   29.9620   34.4100 N   0  0  0  0  0  0  0  0  0  0  0  0
   34.6110   32.1510   33.9480 N   0  0  0  0  0  0  0  0  0  0  0  0
   36.0470   27.9600   34.7220 H   0  0  0  0  0  0  0  0  0  0  0  0
   33.6060   31.9240   33.7140 H   0  0  0  0  0  0  0  0  0  0  0  0
   35.0410   32.9880   34.3600 H   0  0  0  0  0  0  0  0  0  0  0  0
   36.8440   29.6600   30.5010 N   0  0  0  0  0  0  0  0  0  0  0  0
   37.1720   28.5400   29.7910 C   0  0  0  0  0  0  0  0  0  0  0  0
   37.0980   27.5300   30.1830 H   0  0  0  0  0  0  0  0  0  0  0  0
   37.5880   28.9450   28.5560 N   0  0  0  0  0  0  0  0  0  0  0  0
   37.5340   30.2890   28.4620 C   0  0  0  0  0  0  0  0  0  0  0  0
   37.8140   31.2390   27.5070 C   0  0  0  0  0  0  0  0  0  0  0  0
   37.6500   32.5460   27.7260 N   0  0  0  0  0  0  0  0  0  0  0  0
   37.1960   32.9700   28.9170 C   0  0  0  0  0  0  0  0  0  0  0  0
   37.0860   34.0400   29.0300 H   0  0  0  0  0  0  0  0  0  0  0  0
   36.9060   32.0770   29.8910 N   0  0  0  0  0  0  0  0  0  0  0  0
   37.0620   30.7440   29.6980 C   0  0  0  0  0  0  0  0  0  0  0  0
   37.1830   27.3950   32.2900 C   0  0  1  0  0  0  0  0  0  0  0  0
   38.3350   26.9410   33.0060 C   0  0  0  0  0  0  0  0  0  0  0  0
   37.0440   26.1960   33.2900 C   0  0  2  0  0  0  0  0  0  0  0  0
   36.8470   26.9880   31.2990 H   0  0  0  0  0  0  0  0  0  0  0  0
   39.1300   26.3490   32.4630 H   0  0  0  0  0  0  0  0  0  0  0  0
   38.7840   27.4640   33.8680 H   0  0  0  0  0  0  0  0  0  0  0  0
   36.8970   26.2720   34.3700 H   0  0  0  0  0  0  0  0  0  0  0  0
   38.9310   23.9690   34.3300 Cl  0  0  0  0  0  0  0  0  0  0  0  0
   37.7400   23.7190   33.0770 C   0  0  0  0  0  0  0  0  0  0  0  0
   37.0370   24.8460   32.7220 C   0  0  0  0  0  0  0  0  0  0  0  0
   36.0960   24.6750   31.7140 C   0  0  0  0  0  0  0  0  0  0  0  0
   35.8850   23.4380   31.1020 C   0  0  0  0  0  0  0  0  0  0  0  0
   36.6410   22.3230   31.5080 C   0  0  0  0  0  0  0  0  0  0  0  0
   36.5040   20.7350   30.7850 Cl  0  0  0  0  0  0  0  0  0  0  0  0
   37.5850   22.4890   32.5240 C   0  0  0  0  0  0  0  0  0  0  0  0
   35.3900   25.3310   31.2310 H   0  0  0  0  0  0  0  0  0  0  0  0
   35.1950   23.1780   30.3190 H   0  0  0  0  0  0  0  0  0  0  0  0
   38.1940   21.6790   32.8840 H   0  0  0  0  0  0  0  0  0  0  0  0
   38.2930   30.7790   26.2510 N   0  0  0  0  0  0  0  0  0  0  0  0
   38.4020   31.3500   25.3950 H   0  0  0  0  0  0  0  0  0  0  0  0
   38.5860   29.8100   26.0730 H   0  0  0  0  0  0  0  0  0  0  0  0
  1  6  1  0  0  0  0
  1  8  1  0  0  0  0
  2  1  2  0  0  0  0
  3  4  2  0  0  0  0
  3  2  1  0  0  0  0
  4  5  1  0  0  0  0
  5  7  1  0  0  0  0
  5  6  2  0  0  0  0
  7 10  1  0  0  0  0
  9  7  1  0  0  0  0
 11  3  1  0  0  0  0
 12 13  1  0  0  0  0
 12 11  1  0  0  0  0
 14 12  2  0  0  0  0
 15 14  1  0  0  0  0
 15 21  1  0  0  0  0
 16 17  1  0  0  0  0
 16 15  2  0  0  0  0
 17 18  2  0  0  0  0
 18 19  1  0  0  0  0
 18 20  1  0  0  0  0
 21 20  2  0  0  0  0
 21 11  1  0  0  0  0
 22 25  1  6  0  0  0
 22  2  1  0  0  0  0
 22 23  1  0  0  0  0
 22 24  1  0  0  0  0
 23 24  1  0  0  0  0
 23 27  1  0  0  0  0
 24 28  1  1  0  0  0
 26 23  1  0  0  0  0
 30 29  1  0  0  0  0
 31 30  1  0  0  0  0
 31 24  1  0  0  0  0
 32 31  2  0  0  0  0
 33 34  2  0  0  0  0
 33 32  1  0  0  0  0
 34 36  1  0  0  0  0
 35 34  1  0  0  0  0
 36 39  1  0  0  0  0
 36 30  2  0  0  0  0
 37 32  1  0  0  0  0
 38 33  1  0  0  0  0
 40 16  1  0  0  0  0
 41 40  1  0  0  0  0
 42 40  1  0  0  0  0
M  END
>  <minimizedAffinity>
-6.12752581

$$$$

 OpenBabel03262522463D

 42 46  0  0  1  0  0  0  0  0999 V2000
   39.7590   24.7580   30.5730 C   0  0  0  0  0  0  0  0  0  0  0  0
   39.3520   24.8540   31.9680 C   0  0  0  0  0  0  0  0  0  0  0  0
   39.7410   23.8770   32.8360 C   0  0  0  0  0  0  0  0  0  0  0  0
   40.5030   22.8440   32.3230 N   0  0  0  0  0  0  0  0  0  0  0  0
   40.8650   22.7740   31.0300 C   0  0  0  0  0  0  0  0  0  0  0  0
   40.4940   23.7270   30.1700 N   0  0  0  0  0  0  0  0  0  0  0  0
   41.6130   21.6810   30.5360 N   0  0  0  0  0  0  0  0  0  0  0  0
   39.4240   25.5620   29.9300 H   0  0  0  0  0  0  0  0  0  0  0  0
   40.8440   21.0250   30.2270 H   0  0  0  0  0  0  0  0  0  0  0  0
   42.6360   21.5910   30.5070 H   0  0  0  0  0  0  0  0  0  0  0  0
   39.4200   23.8480   34.2190 N   0  0  0  0  0  0  0  0  0  0  0  0
   38.4360   24.5780   34.8250 C   0  0  0  0  0  0  0  0  0  0  0  0
   37.7820   25.2680   34.3010 H   0  0  0  0  0  0  0  0  0  0  0  0
   38.4550   24.2660   36.1540 N   0  0  0  0  0  0  0  0  0  0  0  0
   39.4210   23.3610   36.4080 C   0  0  0  0  0  0  0  0  0  0  0  0
   39.9030   22.6920   37.5100 C   0  0  0  0  0  0  0  0  0  0  0  0
   40.9130   21.8220   37.4350 N   0  0  0  0  0  0  0  0  0  0  0  0
   41.4950   21.5760   36.2490 C   0  0  0  0  0  0  0  0  0  0  0  0
   42.3070   20.8620   36.2570 H   0  0  0  0  0  0  0  0  0  0  0  0
   41.0590   22.2070   35.1350 N   0  0  0  0  0  0  0  0  0  0  0  0
   40.0350   23.0950   35.1790 C   0  0  0  0  0  0  0  0  0  0  0  0
   38.5720   26.0290   32.4950 C   0  0  1  0  0  0  0  0  0  0  0  0
   39.2550   27.1550   33.0550 C   0  0  0  0  0  0  0  0  0  0  0  0
   38.7210   27.3380   31.6460 C   0  0  2  0  0  0  0  0  0  0  0  0
   37.4660   25.8530   32.5670 H   0  0  0  0  0  0  0  0  0  0  0  0
   38.7460   27.7720   33.8530 H   0  0  0  0  0  0  0  0  0  0  0  0
   40.3500   27.2330   33.1650 H   0  0  0  0  0  0  0  0  0  0  0  0
   39.5880   27.6180   31.0420 H   0  0  0  0  0  0  0  0  0  0  0  0
   38.3510   29.3990   29.3610 Cl  0  0  0  0  0  0  0  0  0  0  0  0
   37.1940   29.1660   30.6490 C   0  0  0  0  0  0  0  0  0  0  0  0
   37.5670   28.2390   31.5940 C   0  0  0  0  0  0  0  0  0  0  0  0
   36.6710   28.0490   32.6380 C   0  0  0  0  0  0  0  0  0  0  0  0
   35.4730   28.7610   32.7210 C   0  0  0  0  0  0  0  0  0  0  0  0
   35.1500   29.6990   31.7240 C   0  0  0  0  0  0  0  0  0  0  0  0
   33.7050   30.6860   31.7440 Cl  0  0  0  0  0  0  0  0  0  0  0  0
   36.0460   29.8900   30.6700 C   0  0  0  0  0  0  0  0  0  0  0  0
   36.6550   27.4070   33.5030 H   0  0  0  0  0  0  0  0  0  0  0  0
   34.7030   28.7070   33.4710 H   0  0  0  0  0  0  0  0  0  0  0  0
   35.8610   30.5890   29.8740 H   0  0  0  0  0  0  0  0  0  0  0  0
   39.2820   22.9600   38.7580 N   0  0  0  0  0  0  0  0  0  0  0  0
   39.4280   22.4330   39.6370 H   0  0  0  0  0  0  0  0  0  0  0  0
   38.6110   23.7250   38.9090 H   0  0  0  0  0  0  0  0  0  0  0  0
  1  2  1  0  0  0  0
  2 22  1  0  0  0  0
  2  3  2  0  0  0  0
  3 11  1  0  0  0  0
  4  3  1  0  0  0  0
  5  4  2  0  0  0  0
  6  1  2  0  0  0  0
  6  5  1  0  0  0  0
  7  5  1  0  0  0  0
  8  1  1  0  0  0  0
  9  7  1  0  0  0  0
 10  7  1  0  0  0  0
 11 12  1  0  0  0  0
 11 21  1  0  0  0  0
 12 14  2  0  0  0  0
 13 12  1  0  0  0  0
 14 15  1  0  0  0  0
 15 16  1  0  0  0  0
 16 40  1  0  0  0  0
 17 16  2  0  0  0  0
 18 19  1  0  0  0  0
 18 17  1  0  0  0  0
 20 21  1  0  0  0  0
 20 18  2  0  0  0  0
 21 15  2  0  0  0  0
 22 25  1  1  0  0  0
 22 23  1  0  0  0  0
 23 27  1  0  0  0  0
 23 26  1  0  0  0  0
 24 28  1  6  0  0  0
 24 22  1  0  0  0  0
 24 23  1  0  0  0  0
 29 30  1  0  0  0  0
 30 36  2  0  0  0  0
 30 31  1  0  0  0  0
 31 24  1  0  0  0  0
 31 32  2  0  0  0  0
 32 33  1  0  0  0  0
 32 37  1  0  0  0  0
 33 38  1  0  0  0  0
 34 35  1  0  0  0  0
 34 33  2  0  0  0  0
 36 34  1  0  0  0  0
 39 36  1  0  0  0  0
 40 42  1  0  0  0  0
 40 41  1  0  0  0  0
M  END
>  <minimizedAffinity>
-6.08499384

$$$$

 OpenBabel03262522463D

 42 46  0  0  1  0  0  0  0  0999 V2000
   35.9340   28.7700   34.1110 C   0  0  0  0  0  0  0  0  0  0  0  0
   36.4840   28.6240   32.7700 C   0  0  0  0  0  0  0  0  0  0  0  0
   36.3200   29.6420   31.8780 C   0  0  0  0  0  0  0  0  0  0  0  0
   35.6290   30.7570   32.3120 N   0  0  0  0  0  0  0  0  0  0  0  0
   35.1270   30.8690   33.5540 C   0  0  0  0  0  0  0  0  0  0  0  0
   35.2830   29.8810   34.4400 N   0  0  0  0  0  0  0  0  0  0  0  0
   34.3930   32.0110   33.9480 N   0  0  0  0  0  0  0  0  0  0  0  0
   36.0950   27.9320   34.7780 H   0  0  0  0  0  0  0  0  0  0  0  0
   33.4060   31.7160   33.7110 H   0  0  0  0  0  0  0  0  0  0  0  0
   34.7640   32.8790   34.3540 H   0  0  0  0  0  0  0  0  0  0  0  0
   36.8080   29.6350   30.5440 N   0  0  0  0  0  0  0  0  0  0  0  0
   37.2140   28.5310   29.8480 C   0  0  0  0  0  0  0  0  0  0  0  0
   37.2020   27.5220   30.2510 H   0  0  0  0  0  0  0  0  0  0  0  0
   37.6100   28.9490   28.6110 N   0  0  0  0  0  0  0  0  0  0  0  0
   37.4690   30.2860   28.5020 C   0  0  0  0  0  0  0  0  0  0  0  0
   37.6920   31.2410   27.5380 C   0  0  0  0  0  0  0  0  0  0  0  0
   37.4420   32.5370   27.7410 N   0  0  0  0  0  0  0  0  0  0  0  0
   36.9530   32.9430   28.9250 C   0  0  0  0  0  0  0  0  0  0  0  0
   36.7720   34.0050   29.0250 H   0  0  0  0  0  0  0  0  0  0  0  0
   36.7150   32.0440   29.9070 N   0  0  0  0  0  0  0  0  0  0  0  0
   36.9590   30.7220   29.7300 C   0  0  0  0  0  0  0  0  0  0  0  0
   37.2820   27.4160   32.3600 C   0  0  1  0  0  0  0  0  0  0  0  0
   38.3120   26.9090   33.2130 C   0  0  0  0  0  0  0  0  0  0  0  0
   37.0060   26.1350   33.2210 C   0  0  2  0  0  0  0  0  0  0  0  0
   37.1170   27.0930   31.2970 H   0  0  0  0  0  0  0  0  0  0  0  0
   39.1950   26.3700   32.7580 H   0  0  0  0  0  0  0  0  0  0  0  0
   38.6060   27.3590   34.1760 H   0  0  0  0  0  0  0  0  0  0  0  0
   36.6860   26.1190   34.2650 H   0  0  0  0  0  0  0  0  0  0  0  0
   34.9210   25.1860   31.1330 Cl  0  0  0  0  0  0  0  0  0  0  0  0
   36.3430   24.2680   31.5650 C   0  0  0  0  0  0  0  0  0  0  0  0
   37.1170   24.8380   32.5490 C   0  0  0  0  0  0  0  0  0  0  0  0
   38.2440   24.1170   32.9220 C   0  0  0  0  0  0  0  0  0  0  0  0
   38.5630   22.8910   32.3360 C   0  0  0  0  0  0  0  0  0  0  0  0
   37.7290   22.3590   31.3360 C   0  0  0  0  0  0  0  0  0  0  0  0
   37.9960   20.8110   30.5640 Cl  0  0  0  0  0  0  0  0  0  0  0  0
   36.5970   23.0820   30.9550 C   0  0  0  0  0  0  0  0  0  0  0  0
   39.0410   24.2870   33.6270 H   0  0  0  0  0  0  0  0  0  0  0  0
   39.3980   22.2420   32.5340 H   0  0  0  0  0  0  0  0  0  0  0  0
   35.9170   22.7350   30.1970 H   0  0  0  0  0  0  0  0  0  0  0  0
   38.2100   30.8000   26.2910 N   0  0  0  0  0  0  0  0  0  0  0  0
   38.2870   31.3680   25.4280 H   0  0  0  0  0  0  0  0  0  0  0  0
   38.5660   29.8510   26.1250 H   0  0  0  0  0  0  0  0  0  0  0  0
  1  6  1  0  0  0  0
  1  8  1  0  0  0  0
  2  1  2  0  0  0  0
  3  4  2  0  0  0  0
  3  2  1  0  0  0  0
  4  5  1  0  0  0  0
  5  7  1  0  0  0  0
  5  6  2  0  0  0  0
  7 10  1  0  0  0  0
  9  7  1  0  0  0  0
 11  3  1  0  0  0  0
 12 13  1  0  0  0  0
 12 11  1  0  0  0  0
 14 12  2  0  0  0  0
 15 14  1  0  0  0  0
 15 21  1  0  0  0  0
 16 17  1  0  0  0  0
 16 15  2  0  0  0  0
 17 18  2  0  0  0  0
 18 19  1  0  0  0  0
 18 20  1  0  0  0  0
 21 20  2  0  0  0  0
 21 11  1  0  0  0  0
 22 25  1  6  0  0  0
 22  2  1  0  0  0  0
 22 23  1  0  0  0  0
 22 24  1  0  0  0  0
 23 24  1  0  0  0  0
 23 27  1  0  0  0  0
 24 28  1  1  0  0  0
 26 23  1  0  0  0  0
 29 30  1  0  0  0  0
 30 31  1  0  0  0  0
 31 32  2  0  0  0  0
 31 24  1  0  0  0  0
 32 37  1  0  0  0  0
 33 38  1  0  0  0  0
 33 32  1  0  0  0  0
 34 33  2  0  0  0  0
 35 34  1  0  0  0  0
 36 34  1  0  0  0  0
 36 30  2  0  0  0  0
 39 36  1  0  0  0  0
 40 16  1  0  0  0  0
 41 40  1  0  0  0  0
 42 40  1  0  0  0  0
M  END
>  <minimizedAffinity>
-6.00348043

$$$$

 OpenBabel03262522463D

 42 46  0  0  1  0  0  0  0  0999 V2000
   39.6900   25.3720   30.0780 C   0  0  0  0  0  0  0  0  0  0  0  0
   38.5380   24.6800   30.6400 C   0  0  0  0  0  0  0  0  0  0  0  0
   38.3320   23.3720   30.3150 C   0  0  0  0  0  0  0  0  0  0  0  0
   39.2430   22.7850   29.4570 N   0  0  0  0  0  0  0  0  0  0  0  0
   40.2980   23.4430   28.9480 C   0  0  0  0  0  0  0  0  0  0  0  0
   40.5140   24.7240   29.2610 N   0  0  0  0  0  0  0  0  0  0  0  0
   41.1860   22.8160   28.0430 N   0  0  0  0  0  0  0  0  0  0  0  0
   39.8050   26.4070   30.3720 H   0  0  0  0  0  0  0  0  0  0  0  0
   40.7440   23.0610   27.1140 H   0  0  0  0  0  0  0  0  0  0  0  0
   42.0280   22.2750   28.2730 H   0  0  0  0  0  0  0  0  0  0  0  0
   37.2550   22.5790   30.7930 N   0  0  0  0  0  0  0  0  0  0  0  0
   36.1080   23.0520   31.3660 C   0  0  0  0  0  0  0  0  0  0  0  0
   35.8950   24.1070   31.5160 H   0  0  0  0  0  0  0  0  0  0  0  0
   35.3360   21.9740   31.6880 N   0  0  0  0  0  0  0  0  0  0  0  0
   35.9600   20.8310   31.3360 C   0  0  0  0  0  0  0  0  0  0  0  0
   35.6920   19.4830   31.4020 C   0  0  0  0  0  0  0  0  0  0  0  0
   36.5450   18.5610   30.9500 N   0  0  0  0  0  0  0  0  0  0  0  0
   37.7130   18.9420   30.4070 C   0  0  0  0  0  0  0  0  0  0  0  0
   38.3590   18.1460   30.0610 H   0  0  0  0  0  0  0  0  0  0  0  0
   38.0250   20.2550   30.3180 N   0  0  0  0  0  0  0  0  0  0  0  0
   37.1790   21.2150   30.7670 C   0  0  0  0  0  0  0  0  0  0  0  0
   37.6050   25.3440   31.6180 C   0  0  1  0  0  0  0  0  0  0  0  0
   37.9190   25.3630   33.0140 C   0  0  0  0  0  0  0  0  0  0  0  0
   38.1690   26.6570   32.2610 C   0  0  2  0  0  0  0  0  0  0  0  0
   36.6130   25.6360   31.1830 H   0  0  0  0  0  0  0  0  0  0  0  0
   37.0810   25.3940   33.7710 H   0  0  0  0  0  0  0  0  0  0  0  0
   38.8100   24.8910   33.4620 H   0  0  0  0  0  0  0  0  0  0  0  0
   39.2240   26.8900   32.4290 H   0  0  0  0  0  0  0  0  0  0  0  0
   36.8750   28.4690   30.1050 Cl  0  0  0  0  0  0  0  0  0  0  0  0
   36.4830   28.5590   31.8050 C   0  0  0  0  0  0  0  0  0  0  0  0
   37.2050   27.7040   32.6050 C   0  0  0  0  0  0  0  0  0  0  0  0
   36.9230   27.7700   33.9640 C   0  0  0  0  0  0  0  0  0  0  0  0
   35.9720   28.6530   34.4790 C   0  0  0  0  0  0  0  0  0  0  0  0
   35.2700   29.5060   33.6080 C   0  0  0  0  0  0  0  0  0  0  0  0
   34.0920   30.6870   34.1370 Cl  0  0  0  0  0  0  0  0  0  0  0  0
   35.5470   29.4390   32.2410 C   0  0  0  0  0  0  0  0  0  0  0  0
   37.2870   27.2420   34.8300 H   0  0  0  0  0  0  0  0  0  0  0  0
   35.6660   28.7990   35.5000 H   0  0  0  0  0  0  0  0  0  0  0  0
   35.0460   30.0600   31.5190 H   0  0  0  0  0  0  0  0  0  0  0  0
   34.4550   19.0910   31.9790 N   0  0  0  0  0  0  0  0  0  0  0  0
   34.0500   18.1390   31.9620 H   0  0  0  0  0  0  0  0  0  0  0  0
   33.8300   19.7360   32.4800 H   0  0  0  0  0  0  0  0  0  0  0  0
  1  8  1  0  0  0  0
  1  2  1  0  0  0  0
  2 22  1  0  0  0  0
  3  2  2  0  0  0  0
  3 11  1  0  0  0  0
  4  3  1  0  0  0  0
  5  6  1  0  0  0  0
  5  4  2  0  0  0  0
  6  1  2  0  0  0  0
  7 10  1  0  0  0  0
  7  5  1  0  0  0  0
  9  7  1  0  0  0  0
 11 12  1  0  0  0  0
 12 13  1  0  0  0  0
 12 14  2  0  0  0  0
 15 16  1  0  0  0  0
 15 14  1  0  0  0  0
 16 40  1  0  0  0  0
 17 16  2  0  0  0  0
 18 17  1  0  0  0  0
 19 18  1  0  0  0  0
 20 18  2  0  0  0  0
 20 21  1  0  0  0  0
 21 11  1  0  0  0  0
 21 15  2  0  0  0  0
 22 25  1  6  0  0  0
 22 24  1  0  0  0  0
 22 23  1  0  0  0  0
 23 27  1  0  0  0  0
 23 26  1  0  0  0  0
 24 28  1  6  0  0  0
 24 31  1  0  0  0  0
 24 23  1  0  0  0  0
 29 30  1  0  0  0  0
 30 36  2  0  0  0  0
 30 31  1  0  0  0  0
 31 32  2  0  0  0  0
 32 33  1  0  0  0  0
 32 37  1  0  0  0  0
 33 38  1  0  0  0  0
 34 35  1  0  0  0  0
 34 33  2  0  0  0  0
 36 34  1  0  0  0  0
 39 36  1  0  0  0  0
 40 42  1  0  0  0  0
 41 40  1  0  0  0  0
M  END
>  <minimizedAffinity>
-5.95540857

$$$$

 OpenBabel03262522463D

 42 46  0  0  1  0  0  0  0  0999 V2000
   36.1990   27.5270   32.3630 C   0  0  0  0  0  0  0  0  0  0  0  0
   36.0340   28.9230   31.9810 C   0  0  0  0  0  0  0  0  0  0  0  0
   36.7230   29.3980   30.9050 C   0  0  0  0  0  0  0  0  0  0  0  0
   37.5470   28.5080   30.2420 N   0  0  0  0  0  0  0  0  0  0  0  0
   37.6870   27.2240   30.6140 C   0  0  0  0  0  0  0  0  0  0  0  0
   37.0150   26.7450   31.6640 N   0  0  0  0  0  0  0  0  0  0  0  0
   38.5710   26.3550   29.9320 N   0  0  0  0  0  0  0  0  0  0  0  0
   35.6260   27.2050   33.2230 H   0  0  0  0  0  0  0  0  0  0  0  0
   39.4590   26.4830   30.4900 H   0  0  0  0  0  0  0  0  0  0  0  0
   38.3600   25.7730   29.1120 H   0  0  0  0  0  0  0  0  0  0  0  0
   36.6520   30.7310   30.4220 N   0  0  0  0  0  0  0  0  0  0  0  0
   36.1660   31.8050   31.1130 C   0  0  0  0  0  0  0  0  0  0  0  0
   35.7790   31.7500   32.1260 H   0  0  0  0  0  0  0  0  0  0  0  0
   36.2710   32.8970   30.3000 N   0  0  0  0  0  0  0  0  0  0  0  0
   36.8080   32.5460   29.1140 C   0  0  0  0  0  0  0  0  0  0  0  0
   37.1460   33.1800   27.9410 C   0  0  0  0  0  0  0  0  0  0  0  0
   37.6830   32.5320   26.9050 N   0  0  0  0  0  0  0  0  0  0  0  0
   37.9100   31.2100   26.9900 C   0  0  0  0  0  0  0  0  0  0  0  0
   38.3460   30.7450   26.1170 H   0  0  0  0  0  0  0  0  0  0  0  0
   37.5960   30.5390   28.1220 N   0  0  0  0  0  0  0  0  0  0  0  0
   37.0500   31.1700   29.1910 C   0  0  0  0  0  0  0  0  0  0  0  0
   35.0780   29.8400   32.6970 C   0  0  1  0  0  0  0  0  0  0  0  0
   33.7990   29.3590   33.1220 C   0  0  0  0  0  0  0  0  0  0  0  0
   34.8520   29.4890   34.2070 C   0  0  2  0  0  0  0  0  0  0  0  0
   35.3830   30.9200   32.6920 H   0  0  0  0  0  0  0  0  0  0  0  0
   32.9310   30.0790   33.1970 H   0  0  0  0  0  0  0  0  0  0  0  0
   33.4230   28.3380   32.9420 H   0  0  0  0  0  0  0  0  0  0  0  0
   34.9300   28.4950   34.6560 H   0  0  0  0  0  0  0  0  0  0  0  0
   32.2120   29.6860   35.8180 Cl  0  0  0  0  0  0  0  0  0  0  0  0
   33.5180   30.8360   35.9600 C   0  0  0  0  0  0  0  0  0  0  0  0
   34.5830   30.6010   35.1220 C   0  0  0  0  0  0  0  0  0  0  0  0
   35.6270   31.5130   35.2040 C   0  0  0  0  0  0  0  0  0  0  0  0
   35.5910   32.6000   36.0800 C   0  0  0  0  0  0  0  0  0  0  0  0
   34.4700   32.7890   36.9090 C   0  0  0  0  0  0  0  0  0  0  0  0
   34.2860   34.1380   38.0090 Cl  0  0  0  0  0  0  0  0  0  0  0  0
   33.4200   31.8710   36.8320 C   0  0  0  0  0  0  0  0  0  0  0  0
   36.5830   31.6030   34.7140 H   0  0  0  0  0  0  0  0  0  0  0  0
   36.3260   33.3690   36.2370 H   0  0  0  0  0  0  0  0  0  0  0  0
   32.5350   31.9540   37.4390 H   0  0  0  0  0  0  0  0  0  0  0  0
   36.9010   34.5770   27.8610 N   0  0  0  0  0  0  0  0  0  0  0  0
   37.2350   35.2120   27.1140 H   0  0  0  0  0  0  0  0  0  0  0  0
   36.3540   35.1000   28.5560 H   0  0  0  0  0  0  0  0  0  0  0  0
  1  8  1  0  0  0  0
  2  1  1  0  0  0  0
  2 22  1  0  0  0  0
  3  2  2  0  0  0  0
  4  5  2  0  0  0  0
  4  3  1  0  0  0  0
  5  6  1  0  0  0  0
  6  1  2  0  0  0  0
  7  9  1  0  0  0  0
  7  5  1  0  0  0  0
 10  7  1  0  0  0  0
 11  3  1  0  0  0  0
 11 12  1  0  0  0  0
 12 13  1  0  0  0  0
 14 12  2  0  0  0  0
 15 21  1  0  0  0  0
 15 14  1  0  0  0  0
 16 15  2  0  0  0  0
 17 18  2  0  0  0  0
 17 16  1  0  0  0  0
 18 20  1  0  0  0  0
 19 18  1  0  0  0  0
 20 21  2  0  0  0  0
 21 11  1  0  0  0  0
 22 25  1  6  0  0  0
 22 23  1  0  0  0  0
 22 24  1  0  0  0  0
 23 26  1  0  0  0  0
 23 24  1  0  0  0  0
 24 28  1  1  0  0  0
 24 31  1  0  0  0  0
 27 23  1  0  0  0  0
 29 30  1  0  0  0  0
 30 36  1  0  0  0  0
 31 32  1  0  0  0  0
 31 30  2  0  0  0  0
 32 33  2  0  0  0  0
 33 38  1  0  0  0  0
 33 34  1  0  0  0  0
 34 35  1  0  0  0  0
 36 34  2  0  0  0  0
 36 39  1  0  0  0  0
 37 32  1  0  0  0  0
 40 16  1  0  0  0  0
 40 42  1  0  0  0  0
 41 40  1  0  0  0  0
M  END
>  <minimizedAffinity>
-5.87903452

$$$$
