
 OpenBabel03272502173D

 38 41  0  0  1  0  0  0  0  0999 V2000
   37.3170   30.5880   48.8850 C   0  0  0  0  0  0  0  0  0  0  0  0
   37.5540   31.6080   49.8160 C   0  0  0  0  0  0  0  0  0  0  0  0
   38.4300   32.6340   49.4570 C   0  0  0  0  0  0  0  0  0  0  0  0
   39.0050   32.5760   48.2080 N   0  0  0  0  0  0  0  0  0  0  0  0
   38.7530   31.5880   47.3520 C   0  0  0  0  0  0  0  0  0  0  0  0
   37.9170   30.6080   47.6920 N   0  0  0  0  0  0  0  0  0  0  0  0
   37.1600   31.7350   50.7950 H   0  0  0  0  0  0  0  0  0  0  0  0
   38.6790   33.4590   50.0960 H   0  0  0  0  0  0  0  0  0  0  0  0
   39.3390   31.5150   46.0570 N   0  0  0  0  0  0  0  0  0  0  0  0
   40.6270   31.2080   45.7320 C   0  0  0  0  0  0  0  0  0  0  0  0
   41.3340   30.9840   46.5270 H   0  0  0  0  0  0  0  0  0  0  0  0
   40.7480   31.2560   44.3770 N   0  0  0  0  0  0  0  0  0  0  0  0
   39.5640   31.5830   43.8880 C   0  0  0  0  0  0  0  0  0  0  0  0
   39.1900   31.7550   42.5580 C   0  0  0  0  0  0  0  0  0  0  0  0
   37.9000   32.0930   42.3390 N   0  0  0  0  0  0  0  0  0  0  0  0
   37.0340   32.2520   43.3710 C   0  0  0  0  0  0  0  0  0  0  0  0
   36.0200   32.5270   43.0540 H   0  0  0  0  0  0  0  0  0  0  0  0
   37.4060   32.0840   44.6530 N   0  0  0  0  0  0  0  0  0  0  0  0
   38.6780   31.7470   44.9320 C   0  0  0  0  0  0  0  0  0  0  0  0
   40.1370   31.5750   41.5090 N   0  0  0  0  0  0  0  0  0  0  0  0
   40.3790   32.4090   40.9310 H   0  0  0  0  0  0  0  0  0  0  0  0
   40.3800   30.5510   41.5830 H   0  0  0  0  0  0  0  0  0  0  0  0
   36.1870   29.3660   49.4910 S   0  0  0  0  0  0  0  0  0  0  0  0
   33.5960   28.6550   49.1300 N   0  0  0  0  0  0  0  0  0  0  0  0
   34.4430   29.8130   49.0900 C   0  0  2  0  0  0  0  0  0  0  0  0
   34.4110   30.3920   47.6900 C   0  0  0  0  0  0  0  0  0  0  0  0
   33.3010   29.8930   46.9800 O   0  0  0  0  0  0  0  0  0  0  0  0
   33.5970   28.5500   46.7480 C   0  0  0  0  0  0  0  0  0  0  0  0
   33.9590   27.8080   48.0120 C   0  0  2  0  0  0  0  0  0  0  0  0
   33.7150   28.1500   50.0320 H   0  0  0  0  0  0  0  0  0  0  0  0
   34.0690   30.5170   49.8610 H   0  0  0  0  0  0  0  0  0  0  0  0
   34.2450   31.4830   47.7920 H   0  0  0  0  0  0  0  0  0  0  0  0
   35.3470   30.2530   47.1330 H   0  0  0  0  0  0  0  0  0  0  0  0
   34.4740   28.5070   46.0510 H   0  0  0  0  0  0  0  0  0  0  0  0
   32.7500   28.0930   46.2100 H   0  0  0  0  0  0  0  0  0  0  0  0
   35.0440   27.5680   48.0200 H   0  0  0  0  0  0  0  0  0  0  0  0
   33.2110   26.6150   48.1160 O   0  0  0  0  0  0  0  0  0  0  0  0
   33.5760   26.0050   47.4290 H   0  0  0  0  0  0  0  0  0  0  0  0
  1 23  1  0  0  0  0
  1  2  1  0  0  0  0
  2  7  1  0  0  0  0
  3  2  2  0  0  0  0
  3  8  1  0  0  0  0
  4  3  1  0  0  0  0
  5  6  1  0  0  0  0
  5  4  2  0  0  0  0
  6  1  2  0  0  0  0
  9  5  1  0  0  0  0
 10  9  1  0  0  0  0
 10 11  1  0  0  0  0
 12 10  2  0  0  0  0
 13 12  1  0  0  0  0
 13 19  1  0  0  0  0
 14 13  2  0  0  0  0
 15 14  1  0  0  0  0
 15 16  2  0  0  0  0
 16 18  1  0  0  0  0
 17 16  1  0  0  0  0
 18 19  2  0  0  0  0
 19  9  1  0  0  0  0
 20 22  1  0  0  0  0
 20 14  1  0  0  0  0
 21 20  1  0  0  0  0
 24 30  1  0  0  0  0
 25 24  1  0  0  0  0
 25 23  1  0  0  0  0
 25 31  1  1  0  0  0
 26 32  1  0  0  0  0
 26 25  1  0  0  0  0
 27 26  1  0  0  0  0
 28 27  1  0  0  0  0
 28 29  1  0  0  0  0
 29 36  1  1  0  0  0
 29 37  1  0  0  0  0
 29 24  1  0  0  0  0
 33 26  1  0  0  0  0
 34 28  1  0  0  0  0
 35 28  1  0  0  0  0
 38 37  1  0  0  0  0
M  END
>  <minimizedAffinity>
-6.61510229

>  <minimizedRMSD>
0.669404924

$$$$
