
 OpenBabel03272502173D

 38 41  0  0  1  0  0  0  0  0999 V2000
   37.5280   30.7120   48.7980 C   0  0  0  0  0  0  0  0  0  0  0  0
   37.6910   31.6940   49.7830 C   0  0  0  0  0  0  0  0  0  0  0  0
   38.4600   32.8160   49.4720 C   0  0  0  0  0  0  0  0  0  0  0  0
   39.0100   32.8850   48.2120 N   0  0  0  0  0  0  0  0  0  0  0  0
   38.8310   31.9300   47.3030 C   0  0  0  0  0  0  0  0  0  0  0  0
   38.0970   30.8570   47.5970 N   0  0  0  0  0  0  0  0  0  0  0  0
   37.3090   31.7260   50.7750 H   0  0  0  0  0  0  0  0  0  0  0  0
   38.6460   33.6230   50.1550 H   0  0  0  0  0  0  0  0  0  0  0  0
   39.3920   31.9860   45.9960 N   0  0  0  0  0  0  0  0  0  0  0  0
   40.1360   32.9860   45.4420 C   0  0  0  0  0  0  0  0  0  0  0  0
   40.3560   33.8720   46.0340 H   0  0  0  0  0  0  0  0  0  0  0  0
   40.4630   32.6210   44.1730 N   0  0  0  0  0  0  0  0  0  0  0  0
   39.9320   31.4300   43.9580 C   0  0  0  0  0  0  0  0  0  0  0  0
   39.9920   30.6450   42.8090 C   0  0  0  0  0  0  0  0  0  0  0  0
   39.3520   29.4550   42.8630 N   0  0  0  0  0  0  0  0  0  0  0  0
   38.6940   29.0660   43.9830 C   0  0  0  0  0  0  0  0  0  0  0  0
   38.2190   28.0810   43.8930 H   0  0  0  0  0  0  0  0  0  0  0  0
   38.6430   29.8330   45.0880 N   0  0  0  0  0  0  0  0  0  0  0  0
   39.2610   31.0260   45.0930 C   0  0  0  0  0  0  0  0  0  0  0  0
   40.6980   31.0980   41.6560 N   0  0  0  0  0  0  0  0  0  0  0  0
   40.1430   31.2760   40.7920 H   0  0  0  0  0  0  0  0  0  0  0  0
   41.6960   31.1450   41.9940 H   0  0  0  0  0  0  0  0  0  0  0  0
   36.5290   29.3570   49.3490 S   0  0  0  0  0  0  0  0  0  0  0  0
   33.9630   28.5090   49.1450 N   0  0  0  0  0  0  0  0  0  0  0  0
   34.7350   29.7200   49.1320 C   0  0  2  0  0  0  0  0  0  0  0  0
   34.5460   30.4020   47.7920 C   0  0  0  0  0  0  0  0  0  0  0  0
   33.4090   29.8890   47.1370 O   0  0  0  0  0  0  0  0  0  0  0  0
   33.7610   28.5910   46.7700 C   0  0  0  0  0  0  0  0  0  0  0  0
   34.2750   27.7770   47.9340 C   0  0  2  0  0  0  0  0  0  0  0  0
   34.1890   27.9440   49.9890 H   0  0  0  0  0  0  0  0  0  0  0  0
   34.3890   30.3360   49.9860 H   0  0  0  0  0  0  0  0  0  0  0  0
   34.3270   31.4690   47.9970 H   0  0  0  0  0  0  0  0  0  0  0  0
   35.4360   30.3680   47.1490 H   0  0  0  0  0  0  0  0  0  0  0  0
   34.5740   28.6590   46.0020 H   0  0  0  0  0  0  0  0  0  0  0  0
   32.8980   28.1230   46.2690 H   0  0  0  0  0  0  0  0  0  0  0  0
   35.3680   27.6080   47.8320 H   0  0  0  0  0  0  0  0  0  0  0  0
   33.6090   26.5340   48.0000 O   0  0  0  0  0  0  0  0  0  0  0  0
   33.9470   26.0040   47.2370 H   0  0  0  0  0  0  0  0  0  0  0  0
  1 23  1  0  0  0  0
  1  2  1  0  0  0  0
  2  7  1  0  0  0  0
  3  2  2  0  0  0  0
  3  8  1  0  0  0  0
  4  3  1  0  0  0  0
  5  6  1  0  0  0  0
  5  4  2  0  0  0  0
  6  1  2  0  0  0  0
  9  5  1  0  0  0  0
 10  9  1  0  0  0  0
 10 11  1  0  0  0  0
 12 10  2  0  0  0  0
 13 12  1  0  0  0  0
 13 19  1  0  0  0  0
 14 15  1  0  0  0  0
 14 13  2  0  0  0  0
 15 16  2  0  0  0  0
 16 18  1  0  0  0  0
 17 16  1  0  0  0  0
 18 19  2  0  0  0  0
 19  9  1  0  0  0  0
 20 22  1  0  0  0  0
 20 14  1  0  0  0  0
 21 20  1  0  0  0  0
 24 30  1  0  0  0  0
 25 24  1  0  0  0  0
 25 23  1  0  0  0  0
 25 31  1  1  0  0  0
 26 32  1  0  0  0  0
 26 25  1  0  0  0  0
 27 26  1  0  0  0  0
 28 27  1  0  0  0  0
 28 29  1  0  0  0  0
 29 36  1  6  0  0  0
 29 37  1  0  0  0  0
 29 24  1  0  0  0  0
 33 26  1  0  0  0  0
 34 28  1  0  0  0  0
 35 28  1  0  0  0  0
 38 37  1  0  0  0  0
M  END
>  <minimizedAffinity>
-6.29476595

>  <minimizedRMSD>
0.829795063

$$$$
