
 OpenBabel03272502053D

 44 48  0  0  0  0  0  0  0  0999 V2000
   34.5440   30.7620   46.3150 F   0  0  0  0  0  0  0  0  0  0  0  0
   34.8770   29.9910   45.2320 C   0  0  0  0  0  0  0  0  0  0  0  0
   33.9390   29.2330   44.5530 C   0  0  0  0  0  0  0  0  0  0  0  0
   34.3470   28.4930   43.4590 C   0  0  0  0  0  0  0  0  0  0  0  0
   35.6840   28.5090   43.0440 C   0  0  0  0  0  0  0  0  0  0  0  0
   36.5670   29.2870   43.7690 C   0  0  0  0  0  0  0  0  0  0  0  0
   36.2140   30.0200   44.8380 C   0  0  0  0  0  0  0  0  0  0  0  0
   33.5760   27.9260   42.9720 H   0  0  0  0  0  0  0  0  0  0  0  0
   35.9590   27.9150   42.1820 H   0  0  0  0  0  0  0  0  0  0  0  0
   37.5710   29.2440   43.3850 H   0  0  0  0  0  0  0  0  0  0  0  0
   32.4500   29.0770   46.4370 C   0  0  0  0  0  0  0  0  0  0  0  0
   32.6060   29.3020   45.0760 C   0  0  0  0  0  0  0  0  0  0  0  0
   31.4720   29.5830   44.3360 C   0  0  0  0  0  0  0  0  0  0  0  0
   30.2590   29.6320   44.9350 N   0  0  0  0  0  0  0  0  0  0  0  0
   30.1460   29.4090   46.2500 C   0  0  0  0  0  0  0  0  0  0  0  0
   31.2100   29.1380   46.9900 N   0  0  0  0  0  0  0  0  0  0  0  0
   33.3090   28.8520   47.0650 H   0  0  0  0  0  0  0  0  0  0  0  0
   31.6350   29.7540   43.2620 H   0  0  0  0  0  0  0  0  0  0  0  0
   28.7940   29.5050   46.6990 N   0  0  0  0  0  0  0  0  0  0  0  0
   27.8670   30.4840   46.5180 C   0  0  0  0  0  0  0  0  0  0  0  0
   28.0590   31.3840   45.9650 H   0  0  0  0  0  0  0  0  0  0  0  0
   26.7140   30.1170   47.1370 N   0  0  0  0  0  0  0  0  0  0  0  0
   26.9350   28.9340   47.6880 C   0  0  0  0  0  0  0  0  0  0  0  0
   26.1570   28.0760   48.4330 C   0  0  0  0  0  0  0  0  0  0  0  0
   26.6330   26.8880   48.8910 N   0  0  0  0  0  0  0  0  0  0  0  0
   27.9000   26.5040   48.6300 C   0  0  0  0  0  0  0  0  0  0  0  0
   28.2380   25.5520   49.0130 H   0  0  0  0  0  0  0  0  0  0  0  0
   28.6710   27.3320   47.9030 N   0  0  0  0  0  0  0  0  0  0  0  0
   28.2180   28.5120   47.4410 C   0  0  0  0  0  0  0  0  0  0  0  0
   24.8070   28.3720   48.7720 N   0  0  0  0  0  0  0  0  0  0  0  0
   23.8120   28.2850   48.4780 H   0  0  0  0  0  0  0  0  0  0  0  0
   24.8320   28.8900   49.7000 H   0  0  0  0  0  0  0  0  0  0  0  0
   37.5990   32.3800   43.3120 Br  0  0  0  0  0  0  0  0  0  0  0  0
   37.9110   31.8930   45.1280 C   0  0  0  0  0  0  0  0  0  0  0  0
   37.1990   30.8050   45.5580 C   0  0  0  0  0  0  0  0  0  0  0  0
   37.4030   30.3640   46.8790 C   0  0  0  0  0  0  0  0  0  0  0  0
   38.2780   31.0020   47.6980 C   0  0  0  0  0  0  0  0  0  0  0  0
   38.9640   32.0960   47.2000 C   0  0  0  0  0  0  0  0  0  0  0  0
   38.7880   32.5620   45.8970 C   0  0  0  0  0  0  0  0  0  0  0  0
   36.8850   29.5140   47.3010 H   0  0  0  0  0  0  0  0  0  0  0  0
   38.4490   30.6780   48.7160 H   0  0  0  0  0  0  0  0  0  0  0  0
   39.6750   32.6370   47.8240 H   0  0  0  0  0  0  0  0  0  0  0  0
   39.4220   33.6280   45.3390 O   0  0  0  0  0  0  0  0  0  0  0  0
   40.2320   33.5540   44.7640 H   0  0  0  0  0  0  0  0  0  0  0  0
  2  1  1  0  0  0  0
  3 12  1  0  0  0  0
  3  2  2  0  0  0  0
  4  3  1  0  0  0  0
  5  4  2  0  0  0  0
  5  6  1  0  0  0  0
  6  7  2  0  0  0  0
  7  2  1  0  0  0  0
  7 35  1  0  0  0  0
  8  4  1  0  0  0  0
  9  5  1  0  0  0  0
 10  6  1  0  0  0  0
 11 16  1  0  0  0  0
 11 17  1  0  0  0  0
 12 11  2  0  0  0  0
 13 14  2  0  0  0  0
 13 12  1  0  0  0  0
 14 15  1  0  0  0  0
 15 19  1  0  0  0  0
 15 16  2  0  0  0  0
 18 13  1  0  0  0  0
 19 29  1  0  0  0  0
 20 19  1  0  0  0  0
 20 22  2  0  0  0  0
 21 20  1  0  0  0  0
 22 23  1  0  0  0  0
 23 24  1  0  0  0  0
 24 30  1  0  0  0  0
 24 25  2  0  0  0  0
 26 25  1  0  0  0  0
 26 27  1  0  0  0  0
 28 26  2  0  0  0  0
 29 23  2  0  0  0  0
 29 28  1  0  0  0  0
 30 32  1  0  0  0  0
 31 30  1  0  0  0  0
 33 34  1  0  0  0  0
 34 35  2  0  0  0  0
 34 39  1  0  0  0  0
 35 36  1  0  0  0  0
 36 40  1  0  0  0  0
 36 37  2  0  0  0  0
 37 41  1  0  0  0  0
 38 37  1  0  0  0  0
 38 42  1  0  0  0  0
 39 38  2  0  0  0  0
 43 39  1  0  0  0  0
 44 43  1  0  0  0  0
M  END
>  <minimizedAffinity>
-6.74760866

>  <minimizedRMSD>
1.42335582

$$$$
