
 OpenBabel03272504153D

 29 31  0  0  0  0  0  0  0  0999 V2000
   36.0970   30.1370   48.0680 C   0  0  0  0  0  0  0  0  0  0  0  0
   35.0470   29.3530   48.5550 C   0  0  0  0  0  0  0  0  0  0  0  0
   34.8880   29.2130   49.9200 C   0  0  0  0  0  0  0  0  0  0  0  0
   35.7700   29.8520   50.7440 N   0  0  0  0  0  0  0  0  0  0  0  0
   36.7800   30.6070   50.2540 C   0  0  0  0  0  0  0  0  0  0  0  0
   36.9530   30.7560   48.9140 N   0  0  0  0  0  0  0  0  0  0  0  0
   34.0700   28.6020   50.2440 H   0  0  0  0  0  0  0  0  0  0  0  0
   37.4620   31.0990   50.9510 H   0  0  0  0  0  0  0  0  0  0  0  0
   34.2270   28.7610   47.5980 N   0  0  0  0  0  0  0  0  0  0  0  0
   34.1480   27.4450   47.3240 C   0  0  0  0  0  0  0  0  0  0  0  0
   34.6810   26.6150   47.7660 H   0  0  0  0  0  0  0  0  0  0  0  0
   33.2410   27.2920   46.3390 N   0  0  0  0  0  0  0  0  0  0  0  0
   32.7540   28.5120   46.0020 C   0  0  0  0  0  0  0  0  0  0  0  0
   31.8160   28.9260   45.0690 C   0  0  0  0  0  0  0  0  0  0  0  0
   31.5340   30.2340   44.9620 N   0  0  0  0  0  0  0  0  0  0  0  0
   32.1370   31.1680   45.7370 C   0  0  0  0  0  0  0  0  0  0  0  0
   31.8890   32.2330   45.6290 H   0  0  0  0  0  0  0  0  0  0  0  0
   33.0490   30.7650   46.6440 N   0  0  0  0  0  0  0  0  0  0  0  0
   33.3750   29.4550   46.7980 C   0  0  0  0  0  0  0  0  0  0  0  0
   31.1970   27.9260   44.2660 N   0  0  0  0  0  0  0  0  0  0  0  0
   31.5350   28.1760   43.3050 H   0  0  0  0  0  0  0  0  0  0  0  0
   30.5640   27.1090   44.4150 H   0  0  0  0  0  0  0  0  0  0  0  0
   36.3890   30.3750   46.7300 O   0  0  0  0  0  0  0  0  0  0  0  0
   38.1350   32.3450   47.3240 O   0  0  0  0  0  0  0  0  0  0  0  0
   37.7160   31.3470   46.2560 P   0  0  0  0  0  0  0  0  0  0  0  0
   38.9810   30.2880   45.8940 O   0  0  0  0  0  0  0  0  0  0  0  0
   39.7430   30.8140   45.5550 H   0  0  0  0  0  0  0  0  0  0  0  0
   37.2960   32.2640   44.8930 O   0  0  0  0  0  0  0  0  0  0  0  0
   36.3090   32.3780   44.8780 H   0  0  0  0  0  0  0  0  0  0  0  0
  1  2  2  0  0  0  0
  1  6  1  0  0  0  0
  2  3  1  0  0  0  0
  3  7  1  0  0  0  0
  3  4  2  0  0  0  0
  5  4  1  0  0  0  0
  5  8  1  0  0  0  0
  6  5  2  0  0  0  0
  9  2  1  0  0  0  0
 10  9  1  0  0  0  0
 10 11  1  0  0  0  0
 12 10  2  0  0  0  0
 13 12  1  0  0  0  0
 13 19  1  0  0  0  0
 14 13  2  0  0  0  0
 15 14  1  0  0  0  0
 15 16  2  0  0  0  0
 16 18  1  0  0  0  0
 17 16  1  0  0  0  0
 18 19  2  0  0  0  0
 19  9  1  0  0  0  0
 20 22  1  0  0  0  0
 20 14  1  0  0  0  0
 21 20  1  0  0  0  0
 23  1  1  0  0  0  0
 25 23  1  0  0  0  0
 25 24  2  0  0  0  0
 26 25  1  0  0  0  0
 27 26  1  0  0  0  0
 28 25  1  0  0  0  0
 29 28  1  0  0  0  0
M  END
>  <minimizedAffinity>
-4.38399839

>  <minimizedRMSD>
4.13017082

$$$$
