
 OpenBabel03272510253D

 50 55  0  0  1  0  0  0  0  0999 V2000
   38.1310   29.2090   42.1720 N   0  0  0  0  0  0  0  0  0  0  0  0
   37.9360   30.2960   41.1860 C   0  0  1  0  0  0  0  0  0  0  0  0
   36.9830   29.8400   40.1810 C   0  0  0  0  0  0  0  0  0  0  0  0
   37.5590   28.7700   39.4730 O   0  0  0  0  0  0  0  0  0  0  0  0
   37.9710   27.7190   40.2390 C   0  0  0  0  0  0  0  0  0  0  0  0
   38.7870   28.1520   41.4360 C   0  0  1  0  0  0  0  0  0  0  0  0
   38.8020   29.5810   42.8790 H   0  0  0  0  0  0  0  0  0  0  0  0
   38.8920   30.5450   40.6990 H   0  0  0  0  0  0  0  0  0  0  0  0
   35.9970   29.5150   40.3710 H   0  0  0  0  0  0  0  0  0  0  0  0
   36.9080   30.6530   39.3940 H   0  0  0  0  0  0  0  0  0  0  0  0
   38.6530   27.1040   39.6170 H   0  0  0  0  0  0  0  0  0  0  0  0
   37.1380   27.0390   40.5270 H   0  0  0  0  0  0  0  0  0  0  0  0
   38.9640   27.2580   42.0610 H   0  0  0  0  0  0  0  0  0  0  0  0
   40.0720   28.6640   40.9440 N   0  0  0  0  0  0  0  0  0  0  0  0
   40.7330   29.7840   41.2870 C   0  0  0  0  0  0  0  0  0  0  0  0
   40.3950   30.5060   42.0140 H   0  0  0  0  0  0  0  0  0  0  0  0
   41.8830   29.8810   40.5960 N   0  0  0  0  0  0  0  0  0  0  0  0
   41.9810   28.8200   39.7910 C   0  0  0  0  0  0  0  0  0  0  0  0
   42.9740   28.4780   38.8960 C   0  0  0  0  0  0  0  0  0  0  0  0
   42.7820   27.3280   38.2200 N   0  0  0  0  0  0  0  0  0  0  0  0
   41.6680   26.5730   38.4300 C   0  0  0  0  0  0  0  0  0  0  0  0
   41.5240   25.6410   37.8760 H   0  0  0  0  0  0  0  0  0  0  0  0
   40.7140   26.9300   39.3100 N   0  0  0  0  0  0  0  0  0  0  0  0
   40.8440   28.0520   40.0070 C   0  0  0  0  0  0  0  0  0  0  0  0
   44.1340   29.2730   38.6840 N   0  0  0  0  0  0  0  0  0  0  0  0
   44.7280   29.0770   39.5320 H   0  0  0  0  0  0  0  0  0  0  0  0
   44.2870   29.8880   37.8500 H   0  0  0  0  0  0  0  0  0  0  0  0
   37.4300   31.3720   41.9640 O   0  0  0  0  0  0  0  0  0  0  0  0
   35.1400   29.8640   47.2040 C   0  0  0  0  0  0  0  0  0  0  0  0
   36.4020   30.2720   47.6320 C   0  0  0  0  0  0  0  0  0  0  0  0
   37.3510   30.7340   46.7340 C   0  0  0  0  0  0  0  0  0  0  0  0
   36.9790   30.7680   45.3960 C   0  0  0  0  0  0  0  0  0  0  0  0
   37.7320   31.1800   44.3330 N   0  0  0  0  0  0  0  0  0  0  0  0
   36.9620   31.0360   43.2470 C   0  0  0  0  0  0  0  0  0  0  0  0
   35.7820   30.5580   43.5790 N   0  0  0  0  0  0  0  0  0  0  0  0
   35.7450   30.3740   44.9240 C   0  0  0  0  0  0  0  0  0  0  0  0
   34.8060   29.9130   45.8550 C   0  0  0  0  0  0  0  0  0  0  0  0
   34.3620   29.4970   47.8570 H   0  0  0  0  0  0  0  0  0  0  0  0
   38.3260   31.0480   47.0790 H   0  0  0  0  0  0  0  0  0  0  0  0
   38.7180   31.5350   44.3920 H   0  0  0  0  0  0  0  0  0  0  0  0
   33.8410   29.6080   45.4720 H   0  0  0  0  0  0  0  0  0  0  0  0
   37.9460   30.5340   51.0470 C   0  0  0  0  0  0  0  0  0  0  0  0
   37.7920   30.6950   49.6740 C   0  0  0  0  0  0  0  0  0  0  0  0
   36.6620   30.1710   49.0560 C   0  0  0  0  0  0  0  0  0  0  0  0
   35.7560   29.5190   49.8410 N   0  0  0  0  0  0  0  0  0  0  0  0
   35.9140   29.3680   51.1720 C   0  0  0  0  0  0  0  0  0  0  0  0
   36.9930   29.8700   51.7550 N   0  0  0  0  0  0  0  0  0  0  0  0
   38.8450   30.9680   51.4420 H   0  0  0  0  0  0  0  0  0  0  0  0
   38.5210   31.2150   49.0690 H   0  0  0  0  0  0  0  0  0  0  0  0
   35.1760   28.8460   51.7670 H   0  0  0  0  0  0  0  0  0  0  0  0
  1  7  1  0  0  0  0
  2  8  1  6  0  0  0
  2 28  1  0  0  0  0
  2  1  1  0  0  0  0
  3  9  1  0  0  0  0
  3  2  1  0  0  0  0
  4  3  1  0  0  0  0
  4  5  1  0  0  0  0
  5 12  1  0  0  0  0
  5  6  1  0  0  0  0
  6 13  1  1  0  0  0
  6  1  1  0  0  0  0
 10  3  1  0  0  0  0
 11  5  1  0  0  0  0
 14 15  1  0  0  0  0
 14  6  1  0  0  0  0
 15 16  1  0  0  0  0
 17 15  2  0  0  0  0
 18 24  1  0  0  0  0
 18 17  1  0  0  0  0
 19 18  2  0  0  0  0
 20 21  2  0  0  0  0
 20 19  1  0  0  0  0
 21 23  1  0  0  0  0
 22 21  1  0  0  0  0
 23 24  2  0  0  0  0
 24 14  1  0  0  0  0
 25 19  1  0  0  0  0
 25 26  1  0  0  0  0
 27 25  1  0  0  0  0
 28 34  1  0  0  0  0
 29 30  1  0  0  0  0
 29 38  1  0  0  0  0
 30 44  1  0  0  0  0
 31 39  1  0  0  0  0
 31 30  2  0  0  0  0
 32 31  1  0  0  0  0
 33 40  1  0  0  0  0
 33 32  1  0  0  0  0
 34 35  2  0  0  0  0
 34 33  1  0  0  0  0
 35 36  1  0  0  0  0
 36 32  2  0  0  0  0
 36 37  1  0  0  0  0
 37 29  2  0  0  0  0
 41 37  1  0  0  0  0
 42 48  1  0  0  0  0
 42 47  1  0  0  0  0
 43 42  2  0  0  0  0
 44 43  1  0  0  0  0
 44 45  2  0  0  0  0
 45 46  1  0  0  0  0
 46 47  2  0  0  0  0
 46 50  1  0  0  0  0
 49 43  1  0  0  0  0
M  END
>  <minimizedAffinity>
-5.93318844

>  <minimizedRMSD>
3.29041505

$$$$
