
 OpenBabel03272506133D

 29 31  0  0  0  0  0  0  0  0999 V2000
   35.4320   29.3520   49.3430 C   0  0  0  0  0  0  0  0  0  0  0  0
   36.1070   28.7790   50.4330 C   0  0  0  0  0  0  0  0  0  0  0  0
   37.4390   29.1300   50.6300 C   0  0  0  0  0  0  0  0  0  0  0  0
   38.0330   30.0060   49.7690 N   0  0  0  0  0  0  0  0  0  0  0  0
   37.3530   30.5400   48.7260 C   0  0  0  0  0  0  0  0  0  0  0  0
   36.0470   30.2130   48.5100 N   0  0  0  0  0  0  0  0  0  0  0  0
   35.5360   28.0980   51.0480 H   0  0  0  0  0  0  0  0  0  0  0  0
   37.8350   31.2280   48.0560 H   0  0  0  0  0  0  0  0  0  0  0  0
   38.1160   28.5450   51.7380 N   0  0  0  0  0  0  0  0  0  0  0  0
   38.3980   28.9720   52.9830 C   0  0  0  0  0  0  0  0  0  0  0  0
   38.0780   29.9700   53.3020 H   0  0  0  0  0  0  0  0  0  0  0  0
   39.0750   28.0160   53.6570 N   0  0  0  0  0  0  0  0  0  0  0  0
   39.2060   26.9750   52.7910 C   0  0  0  0  0  0  0  0  0  0  0  0
   39.8090   25.7410   52.9430 C   0  0  0  0  0  0  0  0  0  0  0  0
   39.8170   24.8540   51.9280 N   0  0  0  0  0  0  0  0  0  0  0  0
   39.2380   25.1680   50.7620 C   0  0  0  0  0  0  0  0  0  0  0  0
   39.1630   24.5690   49.8630 H   0  0  0  0  0  0  0  0  0  0  0  0
   38.6450   26.3560   50.5790 N   0  0  0  0  0  0  0  0  0  0  0  0
   38.6050   27.2930   51.5700 C   0  0  0  0  0  0  0  0  0  0  0  0
   40.4350   25.3710   54.1700 N   0  0  0  0  0  0  0  0  0  0  0  0
   39.7490   24.7910   54.7040 H   0  0  0  0  0  0  0  0  0  0  0  0
   41.4260   25.7270   54.3170 H   0  0  0  0  0  0  0  0  0  0  0  0
   34.1090   29.1080   49.0080 O   0  0  0  0  0  0  0  0  0  0  0  0
   34.4060   28.9390   46.3390 O   0  0  0  0  0  0  0  0  0  0  0  0
   33.6700   28.3470   47.5260 P   0  0  0  0  0  0  0  0  0  0  0  0
   34.0040   26.7000   47.7190 O   0  0  0  0  0  0  0  0  0  0  0  0
   34.2200   26.3500   46.8060 H   0  0  0  0  0  0  0  0  0  0  0  0
   32.0140   28.6130   47.2510 O   0  0  0  0  0  0  0  0  0  0  0  0
   31.5140   28.2520   48.0500 H   0  0  0  0  0  0  0  0  0  0  0  0
  1  2  1  0  0  0  0
  2  3  2  0  0  0  0
  2  7  1  0  0  0  0
  3  9  1  0  0  0  0
  4  3  1  0  0  0  0
  5  4  2  0  0  0  0
  6  5  1  0  0  0  0
  6  1  2  0  0  0  0
  8  5  1  0  0  0  0
  9 10  1  0  0  0  0
 10 11  1  0  0  0  0
 10 12  2  0  0  0  0
 13 14  1  0  0  0  0
 13 12  1  0  0  0  0
 14 20  1  0  0  0  0
 15 14  2  0  0  0  0
 16 15  1  0  0  0  0
 17 16  1  0  0  0  0
 18 16  2  0  0  0  0
 18 19  1  0  0  0  0
 19  9  1  0  0  0  0
 19 13  2  0  0  0  0
 20 22  1  0  0  0  0
 20 21  1  0  0  0  0
 23  1  1  0  0  0  0
 24 25  2  0  0  0  0
 25 26  1  0  0  0  0
 25 23  1  0  0  0  0
 27 26  1  0  0  0  0
 28 25  1  0  0  0  0
 28 29  1  0  0  0  0
M  END
>  <minimizedAffinity>
2.77320719

>  <minimizedRMSD>
1.39468086

$$$$
