
 OpenBabel03272510253D

 50 55  0  0  1  0  0  0  0  0999 V2000
   40.0840   31.5540   41.4910 N   0  0  0  0  0  0  0  0  0  0  0  0
   39.0930   30.5470   41.0500 C   0  0  1  0  0  0  0  0  0  0  0  0
   38.4860   31.0120   39.8080 C   0  0  0  0  0  0  0  0  0  0  0  0
   37.7570   32.1850   40.0800 O   0  0  0  0  0  0  0  0  0  0  0  0
   38.4700   33.1920   40.6600 C   0  0  0  0  0  0  0  0  0  0  0  0
   39.3030   32.7220   41.8300 C   0  0  1  0  0  0  0  0  0  0  0  0
   40.5070   31.1760   42.3670 H   0  0  0  0  0  0  0  0  0  0  0  0
   38.3120   30.4200   41.8160 H   0  0  0  0  0  0  0  0  0  0  0  0
   39.0040   31.2380   38.9170 H   0  0  0  0  0  0  0  0  0  0  0  0
   37.6760   30.2690   39.5310 H   0  0  0  0  0  0  0  0  0  0  0  0
   37.7400   33.9140   41.0810 H   0  0  0  0  0  0  0  0  0  0  0  0
   39.0730   33.7750   39.9270 H   0  0  0  0  0  0  0  0  0  0  0  0
   39.9390   33.5680   42.1500 H   0  0  0  0  0  0  0  0  0  0  0  0
   38.3880   32.3620   42.9190 N   0  0  0  0  0  0  0  0  0  0  0  0
   37.0460   32.4430   42.9690 C   0  0  0  0  0  0  0  0  0  0  0  0
   36.4160   32.8040   42.1710 H   0  0  0  0  0  0  0  0  0  0  0  0
   36.5940   32.0090   44.1590 N   0  0  0  0  0  0  0  0  0  0  0  0
   37.6410   31.6400   44.9000 C   0  0  0  0  0  0  0  0  0  0  0  0
   37.6840   31.1330   46.1820 C   0  0  0  0  0  0  0  0  0  0  0  0
   38.9110   30.8530   46.6600 N   0  0  0  0  0  0  0  0  0  0  0  0
   40.0220   31.0690   45.9020 C   0  0  0  0  0  0  0  0  0  0  0  0
   41.0130   30.8370   46.3010 H   0  0  0  0  0  0  0  0  0  0  0  0
   39.9530   31.5640   44.6520 N   0  0  0  0  0  0  0  0  0  0  0  0
   38.7720   31.8600   44.1240 C   0  0  0  0  0  0  0  0  0  0  0  0
   36.5180   30.9120   46.9660 N   0  0  0  0  0  0  0  0  0  0  0  0
   36.1050   30.0350   46.5550 H   0  0  0  0  0  0  0  0  0  0  0  0
   36.2100   31.5270   47.7570 H   0  0  0  0  0  0  0  0  0  0  0  0
   39.8660   29.3680   40.8670 O   0  0  0  0  0  0  0  0  0  0  0  0
   44.9110   30.4170   37.9650 C   0  0  0  0  0  0  0  0  0  0  0  0
   44.9510   29.0240   37.9650 C   0  0  0  0  0  0  0  0  0  0  0  0
   43.9430   28.2770   38.5540 C   0  0  0  0  0  0  0  0  0  0  0  0
   42.9020   28.9840   39.1390 C   0  0  0  0  0  0  0  0  0  0  0  0
   41.8030   28.4770   39.7750 N   0  0  0  0  0  0  0  0  0  0  0  0
   41.0780   29.5310   40.1730 C   0  0  0  0  0  0  0  0  0  0  0  0
   41.6660   30.6540   39.8210 N   0  0  0  0  0  0  0  0  0  0  0  0
   42.8180   30.3600   39.1650 C   0  0  0  0  0  0  0  0  0  0  0  0
   43.8510   31.0890   38.5620 C   0  0  0  0  0  0  0  0  0  0  0  0
   45.6650   31.0490   37.5220 H   0  0  0  0  0  0  0  0  0  0  0  0
   43.9850   27.1960   38.5460 H   0  0  0  0  0  0  0  0  0  0  0  0
   41.5990   27.4570   39.9060 H   0  0  0  0  0  0  0  0  0  0  0  0
   43.7730   32.1680   38.5880 H   0  0  0  0  0  0  0  0  0  0  0  0
   47.2400   26.6790   36.1270 C   0  0  0  0  0  0  0  0  0  0  0  0
   46.0720   27.1760   36.6960 C   0  0  0  0  0  0  0  0  0  0  0  0
   46.1040   28.4120   37.3310 C   0  0  0  0  0  0  0  0  0  0  0  0
   47.2940   29.0780   37.3610 N   0  0  0  0  0  0  0  0  0  0  0  0
   48.4220   28.5880   36.8060 C   0  0  0  0  0  0  0  0  0  0  0  0
   48.3850   27.4090   36.2020 N   0  0  0  0  0  0  0  0  0  0  0  0
   47.1260   25.7190   35.6580 H   0  0  0  0  0  0  0  0  0  0  0  0
   45.1370   26.6330   36.6620 H   0  0  0  0  0  0  0  0  0  0  0  0
   49.3510   29.1410   36.8470 H   0  0  0  0  0  0  0  0  0  0  0  0
  1  6  1  0  0  0  0
  1  7  1  0  0  0  0
  2  1  1  0  0  0  0
  2  8  1  1  0  0  0
  3  4  1  0  0  0  0
  3  2  1  0  0  0  0
  4  5  1  0  0  0  0
  5 11  1  0  0  0  0
  5  6  1  0  0  0  0
  6 13  1  1  0  0  0
  6 14  1  0  0  0  0
  9  3  1  0  0  0  0
 10  3  1  0  0  0  0
 12  5  1  0  0  0  0
 14 15  1  0  0  0  0
 14 24  1  0  0  0  0
 15 17  2  0  0  0  0
 16 15  1  0  0  0  0
 17 18  1  0  0  0  0
 18 19  1  0  0  0  0
 19 20  2  0  0  0  0
 19 25  1  0  0  0  0
 21 22  1  0  0  0  0
 21 20  1  0  0  0  0
 23 21  2  0  0  0  0
 24 23  1  0  0  0  0
 24 18  2  0  0  0  0
 25 27  1  0  0  0  0
 26 25  1  0  0  0  0
 28  2  1  0  0  0  0
 29 37  1  0  0  0  0
 30 29  2  0  0  0  0
 30 31  1  0  0  0  0
 31 32  2  0  0  0  0
 32 36  1  0  0  0  0
 32 33  1  0  0  0  0
 33 40  1  0  0  0  0
 33 34  1  0  0  0  0
 34 28  1  0  0  0  0
 35 34  2  0  0  0  0
 36 35  1  0  0  0  0
 37 41  1  0  0  0  0
 37 36  2  0  0  0  0
 38 29  1  0  0  0  0
 39 31  1  0  0  0  0
 42 47  2  0  0  0  0
 42 43  1  0  0  0  0
 43 44  2  0  0  0  0
 44 45  1  0  0  0  0
 44 30  1  0  0  0  0
 46 50  1  0  0  0  0
 46 45  2  0  0  0  0
 47 46  1  0  0  0  0
 48 42  1  0  0  0  0
 49 43  1  0  0  0  0
M  END
>  <minimizedAffinity>
-4.82056522

>  <minimizedRMSD>
10.193965

$$$$
