
 OpenBabel03262521113D

 36 39  0  0  0  0  0  0  0  0999 V2000
   31.1470   29.9710   45.4140 C   0  0  0  0  0  0  0  0  0  0  0  0
   30.2540   29.8140   44.3720 C   0  0  0  0  0  0  0  0  0  0  0  0
   29.1010   29.3860   44.8600 N   0  0  0  0  0  0  0  0  0  0  0  0
   29.2000   29.2550   46.1880 C   0  0  0  0  0  0  0  0  0  0  0  0
   30.4650   29.6160   46.5400 N   0  0  0  0  0  0  0  0  0  0  0  0
   30.5020   30.0220   43.3260 H   0  0  0  0  0  0  0  0  0  0  0  0
   28.2790   29.2000   44.2330 H   0  0  0  0  0  0  0  0  0  0  0  0
   28.0910   28.8060   46.9590 N   0  0  0  0  0  0  0  0  0  0  0  0
   27.7990   27.4990   47.2250 C   0  0  0  0  0  0  0  0  0  0  0  0
   28.3790   26.6470   46.8800 H   0  0  0  0  0  0  0  0  0  0  0  0
   26.6720   27.4450   47.9870 N   0  0  0  0  0  0  0  0  0  0  0  0
   26.2920   28.7120   48.1750 C   0  0  0  0  0  0  0  0  0  0  0  0
   25.2410   29.3000   48.8510 C   0  0  0  0  0  0  0  0  0  0  0  0
   25.0900   30.6530   48.8810 N   0  0  0  0  0  0  0  0  0  0  0  0
   25.9570   31.4700   48.2540 C   0  0  0  0  0  0  0  0  0  0  0  0
   25.8930   32.5500   48.2400 H   0  0  0  0  0  0  0  0  0  0  0  0
   26.9920   30.9280   47.5860 N   0  0  0  0  0  0  0  0  0  0  0  0
   27.1510   29.5940   47.5500 C   0  0  0  0  0  0  0  0  0  0  0  0
   24.2720   28.5240   49.5460 N   0  0  0  0  0  0  0  0  0  0  0  0
   24.8110   28.1220   50.3680 H   0  0  0  0  0  0  0  0  0  0  0  0
   23.2830   28.2270   49.5340 H   0  0  0  0  0  0  0  0  0  0  0  0
   32.4820   30.4020   45.3920 O   0  0  0  0  0  0  0  0  0  0  0  0
   34.7430   29.1850   45.5190 O   0  0  0  0  0  0  0  0  0  0  0  0
   33.5620   29.5690   46.3860 P   0  0  2  0  0  0  0  0  0  0  0  0
   32.8200   28.2120   47.0710 O   0  0  0  0  0  0  0  0  0  0  0  0
   33.2580   27.8950   47.8810 H   0  0  0  0  0  0  0  0  0  0  0  0
   34.0350   30.5790   47.6820 O   0  0  0  0  0  0  0  0  0  0  0  0
   34.8510   30.1300   48.7160 C   0  0  0  0  0  0  0  0  0  0  0  0
   34.4150   29.6170   49.9510 C   0  0  0  0  0  0  0  0  0  0  0  0
   35.3930   29.2240   50.8450 C   0  0  0  0  0  0  0  0  0  0  0  0
   36.6980   29.3320   50.5340 N   0  0  0  0  0  0  0  0  0  0  0  0
   37.0820   29.8390   49.3140 C   0  0  0  0  0  0  0  0  0  0  0  0
   36.1550   30.2340   48.4140 N   0  0  0  0  0  0  0  0  0  0  0  0
   33.3500   29.5830   50.0770 H   0  0  0  0  0  0  0  0  0  0  0  0
   34.9960   28.8430   51.7660 H   0  0  0  0  0  0  0  0  0  0  0  0
   38.1460   29.9180   49.0790 H   0  0  0  0  0  0  0  0  0  0  0  0
  1  5  1  0  0  0  0
  2  3  1  0  0  0  0
  2  1  2  0  0  0  0
  3  4  1  0  0  0  0
  4  5  2  0  0  0  0
  4  8  1  0  0  0  0
  6  2  1  0  0  0  0
  7  3  1  0  0  0  0
  8  9  1  0  0  0  0
  8 18  1  0  0  0  0
  9 11  2  0  0  0  0
 10  9  1  0  0  0  0
 11 12  1  0  0  0  0
 12 13  1  0  0  0  0
 13 14  2  0  0  0  0
 13 19  1  0  0  0  0
 15 14  1  0  0  0  0
 16 15  1  0  0  0  0
 17 15  2  0  0  0  0
 18 17  1  0  0  0  0
 18 12  2  0  0  0  0
 19 20  1  0  0  0  0
 21 19  1  0  0  0  0
 22  1  1  0  0  0  0
 22 24  1  0  0  0  0
 24 23  2  6  0  0  0
 24 25  1  0  0  0  0
 24 27  1  0  0  0  0
 25 26  1  0  0  0  0
 27 28  1  0  0  0  0
 28 29  1  0  0  0  0
 29 34  1  0  0  0  0
 29 30  2  0  0  0  0
 30 35  1  0  0  0  0
 31 30  1  0  0  0  0
 32 31  2  0  0  0  0
 33 28  2  0  0  0  0
 33 32  1  0  0  0  0
 36 32  1  0  0  0  0
M  END
>  <minimizedAffinity>
-6.22043371

>  <minimizedRMSD>
2.56234479

$$$$
