
 OpenBabel03272502053D

 44 48  0  0  0  0  0  0  0  0999 V2000
   34.4440   30.7330   47.1250 F   0  0  0  0  0  0  0  0  0  0  0  0
   34.8580   30.1270   45.9670 C   0  0  0  0  0  0  0  0  0  0  0  0
   33.9740   29.4850   45.1170 C   0  0  0  0  0  0  0  0  0  0  0  0
   34.4650   28.9110   43.9590 C   0  0  0  0  0  0  0  0  0  0  0  0
   35.8280   28.9770   43.6500 C   0  0  0  0  0  0  0  0  0  0  0  0
   36.6530   29.6320   44.5450 C   0  0  0  0  0  0  0  0  0  0  0  0
   36.2210   30.2040   45.6810 C   0  0  0  0  0  0  0  0  0  0  0  0
   33.7330   28.4280   43.3390 H   0  0  0  0  0  0  0  0  0  0  0  0
   36.1680   28.5140   42.7330 H   0  0  0  0  0  0  0  0  0  0  0  0
   37.6830   29.6380   44.2340 H   0  0  0  0  0  0  0  0  0  0  0  0
   32.2780   28.6590   46.6100 C   0  0  0  0  0  0  0  0  0  0  0  0
   32.6070   29.4870   45.5460 C   0  0  0  0  0  0  0  0  0  0  0  0
   31.5980   30.2520   44.9900 C   0  0  0  0  0  0  0  0  0  0  0  0
   30.3380   30.1830   45.4790 N   0  0  0  0  0  0  0  0  0  0  0  0
   30.0560   29.3730   46.5080 C   0  0  0  0  0  0  0  0  0  0  0  0
   30.9970   28.6270   47.0650 N   0  0  0  0  0  0  0  0  0  0  0  0
   33.0330   28.0360   47.0840 H   0  0  0  0  0  0  0  0  0  0  0  0
   31.8960   30.8950   44.1490 H   0  0  0  0  0  0  0  0  0  0  0  0
   28.6800   29.4370   46.8830 N   0  0  0  0  0  0  0  0  0  0  0  0
   27.6800   30.2510   46.4480 C   0  0  0  0  0  0  0  0  0  0  0  0
   27.8190   31.0100   45.7040 H   0  0  0  0  0  0  0  0  0  0  0  0
   26.5350   29.9290   47.1060 N   0  0  0  0  0  0  0  0  0  0  0  0
   26.8320   28.9340   47.9280 C   0  0  0  0  0  0  0  0  0  0  0  0
   26.0980   28.2030   48.8350 C   0  0  0  0  0  0  0  0  0  0  0  0
   26.6540   27.2080   49.5750 N   0  0  0  0  0  0  0  0  0  0  0  0
   27.9620   26.9000   49.4470 C   0  0  0  0  0  0  0  0  0  0  0  0
   28.3630   26.1020   50.0560 H   0  0  0  0  0  0  0  0  0  0  0  0
   28.6910   27.6060   48.5660 N   0  0  0  0  0  0  0  0  0  0  0  0
   28.1590   28.5950   47.8230 C   0  0  0  0  0  0  0  0  0  0  0  0
   24.7120   28.4350   49.0560 N   0  0  0  0  0  0  0  0  0  0  0  0
   23.7430   28.1850   48.7640 H   0  0  0  0  0  0  0  0  0  0  0  0
   24.6440   29.1570   49.8340 H   0  0  0  0  0  0  0  0  0  0  0  0
   38.0360   32.4660   44.4970 Br  0  0  0  0  0  0  0  0  0  0  0  0
   38.0130   31.8930   46.3140 C   0  0  0  0  0  0  0  0  0  0  0  0
   37.1480   30.8660   46.5800 C   0  0  0  0  0  0  0  0  0  0  0  0
   37.1010   30.3650   47.8940 C   0  0  0  0  0  0  0  0  0  0  0  0
   37.8910   30.8890   48.8660 C   0  0  0  0  0  0  0  0  0  0  0  0
   38.7420   31.9270   48.5310 C   0  0  0  0  0  0  0  0  0  0  0  0
   38.8170   32.4490   47.2390 C   0  0  0  0  0  0  0  0  0  0  0  0
   36.4470   29.5560   48.1920 H   0  0  0  0  0  0  0  0  0  0  0  0
   37.8690   30.5170   49.8820 H   0  0  0  0  0  0  0  0  0  0  0  0
   39.3930   32.3750   49.2810 H   0  0  0  0  0  0  0  0  0  0  0  0
   39.6240   33.4660   46.8350 O   0  0  0  0  0  0  0  0  0  0  0  0
   40.5040   33.3320   46.3880 H   0  0  0  0  0  0  0  0  0  0  0  0
  2  1  1  0  0  0  0
  3 12  1  0  0  0  0
  3  2  2  0  0  0  0
  4  3  1  0  0  0  0
  5  4  2  0  0  0  0
  5  6  1  0  0  0  0
  6  7  2  0  0  0  0
  7  2  1  0  0  0  0
  7 35  1  0  0  0  0
  8  4  1  0  0  0  0
  9  5  1  0  0  0  0
 10  6  1  0  0  0  0
 11 16  1  0  0  0  0
 11 17  1  0  0  0  0
 12 11  2  0  0  0  0
 13 14  2  0  0  0  0
 13 12  1  0  0  0  0
 14 15  1  0  0  0  0
 15 19  1  0  0  0  0
 15 16  2  0  0  0  0
 18 13  1  0  0  0  0
 19 29  1  0  0  0  0
 20 19  1  0  0  0  0
 20 22  2  0  0  0  0
 21 20  1  0  0  0  0
 22 23  1  0  0  0  0
 23 24  1  0  0  0  0
 24 30  1  0  0  0  0
 24 25  2  0  0  0  0
 26 25  1  0  0  0  0
 26 27  1  0  0  0  0
 28 26  2  0  0  0  0
 29 23  2  0  0  0  0
 29 28  1  0  0  0  0
 30 32  1  0  0  0  0
 31 30  1  0  0  0  0
 33 34  1  0  0  0  0
 34 35  2  0  0  0  0
 34 39  1  0  0  0  0
 35 36  1  0  0  0  0
 36 40  1  0  0  0  0
 36 37  2  0  0  0  0
 37 41  1  0  0  0  0
 38 37  1  0  0  0  0
 38 42  1  0  0  0  0
 39 38  2  0  0  0  0
 43 39  1  0  0  0  0
 44 43  1  0  0  0  0
M  END
>  <minimizedAffinity>
-7.85241079

>  <minimizedRMSD>
0.7301054

$$$$
