
 OpenBabel03272510263D

 50 55  0  0  1  0  0  0  0  0999 V2000
   38.9710   30.8260   41.3600 N   0  0  0  0  0  0  0  0  0  0  0  0
   39.7770   31.9910   41.7860 C   0  0  1  0  0  0  0  0  0  0  0  0
   38.8950   33.1480   41.8880 C   0  0  0  0  0  0  0  0  0  0  0  0
   38.4150   33.4560   40.6020 O   0  0  0  0  0  0  0  0  0  0  0  0
   37.7780   32.4360   39.9590 C   0  0  0  0  0  0  0  0  0  0  0  0
   38.5500   31.1380   40.0120 C   0  0  1  0  0  0  0  0  0  0  0  0
   39.6320   30.0190   41.3170 H   0  0  0  0  0  0  0  0  0  0  0  0
   40.5700   32.1970   41.0510 H   0  0  0  0  0  0  0  0  0  0  0  0
   38.0390   33.2170   42.5010 H   0  0  0  0  0  0  0  0  0  0  0  0
   39.5430   34.0440   42.1380 H   0  0  0  0  0  0  0  0  0  0  0  0
   37.7210   32.7080   38.8850 H   0  0  0  0  0  0  0  0  0  0  0  0
   36.7220   32.3070   40.2880 H   0  0  0  0  0  0  0  0  0  0  0  0
   37.9050   30.3480   39.5850 H   0  0  0  0  0  0  0  0  0  0  0  0
   39.7490   31.2910   39.1800 N   0  0  0  0  0  0  0  0  0  0  0  0
   40.0570   32.2550   38.2950 C   0  0  0  0  0  0  0  0  0  0  0  0
   39.4310   33.1030   38.0570 H   0  0  0  0  0  0  0  0  0  0  0  0
   41.2600   32.0200   37.7420 N   0  0  0  0  0  0  0  0  0  0  0  0
   41.7500   30.8930   38.2650 C   0  0  0  0  0  0  0  0  0  0  0  0
   42.9440   30.2480   38.0150 C   0  0  0  0  0  0  0  0  0  0  0  0
   43.1530   29.1150   38.7120 N   0  0  0  0  0  0  0  0  0  0  0  0
   42.2260   28.6590   39.6010 C   0  0  0  0  0  0  0  0  0  0  0  0
   42.4080   27.7380   40.1590 H   0  0  0  0  0  0  0  0  0  0  0  0
   41.0690   29.3080   39.8250 N   0  0  0  0  0  0  0  0  0  0  0  0
   40.8040   30.4320   39.1700 C   0  0  0  0  0  0  0  0  0  0  0  0
   43.9050   30.7310   37.0870 N   0  0  0  0  0  0  0  0  0  0  0  0
   44.3610   31.5340   37.5950 H   0  0  0  0  0  0  0  0  0  0  0  0
   44.0650   30.3270   36.1330 H   0  0  0  0  0  0  0  0  0  0  0  0
   40.3010   31.5970   43.0480 O   0  0  0  0  0  0  0  0  0  0  0  0
   36.0480   30.2600   46.9340 C   0  0  0  0  0  0  0  0  0  0  0  0
   37.1250   30.3400   47.8160 C   0  0  0  0  0  0  0  0  0  0  0  0
   38.4000   30.6410   47.3650 C   0  0  0  0  0  0  0  0  0  0  0  0
   38.5470   30.8570   46.0020 C   0  0  0  0  0  0  0  0  0  0  0  0
   39.6930   31.1660   45.3250 N   0  0  0  0  0  0  0  0  0  0  0  0
   39.3510   31.2800   44.0350 C   0  0  0  0  0  0  0  0  0  0  0  0
   38.0640   31.0580   43.8790 N   0  0  0  0  0  0  0  0  0  0  0  0
   37.5140   30.7880   45.0910 C   0  0  0  0  0  0  0  0  0  0  0  0
   36.2350   30.4830   45.5750 C   0  0  0  0  0  0  0  0  0  0  0  0
   35.0350   30.0310   47.2270 H   0  0  0  0  0  0  0  0  0  0  0  0
   39.2270   30.7010   48.0600 H   0  0  0  0  0  0  0  0  0  0  0  0
   40.6390   31.2840   45.7620 H   0  0  0  0  0  0  0  0  0  0  0  0
   35.4330   30.4330   44.8510 H   0  0  0  0  0  0  0  0  0  0  0  0
   37.3260   30.0840   51.5580 C   0  0  0  0  0  0  0  0  0  0  0  0
   37.7030   30.3860   50.2540 C   0  0  0  0  0  0  0  0  0  0  0  0
   36.8340   30.0780   49.2130 C   0  0  0  0  0  0  0  0  0  0  0  0
   35.6460   29.4890   49.5320 N   0  0  0  0  0  0  0  0  0  0  0  0
   35.2900   29.2000   50.8010 C   0  0  0  0  0  0  0  0  0  0  0  0
   36.1220   29.4960   51.7890 N   0  0  0  0  0  0  0  0  0  0  0  0
   38.0550   30.3550   52.2990 H   0  0  0  0  0  0  0  0  0  0  0  0
   38.6490   30.8540   50.0200 H   0  0  0  0  0  0  0  0  0  0  0  0
   34.3390   28.7320   51.0220 H   0  0  0  0  0  0  0  0  0  0  0  0
  1  2  1  0  0  0  0
  2  8  1  6  0  0  0
  2  3  1  0  0  0  0
  2 28  1  0  0  0  0
  3 10  1  0  0  0  0
  3  9  1  0  0  0  0
  4  3  1  0  0  0  0
  5  6  1  0  0  0  0
  5 12  1  0  0  0  0
  5  4  1  0  0  0  0
  6 13  1  6  0  0  0
  6  1  1  0  0  0  0
  7  1  1  0  0  0  0
 11  5  1  0  0  0  0
 14  6  1  0  0  0  0
 15 14  1  0  0  0  0
 16 15  1  0  0  0  0
 17 18  1  0  0  0  0
 17 15  2  0  0  0  0
 18 24  1  0  0  0  0
 19 18  2  0  0  0  0
 19 20  1  0  0  0  0
 20 21  2  0  0  0  0
 21 23  1  0  0  0  0
 21 22  1  0  0  0  0
 24 14  1  0  0  0  0
 24 23  2  0  0  0  0
 25 26  1  0  0  0  0
 25 19  1  0  0  0  0
 27 25  1  0  0  0  0
 28 34  1  0  0  0  0
 29 38  1  0  0  0  0
 29 30  1  0  0  0  0
 30 44  1  0  0  0  0
 31 30  2  0  0  0  0
 31 39  1  0  0  0  0
 32 31  1  0  0  0  0
 33 40  1  0  0  0  0
 33 32  1  0  0  0  0
 34 33  1  0  0  0  0
 35 34  2  0  0  0  0
 35 36  1  0  0  0  0
 36 37  1  0  0  0  0
 36 32  2  0  0  0  0
 37 29  2  0  0  0  0
 41 37  1  0  0  0  0
 42 47  1  0  0  0  0
 42 48  1  0  0  0  0
 43 42  2  0  0  0  0
 44 45  2  0  0  0  0
 44 43  1  0  0  0  0
 45 46  1  0  0  0  0
 46 50  1  0  0  0  0
 46 47  2  0  0  0  0
 49 43  1  0  0  0  0
M  END
>  <minimizedAffinity>
-6.03345108

>  <minimizedRMSD>
1.58448541

$$$$
