
 OpenBabel03272510253D

 50 55  0  0  1  0  0  0  0  0999 V2000
   38.1310   29.2080   42.1710 N   0  0  0  0  0  0  0  0  0  0  0  0
   37.9360   30.2940   41.1850 C   0  0  1  0  0  0  0  0  0  0  0  0
   36.9820   29.8380   40.1810 C   0  0  0  0  0  0  0  0  0  0  0  0
   37.5570   28.7670   39.4730 O   0  0  0  0  0  0  0  0  0  0  0  0
   37.9700   27.7170   40.2400 C   0  0  0  0  0  0  0  0  0  0  0  0
   38.7870   28.1510   41.4360 C   0  0  1  0  0  0  0  0  0  0  0  0
   38.8020   29.5800   42.8790 H   0  0  0  0  0  0  0  0  0  0  0  0
   38.8910   30.5440   40.6980 H   0  0  0  0  0  0  0  0  0  0  0  0
   35.9960   29.5130   40.3720 H   0  0  0  0  0  0  0  0  0  0  0  0
   36.9060   30.6510   39.3950 H   0  0  0  0  0  0  0  0  0  0  0  0
   38.6520   27.1020   39.6170 H   0  0  0  0  0  0  0  0  0  0  0  0
   37.1380   27.0370   40.5290 H   0  0  0  0  0  0  0  0  0  0  0  0
   38.9640   27.2570   42.0610 H   0  0  0  0  0  0  0  0  0  0  0  0
   40.0710   28.6620   40.9430 N   0  0  0  0  0  0  0  0  0  0  0  0
   40.7320   29.7820   41.2880 C   0  0  0  0  0  0  0  0  0  0  0  0
   40.3950   30.5040   42.0150 H   0  0  0  0  0  0  0  0  0  0  0  0
   41.8830   29.8800   40.5960 N   0  0  0  0  0  0  0  0  0  0  0  0
   41.9810   28.8190   39.7910 C   0  0  0  0  0  0  0  0  0  0  0  0
   42.9740   28.4780   38.8950 C   0  0  0  0  0  0  0  0  0  0  0  0
   42.7830   27.3280   38.2200 N   0  0  0  0  0  0  0  0  0  0  0  0
   41.6680   26.5730   38.4290 C   0  0  0  0  0  0  0  0  0  0  0  0
   41.5240   25.6410   37.8740 H   0  0  0  0  0  0  0  0  0  0  0  0
   40.7140   26.9280   39.3080 N   0  0  0  0  0  0  0  0  0  0  0  0
   40.8450   28.0510   40.0050 C   0  0  0  0  0  0  0  0  0  0  0  0
   44.1340   29.2730   38.6840 N   0  0  0  0  0  0  0  0  0  0  0  0
   44.7280   29.0770   39.5320 H   0  0  0  0  0  0  0  0  0  0  0  0
   44.2870   29.8880   37.8500 H   0  0  0  0  0  0  0  0  0  0  0  0
   37.4300   31.3710   41.9640 O   0  0  0  0  0  0  0  0  0  0  0  0
   35.1390   29.8650   47.2030 C   0  0  0  0  0  0  0  0  0  0  0  0
   36.4020   30.2720   47.6320 C   0  0  0  0  0  0  0  0  0  0  0  0
   37.3510   30.7330   46.7330 C   0  0  0  0  0  0  0  0  0  0  0  0
   36.9790   30.7670   45.3960 C   0  0  0  0  0  0  0  0  0  0  0  0
   37.7330   31.1790   44.3320 N   0  0  0  0  0  0  0  0  0  0  0  0
   36.9620   31.0350   43.2460 C   0  0  0  0  0  0  0  0  0  0  0  0
   35.7820   30.5580   43.5790 N   0  0  0  0  0  0  0  0  0  0  0  0
   35.7450   30.3740   44.9240 C   0  0  0  0  0  0  0  0  0  0  0  0
   34.8060   29.9130   45.8550 C   0  0  0  0  0  0  0  0  0  0  0  0
   34.3620   29.4980   47.8570 H   0  0  0  0  0  0  0  0  0  0  0  0
   38.3260   31.0470   47.0790 H   0  0  0  0  0  0  0  0  0  0  0  0
   38.7180   31.5330   44.3910 H   0  0  0  0  0  0  0  0  0  0  0  0
   33.8410   29.6090   45.4720 H   0  0  0  0  0  0  0  0  0  0  0  0
   37.9460   30.5340   51.0470 C   0  0  0  0  0  0  0  0  0  0  0  0
   37.7920   30.6960   49.6740 C   0  0  0  0  0  0  0  0  0  0  0  0
   36.6620   30.1710   49.0560 C   0  0  0  0  0  0  0  0  0  0  0  0
   35.7560   29.5190   49.8400 N   0  0  0  0  0  0  0  0  0  0  0  0
   35.9140   29.3690   51.1720 C   0  0  0  0  0  0  0  0  0  0  0  0
   36.9930   29.8710   51.7550 N   0  0  0  0  0  0  0  0  0  0  0  0
   38.8450   30.9690   51.4420 H   0  0  0  0  0  0  0  0  0  0  0  0
   38.5210   31.2160   49.0680 H   0  0  0  0  0  0  0  0  0  0  0  0
   35.1760   28.8460   51.7660 H   0  0  0  0  0  0  0  0  0  0  0  0
  1  7  1  0  0  0  0
  2  8  1  6  0  0  0
  2 28  1  0  0  0  0
  2  1  1  0  0  0  0
  3  9  1  0  0  0  0
  3  2  1  0  0  0  0
  4  3  1  0  0  0  0
  4  5  1  0  0  0  0
  5 12  1  0  0  0  0
  5  6  1  0  0  0  0
  6 13  1  1  0  0  0
  6  1  1  0  0  0  0
 10  3  1  0  0  0  0
 11  5  1  0  0  0  0
 14 15  1  0  0  0  0
 14  6  1  0  0  0  0
 15 16  1  0  0  0  0
 17 15  2  0  0  0  0
 18 24  1  0  0  0  0
 18 17  1  0  0  0  0
 19 18  2  0  0  0  0
 20 21  2  0  0  0  0
 20 19  1  0  0  0  0
 21 23  1  0  0  0  0
 22 21  1  0  0  0  0
 23 24  2  0  0  0  0
 24 14  1  0  0  0  0
 25 19  1  0  0  0  0
 25 26  1  0  0  0  0
 27 25  1  0  0  0  0
 28 34  1  0  0  0  0
 29 30  1  0  0  0  0
 29 38  1  0  0  0  0
 30 44  1  0  0  0  0
 31 39  1  0  0  0  0
 31 30  2  0  0  0  0
 32 31  1  0  0  0  0
 33 40  1  0  0  0  0
 33 32  1  0  0  0  0
 34 35  2  0  0  0  0
 34 33  1  0  0  0  0
 35 36  1  0  0  0  0
 36 32  2  0  0  0  0
 36 37  1  0  0  0  0
 37 29  2  0  0  0  0
 41 37  1  0  0  0  0
 42 48  1  0  0  0  0
 42 47  1  0  0  0  0
 43 42  2  0  0  0  0
 44 43  1  0  0  0  0
 44 45  2  0  0  0  0
 45 46  1  0  0  0  0
 46 47  2  0  0  0  0
 46 50  1  0  0  0  0
 49 43  1  0  0  0  0
M  END
>  <minimizedAffinity>
-5.93347502

>  <minimizedRMSD>
4.2204504

$$$$
