
 OpenBabel03272504163D

 29 31  0  0  0  0  0  0  0  0999 V2000
   36.9220   22.5030   32.5250 C   0  0  0  0  0  0  0  0  0  0  0  0
   37.6850   23.4370   33.2320 C   0  0  0  0  0  0  0  0  0  0  0  0
   37.4860   24.7840   33.0000 C   0  0  0  0  0  0  0  0  0  0  0  0
   36.5430   25.1500   32.0820 N   0  0  0  0  0  0  0  0  0  0  0  0
   35.8130   24.2310   31.4080 C   0  0  0  0  0  0  0  0  0  0  0  0
   35.9960   22.9010   31.6230 N   0  0  0  0  0  0  0  0  0  0  0  0
   38.0950   25.4600   33.5640 H   0  0  0  0  0  0  0  0  0  0  0  0
   35.0700   24.5710   30.6830 H   0  0  0  0  0  0  0  0  0  0  0  0
   38.6100   22.9180   34.1350 N   0  0  0  0  0  0  0  0  0  0  0  0
   39.7080   22.2030   33.8250 C   0  0  0  0  0  0  0  0  0  0  0  0
   40.0820   21.8970   32.8590 H   0  0  0  0  0  0  0  0  0  0  0  0
   40.3280   21.8960   34.9820 N   0  0  0  0  0  0  0  0  0  0  0  0
   39.6170   22.4200   36.0110 C   0  0  0  0  0  0  0  0  0  0  0  0
   39.7980   22.4050   37.3850 C   0  0  0  0  0  0  0  0  0  0  0  0
   38.9040   23.0270   38.1690 N   0  0  0  0  0  0  0  0  0  0  0  0
   37.8240   23.6710   37.6620 C   0  0  0  0  0  0  0  0  0  0  0  0
   37.1060   24.1720   38.3270 H   0  0  0  0  0  0  0  0  0  0  0  0
   37.6470   23.6850   36.3260 N   0  0  0  0  0  0  0  0  0  0  0  0
   38.5200   23.0740   35.4820 C   0  0  0  0  0  0  0  0  0  0  0  0
   40.9390   21.7220   37.8930 N   0  0  0  0  0  0  0  0  0  0  0  0
   40.5020   20.9400   38.4390 H   0  0  0  0  0  0  0  0  0  0  0  0
   41.9770   21.8230   37.8420 H   0  0  0  0  0  0  0  0  0  0  0  0
   37.0030   21.1200   32.6450 O   0  0  0  0  0  0  0  0  0  0  0  0
   35.8470   18.6890   32.8300 O   0  0  0  0  0  0  0  0  0  0  0  0
   35.6490   20.1730   33.0910 P   0  0  0  0  0  0  0  0  0  0  0  0
   35.3800   20.4640   34.7330 O   0  0  0  0  0  0  0  0  0  0  0  0
   34.5650   19.9820   35.0080 H   0  0  0  0  0  0  0  0  0  0  0  0
   34.3000   20.6360   32.1730 O   0  0  0  0  0  0  0  0  0  0  0  0
   34.6170   21.0410   31.3240 H   0  0  0  0  0  0  0  0  0  0  0  0
  1 23  1  0  0  0  0
  1  2  1  0  0  0  0
  2  9  1  0  0  0  0
  3  2  2  0  0  0  0
  3  7  1  0  0  0  0
  4  3  1  0  0  0  0
  5  6  1  0  0  0  0
  5  4  2  0  0  0  0
  6  1  2  0  0  0  0
  8  5  1  0  0  0  0
  9 19  1  0  0  0  0
 10  9  1  0  0  0  0
 10 12  2  0  0  0  0
 11 10  1  0  0  0  0
 12 13  1  0  0  0  0
 13 14  1  0  0  0  0
 14 20  1  0  0  0  0
 14 15  2  0  0  0  0
 16 15  1  0  0  0  0
 16 17  1  0  0  0  0
 18 16  2  0  0  0  0
 19 13  2  0  0  0  0
 19 18  1  0  0  0  0
 20 21  1  0  0  0  0
 22 20  1  0  0  0  0
 23 25  1  0  0  0  0
 24 25  2  0  0  0  0
 25 26  1  0  0  0  0
 26 27  1  0  0  0  0
 28 25  1  0  0  0  0
 29 28  1  0  0  0  0
M  END
>  <minimizedAffinity>
-5.56930065

$$$$

 OpenBabel03272504163D

 29 31  0  0  0  0  0  0  0  0999 V2000
   37.4490   25.1690   33.1020 C   0  0  0  0  0  0  0  0  0  0  0  0
   38.3130   25.6430   34.0930 C   0  0  0  0  0  0  0  0  0  0  0  0
   38.3840   27.0020   34.3320 C   0  0  0  0  0  0  0  0  0  0  0  0
   37.6000   27.8330   33.5830 N   0  0  0  0  0  0  0  0  0  0  0  0
   36.7680   27.3540   32.6290 C   0  0  0  0  0  0  0  0  0  0  0  0
   36.6860   26.0210   32.3800 N   0  0  0  0  0  0  0  0  0  0  0  0
   39.0610   27.3160   35.1000 H   0  0  0  0  0  0  0  0  0  0  0  0
   36.1590   28.0570   32.0550 H   0  0  0  0  0  0  0  0  0  0  0  0
   39.0540   24.6810   34.7760 N   0  0  0  0  0  0  0  0  0  0  0  0
   40.1070   23.9960   34.2900 C   0  0  0  0  0  0  0  0  0  0  0  0
   40.5720   24.0470   33.3160 H   0  0  0  0  0  0  0  0  0  0  0  0
   40.5340   23.1690   35.2640 N   0  0  0  0  0  0  0  0  0  0  0  0
   39.7480   23.3390   36.3560 C   0  0  0  0  0  0  0  0  0  0  0  0
   39.7430   22.7550   37.6130 C   0  0  0  0  0  0  0  0  0  0  0  0
   38.8190   23.1380   38.5090 N   0  0  0  0  0  0  0  0  0  0  0  0
   37.8860   24.0790   38.2250 C   0  0  0  0  0  0  0  0  0  0  0  0
   37.1400   24.3740   38.9760 H   0  0  0  0  0  0  0  0  0  0  0  0
   37.8900   24.6470   37.0030 N   0  0  0  0  0  0  0  0  0  0  0  0
   38.8020   24.3010   36.0560 C   0  0  0  0  0  0  0  0  0  0  0  0
   40.7330   21.7690   37.8860 N   0  0  0  0  0  0  0  0  0  0  0  0
   40.1510   20.9070   38.0270 H   0  0  0  0  0  0  0  0  0  0  0  0
   41.7730   21.7300   37.9650 H   0  0  0  0  0  0  0  0  0  0  0  0
   37.2650   23.8380   32.7440 O   0  0  0  0  0  0  0  0  0  0  0  0
   37.1720   21.9230   30.8460 O   0  0  0  0  0  0  0  0  0  0  0  0
   36.8680   23.3830   31.1430 P   0  0  0  0  0  0  0  0  0  0  0  0
   35.2220   23.7060   30.9470 O   0  0  0  0  0  0  0  0  0  0  0  0
   34.9730   23.5140   30.0120 H   0  0  0  0  0  0  0  0  0  0  0  0
   37.7890   24.2880   30.0450 O   0  0  0  0  0  0  0  0  0  0  0  0
   38.6220   24.5860   30.4980 H   0  0  0  0  0  0  0  0  0  0  0  0
  1  2  1  0  0  0  0
  2  3  2  0  0  0  0
  2  9  1  0  0  0  0
  3  7  1  0  0  0  0
  4  3  1  0  0  0  0
  5  4  2  0  0  0  0
  6  5  1  0  0  0  0
  6  1  2  0  0  0  0
  8  5  1  0  0  0  0
  9 19  1  0  0  0  0
 10  9  1  0  0  0  0
 10 12  2  0  0  0  0
 11 10  1  0  0  0  0
 12 13  1  0  0  0  0
 13 14  1  0  0  0  0
 14 20  1  0  0  0  0
 14 15  2  0  0  0  0
 16 15  1  0  0  0  0
 16 17  1  0  0  0  0
 18 16  2  0  0  0  0
 19 13  2  0  0  0  0
 19 18  1  0  0  0  0
 20 22  1  0  0  0  0
 20 21  1  0  0  0  0
 23  1  1  0  0  0  0
 24 25  2  0  0  0  0
 25 23  1  0  0  0  0
 26 25  1  0  0  0  0
 27 26  1  0  0  0  0
 28 29  1  0  0  0  0
 28 25  1  0  0  0  0
M  END
>  <minimizedAffinity>
-5.43409348

$$$$

 OpenBabel03272504163D

 29 31  0  0  0  0  0  0  0  0999 V2000
   37.4280   25.3690   33.5540 C   0  0  0  0  0  0  0  0  0  0  0  0
   37.7480   25.7110   34.8710 C   0  0  0  0  0  0  0  0  0  0  0  0
   37.5780   27.0170   35.2890 C   0  0  0  0  0  0  0  0  0  0  0  0
   37.0980   27.9260   34.3900 N   0  0  0  0  0  0  0  0  0  0  0  0
   36.7930   27.5760   33.1190 C   0  0  0  0  0  0  0  0  0  0  0  0
   36.9550   26.2960   32.6900 N   0  0  0  0  0  0  0  0  0  0  0  0
   37.8380   27.2290   36.3050 H   0  0  0  0  0  0  0  0  0  0  0  0
   36.4120   28.3380   32.4350 H   0  0  0  0  0  0  0  0  0  0  0  0
   38.2280   24.6800   35.6750 N   0  0  0  0  0  0  0  0  0  0  0  0
   37.4990   23.9300   36.5240 C   0  0  0  0  0  0  0  0  0  0  0  0
   36.4430   23.9720   36.7490 H   0  0  0  0  0  0  0  0  0  0  0  0
   38.3380   23.0490   37.1050 N   0  0  0  0  0  0  0  0  0  0  0  0
   39.5870   23.2490   36.6170 C   0  0  0  0  0  0  0  0  0  0  0  0
   40.8040   22.6350   36.8650 C   0  0  0  0  0  0  0  0  0  0  0  0
   41.8970   23.0620   36.2130 N   0  0  0  0  0  0  0  0  0  0  0  0
   41.8520   24.0780   35.3170 C   0  0  0  0  0  0  0  0  0  0  0  0
   42.7620   24.4090   34.7970 H   0  0  0  0  0  0  0  0  0  0  0  0
   40.6680   24.6760   35.0760 N   0  0  0  0  0  0  0  0  0  0  0  0
   39.5280   24.2860   35.7050 C   0  0  0  0  0  0  0  0  0  0  0  0
   40.8260   21.5710   37.8110 N   0  0  0  0  0  0  0  0  0  0  0  0
   41.4320   21.9660   38.5720 H   0  0  0  0  0  0  0  0  0  0  0  0
   40.4220   20.6120   37.8940 H   0  0  0  0  0  0  0  0  0  0  0  0
   37.5430   24.1060   32.9850 O   0  0  0  0  0  0  0  0  0  0  0  0
   37.0590   22.2890   31.0490 O   0  0  0  0  0  0  0  0  0  0  0  0
   36.8600   23.7390   31.4590 P   0  0  0  0  0  0  0  0  0  0  0  0
   35.2170   24.1130   31.5670 O   0  0  0  0  0  0  0  0  0  0  0  0
   34.8030   23.9740   30.6830 H   0  0  0  0  0  0  0  0  0  0  0  0
   37.6070   24.6750   30.2580 O   0  0  0  0  0  0  0  0  0  0  0  0
   38.5150   24.9290   30.5710 H   0  0  0  0  0  0  0  0  0  0  0  0
  1  2  1  0  0  0  0
  2  3  2  0  0  0  0
  2  9  1  0  0  0  0
  3  7  1  0  0  0  0
  4  3  1  0  0  0  0
  5  4  2  0  0  0  0
  6  5  1  0  0  0  0
  6  1  2  0  0  0  0
  8  5  1  0  0  0  0
  9 19  1  0  0  0  0
  9 10  1  0  0  0  0
 10 11  1  0  0  0  0
 10 12  2  0  0  0  0
 13 14  1  0  0  0  0
 13 12  1  0  0  0  0
 14 20  1  0  0  0  0
 15 14  2  0  0  0  0
 16 15  1  0  0  0  0
 17 16  1  0  0  0  0
 18 16  2  0  0  0  0
 18 19  1  0  0  0  0
 19 13  2  0  0  0  0
 20 22  1  0  0  0  0
 20 21  1  0  0  0  0
 23  1  1  0  0  0  0
 24 25  2  0  0  0  0
 25 26  1  0  0  0  0
 25 23  1  0  0  0  0
 27 26  1  0  0  0  0
 28 29  1  0  0  0  0
 28 25  1  0  0  0  0
M  END
>  <minimizedAffinity>
-5.38513231

$$$$

 OpenBabel03272504163D

 29 31  0  0  0  0  0  0  0  0999 V2000
   39.8210   24.2520   35.6080 C   0  0  0  0  0  0  0  0  0  0  0  0
   40.1160   25.5020   35.0560 C   0  0  0  0  0  0  0  0  0  0  0  0
   41.4190   25.7900   34.6970 C   0  0  0  0  0  0  0  0  0  0  0  0
   42.3720   24.8320   34.8980 N   0  0  0  0  0  0  0  0  0  0  0  0
   42.0660   23.6270   35.4320 C   0  0  0  0  0  0  0  0  0  0  0  0
   40.7900   23.3260   35.7920 N   0  0  0  0  0  0  0  0  0  0  0  0
   41.5950   26.7600   34.2800 H   0  0  0  0  0  0  0  0  0  0  0  0
   42.8620   22.8920   35.5740 H   0  0  0  0  0  0  0  0  0  0  0  0
   39.0440   26.3790   34.9120 N   0  0  0  0  0  0  0  0  0  0  0  0
   38.5710   27.2180   35.8530 C   0  0  0  0  0  0  0  0  0  0  0  0
   38.9070   27.3760   36.8680 H   0  0  0  0  0  0  0  0  0  0  0  0
   37.5340   27.8870   35.3120 N   0  0  0  0  0  0  0  0  0  0  0  0
   37.3620   27.4670   34.0350 C   0  0  0  0  0  0  0  0  0  0  0  0
   36.4600   27.8150   33.0420 C   0  0  0  0  0  0  0  0  0  0  0  0
   36.5380   27.2110   31.8460 N   0  0  0  0  0  0  0  0  0  0  0  0
   37.4720   26.2670   31.5740 C   0  0  0  0  0  0  0  0  0  0  0  0
   37.5140   25.7870   30.5860 H   0  0  0  0  0  0  0  0  0  0  0  0
   38.3490   25.9270   32.5390 N   0  0  0  0  0  0  0  0  0  0  0  0
   38.3200   26.5050   33.7690 C   0  0  0  0  0  0  0  0  0  0  0  0
   35.4880   28.8080   33.3520 N   0  0  0  0  0  0  0  0  0  0  0  0
   34.5920   28.2660   33.2880 H   0  0  0  0  0  0  0  0  0  0  0  0
   35.4830   29.8230   33.5960 H   0  0  0  0  0  0  0  0  0  0  0  0
   38.5670   23.8130   36.0170 O   0  0  0  0  0  0  0  0  0  0  0  0
   37.9900   24.5650   38.5430 O   0  0  0  0  0  0  0  0  0  0  0  0
   38.2530   23.3710   37.6410 P   0  0  0  0  0  0  0  0  0  0  0  0
   36.9180   22.3370   37.6070 O   0  0  0  0  0  0  0  0  0  0  0  0
   36.7490   22.0110   38.5220 H   0  0  0  0  0  0  0  0  0  0  0  0
   39.6050   22.5790   38.2900 O   0  0  0  0  0  0  0  0  0  0  0  0
   40.4140   22.8700   37.7920 H   0  0  0  0  0  0  0  0  0  0  0  0
  1  6  1  0  0  0  0
  1 23  1  0  0  0  0
  2  1  2  0  0  0  0
  3  4  2  0  0  0  0
  3  2  1  0  0  0  0
  4  5  1  0  0  0  0
  5  8  1  0  0  0  0
  5  6  2  0  0  0  0
  7  3  1  0  0  0  0
  9  2  1  0  0  0  0
  9 10  1  0  0  0  0
 10 11  1  0  0  0  0
 12 10  2  0  0  0  0
 13 12  1  0  0  0  0
 14 20  1  0  0  0  0
 14 13  2  0  0  0  0
 15 14  1  0  0  0  0
 16 15  2  0  0  0  0
 16 18  1  0  0  0  0
 17 16  1  0  0  0  0
 18 19  2  0  0  0  0
 19 13  1  0  0  0  0
 19  9  1  0  0  0  0
 20 22  1  0  0  0  0
 21 20  1  0  0  0  0
 23 25  1  0  0  0  0
 25 28  1  0  0  0  0
 25 24  2  0  0  0  0
 26 25  1  0  0  0  0
 26 27  1  0  0  0  0
 29 28  1  0  0  0  0
M  END
>  <minimizedAffinity>
-5.38075304

$$$$

 OpenBabel03272504163D

 29 31  0  0  0  0  0  0  0  0999 V2000
   38.6800   23.1950   35.0860 C   0  0  0  0  0  0  0  0  0  0  0  0
   39.7540   23.1230   34.1940 C   0  0  0  0  0  0  0  0  0  0  0  0
   39.7020   22.2220   33.1470 C   0  0  0  0  0  0  0  0  0  0  0  0
   38.5930   21.4340   33.0280 N   0  0  0  0  0  0  0  0  0  0  0  0
   37.5630   21.5200   33.9010 C   0  0  0  0  0  0  0  0  0  0  0  0
   37.5970   22.4000   34.9360 N   0  0  0  0  0  0  0  0  0  0  0  0
   40.5480   22.2030   32.4920 H   0  0  0  0  0  0  0  0  0  0  0  0
   36.6960   20.8680   33.7650 H   0  0  0  0  0  0  0  0  0  0  0  0
   40.8190   23.9860   34.4400 N   0  0  0  0  0  0  0  0  0  0  0  0
   41.8480   23.7600   35.2800 C   0  0  0  0  0  0  0  0  0  0  0  0
   42.0500   22.9040   35.9070 H   0  0  0  0  0  0  0  0  0  0  0  0
   42.6550   24.8380   35.2270 N   0  0  0  0  0  0  0  0  0  0  0  0
   42.1300   25.7340   34.3550 C   0  0  0  0  0  0  0  0  0  0  0  0
   42.5430   26.9870   33.9300 C   0  0  0  0  0  0  0  0  0  0  0  0
   41.7960   27.6520   33.0340 N   0  0  0  0  0  0  0  0  0  0  0  0
   40.6470   27.1410   32.5310 C   0  0  0  0  0  0  0  0  0  0  0  0
   40.0530   27.7060   31.7990 H   0  0  0  0  0  0  0  0  0  0  0  0
   40.2440   25.9220   32.9450 N   0  0  0  0  0  0  0  0  0  0  0  0
   40.9600   25.2010   33.8480 C   0  0  0  0  0  0  0  0  0  0  0  0
   43.7530   27.5030   34.4730 N   0  0  0  0  0  0  0  0  0  0  0  0
   43.4140   28.3410   35.0070 H   0  0  0  0  0  0  0  0  0  0  0  0
   44.7670   27.2560   34.4550 H   0  0  0  0  0  0  0  0  0  0  0  0
   38.5830   24.0450   36.1820 O   0  0  0  0  0  0  0  0  0  0  0  0
   38.1190   24.5450   38.7920 O   0  0  0  0  0  0  0  0  0  0  0  0
   38.3410   23.4450   37.7670 P   0  0  0  0  0  0  0  0  0  0  0  0
   37.0050   22.4150   37.6910 O   0  0  0  0  0  0  0  0  0  0  0  0
   36.8770   22.0010   38.5770 H   0  0  0  0  0  0  0  0  0  0  0  0
   39.7200   22.6000   38.2760 O   0  0  0  0  0  0  0  0  0  0  0  0
   40.5060   22.9400   37.7730 H   0  0  0  0  0  0  0  0  0  0  0  0
  1 23  1  0  0  0  0
  2  9  1  0  0  0  0
  2  1  2  0  0  0  0
  3  2  1  0  0  0  0
  4  3  2  0  0  0  0
  4  5  1  0  0  0  0
  5  6  2  0  0  0  0
  6  1  1  0  0  0  0
  7  3  1  0  0  0  0
  8  5  1  0  0  0  0
  9 10  1  0  0  0  0
 10 11  1  0  0  0  0
 12 10  2  0  0  0  0
 13 12  1  0  0  0  0
 14 13  1  0  0  0  0
 14 20  1  0  0  0  0
 15 14  2  0  0  0  0
 16 18  2  0  0  0  0
 16 15  1  0  0  0  0
 17 16  1  0  0  0  0
 18 19  1  0  0  0  0
 19 13  2  0  0  0  0
 19  9  1  0  0  0  0
 20 21  1  0  0  0  0
 22 20  1  0  0  0  0
 23 25  1  0  0  0  0
 25 28  1  0  0  0  0
 25 24  2  0  0  0  0
 26 25  1  0  0  0  0
 26 27  1  0  0  0  0
 29 28  1  0  0  0  0
M  END
>  <minimizedAffinity>
-5.05973577

$$$$

 OpenBabel03272504163D

 29 31  0  0  0  0  0  0  0  0999 V2000
   33.2960   30.3980   35.2420 C   0  0  0  0  0  0  0  0  0  0  0  0
   34.5330   30.7990   34.7280 C   0  0  0  0  0  0  0  0  0  0  0  0
   35.3350   31.6370   35.4780 C   0  0  0  0  0  0  0  0  0  0  0  0
   34.8830   32.0410   36.7020 N   0  0  0  0  0  0  0  0  0  0  0  0
   33.6830   31.6400   37.1830 C   0  0  0  0  0  0  0  0  0  0  0  0
   32.8800   30.8170   36.4580 N   0  0  0  0  0  0  0  0  0  0  0  0
   36.2710   31.9170   35.0420 H   0  0  0  0  0  0  0  0  0  0  0  0
   33.3630   31.9890   38.1680 H   0  0  0  0  0  0  0  0  0  0  0  0
   34.8630   30.3100   33.4660 N   0  0  0  0  0  0  0  0  0  0  0  0
   34.5000   30.8470   32.2850 C   0  0  0  0  0  0  0  0  0  0  0  0
   33.9040   31.7250   32.0820 H   0  0  0  0  0  0  0  0  0  0  0  0
   35.0220   30.0740   31.3130 N   0  0  0  0  0  0  0  0  0  0  0  0
   35.7110   29.0560   31.8880 C   0  0  0  0  0  0  0  0  0  0  0  0
   36.4300   27.9930   31.3660 C   0  0  0  0  0  0  0  0  0  0  0  0
   37.0180   27.1260   32.2050 N   0  0  0  0  0  0  0  0  0  0  0  0
   36.9310   27.2540   33.5510 C   0  0  0  0  0  0  0  0  0  0  0  0
   37.4210   26.5290   34.2170 H   0  0  0  0  0  0  0  0  0  0  0  0
   36.2310   28.2870   34.0600 N   0  0  0  0  0  0  0  0  0  0  0  0
   35.6160   29.1980   33.2600 C   0  0  0  0  0  0  0  0  0  0  0  0
   36.5060   27.8800   29.9480 N   0  0  0  0  0  0  0  0  0  0  0  0
   35.9960   26.9790   29.7720 H   0  0  0  0  0  0  0  0  0  0  0  0
   36.9070   28.4300   29.1570 H   0  0  0  0  0  0  0  0  0  0  0  0
   32.3800   29.5620   34.6130 O   0  0  0  0  0  0  0  0  0  0  0  0
   30.5500   27.5810   34.6580 O   0  0  0  0  0  0  0  0  0  0  0  0
   31.2470   28.6360   35.5010 P   0  0  0  0  0  0  0  0  0  0  0  0
   32.1020   27.9230   36.7710 O   0  0  0  0  0  0  0  0  0  0  0  0
   31.4660   27.4320   37.3420 H   0  0  0  0  0  0  0  0  0  0  0  0
   30.0240   29.6470   36.0980 O   0  0  0  0  0  0  0  0  0  0  0  0
   29.9630   30.4500   35.5170 H   0  0  0  0  0  0  0  0  0  0  0  0
  1  6  1  0  0  0  0
  2  1  2  0  0  0  0
  2  3  1  0  0  0  0
  3  4  2  0  0  0  0
  4  5  1  0  0  0  0
  5  8  1  0  0  0  0
  6  5  2  0  0  0  0
  7  3  1  0  0  0  0
  9  2  1  0  0  0  0
 10  9  1  0  0  0  0
 11 10  1  0  0  0  0
 12 13  1  0  0  0  0
 12 10  2  0  0  0  0
 13 19  1  0  0  0  0
 14 13  2  0  0  0  0
 14 15  1  0  0  0  0
 15 16  2  0  0  0  0
 16 18  1  0  0  0  0
 16 17  1  0  0  0  0
 19  9  1  0  0  0  0
 19 18  2  0  0  0  0
 20 14  1  0  0  0  0
 21 20  1  0  0  0  0
 22 20  1  0  0  0  0
 23  1  1  0  0  0  0
 23 25  1  0  0  0  0
 24 25  2  0  0  0  0
 25 28  1  0  0  0  0
 25 26  1  0  0  0  0
 26 27  1  0  0  0  0
 29 28  1  0  0  0  0
M  END
>  <minimizedAffinity>
-4.91790771

$$$$

 OpenBabel03272504163D

 29 31  0  0  0  0  0  0  0  0999 V2000
   39.8550   23.6580   35.0010 C   0  0  0  0  0  0  0  0  0  0  0  0
   40.0210   24.2380   33.7400 C   0  0  0  0  0  0  0  0  0  0  0  0
   41.2580   24.7460   33.3900 C   0  0  0  0  0  0  0  0  0  0  0  0
   42.2740   24.6590   34.2990 N   0  0  0  0  0  0  0  0  0  0  0  0
   42.0930   24.0930   35.5140 C   0  0  0  0  0  0  0  0  0  0  0  0
   40.8830   23.5880   35.8760 N   0  0  0  0  0  0  0  0  0  0  0  0
   41.3350   25.1800   32.4150 H   0  0  0  0  0  0  0  0  0  0  0  0
   42.9350   24.0460   36.2090 H   0  0  0  0  0  0  0  0  0  0  0  0
   38.8970   24.2570   32.9180 N   0  0  0  0  0  0  0  0  0  0  0  0
   38.4420   23.2340   32.1690 C   0  0  0  0  0  0  0  0  0  0  0  0
   38.8370   22.2350   32.0540 H   0  0  0  0  0  0  0  0  0  0  0  0
   37.3370   23.6640   31.5280 N   0  0  0  0  0  0  0  0  0  0  0  0
   37.1030   24.9530   31.8790 C   0  0  0  0  0  0  0  0  0  0  0  0
   36.1200   25.8620   31.5230 C   0  0  0  0  0  0  0  0  0  0  0  0
   36.1500   27.0980   32.0470 N   0  0  0  0  0  0  0  0  0  0  0  0
   37.1140   27.4890   32.9150 C   0  0  0  0  0  0  0  0  0  0  0  0
   37.1170   28.5070   33.3300 H   0  0  0  0  0  0  0  0  0  0  0  0
   38.0710   26.6060   33.2620 N   0  0  0  0  0  0  0  0  0  0  0  0
   38.0920   25.3410   32.7650 C   0  0  0  0  0  0  0  0  0  0  0  0
   35.1190   25.4280   30.6080 N   0  0  0  0  0  0  0  0  0  0  0  0
   35.2960   26.0450   29.7790 H   0  0  0  0  0  0  0  0  0  0  0  0
   34.3520   24.7200   30.5930 H   0  0  0  0  0  0  0  0  0  0  0  0
   38.6800   23.1050   35.4990 O   0  0  0  0  0  0  0  0  0  0  0  0
   38.0830   24.6460   37.6320 O   0  0  0  0  0  0  0  0  0  0  0  0
   38.2650   23.2140   37.1560 P   0  0  0  0  0  0  0  0  0  0  0  0
   36.8390   22.3300   37.3520 O   0  0  0  0  0  0  0  0  0  0  0  0
   36.6060   22.3180   38.3100 H   0  0  0  0  0  0  0  0  0  0  0  0
   39.5100   22.5580   38.1020 O   0  0  0  0  0  0  0  0  0  0  0  0
   40.3600   22.6140   37.5930 H   0  0  0  0  0  0  0  0  0  0  0  0
  1 23  1  0  0  0  0
  1  6  1  0  0  0  0
  2  1  2  0  0  0  0
  3  2  1  0  0  0  0
  3  4  2  0  0  0  0
  4  5  1  0  0  0  0
  5  6  2  0  0  0  0
  5  8  1  0  0  0  0
  7  3  1  0  0  0  0
  9  2  1  0  0  0  0
 10  9  1  0  0  0  0
 11 10  1  0  0  0  0
 12 13  1  0  0  0  0
 12 10  2  0  0  0  0
 13 19  1  0  0  0  0
 14 13  2  0  0  0  0
 14 15  1  0  0  0  0
 15 16  2  0  0  0  0
 16 18  1  0  0  0  0
 16 17  1  0  0  0  0
 19  9  1  0  0  0  0
 19 18  2  0  0  0  0
 20 14  1  0  0  0  0
 21 20  1  0  0  0  0
 22 20  1  0  0  0  0
 23 25  1  0  0  0  0
 25 26  1  0  0  0  0
 25 24  2  0  0  0  0
 25 28  1  0  0  0  0
 26 27  1  0  0  0  0
 29 28  1  0  0  0  0
M  END
>  <minimizedAffinity>
-4.90793037

$$$$

 OpenBabel03272504163D

 29 31  0  0  0  0  0  0  0  0999 V2000
   39.6300   22.7870   36.4820 C   0  0  0  0  0  0  0  0  0  0  0  0
   38.3960   23.2920   36.0640 C   0  0  0  0  0  0  0  0  0  0  0  0
   37.5240   23.8060   37.0040 C   0  0  0  0  0  0  0  0  0  0  0  0
   37.9090   23.8000   38.3150 N   0  0  0  0  0  0  0  0  0  0  0  0
   39.1080   23.3060   38.7000 C   0  0  0  0  0  0  0  0  0  0  0  0
   39.9780   22.7960   37.7890 N   0  0  0  0  0  0  0  0  0  0  0  0
   36.5920   24.1810   36.6340 H   0  0  0  0  0  0  0  0  0  0  0  0
   39.3720   23.3220   39.7600 H   0  0  0  0  0  0  0  0  0  0  0  0
   38.1390   23.2330   34.6960 N   0  0  0  0  0  0  0  0  0  0  0  0
   37.5890   22.1960   34.0350 C   0  0  0  0  0  0  0  0  0  0  0  0
   37.2510   21.2410   34.4100 H   0  0  0  0  0  0  0  0  0  0  0  0
   37.5140   22.5420   32.7350 N   0  0  0  0  0  0  0  0  0  0  0  0
   38.0150   23.7930   32.5860 C   0  0  0  0  0  0  0  0  0  0  0  0
   38.1760   24.6180   31.4840 C   0  0  0  0  0  0  0  0  0  0  0  0
   38.7170   25.8360   31.6520 N   0  0  0  0  0  0  0  0  0  0  0  0
   39.1140   26.2870   32.8670 C   0  0  0  0  0  0  0  0  0  0  0  0
   39.5550   27.2880   32.9770 H   0  0  0  0  0  0  0  0  0  0  0  0
   38.9590   25.4840   33.9380 N   0  0  0  0  0  0  0  0  0  0  0  0
   38.4170   24.2430   33.8300 C   0  0  0  0  0  0  0  0  0  0  0  0
   37.7510   24.1210   30.2200 N   0  0  0  0  0  0  0  0  0  0  0  0
   38.6560   24.0670   29.6900 H   0  0  0  0  0  0  0  0  0  0  0  0
   36.8520   23.8390   29.7710 H   0  0  0  0  0  0  0  0  0  0  0  0
   40.6110   22.2380   35.6630 O   0  0  0  0  0  0  0  0  0  0  0  0
   42.8970   20.8550   35.2930 O   0  0  0  0  0  0  0  0  0  0  0  0
   42.0990   21.6730   36.2940 P   0  0  0  0  0  0  0  0  0  0  0  0
   42.9640   23.0410   36.7780 O   0  0  0  0  0  0  0  0  0  0  0  0
   43.8020   22.7470   37.2060 H   0  0  0  0  0  0  0  0  0  0  0  0
   41.8100   20.6510   37.6150 O   0  0  0  0  0  0  0  0  0  0  0  0
   40.9000   20.2620   37.5230 H   0  0  0  0  0  0  0  0  0  0  0  0
  1  6  1  0  0  0  0
  2  1  2  0  0  0  0
  2  3  1  0  0  0  0
  3  4  2  0  0  0  0
  4  5  1  0  0  0  0
  5  8  1  0  0  0  0
  6  5  2  0  0  0  0
  7  3  1  0  0  0  0
  9  2  1  0  0  0  0
 10 11  1  0  0  0  0
 10  9  1  0  0  0  0
 12 10  2  0  0  0  0
 13 12  1  0  0  0  0
 13 19  1  0  0  0  0
 14 15  1  0  0  0  0
 14 13  2  0  0  0  0
 15 16  2  0  0  0  0
 16 17  1  0  0  0  0
 16 18  1  0  0  0  0
 19 18  2  0  0  0  0
 19  9  1  0  0  0  0
 20 14  1  0  0  0  0
 21 20  1  0  0  0  0
 22 20  1  0  0  0  0
 23 25  1  0  0  0  0
 23  1  1  0  0  0  0
 24 25  2  0  0  0  0
 25 26  1  0  0  0  0
 25 28  1  0  0  0  0
 26 27  1  0  0  0  0
 29 28  1  0  0  0  0
M  END
>  <minimizedAffinity>
-4.87713385

$$$$

 OpenBabel03272504163D

 29 31  0  0  0  0  0  0  0  0999 V2000
   39.6170   23.1510   36.3440 C   0  0  0  0  0  0  0  0  0  0  0  0
   38.6230   24.0280   35.8980 C   0  0  0  0  0  0  0  0  0  0  0  0
   37.7330   24.5580   36.8120 C   0  0  0  0  0  0  0  0  0  0  0  0
   37.8630   24.2000   38.1240 N   0  0  0  0  0  0  0  0  0  0  0  0
   38.8320   23.3510   38.5360 C   0  0  0  0  0  0  0  0  0  0  0  0
   39.7160   22.8190   37.6510 N   0  0  0  0  0  0  0  0  0  0  0  0
   36.9910   25.2230   36.4220 H   0  0  0  0  0  0  0  0  0  0  0  0
   38.8960   23.0930   39.5960 H   0  0  0  0  0  0  0  0  0  0  0  0
   38.6110   24.3010   34.5330 N   0  0  0  0  0  0  0  0  0  0  0  0
   39.1650   25.3720   33.9320 C   0  0  0  0  0  0  0  0  0  0  0  0
   39.7040   26.2020   34.3630 H   0  0  0  0  0  0  0  0  0  0  0  0
   38.9310   25.2580   32.6100 N   0  0  0  0  0  0  0  0  0  0  0  0
   38.2340   24.1160   32.3870 C   0  0  0  0  0  0  0  0  0  0  0  0
   37.7420   23.5230   31.2350 C   0  0  0  0  0  0  0  0  0  0  0  0
   37.0740   22.3620   31.3320 N   0  0  0  0  0  0  0  0  0  0  0  0
   36.8630   21.7480   32.5210 C   0  0  0  0  0  0  0  0  0  0  0  0
   36.3120   20.7980   32.5730 H   0  0  0  0  0  0  0  0  0  0  0  0
   37.3410   22.3250   33.6410 N   0  0  0  0  0  0  0  0  0  0  0  0
   38.0260   23.4990   33.6060 C   0  0  0  0  0  0  0  0  0  0  0  0
   37.9760   24.1870   29.9980 N   0  0  0  0  0  0  0  0  0  0  0  0
   37.0030   24.4340   29.6940 H   0  0  0  0  0  0  0  0  0  0  0  0
   38.8010   24.4440   29.4120 H   0  0  0  0  0  0  0  0  0  0  0  0
   40.5820   22.5370   35.5530 O   0  0  0  0  0  0  0  0  0  0  0  0
   42.8750   21.1580   35.2080 O   0  0  0  0  0  0  0  0  0  0  0  0
   42.0290   21.9130   36.2210 P   0  0  0  0  0  0  0  0  0  0  0  0
   42.8770   23.2330   36.8470 O   0  0  0  0  0  0  0  0  0  0  0  0
   43.6880   22.9000   37.2970 H   0  0  0  0  0  0  0  0  0  0  0  0
   41.6610   20.8020   37.4480 O   0  0  0  0  0  0  0  0  0  0  0  0
   40.7550   20.4310   37.2800 H   0  0  0  0  0  0  0  0  0  0  0  0
  1  6  1  0  0  0  0
  2  1  2  0  0  0  0
  2  3  1  0  0  0  0
  3  4  2  0  0  0  0
  4  5  1  0  0  0  0
  5  8  1  0  0  0  0
  6  5  2  0  0  0  0
  7  3  1  0  0  0  0
  9  2  1  0  0  0  0
 10 11  1  0  0  0  0
 10  9  1  0  0  0  0
 12 10  2  0  0  0  0
 13 12  1  0  0  0  0
 13 19  1  0  0  0  0
 14 15  1  0  0  0  0
 14 13  2  0  0  0  0
 15 16  2  0  0  0  0
 16 17  1  0  0  0  0
 16 18  1  0  0  0  0
 19 18  2  0  0  0  0
 19  9  1  0  0  0  0
 20 14  1  0  0  0  0
 21 20  1  0  0  0  0
 22 20  1  0  0  0  0
 23 25  1  0  0  0  0
 23  1  1  0  0  0  0
 24 25  2  0  0  0  0
 25 26  1  0  0  0  0
 25 28  1  0  0  0  0
 26 27  1  0  0  0  0
 29 28  1  0  0  0  0
M  END
>  <minimizedAffinity>
-4.87375402

$$$$
