
 OpenBabel03272502053D

 44 48  0  0  0  0  0  0  0  0999 V2000
   34.1830   30.1630   47.7070 F   0  0  0  0  0  0  0  0  0  0  0  0
   34.4170   29.7390   46.4250 C   0  0  0  0  0  0  0  0  0  0  0  0
   33.4460   29.1000   45.6730 C   0  0  0  0  0  0  0  0  0  0  0  0
   33.7520   28.7170   44.3800 C   0  0  0  0  0  0  0  0  0  0  0  0
   35.0180   28.9690   43.8400 C   0  0  0  0  0  0  0  0  0  0  0  0
   35.9400   29.6090   44.6480 C   0  0  0  0  0  0  0  0  0  0  0  0
   35.6860   29.9990   45.9080 C   0  0  0  0  0  0  0  0  0  0  0  0
   32.9600   28.2260   43.8460 H   0  0  0  0  0  0  0  0  0  0  0  0
   35.2140   28.6520   42.8250 H   0  0  0  0  0  0  0  0  0  0  0  0
   36.8850   29.7650   44.1580 H   0  0  0  0  0  0  0  0  0  0  0  0
   32.1030   27.8210   47.2060 C   0  0  0  0  0  0  0  0  0  0  0  0
   32.1930   28.9020   46.3390 C   0  0  0  0  0  0  0  0  0  0  0  0
   31.0760   29.7030   46.1930 C   0  0  0  0  0  0  0  0  0  0  0  0
   29.9420   29.4290   46.8790 N   0  0  0  0  0  0  0  0  0  0  0  0
   29.8910   28.3780   47.7060 C   0  0  0  0  0  0  0  0  0  0  0  0
   30.9420   27.5890   47.8720 N   0  0  0  0  0  0  0  0  0  0  0  0
   32.9520   27.1580   47.3580 H   0  0  0  0  0  0  0  0  0  0  0  0
   31.1850   30.5480   45.4980 H   0  0  0  0  0  0  0  0  0  0  0  0
   28.6180   28.2510   48.3400 N   0  0  0  0  0  0  0  0  0  0  0  0
   28.1220   27.2730   49.1450 C   0  0  0  0  0  0  0  0  0  0  0  0
   28.6790   26.4020   49.4270 H   0  0  0  0  0  0  0  0  0  0  0  0
   26.8510   27.6010   49.5010 N   0  0  0  0  0  0  0  0  0  0  0  0
   26.5770   28.7600   48.9230 C   0  0  0  0  0  0  0  0  0  0  0  0
   25.4680   29.5760   48.9140 C   0  0  0  0  0  0  0  0  0  0  0  0
   25.4420   30.7460   48.2210 N   0  0  0  0  0  0  0  0  0  0  0  0
   26.5130   31.1510   47.5090 C   0  0  0  0  0  0  0  0  0  0  0  0
   26.4490   32.0880   46.9730 H   0  0  0  0  0  0  0  0  0  0  0  0
   27.6030   30.3650   47.5080 N   0  0  0  0  0  0  0  0  0  0  0  0
   27.6490   29.2040   48.1870 C   0  0  0  0  0  0  0  0  0  0  0  0
   24.2800   29.2540   49.6280 N   0  0  0  0  0  0  0  0  0  0  0  0
   23.7730   29.3460   50.5330 H   0  0  0  0  0  0  0  0  0  0  0  0
   23.6680   28.6940   48.9630 H   0  0  0  0  0  0  0  0  0  0  0  0
   37.4780   32.1440   44.4930 Br  0  0  0  0  0  0  0  0  0  0  0  0
   37.5840   31.6390   46.3270 C   0  0  0  0  0  0  0  0  0  0  0  0
   36.7070   30.6570   46.7020 C   0  0  0  0  0  0  0  0  0  0  0  0
   36.7500   30.2070   48.0350 C   0  0  0  0  0  0  0  0  0  0  0  0
   37.6360   30.7350   48.9190 C   0  0  0  0  0  0  0  0  0  0  0  0
   38.4940   31.7260   48.4750 C   0  0  0  0  0  0  0  0  0  0  0  0
   38.4800   32.1970   47.1610 C   0  0  0  0  0  0  0  0  0  0  0  0
   36.0950   29.4350   48.4170 H   0  0  0  0  0  0  0  0  0  0  0  0
   37.6850   30.4020   49.9470 H   0  0  0  0  0  0  0  0  0  0  0  0
   39.2190   32.1760   49.1520 H   0  0  0  0  0  0  0  0  0  0  0  0
   39.2880   33.1660   46.6530 O   0  0  0  0  0  0  0  0  0  0  0  0
   40.1230   32.9820   46.1420 H   0  0  0  0  0  0  0  0  0  0  0  0
  2  1  1  0  0  0  0
  3 12  1  0  0  0  0
  3  2  2  0  0  0  0
  4  3  1  0  0  0  0
  5  4  2  0  0  0  0
  5  6  1  0  0  0  0
  6  7  2  0  0  0  0
  7  2  1  0  0  0  0
  7 35  1  0  0  0  0
  8  4  1  0  0  0  0
  9  5  1  0  0  0  0
 10  6  1  0  0  0  0
 11 17  1  0  0  0  0
 11 16  1  0  0  0  0
 12 11  2  0  0  0  0
 13 12  1  0  0  0  0
 13 14  2  0  0  0  0
 14 15  1  0  0  0  0
 15 16  2  0  0  0  0
 15 19  1  0  0  0  0
 18 13  1  0  0  0  0
 19 20  1  0  0  0  0
 20 21  1  0  0  0  0
 20 22  2  0  0  0  0
 23 22  1  0  0  0  0
 24 23  1  0  0  0  0
 24 30  1  0  0  0  0
 25 24  2  0  0  0  0
 26 25  1  0  0  0  0
 27 26  1  0  0  0  0
 28 26  2  0  0  0  0
 28 29  1  0  0  0  0
 29 19  1  0  0  0  0
 29 23  2  0  0  0  0
 30 31  1  0  0  0  0
 32 30  1  0  0  0  0
 33 34  1  0  0  0  0
 34 35  2  0  0  0  0
 34 39  1  0  0  0  0
 35 36  1  0  0  0  0
 36 40  1  0  0  0  0
 36 37  2  0  0  0  0
 37 41  1  0  0  0  0
 38 37  1  0  0  0  0
 38 42  1  0  0  0  0
 39 38  2  0  0  0  0
 43 39  1  0  0  0  0
 44 43  1  0  0  0  0
M  END
>  <minimizedAffinity>
-7.96431971

>  <minimizedRMSD>
0.987106621

$$$$
