
 OpenBabel03272510253D

 50 55  0  0  1  0  0  0  0  0999 V2000
   38.2970   31.7550   41.3220 N   0  0  0  0  0  0  0  0  0  0  0  0
   38.7900   33.1480   41.4030 C   0  0  1  0  0  0  0  0  0  0  0  0
   37.6630   34.0480   41.1890 C   0  0  0  0  0  0  0  0  0  0  0  0
   37.1980   33.8740   39.8720 O   0  0  0  0  0  0  0  0  0  0  0  0
   36.8480   32.5980   39.5410 C   0  0  0  0  0  0  0  0  0  0  0  0
   37.8920   31.5820   39.9450 C   0  0  1  0  0  0  0  0  0  0  0  0
   39.1260   31.1460   41.4990 H   0  0  0  0  0  0  0  0  0  0  0  0
   39.5550   33.3270   40.6320 H   0  0  0  0  0  0  0  0  0  0  0  0
   36.7800   34.0760   41.7660 H   0  0  0  0  0  0  0  0  0  0  0  0
   38.0730   35.1040   41.1750 H   0  0  0  0  0  0  0  0  0  0  0  0
   36.7920   32.5470   38.4350 H   0  0  0  0  0  0  0  0  0  0  0  0
   35.8330   32.3180   39.9030 H   0  0  0  0  0  0  0  0  0  0  0  0
   37.4700   30.5770   39.7590 H   0  0  0  0  0  0  0  0  0  0  0  0
   39.0690   31.7820   39.0920 N   0  0  0  0  0  0  0  0  0  0  0  0
   39.2170   32.5650   38.0080 C   0  0  0  0  0  0  0  0  0  0  0  0
   38.4460   33.1930   37.5880 H   0  0  0  0  0  0  0  0  0  0  0  0
   40.4640   32.4570   37.5170 N   0  0  0  0  0  0  0  0  0  0  0  0
   41.1450   31.5990   38.2790 C   0  0  0  0  0  0  0  0  0  0  0  0
   42.4510   31.1670   38.1760 C   0  0  0  0  0  0  0  0  0  0  0  0
   42.8520   30.2840   39.1120 N   0  0  0  0  0  0  0  0  0  0  0  0
   41.9970   29.8630   40.0850 C   0  0  0  0  0  0  0  0  0  0  0  0
   42.3350   29.1460   40.8390 H   0  0  0  0  0  0  0  0  0  0  0  0
   40.7270   30.3000   40.1640 N   0  0  0  0  0  0  0  0  0  0  0  0
   40.2730   31.1710   39.2720 C   0  0  0  0  0  0  0  0  0  0  0  0
   43.3350   31.6130   37.1550 N   0  0  0  0  0  0  0  0  0  0  0  0
   43.6030   32.5840   37.4640 H   0  0  0  0  0  0  0  0  0  0  0  0
   43.6090   31.0450   36.3190 H   0  0  0  0  0  0  0  0  0  0  0  0
   39.3170   33.2440   42.7190 O   0  0  0  0  0  0  0  0  0  0  0  0
   36.1070   30.2100   46.6510 C   0  0  0  0  0  0  0  0  0  0  0  0
   37.0500   30.7550   47.5220 C   0  0  0  0  0  0  0  0  0  0  0  0
   38.0630   31.5790   47.0580 C   0  0  0  0  0  0  0  0  0  0  0  0
   38.0880   31.8300   45.6920 C   0  0  0  0  0  0  0  0  0  0  0  0
   38.9790   32.6040   45.0030 N   0  0  0  0  0  0  0  0  0  0  0  0
   38.6090   32.5510   43.7170 C   0  0  0  0  0  0  0  0  0  0  0  0
   37.5460   31.7890   43.5740 N   0  0  0  0  0  0  0  0  0  0  0  0
   37.1790   31.3140   44.7930 C   0  0  0  0  0  0  0  0  0  0  0  0
   36.1660   30.4850   45.2900 C   0  0  0  0  0  0  0  0  0  0  0  0
   35.2970   29.5640   46.9560 H   0  0  0  0  0  0  0  0  0  0  0  0
   38.7880   31.9970   47.7430 H   0  0  0  0  0  0  0  0  0  0  0  0
   39.7840   33.1240   45.4300 H   0  0  0  0  0  0  0  0  0  0  0  0
   35.4590   30.0870   44.5750 H   0  0  0  0  0  0  0  0  0  0  0  0
   37.6210   30.3400   51.2110 C   0  0  0  0  0  0  0  0  0  0  0  0
   37.8460   30.7390   49.8980 C   0  0  0  0  0  0  0  0  0  0  0  0
   36.9150   30.4000   48.9220 C   0  0  0  0  0  0  0  0  0  0  0  0
   35.8200   29.6860   49.3110 N   0  0  0  0  0  0  0  0  0  0  0  0
   35.6110   29.3040   50.5880 C   0  0  0  0  0  0  0  0  0  0  0  0
   36.5020   29.6300   51.5140 N   0  0  0  0  0  0  0  0  0  0  0  0
   38.3880   30.6430   51.9000 H   0  0  0  0  0  0  0  0  0  0  0  0
   38.7200   31.3050   49.6080 H   0  0  0  0  0  0  0  0  0  0  0  0
   34.7310   28.7370   50.8650 H   0  0  0  0  0  0  0  0  0  0  0  0
  1  2  1  0  0  0  0
  1  7  1  0  0  0  0
  2  8  1  6  0  0  0
  2 28  1  0  0  0  0
  3  2  1  0  0  0  0
  3  9  1  0  0  0  0
  4  3  1  0  0  0  0
  5  4  1  0  0  0  0
  5 12  1  0  0  0  0
  5  6  1  0  0  0  0
  6 13  1  6  0  0  0
  6  1  1  0  0  0  0
 10  3  1  0  0  0  0
 11  5  1  0  0  0  0
 14 24  1  0  0  0  0
 14  6  1  0  0  0  0
 15 14  1  0  0  0  0
 16 15  1  0  0  0  0
 17 15  2  0  0  0  0
 17 18  1  0  0  0  0
 18 24  1  0  0  0  0
 19 18  2  0  0  0  0
 19 20  1  0  0  0  0
 20 21  2  0  0  0  0
 21 23  1  0  0  0  0
 21 22  1  0  0  0  0
 24 23  2  0  0  0  0
 25 26  1  0  0  0  0
 25 19  1  0  0  0  0
 27 25  1  0  0  0  0
 28 34  1  0  0  0  0
 29 38  1  0  0  0  0
 29 30  1  0  0  0  0
 30 44  1  0  0  0  0
 31 30  2  0  0  0  0
 31 39  1  0  0  0  0
 32 31  1  0  0  0  0
 33 40  1  0  0  0  0
 33 32  1  0  0  0  0
 34 33  1  0  0  0  0
 35 34  2  0  0  0  0
 35 36  1  0  0  0  0
 36 37  1  0  0  0  0
 36 32  2  0  0  0  0
 37 29  2  0  0  0  0
 41 37  1  0  0  0  0
 42 47  1  0  0  0  0
 42 48  1  0  0  0  0
 43 42  2  0  0  0  0
 44 45  2  0  0  0  0
 44 43  1  0  0  0  0
 45 46  1  0  0  0  0
 46 50  1  0  0  0  0
 46 47  2  0  0  0  0
 49 43  1  0  0  0  0
M  END
>  <minimizedAffinity>
-5.99806452

>  <minimizedRMSD>
1.53765535

$$$$
