
 OpenBabel03272510253D

 50 55  0  0  1  0  0  0  0  0999 V2000
   39.7590   29.7390   41.8780 N   0  0  0  0  0  0  0  0  0  0  0  0
   39.8410   31.1220   41.3580 C   0  0  1  0  0  0  0  0  0  0  0  0
   38.6350   31.3960   40.5850 C   0  0  0  0  0  0  0  0  0  0  0  0
   38.6290   30.5550   39.4560 O   0  0  0  0  0  0  0  0  0  0  0  0
   38.7230   29.2210   39.7240 C   0  0  0  0  0  0  0  0  0  0  0  0
   39.8260   28.8960   40.7050 C   0  0  1  0  0  0  0  0  0  0  0  0
   40.6260   29.5900   42.4380 H   0  0  0  0  0  0  0  0  0  0  0  0
   40.7250   31.2350   40.7120 H   0  0  0  0  0  0  0  0  0  0  0  0
   37.6450   31.3380   40.9470 H   0  0  0  0  0  0  0  0  0  0  0  0
   38.7530   32.4280   40.1310 H   0  0  0  0  0  0  0  0  0  0  0  0
   39.0020   28.7130   38.7780 H   0  0  0  0  0  0  0  0  0  0  0  0
   37.7510   28.7690   40.0260 H   0  0  0  0  0  0  0  0  0  0  0  0
   39.7430   27.8230   40.9590 H   0  0  0  0  0  0  0  0  0  0  0  0
   41.1090   29.1400   40.0370 N   0  0  0  0  0  0  0  0  0  0  0  0
   41.8990   30.2280   40.0770 C   0  0  0  0  0  0  0  0  0  0  0  0
   41.6900   31.1270   40.6370 H   0  0  0  0  0  0  0  0  0  0  0  0
   42.9950   30.0430   39.3190 N   0  0  0  0  0  0  0  0  0  0  0  0
   42.9280   28.8240   38.7740 C   0  0  0  0  0  0  0  0  0  0  0  0
   43.8100   28.1840   37.9290 C   0  0  0  0  0  0  0  0  0  0  0  0
   43.4570   26.9410   37.5470 N   0  0  0  0  0  0  0  0  0  0  0  0
   42.2960   26.3790   37.9870 C   0  0  0  0  0  0  0  0  0  0  0  0
   42.0220   25.3690   37.6700 H   0  0  0  0  0  0  0  0  0  0  0  0
   41.4530   27.0260   38.8130 N   0  0  0  0  0  0  0  0  0  0  0  0
   41.7450   28.2540   39.2230 C   0  0  0  0  0  0  0  0  0  0  0  0
   45.0200   28.7800   37.4750 N   0  0  0  0  0  0  0  0  0  0  0  0
   45.6570   28.7130   38.3120 H   0  0  0  0  0  0  0  0  0  0  0  0
   45.1640   29.1720   36.5150 H   0  0  0  0  0  0  0  0  0  0  0  0
   39.9240   31.9200   42.5320 O   0  0  0  0  0  0  0  0  0  0  0  0
   36.1160   30.2860   46.7510 C   0  0  0  0  0  0  0  0  0  0  0  0
   37.2430   30.4850   47.5470 C   0  0  0  0  0  0  0  0  0  0  0  0
   38.4480   30.8920   46.9960 C   0  0  0  0  0  0  0  0  0  0  0  0
   38.4710   31.0890   45.6220 C   0  0  0  0  0  0  0  0  0  0  0  0
   39.5300   31.4880   44.8550 N   0  0  0  0  0  0  0  0  0  0  0  0
   39.0840   31.5400   43.5930 C   0  0  0  0  0  0  0  0  0  0  0  0
   37.8150   31.1960   43.5390 N   0  0  0  0  0  0  0  0  0  0  0  0
   37.3840   30.9050   44.7940 C   0  0  0  0  0  0  0  0  0  0  0  0
   36.1800   30.4930   45.3780 C   0  0  0  0  0  0  0  0  0  0  0  0
   35.1530   29.9710   47.1250 H   0  0  0  0  0  0  0  0  0  0  0  0
   39.3150   31.0440   47.6250 H   0  0  0  0  0  0  0  0  0  0  0  0
   40.4910   31.7030   45.2170 H   0  0  0  0  0  0  0  0  0  0  0  0
   35.3350   30.3530   44.7180 H   0  0  0  0  0  0  0  0  0  0  0  0
   37.7490   30.3290   51.2660 C   0  0  0  0  0  0  0  0  0  0  0  0
   37.9970   30.6340   49.9320 C   0  0  0  0  0  0  0  0  0  0  0  0
   37.0830   30.2290   48.9660 C   0  0  0  0  0  0  0  0  0  0  0  0
   35.9790   29.5470   49.3860 N   0  0  0  0  0  0  0  0  0  0  0  0
   35.7470   29.2560   50.6820 C   0  0  0  0  0  0  0  0  0  0  0  0
   36.6220   29.6440   51.5980 N   0  0  0  0  0  0  0  0  0  0  0  0
   38.5050   30.6770   51.9450 H   0  0  0  0  0  0  0  0  0  0  0  0
   38.8790   31.1760   49.6190 H   0  0  0  0  0  0  0  0  0  0  0  0
   34.8600   28.7120   50.9830 H   0  0  0  0  0  0  0  0  0  0  0  0
  1  7  1  0  0  0  0
  2  8  1  6  0  0  0
  2  1  1  0  0  0  0
  2 28  1  0  0  0  0
  3  9  1  0  0  0  0
  3  2  1  0  0  0  0
  4  5  1  0  0  0  0
  4  3  1  0  0  0  0
  5 12  1  0  0  0  0
  5  6  1  0  0  0  0
  6 13  1  1  0  0  0
  6  1  1  0  0  0  0
 10  3  1  0  0  0  0
 11  5  1  0  0  0  0
 14 15  1  0  0  0  0
 14  6  1  0  0  0  0
 15 16  1  0  0  0  0
 17 15  2  0  0  0  0
 18 24  1  0  0  0  0
 18 17  1  0  0  0  0
 19 18  2  0  0  0  0
 20 19  1  0  0  0  0
 20 21  2  0  0  0  0
 21 23  1  0  0  0  0
 22 21  1  0  0  0  0
 23 24  2  0  0  0  0
 24 14  1  0  0  0  0
 25 19  1  0  0  0  0
 25 26  1  0  0  0  0
 27 25  1  0  0  0  0
 28 34  1  0  0  0  0
 29 38  1  0  0  0  0
 29 30  1  0  0  0  0
 30 44  1  0  0  0  0
 31 30  2  0  0  0  0
 31 39  1  0  0  0  0
 32 31  1  0  0  0  0
 33 40  1  0  0  0  0
 33 32  1  0  0  0  0
 34 33  1  0  0  0  0
 35 34  2  0  0  0  0
 35 36  1  0  0  0  0
 36 37  1  0  0  0  0
 36 32  2  0  0  0  0
 37 29  2  0  0  0  0
 41 37  1  0  0  0  0
 42 47  1  0  0  0  0
 42 48  1  0  0  0  0
 43 42  2  0  0  0  0
 44 45  2  0  0  0  0
 44 43  1  0  0  0  0
 45 46  1  0  0  0  0
 46 50  1  0  0  0  0
 46 47  2  0  0  0  0
 49 43  1  0  0  0  0
M  END
>  <minimizedAffinity>
-6.07090187

>  <minimizedRMSD>
3.62443042

$$$$
