
 OpenBabel03272505333D

 45 49  0  0  0  0  0  0  0  0999 V2000
   37.0160   26.8890   32.4300 C   0  0  0  0  0  0  0  0  0  0  0  0
   37.5350   27.4600   31.3010 C   0  0  0  0  0  0  0  0  0  0  0  0
   37.3420   28.7600   30.9100 C   0  0  0  0  0  0  0  0  0  0  0  0
   36.5590   29.5900   31.7020 C   0  0  0  0  0  0  0  0  0  0  0  0
   36.0420   28.9830   32.8440 C   0  0  0  0  0  0  0  0  0  0  0  0
   36.2620   27.7090   33.1810 N   0  0  0  0  0  0  0  0  0  0  0  0
   38.1580   26.8650   30.6370 H   0  0  0  0  0  0  0  0  0  0  0  0
   37.7640   29.1890   30.0110 H   0  0  0  0  0  0  0  0  0  0  0  0
   36.3300   30.6150   31.5130 H   0  0  0  0  0  0  0  0  0  0  0  0
   35.2060   29.6800   33.7920 N   0  0  0  0  0  0  0  0  0  0  0  0
   35.6330   30.4240   34.8520 C   0  0  0  0  0  0  0  0  0  0  0  0
   36.7000   30.5360   35.0470 H   0  0  0  0  0  0  0  0  0  0  0  0
   34.5240   30.9030   35.4850 N   0  0  0  0  0  0  0  0  0  0  0  0
   33.4430   30.4500   34.8110 C   0  0  0  0  0  0  0  0  0  0  0  0
   32.0900   30.6250   35.0090 C   0  0  0  0  0  0  0  0  0  0  0  0
   31.1930   30.0440   34.1630 N   0  0  0  0  0  0  0  0  0  0  0  0
   31.6130   29.2920   33.1220 C   0  0  0  0  0  0  0  0  0  0  0  0
   30.9490   28.8050   32.4140 H   0  0  0  0  0  0  0  0  0  0  0  0
   32.9480   29.1200   32.9280 N   0  0  0  0  0  0  0  0  0  0  0  0
   33.8610   29.6770   33.7400 C   0  0  0  0  0  0  0  0  0  0  0  0
   38.1810   23.8130   34.2380 N   0  0  0  0  0  0  0  0  0  0  0  0
   38.0000   25.1270   33.9180 C   0  0  0  0  0  0  0  0  0  0  0  0
   37.2400   25.5060   32.8160 C   0  0  0  0  0  0  0  0  0  0  0  0
   36.6640   24.4960   32.0430 C   0  0  0  0  0  0  0  0  0  0  0  0
   35.9760   24.8000   31.0470 O   0  0  0  0  0  0  0  0  0  0  0  0
   36.8510   23.1780   32.3720 N   0  0  0  0  0  0  0  0  0  0  0  0
   37.5960   22.9350   33.4470 C   0  0  0  0  0  0  0  0  0  0  0  0
   37.7440   21.7220   33.7160 O   0  0  0  0  0  0  0  0  0  0  0  0
   38.4420   25.9260   34.5100 H   0  0  0  0  0  0  0  0  0  0  0  0
   39.1860   23.0980   37.7480 C   0  0  0  0  0  0  0  0  0  0  0  0
   38.4200   23.4700   36.6310 C   0  0  0  0  0  0  0  0  0  0  0  0
   38.9470   23.4410   35.3490 C   0  0  0  0  0  0  0  0  0  0  0  0
   40.2270   23.0380   35.2180 N   0  0  0  0  0  0  0  0  0  0  0  0
   40.9970   22.6690   36.2830 C   0  0  0  0  0  0  0  0  0  0  0  0
   40.4540   22.7070   37.5430 N   0  0  0  0  0  0  0  0  0  0  0  0
   38.7080   23.1470   38.7110 H   0  0  0  0  0  0  0  0  0  0  0  0
   37.3840   23.8000   36.7020 H   0  0  0  0  0  0  0  0  0  0  0  0
   42.0160   22.3560   36.1160 H   0  0  0  0  0  0  0  0  0  0  0  0
   36.2520   22.1450   31.5690 C   0  0  0  0  0  0  0  0  0  0  0  0
   35.3200   22.6660   30.7260 F   0  0  0  0  0  0  0  0  0  0  0  0
   35.6040   21.1700   32.3190 F   0  0  0  0  0  0  0  0  0  0  0  0
   37.2480   21.5600   30.7810 F   0  0  0  0  0  0  0  0  0  0  0  0
   31.6590   31.4150   36.1020 N   0  0  0  0  0  0  0  0  0  0  0  0
   31.0240   32.1660   35.7450 H   0  0  0  0  0  0  0  0  0  0  0  0
   31.7950   31.4510   37.1220 H   0  0  0  0  0  0  0  0  0  0  0  0
  1 23  1  0  0  0  0
  1  6  1  0  0  0  0
  2  1  2  0  0  0  0
  3  2  1  0  0  0  0
  3  4  2  0  0  0  0
  4  5  1  0  0  0  0
  5  6  2  0  0  0  0
  5 10  1  0  0  0  0
  7  2  1  0  0  0  0
  8  3  1  0  0  0  0
  9  4  1  0  0  0  0
 10 11  1  0  0  0  0
 11 12  1  0  0  0  0
 11 13  2  0  0  0  0
 14 15  1  0  0  0  0
 14 13  1  0  0  0  0
 15 43  1  0  0  0  0
 16 15  2  0  0  0  0
 17 16  1  0  0  0  0
 18 17  1  0  0  0  0
 19 17  2  0  0  0  0
 19 20  1  0  0  0  0
 20 10  1  0  0  0  0
 20 14  2  0  0  0  0
 21 32  1  0  0  0  0
 22 21  1  0  0  0  0
 22 29  1  0  0  0  0
 23 22  2  0  0  0  0
 24 26  1  0  0  0  0
 24 23  1  0  0  0  0
 25 24  2  0  0  0  0
 26 27  1  0  0  0  0
 27 28  2  0  0  0  0
 27 21  1  0  0  0  0
 30 36  1  0  0  0  0
 31 37  1  0  0  0  0
 31 30  2  0  0  0  0
 32 31  1  0  0  0  0
 33 32  2  0  0  0  0
 33 34  1  0  0  0  0
 34 35  2  0  0  0  0
 35 30  1  0  0  0  0
 38 34  1  0  0  0  0
 39 41  1  0  0  0  0
 39 26  1  0  0  0  0
 40 39  1  0  0  0  0
 42 39  1  0  0  0  0
 43 45  1  0  0  0  0
 44 43  1  0  0  0  0
M  END
>  <minimizedAffinity>
-7.49506569

$$$$

 OpenBabel03272505333D

 45 49  0  0  0  0  0  0  0  0999 V2000
   37.0270   27.0690   32.5980 C   0  0  0  0  0  0  0  0  0  0  0  0
   37.5000   27.6180   31.4390 C   0  0  0  0  0  0  0  0  0  0  0  0
   37.2290   28.8870   30.9960 C   0  0  0  0  0  0  0  0  0  0  0  0
   36.4100   29.7060   31.7640 C   0  0  0  0  0  0  0  0  0  0  0  0
   35.9420   29.1210   32.9380 C   0  0  0  0  0  0  0  0  0  0  0  0
   36.2370   27.8760   33.3250 N   0  0  0  0  0  0  0  0  0  0  0  0
   38.1470   27.0310   30.7910 H   0  0  0  0  0  0  0  0  0  0  0  0
   37.6150   29.3000   30.0740 H   0  0  0  0  0  0  0  0  0  0  0  0
   36.1210   30.7070   31.5350 H   0  0  0  0  0  0  0  0  0  0  0  0
   35.0790   29.8090   33.8670 N   0  0  0  0  0  0  0  0  0  0  0  0
   35.4760   30.6220   34.8890 C   0  0  0  0  0  0  0  0  0  0  0  0
   36.5380   30.8020   35.0640 H   0  0  0  0  0  0  0  0  0  0  0  0
   34.3500   31.0640   35.5170 N   0  0  0  0  0  0  0  0  0  0  0  0
   33.2880   30.5230   34.8790 C   0  0  0  0  0  0  0  0  0  0  0  0
   31.9290   30.6300   35.0890 C   0  0  0  0  0  0  0  0  0  0  0  0
   31.0570   29.9640   34.2810 N   0  0  0  0  0  0  0  0  0  0  0  0
   31.5060   29.1930   33.2670 C   0  0  0  0  0  0  0  0  0  0  0  0
   30.8630   28.6390   32.5900 H   0  0  0  0  0  0  0  0  0  0  0  0
   32.8460   29.0880   33.0610 N   0  0  0  0  0  0  0  0  0  0  0  0
   33.7360   29.7290   33.8360 C   0  0  0  0  0  0  0  0  0  0  0  0
   37.2590   23.3280   32.8070 N   0  0  0  0  0  0  0  0  0  0  0  0
   36.9450   24.5750   32.3500 C   0  0  0  0  0  0  0  0  0  0  0  0
   37.3350   25.7190   33.0390 C   0  0  0  0  0  0  0  0  0  0  0  0
   38.0620   25.5520   34.2210 C   0  0  0  0  0  0  0  0  0  0  0  0
   38.4280   26.5560   34.8640 O   0  0  0  0  0  0  0  0  0  0  0  0
   38.3730   24.2950   34.6720 N   0  0  0  0  0  0  0  0  0  0  0  0
   37.9480   23.2760   33.9310 C   0  0  0  0  0  0  0  0  0  0  0  0
   38.2510   22.1460   34.3750 O   0  0  0  0  0  0  0  0  0  0  0  0
   36.3790   24.7210   31.4330 H   0  0  0  0  0  0  0  0  0  0  0  0
   35.2240   20.4470   31.6260 C   0  0  0  0  0  0  0  0  0  0  0  0
   35.6250   21.5960   32.3260 C   0  0  0  0  0  0  0  0  0  0  0  0
   36.8620   22.1820   32.1070 C   0  0  0  0  0  0  0  0  0  0  0  0
   37.6650   21.6040   31.1920 N   0  0  0  0  0  0  0  0  0  0  0  0
   37.3040   20.4880   30.4950 C   0  0  0  0  0  0  0  0  0  0  0  0
   36.0740   19.9240   30.7290 N   0  0  0  0  0  0  0  0  0  0  0  0
   34.2490   20.0490   31.8500 H   0  0  0  0  0  0  0  0  0  0  0  0
   35.0020   22.0880   33.0720 H   0  0  0  0  0  0  0  0  0  0  0  0
   37.9900   20.0690   29.7740 H   0  0  0  0  0  0  0  0  0  0  0  0
   39.1230   24.1350   35.8900 C   0  0  0  0  0  0  0  0  0  0  0  0
   39.0980   22.8420   36.3080 F   0  0  0  0  0  0  0  0  0  0  0  0
   38.6320   24.9000   36.9430 F   0  0  0  0  0  0  0  0  0  0  0  0
   40.4570   24.4680   35.6380 F   0  0  0  0  0  0  0  0  0  0  0  0
   31.4680   31.4410   36.1540 N   0  0  0  0  0  0  0  0  0  0  0  0
   30.7880   32.1390   35.7740 H   0  0  0  0  0  0  0  0  0  0  0  0
   31.6140   31.5280   37.1690 H   0  0  0  0  0  0  0  0  0  0  0  0
  1 23  1  0  0  0  0
  1  6  1  0  0  0  0
  2  1  2  0  0  0  0
  3  2  1  0  0  0  0
  3  4  2  0  0  0  0
  4  5  1  0  0  0  0
  5  6  2  0  0  0  0
  5 10  1  0  0  0  0
  7  2  1  0  0  0  0
  8  3  1  0  0  0  0
  9  4  1  0  0  0  0
 10 11  1  0  0  0  0
 11 12  1  0  0  0  0
 11 13  2  0  0  0  0
 14 15  1  0  0  0  0
 14 13  1  0  0  0  0
 15 43  1  0  0  0  0
 16 15  2  0  0  0  0
 17 16  1  0  0  0  0
 18 17  1  0  0  0  0
 19 17  2  0  0  0  0
 19 20  1  0  0  0  0
 20 10  1  0  0  0  0
 20 14  2  0  0  0  0
 21 27  1  0  0  0  0
 22 21  1  0  0  0  0
 22 23  2  0  0  0  0
 23 24  1  0  0  0  0
 24 26  1  0  0  0  0
 24 25  2  0  0  0  0
 26 39  1  0  0  0  0
 27 28  2  0  0  0  0
 27 26  1  0  0  0  0
 29 22  1  0  0  0  0
 30 36  1  0  0  0  0
 30 31  1  0  0  0  0
 31 37  1  0  0  0  0
 32 31  2  0  0  0  0
 32 21  1  0  0  0  0
 33 32  1  0  0  0  0
 34 35  1  0  0  0  0
 34 33  2  0  0  0  0
 35 30  2  0  0  0  0
 38 34  1  0  0  0  0
 39 40  1  0  0  0  0
 39 41  1  0  0  0  0
 42 39  1  0  0  0  0
 43 45  1  0  0  0  0
 44 43  1  0  0  0  0
M  END
>  <minimizedAffinity>
-7.22854853

$$$$

 OpenBabel03272505333D

 45 49  0  0  0  0  0  0  0  0999 V2000
   38.2260   25.9250   33.1140 C   0  0  0  0  0  0  0  0  0  0  0  0
   39.1040   25.8070   34.1560 C   0  0  0  0  0  0  0  0  0  0  0  0
   39.7680   24.6590   34.5050 C   0  0  0  0  0  0  0  0  0  0  0  0
   39.5520   23.5060   33.7610 C   0  0  0  0  0  0  0  0  0  0  0  0
   38.6520   23.6550   32.7080 C   0  0  0  0  0  0  0  0  0  0  0  0
   38.0300   24.7990   32.4090 N   0  0  0  0  0  0  0  0  0  0  0  0
   39.3190   26.6730   34.7780 H   0  0  0  0  0  0  0  0  0  0  0  0
   40.4590   24.5900   35.3340 H   0  0  0  0  0  0  0  0  0  0  0  0
   40.0010   22.5520   33.9260 H   0  0  0  0  0  0  0  0  0  0  0  0
   38.2960   22.5730   31.8220 N   0  0  0  0  0  0  0  0  0  0  0  0
   38.9620   22.2030   30.6900 C   0  0  0  0  0  0  0  0  0  0  0  0
   39.8560   22.7450   30.3800 H   0  0  0  0  0  0  0  0  0  0  0  0
   38.2940   21.1410   30.1550 N   0  0  0  0  0  0  0  0  0  0  0  0
   37.2390   20.8770   30.9580 C   0  0  0  0  0  0  0  0  0  0  0  0
   36.2450   19.9230   30.8950 C   0  0  0  0  0  0  0  0  0  0  0  0
   35.2800   19.8760   31.8560 N   0  0  0  0  0  0  0  0  0  0  0  0
   35.2820   20.7560   32.8810 C   0  0  0  0  0  0  0  0  0  0  0  0
   34.5420   20.7690   33.6760 H   0  0  0  0  0  0  0  0  0  0  0  0
   36.2630   21.6960   32.9420 N   0  0  0  0  0  0  0  0  0  0  0  0
   37.2310   21.7730   32.0140 C   0  0  0  0  0  0  0  0  0  0  0  0
   36.0640   28.9910   33.2670 N   0  0  0  0  0  0  0  0  0  0  0  0
   36.6870   27.8350   33.6390 C   0  0  0  0  0  0  0  0  0  0  0  0
   37.5380   27.1590   32.7710 C   0  0  0  0  0  0  0  0  0  0  0  0
   37.7370   27.7010   31.4990 C   0  0  0  0  0  0  0  0  0  0  0  0
   38.4940   27.1210   30.6950 O   0  0  0  0  0  0  0  0  0  0  0  0
   37.1070   28.8630   31.1350 N   0  0  0  0  0  0  0  0  0  0  0  0
   36.3170   29.4220   32.0470 C   0  0  0  0  0  0  0  0  0  0  0  0
   35.7610   30.4800   31.6770 O   0  0  0  0  0  0  0  0  0  0  0  0
   36.5420   27.3990   34.6250 H   0  0  0  0  0  0  0  0  0  0  0  0
   34.8320   31.3180   35.8950 C   0  0  0  0  0  0  0  0  0  0  0  0
   35.6860   30.6400   35.0100 C   0  0  0  0  0  0  0  0  0  0  0  0
   35.2100   29.6650   34.1480 C   0  0  0  0  0  0  0  0  0  0  0  0
   33.8900   29.3930   34.1930 N   0  0  0  0  0  0  0  0  0  0  0  0
   33.0340   30.0350   35.0410 C   0  0  0  0  0  0  0  0  0  0  0  0
   33.5280   30.9970   35.8850 N   0  0  0  0  0  0  0  0  0  0  0  0
   35.2750   32.0630   36.5340 H   0  0  0  0  0  0  0  0  0  0  0  0
   36.7560   30.8350   34.9480 H   0  0  0  0  0  0  0  0  0  0  0  0
   31.9860   29.7750   35.0320 H   0  0  0  0  0  0  0  0  0  0  0  0
   37.3210   29.4140   29.8220 C   0  0  0  0  0  0  0  0  0  0  0  0
   36.5010   30.4770   29.6030 F   0  0  0  0  0  0  0  0  0  0  0  0
   37.0720   28.5070   28.7970 F   0  0  0  0  0  0  0  0  0  0  0  0
   38.6370   29.8770   29.7410 F   0  0  0  0  0  0  0  0  0  0  0  0
   36.2510   19.0050   29.8170 N   0  0  0  0  0  0  0  0  0  0  0  0
   36.2330   18.0330   30.2040 H   0  0  0  0  0  0  0  0  0  0  0  0
   36.2680   19.0310   28.7890 H   0  0  0  0  0  0  0  0  0  0  0  0
  1  2  1  0  0  0  0
  2  3  2  0  0  0  0
  2  7  1  0  0  0  0
  3  8  1  0  0  0  0
  4  9  1  0  0  0  0
  4  3  1  0  0  0  0
  5  4  2  0  0  0  0
  6  5  1  0  0  0  0
  6  1  2  0  0  0  0
 10 20  1  0  0  0  0
 10  5  1  0  0  0  0
 11 10  1  0  0  0  0
 12 11  1  0  0  0  0
 13 11  2  0  0  0  0
 13 14  1  0  0  0  0
 14 20  1  0  0  0  0
 15 14  2  0  0  0  0
 15 16  1  0  0  0  0
 16 17  2  0  0  0  0
 17 19  1  0  0  0  0
 17 18  1  0  0  0  0
 20 19  2  0  0  0  0
 21 22  1  0  0  0  0
 21 32  1  0  0  0  0
 22 29  1  0  0  0  0
 23  1  1  0  0  0  0
 23 22  2  0  0  0  0
 24 23  1  0  0  0  0
 25 24  2  0  0  0  0
 26 24  1  0  0  0  0
 26 27  1  0  0  0  0
 27 21  1  0  0  0  0
 28 27  2  0  0  0  0
 30 36  1  0  0  0  0
 31 30  2  0  0  0  0
 32 33  2  0  0  0  0
 32 31  1  0  0  0  0
 33 34  1  0  0  0  0
 34 35  2  0  0  0  0
 35 30  1  0  0  0  0
 37 31  1  0  0  0  0
 38 34  1  0  0  0  0
 39 26  1  0  0  0  0
 40 39  1  0  0  0  0
 41 39  1  0  0  0  0
 42 39  1  0  0  0  0
 43 44  1  0  0  0  0
 43 15  1  0  0  0  0
 45 43  1  0  0  0  0
M  END
>  <minimizedAffinity>
-6.78851604

$$$$

 OpenBabel03272505333D

 45 49  0  0  0  0  0  0  0  0999 V2000
   36.4640   26.7750   32.3350 C   0  0  0  0  0  0  0  0  0  0  0  0
   35.8590   25.9430   31.4350 C   0  0  0  0  0  0  0  0  0  0  0  0
   36.0820   24.5940   31.3290 C   0  0  0  0  0  0  0  0  0  0  0  0
   36.9920   23.9940   32.1920 C   0  0  0  0  0  0  0  0  0  0  0  0
   37.5930   24.8650   33.0970 C   0  0  0  0  0  0  0  0  0  0  0  0
   37.3400   26.1760   33.1590 N   0  0  0  0  0  0  0  0  0  0  0  0
   35.1350   26.3470   30.7310 H   0  0  0  0  0  0  0  0  0  0  0  0
   35.5900   23.9550   30.6080 H   0  0  0  0  0  0  0  0  0  0  0  0
   37.2570   22.9610   32.2150 H   0  0  0  0  0  0  0  0  0  0  0  0
   38.5650   24.4340   34.0730 N   0  0  0  0  0  0  0  0  0  0  0  0
   38.2980   23.9430   35.3170 C   0  0  0  0  0  0  0  0  0  0  0  0
   37.2660   23.8470   35.6570 H   0  0  0  0  0  0  0  0  0  0  0  0
   39.4940   23.6590   35.9070 N   0  0  0  0  0  0  0  0  0  0  0  0
   40.4680   23.9750   35.0250 C   0  0  0  0  0  0  0  0  0  0  0  0
   41.8430   23.8920   35.0960 C   0  0  0  0  0  0  0  0  0  0  0  0
   42.6090   24.2870   34.0400 N   0  0  0  0  0  0  0  0  0  0  0  0
   42.0370   24.7640   32.9130 C   0  0  0  0  0  0  0  0  0  0  0  0
   42.5920   25.0930   32.0390 H   0  0  0  0  0  0  0  0  0  0  0  0
   40.6820   24.8450   32.8440 N   0  0  0  0  0  0  0  0  0  0  0  0
   39.8940   24.4650   33.8640 C   0  0  0  0  0  0  0  0  0  0  0  0
   35.4240   30.1650   33.5670 N   0  0  0  0  0  0  0  0  0  0  0  0
   35.6480   28.8200   33.5370 C   0  0  0  0  0  0  0  0  0  0  0  0
   36.2040   28.2030   32.4210 C   0  0  0  0  0  0  0  0  0  0  0  0
   36.5280   29.0060   31.3250 C   0  0  0  0  0  0  0  0  0  0  0  0
   37.0280   28.4860   30.3070 O   0  0  0  0  0  0  0  0  0  0  0  0
   36.2990   30.3570   31.3640 N   0  0  0  0  0  0  0  0  0  0  0  0
   35.7640   30.8370   32.4840 C   0  0  0  0  0  0  0  0  0  0  0  0
   35.5700   32.0730   32.4810 O   0  0  0  0  0  0  0  0  0  0  0  0
   35.4020   28.1800   34.3820 H   0  0  0  0  0  0  0  0  0  0  0  0
   35.1020   31.9990   36.7870 C   0  0  0  0  0  0  0  0  0  0  0  0
   35.6600   31.3840   35.6550 C   0  0  0  0  0  0  0  0  0  0  0  0
   34.8640   30.7780   34.6940 C   0  0  0  0  0  0  0  0  0  0  0  0
   33.5310   30.8040   34.8920 N   0  0  0  0  0  0  0  0  0  0  0  0
   32.9590   31.3940   35.9810 C   0  0  0  0  0  0  0  0  0  0  0  0
   33.7660   31.9880   36.9190 N   0  0  0  0  0  0  0  0  0  0  0  0
   35.7830   32.4490   37.4890 H   0  0  0  0  0  0  0  0  0  0  0  0
   36.7310   31.3450   35.4640 H   0  0  0  0  0  0  0  0  0  0  0  0
   31.8840   31.3830   36.0850 H   0  0  0  0  0  0  0  0  0  0  0  0
   36.6370   31.1760   30.2290 C   0  0  0  0  0  0  0  0  0  0  0  0
   35.6230   32.0320   29.9310 F   0  0  0  0  0  0  0  0  0  0  0  0
   36.8850   30.4410   29.0750 F   0  0  0  0  0  0  0  0  0  0  0  0
   37.7560   31.9480   30.5550 F   0  0  0  0  0  0  0  0  0  0  0  0
   42.4330   23.3910   36.2820 N   0  0  0  0  0  0  0  0  0  0  0  0
   43.0670   22.5970   36.0320 H   0  0  0  0  0  0  0  0  0  0  0  0
   42.4100   23.5890   37.2920 H   0  0  0  0  0  0  0  0  0  0  0  0
  1 23  1  0  0  0  0
  1  6  1  0  0  0  0
  2  1  2  0  0  0  0
  3  2  1  0  0  0  0
  3  4  2  0  0  0  0
  4  9  1  0  0  0  0
  4  5  1  0  0  0  0
  5  6  2  0  0  0  0
  5 10  1  0  0  0  0
  7  2  1  0  0  0  0
  8  3  1  0  0  0  0
 10 11  1  0  0  0  0
 11 12  1  0  0  0  0
 11 13  2  0  0  0  0
 14 15  1  0  0  0  0
 14 13  1  0  0  0  0
 15 43  1  0  0  0  0
 16 15  2  0  0  0  0
 17 16  1  0  0  0  0
 18 17  1  0  0  0  0
 19 17  2  0  0  0  0
 19 20  1  0  0  0  0
 20 10  1  0  0  0  0
 20 14  2  0  0  0  0
 21 32  1  0  0  0  0
 22 21  1  0  0  0  0
 22 29  1  0  0  0  0
 23 22  2  0  0  0  0
 24 26  1  0  0  0  0
 24 23  1  0  0  0  0
 25 24  2  0  0  0  0
 26 27  1  0  0  0  0
 27 21  1  0  0  0  0
 28 27  2  0  0  0  0
 30 35  1  0  0  0  0
 30 36  1  0  0  0  0
 31 30  2  0  0  0  0
 32 33  2  0  0  0  0
 32 31  1  0  0  0  0
 33 34  1  0  0  0  0
 34 38  1  0  0  0  0
 34 35  2  0  0  0  0
 37 31  1  0  0  0  0
 39 42  1  0  0  0  0
 39 26  1  0  0  0  0
 40 39  1  0  0  0  0
 41 39  1  0  0  0  0
 43 45  1  0  0  0  0
 44 43  1  0  0  0  0
M  END
>  <minimizedAffinity>
-6.74722195

$$$$

 OpenBabel03272505333D

 45 49  0  0  0  0  0  0  0  0999 V2000
   35.4980   29.6470   32.3360 C   0  0  0  0  0  0  0  0  0  0  0  0
   36.0800   30.3140   31.2950 C   0  0  0  0  0  0  0  0  0  0  0  0
   36.6820   29.7230   30.2130 C   0  0  0  0  0  0  0  0  0  0  0  0
   36.7220   28.3360   30.1420 C   0  0  0  0  0  0  0  0  0  0  0  0
   36.1230   27.6830   31.2160 C   0  0  0  0  0  0  0  0  0  0  0  0
   35.5480   28.3070   32.2480 N   0  0  0  0  0  0  0  0  0  0  0  0
   36.0830   31.4020   31.2880 H   0  0  0  0  0  0  0  0  0  0  0  0
   37.1360   30.2730   29.4000 H   0  0  0  0  0  0  0  0  0  0  0  0
   37.1580   27.7540   29.3610 H   0  0  0  0  0  0  0  0  0  0  0  0
   36.0630   26.2450   31.3240 N   0  0  0  0  0  0  0  0  0  0  0  0
   35.1010   25.4340   30.7960 C   0  0  0  0  0  0  0  0  0  0  0  0
   34.2750   25.8640   30.2280 H   0  0  0  0  0  0  0  0  0  0  0  0
   35.4220   24.1520   31.1310 N   0  0  0  0  0  0  0  0  0  0  0  0
   36.5650   24.1930   31.8520 C   0  0  0  0  0  0  0  0  0  0  0  0
   37.3260   23.2030   32.4360 C   0  0  0  0  0  0  0  0  0  0  0  0
   38.4580   23.5250   33.1230 N   0  0  0  0  0  0  0  0  0  0  0  0
   38.8520   24.8120   33.2420 C   0  0  0  0  0  0  0  0  0  0  0  0
   39.7420   25.1320   33.7740 H   0  0  0  0  0  0  0  0  0  0  0  0
   38.1000   25.7870   32.6650 N   0  0  0  0  0  0  0  0  0  0  0  0
   36.9790   25.5090   31.9800 C   0  0  0  0  0  0  0  0  0  0  0  0
   33.2050   30.4500   35.1980 N   0  0  0  0  0  0  0  0  0  0  0  0
   33.7610   29.7930   34.1390 C   0  0  0  0  0  0  0  0  0  0  0  0
   34.8670   30.3040   33.4690 C   0  0  0  0  0  0  0  0  0  0  0  0
   35.3960   31.5180   33.9140 C   0  0  0  0  0  0  0  0  0  0  0  0
   36.3890   32.0060   33.3370 O   0  0  0  0  0  0  0  0  0  0  0  0
   34.8310   32.1710   34.9790 N   0  0  0  0  0  0  0  0  0  0  0  0
   33.7770   31.5880   35.5420 C   0  0  0  0  0  0  0  0  0  0  0  0
   33.2900   32.2130   36.5100 O   0  0  0  0  0  0  0  0  0  0  0  0
   33.3610   28.8470   33.7800 H   0  0  0  0  0  0  0  0  0  0  0  0
   30.9340   28.0750   36.9400 C   0  0  0  0  0  0  0  0  0  0  0  0
   32.0490   28.6020   36.2700 C   0  0  0  0  0  0  0  0  0  0  0  0
   32.0920   29.9280   35.8670 C   0  0  0  0  0  0  0  0  0  0  0  0
   31.0170   30.6920   36.1460 N   0  0  0  0  0  0  0  0  0  0  0  0
   29.9190   30.2090   36.7970 C   0  0  0  0  0  0  0  0  0  0  0  0
   29.8990   28.8940   37.1860 N   0  0  0  0  0  0  0  0  0  0  0  0
   30.9740   27.0360   37.2220 H   0  0  0  0  0  0  0  0  0  0  0  0
   32.9330   28.0130   36.0280 H   0  0  0  0  0  0  0  0  0  0  0  0
   29.0870   30.8700   36.9940 H   0  0  0  0  0  0  0  0  0  0  0  0
   35.3850   33.4210   35.4310 C   0  0  0  0  0  0  0  0  0  0  0  0
   34.6160   34.4660   35.0240 F   0  0  0  0  0  0  0  0  0  0  0  0
   36.6660   33.6620   34.9470 F   0  0  0  0  0  0  0  0  0  0  0  0
   35.3930   33.4260   36.8290 F   0  0  0  0  0  0  0  0  0  0  0  0
   36.9060   21.8570   32.3070 N   0  0  0  0  0  0  0  0  0  0  0  0
   37.6930   21.2970   31.9060 H   0  0  0  0  0  0  0  0  0  0  0  0
   36.0630   21.2960   32.4940 H   0  0  0  0  0  0  0  0  0  0  0  0
  1 23  1  0  0  0  0
  2  1  2  0  0  0  0
  3  2  1  0  0  0  0
  4  3  2  0  0  0  0
  4  5  1  0  0  0  0
  5 10  1  0  0  0  0
  5  6  2  0  0  0  0
  6  1  1  0  0  0  0
  7  2  1  0  0  0  0
  8  3  1  0  0  0  0
  9  4  1  0  0  0  0
 10 20  1  0  0  0  0
 11 13  2  0  0  0  0
 11 10  1  0  0  0  0
 12 11  1  0  0  0  0
 13 14  1  0  0  0  0
 14 20  2  0  0  0  0
 14 15  1  0  0  0  0
 15 16  2  0  0  0  0
 16 17  1  0  0  0  0
 17 18  1  0  0  0  0
 19 17  2  0  0  0  0
 20 19  1  0  0  0  0
 21 27  1  0  0  0  0
 21 32  1  0  0  0  0
 22 21  1  0  0  0  0
 23 24  1  0  0  0  0
 23 22  2  0  0  0  0
 24 26  1  0  0  0  0
 25 24  2  0  0  0  0
 26 39  1  0  0  0  0
 26 27  1  0  0  0  0
 27 28  2  0  0  0  0
 29 22  1  0  0  0  0
 30 35  1  0  0  0  0
 30 36  1  0  0  0  0
 31 30  2  0  0  0  0
 32 33  2  0  0  0  0
 32 31  1  0  0  0  0
 33 34  1  0  0  0  0
 34 38  1  0  0  0  0
 34 35  2  0  0  0  0
 37 31  1  0  0  0  0
 39 42  1  0  0  0  0
 40 39  1  0  0  0  0
 41 39  1  0  0  0  0
 43 15  1  0  0  0  0
 43 45  1  0  0  0  0
 44 43  1  0  0  0  0
M  END
>  <minimizedAffinity>
-6.62373018

$$$$

 OpenBabel03272505333D

 45 49  0  0  0  0  0  0  0  0999 V2000
   36.8940   24.9400   31.9390 C   0  0  0  0  0  0  0  0  0  0  0  0
   36.3740   24.0480   31.0420 C   0  0  0  0  0  0  0  0  0  0  0  0
   36.3570   22.6860   31.1990 C   0  0  0  0  0  0  0  0  0  0  0  0
   36.9070   22.1360   32.3500 C   0  0  0  0  0  0  0  0  0  0  0  0
   37.4300   23.0660   33.2450 C   0  0  0  0  0  0  0  0  0  0  0  0
   37.4210   24.3870   33.0440 N   0  0  0  0  0  0  0  0  0  0  0  0
   35.9270   24.4130   30.1200 H   0  0  0  0  0  0  0  0  0  0  0  0
   35.9380   22.0000   30.4750 H   0  0  0  0  0  0  0  0  0  0  0  0
   36.9590   21.0990   32.5940 H   0  0  0  0  0  0  0  0  0  0  0  0
   38.0440   22.6920   34.4960 N   0  0  0  0  0  0  0  0  0  0  0  0
   37.4020   22.4910   35.6830 C   0  0  0  0  0  0  0  0  0  0  0  0
   36.3200   22.6120   35.7470 H   0  0  0  0  0  0  0  0  0  0  0  0
   38.3490   22.1530   36.6040 N   0  0  0  0  0  0  0  0  0  0  0  0
   39.5460   22.1510   35.9760 C   0  0  0  0  0  0  0  0  0  0  0  0
   40.8240   21.8840   36.4220 C   0  0  0  0  0  0  0  0  0  0  0  0
   41.8780   21.9570   35.5610 N   0  0  0  0  0  0  0  0  0  0  0  0
   41.6900   22.2880   34.2650 C   0  0  0  0  0  0  0  0  0  0  0  0
   42.4870   22.3620   33.5310 H   0  0  0  0  0  0  0  0  0  0  0  0
   40.4300   22.5510   33.8270 N   0  0  0  0  0  0  0  0  0  0  0  0
   39.3660   22.4890   34.6450 C   0  0  0  0  0  0  0  0  0  0  0  0
   36.0830   28.5960   32.1900 N   0  0  0  0  0  0  0  0  0  0  0  0
   36.0420   27.2510   32.4110 C   0  0  0  0  0  0  0  0  0  0  0  0
   36.8960   26.3800   31.7420 C   0  0  0  0  0  0  0  0  0  0  0  0
   37.8020   26.9270   30.8310 C   0  0  0  0  0  0  0  0  0  0  0  0
   38.5830   26.1750   30.2130 O   0  0  0  0  0  0  0  0  0  0  0  0
   37.8360   28.2810   30.6150 N   0  0  0  0  0  0  0  0  0  0  0  0
   36.9740   29.0150   31.3120 C   0  0  0  0  0  0  0  0  0  0  0  0
   37.0360   30.2450   31.0880 O   0  0  0  0  0  0  0  0  0  0  0  0
   35.3420   26.8090   33.1170 H   0  0  0  0  0  0  0  0  0  0  0  0
   34.6480   30.7890   34.8290 C   0  0  0  0  0  0  0  0  0  0  0  0
   35.5110   29.9190   34.1460 C   0  0  0  0  0  0  0  0  0  0  0  0
   35.2200   29.4650   32.8680 C   0  0  0  0  0  0  0  0  0  0  0  0
   34.0730   29.8970   32.3080 N   0  0  0  0  0  0  0  0  0  0  0  0
   33.2130   30.7440   32.9450 C   0  0  0  0  0  0  0  0  0  0  0  0
   33.5220   31.1790   34.2090 N   0  0  0  0  0  0  0  0  0  0  0  0
   34.9410   31.0990   35.8180 H   0  0  0  0  0  0  0  0  0  0  0  0
   36.4450   29.5510   34.5690 H   0  0  0  0  0  0  0  0  0  0  0  0
   32.3090   31.0550   32.4450 H   0  0  0  0  0  0  0  0  0  0  0  0
   38.7750   28.8340   29.6750 C   0  0  0  0  0  0  0  0  0  0  0  0
   38.6770   30.1900   29.6330 F   0  0  0  0  0  0  0  0  0  0  0  0
   38.5800   28.3850   28.3730 F   0  0  0  0  0  0  0  0  0  0  0  0
   40.0690   28.5210   30.1000 F   0  0  0  0  0  0  0  0  0  0  0  0
   41.0110   21.5380   37.7820 N   0  0  0  0  0  0  0  0  0  0  0  0
   41.5250   20.6280   37.8290 H   0  0  0  0  0  0  0  0  0  0  0  0
   40.7870   21.9260   38.7090 H   0  0  0  0  0  0  0  0  0  0  0  0
  1  6  1  0  0  0  0
  2  3  1  0  0  0  0
  2  1  2  0  0  0  0
  3  4  2  0  0  0  0
  4  9  1  0  0  0  0
  4  5  1  0  0  0  0
  5 10  1  0  0  0  0
  6  5  2  0  0  0  0
  7  2  1  0  0  0  0
  8  3  1  0  0  0  0
 10 20  1  0  0  0  0
 10 11  1  0  0  0  0
 11 12  1  0  0  0  0
 11 13  2  0  0  0  0
 14 15  1  0  0  0  0
 14 13  1  0  0  0  0
 15 43  1  0  0  0  0
 16 15  2  0  0  0  0
 17 16  1  0  0  0  0
 18 17  1  0  0  0  0
 19 17  2  0  0  0  0
 19 20  1  0  0  0  0
 20 14  2  0  0  0  0
 21 22  1  0  0  0  0
 21 32  1  0  0  0  0
 22 29  1  0  0  0  0
 23  1  1  0  0  0  0
 23 22  2  0  0  0  0
 24 23  1  0  0  0  0
 25 24  2  0  0  0  0
 26 24  1  0  0  0  0
 26 27  1  0  0  0  0
 27 21  1  0  0  0  0
 28 27  2  0  0  0  0
 30 36  1  0  0  0  0
 31 37  1  0  0  0  0
 31 30  2  0  0  0  0
 32 31  1  0  0  0  0
 33 32  2  0  0  0  0
 33 34  1  0  0  0  0
 34 35  2  0  0  0  0
 35 30  1  0  0  0  0
 38 34  1  0  0  0  0
 39 42  1  0  0  0  0
 39 26  1  0  0  0  0
 40 39  1  0  0  0  0
 41 39  1  0  0  0  0
 43 44  1  0  0  0  0
 43 45  1  0  0  0  0
M  END
>  <minimizedAffinity>
-6.5300498

$$$$

 OpenBabel03272505333D

 45 49  0  0  0  0  0  0  0  0999 V2000
   36.4980   28.3910   32.6270 C   0  0  0  0  0  0  0  0  0  0  0  0
   36.0520   28.6760   31.3660 C   0  0  0  0  0  0  0  0  0  0  0  0
   35.4180   29.8330   30.9930 C   0  0  0  0  0  0  0  0  0  0  0  0
   35.1940   30.8150   31.9500 C   0  0  0  0  0  0  0  0  0  0  0  0
   35.6570   30.4980   33.2240 C   0  0  0  0  0  0  0  0  0  0  0  0
   36.2710   29.3530   33.5370 N   0  0  0  0  0  0  0  0  0  0  0  0
   36.1970   27.9500   30.5690 H   0  0  0  0  0  0  0  0  0  0  0  0
   35.0750   30.0350   29.9870 H   0  0  0  0  0  0  0  0  0  0  0  0
   34.7140   31.7540   31.7930 H   0  0  0  0  0  0  0  0  0  0  0  0
   35.5180   31.3880   34.3520 N   0  0  0  0  0  0  0  0  0  0  0  0
   36.3810   32.3820   34.7090 C   0  0  0  0  0  0  0  0  0  0  0  0
   37.2790   32.5650   34.1170 H   0  0  0  0  0  0  0  0  0  0  0  0
   35.8770   32.9760   35.8270 N   0  0  0  0  0  0  0  0  0  0  0  0
   34.7230   32.3440   36.1390 C   0  0  0  0  0  0  0  0  0  0  0  0
   33.8130   32.5300   37.1580 C   0  0  0  0  0  0  0  0  0  0  0  0
   32.7090   31.7360   37.2440 N   0  0  0  0  0  0  0  0  0  0  0  0
   32.4890   30.7590   36.3360 C   0  0  0  0  0  0  0  0  0  0  0  0
   31.6290   30.0950   36.3500 H   0  0  0  0  0  0  0  0  0  0  0  0
   33.3870   30.5770   35.3320 N   0  0  0  0  0  0  0  0  0  0  0  0
   34.4860   31.3400   35.2150 C   0  0  0  0  0  0  0  0  0  0  0  0
   38.2560   25.0790   32.4550 N   0  0  0  0  0  0  0  0  0  0  0  0
   37.6340   26.2280   32.0620 C   0  0  0  0  0  0  0  0  0  0  0  0
   37.1670   27.1530   32.9900 C   0  0  0  0  0  0  0  0  0  0  0  0
   37.3560   26.8700   34.3450 C   0  0  0  0  0  0  0  0  0  0  0  0
   36.9510   27.6780   35.2050 O   0  0  0  0  0  0  0  0  0  0  0  0
   37.9830   25.7130   34.7300 N   0  0  0  0  0  0  0  0  0  0  0  0
   38.3870   24.9030   33.7550 C   0  0  0  0  0  0  0  0  0  0  0  0
   38.9550   23.8590   34.1460 O   0  0  0  0  0  0  0  0  0  0  0  0
   37.4790   26.4630   31.0110 H   0  0  0  0  0  0  0  0  0  0  0  0
   40.3980   23.4150   29.9090 C   0  0  0  0  0  0  0  0  0  0  0  0
   39.9270   24.3410   30.8540 C   0  0  0  0  0  0  0  0  0  0  0  0
   38.7230   24.1530   31.5130 C   0  0  0  0  0  0  0  0  0  0  0  0
   38.0210   23.0430   31.2110 N   0  0  0  0  0  0  0  0  0  0  0  0
   38.4510   22.1240   30.2990 C   0  0  0  0  0  0  0  0  0  0  0  0
   39.6470   22.3310   29.6570 N   0  0  0  0  0  0  0  0  0  0  0  0
   41.3420   23.6290   29.4370 H   0  0  0  0  0  0  0  0  0  0  0  0
   40.4690   25.2480   31.1210 H   0  0  0  0  0  0  0  0  0  0  0  0
   37.8450   21.2540   30.0980 H   0  0  0  0  0  0  0  0  0  0  0  0
   38.1740   25.4310   36.1290 C   0  0  0  0  0  0  0  0  0  0  0  0
   39.2940   24.6860   36.3250 F   0  0  0  0  0  0  0  0  0  0  0  0
   37.1220   24.7180   36.6950 F   0  0  0  0  0  0  0  0  0  0  0  0
   38.3510   26.6410   36.8070 F   0  0  0  0  0  0  0  0  0  0  0  0
   34.0520   33.5560   38.1050 N   0  0  0  0  0  0  0  0  0  0  0  0
   33.2120   34.1790   38.1430 H   0  0  0  0  0  0  0  0  0  0  0  0
   34.8030   33.8470   38.7450 H   0  0  0  0  0  0  0  0  0  0  0  0
  1 23  1  0  0  0  0
  1  6  1  0  0  0  0
  2  1  2  0  0  0  0
  3  2  1  0  0  0  0
  3  4  2  0  0  0  0
  4  5  1  0  0  0  0
  5  6  2  0  0  0  0
  5 10  1  0  0  0  0
  7  2  1  0  0  0  0
  8  3  1  0  0  0  0
  9  4  1  0  0  0  0
 10 11  1  0  0  0  0
 10 20  1  0  0  0  0
 11 13  2  0  0  0  0
 12 11  1  0  0  0  0
 13 14  1  0  0  0  0
 14 15  1  0  0  0  0
 15 16  2  0  0  0  0
 15 43  1  0  0  0  0
 17 18  1  0  0  0  0
 17 16  1  0  0  0  0
 19 17  2  0  0  0  0
 20 19  1  0  0  0  0
 20 14  2  0  0  0  0
 21 27  1  0  0  0  0
 22 21  1  0  0  0  0
 22 23  2  0  0  0  0
 23 24  1  0  0  0  0
 24 26  1  0  0  0  0
 24 25  2  0  0  0  0
 26 39  1  0  0  0  0
 27 28  2  0  0  0  0
 27 26  1  0  0  0  0
 29 22  1  0  0  0  0
 30 31  1  0  0  0  0
 31 37  1  0  0  0  0
 31 32  2  0  0  0  0
 32 21  1  0  0  0  0
 33 32  1  0  0  0  0
 34 33  2  0  0  0  0
 35 30  2  0  0  0  0
 35 34  1  0  0  0  0
 36 30  1  0  0  0  0
 38 34  1  0  0  0  0
 39 40  1  0  0  0  0
 39 41  1  0  0  0  0
 39 42  1  0  0  0  0
 43 44  1  0  0  0  0
 43 45  1  0  0  0  0
M  END
>  <minimizedAffinity>
-6.52614164

$$$$

 OpenBabel03272505333D

 45 49  0  0  0  0  0  0  0  0999 V2000
   37.5990   26.3520   31.8350 C   0  0  0  0  0  0  0  0  0  0  0  0
   36.8070   27.4090   32.1890 C   0  0  0  0  0  0  0  0  0  0  0  0
   36.8370   28.6500   31.6080 C   0  0  0  0  0  0  0  0  0  0  0  0
   37.7330   28.8860   30.5730 C   0  0  0  0  0  0  0  0  0  0  0  0
   38.5270   27.7930   30.2330 C   0  0  0  0  0  0  0  0  0  0  0  0
   38.4580   26.6000   30.8330 N   0  0  0  0  0  0  0  0  0  0  0  0
   36.0830   27.2920   32.9930 H   0  0  0  0  0  0  0  0  0  0  0  0
   36.2000   29.4720   31.9060 H   0  0  0  0  0  0  0  0  0  0  0  0
   37.8580   29.8000   30.0380 H   0  0  0  0  0  0  0  0  0  0  0  0
   39.5180   27.8390   29.1850 N   0  0  0  0  0  0  0  0  0  0  0  0
   39.3030   27.6010   27.8590 C   0  0  0  0  0  0  0  0  0  0  0  0
   38.3020   27.3490   27.5040 H   0  0  0  0  0  0  0  0  0  0  0  0
   40.4980   27.7480   27.2210 N   0  0  0  0  0  0  0  0  0  0  0  0
   41.4220   28.0700   28.1550 C   0  0  0  0  0  0  0  0  0  0  0  0
   42.7730   28.3300   28.0680 C   0  0  0  0  0  0  0  0  0  0  0  0
   43.4850   28.6360   29.1900 N   0  0  0  0  0  0  0  0  0  0  0  0
   42.8810   28.6910   30.3970 C   0  0  0  0  0  0  0  0  0  0  0  0
   43.3920   28.9300   31.3250 H   0  0  0  0  0  0  0  0  0  0  0  0
   41.5480   28.4350   30.4810 N   0  0  0  0  0  0  0  0  0  0  0  0
   40.8140   28.1310   29.3980 C   0  0  0  0  0  0  0  0  0  0  0  0
   38.0910   23.5060   34.2330 N   0  0  0  0  0  0  0  0  0  0  0  0
   38.1760   24.7480   33.6750 C   0  0  0  0  0  0  0  0  0  0  0  0
   37.5420   25.0470   32.4730 C   0  0  0  0  0  0  0  0  0  0  0  0
   36.8120   24.0320   31.8500 C   0  0  0  0  0  0  0  0  0  0  0  0
   36.2310   24.2650   30.7710 O   0  0  0  0  0  0  0  0  0  0  0  0
   36.7340   22.7860   32.4180 N   0  0  0  0  0  0  0  0  0  0  0  0
   37.3790   22.6160   33.5690 C   0  0  0  0  0  0  0  0  0  0  0  0
   37.2830   21.4670   34.0560 O   0  0  0  0  0  0  0  0  0  0  0  0
   38.7400   25.5490   34.1470 H   0  0  0  0  0  0  0  0  0  0  0  0
   38.8090   23.2760   37.8750 C   0  0  0  0  0  0  0  0  0  0  0  0
   38.1690   23.5670   36.6600 C   0  0  0  0  0  0  0  0  0  0  0  0
   38.7320   23.2140   35.4430 C   0  0  0  0  0  0  0  0  0  0  0  0
   39.9200   22.5780   35.4740 N   0  0  0  0  0  0  0  0  0  0  0  0
   40.5670   22.2800   36.6390 C   0  0  0  0  0  0  0  0  0  0  0  0
   39.9910   22.6400   37.8310 N   0  0  0  0  0  0  0  0  0  0  0  0
   38.3110   23.5810   38.7800 H   0  0  0  0  0  0  0  0  0  0  0  0
   37.2100   24.0790   36.5980 H   0  0  0  0  0  0  0  0  0  0  0  0
   41.5170   21.7690   36.6010 H   0  0  0  0  0  0  0  0  0  0  0  0
   35.9780   21.7470   31.7680 C   0  0  0  0  0  0  0  0  0  0  0  0
   35.2780   22.2450   30.7140 F   0  0  0  0  0  0  0  0  0  0  0  0
   35.0500   21.1360   32.6050 F   0  0  0  0  0  0  0  0  0  0  0  0
   36.8700   20.7950   31.2670 F   0  0  0  0  0  0  0  0  0  0  0  0
   43.3970   28.2690   26.7990 N   0  0  0  0  0  0  0  0  0  0  0  0
   43.8930   29.1740   26.6250 H   0  0  0  0  0  0  0  0  0  0  0  0
   43.4940   27.5990   26.0240 H   0  0  0  0  0  0  0  0  0  0  0  0
  1  2  1  0  0  0  0
  1 23  1  0  0  0  0
  2  7  1  0  0  0  0
  3  8  1  0  0  0  0
  3  2  2  0  0  0  0
  4  3  1  0  0  0  0
  5  4  2  0  0  0  0
  5  6  1  0  0  0  0
  6  1  2  0  0  0  0
  9  4  1  0  0  0  0
 10 20  1  0  0  0  0
 10  5  1  0  0  0  0
 11 10  1  0  0  0  0
 12 11  1  0  0  0  0
 13 11  2  0  0  0  0
 13 14  1  0  0  0  0
 14 20  1  0  0  0  0
 15 14  2  0  0  0  0
 15 16  1  0  0  0  0
 16 17  2  0  0  0  0
 17 19  1  0  0  0  0
 17 18  1  0  0  0  0
 20 19  2  0  0  0  0
 21 32  1  0  0  0  0
 22 29  1  0  0  0  0
 22 21  1  0  0  0  0
 23 22  2  0  0  0  0
 24 26  1  0  0  0  0
 24 23  1  0  0  0  0
 25 24  2  0  0  0  0
 26 27  1  0  0  0  0
 27 28  2  0  0  0  0
 27 21  1  0  0  0  0
 30 36  1  0  0  0  0
 31 30  2  0  0  0  0
 32 33  2  0  0  0  0
 32 31  1  0  0  0  0
 33 34  1  0  0  0  0
 34 35  2  0  0  0  0
 35 30  1  0  0  0  0
 37 31  1  0  0  0  0
 38 34  1  0  0  0  0
 39 26  1  0  0  0  0
 39 41  1  0  0  0  0
 40 39  1  0  0  0  0
 42 39  1  0  0  0  0
 43 15  1  0  0  0  0
 44 43  1  0  0  0  0
 45 43  1  0  0  0  0
M  END
>  <minimizedAffinity>
-6.519629

$$$$

 OpenBabel03272505333D

 45 49  0  0  0  0  0  0  0  0999 V2000
   35.7300   29.6420   31.8760 C   0  0  0  0  0  0  0  0  0  0  0  0
   36.3320   30.1580   30.7620 C   0  0  0  0  0  0  0  0  0  0  0  0
   36.9060   29.4190   29.7590 C   0  0  0  0  0  0  0  0  0  0  0  0
   36.8930   28.0330   29.8540 C   0  0  0  0  0  0  0  0  0  0  0  0
   36.2740   27.5360   30.9980 C   0  0  0  0  0  0  0  0  0  0  0  0
   35.7280   28.3010   31.9480 N   0  0  0  0  0  0  0  0  0  0  0  0
   36.3760   31.2360   30.6260 H   0  0  0  0  0  0  0  0  0  0  0  0
   37.3770   29.8510   28.8860 H   0  0  0  0  0  0  0  0  0  0  0  0
   37.3030   27.3460   29.1480 H   0  0  0  0  0  0  0  0  0  0  0  0
   36.1600   26.1250   31.2780 N   0  0  0  0  0  0  0  0  0  0  0  0
   35.1660   25.2940   30.8500 C   0  0  0  0  0  0  0  0  0  0  0  0
   34.3540   25.6850   30.2350 H   0  0  0  0  0  0  0  0  0  0  0  0
   35.4400   24.0500   31.3360 N   0  0  0  0  0  0  0  0  0  0  0  0
   36.5870   24.1330   32.0470 C   0  0  0  0  0  0  0  0  0  0  0  0
   37.3130   23.1910   32.7450 C   0  0  0  0  0  0  0  0  0  0  0  0
   38.4590   23.5490   33.3880 N   0  0  0  0  0  0  0  0  0  0  0  0
   38.9020   24.8250   33.3520 C   0  0  0  0  0  0  0  0  0  0  0  0
   39.8070   25.1720   33.8430 H   0  0  0  0  0  0  0  0  0  0  0  0
   38.1850   25.7530   32.6640 N   0  0  0  0  0  0  0  0  0  0  0  0
   37.0510   25.4380   32.0170 C   0  0  0  0  0  0  0  0  0  0  0  0
   35.1140   32.3300   34.4240 N   0  0  0  0  0  0  0  0  0  0  0  0
   35.7190   31.6020   33.4410 C   0  0  0  0  0  0  0  0  0  0  0  0
   35.1300   30.4540   32.9220 C   0  0  0  0  0  0  0  0  0  0  0  0
   33.8920   30.0650   33.4400 C   0  0  0  0  0  0  0  0  0  0  0  0
   33.3340   29.0410   32.9970 O   0  0  0  0  0  0  0  0  0  0  0  0
   33.2910   30.8030   34.4270 N   0  0  0  0  0  0  0  0  0  0  0  0
   33.9480   31.8820   34.8460 C   0  0  0  0  0  0  0  0  0  0  0  0
   33.3680   32.5280   35.7470 O   0  0  0  0  0  0  0  0  0  0  0  0
   36.6830   31.8910   33.0280 H   0  0  0  0  0  0  0  0  0  0  0  0
   37.6860   34.6980   35.6930 C   0  0  0  0  0  0  0  0  0  0  0  0
   37.0800   33.5420   35.1750 C   0  0  0  0  0  0  0  0  0  0  0  0
   35.7150   33.4840   34.9400 C   0  0  0  0  0  0  0  0  0  0  0  0
   34.9920   34.5840   35.2290 N   0  0  0  0  0  0  0  0  0  0  0  0
   35.5520   35.7230   35.7320 C   0  0  0  0  0  0  0  0  0  0  0  0
   36.9050   35.7580   35.9570 N   0  0  0  0  0  0  0  0  0  0  0  0
   38.7510   34.6680   35.8490 H   0  0  0  0  0  0  0  0  0  0  0  0
   37.6340   32.6370   34.9310 H   0  0  0  0  0  0  0  0  0  0  0  0
   34.9210   36.5730   35.9440 H   0  0  0  0  0  0  0  0  0  0  0  0
   32.0150   30.3940   34.9530 C   0  0  0  0  0  0  0  0  0  0  0  0
   32.1470   29.8940   36.2110 F   0  0  0  0  0  0  0  0  0  0  0  0
   31.4000   29.4020   34.1970 F   0  0  0  0  0  0  0  0  0  0  0  0
   31.1860   31.5170   35.0340 F   0  0  0  0  0  0  0  0  0  0  0  0
   36.8410   21.8570   32.7780 N   0  0  0  0  0  0  0  0  0  0  0  0
   37.6040   21.2230   32.4460 H   0  0  0  0  0  0  0  0  0  0  0  0
   35.9790   21.3550   33.0310 H   0  0  0  0  0  0  0  0  0  0  0  0
  1  6  1  0  0  0  0
  1 23  1  0  0  0  0
  2  1  2  0  0  0  0
  3  4  2  0  0  0  0
  3  2  1  0  0  0  0
  4  5  1  0  0  0  0
  5 10  1  0  0  0  0
  5  6  2  0  0  0  0
  7  2  1  0  0  0  0
  8  3  1  0  0  0  0
  9  4  1  0  0  0  0
 10 20  1  0  0  0  0
 11 10  1  0  0  0  0
 11 13  2  0  0  0  0
 12 11  1  0  0  0  0
 13 14  1  0  0  0  0
 14 15  1  0  0  0  0
 15 43  1  0  0  0  0
 15 16  2  0  0  0  0
 17 16  1  0  0  0  0
 17 18  1  0  0  0  0
 19 17  2  0  0  0  0
 20 14  2  0  0  0  0
 20 19  1  0  0  0  0
 21 27  1  0  0  0  0
 21 32  1  0  0  0  0
 22 21  1  0  0  0  0
 23 24  1  0  0  0  0
 23 22  2  0  0  0  0
 24 26  1  0  0  0  0
 25 24  2  0  0  0  0
 26 27  1  0  0  0  0
 26 39  1  0  0  0  0
 27 28  2  0  0  0  0
 29 22  1  0  0  0  0
 30 36  1  0  0  0  0
 30 35  1  0  0  0  0
 31 30  2  0  0  0  0
 32 31  1  0  0  0  0
 32 33  2  0  0  0  0
 33 34  1  0  0  0  0
 34 38  1  0  0  0  0
 34 35  2  0  0  0  0
 37 31  1  0  0  0  0
 39 42  1  0  0  0  0
 39 40  1  0  0  0  0
 41 39  1  0  0  0  0
 43 45  1  0  0  0  0
 44 43  1  0  0  0  0
M  END
>  <minimizedAffinity>
-6.44411325

$$$$
