
 OpenBabel03272506333D

 24 26  0  0  0  0  0  0  0  0999 V2000
   37.2680   29.8740   51.2600 C   0  0  0  0  0  0  0  0  0  0  0  0
   37.7860   30.8880   50.4450 C   0  0  0  0  0  0  0  0  0  0  0  0
   37.0370   31.3400   49.3610 C   0  0  0  0  0  0  0  0  0  0  0  0
   35.8230   30.7690   49.1440 N   0  0  0  0  0  0  0  0  0  0  0  0
   35.3390   29.7820   49.9510 C   0  0  0  0  0  0  0  0  0  0  0  0
   36.0480   29.3470   50.9860 N   0  0  0  0  0  0  0  0  0  0  0  0
   38.7590   31.3590   50.6050 H   0  0  0  0  0  0  0  0  0  0  0  0
   37.3810   32.1150   48.7000 H   0  0  0  0  0  0  0  0  0  0  0  0
   34.0690   29.1760   49.7340 N   0  0  0  0  0  0  0  0  0  0  0  0
   32.9510   29.5040   50.4400 C   0  0  0  0  0  0  0  0  0  0  0  0
   32.8290   30.2370   51.2420 H   0  0  0  0  0  0  0  0  0  0  0  0
   31.8760   28.7690   50.0280 N   0  0  0  0  0  0  0  0  0  0  0  0
   32.3200   27.9550   49.0350 C   0  0  0  0  0  0  0  0  0  0  0  0
   31.7790   26.9820   48.2000 C   0  0  0  0  0  0  0  0  0  0  0  0
   32.5570   26.3730   47.3130 N   0  0  0  0  0  0  0  0  0  0  0  0
   33.8710   26.6660   47.1890 C   0  0  0  0  0  0  0  0  0  0  0  0
   34.4780   26.1420   46.4460 H   0  0  0  0  0  0  0  0  0  0  0  0
   34.4810   27.6040   47.9660 N   0  0  0  0  0  0  0  0  0  0  0  0
   33.6760   28.2160   48.8640 C   0  0  0  0  0  0  0  0  0  0  0  0
   30.4170   26.6820   48.3330 N   0  0  0  0  0  0  0  0  0  0  0  0
   29.9070   26.0860   47.6340 H   0  0  0  0  0  0  0  0  0  0  0  0
   29.8260   27.0230   49.1160 H   0  0  0  0  0  0  0  0  0  0  0  0
   38.1210   29.5310   52.2920 O   0  0  0  0  0  0  0  0  0  0  0  0
   37.9540   28.7870   52.9510 H   0  0  0  0  0  0  0  0  0  0  0  0
  1 23  1  0  0  0  0
  2  7  1  0  0  0  0
  2  1  2  0  0  0  0
  3  2  1  0  0  0  0
  4  3  2  0  0  0  0
  4  5  1  0  0  0  0
  5  6  2  0  0  0  0
  6  1  1  0  0  0  0
  8  3  1  0  0  0  0
  9  5  1  0  0  0  0
  9 10  1  0  0  0  0
 10 11  1  0  0  0  0
 12 10  2  0  0  0  0
 13 12  1  0  0  0  0
 14 20  1  0  0  0  0
 14 13  2  0  0  0  0
 15 14  1  0  0  0  0
 16 15  2  0  0  0  0
 16 18  1  0  0  0  0
 17 16  1  0  0  0  0
 18 19  2  0  0  0  0
 19 13  1  0  0  0  0
 19  9  1  0  0  0  0
 20 22  1  0  0  0  0
 21 20  1  0  0  0  0
 23 24  1  0  0  0  0
M  END
>  <minimizedAffinity>
-3.90429926

>  <minimizedRMSD>
0.414546162

$$$$
