
 OpenBabel03272505293D

 45 49  0  0  0  0  0  0  0  0999 V2000
   36.4450   31.2640   43.4850 C   0  0  0  0  0  0  0  0  0  0  0  0
   36.6360   30.1720   42.6860 C   0  0  0  0  0  0  0  0  0  0  0  0
   36.0190   29.9550   41.4800 C   0  0  0  0  0  0  0  0  0  0  0  0
   35.1210   30.9030   41.0050 C   0  0  0  0  0  0  0  0  0  0  0  0
   34.9450   32.0040   41.8390 C   0  0  0  0  0  0  0  0  0  0  0  0
   35.5730   32.1680   43.0080 N   0  0  0  0  0  0  0  0  0  0  0  0
   37.3270   29.3920   42.9980 H   0  0  0  0  0  0  0  0  0  0  0  0
   36.1870   29.0810   40.8640 H   0  0  0  0  0  0  0  0  0  0  0  0
   34.5770   30.8570   40.0890 H   0  0  0  0  0  0  0  0  0  0  0  0
   34.0550   33.0940   41.5210 N   0  0  0  0  0  0  0  0  0  0  0  0
   34.0730   34.3400   42.0760 C   0  0  0  0  0  0  0  0  0  0  0  0
   34.8130   34.5890   42.8380 H   0  0  0  0  0  0  0  0  0  0  0  0
   33.0690   35.0570   41.4950 N   0  0  0  0  0  0  0  0  0  0  0  0
   32.4550   34.2490   40.6020 C   0  0  0  0  0  0  0  0  0  0  0  0
   31.3910   34.4530   39.7480 C   0  0  0  0  0  0  0  0  0  0  0  0
   30.9640   33.4470   38.9340 N   0  0  0  0  0  0  0  0  0  0  0  0
   31.5710   32.2400   38.9500 C   0  0  0  0  0  0  0  0  0  0  0  0
   31.2770   31.4000   38.3280 H   0  0  0  0  0  0  0  0  0  0  0  0
   32.6190   32.0400   39.7930 N   0  0  0  0  0  0  0  0  0  0  0  0
   33.0680   33.0080   40.6090 C   0  0  0  0  0  0  0  0  0  0  0  0
   37.3340   31.1390   47.1300 N   0  0  0  0  0  0  0  0  0  0  0  0
   36.6670   30.9220   45.9600 C   0  0  0  0  0  0  0  0  0  0  0  0
   37.1150   31.4630   44.7590 C   0  0  0  0  0  0  0  0  0  0  0  0
   38.2750   32.2420   44.7880 C   0  0  0  0  0  0  0  0  0  0  0  0
   38.7060   32.7430   43.7290 O   0  0  0  0  0  0  0  0  0  0  0  0
   38.9380   32.4540   45.9690 N   0  0  0  0  0  0  0  0  0  0  0  0
   38.4170   31.8860   47.0530 C   0  0  0  0  0  0  0  0  0  0  0  0
   39.0500   32.1030   48.1100 O   0  0  0  0  0  0  0  0  0  0  0  0
   35.7620   30.3180   45.9200 H   0  0  0  0  0  0  0  0  0  0  0  0
   37.2820   29.3930   50.4140 C   0  0  0  0  0  0  0  0  0  0  0  0
   37.7380   29.9460   49.2070 C   0  0  0  0  0  0  0  0  0  0  0  0
   36.8750   30.5890   48.3330 C   0  0  0  0  0  0  0  0  0  0  0  0
   35.5780   30.6640   48.6920 N   0  0  0  0  0  0  0  0  0  0  0  0
   35.1040   30.1390   49.8580 C   0  0  0  0  0  0  0  0  0  0  0  0
   35.9760   29.5050   50.7070 N   0  0  0  0  0  0  0  0  0  0  0  0
   38.0110   28.9090   51.0410 H   0  0  0  0  0  0  0  0  0  0  0  0
   38.7780   29.9030   48.8870 H   0  0  0  0  0  0  0  0  0  0  0  0
   34.0540   30.2300   50.0920 H   0  0  0  0  0  0  0  0  0  0  0  0
   40.1330   33.2570   45.9870 C   0  0  0  0  0  0  0  0  0  0  0  0
   40.0710   34.2380   45.0470 F   0  0  0  0  0  0  0  0  0  0  0  0
   41.2890   32.5300   45.7220 F   0  0  0  0  0  0  0  0  0  0  0  0
   40.2340   33.8780   47.2350 F   0  0  0  0  0  0  0  0  0  0  0  0
   30.7620   35.7210   39.7370 N   0  0  0  0  0  0  0  0  0  0  0  0
   30.7550   36.0860   38.7570 H   0  0  0  0  0  0  0  0  0  0  0  0
   30.3220   36.3640   40.4110 H   0  0  0  0  0  0  0  0  0  0  0  0
  1 23  1  0  0  0  0
  2  7  1  0  0  0  0
  2  1  2  0  0  0  0
  3  2  1  0  0  0  0
  4  3  2  0  0  0  0
  4  5  1  0  0  0  0
  5  6  2  0  0  0  0
  6  1  1  0  0  0  0
  8  3  1  0  0  0  0
  9  4  1  0  0  0  0
 10  5  1  0  0  0  0
 10 11  1  0  0  0  0
 11 12  1  0  0  0  0
 13 11  2  0  0  0  0
 14 20  1  0  0  0  0
 14 13  1  0  0  0  0
 15 14  2  0  0  0  0
 16 17  2  0  0  0  0
 16 15  1  0  0  0  0
 17 19  1  0  0  0  0
 18 17  1  0  0  0  0
 19 20  2  0  0  0  0
 20 10  1  0  0  0  0
 21 32  1  0  0  0  0
 22 21  1  0  0  0  0
 23 24  1  0  0  0  0
 23 22  2  0  0  0  0
 24 26  1  0  0  0  0
 25 24  2  0  0  0  0
 26 39  1  0  0  0  0
 26 27  1  0  0  0  0
 27 21  1  0  0  0  0
 27 28  2  0  0  0  0
 29 22  1  0  0  0  0
 30 35  1  0  0  0  0
 30 36  1  0  0  0  0
 31 30  2  0  0  0  0
 32 33  2  0  0  0  0
 32 31  1  0  0  0  0
 33 34  1  0  0  0  0
 34 38  1  0  0  0  0
 34 35  2  0  0  0  0
 37 31  1  0  0  0  0
 39 42  1  0  0  0  0
 40 39  1  0  0  0  0
 41 39  1  0  0  0  0
 43 15  1  0  0  0  0
 43 45  1  0  0  0  0
 44 43  1  0  0  0  0
M  END
>  <minimizedAffinity>
-6.91800737

>  <minimizedRMSD>
0.657721996

$$$$
