
 OpenBabel03272506333D

 24 26  0  0  0  0  0  0  0  0999 V2000
   37.4130   29.3640   50.4790 C   0  0  0  0  0  0  0  0  0  0  0  0
   37.6500   30.7050   50.8070 C   0  0  0  0  0  0  0  0  0  0  0  0
   36.9840   31.7060   50.1020 C   0  0  0  0  0  0  0  0  0  0  0  0
   36.1250   31.3300   49.1200 N   0  0  0  0  0  0  0  0  0  0  0  0
   35.9100   30.0180   48.8180 C   0  0  0  0  0  0  0  0  0  0  0  0
   36.5410   29.0580   49.4850 N   0  0  0  0  0  0  0  0  0  0  0  0
   38.3370   31.0260   51.5930 H   0  0  0  0  0  0  0  0  0  0  0  0
   37.1260   32.7530   50.3080 H   0  0  0  0  0  0  0  0  0  0  0  0
   35.0120   29.6100   47.7910 N   0  0  0  0  0  0  0  0  0  0  0  0
   35.2010   29.8960   46.4720 C   0  0  0  0  0  0  0  0  0  0  0  0
   36.0140   30.4500   45.9950 H   0  0  0  0  0  0  0  0  0  0  0  0
   34.1920   29.3870   45.7090 N   0  0  0  0  0  0  0  0  0  0  0  0
   33.3380   28.7600   46.5600 C   0  0  0  0  0  0  0  0  0  0  0  0
   32.1440   28.0510   46.4640 C   0  0  0  0  0  0  0  0  0  0  0  0
   31.5800   27.5660   47.5640 N   0  0  0  0  0  0  0  0  0  0  0  0
   32.1280   27.7380   48.7890 C   0  0  0  0  0  0  0  0  0  0  0  0
   31.6320   27.3230   49.6700 H   0  0  0  0  0  0  0  0  0  0  0  0
   33.2940   28.4180   48.9710 N   0  0  0  0  0  0  0  0  0  0  0  0
   33.8580   28.9060   47.8440 C   0  0  0  0  0  0  0  0  0  0  0  0
   31.5810   27.8780   45.1940 N   0  0  0  0  0  0  0  0  0  0  0  0
   30.7780   27.2200   45.0270 H   0  0  0  0  0  0  0  0  0  0  0  0
   31.9100   28.3740   44.3450 H   0  0  0  0  0  0  0  0  0  0  0  0
   38.1420   28.4880   51.2590 O   0  0  0  0  0  0  0  0  0  0  0  0
   38.1520   27.4860   51.1420 H   0  0  0  0  0  0  0  0  0  0  0  0
  1  2  1  0  0  0  0
  1 23  1  0  0  0  0
  2  7  1  0  0  0  0
  3  8  1  0  0  0  0
  3  2  2  0  0  0  0
  4  3  1  0  0  0  0
  5  4  2  0  0  0  0
  5  6  1  0  0  0  0
  6  1  2  0  0  0  0
  9 19  1  0  0  0  0
  9  5  1  0  0  0  0
 10  9  1  0  0  0  0
 11 10  1  0  0  0  0
 12 10  2  0  0  0  0
 12 13  1  0  0  0  0
 13 19  1  0  0  0  0
 14 13  2  0  0  0  0
 14 15  1  0  0  0  0
 15 16  2  0  0  0  0
 16 18  1  0  0  0  0
 16 17  1  0  0  0  0
 19 18  2  0  0  0  0
 20 14  1  0  0  0  0
 21 20  1  0  0  0  0
 22 20  1  0  0  0  0
 24 23  1  0  0  0  0
M  END
>  <minimizedAffinity>
-5.00832319

>  <minimizedRMSD>
2.88150787

$$$$
