
 OpenBabel03272506333D

 24 26  0  0  0  0  0  0  0  0999 V2000
   37.0550   29.4640   50.9750 C   0  0  0  0  0  0  0  0  0  0  0  0
   37.3910   30.7480   50.5250 C   0  0  0  0  0  0  0  0  0  0  0  0
   36.4940   31.4410   49.7140 C   0  0  0  0  0  0  0  0  0  0  0  0
   35.3220   30.8320   49.3950 N   0  0  0  0  0  0  0  0  0  0  0  0
   35.0170   29.5810   49.8440 C   0  0  0  0  0  0  0  0  0  0  0  0
   35.8680   28.9150   50.6170 N   0  0  0  0  0  0  0  0  0  0  0  0
   38.3270   31.2530   50.7720 H   0  0  0  0  0  0  0  0  0  0  0  0
   36.6950   32.4280   49.3380 H   0  0  0  0  0  0  0  0  0  0  0  0
   33.7940   28.9320   49.5160 N   0  0  0  0  0  0  0  0  0  0  0  0
   32.6390   29.1080   50.2180 C   0  0  0  0  0  0  0  0  0  0  0  0
   32.4520   29.7340   51.0960 H   0  0  0  0  0  0  0  0  0  0  0  0
   31.6230   28.3670   49.6890 N   0  0  0  0  0  0  0  0  0  0  0  0
   32.1410   27.7020   48.6240 C   0  0  0  0  0  0  0  0  0  0  0  0
   31.6820   26.8040   47.6630 C   0  0  0  0  0  0  0  0  0  0  0  0
   32.5190   26.3510   46.7380 N   0  0  0  0  0  0  0  0  0  0  0  0
   33.8160   26.7330   46.6910 C   0  0  0  0  0  0  0  0  0  0  0  0
   34.4720   26.3360   45.9130 H   0  0  0  0  0  0  0  0  0  0  0  0
   34.3470   27.6070   47.5920 N   0  0  0  0  0  0  0  0  0  0  0  0
   33.4830   28.0600   48.5280 C   0  0  0  0  0  0  0  0  0  0  0  0
   30.3380   26.4140   47.7160 N   0  0  0  0  0  0  0  0  0  0  0  0
   29.8850   25.8740   46.9360 H   0  0  0  0  0  0  0  0  0  0  0  0
   29.7080   26.6240   48.5120 H   0  0  0  0  0  0  0  0  0  0  0  0
   38.0390   28.9030   51.7660 O   0  0  0  0  0  0  0  0  0  0  0  0
   38.0100   27.9670   52.1400 H   0  0  0  0  0  0  0  0  0  0  0  0
  1 23  1  0  0  0  0
  2  7  1  0  0  0  0
  2  1  2  0  0  0  0
  3  2  1  0  0  0  0
  4  3  2  0  0  0  0
  4  5  1  0  0  0  0
  5  6  2  0  0  0  0
  6  1  1  0  0  0  0
  8  3  1  0  0  0  0
  9  5  1  0  0  0  0
  9 10  1  0  0  0  0
 10 11  1  0  0  0  0
 12 10  2  0  0  0  0
 13 12  1  0  0  0  0
 14 20  1  0  0  0  0
 14 13  2  0  0  0  0
 15 14  1  0  0  0  0
 16 15  2  0  0  0  0
 16 18  1  0  0  0  0
 17 16  1  0  0  0  0
 18 19  2  0  0  0  0
 19 13  1  0  0  0  0
 19  9  1  0  0  0  0
 20 22  1  0  0  0  0
 21 20  1  0  0  0  0
 23 24  1  0  0  0  0
M  END
>  <minimizedAffinity>
-3.68103027

>  <minimizedRMSD>
0.868028522

$$$$
