
 OpenBabel03272505293D

 45 49  0  0  0  0  0  0  0  0999 V2000
   36.5280   31.2340   43.3740 C   0  0  0  0  0  0  0  0  0  0  0  0
   36.8390   30.2030   42.5320 C   0  0  0  0  0  0  0  0  0  0  0  0
   36.2580   29.9740   41.3110 C   0  0  0  0  0  0  0  0  0  0  0  0
   35.2680   30.8420   40.8660 C   0  0  0  0  0  0  0  0  0  0  0  0
   34.9710   31.8820   41.7430 C   0  0  0  0  0  0  0  0  0  0  0  0
   35.5690   32.0610   42.9250 N   0  0  0  0  0  0  0  0  0  0  0  0
   37.6060   29.4870   42.8200 H   0  0  0  0  0  0  0  0  0  0  0  0
   36.5210   29.1500   40.6620 H   0  0  0  0  0  0  0  0  0  0  0  0
   34.7380   30.7780   39.9420 H   0  0  0  0  0  0  0  0  0  0  0  0
   33.9730   32.8850   41.4610 N   0  0  0  0  0  0  0  0  0  0  0  0
   33.7650   33.5040   40.2620 C   0  0  0  0  0  0  0  0  0  0  0  0
   34.3860   33.2510   39.4020 H   0  0  0  0  0  0  0  0  0  0  0  0
   32.7320   34.3770   40.4300 N   0  0  0  0  0  0  0  0  0  0  0  0
   32.3250   34.2850   41.7160 C   0  0  0  0  0  0  0  0  0  0  0  0
   31.3310   34.9310   42.4210 C   0  0  0  0  0  0  0  0  0  0  0  0
   31.1280   34.6430   43.7380 N   0  0  0  0  0  0  0  0  0  0  0  0
   31.8910   33.7260   44.3700 C   0  0  0  0  0  0  0  0  0  0  0  0
   31.7780   33.4540   45.4160 H   0  0  0  0  0  0  0  0  0  0  0  0
   32.8700   33.0900   43.6750 N   0  0  0  0  0  0  0  0  0  0  0  0
   33.1010   33.3460   42.3770 C   0  0  0  0  0  0  0  0  0  0  0  0
   37.3270   31.1410   47.0410 N   0  0  0  0  0  0  0  0  0  0  0  0
   36.6920   30.9090   45.8560 C   0  0  0  0  0  0  0  0  0  0  0  0
   37.1650   31.4480   44.6630 C   0  0  0  0  0  0  0  0  0  0  0  0
   38.3160   32.2370   44.7150 C   0  0  0  0  0  0  0  0  0  0  0  0
   38.7690   32.7350   43.6650 O   0  0  0  0  0  0  0  0  0  0  0  0
   38.9470   32.4630   45.9110 N   0  0  0  0  0  0  0  0  0  0  0  0
   38.4050   31.8980   46.9860 C   0  0  0  0  0  0  0  0  0  0  0  0
   39.0090   32.1270   48.0570 O   0  0  0  0  0  0  0  0  0  0  0  0
   35.7940   30.2970   45.7980 H   0  0  0  0  0  0  0  0  0  0  0  0
   37.1960   29.3570   50.3030 C   0  0  0  0  0  0  0  0  0  0  0  0
   37.6780   29.9070   49.1040 C   0  0  0  0  0  0  0  0  0  0  0  0
   36.8430   30.5950   48.2360 C   0  0  0  0  0  0  0  0  0  0  0  0
   35.5490   30.7160   48.5920 N   0  0  0  0  0  0  0  0  0  0  0  0
   35.0510   30.1950   49.7510 C   0  0  0  0  0  0  0  0  0  0  0  0
   35.8950   29.5170   50.5940 N   0  0  0  0  0  0  0  0  0  0  0  0
   37.9040   28.8370   50.9250 H   0  0  0  0  0  0  0  0  0  0  0  0
   38.7160   29.8270   48.7860 H   0  0  0  0  0  0  0  0  0  0  0  0
   34.0040   30.3240   49.9830 H   0  0  0  0  0  0  0  0  0  0  0  0
   40.1340   33.2780   45.9540 C   0  0  0  0  0  0  0  0  0  0  0  0
   40.0700   34.2760   45.0320 F   0  0  0  0  0  0  0  0  0  0  0  0
   41.2990   32.5670   45.6850 F   0  0  0  0  0  0  0  0  0  0  0  0
   40.2180   33.8770   47.2140 F   0  0  0  0  0  0  0  0  0  0  0  0
   30.5360   35.8900   41.7500 N   0  0  0  0  0  0  0  0  0  0  0  0
   29.5290   35.6350   41.8690 H   0  0  0  0  0  0  0  0  0  0  0  0
   30.6740   36.7460   41.1940 H   0  0  0  0  0  0  0  0  0  0  0  0
  1 23  1  0  0  0  0
  2  7  1  0  0  0  0
  2  1  2  0  0  0  0
  3  2  1  0  0  0  0
  4  3  2  0  0  0  0
  4  5  1  0  0  0  0
  5  6  2  0  0  0  0
  6  1  1  0  0  0  0
  8  3  1  0  0  0  0
  9  4  1  0  0  0  0
 10  5  1  0  0  0  0
 10 20  1  0  0  0  0
 11 13  2  0  0  0  0
 11 10  1  0  0  0  0
 12 11  1  0  0  0  0
 13 14  1  0  0  0  0
 14 20  2  0  0  0  0
 14 15  1  0  0  0  0
 15 16  2  0  0  0  0
 16 17  1  0  0  0  0
 17 18  1  0  0  0  0
 19 17  2  0  0  0  0
 20 19  1  0  0  0  0
 21 32  1  0  0  0  0
 22 21  1  0  0  0  0
 23 24  1  0  0  0  0
 23 22  2  0  0  0  0
 24 26  1  0  0  0  0
 25 24  2  0  0  0  0
 26 39  1  0  0  0  0
 26 27  1  0  0  0  0
 27 21  1  0  0  0  0
 27 28  2  0  0  0  0
 29 22  1  0  0  0  0
 30 35  1  0  0  0  0
 30 36  1  0  0  0  0
 31 30  2  0  0  0  0
 32 33  2  0  0  0  0
 32 31  1  0  0  0  0
 33 34  1  0  0  0  0
 34 38  1  0  0  0  0
 34 35  2  0  0  0  0
 37 31  1  0  0  0  0
 39 42  1  0  0  0  0
 40 39  1  0  0  0  0
 41 39  1  0  0  0  0
 43 44  1  0  0  0  0
 43 15  1  0  0  0  0
 45 43  1  0  0  0  0
M  END
>  <minimizedAffinity>
-7.8060708

>  <minimizedRMSD>
0.427880257

$$$$
