
 OpenBabel03272505293D

 45 49  0  0  0  0  0  0  0  0999 V2000
   36.4640   31.2650   43.4800 C   0  0  0  0  0  0  0  0  0  0  0  0
   36.6120   30.1440   42.7110 C   0  0  0  0  0  0  0  0  0  0  0  0
   35.9980   29.9240   41.5050 C   0  0  0  0  0  0  0  0  0  0  0  0
   35.1500   30.9000   40.9960 C   0  0  0  0  0  0  0  0  0  0  0  0
   35.0180   32.0300   41.7990 C   0  0  0  0  0  0  0  0  0  0  0  0
   35.6400   32.1950   42.9700 N   0  0  0  0  0  0  0  0  0  0  0  0
   37.2630   29.3410   43.0510 H   0  0  0  0  0  0  0  0  0  0  0  0
   36.1310   29.0280   40.9140 H   0  0  0  0  0  0  0  0  0  0  0  0
   34.6130   30.8550   40.0750 H   0  0  0  0  0  0  0  0  0  0  0  0
   34.1820   33.1510   41.4430 N   0  0  0  0  0  0  0  0  0  0  0  0
   34.5380   34.4690   41.4770 C   0  0  0  0  0  0  0  0  0  0  0  0
   35.5420   34.7550   41.7960 H   0  0  0  0  0  0  0  0  0  0  0  0
   33.4590   35.1910   41.0650 N   0  0  0  0  0  0  0  0  0  0  0  0
   32.4660   34.3180   40.7860 C   0  0  0  0  0  0  0  0  0  0  0  0
   31.1740   34.4990   40.3380 C   0  0  0  0  0  0  0  0  0  0  0  0
   30.3630   33.4230   40.1360 N   0  0  0  0  0  0  0  0  0  0  0  0
   30.8080   32.1690   40.3680 C   0  0  0  0  0  0  0  0  0  0  0  0
   30.2110   31.2730   40.2260 H   0  0  0  0  0  0  0  0  0  0  0  0
   32.0800   31.9920   40.8090 N   0  0  0  0  0  0  0  0  0  0  0  0
   32.9100   33.0270   41.0210 C   0  0  0  0  0  0  0  0  0  0  0  0
   37.3420   31.1450   47.1280 N   0  0  0  0  0  0  0  0  0  0  0  0
   36.6790   30.9260   45.9560 C   0  0  0  0  0  0  0  0  0  0  0  0
   37.1310   31.4660   44.7560 C   0  0  0  0  0  0  0  0  0  0  0  0
   38.2900   32.2460   44.7870 C   0  0  0  0  0  0  0  0  0  0  0  0
   38.7230   32.7460   43.7290 O   0  0  0  0  0  0  0  0  0  0  0  0
   38.9490   32.4600   45.9700 N   0  0  0  0  0  0  0  0  0  0  0  0
   38.4260   31.8930   47.0530 C   0  0  0  0  0  0  0  0  0  0  0  0
   39.0550   32.1120   48.1120 O   0  0  0  0  0  0  0  0  0  0  0  0
   35.7760   30.3220   45.9140 H   0  0  0  0  0  0  0  0  0  0  0  0
   37.2820   29.4010   50.4130 C   0  0  0  0  0  0  0  0  0  0  0  0
   37.7410   29.9530   49.2060 C   0  0  0  0  0  0  0  0  0  0  0  0
   36.8810   30.5970   48.3300 C   0  0  0  0  0  0  0  0  0  0  0  0
   35.5830   30.6730   48.6860 N   0  0  0  0  0  0  0  0  0  0  0  0
   35.1050   30.1480   49.8520 C   0  0  0  0  0  0  0  0  0  0  0  0
   35.9760   29.5150   50.7030 N   0  0  0  0  0  0  0  0  0  0  0  0
   38.0090   28.9160   51.0410 H   0  0  0  0  0  0  0  0  0  0  0  0
   38.7820   29.9090   48.8880 H   0  0  0  0  0  0  0  0  0  0  0  0
   34.0550   30.2400   50.0830 H   0  0  0  0  0  0  0  0  0  0  0  0
   40.1430   33.2640   45.9900 C   0  0  0  0  0  0  0  0  0  0  0  0
   40.0830   34.2450   45.0500 F   0  0  0  0  0  0  0  0  0  0  0  0
   41.3000   32.5380   45.7280 F   0  0  0  0  0  0  0  0  0  0  0  0
   40.2400   33.8860   47.2390 F   0  0  0  0  0  0  0  0  0  0  0  0
   30.7160   35.8170   40.0970 N   0  0  0  0  0  0  0  0  0  0  0  0
   30.3520   35.8730   39.1170 H   0  0  0  0  0  0  0  0  0  0  0  0
   30.6460   36.7090   40.6060 H   0  0  0  0  0  0  0  0  0  0  0  0
  1 23  1  0  0  0  0
  2  7  1  0  0  0  0
  2  1  2  0  0  0  0
  3  2  1  0  0  0  0
  4  3  2  0  0  0  0
  4  5  1  0  0  0  0
  5  6  2  0  0  0  0
  6  1  1  0  0  0  0
  8  3  1  0  0  0  0
  9  4  1  0  0  0  0
 10 11  1  0  0  0  0
 10  5  1  0  0  0  0
 11 12  1  0  0  0  0
 13 11  2  0  0  0  0
 14 20  1  0  0  0  0
 14 13  1  0  0  0  0
 15 14  2  0  0  0  0
 16 15  1  0  0  0  0
 16 17  2  0  0  0  0
 17 19  1  0  0  0  0
 18 17  1  0  0  0  0
 19 20  2  0  0  0  0
 20 10  1  0  0  0  0
 21 32  1  0  0  0  0
 22 21  1  0  0  0  0
 23 24  1  0  0  0  0
 23 22  2  0  0  0  0
 24 26  1  0  0  0  0
 25 24  2  0  0  0  0
 26 39  1  0  0  0  0
 26 27  1  0  0  0  0
 27 21  1  0  0  0  0
 27 28  2  0  0  0  0
 29 22  1  0  0  0  0
 30 35  1  0  0  0  0
 30 36  1  0  0  0  0
 31 30  2  0  0  0  0
 32 33  2  0  0  0  0
 32 31  1  0  0  0  0
 33 34  1  0  0  0  0
 34 38  1  0  0  0  0
 34 35  2  0  0  0  0
 37 31  1  0  0  0  0
 39 42  1  0  0  0  0
 40 39  1  0  0  0  0
 41 39  1  0  0  0  0
 43 15  1  0  0  0  0
 43 45  1  0  0  0  0
 44 43  1  0  0  0  0
M  END
>  <minimizedAffinity>
-7.01767778

>  <minimizedRMSD>
0.722984612

$$$$
