
 OpenBabel03272505283D

 45 49  0  0  0  0  0  0  0  0999 V2000
   36.4090   31.4270   43.4230 C   0  0  0  0  0  0  0  0  0  0  0  0
   36.5520   30.3390   42.6080 C   0  0  0  0  0  0  0  0  0  0  0  0
   35.8960   30.1490   41.4190 C   0  0  0  0  0  0  0  0  0  0  0  0
   35.0070   31.1230   40.9790 C   0  0  0  0  0  0  0  0  0  0  0  0
   34.8810   32.2190   41.8290 C   0  0  0  0  0  0  0  0  0  0  0  0
   35.5450   32.3560   42.9810 N   0  0  0  0  0  0  0  0  0  0  0  0
   37.2330   29.5400   42.8920 H   0  0  0  0  0  0  0  0  0  0  0  0
   36.0260   29.2790   40.7900 H   0  0  0  0  0  0  0  0  0  0  0  0
   34.4350   31.0990   40.0790 H   0  0  0  0  0  0  0  0  0  0  0  0
   34.0070   33.3330   41.5480 N   0  0  0  0  0  0  0  0  0  0  0  0
   34.2270   34.6370   41.8820 C   0  0  0  0  0  0  0  0  0  0  0  0
   35.1370   34.9190   42.4160 H   0  0  0  0  0  0  0  0  0  0  0  0
   33.1610   35.3560   41.4330 N   0  0  0  0  0  0  0  0  0  0  0  0
   32.3100   34.4930   40.8340 C   0  0  0  0  0  0  0  0  0  0  0  0
   31.0910   34.6750   40.2130 C   0  0  0  0  0  0  0  0  0  0  0  0
   30.4280   33.6100   39.6810 N   0  0  0  0  0  0  0  0  0  0  0  0
   30.9490   32.3660   39.7530 C   0  0  0  0  0  0  0  0  0  0  0  0
   30.4700   31.4790   39.3490 H   0  0  0  0  0  0  0  0  0  0  0  0
   32.1500   32.1870   40.3640 N   0  0  0  0  0  0  0  0  0  0  0  0
   32.8330   33.2130   40.9010 C   0  0  0  0  0  0  0  0  0  0  0  0
   37.4000   31.2410   47.0390 N   0  0  0  0  0  0  0  0  0  0  0  0
   36.6960   31.0510   45.8870 C   0  0  0  0  0  0  0  0  0  0  0  0
   37.1200   31.5970   44.6800 C   0  0  0  0  0  0  0  0  0  0  0  0
   38.2970   32.3500   44.6830 C   0  0  0  0  0  0  0  0  0  0  0  0
   38.7080   32.8540   43.6180 O   0  0  0  0  0  0  0  0  0  0  0  0
   38.9990   32.5350   45.8460 N   0  0  0  0  0  0  0  0  0  0  0  0
   38.4970   31.9660   46.9390 C   0  0  0  0  0  0  0  0  0  0  0  0
   39.1650   32.1570   47.9800 O   0  0  0  0  0  0  0  0  0  0  0  0
   35.7780   30.4680   45.8670 H   0  0  0  0  0  0  0  0  0  0  0  0
   37.4220   29.5400   50.3470 C   0  0  0  0  0  0  0  0  0  0  0  0
   37.8550   30.0960   49.1330 C   0  0  0  0  0  0  0  0  0  0  0  0
   36.9650   30.6870   48.2490 C   0  0  0  0  0  0  0  0  0  0  0  0
   35.6650   30.7070   48.6050 N   0  0  0  0  0  0  0  0  0  0  0  0
   35.2130   30.1760   49.7780 C   0  0  0  0  0  0  0  0  0  0  0  0
   36.1120   29.5950   50.6370 N   0  0  0  0  0  0  0  0  0  0  0  0
   38.1720   29.0980   50.9820 H   0  0  0  0  0  0  0  0  0  0  0  0
   38.8970   30.0970   48.8150 H   0  0  0  0  0  0  0  0  0  0  0  0
   34.1600   30.2220   50.0090 H   0  0  0  0  0  0  0  0  0  0  0  0
   40.2110   33.3120   45.8380 C   0  0  0  0  0  0  0  0  0  0  0  0
   40.1710   34.2610   44.8650 F   0  0  0  0  0  0  0  0  0  0  0  0
   41.3500   32.5510   45.6000 F   0  0  0  0  0  0  0  0  0  0  0  0
   40.3240   33.9730   47.0640 F   0  0  0  0  0  0  0  0  0  0  0  0
   30.5530   35.9830   40.1430 N   0  0  0  0  0  0  0  0  0  0  0  0
   30.3410   36.2060   39.1440 H   0  0  0  0  0  0  0  0  0  0  0  0
   30.3200   36.7510   40.7880 H   0  0  0  0  0  0  0  0  0  0  0  0
  1 23  1  0  0  0  0
  2  7  1  0  0  0  0
  2  1  2  0  0  0  0
  3  2  1  0  0  0  0
  4  3  2  0  0  0  0
  4  5  1  0  0  0  0
  5  6  2  0  0  0  0
  6  1  1  0  0  0  0
  8  3  1  0  0  0  0
  9  4  1  0  0  0  0
 10  5  1  0  0  0  0
 10 11  1  0  0  0  0
 11 12  1  0  0  0  0
 13 11  2  0  0  0  0
 14 20  1  0  0  0  0
 14 13  1  0  0  0  0
 15 14  2  0  0  0  0
 16 17  2  0  0  0  0
 16 15  1  0  0  0  0
 17 19  1  0  0  0  0
 18 17  1  0  0  0  0
 19 20  2  0  0  0  0
 20 10  1  0  0  0  0
 21 32  1  0  0  0  0
 22 21  1  0  0  0  0
 23 24  1  0  0  0  0
 23 22  2  0  0  0  0
 24 26  1  0  0  0  0
 25 24  2  0  0  0  0
 26 27  1  0  0  0  0
 27 21  1  0  0  0  0
 27 28  2  0  0  0  0
 29 22  1  0  0  0  0
 30 35  1  0  0  0  0
 30 36  1  0  0  0  0
 31 30  2  0  0  0  0
 32 33  2  0  0  0  0
 32 31  1  0  0  0  0
 33 34  1  0  0  0  0
 34 38  1  0  0  0  0
 34 35  2  0  0  0  0
 37 31  1  0  0  0  0
 39 26  1  0  0  0  0
 39 42  1  0  0  0  0
 40 39  1  0  0  0  0
 41 39  1  0  0  0  0
 43 15  1  0  0  0  0
 43 45  1  0  0  0  0
 44 43  1  0  0  0  0
M  END
>  <minimizedAffinity>
-7.00776005

>  <minimizedRMSD>
0.864456236

$$$$
