
 OpenBabel03272505303D

 45 49  0  0  0  0  0  0  0  0999 V2000
   37.0590   30.5160   43.2350 C   0  0  0  0  0  0  0  0  0  0  0  0
   37.5580   29.4180   42.5930 C   0  0  0  0  0  0  0  0  0  0  0  0
   37.1350   28.9520   41.3740 C   0  0  0  0  0  0  0  0  0  0  0  0
   36.1170   29.6290   40.7130 C   0  0  0  0  0  0  0  0  0  0  0  0
   35.6280   30.7440   41.3910 C   0  0  0  0  0  0  0  0  0  0  0  0
   36.0760   31.1560   42.5800 N   0  0  0  0  0  0  0  0  0  0  0  0
   38.3570   28.8420   43.0550 H   0  0  0  0  0  0  0  0  0  0  0  0
   37.5460   28.0790   40.8850 H   0  0  0  0  0  0  0  0  0  0  0  0
   35.6970   29.3750   39.7670 H   0  0  0  0  0  0  0  0  0  0  0  0
   34.5710   31.5760   40.8690 N   0  0  0  0  0  0  0  0  0  0  0  0
   33.8760   31.3720   39.7120 C   0  0  0  0  0  0  0  0  0  0  0  0
   34.1030   30.5090   39.0850 H   0  0  0  0  0  0  0  0  0  0  0  0
   32.9750   32.3870   39.5950 N   0  0  0  0  0  0  0  0  0  0  0  0
   33.1270   33.1940   40.6710 C   0  0  0  0  0  0  0  0  0  0  0  0
   32.4840   34.3510   41.0570 C   0  0  0  0  0  0  0  0  0  0  0  0
   32.8400   34.9780   42.2130 N   0  0  0  0  0  0  0  0  0  0  0  0
   33.8220   34.4800   42.9950 C   0  0  0  0  0  0  0  0  0  0  0  0
   34.1510   34.9320   43.9260 H   0  0  0  0  0  0  0  0  0  0  0  0
   34.4540   33.3380   42.6140 N   0  0  0  0  0  0  0  0  0  0  0  0
   34.1310   32.6920   41.4810 C   0  0  0  0  0  0  0  0  0  0  0  0
   37.4570   31.0540   46.9290 N   0  0  0  0  0  0  0  0  0  0  0  0
   36.9770   30.5860   45.7410 C   0  0  0  0  0  0  0  0  0  0  0  0
   37.5310   30.9830   44.5280 C   0  0  0  0  0  0  0  0  0  0  0  0
   38.6000   31.8820   44.5630 C   0  0  0  0  0  0  0  0  0  0  0  0
   39.1220   32.2590   43.4940 O   0  0  0  0  0  0  0  0  0  0  0  0
   39.0760   32.3460   45.7620 N   0  0  0  0  0  0  0  0  0  0  0  0
   38.4690   31.8970   46.8570 C   0  0  0  0  0  0  0  0  0  0  0  0
   38.9310   32.3440   47.9300 O   0  0  0  0  0  0  0  0  0  0  0  0
   36.1450   29.8860   45.6960 H   0  0  0  0  0  0  0  0  0  0  0  0
   37.1030   29.6610   50.3600 C   0  0  0  0  0  0  0  0  0  0  0  0
   37.6650   30.0690   49.1400 C   0  0  0  0  0  0  0  0  0  0  0  0
   36.8930   30.6490   48.1440 C   0  0  0  0  0  0  0  0  0  0  0  0
   35.5790   30.8050   48.3970 N   0  0  0  0  0  0  0  0  0  0  0  0
   35.0020   30.4200   49.5730 C   0  0  0  0  0  0  0  0  0  0  0  0
   35.7860   29.8480   50.5430 N   0  0  0  0  0  0  0  0  0  0  0  0
   37.7660   29.2190   51.0840 H   0  0  0  0  0  0  0  0  0  0  0  0
   38.7230   29.9570   48.9030 H   0  0  0  0  0  0  0  0  0  0  0  0
   33.9430   30.5710   49.7180 H   0  0  0  0  0  0  0  0  0  0  0  0
   40.1790   33.2710   45.7860 C   0  0  0  0  0  0  0  0  0  0  0  0
   40.0140   34.2460   44.8530 F   0  0  0  0  0  0  0  0  0  0  0  0
   41.4060   32.6720   45.5190 F   0  0  0  0  0  0  0  0  0  0  0  0
   40.2130   33.8920   47.0390 F   0  0  0  0  0  0  0  0  0  0  0  0
   31.4570   34.8670   40.2300 N   0  0  0  0  0  0  0  0  0  0  0  0
   30.5920   34.9880   40.8060 H   0  0  0  0  0  0  0  0  0  0  0  0
   31.3320   35.1460   39.2470 H   0  0  0  0  0  0  0  0  0  0  0  0
  1 23  1  0  0  0  0
  2  7  1  0  0  0  0
  2  1  1  0  0  0  0
  3  2  2  0  0  0  0
  4  3  1  0  0  0  0
  4  5  2  0  0  0  0
  5  6  1  0  0  0  0
  6  1  2  0  0  0  0
  8  3  1  0  0  0  0
  9  4  1  0  0  0  0
 10  5  1  0  0  0  0
 10 20  1  0  0  0  0
 11 10  1  0  0  0  0
 12 11  1  0  0  0  0
 13 11  2  0  0  0  0
 13 14  1  0  0  0  0
 14 15  2  0  0  0  0
 14 20  1  0  0  0  0
 15 16  1  0  0  0  0
 16 17  2  0  0  0  0
 17 18  1  0  0  0  0
 19 17  1  0  0  0  0
 20 19  2  0  0  0  0
 21 32  1  0  0  0  0
 22 21  1  0  0  0  0
 23 24  1  0  0  0  0
 23 22  2  0  0  0  0
 24 26  1  0  0  0  0
 25 24  2  0  0  0  0
 26 39  1  0  0  0  0
 26 27  1  0  0  0  0
 27 21  1  0  0  0  0
 27 28  2  0  0  0  0
 29 22  1  0  0  0  0
 30 35  1  0  0  0  0
 30 36  1  0  0  0  0
 31 30  2  0  0  0  0
 32 33  2  0  0  0  0
 32 31  1  0  0  0  0
 33 34  1  0  0  0  0
 34 38  1  0  0  0  0
 34 35  2  0  0  0  0
 37 31  1  0  0  0  0
 39 42  1  0  0  0  0
 40 39  1  0  0  0  0
 41 39  1  0  0  0  0
 43 44  1  0  0  0  0
 43 15  1  0  0  0  0
 45 43  1  0  0  0  0
M  END
>  <minimizedAffinity>
-7.12765121

>  <minimizedRMSD>
0.71257174

$$$$
