
 OpenBabel03272501243D

 45 49  0  0  0  0  0  0  0  0999 V2000
   39.4280   26.8450   34.2060 Cl  0  0  0  0  0  0  0  0  0  0  0  0
   38.2140   26.0150   33.2810 C   0  0  0  0  0  0  0  0  0  0  0  0
   37.4040   26.8250   32.4770 C   0  0  0  0  0  0  0  0  0  0  0  0
   36.4250   26.1830   31.7280 C   0  0  0  0  0  0  0  0  0  0  0  0
   36.2280   24.8280   31.7460 C   0  0  0  0  0  0  0  0  0  0  0  0
   37.0360   24.0390   32.5440 C   0  0  0  0  0  0  0  0  0  0  0  0
   38.0130   24.6580   33.2950 C   0  0  0  0  0  0  0  0  0  0  0  0
   35.7470   26.7230   31.0750 H   0  0  0  0  0  0  0  0  0  0  0  0
   35.4610   24.3330   31.1570 H   0  0  0  0  0  0  0  0  0  0  0  0
   36.9340   22.9790   32.6010 H   0  0  0  0  0  0  0  0  0  0  0  0
   38.8580   23.8600   34.1260 N   0  0  0  0  0  0  0  0  0  0  0  0
   39.9270   23.1030   33.7700 C   0  0  0  0  0  0  0  0  0  0  0  0
   40.3070   22.9880   32.7840 H   0  0  0  0  0  0  0  0  0  0  0  0
   40.4140   22.5240   34.9060 N   0  0  0  0  0  0  0  0  0  0  0  0
   39.6460   22.9310   35.9270 C   0  0  0  0  0  0  0  0  0  0  0  0
   39.6420   22.6890   37.2890 C   0  0  0  0  0  0  0  0  0  0  0  0
   38.7180   23.2500   38.1200 N   0  0  0  0  0  0  0  0  0  0  0  0
   37.7610   24.0750   37.6190 C   0  0  0  0  0  0  0  0  0  0  0  0
   36.9960   24.5570   38.2100 H   0  0  0  0  0  0  0  0  0  0  0  0
   37.7470   24.3230   36.2960 N   0  0  0  0  0  0  0  0  0  0  0  0
   38.6520   23.7750   35.4730 C   0  0  0  0  0  0  0  0  0  0  0  0
   40.6230   21.8330   37.8640 N   0  0  0  0  0  0  0  0  0  0  0  0
   40.7820   20.8980   38.2610 H   0  0  0  0  0  0  0  0  0  0  0  0
   41.5950   22.2430   37.9530 H   0  0  0  0  0  0  0  0  0  0  0  0
   37.4610   28.1940   32.3400 O   0  0  0  0  0  0  0  0  0  0  0  0
   35.6900   29.3260   33.5300 C   0  0  0  0  0  0  0  0  0  0  0  0
   34.5930   30.1710   33.6410 C   0  0  0  0  0  0  0  0  0  0  0  0
   34.1940   30.7660   32.4520 C   0  0  0  0  0  0  0  0  0  0  0  0
   34.8650   30.5110   31.2520 C   0  0  0  0  0  0  0  0  0  0  0  0
   35.9480   29.6580   31.2210 C   0  0  0  0  0  0  0  0  0  0  0  0
   36.3670   29.0550   32.3800 C   0  0  0  0  0  0  0  0  0  0  0  0
   33.3330   31.4310   32.5330 H   0  0  0  0  0  0  0  0  0  0  0  0
   34.4750   31.0250   30.3830 H   0  0  0  0  0  0  0  0  0  0  0  0
   36.4100   29.5150   30.2610 H   0  0  0  0  0  0  0  0  0  0  0  0
   34.3500   31.4300   35.7380 C   0  0  0  0  0  0  0  0  0  0  0  0
   33.9180   30.4200   34.8770 C   0  0  0  0  0  0  0  0  0  0  0  0
   32.8030   29.6700   35.2780 C   0  0  0  0  0  0  0  0  0  0  0  0
   32.2100   29.9710   36.4790 N   0  0  0  0  0  0  0  0  0  0  0  0
   32.6770   30.9560   37.2610 C   0  0  0  0  0  0  0  0  0  0  0  0
   33.7430   31.6920   36.9050 N   0  0  0  0  0  0  0  0  0  0  0  0
   35.2160   32.0190   35.4350 H   0  0  0  0  0  0  0  0  0  0  0  0
   32.4700   28.8880   34.6070 H   0  0  0  0  0  0  0  0  0  0  0  0
   32.1900   31.1720   38.2040 H   0  0  0  0  0  0  0  0  0  0  0  0
   36.1730   28.6730   34.6820 O   0  0  0  0  0  0  0  0  0  0  0  0
   35.9500   28.9970   35.6140 H   0  0  0  0  0  0  0  0  0  0  0  0
  2  7  1  0  0  0  0
  2  1  1  0  0  0  0
  3  2  2  0  0  0  0
  4  5  2  0  0  0  0
  4  3  1  0  0  0  0
  5  6  1  0  0  0  0
  6 10  1  0  0  0  0
  6  7  2  0  0  0  0
  7 11  1  0  0  0  0
  8  4  1  0  0  0  0
  9  5  1  0  0  0  0
 11 21  1  0  0  0  0
 12 11  1  0  0  0  0
 12 14  2  0  0  0  0
 13 12  1  0  0  0  0
 14 15  1  0  0  0  0
 15 16  1  0  0  0  0
 16 22  1  0  0  0  0
 16 17  2  0  0  0  0
 18 17  1  0  0  0  0
 18 19  1  0  0  0  0
 20 18  2  0  0  0  0
 21 15  2  0  0  0  0
 21 20  1  0  0  0  0
 22 24  1  0  0  0  0
 22 23  1  0  0  0  0
 25 31  1  0  0  0  0
 25  3  1  0  0  0  0
 26 27  1  0  0  0  0
 26 44  1  0  0  0  0
 27 36  1  0  0  0  0
 28 32  1  0  0  0  0
 28 27  2  0  0  0  0
 29 28  1  0  0  0  0
 30 29  2  0  0  0  0
 30 31  1  0  0  0  0
 31 26  2  0  0  0  0
 33 29  1  0  0  0  0
 34 30  1  0  0  0  0
 35 40  1  0  0  0  0
 36 37  1  0  0  0  0
 36 35  2  0  0  0  0
 37 38  2  0  0  0  0
 38 39  1  0  0  0  0
 39 43  1  0  0  0  0
 40 39  2  0  0  0  0
 41 35  1  0  0  0  0
 42 37  1  0  0  0  0
 44 45  1  0  0  0  0
M  END
>  <minimizedAffinity>
-7.12533855

$$$$

 OpenBabel03272501243D

 45 49  0  0  0  0  0  0  0  0999 V2000
   37.8230   23.7580   34.5670 Cl  0  0  0  0  0  0  0  0  0  0  0  0
   39.0960   24.9320   34.4350 C   0  0  0  0  0  0  0  0  0  0  0  0
   38.8440   26.0060   33.5740 C   0  0  0  0  0  0  0  0  0  0  0  0
   39.8490   26.9590   33.4510 C   0  0  0  0  0  0  0  0  0  0  0  0
   41.0410   26.8880   34.1210 C   0  0  0  0  0  0  0  0  0  0  0  0
   41.2780   25.8220   34.9690 C   0  0  0  0  0  0  0  0  0  0  0  0
   40.2920   24.8670   35.1030 C   0  0  0  0  0  0  0  0  0  0  0  0
   39.7490   27.8280   32.8090 H   0  0  0  0  0  0  0  0  0  0  0  0
   41.8220   27.6370   34.0210 H   0  0  0  0  0  0  0  0  0  0  0  0
   42.1840   25.7100   35.5180 H   0  0  0  0  0  0  0  0  0  0  0  0
   40.5170   23.7560   35.9750 N   0  0  0  0  0  0  0  0  0  0  0  0
   39.8050   23.3770   37.0660 C   0  0  0  0  0  0  0  0  0  0  0  0
   38.9420   23.8680   37.4470 H   0  0  0  0  0  0  0  0  0  0  0  0
   40.3990   22.2590   37.5750 N   0  0  0  0  0  0  0  0  0  0  0  0
   41.4540   21.9740   36.7960 C   0  0  0  0  0  0  0  0  0  0  0  0
   42.4200   20.9850   36.8030 C   0  0  0  0  0  0  0  0  0  0  0  0
   43.4070   20.9310   35.8640 N   0  0  0  0  0  0  0  0  0  0  0  0
   43.4650   21.8680   34.8800 C   0  0  0  0  0  0  0  0  0  0  0  0
   44.2120   21.8950   34.1010 H   0  0  0  0  0  0  0  0  0  0  0  0
   42.5330   22.8400   34.8550 N   0  0  0  0  0  0  0  0  0  0  0  0
   41.5600   22.8980   35.7760 C   0  0  0  0  0  0  0  0  0  0  0  0
   42.4050   19.9800   37.8110 N   0  0  0  0  0  0  0  0  0  0  0  0
   42.8630   19.6600   38.6740 H   0  0  0  0  0  0  0  0  0  0  0  0
   41.6610   19.2340   37.7040 H   0  0  0  0  0  0  0  0  0  0  0  0
   37.7090   26.2340   32.8270 O   0  0  0  0  0  0  0  0  0  0  0  0
   36.4930   28.1800   33.5830 C   0  0  0  0  0  0  0  0  0  0  0  0
   35.8940   29.4240   33.4270 C   0  0  0  0  0  0  0  0  0  0  0  0
   35.9790   29.9540   32.1470 C   0  0  0  0  0  0  0  0  0  0  0  0
   36.6250   29.2650   31.1170 C   0  0  0  0  0  0  0  0  0  0  0  0
   37.1970   28.0320   31.3480 C   0  0  0  0  0  0  0  0  0  0  0  0
   37.1290   27.4800   32.6020 C   0  0  0  0  0  0  0  0  0  0  0  0
   35.5110   30.9320   32.0200 H   0  0  0  0  0  0  0  0  0  0  0  0
   36.6360   29.7660   30.1570 H   0  0  0  0  0  0  0  0  0  0  0  0
   37.6740   27.5660   30.5050 H   0  0  0  0  0  0  0  0  0  0  0  0
   33.8720   29.9510   34.7200 C   0  0  0  0  0  0  0  0  0  0  0  0
   35.2380   30.1150   34.4930 C   0  0  0  0  0  0  0  0  0  0  0  0
   35.9300   30.9830   35.3520 C   0  0  0  0  0  0  0  0  0  0  0  0
   35.2290   31.6090   36.3520 N   0  0  0  0  0  0  0  0  0  0  0  0
   33.9130   31.4060   36.5150 C   0  0  0  0  0  0  0  0  0  0  0  0
   33.2220   30.5820   35.7090 N   0  0  0  0  0  0  0  0  0  0  0  0
   33.3250   29.2780   34.0580 H   0  0  0  0  0  0  0  0  0  0  0  0
   36.9910   31.1080   35.1730 H   0  0  0  0  0  0  0  0  0  0  0  0
   33.3850   31.9140   37.3130 H   0  0  0  0  0  0  0  0  0  0  0  0
   36.4610   27.5550   34.8450 O   0  0  0  0  0  0  0  0  0  0  0  0
   36.2790   28.0730   35.6940 H   0  0  0  0  0  0  0  0  0  0  0  0
  2  1  1  0  0  0  0
  2  7  1  0  0  0  0
  3  2  2  0  0  0  0
  4  3  1  0  0  0  0
  4  5  2  0  0  0  0
  5  6  1  0  0  0  0
  6  7  2  0  0  0  0
  6 10  1  0  0  0  0
  7 11  1  0  0  0  0
  8  4  1  0  0  0  0
  9  5  1  0  0  0  0
 11 12  1  0  0  0  0
 12 13  1  0  0  0  0
 12 14  2  0  0  0  0
 15 16  1  0  0  0  0
 15 14  1  0  0  0  0
 16 22  1  0  0  0  0
 17 16  2  0  0  0  0
 18 17  1  0  0  0  0
 19 18  1  0  0  0  0
 20 18  2  0  0  0  0
 20 21  1  0  0  0  0
 21 11  1  0  0  0  0
 21 15  2  0  0  0  0
 22 23  1  0  0  0  0
 24 22  1  0  0  0  0
 25  3  1  0  0  0  0
 26 44  1  0  0  0  0
 27 26  1  0  0  0  0
 27 36  1  0  0  0  0
 28 27  2  0  0  0  0
 29 30  2  0  0  0  0
 29 28  1  0  0  0  0
 30 31  1  0  0  0  0
 31 25  1  0  0  0  0
 31 26  2  0  0  0  0
 32 28  1  0  0  0  0
 33 29  1  0  0  0  0
 34 30  1  0  0  0  0
 35 40  1  0  0  0  0
 36 35  2  0  0  0  0
 36 37  1  0  0  0  0
 37 38  2  0  0  0  0
 38 39  1  0  0  0  0
 39 43  1  0  0  0  0
 40 39  2  0  0  0  0
 41 35  1  0  0  0  0
 42 37  1  0  0  0  0
 44 45  1  0  0  0  0
M  END
>  <minimizedAffinity>
-6.78960848

$$$$

 OpenBabel03272501243D

 45 49  0  0  0  0  0  0  0  0999 V2000
   39.2520   26.4930   33.8290 Cl  0  0  0  0  0  0  0  0  0  0  0  0
   38.0300   25.5800   32.9990 C   0  0  0  0  0  0  0  0  0  0  0  0
   37.1900   26.3180   32.1550 C   0  0  0  0  0  0  0  0  0  0  0  0
   36.2040   25.6090   31.4790 C   0  0  0  0  0  0  0  0  0  0  0  0
   36.0270   24.2570   31.6040 C   0  0  0  0  0  0  0  0  0  0  0  0
   36.8630   23.5400   32.4400 C   0  0  0  0  0  0  0  0  0  0  0  0
   37.8480   24.2260   33.1190 C   0  0  0  0  0  0  0  0  0  0  0  0
   35.5040   26.0900   30.8030 H   0  0  0  0  0  0  0  0  0  0  0  0
   35.2540   23.7090   31.0720 H   0  0  0  0  0  0  0  0  0  0  0  0
   36.7770   22.4870   32.5790 H   0  0  0  0  0  0  0  0  0  0  0  0
   38.7230   23.5040   33.9880 N   0  0  0  0  0  0  0  0  0  0  0  0
   39.7750   22.7110   33.6640 C   0  0  0  0  0  0  0  0  0  0  0  0
   40.1170   22.5020   32.6780 H   0  0  0  0  0  0  0  0  0  0  0  0
   40.3050   22.2360   34.8290 N   0  0  0  0  0  0  0  0  0  0  0  0
   39.5770   22.7410   35.8360 C   0  0  0  0  0  0  0  0  0  0  0  0
   39.6250   22.6260   37.2140 C   0  0  0  0  0  0  0  0  0  0  0  0
   38.7350   23.2670   38.0240 N   0  0  0  0  0  0  0  0  0  0  0  0
   37.7610   24.0480   37.4850 C   0  0  0  0  0  0  0  0  0  0  0  0
   37.0200   24.5870   38.0570 H   0  0  0  0  0  0  0  0  0  0  0  0
   37.6970   24.1720   36.1460 N   0  0  0  0  0  0  0  0  0  0  0  0
   38.5690   23.5450   35.3440 C   0  0  0  0  0  0  0  0  0  0  0  0
   40.6250   21.8210   37.8280 N   0  0  0  0  0  0  0  0  0  0  0  0
   40.7970   20.9270   38.3030 H   0  0  0  0  0  0  0  0  0  0  0  0
   41.6010   22.2330   37.8410 H   0  0  0  0  0  0  0  0  0  0  0  0
   37.2260   27.6730   31.9130 O   0  0  0  0  0  0  0  0  0  0  0  0
   35.6670   29.5100   31.7290 C   0  0  0  0  0  0  0  0  0  0  0  0
   34.7990   30.4740   32.2270 C   0  0  0  0  0  0  0  0  0  0  0  0
   34.6730   30.4840   33.6090 C   0  0  0  0  0  0  0  0  0  0  0  0
   35.3780   29.5820   34.4100 C   0  0  0  0  0  0  0  0  0  0  0  0
   36.2230   28.6510   33.8420 C   0  0  0  0  0  0  0  0  0  0  0  0
   36.3700   28.6150   32.4790 C   0  0  0  0  0  0  0  0  0  0  0  0
   33.9920   31.2390   34.0050 H   0  0  0  0  0  0  0  0  0  0  0  0
   35.2080   29.6740   35.4750 H   0  0  0  0  0  0  0  0  0  0  0  0
   36.7290   27.9930   34.5240 H   0  0  0  0  0  0  0  0  0  0  0  0
   32.7280   31.2090   31.1280 C   0  0  0  0  0  0  0  0  0  0  0  0
   34.0850   31.3900   31.3920 C   0  0  0  0  0  0  0  0  0  0  0  0
   34.7100   32.5010   30.8060 C   0  0  0  0  0  0  0  0  0  0  0  0
   33.9550   33.3340   30.0180 N   0  0  0  0  0  0  0  0  0  0  0  0
   32.6510   33.1010   29.8040 C   0  0  0  0  0  0  0  0  0  0  0  0
   32.0250   32.0450   30.3510 N   0  0  0  0  0  0  0  0  0  0  0  0
   32.2340   30.3470   31.5790 H   0  0  0  0  0  0  0  0  0  0  0  0
   35.7630   32.6390   31.0140 H   0  0  0  0  0  0  0  0  0  0  0  0
   32.0800   33.7750   29.1770 H   0  0  0  0  0  0  0  0  0  0  0  0
   35.8660   29.4170   30.3370 O   0  0  0  0  0  0  0  0  0  0  0  0
   35.2120   29.8140   29.6750 H   0  0  0  0  0  0  0  0  0  0  0  0
  2  7  1  0  0  0  0
  2  1  1  0  0  0  0
  3  2  2  0  0  0  0
  4  5  2  0  0  0  0
  4  3  1  0  0  0  0
  5  6  1  0  0  0  0
  6 10  1  0  0  0  0
  6  7  2  0  0  0  0
  7 11  1  0  0  0  0
  8  4  1  0  0  0  0
  9  5  1  0  0  0  0
 11 21  1  0  0  0  0
 12 11  1  0  0  0  0
 12 14  2  0  0  0  0
 13 12  1  0  0  0  0
 14 15  1  0  0  0  0
 15 16  1  0  0  0  0
 16 22  1  0  0  0  0
 16 17  2  0  0  0  0
 18 17  1  0  0  0  0
 18 19  1  0  0  0  0
 20 18  2  0  0  0  0
 21 15  2  0  0  0  0
 21 20  1  0  0  0  0
 22 24  1  0  0  0  0
 22 23  1  0  0  0  0
 25  3  1  0  0  0  0
 25 31  1  0  0  0  0
 26 27  2  0  0  0  0
 26 31  1  0  0  0  0
 27 28  1  0  0  0  0
 28 32  1  0  0  0  0
 28 29  2  0  0  0  0
 29 33  1  0  0  0  0
 30 29  1  0  0  0  0
 30 34  1  0  0  0  0
 31 30  2  0  0  0  0
 35 36  1  0  0  0  0
 35 41  1  0  0  0  0
 36 27  1  0  0  0  0
 37 42  1  0  0  0  0
 37 36  2  0  0  0  0
 38 37  1  0  0  0  0
 39 38  2  0  0  0  0
 39 40  1  0  0  0  0
 40 35  2  0  0  0  0
 43 39  1  0  0  0  0
 44 26  1  0  0  0  0
 45 44  1  0  0  0  0
M  END
>  <minimizedAffinity>
-6.75704145

$$$$

 OpenBabel03272501243D

 45 49  0  0  0  0  0  0  0  0999 V2000
   36.4910   27.6000   34.6110 Cl  0  0  0  0  0  0  0  0  0  0  0  0
   36.4560   28.3540   33.0470 C   0  0  0  0  0  0  0  0  0  0  0  0
   37.4640   27.9570   32.1600 C   0  0  0  0  0  0  0  0  0  0  0  0
   37.4570   28.5480   30.9010 C   0  0  0  0  0  0  0  0  0  0  0  0
   36.5300   29.4760   30.5080 C   0  0  0  0  0  0  0  0  0  0  0  0
   35.5400   29.8590   31.3940 C   0  0  0  0  0  0  0  0  0  0  0  0
   35.5300   29.2840   32.6480 C   0  0  0  0  0  0  0  0  0  0  0  0
   38.1950   28.3070   30.1430 H   0  0  0  0  0  0  0  0  0  0  0  0
   36.5300   29.9330   29.5220 H   0  0  0  0  0  0  0  0  0  0  0  0
   34.7900   30.5750   31.1480 H   0  0  0  0  0  0  0  0  0  0  0  0
   34.5150   29.6670   33.5780 N   0  0  0  0  0  0  0  0  0  0  0  0
   33.2080   29.3040   33.6030 C   0  0  0  0  0  0  0  0  0  0  0  0
   32.7280   28.6580   32.9080 H   0  0  0  0  0  0  0  0  0  0  0  0
   32.6330   29.9200   34.6760 N   0  0  0  0  0  0  0  0  0  0  0  0
   33.5860   30.6410   35.2850 C   0  0  0  0  0  0  0  0  0  0  0  0
   33.6130   31.4610   36.3980 C   0  0  0  0  0  0  0  0  0  0  0  0
   34.7520   32.0890   36.8060 N   0  0  0  0  0  0  0  0  0  0  0  0
   35.9100   31.9210   36.1130 C   0  0  0  0  0  0  0  0  0  0  0  0
   36.8520   32.3820   36.3700 H   0  0  0  0  0  0  0  0  0  0  0  0
   35.9050   31.1260   35.0250 N   0  0  0  0  0  0  0  0  0  0  0  0
   34.7880   30.5060   34.6200 C   0  0  0  0  0  0  0  0  0  0  0  0
   32.4290   31.6700   37.1590 N   0  0  0  0  0  0  0  0  0  0  0  0
   31.6830   32.3450   37.3680 H   0  0  0  0  0  0  0  0  0  0  0  0
   32.1320   30.8630   37.7770 H   0  0  0  0  0  0  0  0  0  0  0  0
   38.4690   27.0440   32.3870 O   0  0  0  0  0  0  0  0  0  0  0  0
   38.8840   25.1420   33.8170 C   0  0  0  0  0  0  0  0  0  0  0  0
   38.7410   23.8200   34.2200 C   0  0  0  0  0  0  0  0  0  0  0  0
   37.9050   23.0550   33.4190 C   0  0  0  0  0  0  0  0  0  0  0  0
   37.2710   23.6020   32.3000 C   0  0  0  0  0  0  0  0  0  0  0  0
   37.4610   24.9260   31.9630 C   0  0  0  0  0  0  0  0  0  0  0  0
   38.2820   25.7080   32.7340 C   0  0  0  0  0  0  0  0  0  0  0  0
   37.7890   22.0160   33.7310 H   0  0  0  0  0  0  0  0  0  0  0  0
   36.6400   22.9210   31.7430 H   0  0  0  0  0  0  0  0  0  0  0  0
   36.9390   25.2710   31.0900 H   0  0  0  0  0  0  0  0  0  0  0  0
   40.5820   22.5510   35.2400 C   0  0  0  0  0  0  0  0  0  0  0  0
   39.3980   23.2770   35.3680 C   0  0  0  0  0  0  0  0  0  0  0  0
   38.8880   23.4460   36.6640 C   0  0  0  0  0  0  0  0  0  0  0  0
   39.5780   22.8940   37.7150 N   0  0  0  0  0  0  0  0  0  0  0  0
   40.7130   22.2060   37.5210 C   0  0  0  0  0  0  0  0  0  0  0  0
   41.2260   22.0260   36.2920 N   0  0  0  0  0  0  0  0  0  0  0  0
   40.9870   22.4130   34.2360 H   0  0  0  0  0  0  0  0  0  0  0  0
   37.9690   24.0110   36.7610 H   0  0  0  0  0  0  0  0  0  0  0  0
   41.2360   21.7810   38.3690 H   0  0  0  0  0  0  0  0  0  0  0  0
   39.7120   26.0020   34.5650 O   0  0  0  0  0  0  0  0  0  0  0  0
   39.9800   25.7940   35.5180 H   0  0  0  0  0  0  0  0  0  0  0  0
  2  1  1  0  0  0  0
  3 25  1  0  0  0  0
  3  2  2  0  0  0  0
  4  3  1  0  0  0  0
  5  4  2  0  0  0  0
  5  6  1  0  0  0  0
  6  7  2  0  0  0  0
  7  2  1  0  0  0  0
  7 11  1  0  0  0  0
  8  4  1  0  0  0  0
  9  5  1  0  0  0  0
 10  6  1  0  0  0  0
 11 12  1  0  0  0  0
 11 21  1  0  0  0  0
 12 14  2  0  0  0  0
 13 12  1  0  0  0  0
 14 15  1  0  0  0  0
 15 16  1  0  0  0  0
 16 17  2  0  0  0  0
 16 22  1  0  0  0  0
 18 19  1  0  0  0  0
 18 17  1  0  0  0  0
 20 18  2  0  0  0  0
 21 20  1  0  0  0  0
 21 15  2  0  0  0  0
 22 23  1  0  0  0  0
 22 24  1  0  0  0  0
 25 31  1  0  0  0  0
 26 27  1  0  0  0  0
 26 44  1  0  0  0  0
 27 36  1  0  0  0  0
 28 32  1  0  0  0  0
 28 27  2  0  0  0  0
 29 28  1  0  0  0  0
 30 29  2  0  0  0  0
 30 31  1  0  0  0  0
 31 26  2  0  0  0  0
 33 29  1  0  0  0  0
 34 30  1  0  0  0  0
 35 36  2  0  0  0  0
 35 40  1  0  0  0  0
 36 37  1  0  0  0  0
 37 42  1  0  0  0  0
 37 38  2  0  0  0  0
 39 38  1  0  0  0  0
 39 43  1  0  0  0  0
 40 39  2  0  0  0  0
 41 35  1  0  0  0  0
 44 45  1  0  0  0  0
M  END
>  <minimizedAffinity>
-6.57382631

$$$$

 OpenBabel03272501243D

 45 49  0  0  0  0  0  0  0  0999 V2000
   39.1950   26.5450   35.0560 Cl  0  0  0  0  0  0  0  0  0  0  0  0
   38.3270   25.5900   33.8940 C   0  0  0  0  0  0  0  0  0  0  0  0
   37.8300   26.2870   32.7860 C   0  0  0  0  0  0  0  0  0  0  0  0
   37.1310   25.5440   31.8420 C   0  0  0  0  0  0  0  0  0  0  0  0
   36.9150   24.1960   31.9520 C   0  0  0  0  0  0  0  0  0  0  0  0
   37.4110   23.5190   33.0520 C   0  0  0  0  0  0  0  0  0  0  0  0
   38.1070   24.2400   33.9990 C   0  0  0  0  0  0  0  0  0  0  0  0
   36.7070   25.9910   30.9490 H   0  0  0  0  0  0  0  0  0  0  0  0
   36.3680   23.6210   31.2100 H   0  0  0  0  0  0  0  0  0  0  0  0
   37.2770   22.4720   33.1940 H   0  0  0  0  0  0  0  0  0  0  0  0
   38.6280   23.5600   35.1430 N   0  0  0  0  0  0  0  0  0  0  0  0
   38.0590   23.4010   36.3650 C   0  0  0  0  0  0  0  0  0  0  0  0
   37.1080   23.7720   36.6630 H   0  0  0  0  0  0  0  0  0  0  0  0
   38.9310   22.6820   37.1320 N   0  0  0  0  0  0  0  0  0  0  0  0
   40.0060   22.4150   36.3750 C   0  0  0  0  0  0  0  0  0  0  0  0
   41.1930   21.7390   36.5890 C   0  0  0  0  0  0  0  0  0  0  0  0
   42.1400   21.6160   35.6160 N   0  0  0  0  0  0  0  0  0  0  0  0
   41.9350   22.1660   34.3900 C   0  0  0  0  0  0  0  0  0  0  0  0
   42.6340   22.1130   33.5680 H   0  0  0  0  0  0  0  0  0  0  0  0
   40.7860   22.8300   34.1610 N   0  0  0  0  0  0  0  0  0  0  0  0
   39.8500   22.9550   35.1140 C   0  0  0  0  0  0  0  0  0  0  0  0
   41.4570   21.1440   37.8550 N   0  0  0  0  0  0  0  0  0  0  0  0
   42.0000   21.2390   38.7220 H   0  0  0  0  0  0  0  0  0  0  0  0
   40.9260   20.2510   38.0610 H   0  0  0  0  0  0  0  0  0  0  0  0
   37.9530   27.6320   32.5170 O   0  0  0  0  0  0  0  0  0  0  0  0
   36.1110   28.9080   33.4200 C   0  0  0  0  0  0  0  0  0  0  0  0
   35.0420   29.7920   33.3450 C   0  0  0  0  0  0  0  0  0  0  0  0
   34.7930   30.2990   32.0780 C   0  0  0  0  0  0  0  0  0  0  0  0
   35.5760   29.9280   30.9810 C   0  0  0  0  0  0  0  0  0  0  0  0
   36.6230   29.0440   31.1330 C   0  0  0  0  0  0  0  0  0  0  0  0
   36.8940   28.5250   32.3720 C   0  0  0  0  0  0  0  0  0  0  0  0
   33.9540   30.9940   32.0140 H   0  0  0  0  0  0  0  0  0  0  0  0
   35.2980   30.3810   30.0370 H   0  0  0  0  0  0  0  0  0  0  0  0
   37.1770   28.8090   30.2420 H   0  0  0  0  0  0  0  0  0  0  0  0
   33.0660   29.4880   34.7750 C   0  0  0  0  0  0  0  0  0  0  0  0
   34.2520   30.1610   34.4790 C   0  0  0  0  0  0  0  0  0  0  0  0
   34.6280   31.2050   35.3380 C   0  0  0  0  0  0  0  0  0  0  0  0
   33.8150   31.4970   36.4050 N   0  0  0  0  0  0  0  0  0  0  0  0
   32.6860   30.8100   36.6320 C   0  0  0  0  0  0  0  0  0  0  0  0
   32.2990   29.8050   35.8280 N   0  0  0  0  0  0  0  0  0  0  0  0
   32.7650   28.6750   34.1130 H   0  0  0  0  0  0  0  0  0  0  0  0
   35.5490   31.7240   35.1060 H   0  0  0  0  0  0  0  0  0  0  0  0
   32.0640   31.0620   37.4820 H   0  0  0  0  0  0  0  0  0  0  0  0
   36.4460   28.3370   34.6630 O   0  0  0  0  0  0  0  0  0  0  0  0
   36.1390   28.7420   35.5380 H   0  0  0  0  0  0  0  0  0  0  0  0
  2  7  1  0  0  0  0
  2  1  1  0  0  0  0
  3  2  2  0  0  0  0
  4  5  2  0  0  0  0
  4  3  1  0  0  0  0
  5  6  1  0  0  0  0
  6 10  1  0  0  0  0
  6  7  2  0  0  0  0
  7 11  1  0  0  0  0
  8  4  1  0  0  0  0
  9  5  1  0  0  0  0
 11 12  1  0  0  0  0
 12 13  1  0  0  0  0
 12 14  2  0  0  0  0
 15 16  1  0  0  0  0
 15 14  1  0  0  0  0
 16 22  1  0  0  0  0
 17 16  2  0  0  0  0
 18 17  1  0  0  0  0
 19 18  1  0  0  0  0
 20 18  2  0  0  0  0
 20 21  1  0  0  0  0
 21 11  1  0  0  0  0
 21 15  2  0  0  0  0
 22 24  1  0  0  0  0
 22 23  1  0  0  0  0
 25  3  1  0  0  0  0
 26 44  1  0  0  0  0
 27 26  1  0  0  0  0
 27 36  1  0  0  0  0
 28 27  2  0  0  0  0
 29 30  2  0  0  0  0
 29 28  1  0  0  0  0
 30 31  1  0  0  0  0
 31 25  1  0  0  0  0
 31 26  2  0  0  0  0
 32 28  1  0  0  0  0
 33 29  1  0  0  0  0
 34 30  1  0  0  0  0
 35 40  1  0  0  0  0
 36 35  2  0  0  0  0
 36 37  1  0  0  0  0
 37 38  2  0  0  0  0
 38 39  1  0  0  0  0
 39 43  1  0  0  0  0
 40 39  2  0  0  0  0
 41 35  1  0  0  0  0
 42 37  1  0  0  0  0
 44 45  1  0  0  0  0
M  END
>  <minimizedAffinity>
-6.43099928

$$$$

 OpenBabel03272501243D

 45 49  0  0  0  0  0  0  0  0999 V2000
   36.6470   27.5120   34.9130 Cl  0  0  0  0  0  0  0  0  0  0  0  0
   36.4810   28.2540   33.3520 C   0  0  0  0  0  0  0  0  0  0  0  0
   37.1300   27.6000   32.2970 C   0  0  0  0  0  0  0  0  0  0  0  0
   37.0120   28.1750   31.0370 C   0  0  0  0  0  0  0  0  0  0  0  0
   36.3060   29.3240   30.7950 C   0  0  0  0  0  0  0  0  0  0  0  0
   35.6690   29.9600   31.8450 C   0  0  0  0  0  0  0  0  0  0  0  0
   35.7760   29.4040   33.1030 C   0  0  0  0  0  0  0  0  0  0  0  0
   37.4780   27.7450   30.1570 H   0  0  0  0  0  0  0  0  0  0  0  0
   36.2170   29.7680   29.8070 H   0  0  0  0  0  0  0  0  0  0  0  0
   35.1050   30.8550   31.7220 H   0  0  0  0  0  0  0  0  0  0  0  0
   35.1250   30.0460   34.2020 N   0  0  0  0  0  0  0  0  0  0  0  0
   35.6510   30.9010   35.1150 C   0  0  0  0  0  0  0  0  0  0  0  0
   36.6610   31.2320   35.1490 H   0  0  0  0  0  0  0  0  0  0  0  0
   34.6480   31.2510   35.9720 N   0  0  0  0  0  0  0  0  0  0  0  0
   33.5380   30.6130   35.5750 C   0  0  0  0  0  0  0  0  0  0  0  0
   32.2340   30.5670   36.0330 C   0  0  0  0  0  0  0  0  0  0  0  0
   31.2780   29.8120   35.4210 N   0  0  0  0  0  0  0  0  0  0  0  0
   31.5920   29.0710   34.3240 C   0  0  0  0  0  0  0  0  0  0  0  0
   30.8950   28.4480   33.7840 H   0  0  0  0  0  0  0  0  0  0  0  0
   32.8570   29.1010   33.8630 N   0  0  0  0  0  0  0  0  0  0  0  0
   33.8010   29.8420   34.4600 C   0  0  0  0  0  0  0  0  0  0  0  0
   31.8530   31.3250   37.1760 N   0  0  0  0  0  0  0  0  0  0  0  0
   31.6180   31.2630   38.1750 H   0  0  0  0  0  0  0  0  0  0  0  0
   31.7480   32.3670   37.0220 H   0  0  0  0  0  0  0  0  0  0  0  0
   37.8780   26.4450   32.3600 O   0  0  0  0  0  0  0  0  0  0  0  0
   39.2400   25.2410   33.9510 C   0  0  0  0  0  0  0  0  0  0  0  0
   40.3810   25.0200   34.7120 C   0  0  0  0  0  0  0  0  0  0  0  0
   41.3820   25.9670   34.5480 C   0  0  0  0  0  0  0  0  0  0  0  0
   41.2230   27.0490   33.6770 C   0  0  0  0  0  0  0  0  0  0  0  0
   40.0590   27.2020   32.9540 C   0  0  0  0  0  0  0  0  0  0  0  0
   39.0510   26.2830   33.0940 C   0  0  0  0  0  0  0  0  0  0  0  0
   42.2810   25.7980   35.1430 H   0  0  0  0  0  0  0  0  0  0  0  0
   42.0630   27.7300   33.6230 H   0  0  0  0  0  0  0  0  0  0  0  0
   40.0140   28.0590   32.3060 H   0  0  0  0  0  0  0  0  0  0  0  0
   39.6320   23.7070   36.6500 C   0  0  0  0  0  0  0  0  0  0  0  0
   40.5270   23.9070   35.5980 C   0  0  0  0  0  0  0  0  0  0  0  0
   41.5650   22.9750   35.4530 C   0  0  0  0  0  0  0  0  0  0  0  0
   41.6360   21.9330   36.3450 N   0  0  0  0  0  0  0  0  0  0  0  0
   40.7420   21.7990   37.3360 C   0  0  0  0  0  0  0  0  0  0  0  0
   39.7370   22.6760   37.5010 N   0  0  0  0  0  0  0  0  0  0  0  0
   38.8220   24.4270   36.7710 H   0  0  0  0  0  0  0  0  0  0  0  0
   42.2570   23.1330   34.6360 H   0  0  0  0  0  0  0  0  0  0  0  0
   40.8230   20.9670   38.0250 H   0  0  0  0  0  0  0  0  0  0  0  0
   38.1640   24.3360   34.0460 O   0  0  0  0  0  0  0  0  0  0  0  0
   38.2830   23.4010   34.4130 H   0  0  0  0  0  0  0  0  0  0  0  0
  2  1  1  0  0  0  0
  3 25  1  0  0  0  0
  3  2  2  0  0  0  0
  4  3  1  0  0  0  0
  5  4  2  0  0  0  0
  5  6  1  0  0  0  0
  6  7  2  0  0  0  0
  7  2  1  0  0  0  0
  7 11  1  0  0  0  0
  8  4  1  0  0  0  0
  9  5  1  0  0  0  0
 10  6  1  0  0  0  0
 11 21  1  0  0  0  0
 11 12  1  0  0  0  0
 12 13  1  0  0  0  0
 12 14  2  0  0  0  0
 15 14  1  0  0  0  0
 15 16  1  0  0  0  0
 16 22  1  0  0  0  0
 17 16  2  0  0  0  0
 18 17  1  0  0  0  0
 19 18  1  0  0  0  0
 20 18  2  0  0  0  0
 20 21  1  0  0  0  0
 21 15  2  0  0  0  0
 22 23  1  0  0  0  0
 24 22  1  0  0  0  0
 25 31  1  0  0  0  0
 26 44  1  0  0  0  0
 26 27  1  0  0  0  0
 27 36  1  0  0  0  0
 28 27  2  0  0  0  0
 28 32  1  0  0  0  0
 29 28  1  0  0  0  0
 30 31  1  0  0  0  0
 30 29  2  0  0  0  0
 31 26  2  0  0  0  0
 33 29  1  0  0  0  0
 34 30  1  0  0  0  0
 35 41  1  0  0  0  0
 35 40  1  0  0  0  0
 36 35  2  0  0  0  0
 37 36  1  0  0  0  0
 37 38  2  0  0  0  0
 38 39  1  0  0  0  0
 39 40  2  0  0  0  0
 39 43  1  0  0  0  0
 42 37  1  0  0  0  0
 44 45  1  0  0  0  0
M  END
>  <minimizedAffinity>
-6.41607046

$$$$

 OpenBabel03272501243D

 45 49  0  0  0  0  0  0  0  0999 V2000
   36.5780   27.6600   34.6390 Cl  0  0  0  0  0  0  0  0  0  0  0  0
   36.4980   28.3860   33.0630 C   0  0  0  0  0  0  0  0  0  0  0  0
   37.5130   28.0160   32.1730 C   0  0  0  0  0  0  0  0  0  0  0  0
   37.4710   28.5840   30.9040 C   0  0  0  0  0  0  0  0  0  0  0  0
   36.5030   29.4660   30.5050 C   0  0  0  0  0  0  0  0  0  0  0  0
   35.5060   29.8240   31.3940 C   0  0  0  0  0  0  0  0  0  0  0  0
   35.5310   29.2700   32.6570 C   0  0  0  0  0  0  0  0  0  0  0  0
   38.2120   28.3610   30.1440 H   0  0  0  0  0  0  0  0  0  0  0  0
   36.4750   29.9060   29.5120 H   0  0  0  0  0  0  0  0  0  0  0  0
   34.7250   30.5050   31.1430 H   0  0  0  0  0  0  0  0  0  0  0  0
   34.5100   29.6270   33.5910 N   0  0  0  0  0  0  0  0  0  0  0  0
   33.2130   29.2290   33.6210 C   0  0  0  0  0  0  0  0  0  0  0  0
   32.7480   28.5680   32.9300 H   0  0  0  0  0  0  0  0  0  0  0  0
   32.6250   29.8310   34.6960 N   0  0  0  0  0  0  0  0  0  0  0  0
   33.5600   30.5790   35.2990 C   0  0  0  0  0  0  0  0  0  0  0  0
   33.5700   31.4020   36.4110 C   0  0  0  0  0  0  0  0  0  0  0  0
   34.6930   32.0620   36.8120 N   0  0  0  0  0  0  0  0  0  0  0  0
   35.8520   31.9240   36.1150 C   0  0  0  0  0  0  0  0  0  0  0  0
   36.7820   32.4120   36.3670 H   0  0  0  0  0  0  0  0  0  0  0  0
   35.8640   31.1280   35.0290 N   0  0  0  0  0  0  0  0  0  0  0  0
   34.7630   30.4760   34.6290 C   0  0  0  0  0  0  0  0  0  0  0  0
   32.3830   31.5810   37.1760 N   0  0  0  0  0  0  0  0  0  0  0  0
   31.6190   32.2350   37.3860 H   0  0  0  0  0  0  0  0  0  0  0  0
   32.1100   30.7670   37.7970 H   0  0  0  0  0  0  0  0  0  0  0  0
   38.5570   27.1480   32.4050 O   0  0  0  0  0  0  0  0  0  0  0  0
   37.9220   24.8200   32.3050 C   0  0  0  0  0  0  0  0  0  0  0  0
   37.7780   23.5350   32.8150 C   0  0  0  0  0  0  0  0  0  0  0  0
   38.2180   23.3760   34.1220 C   0  0  0  0  0  0  0  0  0  0  0  0
   38.7580   24.4450   34.8420 C   0  0  0  0  0  0  0  0  0  0  0  0
   38.8680   25.6940   34.2670 C   0  0  0  0  0  0  0  0  0  0  0  0
   38.4430   25.8840   32.9780 C   0  0  0  0  0  0  0  0  0  0  0  0
   38.1080   22.3690   34.5270 H   0  0  0  0  0  0  0  0  0  0  0  0
   39.0700   24.2150   35.8520 H   0  0  0  0  0  0  0  0  0  0  0  0
   39.2940   26.4630   34.8860 H   0  0  0  0  0  0  0  0  0  0  0  0
   35.8540   22.1890   32.0910 C   0  0  0  0  0  0  0  0  0  0  0  0
   37.2230   22.4530   32.0630 C   0  0  0  0  0  0  0  0  0  0  0  0
   38.0220   21.6140   31.2710 C   0  0  0  0  0  0  0  0  0  0  0  0
   37.4140   20.5960   30.5790 N   0  0  0  0  0  0  0  0  0  0  0  0
   36.0890   20.3970   30.6500 C   0  0  0  0  0  0  0  0  0  0  0  0
   35.2980   21.1830   31.4000 N   0  0  0  0  0  0  0  0  0  0  0  0
   35.2250   22.8350   32.7040 H   0  0  0  0  0  0  0  0  0  0  0  0
   39.0840   21.8220   31.2510 H   0  0  0  0  0  0  0  0  0  0  0  0
   35.6360   19.5860   30.0930 H   0  0  0  0  0  0  0  0  0  0  0  0
   37.5050   25.0860   30.9860 O   0  0  0  0  0  0  0  0  0  0  0  0
   37.3720   24.3480   30.3070 H   0  0  0  0  0  0  0  0  0  0  0  0
  2  1  1  0  0  0  0
  3 25  1  0  0  0  0
  3  2  2  0  0  0  0
  4  3  1  0  0  0  0
  5  4  2  0  0  0  0
  5  6  1  0  0  0  0
  6  7  2  0  0  0  0
  7  2  1  0  0  0  0
  7 11  1  0  0  0  0
  8  4  1  0  0  0  0
  9  5  1  0  0  0  0
 10  6  1  0  0  0  0
 11 12  1  0  0  0  0
 11 21  1  0  0  0  0
 12 14  2  0  0  0  0
 13 12  1  0  0  0  0
 14 15  1  0  0  0  0
 15 16  1  0  0  0  0
 16 17  2  0  0  0  0
 16 22  1  0  0  0  0
 18 19  1  0  0  0  0
 18 17  1  0  0  0  0
 20 18  2  0  0  0  0
 21 20  1  0  0  0  0
 21 15  2  0  0  0  0
 22 23  1  0  0  0  0
 22 24  1  0  0  0  0
 25 31  1  0  0  0  0
 26 27  2  0  0  0  0
 26 31  1  0  0  0  0
 27 28  1  0  0  0  0
 28 32  1  0  0  0  0
 28 29  2  0  0  0  0
 29 33  1  0  0  0  0
 30 29  1  0  0  0  0
 30 34  1  0  0  0  0
 31 30  2  0  0  0  0
 35 41  1  0  0  0  0
 36 35  1  0  0  0  0
 36 27  1  0  0  0  0
 37 36  2  0  0  0  0
 38 39  2  0  0  0  0
 38 37  1  0  0  0  0
 39 40  1  0  0  0  0
 40 35  2  0  0  0  0
 42 37  1  0  0  0  0
 43 39  1  0  0  0  0
 44 26  1  0  0  0  0
 45 44  1  0  0  0  0
M  END
>  <minimizedAffinity>
-6.30864954

$$$$

 OpenBabel03272501243D

 45 49  0  0  0  0  0  0  0  0999 V2000
   36.8190   27.8220   34.6880 Cl  0  0  0  0  0  0  0  0  0  0  0  0
   36.6080   28.4640   33.0880 C   0  0  0  0  0  0  0  0  0  0  0  0
   37.4470   27.9290   32.1040 C   0  0  0  0  0  0  0  0  0  0  0  0
   37.2970   28.4270   30.8150 C   0  0  0  0  0  0  0  0  0  0  0  0
   36.3860   29.3940   30.4810 C   0  0  0  0  0  0  0  0  0  0  0  0
   35.5640   29.9150   31.4630 C   0  0  0  0  0  0  0  0  0  0  0  0
   35.6980   29.4330   32.7480 C   0  0  0  0  0  0  0  0  0  0  0  0
   37.8990   28.0760   29.9830 H   0  0  0  0  0  0  0  0  0  0  0  0
   36.2740   29.7790   29.4710 H   0  0  0  0  0  0  0  0  0  0  0  0
   34.8350   30.6680   31.2670 H   0  0  0  0  0  0  0  0  0  0  0  0
   34.8570   29.9580   33.7770 N   0  0  0  0  0  0  0  0  0  0  0  0
   35.1890   30.7810   34.8040 C   0  0  0  0  0  0  0  0  0  0  0  0
   36.1590   31.1710   35.0020 H   0  0  0  0  0  0  0  0  0  0  0  0
   34.0540   31.0110   35.5270 N   0  0  0  0  0  0  0  0  0  0  0  0
   33.0580   30.3330   34.9380 C   0  0  0  0  0  0  0  0  0  0  0  0
   31.7090   30.1770   35.2000 C   0  0  0  0  0  0  0  0  0  0  0  0
   30.9040   29.4070   34.4140 N   0  0  0  0  0  0  0  0  0  0  0  0
   31.4190   28.7620   33.3340 C   0  0  0  0  0  0  0  0  0  0  0  0
   30.8490   28.1350   32.6640 H   0  0  0  0  0  0  0  0  0  0  0  0
   32.7300   28.9010   33.0610 N   0  0  0  0  0  0  0  0  0  0  0  0
   33.5270   29.6560   33.8300 C   0  0  0  0  0  0  0  0  0  0  0  0
   31.1200   30.8310   36.3190 N   0  0  0  0  0  0  0  0  0  0  0  0
   30.7530   30.6880   37.2680 H   0  0  0  0  0  0  0  0  0  0  0  0
   30.9650   31.8730   36.2110 H   0  0  0  0  0  0  0  0  0  0  0  0
   38.4120   26.9580   32.2610 O   0  0  0  0  0  0  0  0  0  0  0  0
   38.8170   25.0690   33.7110 C   0  0  0  0  0  0  0  0  0  0  0  0
   38.6300   23.7660   34.1560 C   0  0  0  0  0  0  0  0  0  0  0  0
   37.7020   23.0310   33.4320 C   0  0  0  0  0  0  0  0  0  0  0  0
   37.0250   23.5880   32.3430 C   0  0  0  0  0  0  0  0  0  0  0  0
   37.2640   24.8910   31.9600 C   0  0  0  0  0  0  0  0  0  0  0  0
   38.1750   25.6430   32.6550 C   0  0  0  0  0  0  0  0  0  0  0  0
   37.5510   22.0070   33.7780 H   0  0  0  0  0  0  0  0  0  0  0  0
   36.3220   22.9310   31.8460 H   0  0  0  0  0  0  0  0  0  0  0  0
   36.7040   25.2450   31.1130 H   0  0  0  0  0  0  0  0  0  0  0  0
   38.8740   23.4120   36.5760 C   0  0  0  0  0  0  0  0  0  0  0  0
   39.3310   23.2130   35.2730 C   0  0  0  0  0  0  0  0  0  0  0  0
   40.4990   22.4510   35.1130 C   0  0  0  0  0  0  0  0  0  0  0  0
   41.1130   21.9550   36.2360 N   0  0  0  0  0  0  0  0  0  0  0  0
   40.6200   22.1840   37.4620 C   0  0  0  0  0  0  0  0  0  0  0  0
   39.5040   22.9090   37.6470 N   0  0  0  0  0  0  0  0  0  0  0  0
   37.9670   24.0020   36.7110 H   0  0  0  0  0  0  0  0  0  0  0  0
   40.8500   22.2980   34.1010 H   0  0  0  0  0  0  0  0  0  0  0  0
   41.1260   21.7800   38.3300 H   0  0  0  0  0  0  0  0  0  0  0  0
   39.7380   25.8980   34.3800 O   0  0  0  0  0  0  0  0  0  0  0  0
   40.0570   25.6960   35.3190 H   0  0  0  0  0  0  0  0  0  0  0  0
  2  1  1  0  0  0  0
  3 25  1  0  0  0  0
  3  2  2  0  0  0  0
  4  3  1  0  0  0  0
  5  4  2  0  0  0  0
  5  6  1  0  0  0  0
  6  7  2  0  0  0  0
  7  2  1  0  0  0  0
  7 11  1  0  0  0  0
  8  4  1  0  0  0  0
  9  5  1  0  0  0  0
 10  6  1  0  0  0  0
 11 21  1  0  0  0  0
 11 12  1  0  0  0  0
 12 13  1  0  0  0  0
 12 14  2  0  0  0  0
 15 16  1  0  0  0  0
 15 14  1  0  0  0  0
 16 22  1  0  0  0  0
 17 16  2  0  0  0  0
 18 17  1  0  0  0  0
 19 18  1  0  0  0  0
 20 18  2  0  0  0  0
 20 21  1  0  0  0  0
 21 15  2  0  0  0  0
 22 23  1  0  0  0  0
 24 22  1  0  0  0  0
 25 31  1  0  0  0  0
 26 27  1  0  0  0  0
 26 44  1  0  0  0  0
 27 36  1  0  0  0  0
 28 32  1  0  0  0  0
 28 27  2  0  0  0  0
 29 28  1  0  0  0  0
 30 29  2  0  0  0  0
 30 31  1  0  0  0  0
 31 26  2  0  0  0  0
 33 29  1  0  0  0  0
 34 30  1  0  0  0  0
 35 41  1  0  0  0  0
 35 40  1  0  0  0  0
 36 35  2  0  0  0  0
 37 36  1  0  0  0  0
 37 38  2  0  0  0  0
 38 39  1  0  0  0  0
 39 40  2  0  0  0  0
 39 43  1  0  0  0  0
 42 37  1  0  0  0  0
 44 45  1  0  0  0  0
M  END
>  <minimizedAffinity>
-6.2982316

$$$$

 OpenBabel03272501243D

 45 49  0  0  0  0  0  0  0  0999 V2000
   37.8040   27.3650   33.4460 Cl  0  0  0  0  0  0  0  0  0  0  0  0
   37.1780   26.0510   32.4990 C   0  0  0  0  0  0  0  0  0  0  0  0
   35.9930   26.3150   31.8020 C   0  0  0  0  0  0  0  0  0  0  0  0
   35.4720   25.2780   31.0370 C   0  0  0  0  0  0  0  0  0  0  0  0
   36.0570   24.0430   30.9420 C   0  0  0  0  0  0  0  0  0  0  0  0
   37.2270   23.7950   31.6350 C   0  0  0  0  0  0  0  0  0  0  0  0
   37.7590   24.8120   32.4000 C   0  0  0  0  0  0  0  0  0  0  0  0
   34.5590   25.3840   30.4600 H   0  0  0  0  0  0  0  0  0  0  0  0
   35.6450   23.2370   30.3410 H   0  0  0  0  0  0  0  0  0  0  0  0
   37.7300   22.8560   31.6020 H   0  0  0  0  0  0  0  0  0  0  0  0
   38.9680   24.5750   33.1250 N   0  0  0  0  0  0  0  0  0  0  0  0
   40.2440   24.8580   32.7600 C   0  0  0  0  0  0  0  0  0  0  0  0
   40.5440   25.3160   31.8480 H   0  0  0  0  0  0  0  0  0  0  0  0
   41.0600   24.4490   33.7750 N   0  0  0  0  0  0  0  0  0  0  0  0
   40.2800   23.9290   34.7330 C   0  0  0  0  0  0  0  0  0  0  0  0
   40.5200   23.3640   35.9730 C   0  0  0  0  0  0  0  0  0  0  0  0
   39.5110   22.9020   36.7650 N   0  0  0  0  0  0  0  0  0  0  0  0
   38.2200   22.9880   36.3460 C   0  0  0  0  0  0  0  0  0  0  0  0
   37.3660   22.6460   36.9120 H   0  0  0  0  0  0  0  0  0  0  0  0
   37.9650   23.5350   35.1420 N   0  0  0  0  0  0  0  0  0  0  0  0
   38.9520   23.9900   34.3580 C   0  0  0  0  0  0  0  0  0  0  0  0
   41.8530   23.2510   36.4590 N   0  0  0  0  0  0  0  0  0  0  0  0
   42.6240   22.5930   36.6270 H   0  0  0  0  0  0  0  0  0  0  0  0
   42.2950   24.1510   36.7980 H   0  0  0  0  0  0  0  0  0  0  0  0
   35.2760   27.4910   31.7840 O   0  0  0  0  0  0  0  0  0  0  0  0
   36.5220   29.0350   30.4060 C   0  0  0  0  0  0  0  0  0  0  0  0
   37.0770   30.2690   30.0910 C   0  0  0  0  0  0  0  0  0  0  0  0
   36.8520   31.2650   31.0310 C   0  0  0  0  0  0  0  0  0  0  0  0
   36.1200   31.0130   32.1950 C   0  0  0  0  0  0  0  0  0  0  0  0
   35.5990   29.7600   32.4390 C   0  0  0  0  0  0  0  0  0  0  0  0
   35.8040   28.7540   31.5290 C   0  0  0  0  0  0  0  0  0  0  0  0
   37.2850   32.2370   30.7880 H   0  0  0  0  0  0  0  0  0  0  0  0
   36.0020   31.8570   32.8620 H   0  0  0  0  0  0  0  0  0  0  0  0
   35.0490   29.6460   33.3550 H   0  0  0  0  0  0  0  0  0  0  0  0
   37.2700   31.2330   27.8390 C   0  0  0  0  0  0  0  0  0  0  0  0
   37.8230   30.5090   28.8950 C   0  0  0  0  0  0  0  0  0  0  0  0
   39.1320   30.0330   28.7290 C   0  0  0  0  0  0  0  0  0  0  0  0
   39.7820   30.3060   27.5500 N   0  0  0  0  0  0  0  0  0  0  0  0
   39.1900   31.0090   26.5730 C   0  0  0  0  0  0  0  0  0  0  0  0
   37.9370   31.4780   26.7020 N   0  0  0  0  0  0  0  0  0  0  0  0
   36.2520   31.6070   27.9580 H   0  0  0  0  0  0  0  0  0  0  0  0
   39.5590   29.4720   29.5500 H   0  0  0  0  0  0  0  0  0  0  0  0
   39.7270   31.2100   25.6540 H   0  0  0  0  0  0  0  0  0  0  0  0
   36.6940   27.9570   29.5150 O   0  0  0  0  0  0  0  0  0  0  0  0
   36.9500   28.0980   28.5470 H   0  0  0  0  0  0  0  0  0  0  0  0
  2  1  1  0  0  0  0
  3  2  2  0  0  0  0
  4  3  1  0  0  0  0
  5  4  2  0  0  0  0
  5  6  1  0  0  0  0
  6  7  2  0  0  0  0
  7  2  1  0  0  0  0
  7 11  1  0  0  0  0
  8  4  1  0  0  0  0
  9  5  1  0  0  0  0
 10  6  1  0  0  0  0
 11 21  1  0  0  0  0
 12 11  1  0  0  0  0
 12 14  2  0  0  0  0
 13 12  1  0  0  0  0
 14 15  1  0  0  0  0
 15 16  1  0  0  0  0
 16 22  1  0  0  0  0
 16 17  2  0  0  0  0
 18 17  1  0  0  0  0
 18 19  1  0  0  0  0
 20 18  2  0  0  0  0
 21 15  2  0  0  0  0
 21 20  1  0  0  0  0
 22 23  1  0  0  0  0
 22 24  1  0  0  0  0
 25  3  1  0  0  0  0
 26 31  1  0  0  0  0
 27 26  2  0  0  0  0
 27 28  1  0  0  0  0
 28 29  2  0  0  0  0
 29 30  1  0  0  0  0
 29 33  1  0  0  0  0
 30 34  1  0  0  0  0
 31 25  1  0  0  0  0
 31 30  2  0  0  0  0
 32 28  1  0  0  0  0
 35 41  1  0  0  0  0
 35 36  1  0  0  0  0
 36 27  1  0  0  0  0
 37 36  2  0  0  0  0
 37 42  1  0  0  0  0
 38 37  1  0  0  0  0
 39 40  1  0  0  0  0
 39 38  2  0  0  0  0
 40 35  2  0  0  0  0
 43 39  1  0  0  0  0
 44 26  1  0  0  0  0
 45 44  1  0  0  0  0
M  END
>  <minimizedAffinity>
-6.24087572

$$$$
