
 OpenBabel03272501433D

 39 43  0  0  0  0  0  0  0  0999 V2000
   35.2600   29.0990   48.9370 C   0  0  0  0  0  0  0  0  0  0  0  0
   35.2350   29.9150   47.7670 C   0  0  0  0  0  0  0  0  0  0  0  0
   34.1020   29.8530   46.9640 C   0  0  0  0  0  0  0  0  0  0  0  0
   33.0960   29.0250   47.3400 N   0  0  0  0  0  0  0  0  0  0  0  0
   33.1350   28.2640   48.4440 C   0  0  0  0  0  0  0  0  0  0  0  0
   34.2220   28.3070   49.2370 N   0  0  0  0  0  0  0  0  0  0  0  0
   36.0330   29.0010   49.6790 H   0  0  0  0  0  0  0  0  0  0  0  0
   34.1380   30.4770   46.1120 H   0  0  0  0  0  0  0  0  0  0  0  0
   37.0150   31.2890   48.6860 C   0  0  0  0  0  0  0  0  0  0  0  0
   36.4290   30.7150   47.5820 C   0  0  0  0  0  0  0  0  0  0  0  0
   37.0280   30.9380   46.3460 C   0  0  0  0  0  0  0  0  0  0  0  0
   38.1800   31.7250   46.2850 C   0  0  0  0  0  0  0  0  0  0  0  0
   38.9650   32.1120   45.2630 N   0  0  0  0  0  0  0  0  0  0  0  0
   39.9700   32.8760   45.7270 C   0  0  0  0  0  0  0  0  0  0  0  0
   39.8280   32.9850   47.0760 N   0  0  0  0  0  0  0  0  0  0  0  0
   38.7370   32.2820   47.4040 C   0  0  0  0  0  0  0  0  0  0  0  0
   38.1530   32.0650   48.6160 C   0  0  0  0  0  0  0  0  0  0  0  0
   36.6390   31.1910   49.7180 H   0  0  0  0  0  0  0  0  0  0  0  0
   36.5900   30.5030   45.4810 H   0  0  0  0  0  0  0  0  0  0  0  0
   38.7700   31.8250   44.2800 H   0  0  0  0  0  0  0  0  0  0  0  0
   40.7340   33.3050   45.0800 H   0  0  0  0  0  0  0  0  0  0  0  0
   38.6160   32.5220   49.5060 H   0  0  0  0  0  0  0  0  0  0  0  0
   31.9600   27.3940   48.7470 C   0  0  0  0  0  0  0  0  0  0  0  0
   32.1540   26.9780   49.7660 H   0  0  0  0  0  0  0  0  0  0  0  0
   31.0290   27.9620   48.8350 H   0  0  0  0  0  0  0  0  0  0  0  0
   31.8960   26.3140   47.7970 N   0  0  0  0  0  0  0  0  0  0  0  0
   32.8300   25.4640   47.3310 C   0  0  0  0  0  0  0  0  0  0  0  0
   33.8520   25.5340   47.6850 H   0  0  0  0  0  0  0  0  0  0  0  0
   32.2370   24.6310   46.4420 N   0  0  0  0  0  0  0  0  0  0  0  0
   30.9520   24.9420   46.3390 C   0  0  0  0  0  0  0  0  0  0  0  0
   29.9410   24.3770   45.5600 C   0  0  0  0  0  0  0  0  0  0  0  0
   28.7040   24.9110   45.6650 N   0  0  0  0  0  0  0  0  0  0  0  0
   28.4880   25.9600   46.5070 C   0  0  0  0  0  0  0  0  0  0  0  0
   27.5110   26.4130   46.6170 H   0  0  0  0  0  0  0  0  0  0  0  0
   29.4530   26.5110   47.2630 N   0  0  0  0  0  0  0  0  0  0  0  0
   30.7180   26.0080   47.1930 C   0  0  0  0  0  0  0  0  0  0  0  0
   30.1960   23.2770   44.6830 N   0  0  0  0  0  0  0  0  0  0  0  0
   29.5240   22.5060   44.9670 H   0  0  0  0  0  0  0  0  0  0  0  0
   30.9320   23.3390   43.9400 H   0  0  0  0  0  0  0  0  0  0  0  0
  1  6  1  0  0  0  0
  1  7  1  0  0  0  0
  2  1  2  0  0  0  0
  3  4  2  0  0  0  0
  3  2  1  0  0  0  0
  4  5  1  0  0  0  0
  5 23  1  0  0  0  0
  5  6  2  0  0  0  0
  8  3  1  0  0  0  0
  9 18  1  0  0  0  0
 10  2  1  0  0  0  0
 10  9  2  0  0  0  0
 11 10  1  0  0  0  0
 12 11  2  0  0  0  0
 12 16  1  0  0  0  0
 13 14  1  0  0  0  0
 13 12  1  0  0  0  0
 14 15  2  0  0  0  0
 15 16  1  0  0  0  0
 16 17  2  0  0  0  0
 17  9  1  0  0  0  0
 17 22  1  0  0  0  0
 19 11  1  0  0  0  0
 20 13  1  0  0  0  0
 21 14  1  0  0  0  0
 23 25  1  0  0  0  0
 23 24  1  0  0  0  0
 26 23  1  0  0  0  0
 27 28  1  0  0  0  0
 27 26  1  0  0  0  0
 29 27  2  0  0  0  0
 30 29  1  0  0  0  0
 30 36  1  0  0  0  0
 31 32  1  0  0  0  0
 31 30  2  0  0  0  0
 32 33  2  0  0  0  0
 33 34  1  0  0  0  0
 33 35  1  0  0  0  0
 36 35  2  0  0  0  0
 36 26  1  0  0  0  0
 37 38  1  0  0  0  0
 37 31  1  0  0  0  0
 39 37  1  0  0  0  0
M  END
>  <minimizedAffinity>
-5.81860781

>  <minimizedRMSD>
1.90764499

$$$$
