
 OpenBabel03262522593D

 43 48  0  0  0  0  0  0  0  0999 V2000
   37.1610   29.4140   51.3120 C   0  0  0  0  0  0  0  0  0  0  0  0
   37.9630   30.2030   50.4410 C   0  0  0  0  0  0  0  0  0  0  0  0
   37.5290   30.3310   49.1340 C   0  0  0  0  0  0  0  0  0  0  0  0
   36.3880   29.7210   48.7340 N   0  0  0  0  0  0  0  0  0  0  0  0
   35.6430   28.9700   49.6030 C   0  0  0  0  0  0  0  0  0  0  0  0
   36.0450   28.8350   50.8650 N   0  0  0  0  0  0  0  0  0  0  0  0
   37.5400   29.3460   52.3160 H   0  0  0  0  0  0  0  0  0  0  0  0
   38.8630   30.7090   50.6810 H   0  0  0  0  0  0  0  0  0  0  0  0
   38.1750   31.0690   48.1040 N   0  0  0  0  0  0  0  0  0  0  0  0
   38.2990   30.6650   46.8160 C   0  0  0  0  0  0  0  0  0  0  0  0
   37.9110   29.7250   46.4420 H   0  0  0  0  0  0  0  0  0  0  0  0
   38.9690   31.6070   46.1040 N   0  0  0  0  0  0  0  0  0  0  0  0
   39.2670   32.6010   46.9390 C   0  0  0  0  0  0  0  0  0  0  0  0
   39.9430   33.7760   46.6670 C   0  0  0  0  0  0  0  0  0  0  0  0
   40.1080   34.6200   47.7140 N   0  0  0  0  0  0  0  0  0  0  0  0
   39.6220   34.2950   48.9460 C   0  0  0  0  0  0  0  0  0  0  0  0
   39.8280   35.0630   49.6830 H   0  0  0  0  0  0  0  0  0  0  0  0
   38.9570   33.1290   49.1910 N   0  0  0  0  0  0  0  0  0  0  0  0
   38.7710   32.2660   48.1870 C   0  0  0  0  0  0  0  0  0  0  0  0
   34.4260   28.3320   49.1320 C   0  0  0  0  0  0  0  0  0  0  0  0
   34.3560   27.3300   48.1830 C   0  0  0  0  0  0  0  0  0  0  0  0
   33.0420   26.9910   48.0080 C   0  0  0  0  0  0  0  0  0  0  0  0
   32.3140   27.7950   48.8580 N   0  0  0  0  0  0  0  0  0  0  0  0
   33.1770   28.5780   49.5080 N   0  0  0  0  0  0  0  0  0  0  0  0
   30.1040   27.1590   48.0030 N   0  0  0  0  0  0  0  0  0  0  0  0
   30.9070   27.7270   48.9510 C   0  0  0  0  0  0  0  0  0  0  0  0
   30.0840   28.1660   49.9160 N   0  0  0  0  0  0  0  0  0  0  0  0
   28.7940   27.8960   49.6090 C   0  0  0  0  0  0  0  0  0  0  0  0
   27.5650   28.0890   50.1700 C   0  0  0  0  0  0  0  0  0  0  0  0
   26.4550   27.6590   49.5320 N   0  0  0  0  0  0  0  0  0  0  0  0
   26.5210   27.0400   48.3480 C   0  0  0  0  0  0  0  0  0  0  0  0
   27.7110   26.8300   47.7600 N   0  0  0  0  0  0  0  0  0  0  0  0
   28.8140   27.2530   48.3880 C   0  0  0  0  0  0  0  0  0  0  0  0
   35.2290   26.9030   47.6770 H   0  0  0  0  0  0  0  0  0  0  0  0
   32.6710   26.2400   47.3340 H   0  0  0  0  0  0  0  0  0  0  0  0
   30.4320   26.7090   47.0990 H   0  0  0  0  0  0  0  0  0  0  0  0
   25.6340   26.6900   47.8260 H   0  0  0  0  0  0  0  0  0  0  0  0
   27.5280   28.7560   51.4370 N   0  0  0  0  0  0  0  0  0  0  0  0
   26.8160   29.4840   51.7020 H   0  0  0  0  0  0  0  0  0  0  0  0
   28.2230   28.5510   52.1880 H   0  0  0  0  0  0  0  0  0  0  0  0
   40.4300   34.0640   45.3550 N   0  0  0  0  0  0  0  0  0  0  0  0
   39.6000   34.4150   44.7900 H   0  0  0  0  0  0  0  0  0  0  0  0
   41.3880   33.9840   44.9270 H   0  0  0  0  0  0  0  0  0  0  0  0
  1  7  1  0  0  0  0
  2  8  1  0  0  0  0
  2  1  2  0  0  0  0
  3  2  1  0  0  0  0
  4  3  2  0  0  0  0
  4  5  1  0  0  0  0
  5  6  2  0  0  0  0
  6  1  1  0  0  0  0
  9 19  1  0  0  0  0
  9  3  1  0  0  0  0
 10  9  1  0  0  0  0
 11 10  1  0  0  0  0
 12 10  2  0  0  0  0
 12 13  1  0  0  0  0
 13 19  1  0  0  0  0
 14 13  2  0  0  0  0
 14 15  1  0  0  0  0
 15 16  2  0  0  0  0
 16 18  1  0  0  0  0
 16 17  1  0  0  0  0
 19 18  2  0  0  0  0
 20 24  2  0  0  0  0
 20  5  1  0  0  0  0
 21 20  1  0  0  0  0
 22 21  2  0  0  0  0
 22 23  1  0  0  0  0
 23 26  1  0  0  0  0
 23 24  1  0  0  0  0
 25 33  1  0  0  0  0
 25 26  1  0  0  0  0
 26 27  2  0  0  0  0
 28 27  1  0  0  0  0
 28 29  1  0  0  0  0
 29 38  1  0  0  0  0
 30 29  2  0  0  0  0
 31 30  1  0  0  0  0
 32 31  2  0  0  0  0
 32 33  1  0  0  0  0
 33 28  2  0  0  0  0
 34 21  1  0  0  0  0
 35 22  1  0  0  0  0
 36 25  1  0  0  0  0
 37 31  1  0  0  0  0
 38 39  1  0  0  0  0
 38 40  1  0  0  0  0
 41 14  1  0  0  0  0
 42 41  1  0  0  0  0
 43 41  1  0  0  0  0
M  END
>  <minimizedAffinity>
-8.33251381

>  <minimizedRMSD>
1.6801945

$$$$
