
 OpenBabel03262523003D

 43 48  0  0  0  0  0  0  0  0999 V2000
   38.7220   27.3290   31.4690 C   0  0  0  0  0  0  0  0  0  0  0  0
   39.0420   26.4970   32.5780 C   0  0  0  0  0  0  0  0  0  0  0  0
   38.1970   26.5590   33.6720 C   0  0  0  0  0  0  0  0  0  0  0  0
   37.1230   27.3840   33.6550 N   0  0  0  0  0  0  0  0  0  0  0  0
   36.8490   28.1690   32.5680 C   0  0  0  0  0  0  0  0  0  0  0  0
   37.6500   28.1230   31.5060 N   0  0  0  0  0  0  0  0  0  0  0  0
   39.4070   27.2450   30.6440 H   0  0  0  0  0  0  0  0  0  0  0  0
   39.8620   25.8300   32.6630 H   0  0  0  0  0  0  0  0  0  0  0  0
   38.3320   25.8180   34.8790 N   0  0  0  0  0  0  0  0  0  0  0  0
   38.1110   26.3080   36.1230 C   0  0  0  0  0  0  0  0  0  0  0  0
   37.8060   27.3280   36.3200 H   0  0  0  0  0  0  0  0  0  0  0  0
   38.3320   25.3340   37.0430 N   0  0  0  0  0  0  0  0  0  0  0  0
   38.6900   24.2350   36.3820 C   0  0  0  0  0  0  0  0  0  0  0  0
   39.0120   22.9920   36.8960 C   0  0  0  0  0  0  0  0  0  0  0  0
   39.3430   22.0440   35.9860 N   0  0  0  0  0  0  0  0  0  0  0  0
   39.3460   22.3350   34.6540 C   0  0  0  0  0  0  0  0  0  0  0  0
   39.6300   21.4810   34.0490 H   0  0  0  0  0  0  0  0  0  0  0  0
   39.0230   23.5690   34.1700 N   0  0  0  0  0  0  0  0  0  0  0  0
   38.6900   24.5360   35.0310 C   0  0  0  0  0  0  0  0  0  0  0  0
   35.6860   29.0390   32.5930 C   0  0  0  0  0  0  0  0  0  0  0  0
   35.2940   29.8910   31.5780 C   0  0  0  0  0  0  0  0  0  0  0  0
   34.1560   30.5400   31.9730 C   0  0  0  0  0  0  0  0  0  0  0  0
   33.8590   30.0760   33.2360 N   0  0  0  0  0  0  0  0  0  0  0  0
   34.7960   29.1840   33.5660 N   0  0  0  0  0  0  0  0  0  0  0  0
   32.0610   31.6800   33.6960 N   0  0  0  0  0  0  0  0  0  0  0  0
   32.7400   30.5260   33.9680 C   0  0  0  0  0  0  0  0  0  0  0  0
   32.1200   29.9740   35.0230 N   0  0  0  0  0  0  0  0  0  0  0  0
   31.0780   30.7390   35.4240 C   0  0  0  0  0  0  0  0  0  0  0  0
   30.1180   30.7030   36.3940 C   0  0  0  0  0  0  0  0  0  0  0  0
   29.2080   31.6960   36.4820 N   0  0  0  0  0  0  0  0  0  0  0  0
   29.2140   32.7320   35.6360 C   0  0  0  0  0  0  0  0  0  0  0  0
   30.1420   32.8070   34.6660 N   0  0  0  0  0  0  0  0  0  0  0  0
   31.0470   31.8250   34.5730 C   0  0  0  0  0  0  0  0  0  0  0  0
   35.8310   30.0010   30.6290 H   0  0  0  0  0  0  0  0  0  0  0  0
   33.6150   31.2670   31.3940 H   0  0  0  0  0  0  0  0  0  0  0  0
   32.2880   32.3660   32.9180 H   0  0  0  0  0  0  0  0  0  0  0  0
   28.4850   33.5360   35.6970 H   0  0  0  0  0  0  0  0  0  0  0  0
   30.1390   29.5810   37.2850 N   0  0  0  0  0  0  0  0  0  0  0  0
   29.9720   29.6460   38.3220 H   0  0  0  0  0  0  0  0  0  0  0  0
   30.3260   28.6120   36.9470 H   0  0  0  0  0  0  0  0  0  0  0  0
   38.9930   22.7440   38.3030 N   0  0  0  0  0  0  0  0  0  0  0  0
   37.9760   22.5870   38.5720 H   0  0  0  0  0  0  0  0  0  0  0  0
   39.7620   22.7010   39.0210 H   0  0  0  0  0  0  0  0  0  0  0  0
  1  6  2  0  0  0  0
  1  2  1  0  0  0  0
  2  8  1  0  0  0  0
  2  3  2  0  0  0  0
  3  9  1  0  0  0  0
  4  3  1  0  0  0  0
  5 20  1  0  0  0  0
  5  4  2  0  0  0  0
  6  5  1  0  0  0  0
  7  1  1  0  0  0  0
  9 19  1  0  0  0  0
  9 10  1  0  0  0  0
 10 11  1  0  0  0  0
 10 12  2  0  0  0  0
 13 14  1  0  0  0  0
 13 12  1  0  0  0  0
 14 41  1  0  0  0  0
 15 14  2  0  0  0  0
 16 15  1  0  0  0  0
 17 16  1  0  0  0  0
 18 16  2  0  0  0  0
 18 19  1  0  0  0  0
 19 13  2  0  0  0  0
 20 24  2  0  0  0  0
 21 22  2  0  0  0  0
 21 20  1  0  0  0  0
 22 23  1  0  0  0  0
 23 24  1  0  0  0  0
 23 26  1  0  0  0  0
 25 26  1  0  0  0  0
 25 33  1  0  0  0  0
 26 27  2  0  0  0  0
 27 28  1  0  0  0  0
 28 29  1  0  0  0  0
 29 30  2  0  0  0  0
 29 38  1  0  0  0  0
 31 37  1  0  0  0  0
 31 30  1  0  0  0  0
 32 31  2  0  0  0  0
 33 32  1  0  0  0  0
 33 28  2  0  0  0  0
 34 21  1  0  0  0  0
 35 22  1  0  0  0  0
 36 25  1  0  0  0  0
 38 39  1  0  0  0  0
 40 38  1  0  0  0  0
 41 42  1  0  0  0  0
 41 43  1  0  0  0  0
M  END
>  <minimizedAffinity>
-7.03034973

$$$$

 OpenBabel03262523003D

 43 48  0  0  0  0  0  0  0  0999 V2000
   34.5970   30.9190   31.1700 C   0  0  0  0  0  0  0  0  0  0  0  0
   33.4600   31.0460   32.0170 C   0  0  0  0  0  0  0  0  0  0  0  0
   33.3850   30.1850   33.0980 C   0  0  0  0  0  0  0  0  0  0  0  0
   34.3650   29.2760   33.3120 N   0  0  0  0  0  0  0  0  0  0  0  0
   35.4440   29.1850   32.4740 C   0  0  0  0  0  0  0  0  0  0  0  0
   35.5340   30.0030   31.4290 N   0  0  0  0  0  0  0  0  0  0  0  0
   34.6100   31.6090   30.3460 H   0  0  0  0  0  0  0  0  0  0  0  0
   32.6570   31.7300   31.9130 H   0  0  0  0  0  0  0  0  0  0  0  0
   32.3410   30.1420   34.0630 N   0  0  0  0  0  0  0  0  0  0  0  0
   31.8090   29.0090   34.5860 C   0  0  0  0  0  0  0  0  0  0  0  0
   32.1340   28.0130   34.3110 H   0  0  0  0  0  0  0  0  0  0  0  0
   30.8360   29.3300   35.4760 N   0  0  0  0  0  0  0  0  0  0  0  0
   30.7540   30.6580   35.5150 C   0  0  0  0  0  0  0  0  0  0  0  0
   29.9080   31.4430   36.2770 C   0  0  0  0  0  0  0  0  0  0  0  0
   30.0400   32.7830   36.1190 N   0  0  0  0  0  0  0  0  0  0  0  0
   30.9630   33.2880   35.2520 C   0  0  0  0  0  0  0  0  0  0  0  0
   30.9550   34.3720   35.2310 H   0  0  0  0  0  0  0  0  0  0  0  0
   31.7890   32.4940   34.5110 N   0  0  0  0  0  0  0  0  0  0  0  0
   31.6930   31.1660   34.6340 C   0  0  0  0  0  0  0  0  0  0  0  0
   36.4720   28.1950   32.7410 C   0  0  0  0  0  0  0  0  0  0  0  0
   37.5410   27.8990   31.9170 C   0  0  0  0  0  0  0  0  0  0  0  0
   38.2850   26.9160   32.5090 C   0  0  0  0  0  0  0  0  0  0  0  0
   37.6610   26.6160   33.7010 N   0  0  0  0  0  0  0  0  0  0  0  0
   36.5860   27.4010   33.7990 N   0  0  0  0  0  0  0  0  0  0  0  0
   39.0350   24.6570   34.2400 N   0  0  0  0  0  0  0  0  0  0  0  0
   38.1510   25.6370   34.5910 C   0  0  0  0  0  0  0  0  0  0  0  0
   37.8880   25.4460   35.8940 N   0  0  0  0  0  0  0  0  0  0  0  0
   38.5750   24.3840   36.3730 C   0  0  0  0  0  0  0  0  0  0  0  0
   38.7130   23.7290   37.5630 C   0  0  0  0  0  0  0  0  0  0  0  0
   39.5290   22.6570   37.6550 N   0  0  0  0  0  0  0  0  0  0  0  0
   40.2180   22.2070   36.6010 C   0  0  0  0  0  0  0  0  0  0  0  0
   40.1110   22.8220   35.4100 N   0  0  0  0  0  0  0  0  0  0  0  0
   39.3040   23.8850   35.3130 C   0  0  0  0  0  0  0  0  0  0  0  0
   37.7270   28.3910   30.9560 H   0  0  0  0  0  0  0  0  0  0  0  0
   39.1810   26.4770   32.1070 H   0  0  0  0  0  0  0  0  0  0  0  0
   39.4540   24.5140   33.2750 H   0  0  0  0  0  0  0  0  0  0  0  0
   40.8790   21.3460   36.6630 H   0  0  0  0  0  0  0  0  0  0  0  0
   37.9610   24.2350   38.6730 N   0  0  0  0  0  0  0  0  0  0  0  0
   37.4650   23.6300   39.3760 H   0  0  0  0  0  0  0  0  0  0  0  0
   37.8610   25.2580   38.8500 H   0  0  0  0  0  0  0  0  0  0  0  0
   28.9580   30.8580   37.1700 N   0  0  0  0  0  0  0  0  0  0  0  0
   29.4910   30.5860   38.0500 H   0  0  0  0  0  0  0  0  0  0  0  0
   27.9240   30.6830   37.0820 H   0  0  0  0  0  0  0  0  0  0  0  0
  1  6  2  0  0  0  0
  1  2  1  0  0  0  0
  2  3  2  0  0  0  0
  3  4  1  0  0  0  0
  3  9  1  0  0  0  0
  5 20  1  0  0  0  0
  5  4  2  0  0  0  0
  6  5  1  0  0  0  0
  7  1  1  0  0  0  0
  8  2  1  0  0  0  0
  9 10  1  0  0  0  0
  9 19  1  0  0  0  0
 10 12  2  0  0  0  0
 11 10  1  0  0  0  0
 12 13  1  0  0  0  0
 13 14  1  0  0  0  0
 14 41  1  0  0  0  0
 15 14  2  0  0  0  0
 16 15  1  0  0  0  0
 17 16  1  0  0  0  0
 18 19  1  0  0  0  0
 18 16  2  0  0  0  0
 19 13  2  0  0  0  0
 20 24  2  0  0  0  0
 21 22  2  0  0  0  0
 21 20  1  0  0  0  0
 22 23  1  0  0  0  0
 23 24  1  0  0  0  0
 23 26  1  0  0  0  0
 25 26  1  0  0  0  0
 25 33  1  0  0  0  0
 26 27  2  0  0  0  0
 27 28  1  0  0  0  0
 28 29  1  0  0  0  0
 29 30  2  0  0  0  0
 29 38  1  0  0  0  0
 31 37  1  0  0  0  0
 31 30  1  0  0  0  0
 32 31  2  0  0  0  0
 33 32  1  0  0  0  0
 33 28  2  0  0  0  0
 34 21  1  0  0  0  0
 35 22  1  0  0  0  0
 36 25  1  0  0  0  0
 38 40  1  0  0  0  0
 38 39  1  0  0  0  0
 41 42  1  0  0  0  0
 43 41  1  0  0  0  0
M  END
>  <minimizedAffinity>
-6.93047762

$$$$

 OpenBabel03262523003D

 43 48  0  0  0  0  0  0  0  0999 V2000
   38.4550   27.5100   31.7610 C   0  0  0  0  0  0  0  0  0  0  0  0
   38.8520   26.6380   32.8140 C   0  0  0  0  0  0  0  0  0  0  0  0
   38.0460   26.6060   33.9380 C   0  0  0  0  0  0  0  0  0  0  0  0
   36.9370   27.3800   34.0020 N   0  0  0  0  0  0  0  0  0  0  0  0
   36.5880   28.2060   32.9670 C   0  0  0  0  0  0  0  0  0  0  0  0
   37.3510   28.2520   31.8780 N   0  0  0  0  0  0  0  0  0  0  0  0
   39.1120   27.5000   30.9110 H   0  0  0  0  0  0  0  0  0  0  0  0
   39.7020   26.0050   32.8350 H   0  0  0  0  0  0  0  0  0  0  0  0
   38.2570   25.8110   35.0980 N   0  0  0  0  0  0  0  0  0  0  0  0
   38.0610   26.2260   36.3740 C   0  0  0  0  0  0  0  0  0  0  0  0
   37.7190   27.2200   36.6350 H   0  0  0  0  0  0  0  0  0  0  0  0
   38.3580   25.2170   37.2330 N   0  0  0  0  0  0  0  0  0  0  0  0
   38.7390   24.1710   36.5030 C   0  0  0  0  0  0  0  0  0  0  0  0
   39.1350   22.9200   36.9400 C   0  0  0  0  0  0  0  0  0  0  0  0
   39.4740   22.0350   35.9700 N   0  0  0  0  0  0  0  0  0  0  0  0
   39.4150   22.3940   34.6560 C   0  0  0  0  0  0  0  0  0  0  0  0
   39.7130   21.5860   33.9970 H   0  0  0  0  0  0  0  0  0  0  0  0
   39.0200   23.6350   34.2490 N   0  0  0  0  0  0  0  0  0  0  0  0
   38.6770   24.5400   35.1710 C   0  0  0  0  0  0  0  0  0  0  0  0
   35.3900   29.0190   33.0780 C   0  0  0  0  0  0  0  0  0  0  0  0
   34.7840   29.4070   34.2570 C   0  0  0  0  0  0  0  0  0  0  0  0
   33.6850   30.1620   33.9520 C   0  0  0  0  0  0  0  0  0  0  0  0
   33.6270   30.2310   32.5770 N   0  0  0  0  0  0  0  0  0  0  0  0
   34.6610   29.5370   32.0970 N   0  0  0  0  0  0  0  0  0  0  0  0
   31.4230   31.3010   32.4530 N   0  0  0  0  0  0  0  0  0  0  0  0
   32.6140   30.9350   31.8930 C   0  0  0  0  0  0  0  0  0  0  0  0
   32.5770   31.3820   30.6260 N   0  0  0  0  0  0  0  0  0  0  0  0
   31.4080   32.0140   30.3730 C   0  0  0  0  0  0  0  0  0  0  0  0
   30.8160   32.6470   29.3180 C   0  0  0  0  0  0  0  0  0  0  0  0
   29.5810   33.1770   29.4540 N   0  0  0  0  0  0  0  0  0  0  0  0
   28.9070   33.1000   30.6080 C   0  0  0  0  0  0  0  0  0  0  0  0
   29.4540   32.4850   31.6700 N   0  0  0  0  0  0  0  0  0  0  0  0
   30.6770   31.9590   31.5420 C   0  0  0  0  0  0  0  0  0  0  0  0
   35.1530   29.1360   35.2530 H   0  0  0  0  0  0  0  0  0  0  0  0
   33.0110   30.6070   34.6620 H   0  0  0  0  0  0  0  0  0  0  0  0
   31.1200   31.1040   33.4510 H   0  0  0  0  0  0  0  0  0  0  0  0
   27.9130   33.5240   30.7280 H   0  0  0  0  0  0  0  0  0  0  0  0
   31.5620   32.7110   28.0980 N   0  0  0  0  0  0  0  0  0  0  0  0
   31.1470   32.5690   27.1410 H   0  0  0  0  0  0  0  0  0  0  0  0
   32.5870   32.9070   28.0880 H   0  0  0  0  0  0  0  0  0  0  0  0
   39.1780   22.6000   38.3310 N   0  0  0  0  0  0  0  0  0  0  0  0
   38.1800   22.3830   38.6270 H   0  0  0  0  0  0  0  0  0  0  0  0
   39.9740   22.5550   39.0190 H   0  0  0  0  0  0  0  0  0  0  0  0
  1  6  2  0  0  0  0
  1  2  1  0  0  0  0
  2  8  1  0  0  0  0
  2  3  2  0  0  0  0
  3  4  1  0  0  0  0
  3  9  1  0  0  0  0
  5 20  1  0  0  0  0
  5  4  2  0  0  0  0
  6  5  1  0  0  0  0
  7  1  1  0  0  0  0
  9 19  1  0  0  0  0
  9 10  1  0  0  0  0
 10 11  1  0  0  0  0
 10 12  2  0  0  0  0
 13 14  1  0  0  0  0
 13 12  1  0  0  0  0
 14 41  1  0  0  0  0
 15 14  2  0  0  0  0
 16 15  1  0  0  0  0
 17 16  1  0  0  0  0
 18 16  2  0  0  0  0
 18 19  1  0  0  0  0
 19 13  2  0  0  0  0
 20 21  1  0  0  0  0
 21 34  1  0  0  0  0
 22 21  2  0  0  0  0
 22 35  1  0  0  0  0
 23 22  1  0  0  0  0
 24 23  1  0  0  0  0
 24 20  2  0  0  0  0
 25 36  1  0  0  0  0
 26 25  1  0  0  0  0
 26 23  1  0  0  0  0
 27 26  2  0  0  0  0
 28 27  1  0  0  0  0
 28 33  1  0  0  0  0
 29 30  1  0  0  0  0
 29 28  2  0  0  0  0
 30 31  2  0  0  0  0
 31 37  1  0  0  0  0
 31 32  1  0  0  0  0
 33 32  2  0  0  0  0
 33 25  1  0  0  0  0
 38 29  1  0  0  0  0
 39 38  1  0  0  0  0
 40 38  1  0  0  0  0
 41 42  1  0  0  0  0
 41 43  1  0  0  0  0
M  END
>  <minimizedAffinity>
-6.8636384

$$$$

 OpenBabel03262523003D

 43 48  0  0  0  0  0  0  0  0999 V2000
   36.9430   23.6940   32.2810 C   0  0  0  0  0  0  0  0  0  0  0  0
   38.1840   23.4530   32.9340 C   0  0  0  0  0  0  0  0  0  0  0  0
   38.8470   24.5540   33.4470 C   0  0  0  0  0  0  0  0  0  0  0  0
   38.3110   25.7910   33.3160 N   0  0  0  0  0  0  0  0  0  0  0  0
   37.1130   25.9820   32.6810 C   0  0  0  0  0  0  0  0  0  0  0  0
   36.4610   24.9350   32.1810 N   0  0  0  0  0  0  0  0  0  0  0  0
   36.4670   22.8080   31.9000 H   0  0  0  0  0  0  0  0  0  0  0  0
   38.6640   22.5180   33.0740 H   0  0  0  0  0  0  0  0  0  0  0  0
   40.0930   24.5390   34.1320 N   0  0  0  0  0  0  0  0  0  0  0  0
   41.0820   25.4520   33.9720 C   0  0  0  0  0  0  0  0  0  0  0  0
   41.0160   26.2950   33.2950 H   0  0  0  0  0  0  0  0  0  0  0  0
   42.1290   25.1370   34.7770 N   0  0  0  0  0  0  0  0  0  0  0  0
   41.8020   24.0310   35.4420 C   0  0  0  0  0  0  0  0  0  0  0  0
   42.5510   23.3380   36.3750 C   0  0  0  0  0  0  0  0  0  0  0  0
   41.9680   22.2330   36.9000 N   0  0  0  0  0  0  0  0  0  0  0  0
   40.7170   21.8590   36.5080 C   0  0  0  0  0  0  0  0  0  0  0  0
   40.3810   20.9600   37.0110 H   0  0  0  0  0  0  0  0  0  0  0  0
   39.9950   22.5590   35.5860 N   0  0  0  0  0  0  0  0  0  0  0  0
   40.5310   23.6560   35.0400 C   0  0  0  0  0  0  0  0  0  0  0  0
   36.5750   27.3260   32.5640 C   0  0  0  0  0  0  0  0  0  0  0  0
   36.1170   27.9130   31.4000 C   0  0  0  0  0  0  0  0  0  0  0  0
   35.6910   29.1790   31.6920 C   0  0  0  0  0  0  0  0  0  0  0  0
   35.8940   29.3580   33.0440 N   0  0  0  0  0  0  0  0  0  0  0  0
   36.4210   28.2300   33.5230 N   0  0  0  0  0  0  0  0  0  0  0  0
   35.3730   31.7560   33.0790 N   0  0  0  0  0  0  0  0  0  0  0  0
   35.5670   30.5590   33.7090 C   0  0  0  0  0  0  0  0  0  0  0  0
   35.3820   30.7980   35.0180 N   0  0  0  0  0  0  0  0  0  0  0  0
   35.0800   32.0990   35.2310 C   0  0  0  0  0  0  0  0  0  0  0  0
   34.7980   32.9040   36.2970 C   0  0  0  0  0  0  0  0  0  0  0  0
   34.5350   34.2140   36.1050 N   0  0  0  0  0  0  0  0  0  0  0  0
   34.5420   34.7600   34.8830 C   0  0  0  0  0  0  0  0  0  0  0  0
   34.8140   34.0030   33.8060 N   0  0  0  0  0  0  0  0  0  0  0  0
   35.0750   32.7040   33.9910 C   0  0  0  0  0  0  0  0  0  0  0  0
   36.1120   27.4150   30.4240 H   0  0  0  0  0  0  0  0  0  0  0  0
   35.2800   29.8820   30.9890 H   0  0  0  0  0  0  0  0  0  0  0  0
   35.4420   31.9260   32.0330 H   0  0  0  0  0  0  0  0  0  0  0  0
   34.3310   35.8130   34.7160 H   0  0  0  0  0  0  0  0  0  0  0  0
   34.8000   32.2910   37.5920 N   0  0  0  0  0  0  0  0  0  0  0  0
   35.2050   32.7340   38.4560 H   0  0  0  0  0  0  0  0  0  0  0  0
   34.3900   31.3450   37.7540 H   0  0  0  0  0  0  0  0  0  0  0  0
   43.8590   23.7760   36.7480 N   0  0  0  0  0  0  0  0  0  0  0  0
   43.7290   24.5680   37.4460 H   0  0  0  0  0  0  0  0  0  0  0  0
   44.8190   23.4550   36.4580 H   0  0  0  0  0  0  0  0  0  0  0  0
  1  2  1  0  0  0  0
  2  8  1  0  0  0  0
  2  3  2  0  0  0  0
  3  9  1  0  0  0  0
  4  3  1  0  0  0  0
  5  4  2  0  0  0  0
  6  1  2  0  0  0  0
  6  5  1  0  0  0  0
  7  1  1  0  0  0  0
  9 19  1  0  0  0  0
 10  9  1  0  0  0  0
 10 12  2  0  0  0  0
 11 10  1  0  0  0  0
 12 13  1  0  0  0  0
 13 14  1  0  0  0  0
 14 41  1  0  0  0  0
 14 15  2  0  0  0  0
 16 15  1  0  0  0  0
 16 17  1  0  0  0  0
 18 16  2  0  0  0  0
 19 13  2  0  0  0  0
 19 18  1  0  0  0  0
 20  5  1  0  0  0  0
 20 24  2  0  0  0  0
 21 22  2  0  0  0  0
 21 20  1  0  0  0  0
 22 23  1  0  0  0  0
 23 24  1  0  0  0  0
 23 26  1  0  0  0  0
 25 26  1  0  0  0  0
 25 33  1  0  0  0  0
 26 27  2  0  0  0  0
 27 28  1  0  0  0  0
 28 29  1  0  0  0  0
 29 38  1  0  0  0  0
 30 29  2  0  0  0  0
 31 30  1  0  0  0  0
 32 33  1  0  0  0  0
 32 31  2  0  0  0  0
 33 28  2  0  0  0  0
 34 21  1  0  0  0  0
 35 22  1  0  0  0  0
 36 25  1  0  0  0  0
 37 31  1  0  0  0  0
 38 40  1  0  0  0  0
 38 39  1  0  0  0  0
 41 42  1  0  0  0  0
 43 41  1  0  0  0  0
M  END
>  <minimizedAffinity>
-6.7416501

$$$$

 OpenBabel03262523003D

 43 48  0  0  0  0  0  0  0  0999 V2000
   38.9430   24.2620   34.6870 C   0  0  0  0  0  0  0  0  0  0  0  0
   38.5930   23.1040   33.9380 C   0  0  0  0  0  0  0  0  0  0  0  0
   37.6470   23.2640   32.9410 C   0  0  0  0  0  0  0  0  0  0  0  0
   37.0990   24.4810   32.7140 N   0  0  0  0  0  0  0  0  0  0  0  0
   37.4620   25.5720   33.4560 C   0  0  0  0  0  0  0  0  0  0  0  0
   38.3700   25.4380   34.4200 N   0  0  0  0  0  0  0  0  0  0  0  0
   39.6810   24.0870   35.4490 H   0  0  0  0  0  0  0  0  0  0  0  0
   38.9780   22.1230   34.0580 H   0  0  0  0  0  0  0  0  0  0  0  0
   37.1560   22.2440   32.0800 N   0  0  0  0  0  0  0  0  0  0  0  0
   35.8620   22.1000   31.7000 C   0  0  0  0  0  0  0  0  0  0  0  0
   35.0660   22.7600   32.0240 H   0  0  0  0  0  0  0  0  0  0  0  0
   35.7440   21.0260   30.8780 N   0  0  0  0  0  0  0  0  0  0  0  0
   36.9570   20.4950   30.7390 C   0  0  0  0  0  0  0  0  0  0  0  0
   37.3290   19.3900   29.9960 C   0  0  0  0  0  0  0  0  0  0  0  0
   38.6450   19.0680   30.0330 N   0  0  0  0  0  0  0  0  0  0  0  0
   39.5180   19.8120   30.7700 C   0  0  0  0  0  0  0  0  0  0  0  0
   40.5330   19.4360   30.7050 H   0  0  0  0  0  0  0  0  0  0  0  0
   39.1280   20.8990   31.4960 N   0  0  0  0  0  0  0  0  0  0  0  0
   37.8390   21.2550   31.4890 C   0  0  0  0  0  0  0  0  0  0  0  0
   36.8490   26.8590   33.1780 C   0  0  0  0  0  0  0  0  0  0  0  0
   36.3550   27.2700   31.9550 C   0  0  0  0  0  0  0  0  0  0  0  0
   35.8590   28.5370   32.0920 C   0  0  0  0  0  0  0  0  0  0  0  0
   36.0550   28.8940   33.4090 N   0  0  0  0  0  0  0  0  0  0  0  0
   36.6470   27.8660   34.0190 N   0  0  0  0  0  0  0  0  0  0  0  0
   35.3990   31.2440   33.1520 N   0  0  0  0  0  0  0  0  0  0  0  0
   35.6630   30.1480   33.9230 C   0  0  0  0  0  0  0  0  0  0  0  0
   35.4680   30.5380   35.1940 N   0  0  0  0  0  0  0  0  0  0  0  0
   35.0930   31.8360   35.2470 C   0  0  0  0  0  0  0  0  0  0  0  0
   34.7690   32.7510   36.2080 C   0  0  0  0  0  0  0  0  0  0  0  0
   34.4320   34.0100   35.8570 N   0  0  0  0  0  0  0  0  0  0  0  0
   34.4040   34.3990   34.5770 C   0  0  0  0  0  0  0  0  0  0  0  0
   34.7160   33.5310   33.6000 N   0  0  0  0  0  0  0  0  0  0  0  0
   35.0510   32.2810   33.9420 C   0  0  0  0  0  0  0  0  0  0  0  0
   36.3760   26.6550   31.0480 H   0  0  0  0  0  0  0  0  0  0  0  0
   35.4070   29.1230   31.3120 H   0  0  0  0  0  0  0  0  0  0  0  0
   35.4560   31.2870   32.0920 H   0  0  0  0  0  0  0  0  0  0  0  0
   34.1340   35.4100   34.2830 H   0  0  0  0  0  0  0  0  0  0  0  0
   34.8090   32.3040   37.5680 N   0  0  0  0  0  0  0  0  0  0  0  0
   35.1910   32.8730   38.3670 H   0  0  0  0  0  0  0  0  0  0  0  0
   34.4540   31.3650   37.8510 H   0  0  0  0  0  0  0  0  0  0  0  0
   36.3700   18.6470   29.2420 N   0  0  0  0  0  0  0  0  0  0  0  0
   36.2000   19.1900   28.3430 H   0  0  0  0  0  0  0  0  0  0  0  0
   35.8700   17.7410   29.4360 H   0  0  0  0  0  0  0  0  0  0  0  0
  1  7  1  0  0  0  0
  2  8  1  0  0  0  0
  2  1  2  0  0  0  0
  3  2  1  0  0  0  0
  4  3  2  0  0  0  0
  4  5  1  0  0  0  0
  5  6  2  0  0  0  0
  6  1  1  0  0  0  0
  9  3  1  0  0  0  0
 10 11  1  0  0  0  0
 10  9  1  0  0  0  0
 12 10  2  0  0  0  0
 13 12  1  0  0  0  0
 13 19  1  0  0  0  0
 14 15  1  0  0  0  0
 14 13  2  0  0  0  0
 15 16  2  0  0  0  0
 16 18  1  0  0  0  0
 17 16  1  0  0  0  0
 19 18  2  0  0  0  0
 19  9  1  0  0  0  0
 20  5  1  0  0  0  0
 20 24  2  0  0  0  0
 21 22  2  0  0  0  0
 21 20  1  0  0  0  0
 22 23  1  0  0  0  0
 23 26  1  0  0  0  0
 23 24  1  0  0  0  0
 25 26  1  0  0  0  0
 25 33  1  0  0  0  0
 26 27  2  0  0  0  0
 27 28  1  0  0  0  0
 28 29  1  0  0  0  0
 29 38  1  0  0  0  0
 30 29  2  0  0  0  0
 31 30  1  0  0  0  0
 32 33  1  0  0  0  0
 32 31  2  0  0  0  0
 33 28  2  0  0  0  0
 34 21  1  0  0  0  0
 35 22  1  0  0  0  0
 36 25  1  0  0  0  0
 37 31  1  0  0  0  0
 38 40  1  0  0  0  0
 38 39  1  0  0  0  0
 41 43  1  0  0  0  0
 41 14  1  0  0  0  0
 42 41  1  0  0  0  0
M  END
>  <minimizedAffinity>
-6.69680405

$$$$

 OpenBabel03262523003D

 43 48  0  0  0  0  0  0  0  0999 V2000
   38.3400   27.4360   31.5850 C   0  0  0  0  0  0  0  0  0  0  0  0
   38.7170   26.5580   32.6390 C   0  0  0  0  0  0  0  0  0  0  0  0
   37.9990   26.6480   33.8180 C   0  0  0  0  0  0  0  0  0  0  0  0
   36.9870   27.5420   33.9300 N   0  0  0  0  0  0  0  0  0  0  0  0
   36.6540   28.3690   32.8920 C   0  0  0  0  0  0  0  0  0  0  0  0
   37.3340   28.2980   31.7500 N   0  0  0  0  0  0  0  0  0  0  0  0
   38.9270   27.3270   30.6900 H   0  0  0  0  0  0  0  0  0  0  0  0
   39.4940   25.8360   32.6240 H   0  0  0  0  0  0  0  0  0  0  0  0
   38.2090   25.8700   34.9900 N   0  0  0  0  0  0  0  0  0  0  0  0
   38.1540   26.3420   36.2590 C   0  0  0  0  0  0  0  0  0  0  0  0
   37.9410   27.3760   36.5050 H   0  0  0  0  0  0  0  0  0  0  0  0
   38.4040   25.3340   37.1330 N   0  0  0  0  0  0  0  0  0  0  0  0
   38.6150   24.2300   36.4190 C   0  0  0  0  0  0  0  0  0  0  0  0
   38.9040   22.9570   36.8730 C   0  0  0  0  0  0  0  0  0  0  0  0
   39.0720   22.0110   35.9170 N   0  0  0  0  0  0  0  0  0  0  0  0
   38.9550   22.3340   34.5970 C   0  0  0  0  0  0  0  0  0  0  0  0
   39.1150   21.4790   33.9500 H   0  0  0  0  0  0  0  0  0  0  0  0
   38.6670   23.5980   34.1720 N   0  0  0  0  0  0  0  0  0  0  0  0
   38.4930   24.5640   35.0800 C   0  0  0  0  0  0  0  0  0  0  0  0
   35.5620   29.3130   33.0560 C   0  0  0  0  0  0  0  0  0  0  0  0
   34.4230   29.3730   32.2750 C   0  0  0  0  0  0  0  0  0  0  0  0
   33.6340   30.3900   32.7380 C   0  0  0  0  0  0  0  0  0  0  0  0
   34.3020   30.9480   33.8070 N   0  0  0  0  0  0  0  0  0  0  0  0
   35.4450   30.2770   33.9610 N   0  0  0  0  0  0  0  0  0  0  0  0
   32.7980   32.8660   34.0920 N   0  0  0  0  0  0  0  0  0  0  0  0
   33.7840   32.0350   34.5430 C   0  0  0  0  0  0  0  0  0  0  0  0
   34.1080   32.4800   35.7680 N   0  0  0  0  0  0  0  0  0  0  0  0
   33.3630   33.5590   36.1010 C   0  0  0  0  0  0  0  0  0  0  0  0
   33.2410   34.4080   37.1630 C   0  0  0  0  0  0  0  0  0  0  0  0
   32.3430   35.4150   37.1240 N   0  0  0  0  0  0  0  0  0  0  0  0
   31.5540   35.6120   36.0610 C   0  0  0  0  0  0  0  0  0  0  0  0
   31.6410   34.8000   34.9950 N   0  0  0  0  0  0  0  0  0  0  0  0
   32.5300   33.7990   35.0280 C   0  0  0  0  0  0  0  0  0  0  0  0
   34.2220   28.7010   31.4340 H   0  0  0  0  0  0  0  0  0  0  0  0
   32.6810   30.6800   32.3330 H   0  0  0  0  0  0  0  0  0  0  0  0
   32.3110   32.7980   33.1510 H   0  0  0  0  0  0  0  0  0  0  0  0
   30.8270   36.4200   36.0200 H   0  0  0  0  0  0  0  0  0  0  0  0
   34.1000   34.1720   38.2840 N   0  0  0  0  0  0  0  0  0  0  0  0
   34.5850   34.9310   38.8290 H   0  0  0  0  0  0  0  0  0  0  0  0
   34.2990   33.2090   38.6330 H   0  0  0  0  0  0  0  0  0  0  0  0
   39.0160   22.6760   38.2690 N   0  0  0  0  0  0  0  0  0  0  0  0
   38.0250   22.5800   38.6430 H   0  0  0  0  0  0  0  0  0  0  0  0
   39.8520   22.5650   38.9000 H   0  0  0  0  0  0  0  0  0  0  0  0
  1  6  2  0  0  0  0
  1  2  1  0  0  0  0
  2  3  2  0  0  0  0
  3  4  1  0  0  0  0
  3  9  1  0  0  0  0
  5 20  1  0  0  0  0
  5  4  2  0  0  0  0
  6  5  1  0  0  0  0
  7  1  1  0  0  0  0
  8  2  1  0  0  0  0
  9 19  1  0  0  0  0
  9 10  1  0  0  0  0
 10 11  1  0  0  0  0
 10 12  2  0  0  0  0
 13 14  1  0  0  0  0
 13 12  1  0  0  0  0
 14 41  1  0  0  0  0
 15 14  2  0  0  0  0
 16 15  1  0  0  0  0
 17 16  1  0  0  0  0
 18 16  2  0  0  0  0
 18 19  1  0  0  0  0
 19 13  2  0  0  0  0
 20 24  2  0  0  0  0
 21 22  2  0  0  0  0
 21 20  1  0  0  0  0
 22 23  1  0  0  0  0
 23 24  1  0  0  0  0
 23 26  1  0  0  0  0
 25 26  1  0  0  0  0
 25 33  1  0  0  0  0
 26 27  2  0  0  0  0
 27 28  1  0  0  0  0
 28 29  1  0  0  0  0
 29 38  1  0  0  0  0
 30 29  2  0  0  0  0
 31 30  1  0  0  0  0
 32 33  1  0  0  0  0
 32 31  2  0  0  0  0
 33 28  2  0  0  0  0
 34 21  1  0  0  0  0
 35 22  1  0  0  0  0
 36 25  1  0  0  0  0
 37 31  1  0  0  0  0
 38 40  1  0  0  0  0
 38 39  1  0  0  0  0
 41 42  1  0  0  0  0
 41 43  1  0  0  0  0
M  END
>  <minimizedAffinity>
-6.67968941

$$$$

 OpenBabel03262523003D

 43 48  0  0  0  0  0  0  0  0999 V2000
   36.7090   29.7090   30.5090 C   0  0  0  0  0  0  0  0  0  0  0  0
   36.0880   30.3680   31.6070 C   0  0  0  0  0  0  0  0  0  0  0  0
   35.4930   29.5660   32.5640 C   0  0  0  0  0  0  0  0  0  0  0  0
   35.5190   28.2180   32.4320 N   0  0  0  0  0  0  0  0  0  0  0  0
   36.1270   27.6210   31.3600 C   0  0  0  0  0  0  0  0  0  0  0  0
   36.7050   28.3760   30.4290 N   0  0  0  0  0  0  0  0  0  0  0  0
   37.1570   30.3750   29.7930 H   0  0  0  0  0  0  0  0  0  0  0  0
   36.0290   31.4130   31.7760 H   0  0  0  0  0  0  0  0  0  0  0  0
   34.8210   30.0150   33.7340 N   0  0  0  0  0  0  0  0  0  0  0  0
   33.6740   29.4840   34.2260 C   0  0  0  0  0  0  0  0  0  0  0  0
   33.1520   28.6540   33.7660 H   0  0  0  0  0  0  0  0  0  0  0  0
   33.3090   30.1510   35.3510 N   0  0  0  0  0  0  0  0  0  0  0  0
   34.2210   31.0960   35.5680 C   0  0  0  0  0  0  0  0  0  0  0  0
   34.2690   32.0210   36.5950 C   0  0  0  0  0  0  0  0  0  0  0  0
   35.3210   32.8760   36.5720 N   0  0  0  0  0  0  0  0  0  0  0  0
   36.2540   32.7980   35.5810 C   0  0  0  0  0  0  0  0  0  0  0  0
   37.0340   33.5430   35.6920 H   0  0  0  0  0  0  0  0  0  0  0  0
   36.1850   31.8760   34.5770 N   0  0  0  0  0  0  0  0  0  0  0  0
   35.1650   31.0120   34.5590 C   0  0  0  0  0  0  0  0  0  0  0  0
   36.1300   26.1730   31.2590 C   0  0  0  0  0  0  0  0  0  0  0  0
   35.0330   25.3810   30.9810 C   0  0  0  0  0  0  0  0  0  0  0  0
   35.4340   24.0730   30.9700 C   0  0  0  0  0  0  0  0  0  0  0  0
   36.7850   24.0760   31.2430 N   0  0  0  0  0  0  0  0  0  0  0  0
   37.1580   25.3460   31.4090 N   0  0  0  0  0  0  0  0  0  0  0  0
   37.0160   21.6450   31.4840 N   0  0  0  0  0  0  0  0  0  0  0  0
   37.5480   22.8910   31.3150 C   0  0  0  0  0  0  0  0  0  0  0  0
   38.8780   22.7160   31.2370 N   0  0  0  0  0  0  0  0  0  0  0  0
   39.1980   21.4060   31.3530 C   0  0  0  0  0  0  0  0  0  0  0  0
   40.3300   20.6440   31.3530 C   0  0  0  0  0  0  0  0  0  0  0  0
   40.2440   19.3050   31.5010 N   0  0  0  0  0  0  0  0  0  0  0  0
   39.0660   18.6890   31.6510 C   0  0  0  0  0  0  0  0  0  0  0  0
   37.9270   19.4010   31.6580 N   0  0  0  0  0  0  0  0  0  0  0  0
   38.0060   20.7290   31.5100 C   0  0  0  0  0  0  0  0  0  0  0  0
   34.0250   25.7720   30.8040 H   0  0  0  0  0  0  0  0  0  0  0  0
   34.8020   23.2230   30.7810 H   0  0  0  0  0  0  0  0  0  0  0  0
   35.9830   21.4190   31.5830 H   0  0  0  0  0  0  0  0  0  0  0  0
   38.9850   17.6110   31.7710 H   0  0  0  0  0  0  0  0  0  0  0  0
   41.5760   21.3330   31.1910 N   0  0  0  0  0  0  0  0  0  0  0  0
   42.4520   21.1060   31.7290 H   0  0  0  0  0  0  0  0  0  0  0  0
   41.6880   22.1190   30.5140 H   0  0  0  0  0  0  0  0  0  0  0  0
   33.2630   32.0570   37.6080 N   0  0  0  0  0  0  0  0  0  0  0  0
   33.4960   31.2830   38.2990 H   0  0  0  0  0  0  0  0  0  0  0  0
   32.4220   32.6760   37.7440 H   0  0  0  0  0  0  0  0  0  0  0  0
  1  2  1  0  0  0  0
  2  8  1  0  0  0  0
  2  3  2  0  0  0  0
  3  9  1  0  0  0  0
  4  3  1  0  0  0  0
  5  4  2  0  0  0  0
  6  1  2  0  0  0  0
  6  5  1  0  0  0  0
  7  1  1  0  0  0  0
  9 10  1  0  0  0  0
  9 19  1  0  0  0  0
 10 12  2  0  0  0  0
 11 10  1  0  0  0  0
 12 13  1  0  0  0  0
 13 14  1  0  0  0  0
 14 41  1  0  0  0  0
 15 14  2  0  0  0  0
 16 17  1  0  0  0  0
 16 15  1  0  0  0  0
 18 16  2  0  0  0  0
 19 18  1  0  0  0  0
 19 13  2  0  0  0  0
 20  5  1  0  0  0  0
 20 24  2  0  0  0  0
 21 20  1  0  0  0  0
 22 21  2  0  0  0  0
 22 23  1  0  0  0  0
 23 26  1  0  0  0  0
 23 24  1  0  0  0  0
 25 33  1  0  0  0  0
 25 36  1  0  0  0  0
 26 25  1  0  0  0  0
 27 26  2  0  0  0  0
 27 28  1  0  0  0  0
 28 33  1  0  0  0  0
 29 28  2  0  0  0  0
 29 30  1  0  0  0  0
 30 31  2  0  0  0  0
 31 32  1  0  0  0  0
 31 37  1  0  0  0  0
 33 32  2  0  0  0  0
 34 21  1  0  0  0  0
 35 22  1  0  0  0  0
 38 29  1  0  0  0  0
 38 39  1  0  0  0  0
 40 38  1  0  0  0  0
 41 43  1  0  0  0  0
 41 42  1  0  0  0  0
M  END
>  <minimizedAffinity>
-6.60657978

$$$$

 OpenBabel03262523003D

 43 48  0  0  0  0  0  0  0  0999 V2000
   34.8300   31.2580   31.1040 C   0  0  0  0  0  0  0  0  0  0  0  0
   33.7420   31.2840   32.0210 C   0  0  0  0  0  0  0  0  0  0  0  0
   33.5020   30.1280   32.7410 C   0  0  0  0  0  0  0  0  0  0  0  0
   34.2850   29.0380   32.5580 N   0  0  0  0  0  0  0  0  0  0  0  0
   35.3230   29.0520   31.6660 C   0  0  0  0  0  0  0  0  0  0  0  0
   35.5700   30.1550   30.9640 N   0  0  0  0  0  0  0  0  0  0  0  0
   34.9770   32.1790   30.5690 H   0  0  0  0  0  0  0  0  0  0  0  0
   33.0890   32.0960   32.2170 H   0  0  0  0  0  0  0  0  0  0  0  0
   32.4720   29.9380   33.7040 N   0  0  0  0  0  0  0  0  0  0  0  0
   31.7290   28.8120   33.8390 C   0  0  0  0  0  0  0  0  0  0  0  0
   31.8510   27.9350   33.2160 H   0  0  0  0  0  0  0  0  0  0  0  0
   30.8390   28.9710   34.8520 N   0  0  0  0  0  0  0  0  0  0  0  0
   31.0200   30.1920   35.3530 C   0  0  0  0  0  0  0  0  0  0  0  0
   30.3450   30.7980   36.3970 C   0  0  0  0  0  0  0  0  0  0  0  0
   30.7380   32.0600   36.7020 N   0  0  0  0  0  0  0  0  0  0  0  0
   31.7400   32.6600   35.9990 C   0  0  0  0  0  0  0  0  0  0  0  0
   31.9450   33.6640   36.3540 H   0  0  0  0  0  0  0  0  0  0  0  0
   32.3920   32.0410   34.9730 N   0  0  0  0  0  0  0  0  0  0  0  0
   32.0390   30.7960   34.6370 C   0  0  0  0  0  0  0  0  0  0  0  0
   36.1380   27.8610   31.5020 C   0  0  0  0  0  0  0  0  0  0  0  0
   37.5100   27.8380   31.3430 C   0  0  0  0  0  0  0  0  0  0  0  0
   37.9100   26.5350   31.2200 C   0  0  0  0  0  0  0  0  0  0  0  0
   36.7690   25.7660   31.3040 N   0  0  0  0  0  0  0  0  0  0  0  0
   35.7370   26.5960   31.4720 N   0  0  0  0  0  0  0  0  0  0  0  0
   37.8320   23.6410   30.6950 N   0  0  0  0  0  0  0  0  0  0  0  0
   36.7930   24.3580   31.2180 C   0  0  0  0  0  0  0  0  0  0  0  0
   35.8750   23.4540   31.5980 N   0  0  0  0  0  0  0  0  0  0  0  0
   36.3000   22.1970   31.3330 C   0  0  0  0  0  0  0  0  0  0  0  0
   35.8300   20.9240   31.4840 C   0  0  0  0  0  0  0  0  0  0  0  0
   36.5770   19.8750   31.0790 N   0  0  0  0  0  0  0  0  0  0  0  0
   37.7830   20.0430   30.5250 C   0  0  0  0  0  0  0  0  0  0  0  0
   38.2830   21.2790   30.3580 N   0  0  0  0  0  0  0  0  0  0  0  0
   37.5480   22.3230   30.7580 C   0  0  0  0  0  0  0  0  0  0  0  0
   38.1400   28.7340   31.3250 H   0  0  0  0  0  0  0  0  0  0  0  0
   38.9220   26.1990   31.0850 H   0  0  0  0  0  0  0  0  0  0  0  0
   38.7290   24.0460   30.2980 H   0  0  0  0  0  0  0  0  0  0  0  0
   38.3930   19.2060   30.1960 H   0  0  0  0  0  0  0  0  0  0  0  0
   34.5350   20.7780   32.0790 N   0  0  0  0  0  0  0  0  0  0  0  0
   33.8070   20.0930   31.7510 H   0  0  0  0  0  0  0  0  0  0  0  0
   34.2340   21.3570   32.8930 H   0  0  0  0  0  0  0  0  0  0  0  0
   29.3010   30.1210   37.0980 N   0  0  0  0  0  0  0  0  0  0  0  0
   29.7720   29.4640   37.7900 H   0  0  0  0  0  0  0  0  0  0  0  0
   28.2520   30.1800   37.0290 H   0  0  0  0  0  0  0  0  0  0  0  0
  1  2  1  0  0  0  0
  2  8  1  0  0  0  0
  2  3  2  0  0  0  0
  3  9  1  0  0  0  0
  4  3  1  0  0  0  0
  5  4  2  0  0  0  0
  6  1  2  0  0  0  0
  6  5  1  0  0  0  0
  7  1  1  0  0  0  0
  9 10  1  0  0  0  0
  9 19  1  0  0  0  0
 10 12  2  0  0  0  0
 11 10  1  0  0  0  0
 12 13  1  0  0  0  0
 13 14  1  0  0  0  0
 14 15  2  0  0  0  0
 14 41  1  0  0  0  0
 16 17  1  0  0  0  0
 16 15  1  0  0  0  0
 18 16  2  0  0  0  0
 19 18  1  0  0  0  0
 19 13  2  0  0  0  0
 20  5  1  0  0  0  0
 21 20  1  0  0  0  0
 22 23  1  0  0  0  0
 22 21  2  0  0  0  0
 23 24  1  0  0  0  0
 24 20  2  0  0  0  0
 25 33  1  0  0  0  0
 25 26  1  0  0  0  0
 26 23  1  0  0  0  0
 26 27  2  0  0  0  0
 28 29  1  0  0  0  0
 28 27  1  0  0  0  0
 29 38  1  0  0  0  0
 30 29  2  0  0  0  0
 31 30  1  0  0  0  0
 32 31  2  0  0  0  0
 32 33  1  0  0  0  0
 33 28  2  0  0  0  0
 34 21  1  0  0  0  0
 35 22  1  0  0  0  0
 36 25  1  0  0  0  0
 37 31  1  0  0  0  0
 38 40  1  0  0  0  0
 39 38  1  0  0  0  0
 41 42  1  0  0  0  0
 43 41  1  0  0  0  0
M  END
>  <minimizedAffinity>
-6.60518312

$$$$

 OpenBabel03262523003D

 43 48  0  0  0  0  0  0  0  0999 V2000
   37.1970   28.5720   29.7060 C   0  0  0  0  0  0  0  0  0  0  0  0
   36.3110   29.2950   30.5520 C   0  0  0  0  0  0  0  0  0  0  0  0
   36.4600   29.1150   31.9160 C   0  0  0  0  0  0  0  0  0  0  0  0
   37.4160   28.2810   32.3900 N   0  0  0  0  0  0  0  0  0  0  0  0
   38.2490   27.6020   31.5430 C   0  0  0  0  0  0  0  0  0  0  0  0
   38.1210   27.7620   30.2280 N   0  0  0  0  0  0  0  0  0  0  0  0
   37.0420   28.7450   28.6560 H   0  0  0  0  0  0  0  0  0  0  0  0
   35.5430   29.9630   30.2550 H   0  0  0  0  0  0  0  0  0  0  0  0
   35.6850   29.7370   32.9330 N   0  0  0  0  0  0  0  0  0  0  0  0
   35.2410   29.1250   34.0590 C   0  0  0  0  0  0  0  0  0  0  0  0
   35.4380   28.0860   34.2930 H   0  0  0  0  0  0  0  0  0  0  0  0
   34.5330   30.0070   34.8100 N   0  0  0  0  0  0  0  0  0  0  0  0
   34.5310   31.1700   34.1620 C   0  0  0  0  0  0  0  0  0  0  0  0
   33.9390   32.3610   34.5400 C   0  0  0  0  0  0  0  0  0  0  0  0
   34.0960   33.3990   33.6820 N   0  0  0  0  0  0  0  0  0  0  0  0
   34.8020   33.2390   32.5260 C   0  0  0  0  0  0  0  0  0  0  0  0
   34.8430   34.1510   31.9420 H   0  0  0  0  0  0  0  0  0  0  0  0
   35.3790   32.0540   32.1740 N   0  0  0  0  0  0  0  0  0  0  0  0
   35.2500   31.0030   32.9900 C   0  0  0  0  0  0  0  0  0  0  0  0
   39.2600   26.7180   32.0950 C   0  0  0  0  0  0  0  0  0  0  0  0
   40.5450   26.5590   31.6110 C   0  0  0  0  0  0  0  0  0  0  0  0
   41.1930   25.6440   32.3940 C   0  0  0  0  0  0  0  0  0  0  0  0
   40.2920   25.2460   33.3580 N   0  0  0  0  0  0  0  0  0  0  0  0
   39.1550   25.9110   33.1430 N   0  0  0  0  0  0  0  0  0  0  0  0
   41.6610   23.4270   34.2730 N   0  0  0  0  0  0  0  0  0  0  0  0
   40.6120   24.2980   34.3530 C   0  0  0  0  0  0  0  0  0  0  0  0
   40.0120   24.0440   35.5280 N   0  0  0  0  0  0  0  0  0  0  0  0
   40.6450   23.0460   36.1860 C   0  0  0  0  0  0  0  0  0  0  0  0
   40.5100   22.3760   37.3680 C   0  0  0  0  0  0  0  0  0  0  0  0
   41.3780   21.3940   37.6910 N   0  0  0  0  0  0  0  0  0  0  0  0
   42.3830   21.0480   36.8790 C   0  0  0  0  0  0  0  0  0  0  0  0
   42.5520   21.6820   35.7060 N   0  0  0  0  0  0  0  0  0  0  0  0
   41.6960   22.6570   35.3800 C   0  0  0  0  0  0  0  0  0  0  0  0
   40.9420   27.0960   30.7420 H   0  0  0  0  0  0  0  0  0  0  0  0
   42.2080   25.3130   32.2650 H   0  0  0  0  0  0  0  0  0  0  0  0
   42.3490   23.3570   33.4680 H   0  0  0  0  0  0  0  0  0  0  0  0
   43.0880   20.2590   37.1290 H   0  0  0  0  0  0  0  0  0  0  0  0
   39.4240   22.7690   38.2150 N   0  0  0  0  0  0  0  0  0  0  0  0
   38.8170   22.0950   38.7490 H   0  0  0  0  0  0  0  0  0  0  0  0
   39.1670   23.7700   38.3540 H   0  0  0  0  0  0  0  0  0  0  0  0
   33.2090   32.4700   35.7630 N   0  0  0  0  0  0  0  0  0  0  0  0
   33.9280   32.5860   36.5390 H   0  0  0  0  0  0  0  0  0  0  0  0
   32.1770   32.4540   35.9720 H   0  0  0  0  0  0  0  0  0  0  0  0
  1  6  2  0  0  0  0
  1  2  1  0  0  0  0
  2  3  2  0  0  0  0
  3  4  1  0  0  0  0
  3  9  1  0  0  0  0
  5 20  1  0  0  0  0
  5  4  2  0  0  0  0
  6  5  1  0  0  0  0
  7  1  1  0  0  0  0
  8  2  1  0  0  0  0
  9 19  1  0  0  0  0
  9 10  1  0  0  0  0
 10 11  1  0  0  0  0
 10 12  2  0  0  0  0
 13 14  1  0  0  0  0
 13 12  1  0  0  0  0
 14 41  1  0  0  0  0
 15 14  2  0  0  0  0
 16 15  1  0  0  0  0
 17 16  1  0  0  0  0
 18 16  2  0  0  0  0
 18 19  1  0  0  0  0
 19 13  2  0  0  0  0
 20 24  2  0  0  0  0
 21 20  1  0  0  0  0
 21 22  2  0  0  0  0
 22 23  1  0  0  0  0
 23 26  1  0  0  0  0
 24 23  1  0  0  0  0
 25 26  1  0  0  0  0
 25 33  1  0  0  0  0
 26 27  2  0  0  0  0
 27 28  1  0  0  0  0
 28 29  1  0  0  0  0
 29 30  2  0  0  0  0
 29 38  1  0  0  0  0
 31 37  1  0  0  0  0
 31 30  1  0  0  0  0
 32 31  2  0  0  0  0
 33 32  1  0  0  0  0
 33 28  2  0  0  0  0
 34 21  1  0  0  0  0
 35 22  1  0  0  0  0
 36 25  1  0  0  0  0
 38 40  1  0  0  0  0
 38 39  1  0  0  0  0
 41 43  1  0  0  0  0
 41 42  1  0  0  0  0
M  END
>  <minimizedAffinity>
-6.5202651

$$$$
