
 OpenBabel03272506013D

 51 55  0  0  1  0  0  0  0  0999 V2000
   35.2820   30.0080   49.2230 C   0  0  2  0  0  0  0  0  0  0  0  0
   36.2030   31.0990   48.9470 C   0  0  0  0  0  0  0  0  0  0  0  0
   37.6860   30.7420   49.2970 C   0  0  2  0  0  0  0  0  0  0  0  0
   37.8710   30.3780   50.6830 C   0  0  0  0  0  0  0  0  0  0  0  0
   36.7300   29.5300   51.2550 C   0  0  0  0  0  0  0  0  0  0  0  0
   35.8890   28.9520   50.1570 C   0  0  0  0  0  0  0  0  0  0  0  0
   34.3870   30.3710   49.8120 H   0  0  0  0  0  0  0  0  0  0  0  0
   36.2780   31.5930   48.0050 H   0  0  0  0  0  0  0  0  0  0  0  0
   36.0140   31.9370   49.7030 H   0  0  0  0  0  0  0  0  0  0  0  0
   38.0140   29.9880   48.5850 H   0  0  0  0  0  0  0  0  0  0  0  0
   38.8350   29.8190   50.7800 H   0  0  0  0  0  0  0  0  0  0  0  0
   37.9730   31.2150   51.4050 H   0  0  0  0  0  0  0  0  0  0  0  0
   36.0960   30.0940   51.9600 H   0  0  0  0  0  0  0  0  0  0  0  0
   37.1770   28.6790   51.7880 H   0  0  0  0  0  0  0  0  0  0  0  0
   35.1050   28.3510   50.6250 H   0  0  0  0  0  0  0  0  0  0  0  0
   36.5260   28.2660   49.5600 H   0  0  0  0  0  0  0  0  0  0  0  0
   34.7600   29.2870   48.0650 C   0  0  0  0  0  0  0  0  0  0  0  0
   34.9570   29.9340   46.8520 C   0  0  0  0  0  0  0  0  0  0  0  0
   34.5220   29.3140   45.6840 C   0  0  0  0  0  0  0  0  0  0  0  0
   33.9120   28.0790   45.7860 N   0  0  0  0  0  0  0  0  0  0  0  0
   33.7310   27.4670   46.9820 C   0  0  0  0  0  0  0  0  0  0  0  0
   34.1670   28.1060   48.0750 N   0  0  0  0  0  0  0  0  0  0  0  0
   35.3800   30.8630   46.4940 H   0  0  0  0  0  0  0  0  0  0  0  0
   34.5630   29.6130   44.6490 H   0  0  0  0  0  0  0  0  0  0  0  0
   33.0950   26.1900   47.0370 N   0  0  0  0  0  0  0  0  0  0  0  0
   32.1300   25.6630   47.8160 C   0  0  0  0  0  0  0  0  0  0  0  0
   31.6680   26.2480   48.5980 H   0  0  0  0  0  0  0  0  0  0  0  0
   31.8990   24.3880   47.4370 N   0  0  0  0  0  0  0  0  0  0  0  0
   32.7260   24.0950   46.4040 C   0  0  0  0  0  0  0  0  0  0  0  0
   32.8950   22.9370   45.6540 C   0  0  0  0  0  0  0  0  0  0  0  0
   33.8230   22.9890   44.6850 N   0  0  0  0  0  0  0  0  0  0  0  0
   34.5650   24.0520   44.4100 C   0  0  0  0  0  0  0  0  0  0  0  0
   35.3180   24.0710   43.6110 H   0  0  0  0  0  0  0  0  0  0  0  0
   34.3920   25.1600   45.1400 N   0  0  0  0  0  0  0  0  0  0  0  0
   33.4840   25.2350   46.1520 C   0  0  0  0  0  0  0  0  0  0  0  0
   32.1350   21.7580   45.8910 N   0  0  0  0  0  0  0  0  0  0  0  0
   32.5110   20.8340   45.5970 H   0  0  0  0  0  0  0  0  0  0  0  0
   31.2030   21.8030   46.3590 H   0  0  0  0  0  0  0  0  0  0  0  0
   38.5730   31.0110   46.5040 Cl  0  0  0  0  0  0  0  0  0  0  0  0
   38.9110   32.2290   47.7130 C   0  0  0  0  0  0  0  0  0  0  0  0
   38.4100   32.0170   48.9740 C   0  0  0  0  0  0  0  0  0  0  0  0
   38.6900   33.0470   49.8610 C   0  0  0  0  0  0  0  0  0  0  0  0
   39.4070   34.1720   49.4980 C   0  0  0  0  0  0  0  0  0  0  0  0
   39.8830   34.3080   48.1960 C   0  0  0  0  0  0  0  0  0  0  0  0
   39.6250   33.3090   47.2850 C   0  0  0  0  0  0  0  0  0  0  0  0
   38.3000   32.9070   50.8810 H   0  0  0  0  0  0  0  0  0  0  0  0
   39.5660   34.9120   50.2760 H   0  0  0  0  0  0  0  0  0  0  0  0
   40.4410   35.1990   47.9410 H   0  0  0  0  0  0  0  0  0  0  0  0
   40.1080   33.4420   45.9540 N   0  0  0  0  0  0  0  0  0  0  0  0
   40.9880   32.9860   45.6150 H   0  0  0  0  0  0  0  0  0  0  0  0
   39.5880   34.0120   45.2530 H   0  0  0  0  0  0  0  0  0  0  0  0
  1  7  1  1  0  0  0
  1  6  1  0  0  0  0
  2  1  1  0  0  0  0
  2  3  1  0  0  0  0
  2  9  1  0  0  0  0
  3 10  1  6  0  0  0
  3  4  1  0  0  0  0
  4 11  1  0  0  0  0
  4  5  1  0  0  0  0
  4 12  1  0  0  0  0
  5 14  1  0  0  0  0
  5 13  1  0  0  0  0
  6 15  1  0  0  0  0
  6  5  1  0  0  0  0
  8  2  1  0  0  0  0
 16  6  1  0  0  0  0
 17 22  1  0  0  0  0
 17  1  1  0  0  0  0
 18 17  2  0  0  0  0
 19 20  2  0  0  0  0
 19 18  1  0  0  0  0
 20 21  1  0  0  0  0
 21 25  1  0  0  0  0
 21 22  2  0  0  0  0
 23 18  1  0  0  0  0
 24 19  1  0  0  0  0
 25 26  1  0  0  0  0
 26 27  1  0  0  0  0
 28 26  2  0  0  0  0
 29 28  1  0  0  0  0
 30 36  1  0  0  0  0
 30 29  2  0  0  0  0
 31 30  1  0  0  0  0
 32 31  2  0  0  0  0
 32 34  1  0  0  0  0
 33 32  1  0  0  0  0
 34 35  2  0  0  0  0
 35 29  1  0  0  0  0
 35 25  1  0  0  0  0
 36 38  1  0  0  0  0
 37 36  1  0  0  0  0
 39 40  1  0  0  0  0
 40 41  1  0  0  0  0
 41  3  1  0  0  0  0
 41 42  2  0  0  0  0
 42 46  1  0  0  0  0
 43 42  1  0  0  0  0
 43 47  1  0  0  0  0
 44 43  2  0  0  0  0
 45 40  2  0  0  0  0
 45 44  1  0  0  0  0
 48 44  1  0  0  0  0
 49 45  1  0  0  0  0
 50 49  1  0  0  0  0
 51 49  1  0  0  0  0
M  END
>  <minimizedAffinity>
-7.95074797

>  <minimizedRMSD>
1.51589906

$$$$
