
 OpenBabel03272501433D

 39 43  0  0  0  0  0  0  0  0999 V2000
   35.6340   29.3040   48.7910 C   0  0  0  0  0  0  0  0  0  0  0  0
   35.5370   30.0830   47.6000 C   0  0  0  0  0  0  0  0  0  0  0  0
   34.3530   30.0050   46.8750 C   0  0  0  0  0  0  0  0  0  0  0  0
   33.3690   29.1980   47.3420 N   0  0  0  0  0  0  0  0  0  0  0  0
   33.4750   28.4710   48.4650 C   0  0  0  0  0  0  0  0  0  0  0  0
   34.6130   28.5300   49.1840 N   0  0  0  0  0  0  0  0  0  0  0  0
   36.4530   29.2230   49.4840 H   0  0  0  0  0  0  0  0  0  0  0  0
   34.3370   30.6010   46.0030 H   0  0  0  0  0  0  0  0  0  0  0  0
   37.4530   31.3670   48.3640 C   0  0  0  0  0  0  0  0  0  0  0  0
   36.7210   30.8660   47.3110 C   0  0  0  0  0  0  0  0  0  0  0  0
   37.1720   31.1450   46.0250 C   0  0  0  0  0  0  0  0  0  0  0  0
   38.3290   31.9090   45.8640 C   0  0  0  0  0  0  0  0  0  0  0  0
   38.9950   32.3350   44.7750 N   0  0  0  0  0  0  0  0  0  0  0  0
   40.0690   33.0510   45.1510 C   0  0  0  0  0  0  0  0  0  0  0  0
   40.0950   33.0890   46.5120 N   0  0  0  0  0  0  0  0  0  0  0  0
   39.0330   32.3920   46.9340 C   0  0  0  0  0  0  0  0  0  0  0  0
   38.5950   32.1200   48.1950 C   0  0  0  0  0  0  0  0  0  0  0  0
   37.2020   31.2190   49.4280 H   0  0  0  0  0  0  0  0  0  0  0  0
   36.6210   30.7670   45.1990 H   0  0  0  0  0  0  0  0  0  0  0  0
   38.6740   32.1070   43.8100 H   0  0  0  0  0  0  0  0  0  0  0  0
   40.7610   33.4990   44.4390 H   0  0  0  0  0  0  0  0  0  0  0  0
   39.1750   32.5180   49.0440 H   0  0  0  0  0  0  0  0  0  0  0  0
   32.3180   27.6210   48.8720 C   0  0  0  0  0  0  0  0  0  0  0  0
   32.6070   27.1780   49.8570 H   0  0  0  0  0  0  0  0  0  0  0  0
   31.4150   28.2070   49.0690 H   0  0  0  0  0  0  0  0  0  0  0  0
   32.1290   26.5650   47.9120 N   0  0  0  0  0  0  0  0  0  0  0  0
   32.9860   25.6970   47.3440 C   0  0  0  0  0  0  0  0  0  0  0  0
   34.0390   25.7280   47.5980 H   0  0  0  0  0  0  0  0  0  0  0  0
   32.2850   24.9020   46.4980 N   0  0  0  0  0  0  0  0  0  0  0  0
   31.0050   25.2540   46.5270 C   0  0  0  0  0  0  0  0  0  0  0  0
   29.9080   24.7360   45.8380 C   0  0  0  0  0  0  0  0  0  0  0  0
   28.7030   25.3060   46.0720 N   0  0  0  0  0  0  0  0  0  0  0  0
   28.6030   26.3420   46.9510 C   0  0  0  0  0  0  0  0  0  0  0  0
   27.6570   26.8210   47.1630 H   0  0  0  0  0  0  0  0  0  0  0  0
   29.6540   26.8470   47.6200 N   0  0  0  0  0  0  0  0  0  0  0  0
   30.8890   26.3070   47.4190 C   0  0  0  0  0  0  0  0  0  0  0  0
   30.0420   23.6490   44.9200 N   0  0  0  0  0  0  0  0  0  0  0  0
   29.3760   22.8930   45.2530 H   0  0  0  0  0  0  0  0  0  0  0  0
   30.7060   23.7050   44.1090 H   0  0  0  0  0  0  0  0  0  0  0  0
  1  6  1  0  0  0  0
  1  7  1  0  0  0  0
  2  1  2  0  0  0  0
  3  4  2  0  0  0  0
  3  2  1  0  0  0  0
  4  5  1  0  0  0  0
  5 23  1  0  0  0  0
  5  6  2  0  0  0  0
  8  3  1  0  0  0  0
  9 18  1  0  0  0  0
 10  2  1  0  0  0  0
 10  9  2  0  0  0  0
 11 10  1  0  0  0  0
 12 11  2  0  0  0  0
 12 16  1  0  0  0  0
 13 14  1  0  0  0  0
 13 12  1  0  0  0  0
 14 15  2  0  0  0  0
 15 16  1  0  0  0  0
 16 17  2  0  0  0  0
 17  9  1  0  0  0  0
 17 22  1  0  0  0  0
 19 11  1  0  0  0  0
 20 13  1  0  0  0  0
 21 14  1  0  0  0  0
 23 25  1  0  0  0  0
 23 24  1  0  0  0  0
 26 23  1  0  0  0  0
 27 28  1  0  0  0  0
 27 26  1  0  0  0  0
 29 30  1  0  0  0  0
 29 27  2  0  0  0  0
 30 36  1  0  0  0  0
 31 32  1  0  0  0  0
 31 30  2  0  0  0  0
 32 33  2  0  0  0  0
 33 34  1  0  0  0  0
 33 35  1  0  0  0  0
 36 35  2  0  0  0  0
 36 26  1  0  0  0  0
 37 38  1  0  0  0  0
 37 31  1  0  0  0  0
 39 37  1  0  0  0  0
M  END
>  <minimizedAffinity>
-5.9009676

>  <minimizedRMSD>
1.18422663

$$$$
