
 OpenBabel03262522133D

 34 36  0  0  0  0  0  0  0  0999 V2000
   37.7350   31.7470   47.6940 C   0  0  0  0  0  0  0  0  0  0  0  0
   37.9070   32.4970   48.8680 C   0  0  0  0  0  0  0  0  0  0  0  0
   38.8980   33.4420   48.9380 C   0  0  0  0  0  0  0  0  0  0  0  0
   39.6870   33.6010   47.8150 C   0  0  0  0  0  0  0  0  0  0  0  0
   39.4950   32.8610   46.6970 C   0  0  0  0  0  0  0  0  0  0  0  0
   38.5160   31.9050   46.5810 N   0  0  0  0  0  0  0  0  0  0  0  0
   37.2550   32.3220   49.7090 H   0  0  0  0  0  0  0  0  0  0  0  0
   39.0310   34.0110   49.8280 H   0  0  0  0  0  0  0  0  0  0  0  0
   40.4680   34.3470   47.8730 H   0  0  0  0  0  0  0  0  0  0  0  0
   36.6640   30.7680   47.6930 C   0  0  0  0  0  0  0  0  0  0  0  0
   36.1760   30.3670   46.6330 O   0  0  0  0  0  0  0  0  0  0  0  0
   36.9850   29.6050   49.8520 C   0  0  0  0  0  0  0  0  0  0  0  0
   36.1160   30.2120   48.9380 C   0  0  0  0  0  0  0  0  0  0  0  0
   34.7320   30.2850   49.2160 C   0  0  0  0  0  0  0  0  0  0  0  0
   34.3180   29.7340   50.4130 N   0  0  0  0  0  0  0  0  0  0  0  0
   35.1840   29.1570   51.2690 C   0  0  0  0  0  0  0  0  0  0  0  0
   36.4700   29.0970   50.9940 N   0  0  0  0  0  0  0  0  0  0  0  0
   38.0440   29.5300   49.6730 H   0  0  0  0  0  0  0  0  0  0  0  0
   34.1300   30.7580   48.4830 H   0  0  0  0  0  0  0  0  0  0  0  0
   34.6190   28.8070   52.1210 H   0  0  0  0  0  0  0  0  0  0  0  0
   40.5320   33.0810   45.2290 S   0  0  0  0  0  0  0  0  0  0  0  0
   39.4440   32.8600   43.8060 C   0  0  0  0  0  0  0  0  0  0  0  0
   38.4090   33.2420   43.9960 H   0  0  0  0  0  0  0  0  0  0  0  0
   39.8090   33.5150   42.9590 H   0  0  0  0  0  0  0  0  0  0  0  0
   36.6790   31.5900   43.5000 Cl  0  0  0  0  0  0  0  0  0  0  0  0
   38.1870   30.7820   43.1260 C   0  0  0  0  0  0  0  0  0  0  0  0
   39.3920   31.4690   43.3010 C   0  0  0  0  0  0  0  0  0  0  0  0
   40.5120   30.7400   42.9780 C   0  0  0  0  0  0  0  0  0  0  0  0
   41.4520   31.2930   43.1190 H   0  0  0  0  0  0  0  0  0  0  0  0
   40.6070   29.4470   42.5150 C   0  0  0  0  0  3  0  0  0  0  0  0
   39.3760   28.8010   42.3560 C   0  0  0  0  0  0  0  0  0  0  0  0
   39.4160   27.1500   41.7700 Cl  0  0  0  0  0  0  0  0  0  0  0  0
   38.1790   29.4640   42.6590 C   0  0  0  0  0  0  0  0  0  0  0  0
   37.2560   28.9140   42.5170 H   0  0  0  0  0  0  0  0  0  0  0  0
  1  2  1  0  0  0  0
  2  3  2  0  0  0  0
  2  7  1  0  0  0  0
  3  8  1  0  0  0  0
  4  9  1  0  0  0  0
  4  3  1  0  0  0  0
  5  4  2  0  0  0  0
  6  5  1  0  0  0  0
  6  1  2  0  0  0  0
 10  1  1  0  0  0  0
 10 13  1  0  0  0  0
 11 10  2  0  0  0  0
 12 17  1  0  0  0  0
 13 14  1  0  0  0  0
 13 12  2  0  0  0  0
 14 15  2  0  0  0  0
 15 16  1  0  0  0  0
 16 20  1  0  0  0  0
 17 16  2  0  0  0  0
 18 12  1  0  0  0  0
 19 14  1  0  0  0  0
 21  5  1  0  0  0  0
 22 23  1  0  0  0  0
 22 21  1  0  0  0  0
 24 22  1  0  0  0  0
 26 27  1  0  0  0  0
 26 25  1  0  0  0  0
 27 22  1  0  0  0  0
 28 29  1  0  0  0  0
 28 27  2  0  0  0  0
 30 28  1  0  0  0  0
 31 30  2  0  0  0  0
 31 33  1  0  0  0  0
 32 31  1  0  0  0  0
 33 26  2  0  0  0  0
 34 33  1  0  0  0  0
M  END
>  <minimizedAffinity>
-5.58030176

>  <minimizedRMSD>
1.36875713

$$$$
