
 OpenBabel03272503343D

 42 45  0  0  1  0  0  0  0  0999 V2000
   35.5620   29.4200   47.6650 C   0  0  0  0  0  0  0  0  0  0  0  0
   35.6400   30.0060   46.4010 C   0  0  0  0  0  0  0  0  0  0  0  0
   34.7250   29.5760   45.4330 C   0  0  0  0  0  0  0  0  0  0  0  0
   33.8170   28.6070   45.8030 N   0  0  0  0  0  0  0  0  0  0  0  0
   33.7800   28.0740   47.0250 C   0  0  0  0  0  0  0  0  0  0  0  0
   34.6530   28.4830   47.9530 N   0  0  0  0  0  0  0  0  0  0  0  0
   36.3520   30.7650   46.1090 H   0  0  0  0  0  0  0  0  0  0  0  0
   34.7060   29.9640   44.4370 H   0  0  0  0  0  0  0  0  0  0  0  0
   36.5040   29.8670   48.6490 N   0  0  0  0  0  0  0  0  0  0  0  0
   37.7450   30.5420   48.4170 C   0  0  0  0  0  0  0  0  0  0  0  0
   37.9240   31.3470   49.6970 C   0  0  2  0  0  0  0  0  0  0  0  0
   36.6450   31.1510   50.5080 C   0  0  0  0  0  0  0  0  0  0  0  0
   36.3680   29.7130   50.0950 C   0  0  0  0  0  0  0  0  0  0  0  0
   37.6990   31.2390   47.5370 H   0  0  0  0  0  0  0  0  0  0  0  0
   38.6070   29.8400   48.3220 H   0  0  0  0  0  0  0  0  0  0  0  0
   38.7420   30.9220   50.3270 H   0  0  0  0  0  0  0  0  0  0  0  0
   35.8670   31.8100   50.1190 H   0  0  0  0  0  0  0  0  0  0  0  0
   36.8200   31.2540   51.5840 H   0  0  0  0  0  0  0  0  0  0  0  0
   35.3290   29.4510   50.3550 H   0  0  0  0  0  0  0  0  0  0  0  0
   37.1310   29.0530   50.5170 H   0  0  0  0  0  0  0  0  0  0  0  0
   38.1820   32.8020   49.4180 C   0  0  0  0  0  0  0  0  0  0  0  0
   37.0790   33.4970   49.8720 F   0  0  0  0  0  0  0  0  0  0  0  0
   38.2060   32.9520   48.0560 F   0  0  0  0  0  0  0  0  0  0  0  0
   39.3440   33.2620   49.9790 F   0  0  0  0  0  0  0  0  0  0  0  0
   32.5810   26.8250   47.4440 S   0  0  0  0  0  0  0  0  0  0  0  0
   30.9870   27.3160   47.7020 C   0  0  0  0  0  0  0  0  0  0  0  0
   29.7920   26.8380   48.1530 C   0  0  0  0  0  0  0  0  0  0  0  0
   28.6420   27.5460   48.2280 C   0  0  0  0  0  0  0  0  0  0  0  0
   28.7880   28.9420   47.7580 C   0  0  0  0  0  0  0  0  0  0  0  0
   30.5340   29.0790   47.2710 S   0  0  0  0  0  0  0  0  0  0  0  0
   29.8830   25.8050   48.4510 H   0  0  0  0  0  0  0  0  0  0  0  0
   27.7060   27.1660   48.5840 H   0  0  0  0  0  0  0  0  0  0  0  0
   28.1850   29.8040   44.9810 Cl  0  0  0  0  0  0  0  0  0  0  0  0
   27.4530   30.4060   46.4510 C   0  0  0  0  0  0  0  0  0  0  0  0
   27.8010   29.9420   47.7000 C   0  0  0  0  0  0  0  0  0  0  0  0
   27.2630   30.3750   48.8900 C   0  0  0  0  0  0  0  0  0  0  0  0
   27.5700   29.9780   49.8390 H   0  0  0  0  0  0  0  0  0  0  0  0
   26.2800   31.3710   48.8160 C   0  0  0  0  0  3  0  0  0  0  0  0
   25.8880   31.8780   47.5720 C   0  0  0  0  0  0  0  0  0  0  0  0
   24.6630   33.1230   47.4430 Cl  0  0  0  0  0  0  0  0  0  0  0  0
   26.4690   31.4020   46.3890 C   0  0  0  0  0  0  0  0  0  0  0  0
   26.1550   31.8050   45.4360 H   0  0  0  0  0  0  0  0  0  0  0  0
  1  6  1  0  0  0  0
  1  9  1  0  0  0  0
  2  1  2  0  0  0  0
  3  4  2  0  0  0  0
  3  2  1  0  0  0  0
  4  5  1  0  0  0  0
  5 25  1  0  0  0  0
  5  6  2  0  0  0  0
  7  2  1  0  0  0  0
  8  3  1  0  0  0  0
  9 13  1  0  0  0  0
 10  9  1  0  0  0  0
 10 11  1  0  0  0  0
 11 16  1  1  0  0  0
 11 12  1  0  0  0  0
 12 18  1  0  0  0  0
 13 19  1  0  0  0  0
 13 12  1  0  0  0  0
 13 20  1  0  0  0  0
 14 10  1  0  0  0  0
 15 10  1  0  0  0  0
 17 12  1  0  0  0  0
 21 11  1  0  0  0  0
 21 22  1  0  0  0  0
 21 24  1  0  0  0  0
 23 21  1  0  0  0  0
 25 26  1  0  0  0  0
 26 27  2  0  0  0  0
 27 28  1  0  0  0  0
 27 31  1  0  0  0  0
 28 32  1  0  0  0  0
 29 28  2  0  0  0  0
 30 26  1  0  0  0  0
 30 29  1  0  0  0  0
 33 34  1  0  0  0  0
 34 35  1  0  0  0  0
 35 29  1  0  0  0  0
 35 36  2  0  0  0  0
 36 37  1  0  0  0  0
 38 36  1  0  0  0  0
 39 38  2  0  0  0  0
 40 39  1  0  0  0  0
 41 34  2  0  0  0  0
 41 39  1  0  0  0  0
 42 41  1  0  0  0  0
M  END
>  <minimizedAffinity>
-6.60431767

>  <minimizedRMSD>
1.33207572

$$$$
