
 OpenBabel03272509013D

 32 34  0  0  0  0  0  0  0  0999 V2000
   37.3960   31.9280   48.0270 Cl  0  0  0  0  0  0  0  0  0  0  0  0
   36.6000   30.9670   46.7990 C   0  0  0  0  0  0  0  0  0  0  0  0
   37.2140   30.7780   45.5800 C   0  0  0  0  0  0  0  0  0  0  0  0
   36.6330   30.0360   44.5910 C   0  0  0  0  0  0  0  0  0  0  0  0
   35.4010   29.4520   44.7950 C   0  0  0  0  0  0  0  0  0  0  0  0
   34.7570   29.6160   45.9920 C   0  0  0  0  0  0  0  0  0  0  0  0
   33.1970   28.9330   46.3790 Cl  0  0  0  0  0  0  0  0  0  0  0  0
   35.3800   30.3700   46.9560 C   0  0  0  0  0  0  0  0  0  0  0  0
   37.0810   29.8670   43.6270 H   0  0  0  0  0  0  0  0  0  0  0  0
   34.9160   28.8580   44.0300 H   0  0  0  0  0  0  0  0  0  0  0  0
   39.8220   33.1790   44.6040 C   0  0  0  0  0  0  0  0  0  0  0  0
   40.9990   32.5110   44.8830 C   0  0  0  0  0  0  0  0  0  0  0  0
   40.8840   31.1940   45.4220 C   0  0  0  0  0  0  0  0  0  0  0  0
   39.6390   30.6900   45.6240 N   0  0  0  0  0  0  0  0  0  0  0  0
   38.5160   31.3880   45.3340 C   0  0  0  0  0  0  0  0  0  0  0  0
   38.6220   32.6340   44.8240 N   0  0  0  0  0  0  0  0  0  0  0  0
   39.9910   34.1550   44.2020 H   0  0  0  0  0  0  0  0  0  0  0  0
   42.0240   32.7980   44.7690 H   0  0  0  0  0  0  0  0  0  0  0  0
   41.6600   30.5060   45.7080 H   0  0  0  0  0  0  0  0  0  0  0  0
   34.7010   30.6030   48.2910 C   0  0  0  0  0  0  0  0  0  0  0  0
   34.4130   31.6850   48.2780 H   0  0  0  0  0  0  0  0  0  0  0  0
   33.8020   29.9570   48.3520 H   0  0  0  0  0  0  0  0  0  0  0  0
   34.6340   27.7370   49.0360 Cl  0  0  0  0  0  0  0  0  0  0  0  0
   35.6190   28.9740   49.7960 C   0  0  0  0  0  0  0  0  0  0  0  0
   35.6060   30.3000   49.4040 C   0  0  0  0  0  0  0  0  0  0  0  0
   36.4290   31.1900   50.0800 C   0  0  0  0  0  0  0  0  0  0  0  0
   36.3470   32.1970   49.6970 H   0  0  0  0  0  0  0  0  0  0  0  0
   37.2430   30.7770   51.1140 C   0  0  0  0  0  0  0  0  0  0  0  0
   37.2690   29.4520   51.5200 C   0  0  0  0  0  0  0  0  0  0  0  0
   38.3120   28.9400   52.8400 Cl  0  0  0  0  0  0  0  0  0  0  0  0
   36.4500   28.5720   50.8470 C   0  0  0  0  0  0  0  0  0  0  0  0
   36.4560   27.5130   51.1520 H   0  0  0  0  0  0  0  0  0  0  0  0
  2  8  1  0  0  0  0
  2  1  1  0  0  0  0
  3  2  2  0  0  0  0
  4  5  2  0  0  0  0
  4  3  1  0  0  0  0
  5  6  1  0  0  0  0
  6  7  1  0  0  0  0
  6  8  2  0  0  0  0
  8 20  1  0  0  0  0
  9  4  1  0  0  0  0
 10  5  1  0  0  0  0
 11 16  2  0  0  0  0
 11 12  1  0  0  0  0
 12 13  2  0  0  0  0
 13 14  1  0  0  0  0
 13 19  1  0  0  0  0
 15  3  1  0  0  0  0
 15 14  2  0  0  0  0
 16 15  1  0  0  0  0
 17 11  1  0  0  0  0
 18 12  1  0  0  0  0
 20 22  1  0  0  0  0
 20 25  1  0  0  0  0
 21 20  1  0  0  0  0
 23 24  1  0  0  0  0
 24 31  1  0  0  0  0
 25 24  2  0  0  0  0
 25 26  1  0  0  0  0
 26 28  2  0  0  0  0
 27 26  1  0  0  0  0
 28 29  1  0  0  0  0
 29 30  1  0  0  0  0
 31 32  1  0  0  0  0
 31 29  2  0  0  0  0
M  END
>  <minimizedAffinity>
-5.56834078

>  <minimizedRMSD>
2.66296434

$$$$
