
 OpenBabel03272504583D

 34 36  0  0  1  0  0  0  0  0999 V2000
   37.7210   26.0980   35.5070 C   0  0  1  0  0  0  0  0  0  0  0  0
   38.1430   27.4660   35.6940 C   0  0  0  0  0  0  0  0  0  0  0  0
   38.2580   26.8170   34.3540 C   0  0  2  0  0  0  0  0  0  0  0  0
   36.6190   25.8050   35.4010 H   0  0  0  0  0  0  0  0  0  0  0  0
   39.0970   27.6130   36.2440 H   0  0  0  0  0  0  0  0  0  0  0  0
   37.3360   27.9930   36.1640 H   0  0  0  0  0  0  0  0  0  0  0  0
   39.2670   26.8930   33.9900 H   0  0  0  0  0  0  0  0  0  0  0  0
   38.5420   24.9530   36.0330 C   0  0  0  0  0  0  0  0  0  0  0  0
   39.6760   24.6110   35.2670 C   0  0  0  0  0  0  0  0  0  0  0  0
   40.4120   23.5620   35.7690 C   0  0  0  0  0  0  0  0  0  0  0  0
   40.0290   22.9410   36.9170 N   0  0  0  0  0  0  0  0  0  0  0  0
   38.9240   23.3050   37.6260 C   0  0  0  0  0  0  0  0  0  0  0  0
   38.1670   24.3470   37.1550 N   0  0  0  0  0  0  0  0  0  0  0  0
   38.5210   22.6790   38.8140 N   0  0  0  0  0  0  0  0  0  0  0  0
   39.9830   25.0880   34.3720 H   0  0  0  0  0  0  0  0  0  0  0  0
   41.2920   23.2290   35.2570 H   0  0  0  0  0  0  0  0  0  0  0  0
   38.5110   21.6430   38.7920 H   0  0  0  0  0  0  0  0  0  0  0  0
   38.2680   23.3080   39.6190 H   0  0  0  0  0  0  0  0  0  0  0  0
   37.3050   27.2260   33.4070 O   0  0  0  0  0  0  0  0  0  0  0  0
   37.6150   28.5610   31.2310 O   0  0  0  0  0  0  0  0  0  0  0  0
   37.9770   27.2610   31.8820 P   0  0  1  0  0  0  0  0  0  0  0  0
   39.7080   27.2970   32.0360 O   0  0  0  0  0  0  0  0  0  0  0  0
   39.9530   27.6370   32.9230 H   0  0  0  0  0  0  0  0  0  0  0  0
   37.5150   25.9000   31.0340 O   0  0  0  0  0  0  0  0  0  0  0  0
   34.7090   25.2840   30.6000 Cl  0  0  0  0  0  0  0  0  0  0  0  0
   35.9520   24.2550   31.3260 C   0  0  0  0  0  0  0  0  0  0  0  0
   37.2870   24.6420   31.4950 C   0  0  0  0  0  0  0  0  0  0  0  0
   38.1340   23.7200   32.0800 C   0  0  0  0  0  0  0  0  0  0  0  0
   39.1460   24.0940   32.1740 H   0  0  0  0  0  0  0  0  0  0  0  0
   37.7000   22.4810   32.4820 C   0  0  0  0  0  3  0  0  0  0  0  0
   36.3800   22.1320   32.3010 C   0  0  0  0  0  0  0  0  0  0  0  0
   35.8550   20.5510   32.8210 Cl  0  0  0  0  0  0  0  0  0  0  0  0
   35.4990   23.0020   31.7290 C   0  0  0  0  0  0  0  0  0  0  0  0
   34.4720   22.6880   31.6070 H   0  0  0  0  0  0  0  0  0  0  0  0
  1  4  1  6  0  0  0
  1  2  1  0  0  0  0
  1  8  1  0  0  0  0
  2  6  1  0  0  0  0
  2  5  1  0  0  0  0
  3  7  1  6  0  0  0
  3  1  1  0  0  0  0
  3  2  1  0  0  0  0
  8 13  1  0  0  0  0
  9 10  1  0  0  0  0
  9  8  2  0  0  0  0
 10 11  2  0  0  0  0
 11 12  1  0  0  0  0
 12 14  1  0  0  0  0
 13 12  2  0  0  0  0
 14 18  1  0  0  0  0
 15  9  1  0  0  0  0
 16 10  1  0  0  0  0
 17 14  1  0  0  0  0
 19  3  1  0  0  0  0
 21 20  2  6  0  0  0
 21 22  1  0  0  0  0
 21 19  1  0  0  0  0
 22 23  1  0  0  0  0
 24 27  1  0  0  0  0
 24 21  1  0  0  0  0
 25 26  1  0  0  0  0
 26 27  2  0  0  0  0
 26 33  1  0  0  0  0
 27 28  1  0  0  0  0
 28 29  1  0  0  0  0
 28 30  2  0  0  0  0
 31 30  1  0  0  0  0
 31 32  1  0  0  0  0
 33 31  2  0  0  0  0
 34 33  1  0  0  0  0
M  END
>  <minimizedAffinity>
-5.82240772

$$$$

 OpenBabel03272504583D

 34 36  0  0  1  0  0  0  0  0999 V2000
   37.7600   26.0690   35.5570 C   0  0  1  0  0  0  0  0  0  0  0  0
   38.3150   27.4020   35.5140 C   0  0  0  0  0  0  0  0  0  0  0  0
   38.1570   26.6110   34.2580 C   0  0  2  0  0  0  0  0  0  0  0  0
   36.6360   25.8760   35.6560 H   0  0  0  0  0  0  0  0  0  0  0  0
   39.3540   27.5120   35.8910 H   0  0  0  0  0  0  0  0  0  0  0  0
   37.6400   28.0510   36.0380 H   0  0  0  0  0  0  0  0  0  0  0  0
   39.0960   26.5510   33.7380 H   0  0  0  0  0  0  0  0  0  0  0  0
   38.5630   24.9110   36.0810 C   0  0  0  0  0  0  0  0  0  0  0  0
   39.6660   24.5240   35.2910 C   0  0  0  0  0  0  0  0  0  0  0  0
   40.3850   23.4630   35.7920 C   0  0  0  0  0  0  0  0  0  0  0  0
   40.0170   22.8720   36.9610 N   0  0  0  0  0  0  0  0  0  0  0  0
   38.9420   23.2800   37.6920 C   0  0  0  0  0  0  0  0  0  0  0  0
   38.2020   24.3350   37.2220 N   0  0  0  0  0  0  0  0  0  0  0  0
   38.5540   22.6870   38.9010 N   0  0  0  0  0  0  0  0  0  0  0  0
   39.9620   24.9770   34.3790 H   0  0  0  0  0  0  0  0  0  0  0  0
   41.2420   23.0960   35.2620 H   0  0  0  0  0  0  0  0  0  0  0  0
   38.5140   21.6510   38.8980 H   0  0  0  0  0  0  0  0  0  0  0  0
   38.3400   23.3350   39.7020 H   0  0  0  0  0  0  0  0  0  0  0  0
   37.0980   27.0100   33.4270 O   0  0  0  0  0  0  0  0  0  0  0  0
   35.6070   26.2120   31.4910 O   0  0  0  0  0  0  0  0  0  0  0  0
   36.9240   25.9480   32.1550 P   0  0  1  0  0  0  0  0  0  0  0  0
   38.1210   26.3190   30.9500 O   0  0  0  0  0  0  0  0  0  0  0  0
   38.4220   27.2460   31.0600 H   0  0  0  0  0  0  0  0  0  0  0  0
   37.1340   24.3840   32.6960 O   0  0  0  0  0  0  0  0  0  0  0  0
   39.6230   23.1170   31.8970 Cl  0  0  0  0  0  0  0  0  0  0  0  0
   37.9730   22.5300   31.6510 C   0  0  0  0  0  0  0  0  0  0  0  0
   36.8280   23.2150   32.0740 C   0  0  0  0  0  0  0  0  0  0  0  0
   35.6100   22.6200   31.8050 C   0  0  0  0  0  0  0  0  0  0  0  0
   34.7760   23.2100   32.1630 H   0  0  0  0  0  0  0  0  0  0  0  0
   35.5140   21.4140   31.1540 C   0  0  0  0  0  3  0  0  0  0  0  0
   36.6600   20.7670   30.7520 C   0  0  0  0  0  0  0  0  0  0  0  0
   36.5090   19.2370   29.9260 Cl  0  0  0  0  0  0  0  0  0  0  0  0
   37.8900   21.3080   30.9900 C   0  0  0  0  0  0  0  0  0  0  0  0
   38.7640   20.7660   30.6560 H   0  0  0  0  0  0  0  0  0  0  0  0
  1  4  1  1  0  0  0
  1  8  1  0  0  0  0
  2  1  1  0  0  0  0
  2  5  1  0  0  0  0
  2  6  1  0  0  0  0
  3  7  1  6  0  0  0
  3  2  1  0  0  0  0
  3  1  1  0  0  0  0
  8 13  1  0  0  0  0
  9 10  1  0  0  0  0
  9  8  2  0  0  0  0
 10 11  2  0  0  0  0
 11 12  1  0  0  0  0
 12 14  1  0  0  0  0
 13 12  2  0  0  0  0
 14 18  1  0  0  0  0
 15  9  1  0  0  0  0
 16 10  1  0  0  0  0
 17 14  1  0  0  0  0
 19  3  1  0  0  0  0
 21 20  2  6  0  0  0
 21 24  1  0  0  0  0
 21 19  1  0  0  0  0
 22 23  1  0  0  0  0
 22 21  1  0  0  0  0
 26 25  1  0  0  0  0
 26 27  1  0  0  0  0
 27 24  1  0  0  0  0
 28 27  2  0  0  0  0
 28 29  1  0  0  0  0
 30 28  1  0  0  0  0
 31 33  1  0  0  0  0
 31 30  2  0  0  0  0
 32 31  1  0  0  0  0
 33 26  2  0  0  0  0
 34 33  1  0  0  0  0
M  END
>  <minimizedAffinity>
-5.68502617

$$$$

 OpenBabel03272504583D

 34 36  0  0  1  0  0  0  0  0999 V2000
   37.8480   25.6020   35.9590 C   0  0  1  0  0  0  0  0  0  0  0  0
   38.4780   26.8810   36.1880 C   0  0  0  0  0  0  0  0  0  0  0  0
   37.8790   26.5630   34.8580 C   0  0  2  0  0  0  0  0  0  0  0  0
   36.7940   25.3610   36.3360 H   0  0  0  0  0  0  0  0  0  0  0  0
   39.5880   26.8780   36.2330 H   0  0  0  0  0  0  0  0  0  0  0  0
   38.0530   27.2970   37.0810 H   0  0  0  0  0  0  0  0  0  0  0  0
   38.6070   26.7050   34.0800 H   0  0  0  0  0  0  0  0  0  0  0  0
   38.6670   24.3520   35.7890 C   0  0  0  0  0  0  0  0  0  0  0  0
   38.9070   23.9540   34.4570 C   0  0  0  0  0  0  0  0  0  0  0  0
   39.6600   22.8090   34.3280 C   0  0  0  0  0  0  0  0  0  0  0  0
   40.1100   22.1540   35.4320 N   0  0  0  0  0  0  0  0  0  0  0  0
   39.8540   22.5750   36.7020 C   0  0  0  0  0  0  0  0  0  0  0  0
   39.1070   23.7130   36.8680 N   0  0  0  0  0  0  0  0  0  0  0  0
   40.3170   21.9150   37.8490 N   0  0  0  0  0  0  0  0  0  0  0  0
   38.5610   24.4570   33.5910 H   0  0  0  0  0  0  0  0  0  0  0  0
   39.8950   22.4270   33.3550 H   0  0  0  0  0  0  0  0  0  0  0  0
   40.1770   20.8880   37.8610 H   0  0  0  0  0  0  0  0  0  0  0  0
   40.7650   22.5110   38.5910 H   0  0  0  0  0  0  0  0  0  0  0  0
   36.6580   27.1980   34.5840 O   0  0  0  0  0  0  0  0  0  0  0  0
   38.0720   27.8050   32.5230 O   0  0  0  0  0  0  0  0  0  0  0  0
   36.6680   27.8410   33.0460 P   0  0  1  0  0  0  0  0  0  0  0  0
   35.7660   26.7900   31.9960 O   0  0  0  0  0  0  0  0  0  0  0  0
   35.7270   25.8900   32.3840 H   0  0  0  0  0  0  0  0  0  0  0  0
   35.9670   29.3550   33.0660 O   0  0  0  0  0  0  0  0  0  0  0  0
   33.0690   29.1940   32.9480 Cl  0  0  0  0  0  0  0  0  0  0  0  0
   34.0670   30.0290   34.1460 C   0  0  0  0  0  0  0  0  0  0  0  0
   35.4660   30.0520   34.1200 C   0  0  0  0  0  0  0  0  0  0  0  0
   36.0980   30.7510   35.1310 C   0  0  0  0  0  0  0  0  0  0  0  0
   37.1760   30.7200   35.0400 H   0  0  0  0  0  0  0  0  0  0  0  0
   35.3980   31.3970   36.1200 C   0  0  0  0  0  3  0  0  0  0  0  0
   34.0220   31.3550   36.1160 C   0  0  0  0  0  0  0  0  0  0  0  0
   33.1580   32.1860   37.3850 Cl  0  0  0  0  0  0  0  0  0  0  0  0
   33.3460   30.6810   35.1420 C   0  0  0  0  0  0  0  0  0  0  0  0
   32.2650   30.6740   35.1780 H   0  0  0  0  0  0  0  0  0  0  0  0
  1  2  1  0  0  0  0
  1  4  1  1  0  0  0
  2  5  1  0  0  0  0
  2  6  1  0  0  0  0
  3  7  1  6  0  0  0
  3  1  1  0  0  0  0
  3  2  1  0  0  0  0
  8  1  1  0  0  0  0
  8 13  1  0  0  0  0
  9  8  2  0  0  0  0
 10  9  1  0  0  0  0
 10 11  2  0  0  0  0
 11 12  1  0  0  0  0
 12 13  2  0  0  0  0
 12 14  1  0  0  0  0
 14 17  1  0  0  0  0
 14 18  1  0  0  0  0
 15  9  1  0  0  0  0
 16 10  1  0  0  0  0
 19  3  1  0  0  0  0
 21 20  2  6  0  0  0
 21 24  1  0  0  0  0
 21 19  1  0  0  0  0
 22 23  1  0  0  0  0
 22 21  1  0  0  0  0
 24 27  1  0  0  0  0
 25 26  1  0  0  0  0
 26 33  1  0  0  0  0
 27 26  2  0  0  0  0
 27 28  1  0  0  0  0
 28 30  2  0  0  0  0
 29 28  1  0  0  0  0
 31 30  1  0  0  0  0
 31 32  1  0  0  0  0
 33 34  1  0  0  0  0
 33 31  2  0  0  0  0
M  END
>  <minimizedAffinity>
-5.68276691

$$$$

 OpenBabel03272504583D

 34 36  0  0  1  0  0  0  0  0999 V2000
   36.4930   22.7000   31.1140 C   0  0  1  0  0  0  0  0  0  0  0  0
   35.5900   23.8230   31.0170 C   0  0  0  0  0  0  0  0  0  0  0  0
   36.8070   23.9060   31.8780 C   0  0  2  0  0  0  0  0  0  0  0  0
   37.2570   22.4550   30.2980 H   0  0  0  0  0  0  0  0  0  0  0  0
   34.6230   23.7210   31.5530 H   0  0  0  0  0  0  0  0  0  0  0  0
   35.4390   24.0280   29.9750 H   0  0  0  0  0  0  0  0  0  0  0  0
   36.5340   24.1860   32.8800 H   0  0  0  0  0  0  0  0  0  0  0  0
   36.1250   21.4750   31.9050 C   0  0  0  0  0  0  0  0  0  0  0  0
   35.9760   20.2870   31.1590 C   0  0  0  0  0  0  0  0  0  0  0  0
   35.6410   19.1800   31.9050 C   0  0  0  0  0  0  0  0  0  0  0  0
   35.4810   19.2810   33.2530 N   0  0  0  0  0  0  0  0  0  0  0  0
   35.6360   20.4520   33.9330 C   0  0  0  0  0  0  0  0  0  0  0  0
   35.9690   21.5750   33.2210 N   0  0  0  0  0  0  0  0  0  0  0  0
   35.4800   20.5700   35.3210 N   0  0  0  0  0  0  0  0  0  0  0  0
   36.0990   20.1980   30.1110 H   0  0  0  0  0  0  0  0  0  0  0  0
   35.5060   18.2310   31.4280 H   0  0  0  0  0  0  0  0  0  0  0  0
   34.6300   20.1270   35.7150 H   0  0  0  0  0  0  0  0  0  0  0  0
   36.2320   21.0910   35.8400 H   0  0  0  0  0  0  0  0  0  0  0  0
   37.8540   24.6860   31.3620 O   0  0  0  0  0  0  0  0  0  0  0  0
   38.7930   27.0690   31.5910 O   0  0  0  0  0  0  0  0  0  0  0  0
   38.2030   25.9490   32.3930 P   0  0  1  0  0  0  0  0  0  0  0  0
   36.7130   26.5810   33.0250 O   0  0  0  0  0  0  0  0  0  0  0  0
   35.9730   26.3420   32.4270 H   0  0  0  0  0  0  0  0  0  0  0  0
   39.1610   25.4030   33.6450 O   0  0  0  0  0  0  0  0  0  0  0  0
   38.6710   27.2770   35.8100 Cl  0  0  0  0  0  0  0  0  0  0  0  0
   38.5470   25.5130   35.8460 C   0  0  0  0  0  0  0  0  0  0  0  0
   38.8060   24.6880   34.7440 C   0  0  0  0  0  0  0  0  0  0  0  0
   38.6640   23.3270   34.9380 C   0  0  0  0  0  0  0  0  0  0  0  0
   38.8800   22.7600   34.0410 H   0  0  0  0  0  0  0  0  0  0  0  0
   38.2890   22.7960   36.1470 C   0  0  0  0  0  3  0  0  0  0  0  0
   38.0420   23.6350   37.2100 C   0  0  0  0  0  0  0  0  0  0  0  0
   37.5670   22.9330   38.7350 Cl  0  0  0  0  0  0  0  0  0  0  0  0
   38.1670   24.9870   37.0770 C   0  0  0  0  0  0  0  0  0  0  0  0
   37.9640   25.6090   37.9380 H   0  0  0  0  0  0  0  0  0  0  0  0
  1  4  1  6  0  0  0
  1  3  1  0  0  0  0
  1  8  1  0  0  0  0
  2  1  1  0  0  0  0
  2  5  1  0  0  0  0
  2  3  1  0  0  0  0
  3  7  1  1  0  0  0
  6  2  1  0  0  0  0
  8 13  1  0  0  0  0
  9  8  2  0  0  0  0
  9 10  1  0  0  0  0
 10 11  2  0  0  0  0
 11 12  1  0  0  0  0
 12 14  1  0  0  0  0
 13 12  2  0  0  0  0
 14 17  1  0  0  0  0
 14 18  1  0  0  0  0
 15  9  1  0  0  0  0
 16 10  1  0  0  0  0
 19  3  1  0  0  0  0
 19 21  1  0  0  0  0
 21 20  2  6  0  0  0
 21 22  1  0  0  0  0
 21 24  1  0  0  0  0
 23 22  1  0  0  0  0
 24 27  1  0  0  0  0
 25 26  1  0  0  0  0
 26 33  1  0  0  0  0
 27 28  1  0  0  0  0
 27 26  2  0  0  0  0
 28 30  2  0  0  0  0
 29 28  1  0  0  0  0
 30 31  1  0  0  0  0
 31 32  1  0  0  0  0
 33 31  2  0  0  0  0
 33 34  1  0  0  0  0
M  END
>  <minimizedAffinity>
-5.63841867

$$$$

 OpenBabel03272504583D

 34 36  0  0  1  0  0  0  0  0999 V2000
   39.9550   24.9560   34.2340 C   0  0  1  0  0  0  0  0  0  0  0  0
   40.9070   24.2620   33.4000 C   0  0  0  0  0  0  0  0  0  0  0  0
   39.4730   24.3470   32.9960 C   0  0  2  0  0  0  0  0  0  0  0  0
   39.8740   26.0980   34.2530 H   0  0  0  0  0  0  0  0  0  0  0  0
   41.2500   23.2720   33.7680 H   0  0  0  0  0  0  0  0  0  0  0  0
   41.7360   24.9230   33.2340 H   0  0  0  0  0  0  0  0  0  0  0  0
   39.0810   23.3630   32.8120 H   0  0  0  0  0  0  0  0  0  0  0  0
   39.4640   24.3520   35.5210 C   0  0  0  0  0  0  0  0  0  0  0  0
   38.2520   24.8730   36.0190 C   0  0  0  0  0  0  0  0  0  0  0  0
   37.8230   24.3040   37.1960 C   0  0  0  0  0  0  0  0  0  0  0  0
   38.5510   23.3180   37.7890 N   0  0  0  0  0  0  0  0  0  0  0  0
   39.7190   22.8440   37.2710 C   0  0  0  0  0  0  0  0  0  0  0  0
   40.1760   23.3900   36.0990 N   0  0  0  0  0  0  0  0  0  0  0  0
   40.4760   21.8260   37.8660 N   0  0  0  0  0  0  0  0  0  0  0  0
   37.6780   25.6400   35.5660 H   0  0  0  0  0  0  0  0  0  0  0  0
   36.9120   24.6340   37.6530 H   0  0  0  0  0  0  0  0  0  0  0  0
   40.6420   21.9290   38.8840 H   0  0  0  0  0  0  0  0  0  0  0  0
   40.8070   21.0510   37.2360 H   0  0  0  0  0  0  0  0  0  0  0  0
   39.1960   25.2470   31.9550 O   0  0  0  0  0  0  0  0  0  0  0  0
   36.7490   25.4250   32.7240 O   0  0  0  0  0  0  0  0  0  0  0  0
   37.5910   25.1530   31.5150 P   0  0  1  0  0  0  0  0  0  0  0  0
   37.2370   26.4510   30.4150 O   0  0  0  0  0  0  0  0  0  0  0  0
   37.8970   27.1680   30.5280 H   0  0  0  0  0  0  0  0  0  0  0  0
   37.2980   23.6880   30.7710 O   0  0  0  0  0  0  0  0  0  0  0  0
   39.2580   21.5450   30.7160 Cl  0  0  0  0  0  0  0  0  0  0  0  0
   37.5880   21.4810   31.2950 C   0  0  0  0  0  0  0  0  0  0  0  0
   36.7120   22.5730   31.2810 C   0  0  0  0  0  0  0  0  0  0  0  0
   35.4380   22.3560   31.7700 C   0  0  0  0  0  0  0  0  0  0  0  0
   34.8240   23.2470   31.7250 H   0  0  0  0  0  0  0  0  0  0  0  0
   35.0360   21.1340   32.2480 C   0  0  0  0  0  3  0  0  0  0  0  0
   35.9230   20.0800   32.2480 C   0  0  0  0  0  0  0  0  0  0  0  0
   35.3860   18.5370   32.8610 Cl  0  0  0  0  0  0  0  0  0  0  0  0
   37.1930   20.2360   31.7770 C   0  0  0  0  0  0  0  0  0  0  0  0
   37.8560   19.3820   31.7950 H   0  0  0  0  0  0  0  0  0  0  0  0
  1  4  1  6  0  0  0
  1  8  1  0  0  0  0
  2  5  1  0  0  0  0
  2  1  1  0  0  0  0
  3  7  1  1  0  0  0
  3  2  1  0  0  0  0
  3  1  1  0  0  0  0
  6  2  1  0  0  0  0
  8  9  2  0  0  0  0
  8 13  1  0  0  0  0
  9 10  1  0  0  0  0
 10 16  1  0  0  0  0
 10 11  2  0  0  0  0
 12 11  1  0  0  0  0
 12 14  1  0  0  0  0
 13 12  2  0  0  0  0
 14 17  1  0  0  0  0
 15  9  1  0  0  0  0
 18 14  1  0  0  0  0
 19  3  1  0  0  0  0
 21 19  1  0  0  0  0
 21 20  2  1  0  0  0
 22 23  1  0  0  0  0
 22 21  1  0  0  0  0
 24 27  1  0  0  0  0
 24 21  1  0  0  0  0
 25 26  1  0  0  0  0
 26 33  1  0  0  0  0
 27 26  2  0  0  0  0
 27 28  1  0  0  0  0
 28 30  2  0  0  0  0
 29 28  1  0  0  0  0
 30 31  1  0  0  0  0
 31 32  1  0  0  0  0
 33 34  1  0  0  0  0
 33 31  2  0  0  0  0
M  END
>  <minimizedAffinity>
-5.56801844

$$$$

 OpenBabel03272504583D

 34 36  0  0  1  0  0  0  0  0999 V2000
   38.5650   26.4200   34.5880 C   0  0  1  0  0  0  0  0  0  0  0  0
   38.3960   26.8400   35.9590 C   0  0  0  0  0  0  0  0  0  0  0  0
   38.2410   25.4030   35.5860 C   0  0  2  0  0  0  0  0  0  0  0  0
   39.5970   26.2900   34.1090 H   0  0  0  0  0  0  0  0  0  0  0  0
   37.4560   27.3850   36.1910 H   0  0  0  0  0  0  0  0  0  0  0  0
   39.2580   27.4180   36.2300 H   0  0  0  0  0  0  0  0  0  0  0  0
   37.2870   25.0340   35.9180 H   0  0  0  0  0  0  0  0  0  0  0  0
   37.5150   26.7100   33.5510 C   0  0  0  0  0  0  0  0  0  0  0  0
   36.8780   27.9640   33.6600 C   0  0  0  0  0  0  0  0  0  0  0  0
   35.9220   28.2060   32.7000 C   0  0  0  0  0  0  0  0  0  0  0  0
   35.6550   27.2750   31.7450 N   0  0  0  0  0  0  0  0  0  0  0  0
   36.2960   26.0750   31.6770 C   0  0  0  0  0  0  0  0  0  0  0  0
   37.2550   25.8000   32.6190 N   0  0  0  0  0  0  0  0  0  0  0  0
   36.0370   25.1080   30.6960 N   0  0  0  0  0  0  0  0  0  0  0  0
   37.0780   28.6960   34.3990 H   0  0  0  0  0  0  0  0  0  0  0  0
   35.3830   29.1320   32.6990 H   0  0  0  0  0  0  0  0  0  0  0  0
   35.0350   24.9010   30.5270 H   0  0  0  0  0  0  0  0  0  0  0  0
   36.8710   24.6820   30.2180 H   0  0  0  0  0  0  0  0  0  0  0  0
   39.3070   24.5690   35.9590 O   0  0  0  0  0  0  0  0  0  0  0  0
   39.6880   23.0220   37.9770 O   0  0  0  0  0  0  0  0  0  0  0  0
   38.7480   23.2660   36.8350 P   0  0  1  0  0  0  0  0  0  0  0  0
   37.2370   23.6990   37.5770 O   0  0  0  0  0  0  0  0  0  0  0  0
   37.1710   24.6750   37.6440 H   0  0  0  0  0  0  0  0  0  0  0  0
   38.5250   21.9610   35.8200 O   0  0  0  0  0  0  0  0  0  0  0  0
   35.8600   20.8390   36.1010 Cl  0  0  0  0  0  0  0  0  0  0  0  0
   36.6590   21.3960   34.6240 C   0  0  0  0  0  0  0  0  0  0  0  0
   37.9550   21.9250   34.5870 C   0  0  0  0  0  0  0  0  0  0  0  0
   38.4340   22.3140   33.3510 C   0  0  0  0  0  0  0  0  0  0  0  0
   39.4400   22.7110   33.4070 H   0  0  0  0  0  0  0  0  0  0  0  0
   37.6870   22.1920   32.2060 C   0  0  0  0  0  3  0  0  0  0  0  0
   36.4150   21.6680   32.2770 C   0  0  0  0  0  0  0  0  0  0  0  0
   35.4880   21.5250   30.8060 Cl  0  0  0  0  0  0  0  0  0  0  0  0
   35.8910   21.2670   33.4700 C   0  0  0  0  0  0  0  0  0  0  0  0
   34.8890   20.8600   33.4800 H   0  0  0  0  0  0  0  0  0  0  0  0
  1  4  1  6  0  0  0
  1  3  1  0  0  0  0
  1  2  1  0  0  0  0
  2  5  1  0  0  0  0
  2  6  1  0  0  0  0
  3  7  1  6  0  0  0
  3  2  1  0  0  0  0
  3 19  1  0  0  0  0
  8  9  1  0  0  0  0
  8  1  1  0  0  0  0
  9 15  1  0  0  0  0
 10  9  2  0  0  0  0
 11 10  1  0  0  0  0
 12 11  2  0  0  0  0
 12 13  1  0  0  0  0
 13  8  2  0  0  0  0
 14 12  1  0  0  0  0
 16 10  1  0  0  0  0
 17 14  1  0  0  0  0
 18 14  1  0  0  0  0
 19 21  1  0  0  0  0
 21 22  1  0  0  0  0
 21 20  2  1  0  0  0
 22 23  1  0  0  0  0
 24 21  1  0  0  0  0
 26 25  1  0  0  0  0
 27 26  1  0  0  0  0
 27 24  1  0  0  0  0
 28 29  1  0  0  0  0
 28 27  2  0  0  0  0
 30 31  2  0  0  0  0
 30 28  1  0  0  0  0
 31 33  1  0  0  0  0
 32 31  1  0  0  0  0
 33 34  1  0  0  0  0
 33 26  2  0  0  0  0
M  END
>  <minimizedAffinity>
-5.55799818

$$$$

 OpenBabel03272504583D

 34 36  0  0  1  0  0  0  0  0999 V2000
   37.7640   26.0170   35.3700 C   0  0  1  0  0  0  0  0  0  0  0  0
   38.4740   27.2580   35.5660 C   0  0  0  0  0  0  0  0  0  0  0  0
   38.3480   26.6690   34.2000 C   0  0  2  0  0  0  0  0  0  0  0  0
   36.6200   25.9610   35.3490 H   0  0  0  0  0  0  0  0  0  0  0  0
   39.4760   27.1800   36.0380 H   0  0  0  0  0  0  0  0  0  0  0  0
   37.8320   27.9150   36.1210 H   0  0  0  0  0  0  0  0  0  0  0  0
   39.3200   26.5560   33.7540 H   0  0  0  0  0  0  0  0  0  0  0  0
   38.3670   24.7030   35.7850 C   0  0  0  0  0  0  0  0  0  0  0  0
   38.9030   23.9200   34.7420 C   0  0  0  0  0  0  0  0  0  0  0  0
   39.4510   22.7230   35.1460 C   0  0  0  0  0  0  0  0  0  0  0  0
   39.4490   22.3760   36.4620 N   0  0  0  0  0  0  0  0  0  0  0  0
   38.9200   23.1660   37.4380 C   0  0  0  0  0  0  0  0  0  0  0  0
   38.3650   24.3650   37.0700 N   0  0  0  0  0  0  0  0  0  0  0  0
   38.9160   22.8250   38.7980 N   0  0  0  0  0  0  0  0  0  0  0  0
   38.9100   24.1810   33.7150 H   0  0  0  0  0  0  0  0  0  0  0  0
   39.8830   22.0590   34.4260 H   0  0  0  0  0  0  0  0  0  0  0  0
   38.6020   21.8620   39.0150 H   0  0  0  0  0  0  0  0  0  0  0  0
   39.2310   23.5670   39.4740 H   0  0  0  0  0  0  0  0  0  0  0  0
   37.4320   27.3110   33.3520 O   0  0  0  0  0  0  0  0  0  0  0  0
   38.6260   26.0530   31.4540 O   0  0  0  0  0  0  0  0  0  0  0  0
   37.2650   26.4630   31.9270 P   0  0  1  0  0  0  0  0  0  0  0  0
   36.4310   24.9750   32.2570 O   0  0  0  0  0  0  0  0  0  0  0  0
   36.5280   24.7470   33.2070 H   0  0  0  0  0  0  0  0  0  0  0  0
   36.3880   27.3700   30.8350 O   0  0  0  0  0  0  0  0  0  0  0  0
   35.1080   29.5860   32.2090 Cl  0  0  0  0  0  0  0  0  0  0  0  0
   36.1670   29.6460   30.7940 C   0  0  0  0  0  0  0  0  0  0  0  0
   36.7400   28.5170   30.1980 C   0  0  0  0  0  0  0  0  0  0  0  0
   37.5460   28.7360   29.0960 C   0  0  0  0  0  0  0  0  0  0  0  0
   37.9500   27.8150   28.6940 H   0  0  0  0  0  0  0  0  0  0  0  0
   37.7800   29.9940   28.6000 C   0  0  0  0  0  3  0  0  0  0  0  0
   37.2010   31.0840   29.2110 C   0  0  0  0  0  0  0  0  0  0  0  0
   37.5160   32.6710   28.5600 Cl  0  0  0  0  0  0  0  0  0  0  0  0
   36.3960   30.9280   30.3010 C   0  0  0  0  0  0  0  0  0  0  0  0
   35.9610   31.8110   30.7490 H   0  0  0  0  0  0  0  0  0  0  0  0
  1  4  1  1  0  0  0
  1  2  1  0  0  0  0
  1  8  1  0  0  0  0
  2  5  1  0  0  0  0
  2  6  1  0  0  0  0
  3  7  1  6  0  0  0
  3  1  1  0  0  0  0
  3  2  1  0  0  0  0
  8 13  1  0  0  0  0
  9 10  1  0  0  0  0
  9  8  2  0  0  0  0
 10 11  2  0  0  0  0
 11 12  1  0  0  0  0
 12 14  1  0  0  0  0
 13 12  2  0  0  0  0
 14 17  1  0  0  0  0
 14 18  1  0  0  0  0
 15  9  1  0  0  0  0
 16 10  1  0  0  0  0
 19  3  1  0  0  0  0
 21 20  2  6  0  0  0
 21 22  1  0  0  0  0
 21 19  1  0  0  0  0
 22 23  1  0  0  0  0
 24 21  1  0  0  0  0
 26 25  1  0  0  0  0
 27 26  2  0  0  0  0
 27 24  1  0  0  0  0
 28 27  1  0  0  0  0
 29 28  1  0  0  0  0
 30 28  2  0  0  0  0
 30 31  1  0  0  0  0
 31 33  2  0  0  0  0
 32 31  1  0  0  0  0
 33 34  1  0  0  0  0
 33 26  1  0  0  0  0
M  END
>  <minimizedAffinity>
-5.39458466

$$$$

 OpenBabel03272504583D

 34 36  0  0  1  0  0  0  0  0999 V2000
   37.7890   26.2270   35.4250 C   0  0  1  0  0  0  0  0  0  0  0  0
   38.6500   27.3650   35.6420 C   0  0  0  0  0  0  0  0  0  0  0  0
   38.3740   26.8810   34.2570 C   0  0  2  0  0  0  0  0  0  0  0  0
   36.6480   26.3020   35.4780 H   0  0  0  0  0  0  0  0  0  0  0  0
   39.6630   27.1450   36.0400 H   0  0  0  0  0  0  0  0  0  0  0  0
   38.1240   28.0540   36.2740 H   0  0  0  0  0  0  0  0  0  0  0  0
   39.2970   26.6870   33.7410 H   0  0  0  0  0  0  0  0  0  0  0  0
   38.2590   24.8300   35.7250 C   0  0  0  0  0  0  0  0  0  0  0  0
   38.5410   24.0250   34.6010 C   0  0  0  0  0  0  0  0  0  0  0  0
   38.9710   22.7530   34.9010 C   0  0  0  0  0  0  0  0  0  0  0  0
   39.0970   22.3560   36.1960 N   0  0  0  0  0  0  0  0  0  0  0  0
   38.8130   23.1690   37.2530 C   0  0  0  0  0  0  0  0  0  0  0  0
   38.3820   24.4440   36.9910 N   0  0  0  0  0  0  0  0  0  0  0  0
   38.9440   22.7770   38.5920 N   0  0  0  0  0  0  0  0  0  0  0  0
   38.4460   24.3240   33.5890 H   0  0  0  0  0  0  0  0  0  0  0  0
   39.2090   22.0660   34.1140 H   0  0  0  0  0  0  0  0  0  0  0  0
   38.5350   21.8560   38.8300 H   0  0  0  0  0  0  0  0  0  0  0  0
   39.4430   23.4440   39.2350 H   0  0  0  0  0  0  0  0  0  0  0  0
   37.4890   27.6740   33.5090 O   0  0  0  0  0  0  0  0  0  0  0  0
   38.5500   26.5310   31.4650 O   0  0  0  0  0  0  0  0  0  0  0  0
   37.2350   27.0050   32.0040 P   0  0  1  0  0  0  0  0  0  0  0  0
   36.2760   25.5670   32.1880 O   0  0  0  0  0  0  0  0  0  0  0  0
   36.3610   25.2300   33.1060 H   0  0  0  0  0  0  0  0  0  0  0  0
   36.4320   28.0970   31.0320 O   0  0  0  0  0  0  0  0  0  0  0  0
   37.7630   28.7940   28.5460 Cl  0  0  0  0  0  0  0  0  0  0  0  0
   37.1850   29.8810   29.8150 C   0  0  0  0  0  0  0  0  0  0  0  0
   36.5510   29.4500   30.9870 C   0  0  0  0  0  0  0  0  0  0  0  0
   36.1590   30.4290   31.8800 C   0  0  0  0  0  0  0  0  0  0  0  0
   35.6780   30.0150   32.7570 H   0  0  0  0  0  0  0  0  0  0  0  0
   36.3750   31.7640   31.6430 C   0  0  0  0  0  3  0  0  0  0  0  0
   37.0020   32.1540   30.4800 C   0  0  0  0  0  0  0  0  0  0  0  0
   37.2640   33.8570   30.2050 Cl  0  0  0  0  0  0  0  0  0  0  0  0
   37.4100   31.2320   29.5630 C   0  0  0  0  0  0  0  0  0  0  0  0
   37.8990   31.5820   28.6640 H   0  0  0  0  0  0  0  0  0  0  0  0
  1  4  1  1  0  0  0
  1  2  1  0  0  0  0
  1  8  1  0  0  0  0
  2  5  1  0  0  0  0
  2  6  1  0  0  0  0
  3  7  1  6  0  0  0
  3  1  1  0  0  0  0
  3  2  1  0  0  0  0
  8 13  1  0  0  0  0
  9 10  1  0  0  0  0
  9  8  2  0  0  0  0
 10 11  2  0  0  0  0
 11 12  1  0  0  0  0
 12 14  1  0  0  0  0
 13 12  2  0  0  0  0
 14 17  1  0  0  0  0
 14 18  1  0  0  0  0
 15  9  1  0  0  0  0
 16 10  1  0  0  0  0
 19  3  1  0  0  0  0
 21 20  2  6  0  0  0
 21 22  1  0  0  0  0
 21 19  1  0  0  0  0
 22 23  1  0  0  0  0
 24 21  1  0  0  0  0
 25 26  1  0  0  0  0
 26 27  1  0  0  0  0
 27 24  1  0  0  0  0
 27 28  2  0  0  0  0
 28 29  1  0  0  0  0
 30 28  1  0  0  0  0
 31 30  2  0  0  0  0
 32 31  1  0  0  0  0
 33 26  2  0  0  0  0
 33 31  1  0  0  0  0
 34 33  1  0  0  0  0
M  END
>  <minimizedAffinity>
-5.31449604

$$$$

 OpenBabel03272504583D

 34 36  0  0  1  0  0  0  0  0999 V2000
   38.4260   26.5440   34.6960 C   0  0  1  0  0  0  0  0  0  0  0  0
   38.3350   26.9260   36.0850 C   0  0  0  0  0  0  0  0  0  0  0  0
   38.0340   25.5250   35.6680 C   0  0  2  0  0  0  0  0  0  0  0  0
   39.4270   26.3340   34.1820 H   0  0  0  0  0  0  0  0  0  0  0  0
   37.4590   27.5480   36.3660 H   0  0  0  0  0  0  0  0  0  0  0  0
   39.2560   27.4090   36.3490 H   0  0  0  0  0  0  0  0  0  0  0  0
   37.0590   25.2360   36.0170 H   0  0  0  0  0  0  0  0  0  0  0  0
   37.3800   26.9700   33.7030 C   0  0  0  0  0  0  0  0  0  0  0  0
   36.7130   28.1780   33.9980 C   0  0  0  0  0  0  0  0  0  0  0  0
   35.7620   28.5470   33.0740 C   0  0  0  0  0  0  0  0  0  0  0  0
   35.5250   27.7710   31.9820 N   0  0  0  0  0  0  0  0  0  0  0  0
   36.1950   26.6100   31.7370 C   0  0  0  0  0  0  0  0  0  0  0  0
   37.1500   26.2110   32.6370 N   0  0  0  0  0  0  0  0  0  0  0  0
   35.9670   25.8030   30.6130 N   0  0  0  0  0  0  0  0  0  0  0  0
   36.8900   28.7890   34.8450 H   0  0  0  0  0  0  0  0  0  0  0  0
   35.2020   29.4500   33.2110 H   0  0  0  0  0  0  0  0  0  0  0  0
   34.9730   25.6040   30.4010 H   0  0  0  0  0  0  0  0  0  0  0  0
   36.8150   25.4750   30.0860 H   0  0  0  0  0  0  0  0  0  0  0  0
   39.0250   24.5810   35.9780 O   0  0  0  0  0  0  0  0  0  0  0  0
   39.7570   22.1740   35.4470 O   0  0  0  0  0  0  0  0  0  0  0  0
   38.5470   23.0560   35.5020 P   0  0  1  0  0  0  0  0  0  0  0  0
   37.5440   22.3720   36.7450 O   0  0  0  0  0  0  0  0  0  0  0  0
   37.7250   22.8210   37.5990 H   0  0  0  0  0  0  0  0  0  0  0  0
   37.6880   23.1570   34.0760 O   0  0  0  0  0  0  0  0  0  0  0  0
   39.0320   23.5370   31.5280 Cl  0  0  0  0  0  0  0  0  0  0  0  0
   37.8950   22.2600   31.9820 C   0  0  0  0  0  0  0  0  0  0  0  0
   37.2940   22.1590   33.2420 C   0  0  0  0  0  0  0  0  0  0  0  0
   36.4270   21.1010   33.4360 C   0  0  0  0  0  0  0  0  0  0  0  0
   36.0050   21.0930   34.4340 H   0  0  0  0  0  0  0  0  0  0  0  0
   36.1590   20.1850   32.4490 C   0  0  0  0  0  3  0  0  0  0  0  0
   36.7670   20.3130   31.2210 C   0  0  0  0  0  0  0  0  0  0  0  0
   36.4080   19.1360   29.9840 Cl  0  0  0  0  0  0  0  0  0  0  0  0
   37.6320   21.3390   30.9720 C   0  0  0  0  0  0  0  0  0  0  0  0
   38.0870   21.4020   29.9930 H   0  0  0  0  0  0  0  0  0  0  0  0
  1  4  1  6  0  0  0
  1  3  1  0  0  0  0
  1  2  1  0  0  0  0
  2  6  1  0  0  0  0
  2  5  1  0  0  0  0
  3 19  1  0  0  0  0
  3  7  1  1  0  0  0
  3  2  1  0  0  0  0
  8  9  1  0  0  0  0
  8  1  1  0  0  0  0
  9 15  1  0  0  0  0
 10 16  1  0  0  0  0
 10  9  2  0  0  0  0
 11 10  1  0  0  0  0
 12 11  2  0  0  0  0
 12 13  1  0  0  0  0
 13  8  2  0  0  0  0
 14 12  1  0  0  0  0
 17 14  1  0  0  0  0
 18 14  1  0  0  0  0
 21 20  2  6  0  0  0
 21 19  1  0  0  0  0
 21 22  1  0  0  0  0
 22 23  1  0  0  0  0
 24 21  1  0  0  0  0
 25 26  1  0  0  0  0
 26 27  1  0  0  0  0
 27 28  2  0  0  0  0
 27 24  1  0  0  0  0
 28 29  1  0  0  0  0
 30 28  1  0  0  0  0
 31 30  2  0  0  0  0
 32 31  1  0  0  0  0
 33 31  1  0  0  0  0
 33 26  2  0  0  0  0
 34 33  1  0  0  0  0
M  END
>  <minimizedAffinity>
-5.28037214

$$$$
