
 OpenBabel03262522133D

 34 36  0  0  0  0  0  0  0  0999 V2000
   37.7170   31.7020   47.6300 C   0  0  0  0  0  0  0  0  0  0  0  0
   37.9110   32.4570   48.7990 C   0  0  0  0  0  0  0  0  0  0  0  0
   38.9180   33.3860   48.8550 C   0  0  0  0  0  0  0  0  0  0  0  0
   39.7010   33.5250   47.7260 C   0  0  0  0  0  0  0  0  0  0  0  0
   39.4880   32.7820   46.6130 C   0  0  0  0  0  0  0  0  0  0  0  0
   38.4930   31.8410   46.5110 N   0  0  0  0  0  0  0  0  0  0  0  0
   37.2620   32.2980   49.6450 H   0  0  0  0  0  0  0  0  0  0  0  0
   39.0660   33.9580   49.7410 H   0  0  0  0  0  0  0  0  0  0  0  0
   40.4950   34.2580   47.7730 H   0  0  0  0  0  0  0  0  0  0  0  0
   36.6310   30.7410   47.6430 C   0  0  0  0  0  0  0  0  0  0  0  0
   36.1220   30.3500   46.5900 O   0  0  0  0  0  0  0  0  0  0  0  0
   36.9650   29.5940   49.8090 C   0  0  0  0  0  0  0  0  0  0  0  0
   36.0900   30.1940   48.8960 C   0  0  0  0  0  0  0  0  0  0  0  0
   34.7070   30.2680   49.1810 C   0  0  0  0  0  0  0  0  0  0  0  0
   34.3010   29.7240   50.3840 N   0  0  0  0  0  0  0  0  0  0  0  0
   35.1720   29.1540   51.2390 C   0  0  0  0  0  0  0  0  0  0  0  0
   36.4570   29.0950   50.9570 N   0  0  0  0  0  0  0  0  0  0  0  0
   38.0230   29.5200   49.6250 H   0  0  0  0  0  0  0  0  0  0  0  0
   34.1010   30.7340   48.4470 H   0  0  0  0  0  0  0  0  0  0  0  0
   34.6120   28.8100   52.0970 H   0  0  0  0  0  0  0  0  0  0  0  0
   40.5180   32.9750   45.1370 S   0  0  0  0  0  0  0  0  0  0  0  0
   39.4340   32.6770   43.7240 C   0  0  0  0  0  0  0  0  0  0  0  0
   38.3870   32.4300   44.0340 H   0  0  0  0  0  0  0  0  0  0  0  0
   39.3110   33.6420   43.1460 H   0  0  0  0  0  0  0  0  0  0  0  0
   38.7980   33.0740   40.7600 Cl  0  0  0  0  0  0  0  0  0  0  0  0
   39.7120   31.7270   41.4050 C   0  0  0  0  0  0  0  0  0  0  0  0
   39.9440   31.6560   42.7820 C   0  0  0  0  0  0  0  0  0  0  0  0
   40.6700   30.5580   43.1780 C   0  0  0  0  0  0  0  0  0  0  0  0
   40.8480   30.5160   44.2630 H   0  0  0  0  0  0  0  0  0  0  0  0
   41.1900   29.5360   42.4160 C   0  0  0  0  0  3  0  0  0  0  0  0
   40.9310   29.6510   41.0460 C   0  0  0  0  0  0  0  0  0  0  0  0
   41.5600   28.3840   40.0110 Cl  0  0  0  0  0  0  0  0  0  0  0  0
   40.1990   30.7350   40.5470 C   0  0  0  0  0  0  0  0  0  0  0  0
   40.0300   30.7730   39.4770 H   0  0  0  0  0  0  0  0  0  0  0  0
  1 10  1  0  0  0  0
  1  2  1  0  0  0  0
  2  3  2  0  0  0  0
  2  7  1  0  0  0  0
  3  8  1  0  0  0  0
  4  9  1  0  0  0  0
  4  3  1  0  0  0  0
  5  4  2  0  0  0  0
  6  5  1  0  0  0  0
  6  1  2  0  0  0  0
 10 13  1  0  0  0  0
 11 10  2  0  0  0  0
 12 17  1  0  0  0  0
 13 14  1  0  0  0  0
 13 12  2  0  0  0  0
 14 15  2  0  0  0  0
 15 16  1  0  0  0  0
 16 20  1  0  0  0  0
 17 16  2  0  0  0  0
 18 12  1  0  0  0  0
 19 14  1  0  0  0  0
 21  5  1  0  0  0  0
 22 23  1  0  0  0  0
 22 21  1  0  0  0  0
 24 22  1  0  0  0  0
 25 26  1  0  0  0  0
 26 27  1  0  0  0  0
 27 28  2  0  0  0  0
 27 22  1  0  0  0  0
 28 29  1  0  0  0  0
 30 28  1  0  0  0  0
 31 30  2  0  0  0  0
 32 31  1  0  0  0  0
 33 31  1  0  0  0  0
 33 26  2  0  0  0  0
 34 33  1  0  0  0  0
M  END
>  <minimizedAffinity>
-5.81006145

>  <minimizedRMSD>
2.11791492

$$$$
