
 OpenBabel03272510273D

 46 50  0  0  1  0  0  0  0  0999 V2000
   39.4810   33.5950   43.3690 O   0  0  0  0  0  0  0  0  0  0  0  0
   36.2600   30.1820   46.9350 C   0  0  0  0  0  0  0  0  0  0  0  0
   37.0700   30.7420   47.9070 C   0  0  0  0  0  0  0  0  0  0  0  0
   38.0550   31.6730   47.5540 C   0  0  0  0  0  0  0  0  0  0  0  0
   38.1500   31.9770   46.2010 C   0  0  0  0  0  0  0  0  0  0  0  0
   39.0360   32.8500   45.6090 N   0  0  0  0  0  0  0  0  0  0  0  0
   38.7720   32.8250   44.2960 C   0  0  0  0  0  0  0  0  0  0  0  0
   37.7830   31.9930   44.0650 N   0  0  0  0  0  0  0  0  0  0  0  0
   37.3660   31.4430   45.2160 C   0  0  0  0  0  0  0  0  0  0  0  0
   36.3930   30.5190   45.5940 C   0  0  0  0  0  0  0  0  0  0  0  0
   35.4780   29.4550   47.1470 H   0  0  0  0  0  0  0  0  0  0  0  0
   38.6950   32.1180   48.3030 H   0  0  0  0  0  0  0  0  0  0  0  0
   39.7650   33.4090   46.1190 H   0  0  0  0  0  0  0  0  0  0  0  0
   35.7680   30.0920   44.8190 H   0  0  0  0  0  0  0  0  0  0  0  0
   37.4340   30.1140   51.5850 C   0  0  0  0  0  0  0  0  0  0  0  0
   37.7630   30.5650   50.3140 C   0  0  0  0  0  0  0  0  0  0  0  0
   36.8720   30.3400   49.2820 C   0  0  0  0  0  0  0  0  0  0  0  0
   35.7060   29.6790   49.5810 N   0  0  0  0  0  0  0  0  0  0  0  0
   35.4080   29.2500   50.8230 C   0  0  0  0  0  0  0  0  0  0  0  0
   36.2690   29.4700   51.8080 N   0  0  0  0  0  0  0  0  0  0  0  0
   38.1460   30.2990   52.3890 H   0  0  0  0  0  0  0  0  0  0  0  0
   38.6780   31.0830   50.0850 H   0  0  0  0  0  0  0  0  0  0  0  0
   34.4610   28.7420   50.9390 H   0  0  0  0  0  0  0  0  0  0  0  0
   39.7320   31.8120   41.9270 N   0  0  0  0  0  0  0  0  0  0  0  0
   39.3510   33.2260   42.0040 C   0  0  1  0  0  0  0  0  0  0  0  0
   37.9660   33.3500   41.5690 C   0  0  0  0  0  0  0  0  0  0  0  0
   37.8860   33.0100   40.2140 O   0  0  0  0  0  0  0  0  0  0  0  0
   38.3430   31.7420   39.9150 C   0  0  0  0  0  0  0  0  0  0  0  0
   39.7130   31.4850   40.5350 C   0  0  2  0  0  0  0  0  0  0  0  0
   39.0110   31.2020   42.3510 H   0  0  0  0  0  0  0  0  0  0  0  0
   40.0340   33.7440   41.3340 H   0  0  0  0  0  0  0  0  0  0  0  0
   37.1460   32.8330   41.9940 H   0  0  0  0  0  0  0  0  0  0  0  0
   37.6990   34.4510   41.5880 H   0  0  0  0  0  0  0  0  0  0  0  0
   37.6380   30.9630   40.2490 H   0  0  0  0  0  0  0  0  0  0  0  0
   38.4430   31.6870   38.8190 H   0  0  0  0  0  0  0  0  0  0  0  0
   40.4740   32.1370   40.0010 H   0  0  0  0  0  0  0  0  0  0  0  0
   42.5540   30.2380   39.4460 Cl  0  0  0  0  0  0  0  0  0  0  0  0
   41.1290   29.3350   39.8840 C   0  0  0  0  0  0  0  0  0  0  0  0
   40.0610   30.0880   40.2960 C   0  0  0  0  0  0  0  0  0  0  0  0
   38.9670   29.2510   40.6080 C   0  0  0  0  0  0  0  0  0  0  0  0
   37.9880   29.6070   40.9630 H   0  0  0  0  0  0  0  0  0  0  0  0
   38.9490   27.8580   40.5180 C   0  0  0  0  0  3  0  0  0  0  0  0
   40.0770   27.2250   40.0930 C   0  0  0  0  0  0  0  0  0  0  0  0
   40.1710   25.4870   39.9420 Cl  0  0  0  0  0  0  0  0  0  0  0  0
   41.1720   27.9720   39.7750 C   0  0  0  0  0  0  0  0  0  0  0  0
   42.0720   27.5150   39.4400 H   0  0  0  0  0  0  0  0  0  0  0  0
  1  7  1  0  0  0  0
  2 11  1  0  0  0  0
  2  3  1  0  0  0  0
  3 17  1  0  0  0  0
  4  3  2  0  0  0  0
  4 12  1  0  0  0  0
  5  4  1  0  0  0  0
  6 13  1  0  0  0  0
  6  5  1  0  0  0  0
  7  6  1  0  0  0  0
  8  7  2  0  0  0  0
  8  9  1  0  0  0  0
  9 10  1  0  0  0  0
  9  5  2  0  0  0  0
 10  2  2  0  0  0  0
 14 10  1  0  0  0  0
 15 20  1  0  0  0  0
 15 21  1  0  0  0  0
 16 15  2  0  0  0  0
 17 18  2  0  0  0  0
 17 16  1  0  0  0  0
 18 19  1  0  0  0  0
 19 23  1  0  0  0  0
 19 20  2  0  0  0  0
 22 16  1  0  0  0  0
 24 25  1  0  0  0  0
 24 30  1  0  0  0  0
 25 31  1  6  0  0  0
 25  1  1  0  0  0  0
 26 33  1  0  0  0  0
 26 32  1  0  0  0  0
 26 25  1  0  0  0  0
 27 26  1  0  0  0  0
 28 27  1  0  0  0  0
 28 34  1  0  0  0  0
 28 29  1  0  0  0  0
 29 36  1  6  0  0  0
 29 24  1  0  0  0  0
 35 28  1  0  0  0  0
 37 38  1  0  0  0  0
 38 39  1  0  0  0  0
 39 29  1  0  0  0  0
 39 40  2  0  0  0  0
 40 41  1  0  0  0  0
 42 40  1  0  0  0  0
 43 42  2  0  0  0  0
 44 43  1  0  0  0  0
 45 38  2  0  0  0  0
 45 43  1  0  0  0  0
 46 45  1  0  0  0  0
M  END
>  <minimizedAffinity>
-6.25817871

>  <minimizedRMSD>
0.730371058

$$$$
