
 OpenBabel03272509253D

 25 26  0  0  0  0  0  0  0  0999 V2000
   38.4580   26.9550   35.5680 C   0  0  0  0  0  0  0  0  0  0  0  0
   37.9430   27.8500   35.9780 H   0  0  0  0  0  0  0  0  0  0  0  0
   39.4550   26.8210   36.0080 H   0  0  0  0  0  0  0  0  0  0  0  0
   41.2270   26.6450   34.5860 Cl  0  0  0  0  0  0  0  0  0  0  0  0
   39.8410   27.0100   33.5540 C   0  0  0  0  0  0  0  0  0  0  0  0
   38.5630   27.1400   34.0930 C   0  0  0  0  0  0  0  0  0  0  0  0
   37.5440   27.4250   33.2120 C   0  0  0  0  0  0  0  0  0  0  0  0
   36.5690   27.5180   33.6680 H   0  0  0  0  0  0  0  0  0  0  0  0
   37.8170   27.5680   31.8670 C   0  0  0  0  0  3  0  0  0  0  0  0
   39.0770   27.4360   31.3580 C   0  0  0  0  0  0  0  0  0  0  0  0
   39.4010   27.6220   29.6420 Cl  0  0  0  0  0  0  0  0  0  0  0  0
   40.1140   27.1520   32.2150 C   0  0  0  0  0  0  0  0  0  0  0  0
   41.1070   27.0510   31.7960 H   0  0  0  0  0  0  0  0  0  0  0  0
   37.5520   25.7560   35.8310 C   0  0  0  0  0  0  0  0  0  0  0  0
   37.2100   25.3720   34.8250 H   0  0  0  0  0  0  0  0  0  0  0  0
   36.6730   26.0480   36.4100 H   0  0  0  0  0  0  0  0  0  0  0  0
   38.7720   23.3610   38.5350 C   0  0  0  0  0  0  0  0  0  0  0  0
   38.0450   24.3470   37.8800 C   0  0  0  0  0  0  0  0  0  0  0  0
   38.3010   24.7140   36.5720 C   0  0  0  0  0  0  0  0  0  0  0  0
   39.3090   24.0590   35.9450 N   0  0  0  0  0  0  0  0  0  0  0  0
   40.0190   23.0970   36.5840 C   0  0  0  0  0  0  0  0  0  0  0  0
   39.7500   22.7570   37.8600 N   0  0  0  0  0  0  0  0  0  0  0  0
   38.5870   23.0660   39.5450 H   0  0  0  0  0  0  0  0  0  0  0  0
   37.2670   24.8230   38.4330 H   0  0  0  0  0  0  0  0  0  0  0  0
   40.7950   22.6600   35.9580 H   0  0  0  0  0  0  0  0  0  0  0  0
  1 14  1  0  0  0  0
  1  2  1  0  0  0  0
  1  3  1  0  0  0  0
  5  6  1  0  0  0  0
  5  4  1  0  0  0  0
  6  1  1  0  0  0  0
  7  8  1  0  0  0  0
  7  6  2  0  0  0  0
  9  7  1  0  0  0  0
 10  9  2  0  0  0  0
 10 12  1  0  0  0  0
 11 10  1  0  0  0  0
 12  5  2  0  0  0  0
 13 12  1  0  0  0  0
 14 16  1  0  0  0  0
 14 19  1  0  0  0  0
 15 14  1  0  0  0  0
 17 23  1  0  0  0  0
 18 24  1  0  0  0  0
 18 17  1  0  0  0  0
 19 18  2  0  0  0  0
 20 19  1  0  0  0  0
 20 21  2  0  0  0  0
 21 22  1  0  0  0  0
 22 17  2  0  0  0  0
 25 21  1  0  0  0  0
M  END
>  <minimizedAffinity>
-4.61909056

$$$$

 OpenBabel03272509253D

 25 26  0  0  0  0  0  0  0  0999 V2000
   37.8140   25.1900   36.0170 C   0  0  0  0  0  0  0  0  0  0  0  0
   37.2440   25.1930   36.9710 H   0  0  0  0  0  0  0  0  0  0  0  0
   37.1850   24.8890   35.1680 H   0  0  0  0  0  0  0  0  0  0  0  0
   37.7910   23.8500   38.6490 Cl  0  0  0  0  0  0  0  0  0  0  0  0
   39.0080   23.5690   37.4010 C   0  0  0  0  0  0  0  0  0  0  0  0
   38.9500   24.2400   36.1820 C   0  0  0  0  0  0  0  0  0  0  0  0
   39.9410   23.9560   35.2690 C   0  0  0  0  0  0  0  0  0  0  0  0
   39.8620   24.4960   34.3370 H   0  0  0  0  0  0  0  0  0  0  0  0
   40.9280   23.0450   35.5850 C   0  0  0  0  0  3  0  0  0  0  0  0
   40.9670   22.3970   36.7870 C   0  0  0  0  0  0  0  0  0  0  0  0
   42.2320   21.2400   37.1680 Cl  0  0  0  0  0  0  0  0  0  0  0  0
   39.9900   22.6610   37.7170 C   0  0  0  0  0  0  0  0  0  0  0  0
   40.0350   22.1390   38.6650 H   0  0  0  0  0  0  0  0  0  0  0  0
   38.3900   26.5900   35.8340 C   0  0  0  0  0  0  0  0  0  0  0  0
   39.5150   26.4870   35.8240 H   0  0  0  0  0  0  0  0  0  0  0  0
   38.1080   27.2430   36.6640 H   0  0  0  0  0  0  0  0  0  0  0  0
   38.0290   27.5980   32.1740 C   0  0  0  0  0  0  0  0  0  0  0  0
   38.5300   27.0360   33.3420 C   0  0  0  0  0  0  0  0  0  0  0  0
   37.8970   27.1740   34.5640 C   0  0  0  0  0  0  0  0  0  0  0  0
   36.7490   27.8930   34.5730 N   0  0  0  0  0  0  0  0  0  0  0  0
   36.2600   28.4430   33.4340 C   0  0  0  0  0  0  0  0  0  0  0  0
   36.8960   28.2940   32.2550 N   0  0  0  0  0  0  0  0  0  0  0  0
   38.5050   27.5010   31.2230 H   0  0  0  0  0  0  0  0  0  0  0  0
   39.4380   26.4840   33.2630 H   0  0  0  0  0  0  0  0  0  0  0  0
   35.3340   28.9910   33.5950 H   0  0  0  0  0  0  0  0  0  0  0  0
  1  6  1  0  0  0  0
  1  2  1  0  0  0  0
  3  1  1  0  0  0  0
  5 12  1  0  0  0  0
  5  4  1  0  0  0  0
  6  5  2  0  0  0  0
  7  9  2  0  0  0  0
  7  6  1  0  0  0  0
  8  7  1  0  0  0  0
  9 10  1  0  0  0  0
 10 11  1  0  0  0  0
 10 12  2  0  0  0  0
 12 13  1  0  0  0  0
 14  1  1  0  0  0  0
 14 16  1  0  0  0  0
 15 14  1  0  0  0  0
 17 22  2  0  0  0  0
 17 18  1  0  0  0  0
 18 19  2  0  0  0  0
 19 20  1  0  0  0  0
 19 14  1  0  0  0  0
 21 25  1  0  0  0  0
 21 20  2  0  0  0  0
 22 21  1  0  0  0  0
 23 17  1  0  0  0  0
 24 18  1  0  0  0  0
M  END
>  <minimizedAffinity>
-4.5993104

$$$$

 OpenBabel03272509253D

 25 26  0  0  0  0  0  0  0  0999 V2000
   39.0710   26.1850   34.5690 C   0  0  0  0  0  0  0  0  0  0  0  0
   39.2600   26.5230   35.6100 H   0  0  0  0  0  0  0  0  0  0  0  0
   39.9860   26.2040   33.9620 H   0  0  0  0  0  0  0  0  0  0  0  0
   39.4790   26.6440   31.6800 Cl  0  0  0  0  0  0  0  0  0  0  0  0
   38.1700   27.3580   32.6250 C   0  0  0  0  0  0  0  0  0  0  0  0
   38.0430   27.0930   33.9870 C   0  0  0  0  0  0  0  0  0  0  0  0
   36.9920   27.6940   34.6410 C   0  0  0  0  0  0  0  0  0  0  0  0
   36.9280   27.4640   35.6950 H   0  0  0  0  0  0  0  0  0  0  0  0
   36.1270   28.5140   33.9480 C   0  0  0  0  0  3  0  0  0  0  0  0
   36.2680   28.7630   32.6120 C   0  0  0  0  0  0  0  0  0  0  0  0
   35.1550   29.8100   31.7480 Cl  0  0  0  0  0  0  0  0  0  0  0  0
   37.3090   28.1760   31.9320 C   0  0  0  0  0  0  0  0  0  0  0  0
   37.4070   28.3820   30.8740 H   0  0  0  0  0  0  0  0  0  0  0  0
   38.4720   24.7840   34.6550 C   0  0  0  0  0  0  0  0  0  0  0  0
   39.0080   24.1470   33.8920 H   0  0  0  0  0  0  0  0  0  0  0  0
   37.4070   24.7970   34.4110 H   0  0  0  0  0  0  0  0  0  0  0  0
   39.7820   22.8720   37.6820 C   0  0  0  0  0  0  0  0  0  0  0  0
   39.6470   23.3510   36.3850 C   0  0  0  0  0  0  0  0  0  0  0  0
   38.6550   24.2440   36.0220 C   0  0  0  0  0  0  0  0  0  0  0  0
   37.8060   24.6370   37.0030 N   0  0  0  0  0  0  0  0  0  0  0  0
   37.9370   24.1690   38.2690 C   0  0  0  0  0  0  0  0  0  0  0  0
   38.9130   23.3000   38.5970 N   0  0  0  0  0  0  0  0  0  0  0  0
   40.5430   22.1830   37.9780 H   0  0  0  0  0  0  0  0  0  0  0  0
   40.3480   22.9990   35.6630 H   0  0  0  0  0  0  0  0  0  0  0  0
   37.1860   24.5710   38.9460 H   0  0  0  0  0  0  0  0  0  0  0  0
  1 14  1  0  0  0  0
  1  2  1  0  0  0  0
  3  1  1  0  0  0  0
  4  5  1  0  0  0  0
  5  6  1  0  0  0  0
  6  1  1  0  0  0  0
  6  7  2  0  0  0  0
  7  8  1  0  0  0  0
  9  7  1  0  0  0  0
 10  9  2  0  0  0  0
 11 10  1  0  0  0  0
 12 10  1  0  0  0  0
 12  5  2  0  0  0  0
 13 12  1  0  0  0  0
 14 19  1  0  0  0  0
 15 14  1  0  0  0  0
 16 14  1  0  0  0  0
 17 23  1  0  0  0  0
 17 22  1  0  0  0  0
 18 17  2  0  0  0  0
 19 18  1  0  0  0  0
 19 20  2  0  0  0  0
 20 21  1  0  0  0  0
 21 22  2  0  0  0  0
 21 25  1  0  0  0  0
 24 18  1  0  0  0  0
M  END
>  <minimizedAffinity>
-4.53669882

$$$$

 OpenBabel03272509253D

 25 26  0  0  0  0  0  0  0  0999 V2000
   38.9300   25.2070   34.0630 C   0  0  0  0  0  0  0  0  0  0  0  0
   39.3620   25.6890   34.9660 H   0  0  0  0  0  0  0  0  0  0  0  0
   39.6960   25.0070   33.3010 H   0  0  0  0  0  0  0  0  0  0  0  0
   38.4280   27.5090   35.8450 Cl  0  0  0  0  0  0  0  0  0  0  0  0
   37.5980   27.2400   34.3100 C   0  0  0  0  0  0  0  0  0  0  0  0
   37.8900   26.1290   33.5230 C   0  0  0  0  0  0  0  0  0  0  0  0
   37.1930   26.0030   32.3430 C   0  0  0  0  0  0  0  0  0  0  0  0
   37.4480   25.1280   31.7620 H   0  0  0  0  0  0  0  0  0  0  0  0
   36.2560   26.9520   31.9920 C   0  0  0  0  0  3  0  0  0  0  0  0
   35.9830   28.0360   32.7770 C   0  0  0  0  0  0  0  0  0  0  0  0
   34.7870   29.2330   32.3100 Cl  0  0  0  0  0  0  0  0  0  0  0  0
   36.6640   28.1880   33.9610 C   0  0  0  0  0  0  0  0  0  0  0  0
   36.4370   29.0510   34.5720 H   0  0  0  0  0  0  0  0  0  0  0  0
   38.2360   23.9290   34.5250 C   0  0  0  0  0  0  0  0  0  0  0  0
   38.6680   23.0800   33.9180 H   0  0  0  0  0  0  0  0  0  0  0  0
   37.1610   23.9770   34.3400 H   0  0  0  0  0  0  0  0  0  0  0  0
   37.9110   23.9780   38.3240 C   0  0  0  0  0  0  0  0  0  0  0  0
   37.6490   24.1970   36.9760 C   0  0  0  0  0  0  0  0  0  0  0  0
   38.4750   23.7240   35.9730 C   0  0  0  0  0  0  0  0  0  0  0  0
   39.5690   23.0270   36.3660 N   0  0  0  0  0  0  0  0  0  0  0  0
   39.8250   22.8140   37.6810 C   0  0  0  0  0  0  0  0  0  0  0  0
   39.0040   23.2850   38.6400 N   0  0  0  0  0  0  0  0  0  0  0  0
   37.2830   24.3350   39.1100 H   0  0  0  0  0  0  0  0  0  0  0  0
   36.7720   24.7540   36.7380 H   0  0  0  0  0  0  0  0  0  0  0  0
   40.7360   22.2410   37.8440 H   0  0  0  0  0  0  0  0  0  0  0  0
  1 14  1  0  0  0  0
  1  2  1  0  0  0  0
  3  1  1  0  0  0  0
  5  4  1  0  0  0  0
  6  1  1  0  0  0  0
  6  5  2  0  0  0  0
  7  6  1  0  0  0  0
  8  7  1  0  0  0  0
  9  7  2  0  0  0  0
  9 10  1  0  0  0  0
 10 12  2  0  0  0  0
 11 10  1  0  0  0  0
 12  5  1  0  0  0  0
 12 13  1  0  0  0  0
 14 19  1  0  0  0  0
 15 14  1  0  0  0  0
 16 14  1  0  0  0  0
 17 22  1  0  0  0  0
 17 23  1  0  0  0  0
 18 17  2  0  0  0  0
 19 20  2  0  0  0  0
 19 18  1  0  0  0  0
 20 21  1  0  0  0  0
 21 25  1  0  0  0  0
 21 22  2  0  0  0  0
 24 18  1  0  0  0  0
M  END
>  <minimizedAffinity>
-4.47310686

$$$$

 OpenBabel03272509253D

 25 26  0  0  0  0  0  0  0  0999 V2000
   38.5530   23.7970   33.4130 C   0  0  0  0  0  0  0  0  0  0  0  0
   38.6560   24.4180   32.4970 H   0  0  0  0  0  0  0  0  0  0  0  0
   39.4930   23.2930   33.6710 H   0  0  0  0  0  0  0  0  0  0  0  0
   36.9160   24.4870   31.0530 Cl  0  0  0  0  0  0  0  0  0  0  0  0
   36.6660   23.0520   32.0500 C   0  0  0  0  0  0  0  0  0  0  0  0
   37.4820   22.7940   33.1500 C   0  0  0  0  0  0  0  0  0  0  0  0
   37.2130   21.6510   33.8680 C   0  0  0  0  0  0  0  0  0  0  0  0
   37.8670   21.4870   34.7130 H   0  0  0  0  0  0  0  0  0  0  0  0
   36.1750   20.8270   33.4870 C   0  0  0  0  0  3  0  0  0  0  0  0
   35.3860   21.0970   32.4060 C   0  0  0  0  0  0  0  0  0  0  0  0
   34.0700   20.0320   31.9380 Cl  0  0  0  0  0  0  0  0  0  0  0  0
   35.6310   22.2310   31.6690 C   0  0  0  0  0  0  0  0  0  0  0  0
   34.9970   22.4310   30.8150 H   0  0  0  0  0  0  0  0  0  0  0  0
   38.0730   24.7200   34.5290 C   0  0  0  0  0  0  0  0  0  0  0  0
   36.9500   24.7980   34.4350 H   0  0  0  0  0  0  0  0  0  0  0  0
   38.5010   25.7200   34.4230 H   0  0  0  0  0  0  0  0  0  0  0  0
   38.1080   23.7340   38.2120 C   0  0  0  0  0  0  0  0  0  0  0  0
   37.7080   24.2800   36.9980 C   0  0  0  0  0  0  0  0  0  0  0  0
   38.4600   24.1600   35.8440 C   0  0  0  0  0  0  0  0  0  0  0  0
   39.6260   23.4760   35.9500 N   0  0  0  0  0  0  0  0  0  0  0  0
   40.0180   22.9440   37.1340 C   0  0  0  0  0  0  0  0  0  0  0  0
   39.2660   23.0740   38.2450 N   0  0  0  0  0  0  0  0  0  0  0  0
   37.5390   23.8170   39.1110 H   0  0  0  0  0  0  0  0  0  0  0  0
   36.7810   24.8060   36.9870 H   0  0  0  0  0  0  0  0  0  0  0  0
   40.9720   22.4250   37.0670 H   0  0  0  0  0  0  0  0  0  0  0  0
  1  3  1  0  0  0  0
  1 14  1  0  0  0  0
  2  1  1  0  0  0  0
  4  5  1  0  0  0  0
  5  6  1  0  0  0  0
  6  1  1  0  0  0  0
  6  7  2  0  0  0  0
  7  8  1  0  0  0  0
  9  7  1  0  0  0  0
 10  9  2  0  0  0  0
 11 10  1  0  0  0  0
 12  5  2  0  0  0  0
 12 10  1  0  0  0  0
 13 12  1  0  0  0  0
 14 19  1  0  0  0  0
 15 14  1  0  0  0  0
 16 14  1  0  0  0  0
 17 22  1  0  0  0  0
 17 23  1  0  0  0  0
 18 17  2  0  0  0  0
 19 20  2  0  0  0  0
 19 18  1  0  0  0  0
 20 21  1  0  0  0  0
 21 22  2  0  0  0  0
 24 18  1  0  0  0  0
 25 21  1  0  0  0  0
M  END
>  <minimizedAffinity>
-4.45291328

$$$$

 OpenBabel03272509253D

 25 26  0  0  0  0  0  0  0  0999 V2000
   37.0460   27.2090   34.9050 C   0  0  0  0  0  0  0  0  0  0  0  0
   36.6180   26.1840   34.8780 H   0  0  0  0  0  0  0  0  0  0  0  0
   36.4040   27.9040   35.4630 H   0  0  0  0  0  0  0  0  0  0  0  0
   35.0100   29.2080   34.1390 Cl  0  0  0  0  0  0  0  0  0  0  0  0
   36.2710   28.6080   33.0580 C   0  0  0  0  0  0  0  0  0  0  0  0
   37.1970   27.6640   33.4930 C   0  0  0  0  0  0  0  0  0  0  0  0
   38.1440   27.2550   32.5810 C   0  0  0  0  0  0  0  0  0  0  0  0
   38.8430   26.5220   32.9570 H   0  0  0  0  0  0  0  0  0  0  0  0
   38.1410   27.7780   31.3050 C   0  0  0  0  0  3  0  0  0  0  0  0
   37.2230   28.7040   30.8960 C   0  0  0  0  0  0  0  0  0  0  0  0
   37.2390   29.3570   29.2660 Cl  0  0  0  0  0  0  0  0  0  0  0  0
   36.2670   29.1300   31.7860 C   0  0  0  0  0  0  0  0  0  0  0  0
   35.5470   29.8640   31.4470 H   0  0  0  0  0  0  0  0  0  0  0  0
   38.4380   27.0990   35.5190 C   0  0  0  0  0  0  0  0  0  0  0  0
   38.4410   27.7380   36.4510 H   0  0  0  0  0  0  0  0  0  0  0  0
   39.2000   27.4780   34.8350 H   0  0  0  0  0  0  0  0  0  0  0  0
   38.3200   23.5930   37.0140 C   0  0  0  0  0  0  0  0  0  0  0  0
   38.0100   24.9200   36.7420 C   0  0  0  0  0  0  0  0  0  0  0  0
   38.7320   25.6830   35.8440 C   0  0  0  0  0  0  0  0  0  0  0  0
   39.7730   25.0710   35.2290 N   0  0  0  0  0  0  0  0  0  0  0  0
   40.0770   23.7760   35.4940 C   0  0  0  0  0  0  0  0  0  0  0  0
   39.3570   23.0530   36.3740 N   0  0  0  0  0  0  0  0  0  0  0  0
   37.7720   22.9900   37.7040 H   0  0  0  0  0  0  0  0  0  0  0  0
   37.1790   25.3390   37.2620 H   0  0  0  0  0  0  0  0  0  0  0  0
   40.9360   23.4210   34.9280 H   0  0  0  0  0  0  0  0  0  0  0  0
  1  3  1  0  0  0  0
  1 14  1  0  0  0  0
  2  1  1  0  0  0  0
  5  6  1  0  0  0  0
  5  4  1  0  0  0  0
  6  1  1  0  0  0  0
  7  8  1  0  0  0  0
  7  6  2  0  0  0  0
  9  7  1  0  0  0  0
 10  9  2  0  0  0  0
 10 12  1  0  0  0  0
 11 10  1  0  0  0  0
 12  5  2  0  0  0  0
 13 12  1  0  0  0  0
 14 19  1  0  0  0  0
 14 15  1  0  0  0  0
 16 14  1  0  0  0  0
 17 23  1  0  0  0  0
 18 17  1  0  0  0  0
 18 24  1  0  0  0  0
 19 18  2  0  0  0  0
 20 21  2  0  0  0  0
 20 19  1  0  0  0  0
 21 22  1  0  0  0  0
 22 17  2  0  0  0  0
 25 21  1  0  0  0  0
M  END
>  <minimizedAffinity>
-4.4246583

$$$$

 OpenBabel03272509253D

 25 26  0  0  0  0  0  0  0  0999 V2000
   36.4170   28.4740   33.3940 C   0  0  0  0  0  0  0  0  0  0  0  0
   35.8710   27.9260   32.5970 H   0  0  0  0  0  0  0  0  0  0  0  0
   37.1120   29.2150   32.9760 H   0  0  0  0  0  0  0  0  0  0  0  0
   36.4670   25.8190   32.0990 Cl  0  0  0  0  0  0  0  0  0  0  0  0
   37.2270   26.1830   33.6510 C   0  0  0  0  0  0  0  0  0  0  0  0
   37.1610   27.4620   34.1980 C   0  0  0  0  0  0  0  0  0  0  0  0
   37.7830   27.6520   35.4110 C   0  0  0  0  0  0  0  0  0  0  0  0
   37.7090   28.6570   35.8010 H   0  0  0  0  0  0  0  0  0  0  0  0
   38.4300   26.6010   36.0250 C   0  0  0  0  0  3  0  0  0  0  0  0
   38.4840   25.3520   35.4730 C   0  0  0  0  0  0  0  0  0  0  0  0
   39.3140   24.0270   36.2720 Cl  0  0  0  0  0  0  0  0  0  0  0  0
   37.8720   25.1340   34.2620 C   0  0  0  0  0  0  0  0  0  0  0  0
   37.9230   24.1390   33.8370 H   0  0  0  0  0  0  0  0  0  0  0  0
   35.3690   29.1170   34.2960 C   0  0  0  0  0  0  0  0  0  0  0  0
   35.4200   28.5900   35.2930 H   0  0  0  0  0  0  0  0  0  0  0  0
   34.3650   28.9880   33.8850 H   0  0  0  0  0  0  0  0  0  0  0  0
   36.1900   32.5500   35.7370 C   0  0  0  0  0  0  0  0  0  0  0  0
   35.9240   31.1890   35.6460 C   0  0  0  0  0  0  0  0  0  0  0  0
   35.6540   30.5640   34.4430 C   0  0  0  0  0  0  0  0  0  0  0  0
   35.6580   31.3490   33.3380 N   0  0  0  0  0  0  0  0  0  0  0  0
   35.9160   32.6770   33.4270 C   0  0  0  0  0  0  0  0  0  0  0  0
   36.1780   33.2630   34.6120 N   0  0  0  0  0  0  0  0  0  0  0  0
   36.4010   33.0480   36.6580 H   0  0  0  0  0  0  0  0  0  0  0  0
   35.9360   30.6320   36.5550 H   0  0  0  0  0  0  0  0  0  0  0  0
   35.8850   33.1770   32.4600 H   0  0  0  0  0  0  0  0  0  0  0  0
  1  6  1  0  0  0  0
  1 14  1  0  0  0  0
  2  1  1  0  0  0  0
  3  1  1  0  0  0  0
  4  5  1  0  0  0  0
  5  6  2  0  0  0  0
  5 12  1  0  0  0  0
  6  7  1  0  0  0  0
  7  8  1  0  0  0  0
  7  9  2  0  0  0  0
 10  9  1  0  0  0  0
 10 11  1  0  0  0  0
 12 10  2  0  0  0  0
 13 12  1  0  0  0  0
 14 19  1  0  0  0  0
 14 15  1  0  0  0  0
 16 14  1  0  0  0  0
 17 23  1  0  0  0  0
 18 17  1  0  0  0  0
 18 24  1  0  0  0  0
 19 18  2  0  0  0  0
 20 21  2  0  0  0  0
 20 19  1  0  0  0  0
 21 22  1  0  0  0  0
 22 17  2  0  0  0  0
 25 21  1  0  0  0  0
M  END
>  <minimizedAffinity>
-4.4181366

$$$$

 OpenBabel03272509253D

 25 26  0  0  0  0  0  0  0  0999 V2000
   34.5680   29.3660   34.0750 C   0  0  0  0  0  0  0  0  0  0  0  0
   33.8050   29.5990   33.3020 H   0  0  0  0  0  0  0  0  0  0  0  0
   34.3290   28.4410   34.6180 H   0  0  0  0  0  0  0  0  0  0  0  0
   31.9480   29.9070   35.3260 Cl  0  0  0  0  0  0  0  0  0  0  0  0
   33.4130   30.8390   35.6460 C   0  0  0  0  0  0  0  0  0  0  0  0
   34.6140   30.5210   35.0160 C   0  0  0  0  0  0  0  0  0  0  0  0
   35.7040   31.3030   35.3270 C   0  0  0  0  0  0  0  0  0  0  0  0
   36.6160   31.0250   34.8180 H   0  0  0  0  0  0  0  0  0  0  0  0
   35.5720   32.3420   36.2230 C   0  0  0  0  0  3  0  0  0  0  0  0
   34.3850   32.6380   36.8310 C   0  0  0  0  0  0  0  0  0  0  0  0
   34.2400   33.9670   37.9700 Cl  0  0  0  0  0  0  0  0  0  0  0  0
   33.2800   31.8750   36.5390 C   0  0  0  0  0  0  0  0  0  0  0  0
   32.3470   32.1220   37.0290 H   0  0  0  0  0  0  0  0  0  0  0  0
   35.9150   29.2800   33.3650 C   0  0  0  0  0  0  0  0  0  0  0  0
   36.5600   30.1110   33.7750 H   0  0  0  0  0  0  0  0  0  0  0  0
   35.8020   29.4260   32.2880 H   0  0  0  0  0  0  0  0  0  0  0  0
   37.6370   26.3060   35.0180 C   0  0  0  0  0  0  0  0  0  0  0  0
   37.0710   27.5610   34.8260 C   0  0  0  0  0  0  0  0  0  0  0  0
   36.5310   27.9560   33.6160 C   0  0  0  0  0  0  0  0  0  0  0  0
   36.5780   27.0510   32.6080 N   0  0  0  0  0  0  0  0  0  0  0  0
   37.1310   25.8260   32.7950 C   0  0  0  0  0  0  0  0  0  0  0  0
   37.6500   25.4650   33.9840 N   0  0  0  0  0  0  0  0  0  0  0  0
   38.0570   25.9860   35.9460 H   0  0  0  0  0  0  0  0  0  0  0  0
   37.0690   28.2240   35.6610 H   0  0  0  0  0  0  0  0  0  0  0  0
   37.0980   25.2090   31.8990 H   0  0  0  0  0  0  0  0  0  0  0  0
  1  3  1  0  0  0  0
  1  6  1  0  0  0  0
  2  1  1  0  0  0  0
  4  5  1  0  0  0  0
  5 12  1  0  0  0  0
  6  7  1  0  0  0  0
  6  5  2  0  0  0  0
  7  9  2  0  0  0  0
  8  7  1  0  0  0  0
  9 10  1  0  0  0  0
 10 11  1  0  0  0  0
 12 10  2  0  0  0  0
 12 13  1  0  0  0  0
 14 19  1  0  0  0  0
 14 15  1  0  0  0  0
 14  1  1  0  0  0  0
 16 14  1  0  0  0  0
 17 23  1  0  0  0  0
 18 17  1  0  0  0  0
 18 24  1  0  0  0  0
 19 18  2  0  0  0  0
 20 21  2  0  0  0  0
 20 19  1  0  0  0  0
 21 22  1  0  0  0  0
 22 17  2  0  0  0  0
 25 21  1  0  0  0  0
M  END
>  <minimizedAffinity>
-4.33799982

$$$$

 OpenBabel03272509253D

 25 26  0  0  0  0  0  0  0  0999 V2000
   37.8120   24.4110   33.7060 C   0  0  0  0  0  0  0  0  0  0  0  0
   38.0290   23.8180   32.7920 H   0  0  0  0  0  0  0  0  0  0  0  0
   37.0940   23.9010   34.3630 H   0  0  0  0  0  0  0  0  0  0  0  0
   36.8720   24.3550   30.9070 Cl  0  0  0  0  0  0  0  0  0  0  0  0
   36.8020   25.7770   31.9500 C   0  0  0  0  0  0  0  0  0  0  0  0
   37.2650   25.7250   33.2630 C   0  0  0  0  0  0  0  0  0  0  0  0
   37.1690   26.8830   34.0020 C   0  0  0  0  0  0  0  0  0  0  0  0
   37.5390   26.8020   35.0140 H   0  0  0  0  0  0  0  0  0  0  0  0
   36.6350   28.0200   33.4330 C   0  0  0  0  0  3  0  0  0  0  0  0
   36.1860   28.0520   32.1430 C   0  0  0  0  0  0  0  0  0  0  0  0
   35.5090   29.5110   31.4390 Cl  0  0  0  0  0  0  0  0  0  0  0  0
   36.2690   26.9100   31.3820 C   0  0  0  0  0  0  0  0  0  0  0  0
   35.9090   26.9510   30.3620 H   0  0  0  0  0  0  0  0  0  0  0  0
   39.1450   24.6640   34.4040 C   0  0  0  0  0  0  0  0  0  0  0  0
   39.3180   25.7800   34.3930 H   0  0  0  0  0  0  0  0  0  0  0  0
   39.9660   24.1790   33.8700 H   0  0  0  0  0  0  0  0  0  0  0  0
   39.8900   22.7720   37.6300 C   0  0  0  0  0  0  0  0  0  0  0  0
   39.9770   23.2270   36.3190 C   0  0  0  0  0  0  0  0  0  0  0  0
   39.0900   24.1480   35.7920 C   0  0  0  0  0  0  0  0  0  0  0  0
   38.1170   24.5960   36.6220 N   0  0  0  0  0  0  0  0  0  0  0  0
   38.0310   24.1510   37.9000 C   0  0  0  0  0  0  0  0  0  0  0  0
   38.9080   23.2540   38.3910 N   0  0  0  0  0  0  0  0  0  0  0  0
   40.5660   22.0620   38.0520 H   0  0  0  0  0  0  0  0  0  0  0  0
   40.7660   22.8320   35.7210 H   0  0  0  0  0  0  0  0  0  0  0  0
   37.2010   24.5970   38.4450 H   0  0  0  0  0  0  0  0  0  0  0  0
  1  3  1  0  0  0  0
  1 14  1  0  0  0  0
  2  1  1  0  0  0  0
  4  5  1  0  0  0  0
  5  6  1  0  0  0  0
  6  1  1  0  0  0  0
  6  7  2  0  0  0  0
  7  8  1  0  0  0  0
  9  7  1  0  0  0  0
 10  9  2  0  0  0  0
 11 10  1  0  0  0  0
 12  5  2  0  0  0  0
 12 10  1  0  0  0  0
 13 12  1  0  0  0  0
 14 19  1  0  0  0  0
 15 14  1  0  0  0  0
 16 14  1  0  0  0  0
 17 23  1  0  0  0  0
 17 22  1  0  0  0  0
 18 17  2  0  0  0  0
 19 18  1  0  0  0  0
 19 20  2  0  0  0  0
 20 21  1  0  0  0  0
 21 22  2  0  0  0  0
 21 25  1  0  0  0  0
 24 18  1  0  0  0  0
M  END
>  <minimizedAffinity>
-4.32780743

$$$$
