
 OpenBabel03272501293D

 21 22  0  0  0  0  0  0  0  0999 V2000
   38.0280   32.0640   48.1080 C   0  0  0  0  0  0  0  0  0  0  0  0
   38.3920   33.2140   48.4340 O   0  0  0  0  0  0  0  0  0  0  0  0
   40.2340   33.3400   46.5030 Cl  0  0  0  0  0  0  0  0  0  0  0  0
   39.0030   32.2580   45.8680 C   0  0  0  0  0  0  0  0  0  0  0  0
   38.0310   31.7240   46.6900 C   0  0  0  0  0  0  0  0  0  0  0  0
   37.1230   30.8900   46.0700 C   0  0  0  0  0  0  0  0  0  0  0  0
   36.3490   30.4550   46.6820 H   0  0  0  0  0  0  0  0  0  0  0  0
   37.1760   30.6060   44.7230 C   0  0  0  0  0  3  0  0  0  0  0  0
   38.1610   31.1560   43.9280 C   0  0  0  0  0  0  0  0  0  0  0  0
   38.1670   30.7500   42.2240 Cl  0  0  0  0  0  0  0  0  0  0  0  0
   39.0930   31.9980   44.5000 C   0  0  0  0  0  0  0  0  0  0  0  0
   39.8660   32.4300   43.8790 H   0  0  0  0  0  0  0  0  0  0  0  0
   37.6030   30.1220   51.2790 C   0  0  0  0  0  0  0  0  0  0  0  0
   38.0450   31.1090   50.3950 C   0  0  0  0  0  0  0  0  0  0  0  0
   37.6100   31.0740   49.0750 C   0  0  0  0  0  0  0  0  0  0  0  0
   36.7740   30.0740   48.7160 N   0  0  0  0  0  0  0  0  0  0  0  0
   36.3620   29.1300   49.5980 C   0  0  0  0  0  0  0  0  0  0  0  0
   36.7700   29.1490   50.8690 N   0  0  0  0  0  0  0  0  0  0  0  0
   38.0040   30.2470   52.2810 H   0  0  0  0  0  0  0  0  0  0  0  0
   38.7170   31.9090   50.6930 H   0  0  0  0  0  0  0  0  0  0  0  0
   35.6800   28.3330   49.2620 H   0  0  0  0  0  0  0  0  0  0  0  0
  1  2  2  0  0  0  0
  1 15  1  0  0  0  0
  4  3  1  0  0  0  0
  4  5  1  0  0  0  0
  5  1  1  0  0  0  0
  6  7  1  0  0  0  0
  6  5  2  0  0  0  0
  8  6  1  0  0  0  0
  9 11  1  0  0  0  0
  9  8  2  0  0  0  0
 10  9  1  0  0  0  0
 11  4  2  0  0  0  0
 12 11  1  0  0  0  0
 13 19  1  0  0  0  0
 14 20  1  0  0  0  0
 14 13  2  0  0  0  0
 15 14  1  0  0  0  0
 16 15  2  0  0  0  0
 16 17  1  0  0  0  0
 17 18  2  0  0  0  0
 18 13  1  0  0  0  0
 21 17  1  0  0  0  0
M  END
>  <minimizedAffinity>
-4.98740482

>  <minimizedRMSD>
1.44370687

$$$$
