
 OpenBabel03272508033D

 29 31  0  0  0  0  0  0  0  0999 V2000
   37.8600   24.9160   33.5200 C   0  0  0  0  0  0  0  0  0  0  0  0
   37.0110   24.4540   32.5500 C   0  0  0  0  0  0  0  0  0  0  0  0
   36.5800   25.5200   31.7590 C   0  0  0  0  0  0  0  0  0  0  0  0
   37.2070   26.6130   32.3060 N   0  0  0  0  0  0  0  0  0  0  0  0
   37.9420   26.2460   33.3220 N   0  0  0  0  0  0  0  0  0  0  0  0
   36.7560   23.4050   32.4650 H   0  0  0  0  0  0  0  0  0  0  0  0
   35.9000   25.3750   30.9310 H   0  0  0  0  0  0  0  0  0  0  0  0
   35.8720   28.5970   34.1160 Cl  0  0  0  0  0  0  0  0  0  0  0  0
   36.3670   28.8790   32.4660 C   0  0  0  0  0  0  0  0  0  0  0  0
   36.9750   27.8900   31.7210 C   0  0  0  0  0  0  0  0  0  0  0  0
   37.3470   28.1660   30.4190 C   0  0  0  0  0  0  0  0  0  0  0  0
   37.8160   27.3440   29.8990 H   0  0  0  0  0  0  0  0  0  0  0  0
   37.1460   29.3970   29.7940 C   0  0  0  0  0  3  0  0  0  0  0  0
   36.5420   30.3670   30.5440 C   0  0  0  0  0  0  0  0  0  0  0  0
   36.2690   31.9210   29.8040 Cl  0  0  0  0  0  0  0  0  0  0  0  0
   36.1620   30.1130   31.8470 C   0  0  0  0  0  0  0  0  0  0  0  0
   35.6940   30.9230   32.3710 H   0  0  0  0  0  0  0  0  0  0  0  0
   38.5400   24.1380   34.5580 C   0  0  0  0  0  0  0  0  0  0  0  0
   38.1290   24.3280   35.9040 C   0  0  0  0  0  0  0  0  0  0  0  0
   38.7650   23.5970   36.9040 C   0  0  0  0  0  0  0  0  0  0  0  0
   39.7430   22.7430   36.5260 N   0  0  0  0  0  0  0  0  0  0  0  0
   40.1250   22.5720   35.2390 C   0  0  0  0  0  0  0  0  0  0  0  0
   39.5080   23.2800   34.2760 N   0  0  0  0  0  0  0  0  0  0  0  0
   37.3320   25.0400   36.0960 H   0  0  0  0  0  0  0  0  0  0  0  0
   40.9160   21.8690   35.0250 H   0  0  0  0  0  0  0  0  0  0  0  0
   38.3400   23.7920   38.3160 C   0  0  0  0  0  0  0  0  0  0  0  0
   39.4420   23.4580   39.0900 F   0  0  0  0  0  0  0  0  0  0  0  0
   37.9950   25.1060   38.5830 F   0  0  0  0  0  0  0  0  0  0  0  0
   37.3020   22.9440   38.6750 F   0  0  0  0  0  0  0  0  0  0  0  0
  1 18  1  0  0  0  0
  2  1  1  0  0  0  0
  3  4  1  0  0  0  0
  3  2  2  0  0  0  0
  4  5  1  0  0  0  0
  5  1  2  0  0  0  0
  6  2  1  0  0  0  0
  7  3  1  0  0  0  0
  9  8  1  0  0  0  0
 10  4  1  0  0  0  0
 10  9  2  0  0  0  0
 11 10  1  0  0  0  0
 12 11  1  0  0  0  0
 13 11  2  0  0  0  0
 13 14  1  0  0  0  0
 14 16  2  0  0  0  0
 15 14  1  0  0  0  0
 16 17  1  0  0  0  0
 16  9  1  0  0  0  0
 18 19  1  0  0  0  0
 19 24  1  0  0  0  0
 19 20  2  0  0  0  0
 20 26  1  0  0  0  0
 21 20  1  0  0  0  0
 22 21  2  0  0  0  0
 23 18  2  0  0  0  0
 23 22  1  0  0  0  0
 25 22  1  0  0  0  0
 26 28  1  0  0  0  0
 26 29  1  0  0  0  0
 26 27  1  0  0  0  0
M  END
>  <minimizedAffinity>
-5.82497406

$$$$

 OpenBabel03272508033D

 29 31  0  0  0  0  0  0  0  0999 V2000
   37.9180   25.8450   34.9170 C   0  0  0  0  0  0  0  0  0  0  0  0
   38.1970   26.9070   35.7350 C   0  0  0  0  0  0  0  0  0  0  0  0
   37.5490   28.0470   35.2580 C   0  0  0  0  0  0  0  0  0  0  0  0
   36.8870   27.6090   34.1370 N   0  0  0  0  0  0  0  0  0  0  0  0
   37.1120   26.3340   33.9540 N   0  0  0  0  0  0  0  0  0  0  0  0
   38.8320   26.8060   36.6060 H   0  0  0  0  0  0  0  0  0  0  0  0
   37.6370   29.0020   35.7590 H   0  0  0  0  0  0  0  0  0  0  0  0
   37.8720   28.1280   31.3520 Cl  0  0  0  0  0  0  0  0  0  0  0  0
   36.4760   28.8590   32.1040 C   0  0  0  0  0  0  0  0  0  0  0  0
   36.1130   28.5460   33.3980 C   0  0  0  0  0  0  0  0  0  0  0  0
   34.9980   29.1540   33.9450 C   0  0  0  0  0  0  0  0  0  0  0  0
   34.7770   28.8600   34.9610 H   0  0  0  0  0  0  0  0  0  0  0  0
   34.2020   30.0780   33.2690 C   0  0  0  0  0  3  0  0  0  0  0  0
   34.5750   30.3790   31.9890 C   0  0  0  0  0  0  0  0  0  0  0  0
   33.6090   31.5290   31.1050 Cl  0  0  0  0  0  0  0  0  0  0  0  0
   35.6840   29.7840   31.4210 C   0  0  0  0  0  0  0  0  0  0  0  0
   35.9130   30.0690   30.4130 H   0  0  0  0  0  0  0  0  0  0  0  0
   38.3900   24.4650   35.0500 C   0  0  0  0  0  0  0  0  0  0  0  0
   39.3200   24.1800   36.0840 C   0  0  0  0  0  0  0  0  0  0  0  0
   39.7800   22.8740   36.2250 C   0  0  0  0  0  0  0  0  0  0  0  0
   39.3070   21.9490   35.3590 N   0  0  0  0  0  0  0  0  0  0  0  0
   38.4210   22.2340   34.3780 C   0  0  0  0  0  0  0  0  0  0  0  0
   37.9780   23.4980   34.2440 N   0  0  0  0  0  0  0  0  0  0  0  0
   39.6340   24.9990   36.7250 H   0  0  0  0  0  0  0  0  0  0  0  0
   38.0940   21.4350   33.7290 H   0  0  0  0  0  0  0  0  0  0  0  0
   40.7550   22.5680   37.3070 C   0  0  0  0  0  0  0  0  0  0  0  0
   40.1860   23.0570   38.4740 F   0  0  0  0  0  0  0  0  0  0  0  0
   40.9660   21.2080   37.4540 F   0  0  0  0  0  0  0  0  0  0  0  0
   41.9650   23.2220   37.1250 F   0  0  0  0  0  0  0  0  0  0  0  0
  1 18  1  0  0  0  0
  1  2  1  0  0  0  0
  2  6  1  0  0  0  0
  3  2  2  0  0  0  0
  3  7  1  0  0  0  0
  4  3  1  0  0  0  0
  5  4  1  0  0  0  0
  5  1  2  0  0  0  0
  8  9  1  0  0  0  0
  9 10  1  0  0  0  0
 10 11  2  0  0  0  0
 10  4  1  0  0  0  0
 11 12  1  0  0  0  0
 13 11  1  0  0  0  0
 14 13  2  0  0  0  0
 15 14  1  0  0  0  0
 16 14  1  0  0  0  0
 16  9  2  0  0  0  0
 17 16  1  0  0  0  0
 18 19  1  0  0  0  0
 19 20  2  0  0  0  0
 19 24  1  0  0  0  0
 20 26  1  0  0  0  0
 21 20  1  0  0  0  0
 22 21  2  0  0  0  0
 23 22  1  0  0  0  0
 23 18  2  0  0  0  0
 25 22  1  0  0  0  0
 26 28  1  0  0  0  0
 26 27  1  0  0  0  0
 29 26  1  0  0  0  0
M  END
>  <minimizedAffinity>
-5.70160055

$$$$

 OpenBabel03272508033D

 29 31  0  0  0  0  0  0  0  0999 V2000
   37.3690   27.1700   33.9910 C   0  0  0  0  0  0  0  0  0  0  0  0
   37.4550   27.7110   32.7370 C   0  0  0  0  0  0  0  0  0  0  0  0
   36.4520   28.6670   32.5680 C   0  0  0  0  0  0  0  0  0  0  0  0
   35.7830   28.6590   33.7680 N   0  0  0  0  0  0  0  0  0  0  0  0
   36.3250   27.7890   34.5780 N   0  0  0  0  0  0  0  0  0  0  0  0
   38.2140   27.3980   32.0290 H   0  0  0  0  0  0  0  0  0  0  0  0
   36.3400   29.2170   31.6450 H   0  0  0  0  0  0  0  0  0  0  0  0
   36.2450   30.8970   35.7090 Cl  0  0  0  0  0  0  0  0  0  0  0  0
   34.7810   30.6060   34.8030 C   0  0  0  0  0  0  0  0  0  0  0  0
   34.6780   29.5400   33.9330 C   0  0  0  0  0  0  0  0  0  0  0  0
   33.4960   29.3550   33.2400 C   0  0  0  0  0  0  0  0  0  0  0  0
   33.4890   28.5000   32.5790 H   0  0  0  0  0  0  0  0  0  0  0  0
   32.3820   30.1850   33.3620 C   0  0  0  0  0  3  0  0  0  0  0  0
   32.4990   31.2360   34.2270 C   0  0  0  0  0  0  0  0  0  0  0  0
   31.1310   32.3000   34.4120 Cl  0  0  0  0  0  0  0  0  0  0  0  0
   33.6690   31.4410   34.9300 C   0  0  0  0  0  0  0  0  0  0  0  0
   33.6860   32.2860   35.5900 H   0  0  0  0  0  0  0  0  0  0  0  0
   38.2230   26.1380   34.5810 C   0  0  0  0  0  0  0  0  0  0  0  0
   37.8180   25.5690   35.8170 C   0  0  0  0  0  0  0  0  0  0  0  0
   38.6190   24.5860   36.3930 C   0  0  0  0  0  0  0  0  0  0  0  0
   39.7430   24.2310   35.7310 N   0  0  0  0  0  0  0  0  0  0  0  0
   40.1180   24.7810   34.5530 C   0  0  0  0  0  0  0  0  0  0  0  0
   39.3420   25.7310   34.0000 N   0  0  0  0  0  0  0  0  0  0  0  0
   36.8950   25.9280   36.2630 H   0  0  0  0  0  0  0  0  0  0  0  0
   41.0320   24.4390   34.0910 H   0  0  0  0  0  0  0  0  0  0  0  0
   38.2000   23.9860   37.6890 C   0  0  0  0  0  0  0  0  0  0  0  0
   39.2830   23.2350   38.1220 F   0  0  0  0  0  0  0  0  0  0  0  0
   37.9190   24.9480   38.6440 F   0  0  0  0  0  0  0  0  0  0  0  0
   37.1210   23.1250   37.5460 F   0  0  0  0  0  0  0  0  0  0  0  0
  1  5  2  0  0  0  0
  1 18  1  0  0  0  0
  2  1  1  0  0  0  0
  3  2  2  0  0  0  0
  3  4  1  0  0  0  0
  4 10  1  0  0  0  0
  4  5  1  0  0  0  0
  6  2  1  0  0  0  0
  7  3  1  0  0  0  0
  9 16  1  0  0  0  0
  9  8  1  0  0  0  0
 10  9  2  0  0  0  0
 11 13  2  0  0  0  0
 11 10  1  0  0  0  0
 12 11  1  0  0  0  0
 13 14  1  0  0  0  0
 14 15  1  0  0  0  0
 14 16  2  0  0  0  0
 16 17  1  0  0  0  0
 18 19  1  0  0  0  0
 19 24  1  0  0  0  0
 19 20  2  0  0  0  0
 20 26  1  0  0  0  0
 21 20  1  0  0  0  0
 22 21  2  0  0  0  0
 23 22  1  0  0  0  0
 23 18  2  0  0  0  0
 25 22  1  0  0  0  0
 26 27  1  0  0  0  0
 26 28  1  0  0  0  0
 29 26  1  0  0  0  0
M  END
>  <minimizedAffinity>
-5.6761632

$$$$

 OpenBabel03272508033D

 29 31  0  0  0  0  0  0  0  0999 V2000
   37.9010   25.6560   33.7820 C   0  0  0  0  0  0  0  0  0  0  0  0
   37.1930   26.7830   34.1010 C   0  0  0  0  0  0  0  0  0  0  0  0
   37.2820   27.7040   33.0560 C   0  0  0  0  0  0  0  0  0  0  0  0
   38.0660   27.0710   32.1220 N   0  0  0  0  0  0  0  0  0  0  0  0
   38.4150   25.8890   32.5580 N   0  0  0  0  0  0  0  0  0  0  0  0
   36.6640   26.8800   35.0410 H   0  0  0  0  0  0  0  0  0  0  0  0
   36.7930   28.6670   33.1030 H   0  0  0  0  0  0  0  0  0  0  0  0
   40.9890   27.4570   31.5740 Cl  0  0  0  0  0  0  0  0  0  0  0  0
   39.6720   27.9840   30.5570 C   0  0  0  0  0  0  0  0  0  0  0  0
   38.3580   27.7520   30.9080 C   0  0  0  0  0  0  0  0  0  0  0  0
   37.3530   28.1900   30.0660 C   0  0  0  0  0  0  0  0  0  0  0  0
   36.3510   27.9740   30.4070 H   0  0  0  0  0  0  0  0  0  0  0  0
   37.5790   28.8630   28.8650 C   0  0  0  0  0  3  0  0  0  0  0  0
   38.8860   29.0850   28.5300 C   0  0  0  0  0  0  0  0  0  0  0  0
   39.2160   29.9220   27.0380 Cl  0  0  0  0  0  0  0  0  0  0  0  0
   39.9060   28.6570   29.3560 C   0  0  0  0  0  0  0  0  0  0  0  0
   40.9040   28.8670   29.0260 H   0  0  0  0  0  0  0  0  0  0  0  0
   38.0700   24.4470   34.5910 C   0  0  0  0  0  0  0  0  0  0  0  0
   38.0920   24.5930   36.0030 C   0  0  0  0  0  0  0  0  0  0  0  0
   38.2530   23.4550   36.7880 C   0  0  0  0  0  0  0  0  0  0  0  0
   38.3790   22.2690   36.1490 N   0  0  0  0  0  0  0  0  0  0  0  0
   38.3560   22.1440   34.8020 C   0  0  0  0  0  0  0  0  0  0  0  0
   38.2010   23.2470   34.0470 N   0  0  0  0  0  0  0  0  0  0  0  0
   37.9820   25.5930   36.4120 H   0  0  0  0  0  0  0  0  0  0  0  0
   38.4640   21.1590   34.3740 H   0  0  0  0  0  0  0  0  0  0  0  0
   38.2770   23.6010   38.2690 C   0  0  0  0  0  0  0  0  0  0  0  0
   37.9860   24.9340   38.5190 F   0  0  0  0  0  0  0  0  0  0  0  0
   37.3190   22.8160   38.8880 F   0  0  0  0  0  0  0  0  0  0  0  0
   39.5290   23.3360   38.8040 F   0  0  0  0  0  0  0  0  0  0  0  0
  1  2  1  0  0  0  0
  1 18  1  0  0  0  0
  2  6  1  0  0  0  0
  3  7  1  0  0  0  0
  3  2  2  0  0  0  0
  4  5  1  0  0  0  0
  4  3  1  0  0  0  0
  5  1  2  0  0  0  0
  9 10  1  0  0  0  0
  9  8  1  0  0  0  0
 10  4  1  0  0  0  0
 11 12  1  0  0  0  0
 11 10  2  0  0  0  0
 13 11  1  0  0  0  0
 14 13  2  0  0  0  0
 14 16  1  0  0  0  0
 15 14  1  0  0  0  0
 16  9  2  0  0  0  0
 17 16  1  0  0  0  0
 18 19  1  0  0  0  0
 19 24  1  0  0  0  0
 19 20  2  0  0  0  0
 20 26  1  0  0  0  0
 21 20  1  0  0  0  0
 22 21  2  0  0  0  0
 23 18  2  0  0  0  0
 23 22  1  0  0  0  0
 25 22  1  0  0  0  0
 26 27  1  0  0  0  0
 26 29  1  0  0  0  0
 26 28  1  0  0  0  0
M  END
>  <minimizedAffinity>
-5.64018393

$$$$

 OpenBabel03272508033D

 29 31  0  0  0  0  0  0  0  0999 V2000
   36.6220   27.8920   33.7630 C   0  0  0  0  0  0  0  0  0  0  0  0
   36.2840   28.6360   32.6650 C   0  0  0  0  0  0  0  0  0  0  0  0
   35.7170   29.8430   33.0750 C   0  0  0  0  0  0  0  0  0  0  0  0
   35.7370   29.7710   34.4460 N   0  0  0  0  0  0  0  0  0  0  0  0
   36.2630   28.6360   34.8270 N   0  0  0  0  0  0  0  0  0  0  0  0
   36.4600   28.2810   31.6570 H   0  0  0  0  0  0  0  0  0  0  0  0
   35.3780   30.5830   32.3620 H   0  0  0  0  0  0  0  0  0  0  0  0
   32.8610   29.4900   35.2490 Cl  0  0  0  0  0  0  0  0  0  0  0  0
   33.9040   30.8420   35.6120 C   0  0  0  0  0  0  0  0  0  0  0  0
   35.2180   30.8660   35.1910 C   0  0  0  0  0  0  0  0  0  0  0  0
   36.0010   31.9620   35.5050 C   0  0  0  0  0  0  0  0  0  0  0  0
   37.0170   31.9100   35.1420 H   0  0  0  0  0  0  0  0  0  0  0  0
   35.5470   33.0630   36.2310 C   0  0  0  0  0  3  0  0  0  0  0  0
   34.2440   33.0250   36.6410 C   0  0  0  0  0  0  0  0  0  0  0  0
   33.6330   34.3790   37.5510 Cl  0  0  0  0  0  0  0  0  0  0  0  0
   33.4430   31.9410   36.3390 C   0  0  0  0  0  0  0  0  0  0  0  0
   32.4330   31.9830   36.6950 H   0  0  0  0  0  0  0  0  0  0  0  0
   37.2420   26.5650   33.7880 C   0  0  0  0  0  0  0  0  0  0  0  0
   37.5360   25.9950   35.0540 C   0  0  0  0  0  0  0  0  0  0  0  0
   38.1270   24.7350   35.0970 C   0  0  0  0  0  0  0  0  0  0  0  0
   38.3840   24.1270   33.9170 N   0  0  0  0  0  0  0  0  0  0  0  0
   38.0990   24.6810   32.7170 C   0  0  0  0  0  0  0  0  0  0  0  0
   37.5290   25.8990   32.6790 N   0  0  0  0  0  0  0  0  0  0  0  0
   37.2870   26.5710   35.9410 H   0  0  0  0  0  0  0  0  0  0  0  0
   38.3390   24.1270   31.8220 H   0  0  0  0  0  0  0  0  0  0  0  0
   38.4380   24.1320   36.4220 C   0  0  0  0  0  0  0  0  0  0  0  0
   37.5910   23.0390   36.5450 F   0  0  0  0  0  0  0  0  0  0  0  0
   39.7460   23.6880   36.5000 F   0  0  0  0  0  0  0  0  0  0  0  0
   38.1630   24.9970   37.4710 F   0  0  0  0  0  0  0  0  0  0  0  0
  1 18  1  0  0  0  0
  1  5  2  0  0  0  0
  2  3  2  0  0  0  0
  2  1  1  0  0  0  0
  3  4  1  0  0  0  0
  4  5  1  0  0  0  0
  4 10  1  0  0  0  0
  6  2  1  0  0  0  0
  7  3  1  0  0  0  0
  8  9  1  0  0  0  0
  9 16  1  0  0  0  0
 10 11  1  0  0  0  0
 10  9  2  0  0  0  0
 11 13  2  0  0  0  0
 12 11  1  0  0  0  0
 13 14  1  0  0  0  0
 14 15  1  0  0  0  0
 16 14  2  0  0  0  0
 16 17  1  0  0  0  0
 18 19  1  0  0  0  0
 19 20  2  0  0  0  0
 19 24  1  0  0  0  0
 20 26  1  0  0  0  0
 21 20  1  0  0  0  0
 22 21  2  0  0  0  0
 23 22  1  0  0  0  0
 23 18  2  0  0  0  0
 25 22  1  0  0  0  0
 26 28  1  0  0  0  0
 26 27  1  0  0  0  0
 26 29  1  0  0  0  0
M  END
>  <minimizedAffinity>
-5.6128335

$$$$

 OpenBabel03272508033D

 29 31  0  0  0  0  0  0  0  0999 V2000
   36.6440   27.7710   33.2440 C   0  0  0  0  0  0  0  0  0  0  0  0
   36.3930   28.6690   32.2420 C   0  0  0  0  0  0  0  0  0  0  0  0
   35.8250   29.8240   32.7790 C   0  0  0  0  0  0  0  0  0  0  0  0
   35.7540   29.5640   34.1260 N   0  0  0  0  0  0  0  0  0  0  0  0
   36.2310   28.3730   34.3770 N   0  0  0  0  0  0  0  0  0  0  0  0
   36.6270   28.4510   31.2060 H   0  0  0  0  0  0  0  0  0  0  0  0
   35.5470   30.6640   32.1560 H   0  0  0  0  0  0  0  0  0  0  0  0
   32.8040   29.3260   34.6090 Cl  0  0  0  0  0  0  0  0  0  0  0  0
   33.8610   30.5470   35.2720 C   0  0  0  0  0  0  0  0  0  0  0  0
   35.2090   30.5610   34.9820 C   0  0  0  0  0  0  0  0  0  0  0  0
   36.0020   31.5500   35.5330 C   0  0  0  0  0  0  0  0  0  0  0  0
   37.0460   31.4970   35.2610 H   0  0  0  0  0  0  0  0  0  0  0  0
   35.5240   32.5530   36.3780 C   0  0  0  0  0  3  0  0  0  0  0  0
   34.1870   32.5260   36.6560 C   0  0  0  0  0  0  0  0  0  0  0  0
   33.5450   33.7590   37.7070 Cl  0  0  0  0  0  0  0  0  0  0  0  0
   33.3760   31.5470   36.1160 C   0  0  0  0  0  0  0  0  0  0  0  0
   32.3380   31.5920   36.3810 H   0  0  0  0  0  0  0  0  0  0  0  0
   37.2340   26.4370   33.1230 C   0  0  0  0  0  0  0  0  0  0  0  0
   36.5250   25.4640   32.3700 C   0  0  0  0  0  0  0  0  0  0  0  0
   37.0710   24.1890   32.2450 C   0  0  0  0  0  0  0  0  0  0  0  0
   38.2560   23.9560   32.8540 N   0  0  0  0  0  0  0  0  0  0  0  0
   38.9220   24.8920   33.5680 C   0  0  0  0  0  0  0  0  0  0  0  0
   38.3900   26.1230   33.6880 N   0  0  0  0  0  0  0  0  0  0  0  0
   35.5800   25.7580   31.9220 H   0  0  0  0  0  0  0  0  0  0  0  0
   39.8630   24.6210   34.0230 H   0  0  0  0  0  0  0  0  0  0  0  0
   36.3320   23.1660   31.4570 C   0  0  0  0  0  0  0  0  0  0  0  0
   35.4320   23.8720   30.6730 F   0  0  0  0  0  0  0  0  0  0  0  0
   37.1690   22.4420   30.6250 F   0  0  0  0  0  0  0  0  0  0  0  0
   35.6020   22.3060   32.2650 F   0  0  0  0  0  0  0  0  0  0  0  0
  1  5  2  0  0  0  0
  2  3  2  0  0  0  0
  2  1  1  0  0  0  0
  3  4  1  0  0  0  0
  4  5  1  0  0  0  0
  4 10  1  0  0  0  0
  6  2  1  0  0  0  0
  7  3  1  0  0  0  0
  8  9  1  0  0  0  0
  9 16  1  0  0  0  0
 10  9  2  0  0  0  0
 10 11  1  0  0  0  0
 11 13  2  0  0  0  0
 12 11  1  0  0  0  0
 13 14  1  0  0  0  0
 14 15  1  0  0  0  0
 16 17  1  0  0  0  0
 16 14  2  0  0  0  0
 18  1  1  0  0  0  0
 18 23  1  0  0  0  0
 19 18  2  0  0  0  0
 20 19  1  0  0  0  0
 20 21  2  0  0  0  0
 21 22  1  0  0  0  0
 22 23  2  0  0  0  0
 22 25  1  0  0  0  0
 24 19  1  0  0  0  0
 26 20  1  0  0  0  0
 26 29  1  0  0  0  0
 27 26  1  0  0  0  0
 28 26  1  0  0  0  0
M  END
>  <minimizedAffinity>
-5.57702827

$$$$

 OpenBabel03272508033D

 29 31  0  0  0  0  0  0  0  0999 V2000
   38.1530   24.6800   34.3670 C   0  0  0  0  0  0  0  0  0  0  0  0
   37.6500   24.0010   33.2890 C   0  0  0  0  0  0  0  0  0  0  0  0
   37.3780   24.8990   32.2560 C   0  0  0  0  0  0  0  0  0  0  0  0
   37.7380   26.1190   32.7740 N   0  0  0  0  0  0  0  0  0  0  0  0
   38.1830   25.9740   33.9940 N   0  0  0  0  0  0  0  0  0  0  0  0
   37.5120   22.9270   33.3030 H   0  0  0  0  0  0  0  0  0  0  0  0
   36.9720   24.5700   31.3100 H   0  0  0  0  0  0  0  0  0  0  0  0
   36.0210   28.2710   33.9640 Cl  0  0  0  0  0  0  0  0  0  0  0  0
   36.8120   28.3270   32.4080 C   0  0  0  0  0  0  0  0  0  0  0  0
   37.5820   27.2740   31.9580 C   0  0  0  0  0  0  0  0  0  0  0  0
   38.1870   27.3700   30.7180 C   0  0  0  0  0  0  0  0  0  0  0  0
   38.7720   26.5080   30.4340 H   0  0  0  0  0  0  0  0  0  0  0  0
   38.0690   28.4760   29.8770 C   0  0  0  0  0  3  0  0  0  0  0  0
   37.3030   29.5110   30.3360 C   0  0  0  0  0  0  0  0  0  0  0  0
   37.1280   30.9140   29.3170 Cl  0  0  0  0  0  0  0  0  0  0  0  0
   36.6900   29.4370   31.5710 C   0  0  0  0  0  0  0  0  0  0  0  0
   36.1060   30.2870   31.8620 H   0  0  0  0  0  0  0  0  0  0  0  0
   38.5710   24.1260   35.6570 C   0  0  0  0  0  0  0  0  0  0  0  0
   39.7870   23.3950   35.7010 C   0  0  0  0  0  0  0  0  0  0  0  0
   40.2000   22.8610   36.9180 C   0  0  0  0  0  0  0  0  0  0  0  0
   39.4080   23.0750   37.9940 N   0  0  0  0  0  0  0  0  0  0  0  0
   38.2510   23.7740   37.9380 C   0  0  0  0  0  0  0  0  0  0  0  0
   37.8550   24.2880   36.7590 N   0  0  0  0  0  0  0  0  0  0  0  0
   40.3460   23.2830   34.7760 H   0  0  0  0  0  0  0  0  0  0  0  0
   37.6790   23.8980   38.8450 H   0  0  0  0  0  0  0  0  0  0  0  0
   41.4740   22.0930   36.9710 C   0  0  0  0  0  0  0  0  0  0  0  0
   41.5020   21.3320   35.8120 F   0  0  0  0  0  0  0  0  0  0  0  0
   42.5830   22.9210   36.9830 F   0  0  0  0  0  0  0  0  0  0  0  0
   41.5170   21.2200   38.0480 F   0  0  0  0  0  0  0  0  0  0  0  0
  1 18  1  0  0  0  0
  2  6  1  0  0  0  0
  2  1  1  0  0  0  0
  3  4  1  0  0  0  0
  3  2  2  0  0  0  0
  4  5  1  0  0  0  0
  5  1  2  0  0  0  0
  7  3  1  0  0  0  0
  9  8  1  0  0  0  0
 10  9  1  0  0  0  0
 10  4  1  0  0  0  0
 11 10  2  0  0  0  0
 12 11  1  0  0  0  0
 13 14  2  0  0  0  0
 13 11  1  0  0  0  0
 14 16  1  0  0  0  0
 15 14  1  0  0  0  0
 16 17  1  0  0  0  0
 16  9  2  0  0  0  0
 18 19  2  0  0  0  0
 18 23  1  0  0  0  0
 19 20  1  0  0  0  0
 20 26  1  0  0  0  0
 20 21  2  0  0  0  0
 22 21  1  0  0  0  0
 22 25  1  0  0  0  0
 23 22  2  0  0  0  0
 24 19  1  0  0  0  0
 26 28  1  0  0  0  0
 26 29  1  0  0  0  0
 27 26  1  0  0  0  0
M  END
>  <minimizedAffinity>
-5.51779461

$$$$

 OpenBabel03272508033D

 29 31  0  0  0  0  0  0  0  0999 V2000
   37.5300   25.6890   33.3560 C   0  0  0  0  0  0  0  0  0  0  0  0
   36.7260   25.1650   32.3790 C   0  0  0  0  0  0  0  0  0  0  0  0
   36.0320   26.1940   31.7420 C   0  0  0  0  0  0  0  0  0  0  0  0
   36.4610   27.3310   32.3840 N   0  0  0  0  0  0  0  0  0  0  0  0
   37.3260   27.0200   33.3140 N   0  0  0  0  0  0  0  0  0  0  0  0
   36.6840   24.1000   32.1830 H   0  0  0  0  0  0  0  0  0  0  0  0
   35.3390   25.9980   30.9360 H   0  0  0  0  0  0  0  0  0  0  0  0
   38.1120   28.7600   30.3290 Cl  0  0  0  0  0  0  0  0  0  0  0  0
   36.6140   29.3280   31.0230 C   0  0  0  0  0  0  0  0  0  0  0  0
   35.9350   28.5840   31.9670 C   0  0  0  0  0  0  0  0  0  0  0  0
   34.7530   29.0800   32.4850 C   0  0  0  0  0  0  0  0  0  0  0  0
   34.2790   28.4440   33.2180 H   0  0  0  0  0  0  0  0  0  0  0  0
   34.1900   30.3020   32.1140 C   0  0  0  0  0  3  0  0  0  0  0  0
   34.8740   31.0270   31.1790 C   0  0  0  0  0  0  0  0  0  0  0  0
   34.2090   32.5600   30.6860 Cl  0  0  0  0  0  0  0  0  0  0  0  0
   36.0570   30.5520   30.6480 C   0  0  0  0  0  0  0  0  0  0  0  0
   36.5350   31.1760   29.9200 H   0  0  0  0  0  0  0  0  0  0  0  0
   38.4250   24.9650   34.2610 C   0  0  0  0  0  0  0  0  0  0  0  0
   37.9770   24.7280   35.5870 C   0  0  0  0  0  0  0  0  0  0  0  0
   38.8160   24.0430   36.4620 C   0  0  0  0  0  0  0  0  0  0  0  0
   40.0160   23.6400   35.9880 N   0  0  0  0  0  0  0  0  0  0  0  0
   40.4320   23.8720   34.7210 C   0  0  0  0  0  0  0  0  0  0  0  0
   39.6190   24.5360   33.8790 N   0  0  0  0  0  0  0  0  0  0  0  0
   36.9930   25.0960   35.8640 H   0  0  0  0  0  0  0  0  0  0  0  0
   41.4070   23.5160   34.4240 H   0  0  0  0  0  0  0  0  0  0  0  0
   38.3520   23.7920   37.8530 C   0  0  0  0  0  0  0  0  0  0  0  0
   37.1880   23.0470   37.7330 F   0  0  0  0  0  0  0  0  0  0  0  0
   39.2700   23.0610   38.5870 F   0  0  0  0  0  0  0  0  0  0  0  0
   38.0330   24.9650   38.5210 F   0  0  0  0  0  0  0  0  0  0  0  0
  1 18  1  0  0  0  0
  2  1  1  0  0  0  0
  3  2  2  0  0  0  0
  3  4  1  0  0  0  0
  4  5  1  0  0  0  0
  5  1  2  0  0  0  0
  6  2  1  0  0  0  0
  7  3  1  0  0  0  0
  8  9  1  0  0  0  0
  9 10  1  0  0  0  0
 10  4  1  0  0  0  0
 10 11  2  0  0  0  0
 11 12  1  0  0  0  0
 13 11  1  0  0  0  0
 14 13  2  0  0  0  0
 15 14  1  0  0  0  0
 16  9  2  0  0  0  0
 16 14  1  0  0  0  0
 17 16  1  0  0  0  0
 18 19  1  0  0  0  0
 19 24  1  0  0  0  0
 19 20  2  0  0  0  0
 20 26  1  0  0  0  0
 21 20  1  0  0  0  0
 22 21  2  0  0  0  0
 23 18  2  0  0  0  0
 23 22  1  0  0  0  0
 25 22  1  0  0  0  0
 26 29  1  0  0  0  0
 26 28  1  0  0  0  0
 27 26  1  0  0  0  0
M  END
>  <minimizedAffinity>
-5.51110029

$$$$

 OpenBabel03272508033D

 29 31  0  0  0  0  0  0  0  0999 V2000
   38.0770   24.7230   34.5560 C   0  0  0  0  0  0  0  0  0  0  0  0
   37.6920   24.0660   33.4190 C   0  0  0  0  0  0  0  0  0  0  0  0
   37.3310   24.9940   32.4410 C   0  0  0  0  0  0  0  0  0  0  0  0
   37.5200   26.2100   33.0520 N   0  0  0  0  0  0  0  0  0  0  0  0
   37.9510   26.0340   34.2740 N   0  0  0  0  0  0  0  0  0  0  0  0
   37.6920   22.9840   33.3540 H   0  0  0  0  0  0  0  0  0  0  0  0
   36.9940   24.6860   31.4610 H   0  0  0  0  0  0  0  0  0  0  0  0
   39.6280   26.9770   31.0630 Cl  0  0  0  0  0  0  0  0  0  0  0  0
   38.1400   27.8370   31.3700 C   0  0  0  0  0  0  0  0  0  0  0  0
   37.2370   27.3910   32.3130 C   0  0  0  0  0  0  0  0  0  0  0  0
   36.0730   28.1100   32.5170 C   0  0  0  0  0  0  0  0  0  0  0  0
   35.4160   27.7020   33.2710 H   0  0  0  0  0  0  0  0  0  0  0  0
   35.7440   29.2740   31.8230 C   0  0  0  0  0  3  0  0  0  0  0  0
   36.6480   29.7030   30.8910 C   0  0  0  0  0  0  0  0  0  0  0  0
   36.2780   31.1540   30.0000 Cl  0  0  0  0  0  0  0  0  0  0  0  0
   37.8160   29.0010   30.6710 C   0  0  0  0  0  0  0  0  0  0  0  0
   38.4750   29.3990   29.9250 H   0  0  0  0  0  0  0  0  0  0  0  0
   38.5320   24.1350   35.8180 C   0  0  0  0  0  0  0  0  0  0  0  0
   39.7490   23.4030   35.8080 C   0  0  0  0  0  0  0  0  0  0  0  0
   40.1960   22.8370   36.9980 C   0  0  0  0  0  0  0  0  0  0  0  0
   39.4350   23.0220   38.1010 N   0  0  0  0  0  0  0  0  0  0  0  0
   38.2770   23.7210   38.0970 C   0  0  0  0  0  0  0  0  0  0  0  0
   37.8480   24.2670   36.9450 N   0  0  0  0  0  0  0  0  0  0  0  0
   40.2810   23.3170   34.8650 H   0  0  0  0  0  0  0  0  0  0  0  0
   37.7310   23.8200   39.0230 H   0  0  0  0  0  0  0  0  0  0  0  0
   41.4710   22.0690   36.9940 C   0  0  0  0  0  0  0  0  0  0  0  0
   41.4600   21.3300   35.8200 F   0  0  0  0  0  0  0  0  0  0  0  0
   42.5800   22.8970   36.9850 F   0  0  0  0  0  0  0  0  0  0  0  0
   41.5500   21.1760   38.0530 F   0  0  0  0  0  0  0  0  0  0  0  0
  1 18  1  0  0  0  0
  2  1  1  0  0  0  0
  3  4  1  0  0  0  0
  3  2  2  0  0  0  0
  4  5  1  0  0  0  0
  5  1  2  0  0  0  0
  6  2  1  0  0  0  0
  7  3  1  0  0  0  0
  8  9  1  0  0  0  0
  9 10  1  0  0  0  0
 10 11  2  0  0  0  0
 10  4  1  0  0  0  0
 11 12  1  0  0  0  0
 13 11  1  0  0  0  0
 14 13  2  0  0  0  0
 15 14  1  0  0  0  0
 16 14  1  0  0  0  0
 16  9  2  0  0  0  0
 17 16  1  0  0  0  0
 18 23  1  0  0  0  0
 19 18  2  0  0  0  0
 19 20  1  0  0  0  0
 20 21  2  0  0  0  0
 22 21  1  0  0  0  0
 22 25  1  0  0  0  0
 23 22  2  0  0  0  0
 24 19  1  0  0  0  0
 26 20  1  0  0  0  0
 26 29  1  0  0  0  0
 27 26  1  0  0  0  0
 28 26  1  0  0  0  0
M  END
>  <minimizedAffinity>
-5.47942591

$$$$
