
 OpenBabel03262521573D

 40 42  0  0  1  0  0  0  0  0999 V2000
   37.0750   26.7070   34.7460 C   0  0  1  0  0  0  0  0  0  0  0  0
   37.4750   26.1830   33.3930 C   0  0  2  0  0  0  0  0  0  0  0  0
   38.8850   26.6170   33.1390 C   0  0  0  0  0  0  0  0  0  0  0  0
   39.4360   27.3580   34.1640 O   0  0  0  0  0  0  0  0  0  0  0  0
   39.4360   26.6600   35.3700 C   0  0  0  0  0  0  0  0  0  0  0  0
   38.0710   26.1490   35.7570 C   0  0  2  0  0  0  0  0  0  0  0  0
   36.0570   26.4220   35.0440 H   0  0  0  0  0  0  0  0  0  0  0  0
   37.3800   25.0740   33.4400 H   0  0  0  0  0  0  0  0  0  0  0  0
   39.5140   25.6930   32.9930 H   0  0  0  0  0  0  0  0  0  0  0  0
   38.9250   27.2260   32.2250 H   0  0  0  0  0  0  0  0  0  0  0  0
   40.1380   25.8120   35.2320 H   0  0  0  0  0  0  0  0  0  0  0  0
   39.8880   27.3150   36.1320 H   0  0  0  0  0  0  0  0  0  0  0  0
   37.8480   26.5380   36.7490 H   0  0  0  0  0  0  0  0  0  0  0  0
   37.1910   28.1020   34.8050 O   0  0  0  0  0  0  0  0  0  0  0  0
   37.5400   28.4060   35.6750 H   0  0  0  0  0  0  0  0  0  0  0  0
   36.3640   26.7670   32.0920 S   0  0  0  0  0  0  0  0  0  0  0  0
   35.8120   25.3600   31.0840 C   0  0  0  0  0  0  0  0  0  0  0  0
   34.9020   24.9630   31.5980 H   0  0  0  0  0  0  0  0  0  0  0  0
   35.4650   25.7070   30.0870 H   0  0  0  0  0  0  0  0  0  0  0  0
   37.0220   24.0610   30.9370 S   0  0  0  0  0  0  0  0  0  0  0  0
   36.5610   22.7030   32.0010 C   0  0  0  0  0  0  0  0  0  0  0  0
   35.4660   21.9860   31.5690 C   0  0  0  0  0  0  0  0  0  0  0  0
   35.0380   20.9030   32.3500 C   0  0  0  0  0  0  0  0  0  0  0  0
   35.7280   20.6170   33.4950 N   0  0  0  0  0  0  0  0  0  0  0  0
   36.8000   21.3710   33.8590 C   0  0  0  0  0  0  0  0  0  0  0  0
   37.2110   22.3890   33.1350 N   0  0  0  0  0  0  0  0  0  0  0  0
   34.8830   22.1650   30.6750 H   0  0  0  0  0  0  0  0  0  0  0  0
   34.2000   20.2980   32.0840 H   0  0  0  0  0  0  0  0  0  0  0  0
   37.3600   21.1530   34.7720 H   0  0  0  0  0  0  0  0  0  0  0  0
   38.0250   24.7730   35.5850 O   0  0  0  0  0  0  0  0  0  0  0  0
   37.8450   24.1820   38.4930 Cl  0  0  0  0  0  0  0  0  0  0  0  0
   39.0050   23.5430   37.3220 C   0  0  0  0  0  0  0  0  0  0  0  0
   39.0090   23.8800   35.9800 C   0  0  0  0  0  0  0  0  0  0  0  0
   39.9670   23.3120   35.1680 C   0  0  0  0  0  0  0  0  0  0  0  0
   39.9560   23.5820   34.1340 H   0  0  0  0  0  0  0  0  0  0  0  0
   40.9060   22.4300   35.6610 C   0  0  0  0  0  3  0  0  0  0  0  0
   40.8620   22.1260   37.0020 C   0  0  0  0  0  0  0  0  0  0  0  0
   42.0980   20.9900   37.5590 Cl  0  0  0  0  0  0  0  0  0  0  0  0
   39.9250   22.6650   37.8600 C   0  0  0  0  0  0  0  0  0  0  0  0
   39.9920   22.3510   38.8870 H   0  0  0  0  0  0  0  0  0  0  0  0
  1 14  1  0  0  0  0
  1  7  1  1  0  0  0
  1  6  1  0  0  0  0
  2  8  1  1  0  0  0
  2  1  1  0  0  0  0
  3  2  1  0  0  0  0
  3  4  1  0  0  0  0
  4  5  1  0  0  0  0
  5  6  1  0  0  0  0
  5 12  1  0  0  0  0
  6 13  1  1  0  0  0
  9  3  1  0  0  0  0
 10  3  1  0  0  0  0
 11  5  1  0  0  0  0
 14 15  1  0  0  0  0
 16  2  1  0  0  0  0
 17 18  1  0  0  0  0
 17 16  1  0  0  0  0
 19 17  1  0  0  0  0
 20 17  1  0  0  0  0
 20 21  1  0  0  0  0
 21 26  1  0  0  0  0
 22 21  2  0  0  0  0
 22 23  1  0  0  0  0
 23 24  2  0  0  0  0
 24 25  1  0  0  0  0
 25 29  1  0  0  0  0
 26 25  2  0  0  0  0
 27 22  1  0  0  0  0
 28 23  1  0  0  0  0
 30  6  1  0  0  0  0
 30 33  1  0  0  0  0
 32 39  1  0  0  0  0
 32 31  1  0  0  0  0
 33 32  2  0  0  0  0
 34 36  2  0  0  0  0
 34 33  1  0  0  0  0
 35 34  1  0  0  0  0
 36 37  1  0  0  0  0
 37 38  1  0  0  0  0
 37 39  2  0  0  0  0
 39 40  1  0  0  0  0
M  END
>  <minimizedAffinity>
-5.74867535

$$$$

 OpenBabel03262521573D

 40 42  0  0  1  0  0  0  0  0999 V2000
   35.7760   27.1220   31.5630 C   0  0  1  0  0  0  0  0  0  0  0  0
   36.9910   26.6070   32.2890 C   0  0  2  0  0  0  0  0  0  0  0  0
   38.1310   27.5230   31.9680 C   0  0  0  0  0  0  0  0  0  0  0  0
   37.7950   28.5600   31.1220 O   0  0  0  0  0  0  0  0  0  0  0  0
   36.7730   29.3500   31.6480 C   0  0  0  0  0  0  0  0  0  0  0  0
   35.5490   28.5560   32.0280 C   0  0  2  0  0  0  0  0  0  0  0  0
   34.8690   26.5310   31.7500 H   0  0  0  0  0  0  0  0  0  0  0  0
   36.7400   26.6140   33.3730 H   0  0  0  0  0  0  0  0  0  0  0  0
   38.5080   27.9620   32.9350 H   0  0  0  0  0  0  0  0  0  0  0  0
   38.9410   26.9510   31.4930 H   0  0  0  0  0  0  0  0  0  0  0  0
   37.2010   29.8470   32.5420 H   0  0  0  0  0  0  0  0  0  0  0  0
   36.5640   30.1490   30.9180 H   0  0  0  0  0  0  0  0  0  0  0  0
   34.7030   28.9880   31.4960 H   0  0  0  0  0  0  0  0  0  0  0  0
   35.9990   27.1850   30.1810 O   0  0  0  0  0  0  0  0  0  0  0  0
   35.5930   27.9870   29.7800 H   0  0  0  0  0  0  0  0  0  0  0  0
   37.3710   24.9000   31.8310 S   0  0  0  0  0  0  0  0  0  0  0  0
   37.8280   23.9590   33.3160 C   0  0  0  0  0  0  0  0  0  0  0  0
   36.8910   23.8790   33.9200 H   0  0  0  0  0  0  0  0  0  0  0  0
   38.1000   22.9150   33.0480 H   0  0  0  0  0  0  0  0  0  0  0  0
   39.1000   24.7300   34.2960 S   0  0  0  0  0  0  0  0  0  0  0  0
   38.9470   24.1880   35.9910 C   0  0  0  0  0  0  0  0  0  0  0  0
   39.9290   23.3110   36.3990 C   0  0  0  0  0  0  0  0  0  0  0  0
   39.8810   22.8370   37.7190 C   0  0  0  0  0  0  0  0  0  0  0  0
   38.8650   23.2690   38.5260 N   0  0  0  0  0  0  0  0  0  0  0  0
   37.9310   24.1370   38.0520 C   0  0  0  0  0  0  0  0  0  0  0  0
   37.9650   24.5890   36.8170 N   0  0  0  0  0  0  0  0  0  0  0  0
   40.7530   22.9350   35.8070 H   0  0  0  0  0  0  0  0  0  0  0  0
   40.6030   22.1560   38.1110 H   0  0  0  0  0  0  0  0  0  0  0  0
   37.1150   24.4900   38.6870 H   0  0  0  0  0  0  0  0  0  0  0  0
   35.4590   28.4760   33.4110 O   0  0  0  0  0  0  0  0  0  0  0  0
   32.5480   29.0740   33.3790 Cl  0  0  0  0  0  0  0  0  0  0  0  0
   33.8140   29.8800   34.3120 C   0  0  0  0  0  0  0  0  0  0  0  0
   35.1520   29.5280   34.2590 C   0  0  0  0  0  0  0  0  0  0  0  0
   36.0430   30.2350   35.0360 C   0  0  0  0  0  0  0  0  0  0  0  0
   37.0730   29.9500   34.9840 H   0  0  0  0  0  0  0  0  0  0  0  0
   35.6350   31.2710   35.8510 C   0  0  0  0  0  3  0  0  0  0  0  0
   34.2950   31.5850   35.8690 C   0  0  0  0  0  0  0  0  0  0  0  0
   33.8490   32.9220   36.9370 Cl  0  0  0  0  0  0  0  0  0  0  0  0
   33.3600   30.9100   35.1120 C   0  0  0  0  0  0  0  0  0  0  0  0
   32.3420   31.2460   35.2110 H   0  0  0  0  0  0  0  0  0  0  0  0
  1  7  1  1  0  0  0
  1  6  1  0  0  0  0
  1  2  1  0  0  0  0
  2  8  1  1  0  0  0
  3  2  1  0  0  0  0
  3  9  1  0  0  0  0
  4  5  1  0  0  0  0
  4  3  1  0  0  0  0
  5  6  1  0  0  0  0
  5 11  1  0  0  0  0
  6 13  1  6  0  0  0
  6 30  1  0  0  0  0
 10  3  1  0  0  0  0
 12  5  1  0  0  0  0
 14  1  1  0  0  0  0
 15 14  1  0  0  0  0
 16  2  1  0  0  0  0
 16 17  1  0  0  0  0
 17 18  1  0  0  0  0
 17 20  1  0  0  0  0
 19 17  1  0  0  0  0
 20 21  1  0  0  0  0
 21 22  2  0  0  0  0
 21 26  1  0  0  0  0
 22 23  1  0  0  0  0
 23 28  1  0  0  0  0
 23 24  2  0  0  0  0
 25 24  1  0  0  0  0
 25 29  1  0  0  0  0
 26 25  2  0  0  0  0
 27 22  1  0  0  0  0
 30 33  1  0  0  0  0
 31 32  1  0  0  0  0
 32 39  1  0  0  0  0
 33 32  2  0  0  0  0
 33 34  1  0  0  0  0
 34 36  2  0  0  0  0
 35 34  1  0  0  0  0
 36 37  1  0  0  0  0
 37 38  1  0  0  0  0
 39 40  1  0  0  0  0
 39 37  2  0  0  0  0
M  END
>  <minimizedAffinity>
-5.62463903

$$$$

 OpenBabel03262521573D

 40 42  0  0  1  0  0  0  0  0999 V2000
   37.0820   26.7020   34.7750 C   0  0  1  0  0  0  0  0  0  0  0  0
   37.5310   26.2100   33.4250 C   0  0  2  0  0  0  0  0  0  0  0  0
   38.9470   26.6540   33.2310 C   0  0  0  0  0  0  0  0  0  0  0  0
   39.4600   27.3730   34.2910 O   0  0  0  0  0  0  0  0  0  0  0  0
   39.4200   26.6460   35.4800 C   0  0  0  0  0  0  0  0  0  0  0  0
   38.0430   26.1230   35.8070 C   0  0  2  0  0  0  0  0  0  0  0  0
   36.0550   26.4080   35.0300 H   0  0  0  0  0  0  0  0  0  0  0  0
   37.4380   25.1010   33.4430 H   0  0  0  0  0  0  0  0  0  0  0  0
   39.5840   25.7350   33.0860 H   0  0  0  0  0  0  0  0  0  0  0  0
   39.0180   27.2840   32.3330 H   0  0  0  0  0  0  0  0  0  0  0  0
   40.1280   25.8040   35.3480 H   0  0  0  0  0  0  0  0  0  0  0  0
   39.8420   27.2850   36.2730 H   0  0  0  0  0  0  0  0  0  0  0  0
   37.7850   26.4880   36.8000 H   0  0  0  0  0  0  0  0  0  0  0  0
   37.1910   28.0960   34.8710 O   0  0  0  0  0  0  0  0  0  0  0  0
   37.5080   28.3800   35.7590 H   0  0  0  0  0  0  0  0  0  0  0  0
   36.4640   26.8220   32.1000 S   0  0  0  0  0  0  0  0  0  0  0  0
   37.1280   28.3860   31.4560 C   0  0  0  0  0  0  0  0  0  0  0  0
   37.8760   28.7280   32.2140 H   0  0  0  0  0  0  0  0  0  0  0  0
   37.7060   28.2100   30.5240 H   0  0  0  0  0  0  0  0  0  0  0  0
   35.8960   29.6530   31.2290 S   0  0  0  0  0  0  0  0  0  0  0  0
   35.0240   29.9090   32.7660 C   0  0  0  0  0  0  0  0  0  0  0  0
   33.7340   29.4250   32.7770 C   0  0  0  0  0  0  0  0  0  0  0  0
   32.9800   29.5860   33.9490 C   0  0  0  0  0  0  0  0  0  0  0  0
   33.5640   30.2140   35.0140 N   0  0  0  0  0  0  0  0  0  0  0  0
   34.8430   30.6670   34.9290 C   0  0  0  0  0  0  0  0  0  0  0  0
   35.5610   30.5220   33.8360 N   0  0  0  0  0  0  0  0  0  0  0  0
   33.2210   28.9220   31.9680 H   0  0  0  0  0  0  0  0  0  0  0  0
   31.9740   29.2390   34.0370 H   0  0  0  0  0  0  0  0  0  0  0  0
   35.3210   31.1710   35.7720 H   0  0  0  0  0  0  0  0  0  0  0  0
   38.0070   24.7510   35.6020 O   0  0  0  0  0  0  0  0  0  0  0  0
   37.9100   24.1870   38.5190 Cl  0  0  0  0  0  0  0  0  0  0  0  0
   39.0320   23.5310   37.3200 C   0  0  0  0  0  0  0  0  0  0  0  0
   38.9980   23.8560   35.9750 C   0  0  0  0  0  0  0  0  0  0  0  0
   39.9290   23.2770   35.1410 C   0  0  0  0  0  0  0  0  0  0  0  0
   39.8890   23.5380   34.1050 H   0  0  0  0  0  0  0  0  0  0  0  0
   40.8780   22.3940   35.6140 C   0  0  0  0  0  3  0  0  0  0  0  0
   40.8720   22.1020   36.9580 C   0  0  0  0  0  0  0  0  0  0  0  0
   42.1180   20.9640   37.4880 Cl  0  0  0  0  0  0  0  0  0  0  0  0
   39.9640   22.6530   37.8380 C   0  0  0  0  0  0  0  0  0  0  0  0
   40.0590   22.3480   38.8650 H   0  0  0  0  0  0  0  0  0  0  0  0
  1 14  1  0  0  0  0
  1  7  1  1  0  0  0
  1  6  1  0  0  0  0
  2  8  1  6  0  0  0
  2  1  1  0  0  0  0
  3  2  1  0  0  0  0
  3  4  1  0  0  0  0
  4  5  1  0  0  0  0
  5  6  1  0  0  0  0
  5 12  1  0  0  0  0
  6 13  1  1  0  0  0
  9  3  1  0  0  0  0
 10  3  1  0  0  0  0
 11  5  1  0  0  0  0
 14 15  1  0  0  0  0
 16  2  1  0  0  0  0
 17 16  1  0  0  0  0
 17 18  1  0  0  0  0
 19 17  1  0  0  0  0
 20 17  1  0  0  0  0
 20 21  1  0  0  0  0
 21 22  2  0  0  0  0
 21 26  1  0  0  0  0
 22 23  1  0  0  0  0
 23 28  1  0  0  0  0
 23 24  2  0  0  0  0
 25 24  1  0  0  0  0
 25 29  1  0  0  0  0
 26 25  2  0  0  0  0
 27 22  1  0  0  0  0
 30  6  1  0  0  0  0
 30 33  1  0  0  0  0
 32 39  1  0  0  0  0
 32 31  1  0  0  0  0
 33 32  2  0  0  0  0
 34 36  2  0  0  0  0
 34 33  1  0  0  0  0
 35 34  1  0  0  0  0
 36 37  1  0  0  0  0
 37 38  1  0  0  0  0
 37 39  2  0  0  0  0
 39 40  1  0  0  0  0
M  END
>  <minimizedAffinity>
-5.36774921

$$$$

 OpenBabel03262521573D

 40 42  0  0  1  0  0  0  0  0999 V2000
   37.1930   26.4010   34.6000 C   0  0  1  0  0  0  0  0  0  0  0  0
   37.6550   26.0790   33.2030 C   0  0  2  0  0  0  0  0  0  0  0  0
   38.9890   26.7290   33.0080 C   0  0  0  0  0  0  0  0  0  0  0  0
   39.4380   27.4310   34.1080 O   0  0  0  0  0  0  0  0  0  0  0  0
   39.5410   26.6190   35.2370 C   0  0  0  0  0  0  0  0  0  0  0  0
   38.2620   25.8860   35.5570 C   0  0  2  0  0  0  0  0  0  0  0  0
   36.2260   25.9490   34.8580 H   0  0  0  0  0  0  0  0  0  0  0  0
   37.7150   24.9700   33.1360 H   0  0  0  0  0  0  0  0  0  0  0  0
   39.7400   25.9210   32.7740 H   0  0  0  0  0  0  0  0  0  0  0  0
   38.9390   27.4280   32.1610 H   0  0  0  0  0  0  0  0  0  0  0  0
   40.3530   25.8950   35.0190 H   0  0  0  0  0  0  0  0  0  0  0  0
   39.9010   27.2490   36.0660 H   0  0  0  0  0  0  0  0  0  0  0  0
   37.9930   26.1360   36.5820 H   0  0  0  0  0  0  0  0  0  0  0  0
   37.1140   27.7850   34.8020 O   0  0  0  0  0  0  0  0  0  0  0  0
   37.4220   28.0440   35.7020 H   0  0  0  0  0  0  0  0  0  0  0  0
   36.4660   26.6340   31.9600 S   0  0  0  0  0  0  0  0  0  0  0  0
   35.7340   25.1930   31.1320 C   0  0  0  0  0  0  0  0  0  0  0  0
   34.8890   24.8670   31.7890 H   0  0  0  0  0  0  0  0  0  0  0  0
   35.2650   25.4920   30.1700 H   0  0  0  0  0  0  0  0  0  0  0  0
   36.8670   23.8360   30.9090 S   0  0  0  0  0  0  0  0  0  0  0  0
   36.2820   22.4230   31.8310 C   0  0  0  0  0  0  0  0  0  0  0  0
   36.8910   22.2490   33.0550 C   0  0  0  0  0  0  0  0  0  0  0  0
   36.4880   21.1600   33.8420 C   0  0  0  0  0  0  0  0  0  0  0  0
   35.5150   20.3330   33.3550 N   0  0  0  0  0  0  0  0  0  0  0  0
   34.9590   20.5680   32.1360 C   0  0  0  0  0  0  0  0  0  0  0  0
   35.3280   21.5850   31.3880 N   0  0  0  0  0  0  0  0  0  0  0  0
   37.6640   22.8690   33.4910 H   0  0  0  0  0  0  0  0  0  0  0  0
   36.9110   20.9580   34.8010 H   0  0  0  0  0  0  0  0  0  0  0  0
   34.1810   19.9140   31.7340 H   0  0  0  0  0  0  0  0  0  0  0  0
   38.4070   24.5420   35.2450 O   0  0  0  0  0  0  0  0  0  0  0  0
   40.2900   23.3670   33.2680 Cl  0  0  0  0  0  0  0  0  0  0  0  0
   40.2130   23.0680   35.0080 C   0  0  0  0  0  0  0  0  0  0  0  0
   39.2940   23.6660   35.8530 C   0  0  0  0  0  0  0  0  0  0  0  0
   39.3370   23.3490   37.1930 C   0  0  0  0  0  0  0  0  0  0  0  0
   38.6200   23.8210   37.8310 H   0  0  0  0  0  0  0  0  0  0  0  0
   40.2630   22.4620   37.7000 C   0  0  0  0  0  3  0  0  0  0  0  0
   41.1560   21.8920   36.8210 C   0  0  0  0  0  0  0  0  0  0  0  0
   42.3100   20.7640   37.5460 Cl  0  0  0  0  0  0  0  0  0  0  0  0
   41.1570   22.1730   35.4710 C   0  0  0  0  0  0  0  0  0  0  0  0
   41.9040   21.6650   34.8860 H   0  0  0  0  0  0  0  0  0  0  0  0
  1 14  1  0  0  0  0
  1  7  1  1  0  0  0
  1  6  1  0  0  0  0
  2  8  1  6  0  0  0
  2  1  1  0  0  0  0
  3  2  1  0  0  0  0
  3  4  1  0  0  0  0
  4  5  1  0  0  0  0
  5  6  1  0  0  0  0
  5 12  1  0  0  0  0
  6 13  1  1  0  0  0
  9  3  1  0  0  0  0
 10  3  1  0  0  0  0
 11  5  1  0  0  0  0
 14 15  1  0  0  0  0
 16  2  1  0  0  0  0
 17 18  1  0  0  0  0
 17 16  1  0  0  0  0
 19 17  1  0  0  0  0
 20 17  1  0  0  0  0
 20 21  1  0  0  0  0
 21 22  1  0  0  0  0
 22 27  1  0  0  0  0
 22 23  2  0  0  0  0
 23 28  1  0  0  0  0
 24 23  1  0  0  0  0
 25 24  2  0  0  0  0
 26 21  2  0  0  0  0
 26 25  1  0  0  0  0
 29 25  1  0  0  0  0
 30  6  1  0  0  0  0
 30 33  1  0  0  0  0
 31 32  1  0  0  0  0
 32 39  2  0  0  0  0
 32 33  1  0  0  0  0
 33 34  2  0  0  0  0
 34 36  1  0  0  0  0
 34 35  1  0  0  0  0
 37 38  1  0  0  0  0
 37 36  2  0  0  0  0
 39 37  1  0  0  0  0
 40 39  1  0  0  0  0
M  END
>  <minimizedAffinity>
-5.20258284

$$$$

 OpenBabel03262521573D

 40 42  0  0  1  0  0  0  0  0999 V2000
   38.0200   25.4590   31.0470 C   0  0  1  0  0  0  0  0  0  0  0  0
   38.0440   26.2090   32.3530 C   0  0  2  0  0  0  0  0  0  0  0  0
   36.8470   27.1070   32.3810 C   0  0  0  0  0  0  0  0  0  0  0  0
   36.0600   27.0260   31.2510 O   0  0  0  0  0  0  0  0  0  0  0  0
   35.5930   25.7310   31.0330 C   0  0  0  0  0  0  0  0  0  0  0  0
   36.6960   24.7040   30.9870 C   0  0  2  0  0  0  0  0  0  0  0  0
   38.8490   24.7480   30.9340 H   0  0  0  0  0  0  0  0  0  0  0  0
   38.0130   25.4420   33.1600 H   0  0  0  0  0  0  0  0  0  0  0  0
   36.2180   26.8210   33.2720 H   0  0  0  0  0  0  0  0  0  0  0  0
   37.1710   28.1510   32.4910 H   0  0  0  0  0  0  0  0  0  0  0  0
   34.9000   25.5110   31.8710 H   0  0  0  0  0  0  0  0  0  0  0  0
   34.9780   25.7490   30.1190 H   0  0  0  0  0  0  0  0  0  0  0  0
   36.6120   24.1800   30.0370 H   0  0  0  0  0  0  0  0  0  0  0  0
   38.0240   26.3380   29.9570 O   0  0  0  0  0  0  0  0  0  0  0  0
   37.4370   26.0260   29.2300 H   0  0  0  0  0  0  0  0  0  0  0  0
   39.5750   27.1490   32.5580 S   0  0  0  0  0  0  0  0  0  0  0  0
   40.1700   26.9790   34.2650 C   0  0  0  0  0  0  0  0  0  0  0  0
   40.7550   26.0260   34.2860 H   0  0  0  0  0  0  0  0  0  0  0  0
   40.9000   27.7820   34.5050 H   0  0  0  0  0  0  0  0  0  0  0  0
   38.8680   26.9010   35.4790 S   0  0  0  0  0  0  0  0  0  0  0  0
   38.7340   25.2280   36.0910 C   0  0  0  0  0  0  0  0  0  0  0  0
   39.4930   24.3070   35.4020 C   0  0  0  0  0  0  0  0  0  0  0  0
   39.4440   22.9690   35.8200 C   0  0  0  0  0  0  0  0  0  0  0  0
   38.6490   22.6520   36.8860 N   0  0  0  0  0  0  0  0  0  0  0  0
   37.9270   23.6170   37.5170 C   0  0  0  0  0  0  0  0  0  0  0  0
   37.9640   24.8750   37.1350 N   0  0  0  0  0  0  0  0  0  0  0  0
   40.1390   24.4990   34.5550 H   0  0  0  0  0  0  0  0  0  0  0  0
   40.0020   22.1960   35.3400 H   0  0  0  0  0  0  0  0  0  0  0  0
   37.2870   23.3770   38.3700 H   0  0  0  0  0  0  0  0  0  0  0  0
   36.6660   23.9380   32.1440 O   0  0  0  0  0  0  0  0  0  0  0  0
   39.1190   22.2680   32.3120 Cl  0  0  0  0  0  0  0  0  0  0  0  0
   37.4360   21.7300   32.2890 C   0  0  0  0  0  0  0  0  0  0  0  0
   36.3540   22.5890   32.2080 C   0  0  0  0  0  0  0  0  0  0  0  0
   35.0880   22.0450   32.1970 C   0  0  0  0  0  0  0  0  0  0  0  0
   34.2630   22.7220   32.1350 H   0  0  0  0  0  0  0  0  0  0  0  0
   34.8830   20.6820   32.2650 C   0  0  0  0  0  3  0  0  0  0  0  0
   35.9900   19.8680   32.3440 C   0  0  0  0  0  0  0  0  0  0  0  0
   35.6460   18.1350   32.4270 Cl  0  0  0  0  0  0  0  0  0  0  0  0
   37.2790   20.3600   32.3570 C   0  0  0  0  0  0  0  0  0  0  0  0
   38.0620   19.6240   32.4220 H   0  0  0  0  0  0  0  0  0  0  0  0
  1  7  1  6  0  0  0
  1  2  1  0  0  0  0
  2  3  1  0  0  0  0
  2 16  1  0  0  0  0
  2  8  1  1  0  0  0
  3 10  1  0  0  0  0
  3  9  1  0  0  0  0
  4  3  1  0  0  0  0
  5  4  1  0  0  0  0
  5 11  1  0  0  0  0
  6 13  1  6  0  0  0
  6  5  1  0  0  0  0
  6  1  1  0  0  0  0
  6 30  1  0  0  0  0
 12  5  1  0  0  0  0
 14  1  1  0  0  0  0
 15 14  1  0  0  0  0
 16 17  1  0  0  0  0
 17 18  1  0  0  0  0
 17 19  1  0  0  0  0
 17 20  1  0  0  0  0
 20 21  1  0  0  0  0
 21 26  1  0  0  0  0
 22 23  1  0  0  0  0
 22 21  2  0  0  0  0
 23 24  2  0  0  0  0
 24 25  1  0  0  0  0
 25 29  1  0  0  0  0
 26 25  2  0  0  0  0
 27 22  1  0  0  0  0
 28 23  1  0  0  0  0
 30 33  1  0  0  0  0
 32 31  1  0  0  0  0
 32 39  1  0  0  0  0
 33 32  2  0  0  0  0
 34 33  1  0  0  0  0
 34 36  2  0  0  0  0
 35 34  1  0  0  0  0
 36 37  1  0  0  0  0
 37 39  2  0  0  0  0
 37 38  1  0  0  0  0
 39 40  1  0  0  0  0
M  END
>  <minimizedAffinity>
-5.17946291

$$$$

 OpenBabel03262521573D

 40 42  0  0  1  0  0  0  0  0999 V2000
   35.9670   27.0640   31.5250 C   0  0  1  0  0  0  0  0  0  0  0  0
   37.3270   26.8010   32.1150 C   0  0  2  0  0  0  0  0  0  0  0  0
   38.2430   27.8840   31.6360 C   0  0  0  0  0  0  0  0  0  0  0  0
   37.6360   28.8080   30.8100 O   0  0  0  0  0  0  0  0  0  0  0  0
   36.5560   29.4320   31.4320 C   0  0  0  0  0  0  0  0  0  0  0  0
   35.5420   28.4570   31.9760 C   0  0  2  0  0  0  0  0  0  0  0  0
   35.2060   26.3340   31.8350 H   0  0  0  0  0  0  0  0  0  0  0  0
   37.2030   26.8150   33.2210 H   0  0  0  0  0  0  0  0  0  0  0  0
   38.6430   28.4270   32.5400 H   0  0  0  0  0  0  0  0  0  0  0  0
   39.0830   27.4410   31.0840 H   0  0  0  0  0  0  0  0  0  0  0  0
   36.9860   30.0370   32.2560 H   0  0  0  0  0  0  0  0  0  0  0  0
   36.1280   30.1490   30.7130 H   0  0  0  0  0  0  0  0  0  0  0  0
   34.5790   28.7110   31.5370 H   0  0  0  0  0  0  0  0  0  0  0  0
   36.0170   27.1000   30.1260 O   0  0  0  0  0  0  0  0  0  0  0  0
   35.4340   27.8010   29.7540 H   0  0  0  0  0  0  0  0  0  0  0  0
   37.9500   25.1660   31.6600 S   0  0  0  0  0  0  0  0  0  0  0  0
   36.9430   23.8860   32.4620 C   0  0  0  0  0  0  0  0  0  0  0  0
   37.6670   23.1050   32.8030 H   0  0  0  0  0  0  0  0  0  0  0  0
   36.4720   24.2820   33.3870 H   0  0  0  0  0  0  0  0  0  0  0  0
   35.7340   23.1400   31.3860 S   0  0  0  0  0  0  0  0  0  0  0  0
   35.7940   21.3650   31.5730 C   0  0  0  0  0  0  0  0  0  0  0  0
   37.0210   20.8040   31.2910 C   0  0  0  0  0  0  0  0  0  0  0  0
   37.1520   19.4130   31.4130 C   0  0  0  0  0  0  0  0  0  0  0  0
   36.0600   18.6900   31.8050 N   0  0  0  0  0  0  0  0  0  0  0  0
   34.8800   19.3150   32.0660 C   0  0  0  0  0  0  0  0  0  0  0  0
   34.7440   20.6180   31.9550 N   0  0  0  0  0  0  0  0  0  0  0  0
   37.9180   21.3230   30.9780 H   0  0  0  0  0  0  0  0  0  0  0  0
   38.0680   18.9020   31.2140 H   0  0  0  0  0  0  0  0  0  0  0  0
   33.9990   18.7500   32.3790 H   0  0  0  0  0  0  0  0  0  0  0  0
   35.6250   28.4270   33.3620 O   0  0  0  0  0  0  0  0  0  0  0  0
   32.7290   29.0860   33.2240 Cl  0  0  0  0  0  0  0  0  0  0  0  0
   33.9750   29.8570   34.2140 C   0  0  0  0  0  0  0  0  0  0  0  0
   35.3060   29.4770   34.2090 C   0  0  0  0  0  0  0  0  0  0  0  0
   36.1810   30.1580   35.0270 C   0  0  0  0  0  0  0  0  0  0  0  0
   37.2060   29.8520   35.0120 H   0  0  0  0  0  0  0  0  0  0  0  0
   35.7620   31.1930   35.8370 C   0  0  0  0  0  3  0  0  0  0  0  0
   34.4290   31.5350   35.8070 C   0  0  0  0  0  0  0  0  0  0  0  0
   33.9690   32.8700   36.8710 Cl  0  0  0  0  0  0  0  0  0  0  0  0
   33.5110   30.8870   35.0070 C   0  0  0  0  0  0  0  0  0  0  0  0
   32.4980   31.2440   35.0710 H   0  0  0  0  0  0  0  0  0  0  0  0
  1  7  1  1  0  0  0
  1  6  1  0  0  0  0
  1  2  1  0  0  0  0
  2  8  1  1  0  0  0
  3  2  1  0  0  0  0
  3  9  1  0  0  0  0
  4  5  1  0  0  0  0
  4  3  1  0  0  0  0
  5  6  1  0  0  0  0
  5 11  1  0  0  0  0
  6 13  1  6  0  0  0
  6 30  1  0  0  0  0
 10  3  1  0  0  0  0
 12  5  1  0  0  0  0
 14  1  1  0  0  0  0
 15 14  1  0  0  0  0
 16  2  1  0  0  0  0
 16 17  1  0  0  0  0
 17 18  1  0  0  0  0
 17 19  1  0  0  0  0
 20 21  1  0  0  0  0
 20 17  1  0  0  0  0
 21 26  1  0  0  0  0
 22 23  1  0  0  0  0
 22 21  2  0  0  0  0
 23 24  2  0  0  0  0
 24 25  1  0  0  0  0
 25 29  1  0  0  0  0
 26 25  2  0  0  0  0
 27 22  1  0  0  0  0
 28 23  1  0  0  0  0
 30 33  1  0  0  0  0
 31 32  1  0  0  0  0
 32 39  1  0  0  0  0
 33 32  2  0  0  0  0
 33 34  1  0  0  0  0
 34 36  2  0  0  0  0
 35 34  1  0  0  0  0
 37 36  1  0  0  0  0
 37 38  1  0  0  0  0
 39 40  1  0  0  0  0
 39 37  2  0  0  0  0
M  END
>  <minimizedAffinity>
-5.16226149

$$$$

 OpenBabel03262521573D

 40 42  0  0  1  0  0  0  0  0999 V2000
   37.9380   25.8450   31.4470 C   0  0  1  0  0  0  0  0  0  0  0  0
   36.5770   26.3270   31.8750 C   0  0  2  0  0  0  0  0  0  0  0  0
   35.5690   25.3470   31.3600 C   0  0  0  0  0  0  0  0  0  0  0  0
   36.1190   24.2980   30.6520 O   0  0  0  0  0  0  0  0  0  0  0  0
   37.0340   23.5770   31.4170 C   0  0  0  0  0  0  0  0  0  0  0  0
   38.1170   24.4400   32.0130 C   0  0  2  0  0  0  0  0  0  0  0  0
   38.7600   26.4850   31.7970 H   0  0  0  0  0  0  0  0  0  0  0  0
   36.5900   26.3690   32.9870 H   0  0  0  0  0  0  0  0  0  0  0  0
   35.0110   24.9240   32.2440 H   0  0  0  0  0  0  0  0  0  0  0  0
   34.8580   25.8620   30.7000 H   0  0  0  0  0  0  0  0  0  0  0  0
   36.4450   23.0910   32.2210 H   0  0  0  0  0  0  0  0  0  0  0  0
   37.4260   22.7630   30.7840 H   0  0  0  0  0  0  0  0  0  0  0  0
   39.0730   24.0310   31.6920 H   0  0  0  0  0  0  0  0  0  0  0  0
   38.0200   25.7240   30.0540 O   0  0  0  0  0  0  0  0  0  0  0  0
   38.5320   24.9280   29.7830 H   0  0  0  0  0  0  0  0  0  0  0  0
   36.2370   27.9970   31.2720 S   0  0  0  0  0  0  0  0  0  0  0  0
   36.0940   29.1350   32.6800 C   0  0  0  0  0  0  0  0  0  0  0  0
   36.6110   28.6260   33.5310 H   0  0  0  0  0  0  0  0  0  0  0  0
   36.6730   30.0640   32.4910 H   0  0  0  0  0  0  0  0  0  0  0  0
   34.4120   29.5000   33.1440 S   0  0  0  0  0  0  0  0  0  0  0  0
   34.4120   30.4390   34.6630 C   0  0  0  0  0  0  0  0  0  0  0  0
   35.6330   30.9840   34.9970 C   0  0  0  0  0  0  0  0  0  0  0  0
   35.7170   31.7370   36.1780 C   0  0  0  0  0  0  0  0  0  0  0  0
   34.5870   31.8890   36.9310 N   0  0  0  0  0  0  0  0  0  0  0  0
   33.4160   31.3210   36.5380 C   0  0  0  0  0  0  0  0  0  0  0  0
   33.3230   30.6130   35.4330 N   0  0  0  0  0  0  0  0  0  0  0  0
   36.5580   30.8970   34.4420 H   0  0  0  0  0  0  0  0  0  0  0  0
   36.6260   32.1910   36.5050 H   0  0  0  0  0  0  0  0  0  0  0  0
   32.5050   31.4350   37.1310 H   0  0  0  0  0  0  0  0  0  0  0  0
   37.9050   24.5730   33.3780 O   0  0  0  0  0  0  0  0  0  0  0  0
   40.2140   26.1220   34.4300 Cl  0  0  0  0  0  0  0  0  0  0  0  0
   39.6680   24.5140   34.9210 C   0  0  0  0  0  0  0  0  0  0  0  0
   38.5740   23.8700   34.3680 C   0  0  0  0  0  0  0  0  0  0  0  0
   38.2510   22.6150   34.8360 C   0  0  0  0  0  0  0  0  0  0  0  0
   37.4020   22.1330   34.4000 H   0  0  0  0  0  0  0  0  0  0  0  0
   38.9840   22.0000   35.8290 C   0  0  0  0  0  3  0  0  0  0  0  0
   40.0630   22.6790   36.3480 C   0  0  0  0  0  0  0  0  0  0  0  0
   40.9530   21.8240   37.6150 Cl  0  0  0  0  0  0  0  0  0  0  0  0
   40.4320   23.9360   35.9150 C   0  0  0  0  0  0  0  0  0  0  0  0
   41.2930   24.3650   36.3970 H   0  0  0  0  0  0  0  0  0  0  0  0
  1  7  1  1  0  0  0
  1  2  1  0  0  0  0
  1  6  1  0  0  0  0
  2  8  1  1  0  0  0
  3  2  1  0  0  0  0
  3  9  1  0  0  0  0
  4  3  1  0  0  0  0
  4  5  1  0  0  0  0
  5  6  1  0  0  0  0
  5 11  1  0  0  0  0
  6 13  1  6  0  0  0
  6 30  1  0  0  0  0
 10  3  1  0  0  0  0
 12  5  1  0  0  0  0
 14  1  1  0  0  0  0
 15 14  1  0  0  0  0
 16  2  1  0  0  0  0
 16 17  1  0  0  0  0
 17 20  1  0  0  0  0
 17 18  1  0  0  0  0
 19 17  1  0  0  0  0
 20 21  1  0  0  0  0
 21 22  2  0  0  0  0
 21 26  1  0  0  0  0
 22 23  1  0  0  0  0
 23 28  1  0  0  0  0
 23 24  2  0  0  0  0
 25 24  1  0  0  0  0
 25 29  1  0  0  0  0
 26 25  2  0  0  0  0
 27 22  1  0  0  0  0
 30 33  1  0  0  0  0
 31 32  1  0  0  0  0
 32 39  1  0  0  0  0
 33 34  1  0  0  0  0
 33 32  2  0  0  0  0
 34 36  2  0  0  0  0
 35 34  1  0  0  0  0
 36 37  1  0  0  0  0
 37 38  1  0  0  0  0
 39 37  2  0  0  0  0
 39 40  1  0  0  0  0
M  END
>  <minimizedAffinity>
-5.14403725

$$$$

 OpenBabel03262521573D

 40 42  0  0  1  0  0  0  0  0999 V2000
   37.0240   26.6160   34.5730 C   0  0  1  0  0  0  0  0  0  0  0  0
   37.3980   26.0540   33.2270 C   0  0  2  0  0  0  0  0  0  0  0  0
   38.8020   26.4810   32.9340 C   0  0  0  0  0  0  0  0  0  0  0  0
   39.3730   27.2510   33.9270 O   0  0  0  0  0  0  0  0  0  0  0  0
   39.3960   26.5870   35.1520 C   0  0  0  0  0  0  0  0  0  0  0  0
   38.0390   26.0870   35.5800 C   0  0  2  0  0  0  0  0  0  0  0  0
   36.0110   26.3400   34.8980 H   0  0  0  0  0  0  0  0  0  0  0  0
   37.3040   24.9480   33.3070 H   0  0  0  0  0  0  0  0  0  0  0  0
   39.4290   25.5530   32.8020 H   0  0  0  0  0  0  0  0  0  0  0  0
   38.8240   27.0640   32.0030 H   0  0  0  0  0  0  0  0  0  0  0  0
   40.0950   25.7350   35.0250 H   0  0  0  0  0  0  0  0  0  0  0  0
   39.8620   27.2630   35.8870 H   0  0  0  0  0  0  0  0  0  0  0  0
   37.8350   26.5030   36.5650 H   0  0  0  0  0  0  0  0  0  0  0  0
   37.1400   28.0120   34.5900 O   0  0  0  0  0  0  0  0  0  0  0  0
   37.5050   28.3400   35.4450 H   0  0  0  0  0  0  0  0  0  0  0  0
   36.2620   26.6020   31.9320 S   0  0  0  0  0  0  0  0  0  0  0  0
   35.6820   25.1660   30.9830 C   0  0  0  0  0  0  0  0  0  0  0  0
   34.5760   25.2990   30.8830 H   0  0  0  0  0  0  0  0  0  0  0  0
   36.0810   25.1970   29.9460 H   0  0  0  0  0  0  0  0  0  0  0  0
   36.0220   23.6000   31.7630 S   0  0  0  0  0  0  0  0  0  0  0  0
   37.3680   22.7960   30.9080 C   0  0  0  0  0  0  0  0  0  0  0  0
   38.2300   23.6570   30.2640 C   0  0  0  0  0  0  0  0  0  0  0  0
   39.3150   23.1050   29.5680 C   0  0  0  0  0  0  0  0  0  0  0  0
   39.4580   21.7450   29.5650 N   0  0  0  0  0  0  0  0  0  0  0  0
   38.5660   20.9580   30.2240 C   0  0  0  0  0  0  0  0  0  0  0  0
   37.5450   21.4630   30.8800 N   0  0  0  0  0  0  0  0  0  0  0  0
   38.1670   24.7370   30.2320 H   0  0  0  0  0  0  0  0  0  0  0  0
   40.0270   23.7040   29.0450 H   0  0  0  0  0  0  0  0  0  0  0  0
   38.6690   19.8700   30.2290 H   0  0  0  0  0  0  0  0  0  0  0  0
   37.9900   24.7060   35.4470 O   0  0  0  0  0  0  0  0  0  0  0  0
   37.8270   24.1400   38.3610 Cl  0  0  0  0  0  0  0  0  0  0  0  0
   38.9870   23.4990   37.1910 C   0  0  0  0  0  0  0  0  0  0  0  0
   38.9830   23.8250   35.8460 C   0  0  0  0  0  0  0  0  0  0  0  0
   39.9430   23.2580   35.0350 C   0  0  0  0  0  0  0  0  0  0  0  0
   39.9250   23.5190   33.9980 H   0  0  0  0  0  0  0  0  0  0  0  0
   40.8910   22.3880   35.5310 C   0  0  0  0  0  3  0  0  0  0  0  0
   40.8550   22.0960   36.8760 C   0  0  0  0  0  0  0  0  0  0  0  0
   42.1030   20.9740   37.4370 Cl  0  0  0  0  0  0  0  0  0  0  0  0
   39.9170   22.6340   37.7320 C   0  0  0  0  0  0  0  0  0  0  0  0
   39.9910   22.3300   38.7620 H   0  0  0  0  0  0  0  0  0  0  0  0
  1 14  1  0  0  0  0
  1  7  1  1  0  0  0
  1  6  1  0  0  0  0
  2  8  1  1  0  0  0
  2  1  1  0  0  0  0
  3  2  1  0  0  0  0
  3  4  1  0  0  0  0
  4  5  1  0  0  0  0
  5  6  1  0  0  0  0
  5 12  1  0  0  0  0
  6 13  1  1  0  0  0
  9  3  1  0  0  0  0
 10  3  1  0  0  0  0
 11  5  1  0  0  0  0
 14 15  1  0  0  0  0
 16  2  1  0  0  0  0
 17 20  1  0  0  0  0
 17 16  1  0  0  0  0
 18 17  1  0  0  0  0
 19 17  1  0  0  0  0
 21 20  1  0  0  0  0
 22 21  2  0  0  0  0
 23 22  1  0  0  0  0
 24 23  2  0  0  0  0
 24 25  1  0  0  0  0
 25 29  1  0  0  0  0
 25 26  2  0  0  0  0
 26 21  1  0  0  0  0
 27 22  1  0  0  0  0
 28 23  1  0  0  0  0
 30  6  1  0  0  0  0
 30 33  1  0  0  0  0
 32 39  1  0  0  0  0
 32 31  1  0  0  0  0
 33 32  2  0  0  0  0
 34 36  2  0  0  0  0
 34 33  1  0  0  0  0
 35 34  1  0  0  0  0
 36 37  1  0  0  0  0
 37 38  1  0  0  0  0
 37 39  2  0  0  0  0
 39 40  1  0  0  0  0
M  END
>  <minimizedAffinity>
-5.14097738

$$$$

 OpenBabel03262521573D

 40 42  0  0  1  0  0  0  0  0999 V2000
   37.7200   26.1260   31.2470 C   0  0  1  0  0  0  0  0  0  0  0  0
   38.9590   26.1760   32.1010 C   0  0  2  0  0  0  0  0  0  0  0  0
   40.0750   26.6900   31.2470 C   0  0  0  0  0  0  0  0  0  0  0  0
   39.7030   26.9740   29.9490 O   0  0  0  0  0  0  0  0  0  0  0  0
   38.6800   27.9190   29.8950 C   0  0  0  0  0  0  0  0  0  0  0  0
   37.4780   27.5370   30.7220 C   0  0  2  0  0  0  0  0  0  0  0  0
   36.8280   25.7820   31.7870 H   0  0  0  0  0  0  0  0  0  0  0  0
   38.7320   26.8590   32.9510 H   0  0  0  0  0  0  0  0  0  0  0  0
   40.4670   27.6370   31.7180 H   0  0  0  0  0  0  0  0  0  0  0  0
   40.8850   25.9480   31.2100 H   0  0  0  0  0  0  0  0  0  0  0  0
   39.1190   28.8660   30.2710 H   0  0  0  0  0  0  0  0  0  0  0  0
   38.4410   28.0890   28.8320 H   0  0  0  0  0  0  0  0  0  0  0  0
   36.6140   27.5430   30.0600 H   0  0  0  0  0  0  0  0  0  0  0  0
   37.9100   25.3130   30.1220 O   0  0  0  0  0  0  0  0  0  0  0  0
   37.4820   25.6900   29.3190 H   0  0  0  0  0  0  0  0  0  0  0  0
   39.3580   24.5560   32.7980 S   0  0  0  0  0  0  0  0  0  0  0  0
   37.8290   23.7150   33.2990 C   0  0  0  0  0  0  0  0  0  0  0  0
   37.2740   24.4530   33.9310 H   0  0  0  0  0  0  0  0  0  0  0  0
   37.1790   23.5290   32.4170 H   0  0  0  0  0  0  0  0  0  0  0  0
   38.0990   22.2230   34.2350 S   0  0  0  0  0  0  0  0  0  0  0  0
   38.4350   22.6480   35.9360 C   0  0  0  0  0  0  0  0  0  0  0  0
   39.7240   22.3820   36.3470 C   0  0  0  0  0  0  0  0  0  0  0  0
   40.0690   22.6860   37.6720 C   0  0  0  0  0  0  0  0  0  0  0  0
   39.1110   23.2290   38.4830 N   0  0  0  0  0  0  0  0  0  0  0  0
   37.8580   23.4630   38.0070 C   0  0  0  0  0  0  0  0  0  0  0  0
   37.5220   23.1820   36.7670 N   0  0  0  0  0  0  0  0  0  0  0  0
   40.5210   21.9550   35.7520 H   0  0  0  0  0  0  0  0  0  0  0  0
   41.0450   22.5110   38.0660 H   0  0  0  0  0  0  0  0  0  0  0  0
   37.0840   23.8950   38.6440 H   0  0  0  0  0  0  0  0  0  0  0  0
   37.4210   28.3370   31.8540 O   0  0  0  0  0  0  0  0  0  0  0  0
   36.9430   27.7530   34.7290 Cl  0  0  0  0  0  0  0  0  0  0  0  0
   35.9870   28.7800   33.6540 C   0  0  0  0  0  0  0  0  0  0  0  0
   36.2910   28.9920   32.3200 C   0  0  0  0  0  0  0  0  0  0  0  0
   35.4650   29.8150   31.5860 C   0  0  0  0  0  0  0  0  0  0  0  0
   35.7150   29.9690   30.5580 H   0  0  0  0  0  0  0  0  0  0  0  0
   34.3600   30.4220   32.1460 C   0  0  0  0  0  3  0  0  0  0  0  0
   34.0990   30.1810   33.4750 C   0  0  0  0  0  0  0  0  0  0  0  0
   32.6660   30.9930   34.1210 Cl  0  0  0  0  0  0  0  0  0  0  0  0
   34.8910   29.3650   34.2560 C   0  0  0  0  0  0  0  0  0  0  0  0
   34.5850   29.2540   35.2820 H   0  0  0  0  0  0  0  0  0  0  0  0
  1  7  1  1  0  0  0
  1  2  1  0  0  0  0
  2 16  1  0  0  0  0
  2  8  1  1  0  0  0
  3  9  1  0  0  0  0
  3  2  1  0  0  0  0
  4  3  1  0  0  0  0
  5  4  1  0  0  0  0
  5 11  1  0  0  0  0
  5  6  1  0  0  0  0
  6 13  1  6  0  0  0
  6  1  1  0  0  0  0
  6 30  1  0  0  0  0
 10  3  1  0  0  0  0
 12  5  1  0  0  0  0
 14  1  1  0  0  0  0
 15 14  1  0  0  0  0
 16 17  1  0  0  0  0
 17 18  1  0  0  0  0
 17 20  1  0  0  0  0
 19 17  1  0  0  0  0
 20 21  1  0  0  0  0
 21 22  2  0  0  0  0
 21 26  1  0  0  0  0
 22 23  1  0  0  0  0
 23 28  1  0  0  0  0
 23 24  2  0  0  0  0
 25 24  1  0  0  0  0
 25 29  1  0  0  0  0
 26 25  2  0  0  0  0
 27 22  1  0  0  0  0
 30 33  1  0  0  0  0
 32 39  1  0  0  0  0
 32 31  1  0  0  0  0
 33 32  2  0  0  0  0
 34 36  2  0  0  0  0
 34 33  1  0  0  0  0
 35 34  1  0  0  0  0
 36 37  1  0  0  0  0
 37 38  1  0  0  0  0
 37 39  2  0  0  0  0
 39 40  1  0  0  0  0
M  END
>  <minimizedAffinity>
-5.10762548

$$$$
