
 OpenBabel03272509253D

 25 26  0  0  0  0  0  0  0  0999 V2000
   35.0130   30.2200   49.0190 C   0  0  0  0  0  0  0  0  0  0  0  0
   34.2270   30.3140   48.2400 H   0  0  0  0  0  0  0  0  0  0  0  0
   34.7530   30.7750   49.9300 H   0  0  0  0  0  0  0  0  0  0  0  0
   35.1030   29.9410   46.0800 Cl  0  0  0  0  0  0  0  0  0  0  0  0
   36.3980   30.6460   47.0520 C   0  0  0  0  0  0  0  0  0  0  0  0
   36.2810   30.7450   48.4370 C   0  0  0  0  0  0  0  0  0  0  0  0
   37.3400   31.3090   49.1110 C   0  0  0  0  0  0  0  0  0  0  0  0
   37.2110   31.3670   50.1820 H   0  0  0  0  0  0  0  0  0  0  0  0
   38.4470   31.7450   48.4140 C   0  0  0  0  0  3  0  0  0  0  0  0
   38.5430   31.6410   47.0550 C   0  0  0  0  0  0  0  0  0  0  0  0
   39.9620   32.2010   46.1850 Cl  0  0  0  0  0  0  0  0  0  0  0  0
   37.5010   31.0810   46.3550 C   0  0  0  0  0  0  0  0  0  0  0  0
   37.5920   31.0040   45.2800 H   0  0  0  0  0  0  0  0  0  0  0  0
   35.1980   28.7300   49.2910 C   0  0  0  0  0  0  0  0  0  0  0  0
   35.3290   28.6100   50.4070 H   0  0  0  0  0  0  0  0  0  0  0  0
   36.0920   28.3470   48.7930 H   0  0  0  0  0  0  0  0  0  0  0  0
   31.6230   27.5610   48.6670 C   0  0  0  0  0  0  0  0  0  0  0  0
   32.7060   28.2900   49.1440 C   0  0  0  0  0  0  0  0  0  0  0  0
   34.0130   27.9820   48.8110 C   0  0  0  0  0  0  0  0  0  0  0  0
   34.1940   26.9210   47.9870 N   0  0  0  0  0  0  0  0  0  0  0  0
   33.1370   26.2090   47.5230 C   0  0  0  0  0  0  0  0  0  0  0  0
   31.8730   26.5300   47.8610 N   0  0  0  0  0  0  0  0  0  0  0  0
   30.6080   27.7860   48.9140 H   0  0  0  0  0  0  0  0  0  0  0  0
   32.4910   29.1110   49.7880 H   0  0  0  0  0  0  0  0  0  0  0  0
   33.4360   25.3880   46.8740 H   0  0  0  0  0  0  0  0  0  0  0  0
  1 14  1  0  0  0  0
  1  3  1  0  0  0  0
  2  1  1  0  0  0  0
  4  5  1  0  0  0  0
  5  6  1  0  0  0  0
  6  1  1  0  0  0  0
  6  7  2  0  0  0  0
  7  8  1  0  0  0  0
  9  7  1  0  0  0  0
 10  9  2  0  0  0  0
 11 10  1  0  0  0  0
 12  5  2  0  0  0  0
 12 10  1  0  0  0  0
 13 12  1  0  0  0  0
 14 15  1  0  0  0  0
 16 14  1  0  0  0  0
 17 23  1  0  0  0  0
 17 18  1  0  0  0  0
 18 24  1  0  0  0  0
 19 18  2  0  0  0  0
 19 14  1  0  0  0  0
 20 19  1  0  0  0  0
 21 22  1  0  0  0  0
 21 20  2  0  0  0  0
 22 17  2  0  0  0  0
 25 21  1  0  0  0  0
M  END
>  <minimizedAffinity>
-4.66448545

>  <minimizedRMSD>
5.2011857

$$$$
