
 OpenBabel03272510273D

 46 50  0  0  1  0  0  0  0  0999 V2000
   39.5400   33.5400   43.4600 O   0  0  0  0  0  0  0  0  0  0  0  0
   36.1920   30.2330   47.0100 C   0  0  0  0  0  0  0  0  0  0  0  0
   37.0400   30.7370   47.9810 C   0  0  0  0  0  0  0  0  0  0  0  0
   38.0650   31.6230   47.6320 C   0  0  0  0  0  0  0  0  0  0  0  0
   38.1600   31.9440   46.2820 C   0  0  0  0  0  0  0  0  0  0  0  0
   39.0830   32.7820   45.6940 N   0  0  0  0  0  0  0  0  0  0  0  0
   38.8030   32.7910   44.3840 C   0  0  0  0  0  0  0  0  0  0  0  0
   37.7710   32.0130   44.1510 N   0  0  0  0  0  0  0  0  0  0  0  0
   37.3400   31.4650   45.2990 C   0  0  0  0  0  0  0  0  0  0  0  0
   36.3270   30.5850   45.6730 C   0  0  0  0  0  0  0  0  0  0  0  0
   35.3770   29.5420   47.2200 H   0  0  0  0  0  0  0  0  0  0  0  0
   38.7350   32.0250   48.3800 H   0  0  0  0  0  0  0  0  0  0  0  0
   39.8440   33.2960   46.2040 H   0  0  0  0  0  0  0  0  0  0  0  0
   35.6730   30.2010   44.9000 H   0  0  0  0  0  0  0  0  0  0  0  0
   37.3930   30.0720   51.6540 C   0  0  0  0  0  0  0  0  0  0  0  0
   37.7270   30.5340   50.3880 C   0  0  0  0  0  0  0  0  0  0  0  0
   36.8360   30.3230   49.3530 C   0  0  0  0  0  0  0  0  0  0  0  0
   35.6670   29.6660   49.6440 N   0  0  0  0  0  0  0  0  0  0  0  0
   35.3640   29.2280   50.8810 C   0  0  0  0  0  0  0  0  0  0  0  0
   36.2240   29.4330   51.8690 N   0  0  0  0  0  0  0  0  0  0  0  0
   38.1050   30.2450   52.4610 H   0  0  0  0  0  0  0  0  0  0  0  0
   38.6460   31.0480   50.1660 H   0  0  0  0  0  0  0  0  0  0  0  0
   34.4130   28.7230   50.9900 H   0  0  0  0  0  0  0  0  0  0  0  0
   39.6990   31.6090   42.2090 N   0  0  0  0  0  0  0  0  0  0  0  0
   39.5520   33.0650   42.1220 C   0  0  1  0  0  0  0  0  0  0  0  0
   38.2860   33.3580   41.4630 C   0  0  0  0  0  0  0  0  0  0  0  0
   38.3510   32.9050   40.1400 O   0  0  0  0  0  0  0  0  0  0  0  0
   38.6290   31.5590   40.0100 C   0  0  0  0  0  0  0  0  0  0  0  0
   39.8310   31.1560   40.8590 C   0  0  2  0  0  0  0  0  0  0  0  0
   38.8320   31.1610   42.5540 H   0  0  0  0  0  0  0  0  0  0  0  0
   40.4020   33.4050   41.5350 H   0  0  0  0  0  0  0  0  0  0  0  0
   37.3380   33.0170   41.7850 H   0  0  0  0  0  0  0  0  0  0  0  0
   38.2070   34.4840   41.3590 H   0  0  0  0  0  0  0  0  0  0  0  0
   37.7620   30.9340   40.2810 H   0  0  0  0  0  0  0  0  0  0  0  0
   38.8790   31.3840   38.9510 H   0  0  0  0  0  0  0  0  0  0  0  0
   40.7600   31.6280   40.4090 H   0  0  0  0  0  0  0  0  0  0  0  0
   39.1350   28.9040   43.1510 Cl  0  0  0  0  0  0  0  0  0  0  0  0
   39.7450   28.5930   41.5480 C   0  0  0  0  0  0  0  0  0  0  0  0
   39.9720   29.7050   40.7800 C   0  0  0  0  0  0  0  0  0  0  0  0
   40.4770   29.3300   39.5160 C   0  0  0  0  0  0  0  0  0  0  0  0
   40.7400   30.0350   38.7140 H   0  0  0  0  0  0  0  0  0  0  0  0
   40.7190   28.0240   39.0850 C   0  0  0  0  0  0  0  0  0  0  0  0
   40.4520   27.0020   39.9430 C   0  0  0  0  0  0  0  0  0  0  0  0
   40.7150   25.3300   39.5130 Cl  0  0  0  0  0  0  0  0  0  0  0  0
   39.9620   27.2930   41.1820 C   0  0  0  0  0  0  0  0  0  0  0  0
   39.7410   26.5220   41.8810 H   0  0  0  0  0  0  0  0  0  0  0  0
  1  7  1  0  0  0  0
  2 11  1  0  0  0  0
  2  3  1  0  0  0  0
  3 17  1  0  0  0  0
  4  3  2  0  0  0  0
  4 12  1  0  0  0  0
  5  4  1  0  0  0  0
  6 13  1  0  0  0  0
  6  5  1  0  0  0  0
  7  6  1  0  0  0  0
  8  7  2  0  0  0  0
  8  9  1  0  0  0  0
  9 10  1  0  0  0  0
  9  5  2  0  0  0  0
 10  2  2  0  0  0  0
 14 10  1  0  0  0  0
 15 20  1  0  0  0  0
 15 21  1  0  0  0  0
 16 15  2  0  0  0  0
 17 18  2  0  0  0  0
 17 16  1  0  0  0  0
 18 19  1  0  0  0  0
 19 23  1  0  0  0  0
 19 20  2  0  0  0  0
 22 16  1  0  0  0  0
 24 30  1  0  0  0  0
 25 31  1  6  0  0  0
 25 24  1  0  0  0  0
 25  1  1  0  0  0  0
 26 32  1  0  0  0  0
 26 25  1  0  0  0  0
 27 26  1  0  0  0  0
 28 27  1  0  0  0  0
 28 34  1  0  0  0  0
 28 29  1  0  0  0  0
 29 36  1  6  0  0  0
 29 24  1  0  0  0  0
 33 26  1  0  0  0  0
 35 28  1  0  0  0  0
 38 37  1  0  0  0  0
 39 29  1  0  0  0  0
 39 38  2  0  0  0  0
 40 39  1  0  0  0  0
 41 40  1  0  0  0  0
 42 40  2  0  0  0  0
 42 43  1  0  0  0  0
 43 45  2  0  0  0  0
 44 43  1  0  0  0  0
 45 38  1  0  0  0  0
 45 46  1  0  0  0  0
M  END
>  <minimizedAffinity>
-6.32661009

>  <minimizedRMSD>
0.745234668

$$$$
