
 OpenBabel03272507163D

 27 29  0  0  1  0  0  0  0  0999 V2000
   36.8270   30.4790   50.4430 C   0  0  1  0  0  0  0  0  0  0  0  0
   36.0210   29.2850   50.3470 C   0  0  2  0  0  0  0  0  0  0  0  0
   37.4770   29.1230   50.7360 C   0  0  0  0  0  0  0  0  0  0  0  0
   36.8020   31.1810   51.3280 H   0  0  0  0  0  0  0  0  0  0  0  0
   35.2240   29.1630   51.1160 H   0  0  0  0  0  0  0  0  0  0  0  0
   37.5960   28.8960   51.8130 H   0  0  0  0  0  0  0  0  0  0  0  0
   38.1670   28.6920   49.9920 H   0  0  0  0  0  0  0  0  0  0  0  0
   37.4110   31.1370   49.2100 C   0  0  0  0  0  0  0  0  0  0  0  0
   38.3350   32.1580   49.4340 C   0  0  0  0  0  0  0  0  0  0  0  0
   38.8380   32.7640   48.2940 C   0  0  0  0  0  0  0  0  0  0  0  0
   38.4290   32.3570   47.0480 N   0  0  0  0  0  0  0  0  0  0  0  0
   37.5270   31.3580   46.8790 C   0  0  0  0  0  0  0  0  0  0  0  0
   37.0070   30.7330   47.9770 N   0  0  0  0  0  0  0  0  0  0  0  0
   38.6150   32.4320   50.4410 H   0  0  0  0  0  0  0  0  0  0  0  0
   39.5560   33.5590   48.4290 H   0  0  0  0  0  0  0  0  0  0  0  0
   37.2450   31.0820   45.8720 H   0  0  0  0  0  0  0  0  0  0  0  0
   35.6800   28.7880   49.0800 O   0  0  0  0  0  0  0  0  0  0  0  0
   33.4270   29.8180   50.7110 Cl  0  0  0  0  0  0  0  0  0  0  0  0
   33.4030   28.6110   49.4350 C   0  0  0  0  0  0  0  0  0  0  0  0
   34.5110   28.1820   48.7140 C   0  0  0  0  0  0  0  0  0  0  0  0
   34.3280   27.2260   47.7420 C   0  0  0  0  0  0  0  0  0  0  0  0
   35.2180   26.9200   47.2050 H   0  0  0  0  0  0  0  0  0  0  0  0
   33.1060   26.6670   47.4390 C   0  0  0  0  0  3  0  0  0  0  0  0
   32.0060   27.1010   48.1610 C   0  0  0  0  0  0  0  0  0  0  0  0
   30.4350   26.4170   47.8100 Cl  0  0  0  0  0  0  0  0  0  0  0  0
   32.1540   28.0600   49.1470 C   0  0  0  0  0  0  0  0  0  0  0  0
   31.2640   28.3500   49.6660 H   0  0  0  0  0  0  0  0  0  0  0  0
  1  3  1  0  0  0  0
  1  4  1  1  0  0  0
  2  1  1  0  0  0  0
  2  3  1  0  0  0  0
  2  5  1  1  0  0  0
  3  6  1  0  0  0  0
  7  3  1  0  0  0  0
  8  9  1  0  0  0  0
  8  1  1  0  0  0  0
  9 14  1  0  0  0  0
 10 15  1  0  0  0  0
 10  9  2  0  0  0  0
 11 10  1  0  0  0  0
 12 11  2  0  0  0  0
 12 13  1  0  0  0  0
 13  8  2  0  0  0  0
 16 12  1  0  0  0  0
 17  2  1  0  0  0  0
 19 18  1  0  0  0  0
 20 17  1  0  0  0  0
 20 19  2  0  0  0  0
 21 20  1  0  0  0  0
 22 21  1  0  0  0  0
 23 21  2  0  0  0  0
 23 24  1  0  0  0  0
 24 26  2  0  0  0  0
 25 24  1  0  0  0  0
 26 19  1  0  0  0  0
 26 27  1  0  0  0  0
M  END
>  <minimizedAffinity>
-5.11981297

>  <minimizedRMSD>
1.32012928

$$$$
