
 OpenBabel03262522163D

 46 49  0  0  1  0  0  0  0  0999 V2000
   39.6060   32.9720   44.0400 C   0  0  0  0  0  0  0  0  0  0  0  0
   39.6820   33.8170   43.3070 H   0  0  0  0  0  0  0  0  0  0  0  0
   38.5460   32.8040   44.2530 H   0  0  0  0  0  0  0  0  0  0  0  0
   39.0660   29.8260   42.5010 C   0  0  1  0  0  0  0  0  0  0  0  0
   39.2230   31.3140   42.2210 C   0  0  0  0  0  0  0  0  0  0  0  0
   40.1200   31.7170   43.3690 C   0  0  2  0  0  0  0  0  0  0  0  0
   40.2280   30.6710   44.2320 O   0  0  0  0  0  0  0  0  0  0  0  0
   39.1520   29.8190   44.0190 C   0  0  0  0  0  0  0  0  0  0  0  0
   39.9070   29.2770   42.0460 H   0  0  0  0  0  0  0  0  0  0  0  0
   39.7700   31.4680   41.2630 H   0  0  0  0  0  0  0  0  0  0  0  0
   38.2580   31.8450   42.2780 H   0  0  0  0  0  0  0  0  0  0  0  0
   41.1410   31.9550   42.9870 H   0  0  0  0  0  0  0  0  0  0  0  0
   38.1990   30.2790   44.3700 H   0  0  0  0  0  0  0  0  0  0  0  0
   39.3290   28.8150   44.4220 H   0  0  0  0  0  0  0  0  0  0  0  0
   37.8430   29.3600   42.0610 O   0  0  0  0  0  0  0  0  0  0  0  0
   35.3580   30.2370   43.3140 Cl  0  0  0  0  0  0  0  0  0  0  0  0
   35.8930   28.5820   43.1430 C   0  0  0  0  0  0  0  0  0  0  0  0
   37.0950   28.3240   42.5260 C   0  0  0  0  0  0  0  0  0  0  0  0
   37.4370   27.0000   42.4320 C   0  0  0  0  0  0  0  0  0  0  0  0
   38.3640   26.7260   41.9620 H   0  0  0  0  0  0  0  0  0  0  0  0
   36.6550   25.9930   42.9140 C   0  0  0  0  0  3  0  0  0  0  0  0
   35.4570   26.2990   43.5260 C   0  0  0  0  0  0  0  0  0  0  0  0
   34.4260   25.0320   44.1540 Cl  0  0  0  0  0  0  0  0  0  0  0  0
   35.0670   27.6150   43.6440 C   0  0  0  0  0  0  0  0  0  0  0  0
   34.1210   27.8640   44.1270 H   0  0  0  0  0  0  0  0  0  0  0  0
   40.6300   33.2730   45.5010 S   0  0  0  0  0  0  0  0  0  0  0  0
   37.7420   31.8240   47.8250 C   0  0  0  0  0  0  0  0  0  0  0  0
   37.8630   32.5730   49.0040 C   0  0  0  0  0  0  0  0  0  0  0  0
   38.8260   33.5510   49.1450 C   0  0  0  0  0  0  0  0  0  0  0  0
   39.6560   33.7440   48.0620 C   0  0  0  0  0  0  0  0  0  0  0  0
   39.5250   33.0090   46.9290 C   0  0  0  0  0  0  0  0  0  0  0  0
   38.5820   32.0480   46.7850 N   0  0  0  0  0  0  0  0  0  0  0  0
   37.2000   32.4060   49.8450 H   0  0  0  0  0  0  0  0  0  0  0  0
   38.9080   34.1230   50.0630 H   0  0  0  0  0  0  0  0  0  0  0  0
   40.4370   34.4940   48.1020 H   0  0  0  0  0  0  0  0  0  0  0  0
   36.7160   30.8300   47.7640 C   0  0  0  0  0  0  0  0  0  0  0  0
   36.2930   30.4130   46.6880 O   0  0  0  0  0  0  0  0  0  0  0  0
   36.9610   29.6020   49.8910 C   0  0  0  0  0  0  0  0  0  0  0  0
   36.1080   30.2510   48.9690 C   0  0  0  0  0  0  0  0  0  0  0  0
   34.7350   30.3140   49.2350 C   0  0  0  0  0  0  0  0  0  0  0  0
   34.2750   29.7400   50.3910 N   0  0  0  0  0  0  0  0  0  0  0  0
   35.1070   29.1280   51.2510 C   0  0  0  0  0  0  0  0  0  0  0  0
   36.4130   29.0630   51.0050 N   0  0  0  0  0  0  0  0  0  0  0  0
   38.0170   29.5710   49.6530 H   0  0  0  0  0  0  0  0  0  0  0  0
   34.1050   30.8040   48.5350 H   0  0  0  0  0  0  0  0  0  0  0  0
   34.7750   28.6660   52.1720 H   0  0  0  0  0  0  0  0  0  0  0  0
  1  3  1  0  0  0  0
  1 26  1  0  0  0  0
  2  1  1  0  0  0  0
  4  9  1  6  0  0  0
  4  8  1  0  0  0  0
  5 11  1  0  0  0  0
  5  4  1  0  0  0  0
  5  6  1  0  0  0  0
  6 12  1  6  0  0  0
  6  1  1  0  0  0  0
  6  7  1  0  0  0  0
  8  7  1  0  0  0  0
  8 13  1  0  0  0  0
  8 14  1  0  0  0  0
 10  5  1  0  0  0  0
 15  4  1  0  0  0  0
 15 18  1  0  0  0  0
 17 16  1  0  0  0  0
 17 24  1  0  0  0  0
 18 17  2  0  0  0  0
 19 18  1  0  0  0  0
 19 21  2  0  0  0  0
 20 19  1  0  0  0  0
 21 22  1  0  0  0  0
 22 24  2  0  0  0  0
 22 23  1  0  0  0  0
 24 25  1  0  0  0  0
 26 31  1  0  0  0  0
 27 28  1  0  0  0  0
 28 29  2  0  0  0  0
 28 33  1  0  0  0  0
 29 34  1  0  0  0  0
 30 35  1  0  0  0  0
 30 29  1  0  0  0  0
 31 30  2  0  0  0  0
 32 31  1  0  0  0  0
 32 27  2  0  0  0  0
 36 27  1  0  0  0  0
 36 39  1  0  0  0  0
 37 36  2  0  0  0  0
 38 43  1  0  0  0  0
 39 40  1  0  0  0  0
 39 38  2  0  0  0  0
 40 41  2  0  0  0  0
 41 42  1  0  0  0  0
 42 46  1  0  0  0  0
 43 42  2  0  0  0  0
 44 38  1  0  0  0  0
 45 40  1  0  0  0  0
M  END
>  <minimizedAffinity>
-5.42126179

>  <minimizedRMSD>
1.62621415

$$$$
