
 OpenBabel03272503333D

 42 45  0  0  1  0  0  0  0  0999 V2000
   35.5530   29.3940   47.7300 C   0  0  0  0  0  0  0  0  0  0  0  0
   35.5950   29.9570   46.4550 C   0  0  0  0  0  0  0  0  0  0  0  0
   34.6380   29.5290   45.5280 C   0  0  0  0  0  0  0  0  0  0  0  0
   33.7260   28.5830   45.9470 N   0  0  0  0  0  0  0  0  0  0  0  0
   33.7240   28.0720   47.1790 C   0  0  0  0  0  0  0  0  0  0  0  0
   34.6380   28.4800   48.0680 N   0  0  0  0  0  0  0  0  0  0  0  0
   36.3100   30.6980   46.1240 H   0  0  0  0  0  0  0  0  0  0  0  0
   34.5890   29.9000   44.5270 H   0  0  0  0  0  0  0  0  0  0  0  0
   36.5380   29.8400   48.6720 N   0  0  0  0  0  0  0  0  0  0  0  0
   37.7500   30.5490   48.3880 C   0  0  0  0  0  0  0  0  0  0  0  0
   37.9820   31.3280   49.6750 C   0  0  2  0  0  0  0  0  0  0  0  0
   36.7540   31.0830   50.5500 C   0  0  0  0  0  0  0  0  0  0  0  0
   36.4860   29.6500   50.1190 C   0  0  0  0  0  0  0  0  0  0  0  0
   37.6400   31.2650   47.5300 H   0  0  0  0  0  0  0  0  0  0  0  0
   38.6200   29.8690   48.2290 H   0  0  0  0  0  0  0  0  0  0  0  0
   38.8430   30.9070   50.2490 H   0  0  0  0  0  0  0  0  0  0  0  0
   35.9420   31.7340   50.2220 H   0  0  0  0  0  0  0  0  0  0  0  0
   36.9870   31.1650   51.6180 H   0  0  0  0  0  0  0  0  0  0  0  0
   35.4700   29.3580   50.4290 H   0  0  0  0  0  0  0  0  0  0  0  0
   37.2860   28.9980   50.4820 H   0  0  0  0  0  0  0  0  0  0  0  0
   38.1930   32.7940   49.4180 C   0  0  0  0  0  0  0  0  0  0  0  0
   37.0700   33.4470   49.8880 F   0  0  0  0  0  0  0  0  0  0  0  0
   38.2050   32.9660   48.0590 F   0  0  0  0  0  0  0  0  0  0  0  0
   39.3410   33.2830   49.9810 F   0  0  0  0  0  0  0  0  0  0  0  0
   32.5190   26.8530   47.6630 S   0  0  0  0  0  0  0  0  0  0  0  0
   30.9460   27.3780   47.9730 C   0  0  0  0  0  0  0  0  0  0  0  0
   29.7900   26.9660   48.5680 C   0  0  0  0  0  0  0  0  0  0  0  0
   28.6440   27.6820   48.6380 C   0  0  0  0  0  0  0  0  0  0  0  0
   28.7480   29.0080   47.9850 C   0  0  0  0  0  0  0  0  0  0  0  0
   30.4520   29.0750   47.3570 S   0  0  0  0  0  0  0  0  0  0  0  0
   29.9080   25.9790   48.9870 H   0  0  0  0  0  0  0  0  0  0  0  0
   27.7390   27.3540   49.1060 H   0  0  0  0  0  0  0  0  0  0  0  0
   28.1180   29.6940   45.1660 Cl  0  0  0  0  0  0  0  0  0  0  0  0
   27.3930   30.3810   46.6010 C   0  0  0  0  0  0  0  0  0  0  0  0
   27.7530   29.9950   47.8730 C   0  0  0  0  0  0  0  0  0  0  0  0
   27.2210   30.4970   49.0380 C   0  0  0  0  0  0  0  0  0  0  0  0
   27.5400   30.1600   50.0080 H   0  0  0  0  0  0  0  0  0  0  0  0
   26.2310   31.4800   48.9120 C   0  0  0  0  0  3  0  0  0  0  0  0
   25.8280   31.9090   47.6420 C   0  0  0  0  0  0  0  0  0  0  0  0
   24.5940   33.1370   47.4490 Cl  0  0  0  0  0  0  0  0  0  0  0  0
   26.4020   31.3660   46.4870 C   0  0  0  0  0  0  0  0  0  0  0  0
   26.0790   31.7070   45.5140 H   0  0  0  0  0  0  0  0  0  0  0  0
  1  6  1  0  0  0  0
  1  9  1  0  0  0  0
  2  1  2  0  0  0  0
  3  4  2  0  0  0  0
  3  2  1  0  0  0  0
  4  5  1  0  0  0  0
  5 25  1  0  0  0  0
  5  6  2  0  0  0  0
  7  2  1  0  0  0  0
  8  3  1  0  0  0  0
  9 13  1  0  0  0  0
 10  9  1  0  0  0  0
 10 11  1  0  0  0  0
 11 16  1  1  0  0  0
 11 12  1  0  0  0  0
 12 18  1  0  0  0  0
 13 19  1  0  0  0  0
 13 20  1  0  0  0  0
 13 12  1  0  0  0  0
 14 10  1  0  0  0  0
 15 10  1  0  0  0  0
 17 12  1  0  0  0  0
 21 11  1  0  0  0  0
 21 22  1  0  0  0  0
 21 24  1  0  0  0  0
 23 21  1  0  0  0  0
 25 26  1  0  0  0  0
 26 27  2  0  0  0  0
 27 28  1  0  0  0  0
 27 31  1  0  0  0  0
 28 32  1  0  0  0  0
 29 28  2  0  0  0  0
 30 26  1  0  0  0  0
 30 29  1  0  0  0  0
 33 34  1  0  0  0  0
 34 35  1  0  0  0  0
 35 29  1  0  0  0  0
 35 36  2  0  0  0  0
 36 37  1  0  0  0  0
 38 36  1  0  0  0  0
 39 38  2  0  0  0  0
 40 39  1  0  0  0  0
 41 34  2  0  0  0  0
 41 39  1  0  0  0  0
 42 41  1  0  0  0  0
M  END
>  <minimizedAffinity>
-6.70338202

>  <minimizedRMSD>
1.00500655

$$$$
