
 OpenBabel03272500073D

 40 43  0  0  0  0  0  0  0  0999 V2000
   32.4720   27.0560   48.0750 O   0  0  0  0  0  0  0  0  0  0  0  0
   31.1490   27.4540   48.2720 C   0  0  0  0  0  0  0  0  0  0  0  0
   30.8330   27.7630   49.5760 C   0  0  0  0  0  0  0  0  0  0  0  0
   29.5600   28.1700   49.9100 C   0  0  0  0  0  0  0  0  0  0  0  0
   28.5920   28.2620   48.8960 C   0  0  0  0  0  0  0  0  0  0  0  0
   28.9230   27.9500   47.5990 C   0  0  0  0  0  0  0  0  0  0  0  0
   30.1900   27.5510   47.2960 C   0  0  0  0  0  0  0  0  0  0  0  0
   31.5490   27.7040   50.3830 H   0  0  0  0  0  0  0  0  0  0  0  0
   29.3250   28.4120   50.9520 H   0  0  0  0  0  0  0  0  0  0  0  0
   27.6080   28.5830   49.1890 H   0  0  0  0  0  0  0  0  0  0  0  0
   28.1370   28.0430   46.8720 H   0  0  0  0  0  0  0  0  0  0  0  0
   30.5430   30.0350   45.7810 Cl  0  0  0  0  0  0  0  0  0  0  0  0
   30.7180   28.3890   45.1870 C   0  0  0  0  0  0  0  0  0  0  0  0
   30.5440   27.2140   45.9230 C   0  0  0  0  0  0  0  0  0  0  0  0
   30.7250   26.0040   45.2860 C   0  0  0  0  0  0  0  0  0  0  0  0
   30.5600   25.1860   45.9690 H   0  0  0  0  0  0  0  0  0  0  0  0
   31.0700   25.9800   43.9520 C   0  0  0  0  0  3  0  0  0  0  0  0
   31.2450   27.1210   43.2150 C   0  0  0  0  0  0  0  0  0  0  0  0
   31.6830   26.9150   41.5300 Cl  0  0  0  0  0  0  0  0  0  0  0  0
   31.0690   28.3360   43.8340 C   0  0  0  0  0  0  0  0  0  0  0  0
   31.2200   29.1990   43.2030 H   0  0  0  0  0  0  0  0  0  0  0  0
   35.4030   28.8440   49.1450 C   0  0  0  0  0  0  0  0  0  0  0  0
   35.3370   30.0300   48.4090 C   0  0  0  0  0  0  0  0  0  0  0  0
   34.2600   30.1900   47.5420 C   0  0  0  0  0  0  0  0  0  0  0  0
   33.3380   29.1880   47.4610 N   0  0  0  0  0  0  0  0  0  0  0  0
   33.4270   28.0670   48.1750 C   0  0  0  0  0  0  0  0  0  0  0  0
   34.4710   27.8820   49.0330 N   0  0  0  0  0  0  0  0  0  0  0  0
   36.2150   28.6520   49.8410 H   0  0  0  0  0  0  0  0  0  0  0  0
   34.2160   31.1010   46.9820 H   0  0  0  0  0  0  0  0  0  0  0  0
   36.3640   30.9960   48.5840 N   0  0  0  0  0  0  0  0  0  0  0  0
   36.5200   31.6720   49.7180 C   0  0  0  0  0  0  0  0  0  0  0  0
   37.5490   32.6010   49.8130 C   0  0  0  0  0  0  0  0  0  0  0  0
   38.3320   32.7450   48.7130 C   0  0  0  0  0  0  0  0  0  0  0  0
   39.2700   33.5920   48.8010 O   0  0  0  0  0  0  0  0  0  0  0  0
   38.2060   32.0880   47.5640 N   0  0  0  0  0  0  0  0  0  0  0  0
   37.1890   31.1850   47.4990 C   0  0  0  0  0  0  0  0  0  0  0  0
   37.0560   30.5480   46.4090 O   0  0  0  0  0  0  0  0  0  0  0  0
   35.8640   31.5130   50.5630 H   0  0  0  0  0  0  0  0  0  0  0  0
   37.7170   33.1790   50.7220 H   0  0  0  0  0  0  0  0  0  0  0  0
   38.8360   32.2360   46.7430 H   0  0  0  0  0  0  0  0  0  0  0  0
  1 26  1  0  0  0  0
  1  2  1  0  0  0  0
  2  3  1  0  0  0  0
  3  4  2  0  0  0  0
  3  8  1  0  0  0  0
  4  9  1  0  0  0  0
  5 10  1  0  0  0  0
  5  4  1  0  0  0  0
  6  5  2  0  0  0  0
  7  6  1  0  0  0  0
  7  2  2  0  0  0  0
 11  6  1  0  0  0  0
 13 12  1  0  0  0  0
 13 14  1  0  0  0  0
 14  7  1  0  0  0  0
 15 14  2  0  0  0  0
 15 16  1  0  0  0  0
 17 15  1  0  0  0  0
 18 20  1  0  0  0  0
 18 17  2  0  0  0  0
 19 18  1  0  0  0  0
 20 13  2  0  0  0  0
 21 20  1  0  0  0  0
 22 28  1  0  0  0  0
 23 30  1  0  0  0  0
 23 22  2  0  0  0  0
 24 23  1  0  0  0  0
 25 24  2  0  0  0  0
 25 26  1  0  0  0  0
 26 27  2  0  0  0  0
 27 22  1  0  0  0  0
 29 24  1  0  0  0  0
 30 31  1  0  0  0  0
 31 32  2  0  0  0  0
 31 38  1  0  0  0  0
 32 39  1  0  0  0  0
 33 34  2  0  0  0  0
 33 32  1  0  0  0  0
 35 33  1  0  0  0  0
 36 35  1  0  0  0  0
 36 30  1  0  0  0  0
 37 36  2  0  0  0  0
 40 35  1  0  0  0  0
M  END
>  <minimizedAffinity>
-5.91421366

>  <minimizedRMSD>
0.432578117

$$$$
