
 OpenBabel03272503333D

 42 45  0  0  1  0  0  0  0  0999 V2000
   35.7520   29.5080   47.7840 C   0  0  0  0  0  0  0  0  0  0  0  0
   35.6530   30.1630   46.5560 C   0  0  0  0  0  0  0  0  0  0  0  0
   34.6610   29.7280   45.6700 C   0  0  0  0  0  0  0  0  0  0  0  0
   33.8580   28.6840   46.0800 N   0  0  0  0  0  0  0  0  0  0  0  0
   33.9890   28.0870   47.2650 C   0  0  0  0  0  0  0  0  0  0  0  0
   34.9370   28.5010   48.1140 N   0  0  0  0  0  0  0  0  0  0  0  0
   36.2830   30.9800   46.2340 H   0  0  0  0  0  0  0  0  0  0  0  0
   34.5070   30.1650   44.7080 H   0  0  0  0  0  0  0  0  0  0  0  0
   36.7720   29.9610   48.6840 N   0  0  0  0  0  0  0  0  0  0  0  0
   37.9530   30.7010   48.3530 C   0  0  0  0  0  0  0  0  0  0  0  0
   38.2300   31.4660   49.6400 C   0  0  2  0  0  0  0  0  0  0  0  0
   37.0520   31.1810   50.5700 C   0  0  0  0  0  0  0  0  0  0  0  0
   36.7950   29.7480   50.1290 C   0  0  0  0  0  0  0  0  0  0  0  0
   37.7860   31.4280   47.5130 H   0  0  0  0  0  0  0  0  0  0  0  0
   38.8290   30.0440   48.1410 H   0  0  0  0  0  0  0  0  0  0  0  0
   39.1270   31.0570   50.1650 H   0  0  0  0  0  0  0  0  0  0  0  0
   36.2110   31.8170   50.2910 H   0  0  0  0  0  0  0  0  0  0  0  0
   37.3350   31.2520   51.6260 H   0  0  0  0  0  0  0  0  0  0  0  0
   35.8020   29.4290   50.4830 H   0  0  0  0  0  0  0  0  0  0  0  0
   37.6250   29.1090   50.4420 H   0  0  0  0  0  0  0  0  0  0  0  0
   38.3960   32.9410   49.3970 C   0  0  0  0  0  0  0  0  0  0  0  0
   37.2030   33.5400   49.7520 F   0  0  0  0  0  0  0  0  0  0  0  0
   38.5320   33.1120   48.0440 F   0  0  0  0  0  0  0  0  0  0  0  0
   39.4600   33.4830   50.0660 F   0  0  0  0  0  0  0  0  0  0  0  0
   32.9190   26.7430   47.7380 S   0  0  0  0  0  0  0  0  0  0  0  0
   31.4120   27.1280   48.3910 C   0  0  0  0  0  0  0  0  0  0  0  0
   30.5640   26.7510   49.3910 C   0  0  0  0  0  0  0  0  0  0  0  0
   29.3570   27.3060   49.6470 C   0  0  0  0  0  0  0  0  0  0  0  0
   29.0130   28.4020   48.7130 C   0  0  0  0  0  0  0  0  0  0  0  0
   30.4380   28.5120   47.5920 S   0  0  0  0  0  0  0  0  0  0  0  0
   30.9870   25.9410   49.9640 H   0  0  0  0  0  0  0  0  0  0  0  0
   28.6950   27.0060   50.4340 H   0  0  0  0  0  0  0  0  0  0  0  0
   26.9820   27.3950   46.7960 Cl  0  0  0  0  0  0  0  0  0  0  0  0
   26.8430   28.7970   47.8340 C   0  0  0  0  0  0  0  0  0  0  0  0
   27.8450   29.1850   48.6940 C   0  0  0  0  0  0  0  0  0  0  0  0
   27.7960   30.2750   49.5330 C   0  0  0  0  0  0  0  0  0  0  0  0
   28.6080   30.5350   50.1870 H   0  0  0  0  0  0  0  0  0  0  0  0
   26.6270   31.0460   49.5040 C   0  0  0  0  0  3  0  0  0  0  0  0
   25.5770   30.6950   48.6470 C   0  0  0  0  0  0  0  0  0  0  0  0
   24.1020   31.6380   48.5850 Cl  0  0  0  0  0  0  0  0  0  0  0  0
   25.6780   29.5750   47.8120 C   0  0  0  0  0  0  0  0  0  0  0  0
   24.8580   29.3180   47.1570 H   0  0  0  0  0  0  0  0  0  0  0  0
  1  6  1  0  0  0  0
  1  9  1  0  0  0  0
  2  1  2  0  0  0  0
  3  4  2  0  0  0  0
  3  2  1  0  0  0  0
  4  5  1  0  0  0  0
  5 25  1  0  0  0  0
  5  6  2  0  0  0  0
  7  2  1  0  0  0  0
  8  3  1  0  0  0  0
  9 13  1  0  0  0  0
 10  9  1  0  0  0  0
 10 11  1  0  0  0  0
 11 16  1  1  0  0  0
 11 12  1  0  0  0  0
 12 18  1  0  0  0  0
 13 20  1  0  0  0  0
 13 19  1  0  0  0  0
 13 12  1  0  0  0  0
 14 10  1  0  0  0  0
 15 10  1  0  0  0  0
 17 12  1  0  0  0  0
 21 11  1  0  0  0  0
 21 22  1  0  0  0  0
 21 24  1  0  0  0  0
 23 21  1  0  0  0  0
 25 26  1  0  0  0  0
 26 27  2  0  0  0  0
 27 28  1  0  0  0  0
 27 31  1  0  0  0  0
 28 32  1  0  0  0  0
 29 28  2  0  0  0  0
 30 26  1  0  0  0  0
 30 29  1  0  0  0  0
 33 34  1  0  0  0  0
 34 35  1  0  0  0  0
 35 29  1  0  0  0  0
 35 36  2  0  0  0  0
 36 37  1  0  0  0  0
 38 36  1  0  0  0  0
 39 38  2  0  0  0  0
 40 39  1  0  0  0  0
 41 34  2  0  0  0  0
 41 39  1  0  0  0  0
 42 41  1  0  0  0  0
M  END
>  <minimizedAffinity>
-6.63673258

>  <minimizedRMSD>
0.94403559

$$$$
