
 OpenBabel03272504203D

 28 29  0  0  0  0  0  0  0  0999 V2000
   37.8470   28.8080   50.1900 O   0  0  0  0  0  0  0  0  0  0  0  0
   37.0470   30.0110   50.6400 P   0  0  2  0  0  0  0  0  0  0  0  0
   37.2790   30.1540   52.3310 O   0  0  0  0  0  0  0  0  0  0  0  0
   38.1900   30.5250   52.4720 H   0  0  0  0  0  0  0  0  0  0  0  0
   35.3950   29.7770   50.3260 O   0  0  0  0  0  0  0  0  0  0  0  0
   35.2770   28.7030   49.4770 C   0  0  0  0  0  0  0  0  0  0  0  0
   34.9270   27.8170   50.0780 H   0  0  0  0  0  0  0  0  0  0  0  0
   36.2580   28.4090   49.0060 H   0  0  0  0  0  0  0  0  0  0  0  0
   34.2660   28.9050   48.4150 C   0  0  0  0  0  0  0  0  0  0  0  0
   34.3550   30.0690   47.6460 C   0  0  0  0  0  0  0  0  0  0  0  0
   33.4120   30.2910   46.6320 C   0  0  0  0  0  0  0  0  0  0  0  0
   32.4440   29.3300   46.4570 N   0  0  0  0  0  0  0  0  0  0  0  0
   32.3920   28.2260   47.2170 C   0  0  0  0  0  0  0  0  0  0  0  0
   33.2840   28.0030   48.1870 N   0  0  0  0  0  0  0  0  0  0  0  0
   35.1410   30.7690   47.8460 H   0  0  0  0  0  0  0  0  0  0  0  0
   33.4690   31.1820   46.0330 H   0  0  0  0  0  0  0  0  0  0  0  0
   31.6030   27.5090   47.0270 H   0  0  0  0  0  0  0  0  0  0  0  0
   37.6200   31.3780   49.8490 O   0  0  0  0  0  0  0  0  0  0  0  0
   39.1400   33.8440   49.5940 Cl  0  0  0  0  0  0  0  0  0  0  0  0
   38.8670   32.6010   48.3700 C   0  0  0  0  0  0  0  0  0  0  0  0
   38.1200   31.4330   48.5650 C   0  0  0  0  0  0  0  0  0  0  0  0
   37.9940   30.5520   47.5140 C   0  0  0  0  0  0  0  0  0  0  0  0
   37.4040   29.6940   47.7660 H   0  0  0  0  0  0  0  0  0  0  0  0
   38.5870   30.8160   46.3060 C   0  0  0  0  0  3  0  0  0  0  0  0
   39.3370   31.9730   46.0900 C   0  0  0  0  0  0  0  0  0  0  0  0
   40.0750   32.2690   44.5350 Cl  0  0  0  0  0  0  0  0  0  0  0  0
   39.4670   32.8610   47.1410 C   0  0  0  0  0  0  0  0  0  0  0  0
   40.0530   33.7470   46.9400 H   0  0  0  0  0  0  0  0  0  0  0  0
  2  1  2  6  0  0  0
  2  3  1  0  0  0  0
  3  4  1  0  0  0  0
  5  2  1  0  0  0  0
  6  7  1  0  0  0  0
  6  5  1  0  0  0  0
  8  6  1  0  0  0  0
  9  6  1  0  0  0  0
 10 15  1  0  0  0  0
 10  9  2  0  0  0  0
 11 10  1  0  0  0  0
 12 11  2  0  0  0  0
 12 13  1  0  0  0  0
 13 14  2  0  0  0  0
 14  9  1  0  0  0  0
 16 11  1  0  0  0  0
 17 13  1  0  0  0  0
 18  2  1  0  0  0  0
 20 21  1  0  0  0  0
 20 19  1  0  0  0  0
 21 18  1  0  0  0  0
 22 23  1  0  0  0  0
 22 21  2  0  0  0  0
 24 22  1  0  0  0  0
 25 24  2  0  0  0  0
 25 27  1  0  0  0  0
 26 25  1  0  0  0  0
 27 20  2  0  0  0  0
 28 27  1  0  0  0  0
M  END
>  <minimizedAffinity>
-5.40832472

>  <minimizedRMSD>
3.00948858

$$$$
