
 OpenBabel03272501563D

 32 34  0  0  0  0  0  0  0  0999 V2000
   32.9700   27.4550   48.0410 C   0  0  0  0  0  0  0  0  0  0  0  0
   32.4010   26.2420   47.6870 C   0  0  0  0  0  0  0  0  0  0  0  0
   31.0950   26.4110   47.2710 C   0  0  0  0  0  0  0  0  0  0  0  0
   30.9100   27.7410   47.3880 N   0  0  0  0  0  0  0  0  0  0  0  0
   31.9880   28.3630   47.8320 N   0  0  0  0  0  0  0  0  0  0  0  0
   32.8680   25.2450   47.7110 H   0  0  0  0  0  0  0  0  0  0  0  0
   30.3250   25.7690   46.9270 H   0  0  0  0  0  0  0  0  0  0  0  0
   31.1040   29.0000   44.7380 Cl  0  0  0  0  0  0  0  0  0  0  0  0
   29.8290   29.2360   45.9010 C   0  0  0  0  0  0  0  0  0  0  0  0
   29.8080   28.6050   47.1330 C   0  0  0  0  0  0  0  0  0  0  0  0
   28.7630   28.8270   48.0330 C   0  0  0  0  0  0  0  0  0  0  0  0
   28.8780   28.2700   48.9490 H   0  0  0  0  0  0  0  0  0  0  0  0
   27.7340   29.6850   47.6980 C   0  0  0  0  0  3  0  0  0  0  0  0
   27.7490   30.3210   46.4650 C   0  0  0  0  0  0  0  0  0  0  0  0
   26.4120   31.4060   46.0850 Cl  0  0  0  0  0  0  0  0  0  0  0  0
   28.7890   30.0990   45.5690 C   0  0  0  0  0  0  0  0  0  0  0  0
   28.7710   30.6130   44.6120 H   0  0  0  0  0  0  0  0  0  0  0  0
   34.3850   27.6320   48.5400 C   0  0  0  0  0  0  0  0  0  0  0  0
   34.8030   26.6390   48.8400 H   0  0  0  0  0  0  0  0  0  0  0  0
   35.0020   28.0610   47.7310 H   0  0  0  0  0  0  0  0  0  0  0  0
   34.3060   28.5340   49.7310 C   0  0  0  0  0  0  0  0  0  0  0  0
   34.0830   28.0040   50.6840 H   0  0  0  0  0  0  0  0  0  0  0  0
   33.5080   29.3180   49.6300 H   0  0  0  0  0  0  0  0  0  0  0  0
   37.2650   30.1000   51.3010 C   0  0  0  0  0  0  0  0  0  0  0  0
   38.0260   30.5190   50.1990 C   0  0  0  0  0  0  0  0  0  0  0  0
   37.4980   30.2520   48.9130 C   0  0  0  0  0  0  0  0  0  0  0  0
   36.3090   29.6170   48.8070 N   0  0  0  0  0  0  0  0  0  0  0  0
   35.6210   29.2360   49.9150 C   0  0  0  0  0  0  0  0  0  0  0  0
   36.1010   29.4790   51.1290 N   0  0  0  0  0  0  0  0  0  0  0  0
   37.7160   30.3300   52.2560 H   0  0  0  0  0  0  0  0  0  0  0  0
   38.9650   31.0220   50.1800 H   0  0  0  0  0  0  0  0  0  0  0  0
   37.9400   30.4990   47.9620 H   0  0  0  0  0  0  0  0  0  0  0  0
  1 18  1  0  0  0  0
  2  6  1  0  0  0  0
  2  1  1  0  0  0  0
  3  4  1  0  0  0  0
  3  2  2  0  0  0  0
  4  5  1  0  0  0  0
  5  1  2  0  0  0  0
  7  3  1  0  0  0  0
  8  9  1  0  0  0  0
  9 10  1  0  0  0  0
 10  4  1  0  0  0  0
 10 11  2  0  0  0  0
 11 12  1  0  0  0  0
 13 11  1  0  0  0  0
 14 13  2  0  0  0  0
 15 14  1  0  0  0  0
 16  9  2  0  0  0  0
 16 14  1  0  0  0  0
 17 16  1  0  0  0  0
 18 19  1  0  0  0  0
 18 21  1  0  0  0  0
 20 18  1  0  0  0  0
 21 28  1  0  0  0  0
 21 22  1  0  0  0  0
 23 21  1  0  0  0  0
 24 30  1  0  0  0  0
 25 24  2  0  0  0  0
 26 25  1  0  0  0  0
 27 26  2  0  0  0  0
 27 28  1  0  0  0  0
 28 29  2  0  0  0  0
 29 24  1  0  0  0  0
 31 25  1  0  0  0  0
 32 26  1  0  0  0  0
M  END
>  <minimizedAffinity>
-5.04623652

>  <minimizedRMSD>
1.45559061

$$$$
