
 OpenBabel03262523593D

 30 32  0  0  0  0  0  0  0  0999 V2000
   36.9220   32.8920   49.5660 C   0  0  0  0  0  0  0  0  0  0  0  0
   37.8150   33.2180   48.5270 C   0  0  0  0  0  0  0  0  0  0  0  0
   37.9520   32.3160   47.4870 C   0  0  0  0  0  0  0  0  0  0  0  0
   37.2160   31.1680   47.5300 N   0  0  0  0  0  0  0  0  0  0  0  0
   36.3690   30.8810   48.5360 C   0  0  0  0  0  0  0  0  0  0  0  0
   36.2110   31.7540   49.5800 N   0  0  0  0  0  0  0  0  0  0  0  0
   36.7700   33.5540   50.4070 H   0  0  0  0  0  0  0  0  0  0  0  0
   38.6340   32.5510   46.6800 H   0  0  0  0  0  0  0  0  0  0  0  0
   36.8480   29.1640   51.1080 Br  0  0  0  0  0  0  0  0  0  0  0  0
   35.6920   28.7830   49.6380 C   0  0  0  0  0  0  0  0  0  0  0  0
   35.5920   29.6530   48.5660 C   0  0  0  0  0  0  0  0  0  0  0  0
   34.7340   29.3010   47.5450 C   0  0  0  0  0  0  0  0  0  0  0  0
   33.9820   28.1400   47.5450 C   0  0  0  0  0  0  0  0  0  0  0  0
   34.1150   27.2950   48.6450 C   0  0  0  0  0  0  0  0  0  0  0  0
   34.9740   27.6320   49.6840 C   0  0  0  0  0  0  0  0  0  0  0  0
   34.6890   30.0080   46.7330 H   0  0  0  0  0  0  0  0  0  0  0  0
   33.3380   27.9610   46.6900 H   0  0  0  0  0  0  0  0  0  0  0  0
   33.5270   26.3880   48.6450 H   0  0  0  0  0  0  0  0  0  0  0  0
   35.0540   26.9500   50.5250 H   0  0  0  0  0  0  0  0  0  0  0  0
   38.4950   34.4120   48.6130 O   0  0  0  0  0  0  0  0  0  0  0  0
   40.8210   34.4880   46.8250 Cl  0  0  0  0  0  0  0  0  0  0  0  0
   40.8030   34.4840   48.5750 C   0  0  0  0  0  0  0  0  0  0  0  0
   39.6620   34.4460   49.3650 C   0  0  0  0  0  0  0  0  0  0  0  0
   39.7720   34.4460   50.7410 C   0  0  0  0  0  0  0  0  0  0  0  0
   38.8350   34.4160   51.2730 H   0  0  0  0  0  0  0  0  0  0  0  0
   41.0340   34.4830   51.3110 C   0  0  0  0  0  3  0  0  0  0  0  0
   42.1820   34.5210   50.5510 C   0  0  0  0  0  0  0  0  0  0  0  0
   43.7370   34.5670   51.3040 Cl  0  0  0  0  0  0  0  0  0  0  0  0
   42.0500   34.5200   49.1700 C   0  0  0  0  0  0  0  0  0  0  0  0
   42.9830   34.5510   48.6040 H   0  0  0  0  0  0  0  0  0  0  0  0
  1  6  1  0  0  0  0
  1  7  1  0  0  0  0
  2 20  1  0  0  0  0
  2  1  2  0  0  0  0
  3  4  2  0  0  0  0
  3  2  1  0  0  0  0
  4  5  1  0  0  0  0
  5 11  1  0  0  0  0
  5  6  2  0  0  0  0
  8  3  1  0  0  0  0
 10 15  1  0  0  0  0
 10  9  1  0  0  0  0
 11 10  2  0  0  0  0
 12 11  1  0  0  0  0
 13 12  2  0  0  0  0
 13 14  1  0  0  0  0
 14 18  1  0  0  0  0
 14 15  2  0  0  0  0
 15 19  1  0  0  0  0
 16 12  1  0  0  0  0
 17 13  1  0  0  0  0
 20 23  1  0  0  0  0
 21 22  1  0  0  0  0
 22 29  2  0  0  0  0
 22 23  1  0  0  0  0
 23 24  2  0  0  0  0
 24 25  1  0  0  0  0
 24 26  1  0  0  0  0
 27 28  1  0  0  0  0
 27 26  2  0  0  0  0
 29 27  1  0  0  0  0
 30 29  1  0  0  0  0
M  END
>  <minimizedAffinity>
6.1809721

>  <minimizedRMSD>
1.09823799

$$$$
