
 OpenBabel03272500083D

 40 43  0  0  0  0  0  0  0  0999 V2000
   31.8590   27.2490   47.5520 O   0  0  0  0  0  0  0  0  0  0  0  0
   30.6170   27.6410   48.0540 C   0  0  0  0  0  0  0  0  0  0  0  0
   30.5290   27.6410   49.4290 C   0  0  0  0  0  0  0  0  0  0  0  0
   29.3580   28.0080   50.0540 C   0  0  0  0  0  0  0  0  0  0  0  0
   28.2570   28.3790   49.2650 C   0  0  0  0  0  0  0  0  0  0  0  0
   28.3600   28.3730   47.8940 C   0  0  0  0  0  0  0  0  0  0  0  0
   29.5300   28.0070   47.3010 C   0  0  0  0  0  0  0  0  0  0  0  0
   31.3530   27.3620   50.0690 H   0  0  0  0  0  0  0  0  0  0  0  0
   29.3050   28.0030   51.1490 H   0  0  0  0  0  0  0  0  0  0  0  0
   27.3580   28.6590   49.7840 H   0  0  0  0  0  0  0  0  0  0  0  0
   27.4820   28.6680   47.3510 H   0  0  0  0  0  0  0  0  0  0  0  0
   28.5320   25.4370   46.3030 Cl  0  0  0  0  0  0  0  0  0  0  0  0
   29.1680   26.7750   45.3560 C   0  0  0  0  0  0  0  0  0  0  0  0
   29.6430   27.9940   45.8480 C   0  0  0  0  0  0  0  0  0  0  0  0
   30.1060   28.9320   44.9500 C   0  0  0  0  0  0  0  0  0  0  0  0
   30.4380   29.8200   45.4630 H   0  0  0  0  0  0  0  0  0  0  0  0
   30.0930   28.6510   43.6000 C   0  0  0  0  0  3  0  0  0  0  0  0
   29.6310   27.4610   43.1010 C   0  0  0  0  0  0  0  0  0  0  0  0
   29.6830   27.2630   41.3590 Cl  0  0  0  0  0  0  0  0  0  0  0  0
   29.1650   26.5160   43.9830 C   0  0  0  0  0  0  0  0  0  0  0  0
   28.8160   25.5980   43.5300 H   0  0  0  0  0  0  0  0  0  0  0  0
   34.9220   28.6880   48.7680 C   0  0  0  0  0  0  0  0  0  0  0  0
   34.9680   29.9260   48.1220 C   0  0  0  0  0  0  0  0  0  0  0  0
   33.9190   30.2440   47.2640 C   0  0  0  0  0  0  0  0  0  0  0  0
   32.9150   29.3360   47.1040 N   0  0  0  0  0  0  0  0  0  0  0  0
   32.8960   28.1620   47.7320 C   0  0  0  0  0  0  0  0  0  0  0  0
   33.9100   27.8230   48.5800 N   0  0  0  0  0  0  0  0  0  0  0  0
   35.7060   28.3750   49.4520 H   0  0  0  0  0  0  0  0  0  0  0  0
   33.9610   31.1940   46.7740 H   0  0  0  0  0  0  0  0  0  0  0  0
   36.0730   30.7820   48.3740 N   0  0  0  0  0  0  0  0  0  0  0  0
   36.2850   31.3420   49.5610 C   0  0  0  0  0  0  0  0  0  0  0  0
   37.3900   32.1680   49.7300 C   0  0  0  0  0  0  0  0  0  0  0  0
   38.1830   32.3400   48.6420 C   0  0  0  0  0  0  0  0  0  0  0  0
   39.1900   33.0940   48.7970 O   0  0  0  0  0  0  0  0  0  0  0  0
   38.0030   31.7980   47.4410 N   0  0  0  0  0  0  0  0  0  0  0  0
   36.9140   30.9940   47.3050 C   0  0  0  0  0  0  0  0  0  0  0  0
   36.7280   30.4680   46.1640 O   0  0  0  0  0  0  0  0  0  0  0  0
   35.6170   31.1670   50.3930 H   0  0  0  0  0  0  0  0  0  0  0  0
   37.6050   32.6490   50.6840 H   0  0  0  0  0  0  0  0  0  0  0  0
   38.6450   31.9630   46.6330 H   0  0  0  0  0  0  0  0  0  0  0  0
  1 26  1  0  0  0  0
  1  2  1  0  0  0  0
  2  3  1  0  0  0  0
  3  4  2  0  0  0  0
  3  8  1  0  0  0  0
  4  9  1  0  0  0  0
  5 10  1  0  0  0  0
  5  4  1  0  0  0  0
  6  5  2  0  0  0  0
  7  6  1  0  0  0  0
  7  2  2  0  0  0  0
 11  6  1  0  0  0  0
 13 14  1  0  0  0  0
 13 12  1  0  0  0  0
 14  7  1  0  0  0  0
 15 16  1  0  0  0  0
 15 14  2  0  0  0  0
 17 15  1  0  0  0  0
 18 17  2  0  0  0  0
 18 20  1  0  0  0  0
 19 18  1  0  0  0  0
 20 13  2  0  0  0  0
 21 20  1  0  0  0  0
 22 28  1  0  0  0  0
 23 30  1  0  0  0  0
 23 22  2  0  0  0  0
 24 23  1  0  0  0  0
 25 24  2  0  0  0  0
 25 26  1  0  0  0  0
 26 27  2  0  0  0  0
 27 22  1  0  0  0  0
 29 24  1  0  0  0  0
 30 31  1  0  0  0  0
 31 32  2  0  0  0  0
 31 38  1  0  0  0  0
 32 39  1  0  0  0  0
 33 34  2  0  0  0  0
 33 32  1  0  0  0  0
 35 33  1  0  0  0  0
 36 35  1  0  0  0  0
 36 30  1  0  0  0  0
 37 36  2  0  0  0  0
 40 35  1  0  0  0  0
M  END
>  <minimizedAffinity>
-5.90616131

>  <minimizedRMSD>
1.01422954

$$$$
