
 OpenBabel03272508023D

 29 31  0  0  0  0  0  0  0  0999 V2000
   37.8070   30.9770   45.2760 C   0  0  0  0  0  0  0  0  0  0  0  0
   38.2650   32.1540   44.7470 C   0  0  0  0  0  0  0  0  0  0  0  0
   39.0320   31.8900   43.6110 C   0  0  0  0  0  0  0  0  0  0  0  0
   39.0030   30.5200   43.5020 N   0  0  0  0  0  0  0  0  0  0  0  0
   38.2910   30.0090   44.4720 N   0  0  0  0  0  0  0  0  0  0  0  0
   38.0290   33.1120   45.1930 H   0  0  0  0  0  0  0  0  0  0  0  0
   39.4920   32.6830   43.0380 H   0  0  0  0  0  0  0  0  0  0  0  0
   37.3020   29.8420   41.1280 Cl  0  0  0  0  0  0  0  0  0  0  0  0
   39.0180   29.5580   41.2810 C   0  0  0  0  0  0  0  0  0  0  0  0
   39.7030   29.9110   42.4250 C   0  0  0  0  0  0  0  0  0  0  0  0
   41.0610   29.6630   42.4940 C   0  0  0  0  0  0  0  0  0  0  0  0
   41.5290   29.9670   43.4180 H   0  0  0  0  0  0  0  0  0  0  0  0
   41.7990   29.0690   41.4700 C   0  0  0  0  0  3  0  0  0  0  0  0
   41.1060   28.7240   40.3440 C   0  0  0  0  0  0  0  0  0  0  0  0
   41.9890   27.9780   39.0370 Cl  0  0  0  0  0  0  0  0  0  0  0  0
   39.7500   28.9620   40.2510 C   0  0  0  0  0  0  0  0  0  0  0  0
   39.2760   28.6640   39.3380 H   0  0  0  0  0  0  0  0  0  0  0  0
   36.9690   30.7970   46.4630 C   0  0  0  0  0  0  0  0  0  0  0  0
   37.4780   31.2490   47.7090 C   0  0  0  0  0  0  0  0  0  0  0  0
   36.6960   31.0840   48.8480 C   0  0  0  0  0  0  0  0  0  0  0  0
   35.4860   30.5000   48.6940 N   0  0  0  0  0  0  0  0  0  0  0  0
   35.0120   30.0740   47.5010 C   0  0  0  0  0  0  0  0  0  0  0  0
   35.7720   30.2330   46.4020 N   0  0  0  0  0  0  0  0  0  0  0  0
   38.4640   31.7050   47.7190 H   0  0  0  0  0  0  0  0  0  0  0  0
   34.0340   29.6160   47.4670 H   0  0  0  0  0  0  0  0  0  0  0  0
   37.2240   31.5560   50.1570 C   0  0  0  0  0  0  0  0  0  0  0  0
   36.6230   32.7850   50.3840 F   0  0  0  0  0  0  0  0  0  0  0  0
   36.8900   30.7020   51.1940 F   0  0  0  0  0  0  0  0  0  0  0  0
   38.5960   31.7580   50.1280 F   0  0  0  0  0  0  0  0  0  0  0  0
  1 18  1  0  0  0  0
  2  6  1  0  0  0  0
  2  1  1  0  0  0  0
  3  2  2  0  0  0  0
  4  3  1  0  0  0  0
  4  5  1  0  0  0  0
  5  1  2  0  0  0  0
  7  3  1  0  0  0  0
  8  9  1  0  0  0  0
  9 10  1  0  0  0  0
 10 11  2  0  0  0  0
 10  4  1  0  0  0  0
 11 12  1  0  0  0  0
 13 11  1  0  0  0  0
 14 13  2  0  0  0  0
 15 14  1  0  0  0  0
 16 14  1  0  0  0  0
 16  9  2  0  0  0  0
 17 16  1  0  0  0  0
 18 19  1  0  0  0  0
 19 24  1  0  0  0  0
 19 20  2  0  0  0  0
 20 26  1  0  0  0  0
 21 20  1  0  0  0  0
 22 21  2  0  0  0  0
 23 18  2  0  0  0  0
 23 22  1  0  0  0  0
 25 22  1  0  0  0  0
 26 27  1  0  0  0  0
 26 28  1  0  0  0  0
 29 26  1  0  0  0  0
M  END
>  <minimizedAffinity>
-5.84906387

>  <minimizedRMSD>
2.00298548

$$$$
