
 OpenBabel03262522153D

 46 49  0  0  1  0  0  0  0  0999 V2000
   39.6890   32.8480   43.8240 C   0  0  0  0  0  0  0  0  0  0  0  0
   39.8300   33.7340   43.1510 H   0  0  0  0  0  0  0  0  0  0  0  0
   38.6210   32.7580   44.0450 H   0  0  0  0  0  0  0  0  0  0  0  0
   38.8700   29.7930   42.2250 C   0  0  1  0  0  0  0  0  0  0  0  0
   39.0610   31.2850   41.9890 C   0  0  0  0  0  0  0  0  0  0  0  0
   40.0820   31.6040   43.0570 C   0  0  2  0  0  0  0  0  0  0  0  0
   40.2290   30.5190   43.8640 O   0  0  0  0  0  0  0  0  0  0  0  0
   39.1030   29.7180   43.7260 C   0  0  0  0  0  0  0  0  0  0  0  0
   39.6390   29.2330   41.6680 H   0  0  0  0  0  0  0  0  0  0  0  0
   39.5190   31.4600   40.9880 H   0  0  0  0  0  0  0  0  0  0  0  0
   38.1300   31.8490   42.1620 H   0  0  0  0  0  0  0  0  0  0  0  0
   41.0700   31.8200   42.5850 H   0  0  0  0  0  0  0  0  0  0  0  0
   38.2080   30.1990   44.1870 H   0  0  0  0  0  0  0  0  0  0  0  0
   39.2760   28.6920   44.0700 H   0  0  0  0  0  0  0  0  0  0  0  0
   37.5910   29.3940   41.8910 O   0  0  0  0  0  0  0  0  0  0  0  0
   36.6470   26.8450   42.9520 Cl  0  0  0  0  0  0  0  0  0  0  0  0
   35.8660   28.3960   43.1600 C   0  0  0  0  0  0  0  0  0  0  0  0
   36.4350   29.5160   42.5970 C   0  0  0  0  0  0  0  0  0  0  0  0
   35.7590   30.6890   42.8080 C   0  0  0  0  0  0  0  0  0  0  0  0
   36.1460   31.6030   42.3970 H   0  0  0  0  0  0  0  0  0  0  0  0
   34.6020   30.7640   43.5230 C   0  0  0  0  0  3  0  0  0  0  0  0
   34.0680   29.6140   44.0700 C   0  0  0  0  0  0  0  0  0  0  0  0
   32.5830   29.6720   44.9950 Cl  0  0  0  0  0  0  0  0  0  0  0  0
   34.7100   28.4090   43.8860 C   0  0  0  0  0  0  0  0  0  0  0  0
   34.2930   27.4980   44.3150 H   0  0  0  0  0  0  0  0  0  0  0  0
   40.7540   32.9540   45.2830 S   0  0  0  0  0  0  0  0  0  0  0  0
   37.8030   31.7490   47.6660 C   0  0  0  0  0  0  0  0  0  0  0  0
   37.9390   32.5690   48.7960 C   0  0  0  0  0  0  0  0  0  0  0  0
   38.9320   33.5220   48.8840 C   0  0  0  0  0  0  0  0  0  0  0  0
   39.7770   33.6190   47.7990 C   0  0  0  0  0  0  0  0  0  0  0  0
   39.6300   32.8180   46.7130 C   0  0  0  0  0  0  0  0  0  0  0  0
   38.6580   31.8800   46.6220 N   0  0  0  0  0  0  0  0  0  0  0  0
   37.2650   32.4770   49.6390 H   0  0  0  0  0  0  0  0  0  0  0  0
   39.0260   34.1490   49.7650 H   0  0  0  0  0  0  0  0  0  0  0  0
   40.5810   34.3450   47.7990 H   0  0  0  0  0  0  0  0  0  0  0  0
   36.7460   30.7870   47.6580 C   0  0  0  0  0  0  0  0  0  0  0  0
   36.2660   30.3730   46.6050 O   0  0  0  0  0  0  0  0  0  0  0  0
   37.0490   29.6320   49.8180 C   0  0  0  0  0  0  0  0  0  0  0  0
   36.1700   30.2400   48.8930 C   0  0  0  0  0  0  0  0  0  0  0  0
   34.8020   30.2940   49.1860 C   0  0  0  0  0  0  0  0  0  0  0  0
   34.3730   29.7520   50.3690 N   0  0  0  0  0  0  0  0  0  0  0  0
   35.2310   29.1790   51.2310 C   0  0  0  0  0  0  0  0  0  0  0  0
   36.5310   29.1230   50.9600 N   0  0  0  0  0  0  0  0  0  0  0  0
   38.1010   29.6070   49.5590 H   0  0  0  0  0  0  0  0  0  0  0  0
   34.1510   30.7540   48.4840 H   0  0  0  0  0  0  0  0  0  0  0  0
   34.9230   28.7430   52.1730 H   0  0  0  0  0  0  0  0  0  0  0  0
  1  3  1  0  0  0  0
  1 26  1  0  0  0  0
  2  1  1  0  0  0  0
  4  9  1  6  0  0  0
  4  8  1  0  0  0  0
  5 11  1  0  0  0  0
  5  4  1  0  0  0  0
  5  6  1  0  0  0  0
  6 12  1  6  0  0  0
  6  1  1  0  0  0  0
  6  7  1  0  0  0  0
  8  7  1  0  0  0  0
  8 14  1  0  0  0  0
  8 13  1  0  0  0  0
 10  5  1  0  0  0  0
 15  4  1  0  0  0  0
 15 18  1  0  0  0  0
 16 17  1  0  0  0  0
 17 24  1  0  0  0  0
 18 19  1  0  0  0  0
 18 17  2  0  0  0  0
 19 21  2  0  0  0  0
 20 19  1  0  0  0  0
 21 22  1  0  0  0  0
 22 23  1  0  0  0  0
 24 22  2  0  0  0  0
 24 25  1  0  0  0  0
 26 31  1  0  0  0  0
 27 28  1  0  0  0  0
 28 29  2  0  0  0  0
 28 33  1  0  0  0  0
 29 34  1  0  0  0  0
 30 35  1  0  0  0  0
 30 29  1  0  0  0  0
 31 30  2  0  0  0  0
 32 31  1  0  0  0  0
 32 27  2  0  0  0  0
 36 27  1  0  0  0  0
 36 39  1  0  0  0  0
 37 36  2  0  0  0  0
 38 43  1  0  0  0  0
 39 40  1  0  0  0  0
 39 38  2  0  0  0  0
 40 41  2  0  0  0  0
 41 42  1  0  0  0  0
 42 46  1  0  0  0  0
 43 42  2  0  0  0  0
 44 38  1  0  0  0  0
 45 40  1  0  0  0  0
M  END
>  <minimizedAffinity>
-5.46300745

>  <minimizedRMSD>
2.66651392

$$$$
