
 OpenBabel03272501293D

 21 22  0  0  0  0  0  0  0  0999 V2000
   37.9690   31.5500   47.4980 C   0  0  0  0  0  0  0  0  0  0  0  0
   38.4150   32.7170   47.5220 O   0  0  0  0  0  0  0  0  0  0  0  0
   40.5210   30.9840   46.0020 Cl  0  0  0  0  0  0  0  0  0  0  0  0
   38.8990   30.6140   45.4320 C   0  0  0  0  0  0  0  0  0  0  0  0
   37.7900   30.9150   46.1970 C   0  0  0  0  0  0  0  0  0  0  0  0
   36.5750   30.5750   45.6390 C   0  0  0  0  0  0  0  0  0  0  0  0
   35.6860   30.7950   46.2090 H   0  0  0  0  0  0  0  0  0  0  0  0
   36.4690   29.9760   44.4020 C   0  0  0  0  0  3  0  0  0  0  0  0
   37.5980   29.6880   43.6620 C   0  0  0  0  0  0  0  0  0  0  0  0
   37.3850   28.9250   42.0990 Cl  0  0  0  0  0  0  0  0  0  0  0  0
   38.8370   30.0090   44.1770 C   0  0  0  0  0  0  0  0  0  0  0  0
   39.7230   29.7850   43.5990 H   0  0  0  0  0  0  0  0  0  0  0  0
   37.7860   30.4140   51.0590 C   0  0  0  0  0  0  0  0  0  0  0  0
   38.1540   31.1620   49.9390 C   0  0  0  0  0  0  0  0  0  0  0  0
   37.6310   30.8180   48.6980 C   0  0  0  0  0  0  0  0  0  0  0  0
   36.7850   29.7650   48.6450 N   0  0  0  0  0  0  0  0  0  0  0  0
   36.4460   29.0580   49.7510 C   0  0  0  0  0  0  0  0  0  0  0  0
   36.9400   29.3750   50.9500 N   0  0  0  0  0  0  0  0  0  0  0  0
   38.2530   30.7710   51.9740 H   0  0  0  0  0  0  0  0  0  0  0  0
   38.8350   32.0080   49.9920 H   0  0  0  0  0  0  0  0  0  0  0  0
   35.7530   28.2060   49.6600 H   0  0  0  0  0  0  0  0  0  0  0  0
  1  2  2  0  0  0  0
  1 15  1  0  0  0  0
  4  3  1  0  0  0  0
  4  5  1  0  0  0  0
  5  1  1  0  0  0  0
  6  5  2  0  0  0  0
  6  7  1  0  0  0  0
  8  6  1  0  0  0  0
  9 11  1  0  0  0  0
  9  8  2  0  0  0  0
 10  9  1  0  0  0  0
 11  4  2  0  0  0  0
 12 11  1  0  0  0  0
 13 19  1  0  0  0  0
 14 20  1  0  0  0  0
 14 13  2  0  0  0  0
 15 14  1  0  0  0  0
 16 15  2  0  0  0  0
 16 17  1  0  0  0  0
 17 18  2  0  0  0  0
 18 13  1  0  0  0  0
 21 17  1  0  0  0  0
M  END
>  <minimizedAffinity>
-4.81511402

>  <minimizedRMSD>
0.731076419

$$$$
