
 OpenBabel03272510303D

 29 31  0  0  0  0  0  0  0  0999 V2000
   37.3630   31.3730   49.2330 C   0  0  0  0  0  0  0  0  0  0  0  0
   37.7000   32.6780   49.6000 C   0  0  0  0  0  0  0  0  0  0  0  0
   38.5730   33.3290   48.7580 C   0  0  0  0  0  0  0  0  0  0  0  0
   39.0530   32.6890   47.6390 N   0  0  0  0  0  0  0  0  0  0  0  0
   38.6940   31.4140   47.3260 C   0  0  0  0  0  0  0  0  0  0  0  0
   37.8280   30.7390   48.1420 N   0  0  0  0  0  0  0  0  0  0  0  0
   37.2810   33.1170   50.4970 H   0  0  0  0  0  0  0  0  0  0  0  0
   38.8770   34.3440   48.9820 H   0  0  0  0  0  0  0  0  0  0  0  0
   36.3830   30.6380   50.1130 C   0  0  0  0  0  0  0  0  0  0  0  0
   36.2540   29.2040   50.1190 C   0  0  0  0  0  0  0  0  0  0  0  0
   37.0710   29.8390   51.2300 C   0  0  0  0  0  0  0  0  0  0  0  0
   35.5240   31.2760   50.4520 H   0  0  0  0  0  0  0  0  0  0  0  0
   35.2900   28.7400   50.3600 H   0  0  0  0  0  0  0  0  0  0  0  0
   36.8360   28.6460   49.3320 H   0  0  0  0  0  0  0  0  0  0  0  0
   36.5640   29.9160   52.1980 H   0  0  0  0  0  0  0  0  0  0  0  0
   38.1690   29.7530   51.2320 H   0  0  0  0  0  0  0  0  0  0  0  0
   39.1840   30.7280   46.1330 C   0  0  0  0  0  0  0  0  0  0  0  0
   38.5920   29.7820   45.9650 H   0  0  0  0  0  0  0  0  0  0  0  0
   40.2500   30.4520   46.2090 H   0  0  0  0  0  0  0  0  0  0  0  0
   36.3760   30.4670   44.9430 Cl  0  0  0  0  0  0  0  0  0  0  0  0
   37.6960   31.4480   44.3410 C   0  0  0  0  0  0  0  0  0  0  0  0
   38.9550   31.5520   44.8930 C   0  0  0  0  0  0  0  0  0  0  0  0
   39.8840   32.3740   44.2930 C   0  0  0  0  0  0  0  0  0  0  0  0
   40.8590   32.4170   44.7700 H   0  0  0  0  0  0  0  0  0  0  0  0
   39.5800   33.0840   43.1640 C   0  0  0  0  0  3  0  0  0  0  0  0
   38.3080   32.9880   42.5960 C   0  0  0  0  0  0  0  0  0  0  0  0
   37.9670   33.9170   41.1520 Cl  0  0  0  0  0  0  0  0  0  0  0  0
   37.3630   32.1660   43.1890 C   0  0  0  0  0  0  0  0  0  0  0  0
   36.4030   32.1420   42.6940 H   0  0  0  0  0  0  0  0  0  0  0  0
  1  2  1  0  0  0  0
  1  9  1  0  0  0  0
  2  7  1  0  0  0  0
  3  8  1  0  0  0  0
  3  2  2  0  0  0  0
  4  3  1  0  0  0  0
  5  4  2  0  0  0  0
  5  6  1  0  0  0  0
  6  1  2  0  0  0  0
  9 10  1  0  0  0  0
  9 12  1  0  0  0  0
  9 11  1  0  0  0  0
 10 13  1  0  0  0  0
 10 11  1  0  0  0  0
 11 16  1  0  0  0  0
 11 15  1  0  0  0  0
 14 10  1  0  0  0  0
 17 19  1  0  0  0  0
 17  5  1  0  0  0  0
 18 17  1  0  0  0  0
 21 22  1  0  0  0  0
 21 20  1  0  0  0  0
 22 17  1  0  0  0  0
 23 24  1  0  0  0  0
 23 22  2  0  0  0  0
 25 23  1  0  0  0  0
 26 25  2  0  0  0  0
 26 28  1  0  0  0  0
 27 26  1  0  0  0  0
 28 21  2  0  0  0  0
 29 28  1  0  0  0  0
M  END
>  <minimizedAffinity>
-5.6814332

>  <minimizedRMSD>
1.44148004

$$$$
