
 OpenBabel03272500453D

 26 28  0  0  0  0  0  0  0  0999 V2000
   36.2380   28.0290   32.9850 C   0  0  0  0  0  0  0  0  0  0  0  0
   36.0180   29.0180   32.0260 C   0  0  0  0  0  0  0  0  0  0  0  0
   35.5870   30.1710   32.6570 C   0  0  0  0  0  0  0  0  0  0  0  0
   35.5510   29.8640   33.9870 N   0  0  0  0  0  0  0  0  0  0  0  0
   35.9350   28.6060   34.1510 N   0  0  0  0  0  0  0  0  0  0  0  0
   36.1620   28.9100   30.9470 H   0  0  0  0  0  0  0  0  0  0  0  0
   35.3430   31.0960   32.1480 H   0  0  0  0  0  0  0  0  0  0  0  0
   32.7200   29.5550   34.8200 Cl  0  0  0  0  0  0  0  0  0  0  0  0
   33.8390   30.7830   35.3870 C   0  0  0  0  0  0  0  0  0  0  0  0
   35.1430   30.8420   34.9360 C   0  0  0  0  0  0  0  0  0  0  0  0
   36.0290   31.8230   35.3930 C   0  0  0  0  0  0  0  0  0  0  0  0
   37.0560   31.8230   34.9990 H   0  0  0  0  0  0  0  0  0  0  0  0
   35.6030   32.7730   36.3260 C   0  0  0  0  0  3  0  0  0  0  0  0
   34.2780   32.6910   36.7670 C   0  0  0  0  0  0  0  0  0  0  0  0
   33.7470   33.8940   37.9450 Cl  0  0  0  0  0  0  0  0  0  0  0  0
   33.4060   31.7150   36.3090 C   0  0  0  0  0  0  0  0  0  0  0  0
   32.3960   31.7140   36.6940 H   0  0  0  0  0  0  0  0  0  0  0  0
   36.4420   26.0670   31.4530 C   0  0  0  0  0  0  0  0  0  0  0  0
   36.6950   26.7010   32.6660 C   0  0  0  0  0  0  0  0  0  0  0  0
   37.4350   25.9950   33.6160 C   0  0  0  0  0  0  0  0  0  0  0  0
   37.8610   24.7350   33.2960 N   0  0  0  0  0  0  0  0  0  0  0  0
   37.5880   24.1670   32.1050 C   0  0  0  0  0  0  0  0  0  0  0  0
   36.8710   24.8320   31.1660 N   0  0  0  0  0  0  0  0  0  0  0  0
   35.8600   26.6080   30.6900 H   0  0  0  0  0  0  0  0  0  0  0  0
   37.6830   26.4010   34.5880 H   0  0  0  0  0  0  0  0  0  0  0  0
   37.9910   23.1680   32.0010 H   0  0  0  0  0  0  0  0  0  0  0  0
  1  5  2  0  0  0  0
  2  3  2  0  0  0  0
  2  1  1  0  0  0  0
  3  4  1  0  0  0  0
  4  5  1  0  0  0  0
  4 10  1  0  0  0  0
  6  2  1  0  0  0  0
  7  3  1  0  0  0  0
  8  9  1  0  0  0  0
  9 16  1  0  0  0  0
 10  9  2  0  0  0  0
 10 11  1  0  0  0  0
 11 13  2  0  0  0  0
 12 11  1  0  0  0  0
 13 14  1  0  0  0  0
 14 15  1  0  0  0  0
 16 17  1  0  0  0  0
 16 14  2  0  0  0  0
 18 19  1  0  0  0  0
 19  1  1  0  0  0  0
 19 20  2  0  0  0  0
 20 25  1  0  0  0  0
 21 20  1  0  0  0  0
 22 21  2  0  0  0  0
 23 18  2  0  0  0  0
 23 22  1  0  0  0  0
 24 18  1  0  0  0  0
 26 22  1  0  0  0  0
M  END
>  <minimizedAffinity>
-4.70587969

$$$$

 OpenBabel03272500453D

 26 28  0  0  0  0  0  0  0  0999 V2000
   38.2110   24.7480   34.5990 C   0  0  0  0  0  0  0  0  0  0  0  0
   37.8190   23.9610   33.5160 C   0  0  0  0  0  0  0  0  0  0  0  0
   37.5880   24.7770   32.4240 C   0  0  0  0  0  0  0  0  0  0  0  0
   37.8410   26.0460   32.8610 N   0  0  0  0  0  0  0  0  0  0  0  0
   38.2040   26.0010   34.1350 N   0  0  0  0  0  0  0  0  0  0  0  0
   37.7100   22.8720   33.5200 H   0  0  0  0  0  0  0  0  0  0  0  0
   37.2710   24.4260   31.4490 H   0  0  0  0  0  0  0  0  0  0  0  0
   36.1230   28.1980   33.9640 Cl  0  0  0  0  0  0  0  0  0  0  0  0
   36.9150   28.2050   32.3980 C   0  0  0  0  0  0  0  0  0  0  0  0
   37.6980   27.1490   31.9740 C   0  0  0  0  0  0  0  0  0  0  0  0
   38.3270   27.1620   30.7240 C   0  0  0  0  0  0  0  0  0  0  0  0
   38.9390   26.2940   30.4390 H   0  0  0  0  0  0  0  0  0  0  0  0
   38.1700   28.2600   29.8720 C   0  0  0  0  0  3  0  0  0  0  0  0
   37.3720   29.3160   30.3250 C   0  0  0  0  0  0  0  0  0  0  0  0
   37.1780   30.6970   29.2430 Cl  0  0  0  0  0  0  0  0  0  0  0  0
   36.7530   29.2940   31.5650 C   0  0  0  0  0  0  0  0  0  0  0  0
   36.1500   30.1470   31.8470 H   0  0  0  0  0  0  0  0  0  0  0  0
   39.6350   23.4020   36.1480 C   0  0  0  0  0  0  0  0  0  0  0  0
   38.5310   24.2110   35.8960 C   0  0  0  0  0  0  0  0  0  0  0  0
   37.6950   24.5080   36.9750 C   0  0  0  0  0  0  0  0  0  0  0  0
   38.0130   23.9900   38.2000 N   0  0  0  0  0  0  0  0  0  0  0  0
   39.0970   23.2110   38.3890 C   0  0  0  0  0  0  0  0  0  0  0  0
   39.9230   22.9070   37.3580 N   0  0  0  0  0  0  0  0  0  0  0  0
   40.3070   23.1560   35.3100 H   0  0  0  0  0  0  0  0  0  0  0  0
   36.8120   25.1280   36.8810 H   0  0  0  0  0  0  0  0  0  0  0  0
   39.2150   22.8770   39.4110 H   0  0  0  0  0  0  0  0  0  0  0  0
  1 19  1  0  0  0  0
  2  6  1  0  0  0  0
  2  1  1  0  0  0  0
  3  4  1  0  0  0  0
  3  2  2  0  0  0  0
  4  5  1  0  0  0  0
  5  1  2  0  0  0  0
  7  3  1  0  0  0  0
  9  8  1  0  0  0  0
 10  9  1  0  0  0  0
 10  4  1  0  0  0  0
 11 10  2  0  0  0  0
 12 11  1  0  0  0  0
 13 14  2  0  0  0  0
 13 11  1  0  0  0  0
 14 16  1  0  0  0  0
 15 14  1  0  0  0  0
 16 17  1  0  0  0  0
 16  9  2  0  0  0  0
 18 23  1  0  0  0  0
 19 18  2  0  0  0  0
 19 20  1  0  0  0  0
 20 21  2  0  0  0  0
 21 22  1  0  0  0  0
 22 26  1  0  0  0  0
 23 22  2  0  0  0  0
 24 18  1  0  0  0  0
 25 20  1  0  0  0  0
M  END
>  <minimizedAffinity>
-4.7025094

$$$$

 OpenBabel03272500453D

 26 28  0  0  0  0  0  0  0  0999 V2000
   35.5740   29.6020   33.8260 C   0  0  0  0  0  0  0  0  0  0  0  0
   35.8770   30.0560   32.5420 C   0  0  0  0  0  0  0  0  0  0  0  0
   36.3060   28.9880   31.7740 C   0  0  0  0  0  0  0  0  0  0  0  0
   36.2570   27.9040   32.6040 N   0  0  0  0  0  0  0  0  0  0  0  0
   35.8260   28.2900   33.7960 N   0  0  0  0  0  0  0  0  0  0  0  0
   35.7930   31.0880   32.1890 H   0  0  0  0  0  0  0  0  0  0  0  0
   36.6060   29.0580   30.7360 H   0  0  0  0  0  0  0  0  0  0  0  0
   39.0550   27.1990   33.2950 Cl  0  0  0  0  0  0  0  0  0  0  0  0
   37.9260   26.1990   32.3970 C   0  0  0  0  0  0  0  0  0  0  0  0
   36.6390   26.6200   32.1250 C   0  0  0  0  0  0  0  0  0  0  0  0
   35.7450   25.8170   31.4080 C   0  0  0  0  0  0  0  0  0  0  0  0
   34.7320   26.2040   31.2210 H   0  0  0  0  0  0  0  0  0  0  0  0
   36.1450   24.5590   30.9490 C   0  0  0  0  0  3  0  0  0  0  0  0
   37.4540   24.1560   31.2380 C   0  0  0  0  0  0  0  0  0  0  0  0
   37.9520   22.5670   30.6550 Cl  0  0  0  0  0  0  0  0  0  0  0  0
   38.3330   24.9580   31.9490 C   0  0  0  0  0  0  0  0  0  0  0  0
   39.3290   24.5810   32.1340 H   0  0  0  0  0  0  0  0  0  0  0  0
   35.9180   31.3030   35.6220 C   0  0  0  0  0  0  0  0  0  0  0  0
   35.0970   30.4600   34.8790 C   0  0  0  0  0  0  0  0  0  0  0  0
   33.7340   30.4590   35.1860 C   0  0  0  0  0  0  0  0  0  0  0  0
   33.2980   31.2800   36.1890 N   0  0  0  0  0  0  0  0  0  0  0  0
   34.1370   32.0780   36.8780 C   0  0  0  0  0  0  0  0  0  0  0  0
   35.4650   32.0960   36.6000 N   0  0  0  0  0  0  0  0  0  0  0  0
   36.9960   31.3190   35.3950 H   0  0  0  0  0  0  0  0  0  0  0  0
   33.0150   29.8390   34.6660 H   0  0  0  0  0  0  0  0  0  0  0  0
   33.6450   32.6670   37.6400 H   0  0  0  0  0  0  0  0  0  0  0  0
  1 19  1  0  0  0  0
  2  1  1  0  0  0  0
  3  2  2  0  0  0  0
  3  4  1  0  0  0  0
  4  5  1  0  0  0  0
  5  1  2  0  0  0  0
  6  2  1  0  0  0  0
  7  3  1  0  0  0  0
  9  8  1  0  0  0  0
 10  9  1  0  0  0  0
 10  4  1  0  0  0  0
 11 10  2  0  0  0  0
 12 11  1  0  0  0  0
 13 14  2  0  0  0  0
 13 11  1  0  0  0  0
 14 16  1  0  0  0  0
 15 14  1  0  0  0  0
 16 17  1  0  0  0  0
 16  9  2  0  0  0  0
 18 23  1  0  0  0  0
 19 20  1  0  0  0  0
 19 18  2  0  0  0  0
 20 21  2  0  0  0  0
 21 22  1  0  0  0  0
 22 26  1  0  0  0  0
 23 22  2  0  0  0  0
 24 18  1  0  0  0  0
 25 20  1  0  0  0  0
M  END
>  <minimizedAffinity>
-4.69569445

$$$$

 OpenBabel03272500453D

 26 28  0  0  0  0  0  0  0  0999 V2000
   37.9670   26.0170   35.2750 C   0  0  0  0  0  0  0  0  0  0  0  0
   38.3880   27.1860   35.9090 C   0  0  0  0  0  0  0  0  0  0  0  0
   37.7080   28.2630   35.3710 C   0  0  0  0  0  0  0  0  0  0  0  0
   36.8860   27.7320   34.4190 N   0  0  0  0  0  0  0  0  0  0  0  0
   37.0570   26.4190   34.3830 N   0  0  0  0  0  0  0  0  0  0  0  0
   39.1360   27.2510   36.7060 H   0  0  0  0  0  0  0  0  0  0  0  0
   37.8420   29.2930   35.6810 H   0  0  0  0  0  0  0  0  0  0  0  0
   37.8220   28.1150   31.6290 Cl  0  0  0  0  0  0  0  0  0  0  0  0
   36.3820   28.8190   32.3450 C   0  0  0  0  0  0  0  0  0  0  0  0
   36.0320   28.5790   33.6590 C   0  0  0  0  0  0  0  0  0  0  0  0
   34.8820   29.1430   34.2220 C   0  0  0  0  0  0  0  0  0  0  0  0
   34.6520   28.9180   35.2740 H   0  0  0  0  0  0  0  0  0  0  0  0
   34.0590   29.9720   33.4540 C   0  0  0  0  0  3  0  0  0  0  0  0
   34.4370   30.1990   32.1260 C   0  0  0  0  0  0  0  0  0  0  0  0
   33.3920   31.2470   31.1620 Cl  0  0  0  0  0  0  0  0  0  0  0  0
   35.5770   29.6360   31.5760 C   0  0  0  0  0  0  0  0  0  0  0  0
   35.8060   29.8570   30.5420 H   0  0  0  0  0  0  0  0  0  0  0  0
   39.5100   24.0890   34.9010 C   0  0  0  0  0  0  0  0  0  0  0  0
   38.4780   24.7110   35.5980 C   0  0  0  0  0  0  0  0  0  0  0  0
   37.9160   24.0120   36.6700 C   0  0  0  0  0  0  0  0  0  0  0  0
   38.4130   22.7720   36.9630 N   0  0  0  0  0  0  0  0  0  0  0  0
   39.4160   22.2160   36.2550 C   0  0  0  0  0  0  0  0  0  0  0  0
   39.9770   22.8730   35.2100 N   0  0  0  0  0  0  0  0  0  0  0  0
   39.9670   24.6230   34.0540 H   0  0  0  0  0  0  0  0  0  0  0  0
   37.1100   24.4100   37.2720 H   0  0  0  0  0  0  0  0  0  0  0  0
   39.6980   21.2320   36.6060 H   0  0  0  0  0  0  0  0  0  0  0  0
  1 19  1  0  0  0  0
  1  2  1  0  0  0  0
  2  6  1  0  0  0  0
  3  7  1  0  0  0  0
  3  2  2  0  0  0  0
  4  3  1  0  0  0  0
  5  4  1  0  0  0  0
  5  1  2  0  0  0  0
  8  9  1  0  0  0  0
  9 10  1  0  0  0  0
 10 11  2  0  0  0  0
 10  4  1  0  0  0  0
 11 12  1  0  0  0  0
 13 11  1  0  0  0  0
 14 13  2  0  0  0  0
 15 14  1  0  0  0  0
 16 14  1  0  0  0  0
 16  9  2  0  0  0  0
 17 16  1  0  0  0  0
 18 23  2  0  0  0  0
 18 19  1  0  0  0  0
 19 20  2  0  0  0  0
 20 21  1  0  0  0  0
 20 25  1  0  0  0  0
 22 26  1  0  0  0  0
 22 21  2  0  0  0  0
 23 22  1  0  0  0  0
 24 18  1  0  0  0  0
M  END
>  <minimizedAffinity>
-4.63422203

$$$$

 OpenBabel03272500453D

 26 28  0  0  0  0  0  0  0  0999 V2000
   38.4940   26.7180   33.6280 C   0  0  0  0  0  0  0  0  0  0  0  0
   38.5870   27.3080   34.8890 C   0  0  0  0  0  0  0  0  0  0  0  0
   39.2550   26.4490   35.7420 C   0  0  0  0  0  0  0  0  0  0  0  0
   39.5560   25.3520   34.9860 N   0  0  0  0  0  0  0  0  0  0  0  0
   39.1000   25.5350   33.7560 N   0  0  0  0  0  0  0  0  0  0  0  0
   38.1970   28.2910   35.1680 H   0  0  0  0  0  0  0  0  0  0  0  0
   39.4660   26.6570   36.7840 H   0  0  0  0  0  0  0  0  0  0  0  0
   37.7720   23.4860   36.4500 Cl  0  0  0  0  0  0  0  0  0  0  0  0
   39.5110   23.3290   36.2680 C   0  0  0  0  0  0  0  0  0  0  0  0
   40.2550   24.2560   35.5640 C   0  0  0  0  0  0  0  0  0  0  0  0
   41.6410   24.1240   35.4240 C   0  0  0  0  0  0  0  0  0  0  0  0
   42.1820   24.8920   34.8530 H   0  0  0  0  0  0  0  0  0  0  0  0
   42.3040   23.0370   36.0010 C   0  0  0  0  0  3  0  0  0  0  0  0
   41.5270   22.1130   36.7090 C   0  0  0  0  0  0  0  0  0  0  0  0
   42.3720   20.7430   37.4360 Cl  0  0  0  0  0  0  0  0  0  0  0  0
   40.1550   22.2510   36.8430 C   0  0  0  0  0  0  0  0  0  0  0  0
   39.6200   21.4970   37.4050 H   0  0  0  0  0  0  0  0  0  0  0  0
   38.4650   27.5200   31.2620 C   0  0  0  0  0  0  0  0  0  0  0  0
   37.8550   27.3490   32.5020 C   0  0  0  0  0  0  0  0  0  0  0  0
   36.5480   27.8230   32.6440 C   0  0  0  0  0  0  0  0  0  0  0  0
   35.9570   28.4200   31.5650 N   0  0  0  0  0  0  0  0  0  0  0  0
   36.5940   28.5590   30.3850 C   0  0  0  0  0  0  0  0  0  0  0  0
   37.8620   28.1080   30.2220 N   0  0  0  0  0  0  0  0  0  0  0  0
   39.4940   27.1530   31.1290 H   0  0  0  0  0  0  0  0  0  0  0  0
   35.9910   27.7380   33.5680 H   0  0  0  0  0  0  0  0  0  0  0  0
   35.9970   29.0510   29.6290 H   0  0  0  0  0  0  0  0  0  0  0  0
  1  5  2  0  0  0  0
  1  2  1  0  0  0  0
  2  6  1  0  0  0  0
  2  3  2  0  0  0  0
  3  7  1  0  0  0  0
  4 10  1  0  0  0  0
  4  3  1  0  0  0  0
  5  4  1  0  0  0  0
  9  8  1  0  0  0  0
  9 16  1  0  0  0  0
 10  9  2  0  0  0  0
 11 10  1  0  0  0  0
 11 13  2  0  0  0  0
 12 11  1  0  0  0  0
 13 14  1  0  0  0  0
 14 16  2  0  0  0  0
 14 15  1  0  0  0  0
 16 17  1  0  0  0  0
 18 19  1  0  0  0  0
 19 20  2  0  0  0  0
 19  1  1  0  0  0  0
 20 25  1  0  0  0  0
 21 20  1  0  0  0  0
 22 21  2  0  0  0  0
 23 22  1  0  0  0  0
 23 18  2  0  0  0  0
 24 18  1  0  0  0  0
 26 22  1  0  0  0  0
M  END
>  <minimizedAffinity>
-4.61307812

$$$$

 OpenBabel03272500453D

 26 28  0  0  0  0  0  0  0  0999 V2000
   37.0290   23.0550   31.2670 C   0  0  0  0  0  0  0  0  0  0  0  0
   38.0330   23.7660   30.6100 C   0  0  0  0  0  0  0  0  0  0  0  0
   37.9860   25.0890   31.0100 C   0  0  0  0  0  0  0  0  0  0  0  0
   36.9540   25.1600   31.9020 N   0  0  0  0  0  0  0  0  0  0  0  0
   36.4120   23.9580   32.0340 N   0  0  0  0  0  0  0  0  0  0  0  0
   38.7480   23.3530   29.8920 H   0  0  0  0  0  0  0  0  0  0  0  0
   38.6550   25.8640   30.6550 H   0  0  0  0  0  0  0  0  0  0  0  0
   38.0760   25.4250   34.6360 Cl  0  0  0  0  0  0  0  0  0  0  0  0
   37.1030   26.6200   33.7950 C   0  0  0  0  0  0  0  0  0  0  0  0
   36.6260   26.4000   32.5170 C   0  0  0  0  0  0  0  0  0  0  0  0
   35.8510   27.3570   31.8540 C   0  0  0  0  0  0  0  0  0  0  0  0
   35.4980   27.1290   30.8380 H   0  0  0  0  0  0  0  0  0  0  0  0
   35.5440   28.5680   32.4810 C   0  0  0  0  0  3  0  0  0  0  0  0
   36.0390   28.7660   33.7750 C   0  0  0  0  0  0  0  0  0  0  0  0
   35.6460   30.2970   34.5600 Cl  0  0  0  0  0  0  0  0  0  0  0  0
   36.8060   27.8120   34.4250 C   0  0  0  0  0  0  0  0  0  0  0  0
   37.1540   28.0340   35.4250 H   0  0  0  0  0  0  0  0  0  0  0  0
   37.6840   20.8010   30.4120 C   0  0  0  0  0  0  0  0  0  0  0  0
   36.8000   21.6460   31.0780 C   0  0  0  0  0  0  0  0  0  0  0  0
   35.6290   21.0770   31.5850 C   0  0  0  0  0  0  0  0  0  0  0  0
   35.4280   19.7380   31.3960 N   0  0  0  0  0  0  0  0  0  0  0  0
   36.3180   18.9640   30.7440 C   0  0  0  0  0  0  0  0  0  0  0  0
   37.4620   19.4920   30.2410 N   0  0  0  0  0  0  0  0  0  0  0  0
   38.6130   21.2300   30.0050 H   0  0  0  0  0  0  0  0  0  0  0  0
   34.8810   21.6500   32.1170 H   0  0  0  0  0  0  0  0  0  0  0  0
   36.0190   17.9260   30.6740 H   0  0  0  0  0  0  0  0  0  0  0  0
  1  5  2  0  0  0  0
  2  3  2  0  0  0  0
  2  1  1  0  0  0  0
  3  4  1  0  0  0  0
  4  5  1  0  0  0  0
  4 10  1  0  0  0  0
  6  2  1  0  0  0  0
  7  3  1  0  0  0  0
  9 16  1  0  0  0  0
  9  8  1  0  0  0  0
 10  9  2  0  0  0  0
 11 13  2  0  0  0  0
 11 10  1  0  0  0  0
 12 11  1  0  0  0  0
 13 14  1  0  0  0  0
 14 16  2  0  0  0  0
 14 15  1  0  0  0  0
 16 17  1  0  0  0  0
 18 19  1  0  0  0  0
 19  1  1  0  0  0  0
 19 20  2  0  0  0  0
 20 25  1  0  0  0  0
 21 20  1  0  0  0  0
 22 21  2  0  0  0  0
 23 18  2  0  0  0  0
 23 22  1  0  0  0  0
 24 18  1  0  0  0  0
 26 22  1  0  0  0  0
M  END
>  <minimizedAffinity>
-4.59479713

$$$$

 OpenBabel03272500453D

 26 28  0  0  0  0  0  0  0  0999 V2000
   37.0350   29.0540   31.1240 C   0  0  0  0  0  0  0  0  0  0  0  0
   35.8790   29.2380   31.8840 C   0  0  0  0  0  0  0  0  0  0  0  0
   35.9530   28.4520   33.0190 C   0  0  0  0  0  0  0  0  0  0  0  0
   37.1510   27.8010   32.9300 N   0  0  0  0  0  0  0  0  0  0  0  0
   37.7630   28.1710   31.8140 N   0  0  0  0  0  0  0  0  0  0  0  0
   35.0440   29.8980   31.6320 H   0  0  0  0  0  0  0  0  0  0  0  0
   35.1880   28.4020   33.7850 H   0  0  0  0  0  0  0  0  0  0  0  0
   37.0150   24.9630   32.0760 Cl  0  0  0  0  0  0  0  0  0  0  0  0
   37.5220   25.5480   33.6510 C   0  0  0  0  0  0  0  0  0  0  0  0
   37.5500   26.8960   33.9520 C   0  0  0  0  0  0  0  0  0  0  0  0
   37.9560   27.3540   35.2100 C   0  0  0  0  0  0  0  0  0  0  0  0
   37.9590   28.4380   35.3940 H   0  0  0  0  0  0  0  0  0  0  0  0
   38.3440   26.4430   36.1970 C   0  0  0  0  0  3  0  0  0  0  0  0
   38.3060   25.0840   35.8670 C   0  0  0  0  0  0  0  0  0  0  0  0
   38.7970   23.9400   37.1180 Cl  0  0  0  0  0  0  0  0  0  0  0  0
   37.9030   24.6380   34.6180 C   0  0  0  0  0  0  0  0  0  0  0  0
   37.8990   23.5720   34.4350 H   0  0  0  0  0  0  0  0  0  0  0  0
   37.9820   29.1610   28.8160 C   0  0  0  0  0  0  0  0  0  0  0  0
   37.2800   29.7270   29.8760 C   0  0  0  0  0  0  0  0  0  0  0  0
   36.7930   31.0250   29.7020 C   0  0  0  0  0  0  0  0  0  0  0  0
   37.0350   31.6510   28.5100 N   0  0  0  0  0  0  0  0  0  0  0  0
   37.7210   31.0560   27.5140 C   0  0  0  0  0  0  0  0  0  0  0  0
   38.2050   29.7970   27.6590 N   0  0  0  0  0  0  0  0  0  0  0  0
   38.3730   28.1390   28.9330 H   0  0  0  0  0  0  0  0  0  0  0  0
   36.2360   31.5510   30.4670 H   0  0  0  0  0  0  0  0  0  0  0  0
   37.8310   31.6760   26.6350 H   0  0  0  0  0  0  0  0  0  0  0  0
  1  5  2  0  0  0  0
  1  2  1  0  0  0  0
  2  3  2  0  0  0  0
  3  7  1  0  0  0  0
  4  3  1  0  0  0  0
  4 10  1  0  0  0  0
  5  4  1  0  0  0  0
  6  2  1  0  0  0  0
  8  9  1  0  0  0  0
  9 10  2  0  0  0  0
  9 16  1  0  0  0  0
 10 11  1  0  0  0  0
 11 12  1  0  0  0  0
 11 13  2  0  0  0  0
 14 13  1  0  0  0  0
 14 15  1  0  0  0  0
 16 14  2  0  0  0  0
 17 16  1  0  0  0  0
 18 24  1  0  0  0  0
 18 19  1  0  0  0  0
 19  1  1  0  0  0  0
 20 19  2  0  0  0  0
 20 25  1  0  0  0  0
 21 20  1  0  0  0  0
 22 23  1  0  0  0  0
 22 21  2  0  0  0  0
 23 18  2  0  0  0  0
 26 22  1  0  0  0  0
M  END
>  <minimizedAffinity>
-4.59016752

$$$$

 OpenBabel03272500453D

 26 28  0  0  0  0  0  0  0  0999 V2000
   37.3720   26.2280   33.4650 C   0  0  0  0  0  0  0  0  0  0  0  0
   37.0940   25.0840   32.7180 C   0  0  0  0  0  0  0  0  0  0  0  0
   37.8190   24.0230   33.2290 C   0  0  0  0  0  0  0  0  0  0  0  0
   38.5260   24.5400   34.2780 N   0  0  0  0  0  0  0  0  0  0  0  0
   38.2460   25.8300   34.3940 N   0  0  0  0  0  0  0  0  0  0  0  0
   36.4140   25.0240   31.8630 H   0  0  0  0  0  0  0  0  0  0  0  0
   37.7920   23.0130   32.8380 H   0  0  0  0  0  0  0  0  0  0  0  0
   37.5570   24.0960   37.0470 Cl  0  0  0  0  0  0  0  0  0  0  0  0
   39.0240   23.4370   36.3440 C   0  0  0  0  0  0  0  0  0  0  0  0
   39.3890   23.7040   35.0390 C   0  0  0  0  0  0  0  0  0  0  0  0
   40.5600   23.1750   34.4860 C   0  0  0  0  0  0  0  0  0  0  0  0
   40.8020   23.4210   33.4420 H   0  0  0  0  0  0  0  0  0  0  0  0
   41.3920   22.3560   35.2560 C   0  0  0  0  0  3  0  0  0  0  0  0
   40.9990   22.1010   36.5740 C   0  0  0  0  0  0  0  0  0  0  0  0
   42.0540   21.0660   37.5410 Cl  0  0  0  0  0  0  0  0  0  0  0  0
   39.8370   22.6290   37.1140 C   0  0  0  0  0  0  0  0  0  0  0  0
   39.5980   22.3890   38.1410 H   0  0  0  0  0  0  0  0  0  0  0  0
   36.3160   28.3730   34.1900 C   0  0  0  0  0  0  0  0  0  0  0  0
   36.7800   27.5140   33.1980 C   0  0  0  0  0  0  0  0  0  0  0  0
   36.6570   27.9380   31.8730 C   0  0  0  0  0  0  0  0  0  0  0  0
   36.0930   29.1610   31.6370 N   0  0  0  0  0  0  0  0  0  0  0  0
   35.6590   29.9550   32.6360 C   0  0  0  0  0  0  0  0  0  0  0  0
   35.7660   29.5660   33.9310 N   0  0  0  0  0  0  0  0  0  0  0  0
   36.4040   28.0570   35.2410 H   0  0  0  0  0  0  0  0  0  0  0  0
   36.9880   27.3420   31.0320 H   0  0  0  0  0  0  0  0  0  0  0  0
   35.2370   30.8900   32.2920 H   0  0  0  0  0  0  0  0  0  0  0  0
  1  5  2  0  0  0  0
  2  3  2  0  0  0  0
  2  1  1  0  0  0  0
  3  4  1  0  0  0  0
  4  5  1  0  0  0  0
  4 10  1  0  0  0  0
  6  2  1  0  0  0  0
  7  3  1  0  0  0  0
  9  8  1  0  0  0  0
  9 16  1  0  0  0  0
 10  9  2  0  0  0  0
 11 10  1  0  0  0  0
 11 13  2  0  0  0  0
 12 11  1  0  0  0  0
 13 14  1  0  0  0  0
 14 16  2  0  0  0  0
 14 15  1  0  0  0  0
 16 17  1  0  0  0  0
 18 24  1  0  0  0  0
 19  1  1  0  0  0  0
 19 18  2  0  0  0  0
 20 19  1  0  0  0  0
 21 20  2  0  0  0  0
 21 22  1  0  0  0  0
 22 23  2  0  0  0  0
 23 18  1  0  0  0  0
 25 20  1  0  0  0  0
 26 22  1  0  0  0  0
M  END
>  <minimizedAffinity>
-4.58810186

$$$$

 OpenBabel03272500453D

 26 28  0  0  0  0  0  0  0  0999 V2000
   38.2880   24.5000   34.6880 C   0  0  0  0  0  0  0  0  0  0  0  0
   38.1280   23.5940   33.6400 C   0  0  0  0  0  0  0  0  0  0  0  0
   37.9610   24.2940   32.4590 C   0  0  0  0  0  0  0  0  0  0  0  0
   38.0210   25.6130   32.8090 N   0  0  0  0  0  0  0  0  0  0  0  0
   38.2130   25.7050   34.1170 N   0  0  0  0  0  0  0  0  0  0  0  0
   38.1320   22.5040   33.7270 H   0  0  0  0  0  0  0  0  0  0  0  0
   37.8150   23.8370   31.4870 H   0  0  0  0  0  0  0  0  0  0  0  0
   40.6290   26.5730   31.7690 Cl  0  0  0  0  0  0  0  0  0  0  0  0
   39.0440   27.1360   31.2690 C   0  0  0  0  0  0  0  0  0  0  0  0
   37.8840   26.6230   31.8170 C   0  0  0  0  0  0  0  0  0  0  0  0
   36.6240   27.0770   31.4120 C   0  0  0  0  0  0  0  0  0  0  0  0
   35.7340   26.6330   31.8820 H   0  0  0  0  0  0  0  0  0  0  0  0
   36.5170   28.0700   30.4340 C   0  0  0  0  0  3  0  0  0  0  0  0
   37.7060   28.5730   29.8960 C   0  0  0  0  0  0  0  0  0  0  0  0
   37.5630   29.8270   28.6620 Cl  0  0  0  0  0  0  0  0  0  0  0  0
   38.9510   28.1170   30.3020 C   0  0  0  0  0  0  0  0  0  0  0  0
   39.8270   28.5530   29.8420 H   0  0  0  0  0  0  0  0  0  0  0  0
   37.6840   24.5300   37.1120 C   0  0  0  0  0  0  0  0  0  0  0  0
   38.4860   24.1020   36.0580 C   0  0  0  0  0  0  0  0  0  0  0  0
   39.5390   23.2370   36.3640 C   0  0  0  0  0  0  0  0  0  0  0  0
   39.7130   22.8690   37.6700 N   0  0  0  0  0  0  0  0  0  0  0  0
   38.9060   23.3130   38.6530 C   0  0  0  0  0  0  0  0  0  0  0  0
   37.8770   24.1540   38.3820 N   0  0  0  0  0  0  0  0  0  0  0  0
   36.8470   25.2120   36.8910 H   0  0  0  0  0  0  0  0  0  0  0  0
   40.2180   22.8500   35.6150 H   0  0  0  0  0  0  0  0  0  0  0  0
   39.1700   22.9350   39.6320 H   0  0  0  0  0  0  0  0  0  0  0  0
  1 19  1  0  0  0  0
  2  6  1  0  0  0  0
  2  1  1  0  0  0  0
  3  4  1  0  0  0  0
  3  2  2  0  0  0  0
  4  5  1  0  0  0  0
  5  1  2  0  0  0  0
  7  3  1  0  0  0  0
  9  8  1  0  0  0  0
  9 10  1  0  0  0  0
 10  4  1  0  0  0  0
 11 10  2  0  0  0  0
 11 12  1  0  0  0  0
 13 11  1  0  0  0  0
 14 16  1  0  0  0  0
 14 13  2  0  0  0  0
 15 14  1  0  0  0  0
 16  9  2  0  0  0  0
 17 16  1  0  0  0  0
 18 23  1  0  0  0  0
 19 20  1  0  0  0  0
 19 18  2  0  0  0  0
 20 21  2  0  0  0  0
 21 22  1  0  0  0  0
 22 26  1  0  0  0  0
 23 22  2  0  0  0  0
 24 18  1  0  0  0  0
 25 20  1  0  0  0  0
M  END
>  <minimizedAffinity>
-4.56065893

$$$$
