
 OpenBabel03272503333D

 42 45  0  0  1  0  0  0  0  0999 V2000
   35.5570   29.4140   47.6800 C   0  0  0  0  0  0  0  0  0  0  0  0
   35.6290   29.9920   46.4120 C   0  0  0  0  0  0  0  0  0  0  0  0
   34.7050   29.5620   45.4530 C   0  0  0  0  0  0  0  0  0  0  0  0
   33.7940   28.6000   45.8360 N   0  0  0  0  0  0  0  0  0  0  0  0
   33.7630   28.0750   47.0620 C   0  0  0  0  0  0  0  0  0  0  0  0
   34.6460   28.4840   47.9810 N   0  0  0  0  0  0  0  0  0  0  0  0
   36.3430   30.7450   46.1100 H   0  0  0  0  0  0  0  0  0  0  0  0
   34.6800   29.9430   44.4560 H   0  0  0  0  0  0  0  0  0  0  0  0
   36.5090   29.8620   48.6550 N   0  0  0  0  0  0  0  0  0  0  0  0
   37.7440   30.5440   48.4100 C   0  0  0  0  0  0  0  0  0  0  0  0
   37.9350   31.3450   49.6900 C   0  0  2  0  0  0  0  0  0  0  0  0
   36.6660   31.1390   50.5160 C   0  0  0  0  0  0  0  0  0  0  0  0
   36.3910   29.7020   50.1020 C   0  0  0  0  0  0  0  0  0  0  0  0
   37.6840   31.2440   47.5330 H   0  0  0  0  0  0  0  0  0  0  0  0
   38.6090   29.8460   48.3020 H   0  0  0  0  0  0  0  0  0  0  0  0
   38.7630   30.9210   50.3090 H   0  0  0  0  0  0  0  0  0  0  0  0
   35.8810   31.7960   50.1400 H   0  0  0  0  0  0  0  0  0  0  0  0
   36.8550   31.2380   51.5910 H   0  0  0  0  0  0  0  0  0  0  0  0
   35.3580   29.4340   50.3730 H   0  0  0  0  0  0  0  0  0  0  0  0
   37.1630   29.0440   50.5110 H   0  0  0  0  0  0  0  0  0  0  0  0
   38.1830   32.8010   49.4140 C   0  0  0  0  0  0  0  0  0  0  0  0
   37.0750   33.4880   49.8720 F   0  0  0  0  0  0  0  0  0  0  0  0
   38.2030   32.9550   48.0530 F   0  0  0  0  0  0  0  0  0  0  0  0
   39.3420   33.2690   49.9740 F   0  0  0  0  0  0  0  0  0  0  0  0
   32.5600   26.8350   47.4970 S   0  0  0  0  0  0  0  0  0  0  0  0
   30.9780   27.3400   47.7940 C   0  0  0  0  0  0  0  0  0  0  0  0
   29.8050   26.8910   48.3260 C   0  0  0  0  0  0  0  0  0  0  0  0
   28.6570   27.6010   48.4080 C   0  0  0  0  0  0  0  0  0  0  0  0
   28.7790   28.9660   47.8460 C   0  0  0  0  0  0  0  0  0  0  0  0
   30.5010   29.0730   47.2750 S   0  0  0  0  0  0  0  0  0  0  0  0
   29.9120   25.8780   48.6830 H   0  0  0  0  0  0  0  0  0  0  0  0
   27.7390   27.2440   48.8270 H   0  0  0  0  0  0  0  0  0  0  0  0
   28.1570   29.7590   45.0540 Cl  0  0  0  0  0  0  0  0  0  0  0  0
   27.4310   30.3930   46.5120 C   0  0  0  0  0  0  0  0  0  0  0  0
   27.7870   29.9600   47.7690 C   0  0  0  0  0  0  0  0  0  0  0  0
   27.2540   30.4190   48.9510 C   0  0  0  0  0  0  0  0  0  0  0  0
   27.5680   30.0460   49.9080 H   0  0  0  0  0  0  0  0  0  0  0  0
   26.2660   31.4090   48.8600 C   0  0  0  0  0  3  0  0  0  0  0  0
   25.8660   31.8850   47.6060 C   0  0  0  0  0  0  0  0  0  0  0  0
   24.6350   33.1220   47.4550 Cl  0  0  0  0  0  0  0  0  0  0  0  0
   26.4410   31.3840   46.4320 C   0  0  0  0  0  0  0  0  0  0  0  0
   26.1210   31.7630   45.4720 H   0  0  0  0  0  0  0  0  0  0  0  0
  1  6  1  0  0  0  0
  1  9  1  0  0  0  0
  2  1  2  0  0  0  0
  3  4  2  0  0  0  0
  3  2  1  0  0  0  0
  4  5  1  0  0  0  0
  5 25  1  0  0  0  0
  5  6  2  0  0  0  0
  7  2  1  0  0  0  0
  8  3  1  0  0  0  0
  9 13  1  0  0  0  0
 10  9  1  0  0  0  0
 10 11  1  0  0  0  0
 11 16  1  1  0  0  0
 11 12  1  0  0  0  0
 12 18  1  0  0  0  0
 13 19  1  0  0  0  0
 13 20  1  0  0  0  0
 13 12  1  0  0  0  0
 14 10  1  0  0  0  0
 15 10  1  0  0  0  0
 17 12  1  0  0  0  0
 21 11  1  0  0  0  0
 21 22  1  0  0  0  0
 21 24  1  0  0  0  0
 23 21  1  0  0  0  0
 25 26  1  0  0  0  0
 26 27  2  0  0  0  0
 27 28  1  0  0  0  0
 27 31  1  0  0  0  0
 28 32  1  0  0  0  0
 29 28  2  0  0  0  0
 30 26  1  0  0  0  0
 30 29  1  0  0  0  0
 33 34  1  0  0  0  0
 34 35  1  0  0  0  0
 35 29  1  0  0  0  0
 35 36  2  0  0  0  0
 36 37  1  0  0  0  0
 38 36  1  0  0  0  0
 39 38  2  0  0  0  0
 40 39  1  0  0  0  0
 41 34  2  0  0  0  0
 41 39  1  0  0  0  0
 42 41  1  0  0  0  0
M  END
>  <minimizedAffinity>
-6.65068483

>  <minimizedRMSD>
1.13403869

$$$$
