
 OpenBabel03272510203D

 37 40  0  0  0  0  0  0  0  0999 V2000
   37.2280   29.8030   51.4200 Br  0  0  0  0  0  0  0  0  0  0  0  0
   36.0580   29.4540   49.9610 C   0  0  0  0  0  0  0  0  0  0  0  0
   36.1610   30.1750   48.7660 C   0  0  0  0  0  0  0  0  0  0  0  0
   35.2790   29.8570   47.7690 C   0  0  0  0  0  0  0  0  0  0  0  0
   34.3090   28.8790   47.8760 C   0  0  0  0  0  0  0  0  0  0  0  0
   34.2290   28.1910   49.0510 C   0  0  0  0  0  0  0  0  0  0  0  0
   35.1020   28.4830   50.0810 C   0  0  0  0  0  0  0  0  0  0  0  0
   35.3750   30.4210   46.8610 H   0  0  0  0  0  0  0  0  0  0  0  0
   33.4970   27.4110   49.2130 H   0  0  0  0  0  0  0  0  0  0  0  0
   35.0340   27.9280   51.0200 H   0  0  0  0  0  0  0  0  0  0  0  0
   38.0050   33.2550   49.3830 C   0  0  0  0  0  0  0  0  0  0  0  0
   39.0320   33.2290   48.4030 C   0  0  0  0  0  0  0  0  0  0  0  0
   39.0690   32.1470   47.5490 C   0  0  0  0  0  0  0  0  0  0  0  0
   38.1270   31.1600   47.6780 N   0  0  0  0  0  0  0  0  0  0  0  0
   37.1670   31.2110   48.6120 C   0  0  0  0  0  0  0  0  0  0  0  0
   37.1150   32.2730   49.4670 N   0  0  0  0  0  0  0  0  0  0  0  0
   37.9720   34.0930   50.0480 H   0  0  0  0  0  0  0  0  0  0  0  0
   39.7670   34.0080   48.3090 H   0  0  0  0  0  0  0  0  0  0  0  0
   39.8040   32.0200   46.7650 H   0  0  0  0  0  0  0  0  0  0  0  0
   33.3860   28.5590   46.8100 C   0  0  0  0  0  0  0  0  0  0  0  0
   33.5770   27.5560   45.8760 C   0  0  0  0  0  0  0  0  0  0  0  0
   32.6570   27.2940   44.8740 C   0  0  0  0  0  0  0  0  0  0  0  0
   31.5320   28.0290   44.7870 N   0  0  0  0  0  0  0  0  0  0  0  0
   31.3380   29.0040   45.6880 C   0  0  0  0  0  0  0  0  0  0  0  0
   32.2300   29.2460   46.6470 N   0  0  0  0  0  0  0  0  0  0  0  0
   34.4830   26.9690   45.9510 H   0  0  0  0  0  0  0  0  0  0  0  0
   32.8100   26.5160   44.1530 H   0  0  0  0  0  0  0  0  0  0  0  0
   31.4030   31.4460   43.8550 Cl  0  0  0  0  0  0  0  0  0  0  0  0
   30.0380   30.9210   44.7880 C   0  0  0  0  0  0  0  0  0  0  0  0
   30.1190   29.7950   45.5900 C   0  0  0  0  0  0  0  0  0  0  0  0
   28.9800   29.4880   46.2710 C   0  0  0  0  0  0  0  0  0  0  0  0
   28.9930   28.6120   46.9150 H   0  0  0  0  0  0  0  0  0  0  0  0
   27.7930   30.2070   46.2140 C   0  0  0  0  0  0  0  0  0  0  0  0
   27.7600   31.3260   45.4000 C   0  0  0  0  0  0  0  0  0  0  0  0
   26.3120   32.3130   45.2480 Cl  0  0  0  0  0  0  0  0  0  0  0  0
   28.9040   31.6720   44.6850 C   0  0  0  0  0  0  0  0  0  0  0  0
   28.8390   32.5610   44.0540 H   0  0  0  0  0  0  0  0  0  0  0  0
  2  7  1  0  0  0  0
  2  1  1  0  0  0  0
  3  2  2  0  0  0  0
  4  5  2  0  0  0  0
  4  3  1  0  0  0  0
  5  6  1  0  0  0  0
  6  9  1  0  0  0  0
  6  7  2  0  0  0  0
  7 10  1  0  0  0  0
  8  4  1  0  0  0  0
 11 16  1  0  0  0  0
 11 17  1  0  0  0  0
 12 11  2  0  0  0  0
 13 14  2  0  0  0  0
 13 12  1  0  0  0  0
 14 15  1  0  0  0  0
 15  3  1  0  0  0  0
 15 16  2  0  0  0  0
 18 12  1  0  0  0  0
 19 13  1  0  0  0  0
 20  5  1  0  0  0  0
 21 26  1  0  0  0  0
 21 20  2  0  0  0  0
 22 21  1  0  0  0  0
 23 22  2  0  0  0  0
 23 24  1  0  0  0  0
 24 25  2  0  0  0  0
 25 20  1  0  0  0  0
 27 22  1  0  0  0  0
 28 29  1  0  0  0  0
 29 30  1  0  0  0  0
 30 24  1  0  0  0  0
 30 31  2  0  0  0  0
 31 32  1  0  0  0  0
 33 31  1  0  0  0  0
 34 33  2  0  0  0  0
 35 34  1  0  0  0  0
 36 29  2  0  0  0  0
 36 34  1  0  0  0  0
 37 36  1  0  0  0  0
M  END
>  <minimizedAffinity>
-6.9052906

>  <minimizedRMSD>
2.12848711

$$$$
