
 OpenBabel03272501573D

 32 34  0  0  0  0  0  0  0  0999 V2000
   33.0640   28.1540   47.7490 C   0  0  0  0  0  0  0  0  0  0  0  0
   32.5130   26.9860   48.2510 C   0  0  0  0  0  0  0  0  0  0  0  0
   31.1840   26.8720   47.8920 C   0  0  0  0  0  0  0  0  0  0  0  0
   30.9680   27.9910   47.1730 N   0  0  0  0  0  0  0  0  0  0  0  0
   32.0480   28.7470   47.0790 N   0  0  0  0  0  0  0  0  0  0  0  0
   33.0070   26.2130   48.8590 H   0  0  0  0  0  0  0  0  0  0  0  0
   30.4170   26.1600   48.0600 H   0  0  0  0  0  0  0  0  0  0  0  0
   30.9200   27.2150   44.3370 Cl  0  0  0  0  0  0  0  0  0  0  0  0
   29.7390   28.1990   45.1580 C   0  0  0  0  0  0  0  0  0  0  0  0
   29.8310   28.5210   46.5000 C   0  0  0  0  0  0  0  0  0  0  0  0
   28.8580   29.3140   47.1140 C   0  0  0  0  0  0  0  0  0  0  0  0
   29.0590   29.4830   48.1600 H   0  0  0  0  0  0  0  0  0  0  0  0
   27.7880   29.7840   46.3790 C   0  0  0  0  0  3  0  0  0  0  0  0
   27.6880   29.4650   45.0330 C   0  0  0  0  0  0  0  0  0  0  0  0
   26.3030   30.0910   44.1390 Cl  0  0  0  0  0  0  0  0  0  0  0  0
   28.6580   28.6760   44.4220 C   0  0  0  0  0  0  0  0  0  0  0  0
   28.5520   28.4440   43.3670 H   0  0  0  0  0  0  0  0  0  0  0  0
   34.4950   28.5910   47.9540 C   0  0  0  0  0  0  0  0  0  0  0  0
   35.1690   27.9810   47.3030 H   0  0  0  0  0  0  0  0  0  0  0  0
   34.5900   29.6570   47.6840 H   0  0  0  0  0  0  0  0  0  0  0  0
   34.8130   28.3420   49.3950 C   0  0  0  0  0  0  0  0  0  0  0  0
   35.0850   27.2870   49.6210 H   0  0  0  0  0  0  0  0  0  0  0  0
   33.9540   28.5820   50.0770 H   0  0  0  0  0  0  0  0  0  0  0  0
   37.2750   30.1750   51.4570 C   0  0  0  0  0  0  0  0  0  0  0  0
   38.1200   30.7580   50.5010 C   0  0  0  0  0  0  0  0  0  0  0  0
   37.8230   30.5070   49.1400 C   0  0  0  0  0  0  0  0  0  0  0  0
   36.7590   29.7320   48.8300 N   0  0  0  0  0  0  0  0  0  0  0  0
   35.9800   29.1950   49.8040 C   0  0  0  0  0  0  0  0  0  0  0  0
   36.2440   29.4210   51.0860 N   0  0  0  0  0  0  0  0  0  0  0  0
   37.5500   30.4000   52.4780 H   0  0  0  0  0  0  0  0  0  0  0  0
   38.9740   31.3790   50.6440 H   0  0  0  0  0  0  0  0  0  0  0  0
   38.3570   30.8690   48.2780 H   0  0  0  0  0  0  0  0  0  0  0  0
  1 18  1  0  0  0  0
  1  2  1  0  0  0  0
  2  6  1  0  0  0  0
  3  7  1  0  0  0  0
  3  2  2  0  0  0  0
  4  3  1  0  0  0  0
  5  4  1  0  0  0  0
  5  1  2  0  0  0  0
  8  9  1  0  0  0  0
  9 10  1  0  0  0  0
 10 11  2  0  0  0  0
 10  4  1  0  0  0  0
 11 12  1  0  0  0  0
 13 11  1  0  0  0  0
 14 13  2  0  0  0  0
 15 14  1  0  0  0  0
 16 14  1  0  0  0  0
 16  9  2  0  0  0  0
 17 16  1  0  0  0  0
 18 21  1  0  0  0  0
 19 18  1  0  0  0  0
 20 18  1  0  0  0  0
 21 22  1  0  0  0  0
 21 28  1  0  0  0  0
 21 23  1  0  0  0  0
 24 30  1  0  0  0  0
 25 31  1  0  0  0  0
 25 24  2  0  0  0  0
 26 25  1  0  0  0  0
 27 26  2  0  0  0  0
 27 28  1  0  0  0  0
 28 29  2  0  0  0  0
 29 24  1  0  0  0  0
 32 26  1  0  0  0  0
M  END
>  <minimizedAffinity>
-4.9035058

>  <minimizedRMSD>
1.05667961

$$$$
