
 OpenBabel03272503303D

 35 37  0  0  1  0  0  0  0  0999 V2000
   35.2880   29.5440   47.9530 C   0  0  0  0  0  0  0  0  0  0  0  0
   35.2190   30.0120   46.6310 C   0  0  0  0  0  0  0  0  0  0  0  0
   34.0740   29.6730   45.9060 C   0  0  0  0  0  0  0  0  0  0  0  0
   33.1190   28.9210   46.5330 N   0  0  0  0  0  0  0  0  0  0  0  0
   33.2130   28.4900   47.7930 C   0  0  0  0  0  0  0  0  0  0  0  0
   34.3190   28.8120   48.5050 N   0  0  0  0  0  0  0  0  0  0  0  0
   35.9730   30.6050   46.1430 H   0  0  0  0  0  0  0  0  0  0  0  0
   33.8920   29.9650   44.8880 H   0  0  0  0  0  0  0  0  0  0  0  0
   36.4580   29.8910   48.6910 N   0  0  0  0  0  0  0  0  0  0  0  0
   37.5790   30.6580   48.2340 C   0  0  0  0  0  0  0  0  0  0  0  0
   38.1030   31.2830   49.5220 C   0  0  2  0  0  0  0  0  0  0  0  0
   37.1310   30.8860   50.6110 C   0  0  0  0  0  0  0  0  0  0  0  0
   36.7380   29.5290   50.0610 C   0  0  0  0  0  0  0  0  0  0  0  0
   37.2690   31.4470   47.5050 H   0  0  0  0  0  0  0  0  0  0  0  0
   38.3680   30.0190   47.8010 H   0  0  0  0  0  0  0  0  0  0  0  0
   39.0900   30.8450   49.8020 H   0  0  0  0  0  0  0  0  0  0  0  0
   36.2410   31.5350   50.6610 H   0  0  0  0  0  0  0  0  0  0  0  0
   37.6330   30.7480   51.5740 H   0  0  0  0  0  0  0  0  0  0  0  0
   37.5670   28.8060   50.1610 H   0  0  0  0  0  0  0  0  0  0  0  0
   35.8100   29.2400   50.5880 H   0  0  0  0  0  0  0  0  0  0  0  0
   38.2720   32.7680   49.4030 C   0  0  0  0  0  0  0  0  0  0  0  0
   37.1020   33.3380   49.8960 F   0  0  0  0  0  0  0  0  0  0  0  0
   38.3140   33.0740   48.0560 F   0  0  0  0  0  0  0  0  0  0  0  0
   39.3690   33.2580   50.0350 F   0  0  0  0  0  0  0  0  0  0  0  0
   31.9400   27.5130   48.5560 S   0  0  0  0  0  0  0  0  0  0  0  0
   29.1760   27.6730   47.0090 Cl  0  0  0  0  0  0  0  0  0  0  0  0
   30.1370   26.2370   46.8200 C   0  0  0  0  0  0  0  0  0  0  0  0
   31.3300   26.2140   47.5120 C   0  0  0  0  0  0  0  0  0  0  0  0
   32.1550   25.0950   47.4090 C   0  0  0  0  0  0  0  0  0  0  0  0
   33.1140   25.0090   47.9310 H   0  0  0  0  0  0  0  0  0  0  0  0
   31.7510   24.0400   46.6140 C   0  0  0  0  0  3  0  0  0  0  0  0
   30.5510   24.0890   45.9320 C   0  0  0  0  0  0  0  0  0  0  0  0
   29.9940   22.7850   44.9170 Cl  0  0  0  0  0  0  0  0  0  0  0  0
   29.7220   25.1870   46.0220 C   0  0  0  0  0  0  0  0  0  0  0  0
   28.7620   25.2620   45.4950 H   0  0  0  0  0  0  0  0  0  0  0  0
  1  6  1  0  0  0  0
  1  9  1  0  0  0  0
  2  1  2  0  0  0  0
  3  4  2  0  0  0  0
  3  2  1  0  0  0  0
  4  5  1  0  0  0  0
  5  6  2  0  0  0  0
  5 25  1  0  0  0  0
  7  2  1  0  0  0  0
  8  3  1  0  0  0  0
  9 13  1  0  0  0  0
 10  9  1  0  0  0  0
 10 11  1  0  0  0  0
 11 16  1  1  0  0  0
 11 12  1  0  0  0  0
 12 17  1  0  0  0  0
 12 18  1  0  0  0  0
 13 19  1  0  0  0  0
 13 20  1  0  0  0  0
 13 12  1  0  0  0  0
 14 10  1  0  0  0  0
 15 10  1  0  0  0  0
 21 11  1  0  0  0  0
 21 22  1  0  0  0  0
 21 24  1  0  0  0  0
 23 21  1  0  0  0  0
 27 26  1  0  0  0  0
 27 28  1  0  0  0  0
 28 25  1  0  0  0  0
 29 28  2  0  0  0  0
 29 30  1  0  0  0  0
 31 29  1  0  0  0  0
 32 34  1  0  0  0  0
 32 31  2  0  0  0  0
 33 32  1  0  0  0  0
 34 27  2  0  0  0  0
 35 34  1  0  0  0  0
M  END
>  <minimizedAffinity>
-5.9116993

>  <minimizedRMSD>
1.66331196

$$$$
