
 OpenBabel03272501573D

 32 34  0  0  0  0  0  0  0  0999 V2000
   32.6530   28.3850   47.9920 C   0  0  0  0  0  0  0  0  0  0  0  0
   32.1100   27.8240   49.1380 C   0  0  0  0  0  0  0  0  0  0  0  0
   30.7600   27.5800   48.9770 C   0  0  0  0  0  0  0  0  0  0  0  0
   30.5230   28.0070   47.7210 N   0  0  0  0  0  0  0  0  0  0  0  0
   31.6100   28.4770   47.1340 N   0  0  0  0  0  0  0  0  0  0  0  0
   32.6250   27.5810   50.0800 H   0  0  0  0  0  0  0  0  0  0  0  0
   29.9910   27.1750   49.5830 H   0  0  0  0  0  0  0  0  0  0  0  0
   30.0740   25.4640   46.3140 Cl  0  0  0  0  0  0  0  0  0  0  0  0
   29.0810   26.8920   46.2080 C   0  0  0  0  0  0  0  0  0  0  0  0
   29.3580   28.0560   46.9040 C   0  0  0  0  0  0  0  0  0  0  0  0
   28.5310   29.1750   46.7870 C   0  0  0  0  0  0  0  0  0  0  0  0
   28.8690   30.0060   47.3840 H   0  0  0  0  0  0  0  0  0  0  0  0
   27.4190   29.1290   45.9690 C   0  0  0  0  0  3  0  0  0  0  0  0
   27.1340   27.9660   45.2670 C   0  0  0  0  0  0  0  0  0  0  0  0
   25.7040   27.9580   44.2360 Cl  0  0  0  0  0  0  0  0  0  0  0  0
   27.9590   26.8510   45.3840 C   0  0  0  0  0  0  0  0  0  0  0  0
   27.7080   25.9570   44.8220 H   0  0  0  0  0  0  0  0  0  0  0  0
   34.1020   28.7760   47.8270 C   0  0  0  0  0  0  0  0  0  0  0  0
   34.4910   28.3730   46.8590 H   0  0  0  0  0  0  0  0  0  0  0  0
   34.1800   29.8780   47.8240 H   0  0  0  0  0  0  0  0  0  0  0  0
   34.8420   28.1590   48.9720 C   0  0  0  0  0  0  0  0  0  0  0  0
   35.3250   27.1880   48.7250 H   0  0  0  0  0  0  0  0  0  0  0  0
   34.1810   27.9500   49.8550 H   0  0  0  0  0  0  0  0  0  0  0  0
   37.1180   30.1280   51.1210 C   0  0  0  0  0  0  0  0  0  0  0  0
   37.9310   30.7990   50.1950 C   0  0  0  0  0  0  0  0  0  0  0  0
   37.6770   30.5580   48.8230 C   0  0  0  0  0  0  0  0  0  0  0  0
   36.6840   29.7100   48.4750 N   0  0  0  0  0  0  0  0  0  0  0  0
   35.9320   29.0910   49.4230 C   0  0  0  0  0  0  0  0  0  0  0  0
   36.1550   29.3050   50.7130 N   0  0  0  0  0  0  0  0  0  0  0  0
   37.3570   30.3490   52.1520 H   0  0  0  0  0  0  0  0  0  0  0  0
   38.7310   31.4800   50.3680 H   0  0  0  0  0  0  0  0  0  0  0  0
   38.1960   30.9820   47.9800 H   0  0  0  0  0  0  0  0  0  0  0  0
  1  2  1  0  0  0  0
  2  6  1  0  0  0  0
  3  2  2  0  0  0  0
  3  7  1  0  0  0  0
  4  3  1  0  0  0  0
  5  4  1  0  0  0  0
  5  1  2  0  0  0  0
  9  8  1  0  0  0  0
  9 10  1  0  0  0  0
 10  4  1  0  0  0  0
 11 10  2  0  0  0  0
 11 12  1  0  0  0  0
 13 11  1  0  0  0  0
 14 16  1  0  0  0  0
 14 13  2  0  0  0  0
 15 14  1  0  0  0  0
 16  9  2  0  0  0  0
 17 16  1  0  0  0  0
 18  1  1  0  0  0  0
 18 21  1  0  0  0  0
 19 18  1  0  0  0  0
 20 18  1  0  0  0  0
 21 28  1  0  0  0  0
 21 23  1  0  0  0  0
 22 21  1  0  0  0  0
 24 30  1  0  0  0  0
 25 31  1  0  0  0  0
 25 24  2  0  0  0  0
 26 25  1  0  0  0  0
 27 26  2  0  0  0  0
 27 28  1  0  0  0  0
 28 29  2  0  0  0  0
 29 24  1  0  0  0  0
 32 26  1  0  0  0  0
M  END
>  <minimizedAffinity>
-4.89156151

>  <minimizedRMSD>
1.83321583

$$$$
