
 OpenBabel03272501303D

 21 22  0  0  0  0  0  0  0  0999 V2000
   37.5600   32.2900   49.1880 C   0  0  0  0  0  0  0  0  0  0  0  0
   37.5330   33.4750   49.5850 O   0  0  0  0  0  0  0  0  0  0  0  0
   39.7160   34.2760   48.4970 Cl  0  0  0  0  0  0  0  0  0  0  0  0
   39.3000   32.8490   47.5550 C   0  0  0  0  0  0  0  0  0  0  0  0
   38.2910   31.9990   47.9600 C   0  0  0  0  0  0  0  0  0  0  0  0
   38.0630   30.9160   47.1370 C   0  0  0  0  0  0  0  0  0  0  0  0
   37.2820   30.2280   47.4220 H   0  0  0  0  0  0  0  0  0  0  0  0
   38.7890   30.6930   45.9870 C   0  0  0  0  0  3  0  0  0  0  0  0
   39.7920   31.5630   45.6100 C   0  0  0  0  0  0  0  0  0  0  0  0
   40.6730   31.2150   44.1360 Cl  0  0  0  0  0  0  0  0  0  0  0  0
   40.0600   32.6620   46.4000 C   0  0  0  0  0  0  0  0  0  0  0  0
   40.8440   33.3450   46.1070 H   0  0  0  0  0  0  0  0  0  0  0  0
   36.8310   29.4890   51.5610 C   0  0  0  0  0  0  0  0  0  0  0  0
   37.5260   30.5170   50.9190 C   0  0  0  0  0  0  0  0  0  0  0  0
   36.9000   31.2150   49.8940 C   0  0  0  0  0  0  0  0  0  0  0  0
   35.6370   30.8550   49.5700 N   0  0  0  0  0  0  0  0  0  0  0  0
   34.9880   29.8520   50.2120 C   0  0  0  0  0  0  0  0  0  0  0  0
   35.5760   29.1710   51.1990 N   0  0  0  0  0  0  0  0  0  0  0  0
   37.4160   29.0130   52.3440 H   0  0  0  0  0  0  0  0  0  0  0  0
   38.5410   30.7990   51.1860 H   0  0  0  0  0  0  0  0  0  0  0  0
   33.9590   29.5930   49.9150 H   0  0  0  0  0  0  0  0  0  0  0  0
  1  2  2  0  0  0  0
  1 15  1  0  0  0  0
  4  5  1  0  0  0  0
  4  3  1  0  0  0  0
  5  1  1  0  0  0  0
  6  7  1  0  0  0  0
  6  5  2  0  0  0  0
  8  6  1  0  0  0  0
  9  8  2  0  0  0  0
  9 11  1  0  0  0  0
 10  9  1  0  0  0  0
 11  4  2  0  0  0  0
 12 11  1  0  0  0  0
 13 19  1  0  0  0  0
 14 20  1  0  0  0  0
 14 13  2  0  0  0  0
 15 14  1  0  0  0  0
 16 15  2  0  0  0  0
 16 17  1  0  0  0  0
 17 18  2  0  0  0  0
 18 13  1  0  0  0  0
 21 17  1  0  0  0  0
M  END
>  <minimizedAffinity>
-5.92235518

>  <minimizedRMSD>
2.65367532

$$$$
