
 OpenBabel03262522173D

 46 49  0  0  1  0  0  0  0  0999 V2000
   37.8020   26.0280   30.8780 C   0  0  0  0  0  0  0  0  0  0  0  0
   37.8710   26.1420   29.7640 H   0  0  0  0  0  0  0  0  0  0  0  0
   38.6380   25.4040   31.2060 H   0  0  0  0  0  0  0  0  0  0  0  0
   36.5340   28.9810   32.3720 C   0  0  1  0  0  0  0  0  0  0  0  0
   37.0670   27.5880   32.6760 C   0  0  0  0  0  0  0  0  0  0  0  0
   38.0030   27.3900   31.5050 C   0  0  2  0  0  0  0  0  0  0  0  0
   37.8210   28.4060   30.6190 O   0  0  0  0  0  0  0  0  0  0  0  0
   36.5720   28.9670   30.8520 C   0  0  0  0  0  0  0  0  0  0  0  0
   37.2230   29.7360   32.7870 H   0  0  0  0  0  0  0  0  0  0  0  0
   37.6630   27.6020   33.6170 H   0  0  0  0  0  0  0  0  0  0  0  0
   36.2650   26.8310   32.6620 H   0  0  0  0  0  0  0  0  0  0  0  0
   39.0620   27.4260   31.8570 H   0  0  0  0  0  0  0  0  0  0  0  0
   35.7550   28.2740   30.5430 H   0  0  0  0  0  0  0  0  0  0  0  0
   36.4800   29.9720   30.4230 H   0  0  0  0  0  0  0  0  0  0  0  0
   35.2460   29.1380   32.8440 O   0  0  0  0  0  0  0  0  0  0  0  0
   32.3450   29.0260   33.1360 Cl  0  0  0  0  0  0  0  0  0  0  0  0
   33.4480   29.8950   34.1770 C   0  0  0  0  0  0  0  0  0  0  0  0
   34.7980   29.8540   33.9100 C   0  0  0  0  0  0  0  0  0  0  0  0
   35.5920   30.5620   34.7750 C   0  0  0  0  0  0  0  0  0  0  0  0
   36.6560   30.5740   34.6260 H   0  0  0  0  0  0  0  0  0  0  0  0
   35.0980   31.2660   35.8310 C   0  0  0  0  0  3  0  0  0  0  0  0
   33.7380   31.2800   36.0600 C   0  0  0  0  0  0  0  0  0  0  0  0
   33.0680   32.1730   37.4090 Cl  0  0  0  0  0  0  0  0  0  0  0  0
   32.8970   30.5830   35.2210 C   0  0  0  0  0  0  0  0  0  0  0  0
   31.8210   30.5900   35.3970 H   0  0  0  0  0  0  0  0  0  0  0  0
   36.1700   25.4270   31.3780 S   0  0  0  0  0  0  0  0  0  0  0  0
   37.7540   22.4140   33.4410 C   0  0  0  0  0  0  0  0  0  0  0  0
   36.9340   21.3250   33.1130 C   0  0  0  0  0  0  0  0  0  0  0  0
   35.8650   21.4580   32.2510 C   0  0  0  0  0  0  0  0  0  0  0  0
   35.6540   22.7190   31.7370 C   0  0  0  0  0  0  0  0  0  0  0  0
   36.4590   23.7620   32.0660 C   0  0  0  0  0  0  0  0  0  0  0  0
   37.5090   23.6380   32.9110 N   0  0  0  0  0  0  0  0  0  0  0  0
   37.1160   20.3420   33.5280 H   0  0  0  0  0  0  0  0  0  0  0  0
   35.2380   20.6070   32.0060 H   0  0  0  0  0  0  0  0  0  0  0  0
   34.8320   22.8980   31.0540 H   0  0  0  0  0  0  0  0  0  0  0  0
   38.8410   22.1890   34.3430 C   0  0  0  0  0  0  0  0  0  0  0  0
   39.8850   21.6600   33.9660 O   0  0  0  0  0  0  0  0  0  0  0  0
   39.9780   22.5210   36.5070 C   0  0  0  0  0  0  0  0  0  0  0  0
   38.7800   22.5680   35.7600 C   0  0  0  0  0  0  0  0  0  0  0  0
   37.5960   22.9670   36.3920 C   0  0  0  0  0  0  0  0  0  0  0  0
   37.6530   23.3000   37.7200 N   0  0  0  0  0  0  0  0  0  0  0  0
   38.8070   23.2470   38.4080 C   0  0  0  0  0  0  0  0  0  0  0  0
   39.9360   22.8680   37.8150 N   0  0  0  0  0  0  0  0  0  0  0  0
   40.8760   22.2070   35.9870 H   0  0  0  0  0  0  0  0  0  0  0  0
   36.7010   22.9990   35.8200 H   0  0  0  0  0  0  0  0  0  0  0  0
   38.8860   23.5030   39.4570 H   0  0  0  0  0  0  0  0  0  0  0  0
  1  3  1  0  0  0  0
  1 26  1  0  0  0  0
  1  6  1  0  0  0  0
  2  1  1  0  0  0  0
  4  5  1  0  0  0  0
  4  9  1  1  0  0  0
  4 15  1  0  0  0  0
  5 10  1  0  0  0  0
  6 12  1  1  0  0  0
  6  5  1  0  0  0  0
  7  8  1  0  0  0  0
  7  6  1  0  0  0  0
  8  4  1  0  0  0  0
 11  5  1  0  0  0  0
 13  8  1  0  0  0  0
 14  8  1  0  0  0  0
 15 18  1  0  0  0  0
 16 17  1  0  0  0  0
 17 24  1  0  0  0  0
 18 17  2  0  0  0  0
 18 19  1  0  0  0  0
 19 21  2  0  0  0  0
 20 19  1  0  0  0  0
 21 22  1  0  0  0  0
 22 23  1  0  0  0  0
 24 25  1  0  0  0  0
 24 22  2  0  0  0  0
 26 31  1  0  0  0  0
 27 36  1  0  0  0  0
 28 27  1  0  0  0  0
 28 33  1  0  0  0  0
 29 28  2  0  0  0  0
 30 31  2  0  0  0  0
 30 29  1  0  0  0  0
 31 32  1  0  0  0  0
 32 27  2  0  0  0  0
 34 29  1  0  0  0  0
 35 30  1  0  0  0  0
 36 39  1  0  0  0  0
 37 36  2  0  0  0  0
 38 43  1  0  0  0  0
 39 40  1  0  0  0  0
 39 38  2  0  0  0  0
 40 41  2  0  0  0  0
 41 42  1  0  0  0  0
 42 46  1  0  0  0  0
 43 42  2  0  0  0  0
 44 38  1  0  0  0  0
 45 40  1  0  0  0  0
M  END
>  <minimizedAffinity>
-6.19060135

$$$$

 OpenBabel03262522173D

 46 49  0  0  1  0  0  0  0  0999 V2000
   35.3490   24.4920   31.5170 C   0  0  0  0  0  0  0  0  0  0  0  0
   34.3690   24.4090   30.9800 H   0  0  0  0  0  0  0  0  0  0  0  0
   35.1570   24.3850   32.5890 H   0  0  0  0  0  0  0  0  0  0  0  0
   37.6690   21.9250   32.2840 C   0  0  1  0  0  0  0  0  0  0  0  0
   36.1830   22.2360   32.1660 C   0  0  0  0  0  0  0  0  0  0  0  0
   36.2120   23.3180   31.1100 C   0  0  2  0  0  0  0  0  0  0  0  0
   37.5050   23.6750   30.8810 O   0  0  0  0  0  0  0  0  0  0  0  0
   38.2630   23.2900   31.9780 C   0  0  0  0  0  0  0  0  0  0  0  0
   37.9490   21.1810   31.5200 H   0  0  0  0  0  0  0  0  0  0  0  0
   35.6370   21.3530   31.7620 H   0  0  0  0  0  0  0  0  0  0  0  0
   35.7700   22.6280   33.1100 H   0  0  0  0  0  0  0  0  0  0  0  0
   35.7880   22.9270   30.1550 H   0  0  0  0  0  0  0  0  0  0  0  0
   38.0300   23.9190   32.8690 H   0  0  0  0  0  0  0  0  0  0  0  0
   39.3330   23.2360   31.7470 H   0  0  0  0  0  0  0  0  0  0  0  0
   37.9910   21.5060   33.5590 O   0  0  0  0  0  0  0  0  0  0  0  0
   35.8950   20.7800   35.4560 Cl  0  0  0  0  0  0  0  0  0  0  0  0
   37.1330   21.9900   35.7060 C   0  0  0  0  0  0  0  0  0  0  0  0
   38.0580   22.2220   34.7130 C   0  0  0  0  0  0  0  0  0  0  0  0
   38.9920   23.1850   34.9910 C   0  0  0  0  0  0  0  0  0  0  0  0
   39.7450   23.4180   34.2610 H   0  0  0  0  0  0  0  0  0  0  0  0
   39.0200   23.8780   36.1640 C   0  0  0  0  0  3  0  0  0  0  0  0
   38.0730   23.6130   37.1310 C   0  0  0  0  0  0  0  0  0  0  0  0
   38.0790   24.4840   38.6500 Cl  0  0  0  0  0  0  0  0  0  0  0  0
   37.1120   22.6530   36.9010 C   0  0  0  0  0  0  0  0  0  0  0  0
   36.3600   22.4390   37.6610 H   0  0  0  0  0  0  0  0  0  0  0  0
   36.2270   26.0060   31.0560 S   0  0  0  0  0  0  0  0  0  0  0  0
   36.0730   28.8900   33.7950 C   0  0  0  0  0  0  0  0  0  0  0  0
   36.7510   28.3380   34.8910 C   0  0  0  0  0  0  0  0  0  0  0  0
   37.2840   27.0660   34.8470 C   0  0  0  0  0  0  0  0  0  0  0  0
   37.1100   26.3770   33.6660 C   0  0  0  0  0  0  0  0  0  0  0  0
   36.4510   26.9280   32.6150 C   0  0  0  0  0  0  0  0  0  0  0  0
   35.9250   28.1750   32.6530 N   0  0  0  0  0  0  0  0  0  0  0  0
   36.8760   28.8960   35.8110 H   0  0  0  0  0  0  0  0  0  0  0  0
   37.8060   26.6510   35.7030 H   0  0  0  0  0  0  0  0  0  0  0  0
   37.5010   25.3730   33.5600 H   0  0  0  0  0  0  0  0  0  0  0  0
   35.5510   30.2150   33.9260 C   0  0  0  0  0  0  0  0  0  0  0  0
   35.8090   31.0890   33.1010 O   0  0  0  0  0  0  0  0  0  0  0  0
   33.4220   29.9890   35.1530 C   0  0  0  0  0  0  0  0  0  0  0  0
   34.6850   30.6130   35.0430 C   0  0  0  0  0  0  0  0  0  0  0  0
   35.0570   31.5740   35.9910 C   0  0  0  0  0  0  0  0  0  0  0  0
   34.1710   31.8700   36.9930 N   0  0  0  0  0  0  0  0  0  0  0  0
   32.9750   31.2620   37.0750 C   0  0  0  0  0  0  0  0  0  0  0  0
   32.6140   30.3480   36.1780 N   0  0  0  0  0  0  0  0  0  0  0  0
   33.1660   29.2500   34.4030 H   0  0  0  0  0  0  0  0  0  0  0  0
   36.0090   32.0360   35.8980 H   0  0  0  0  0  0  0  0  0  0  0  0
   32.2530   31.4720   37.8540 H   0  0  0  0  0  0  0  0  0  0  0  0
  1  3  1  0  0  0  0
  2  1  1  0  0  0  0
  4  9  1  6  0  0  0
  4 15  1  0  0  0  0
  5  4  1  0  0  0  0
  5 11  1  0  0  0  0
  6 12  1  6  0  0  0
  6  1  1  0  0  0  0
  6  5  1  0  0  0  0
  7  6  1  0  0  0  0
  7  8  1  0  0  0  0
  8  4  1  0  0  0  0
  8 13  1  0  0  0  0
 10  5  1  0  0  0  0
 14  8  1  0  0  0  0
 15 18  1  0  0  0  0
 16 17  1  0  0  0  0
 17 24  1  0  0  0  0
 18 19  1  0  0  0  0
 18 17  2  0  0  0  0
 19 21  2  0  0  0  0
 20 19  1  0  0  0  0
 21 22  1  0  0  0  0
 22 23  1  0  0  0  0
 24 22  2  0  0  0  0
 24 25  1  0  0  0  0
 26  1  1  0  0  0  0
 26 31  1  0  0  0  0
 27 36  1  0  0  0  0
 27 28  1  0  0  0  0
 28 33  1  0  0  0  0
 29 28  2  0  0  0  0
 29 34  1  0  0  0  0
 30 29  1  0  0  0  0
 31 32  1  0  0  0  0
 31 30  2  0  0  0  0
 32 27  2  0  0  0  0
 35 30  1  0  0  0  0
 36 39  1  0  0  0  0
 37 36  2  0  0  0  0
 38 43  1  0  0  0  0
 39 38  2  0  0  0  0
 39 40  1  0  0  0  0
 40 41  2  0  0  0  0
 41 42  1  0  0  0  0
 42 46  1  0  0  0  0
 43 42  2  0  0  0  0
 44 38  1  0  0  0  0
 45 40  1  0  0  0  0
M  END
>  <minimizedAffinity>
-6.17846775

$$$$

 OpenBabel03262522173D

 46 49  0  0  1  0  0  0  0  0999 V2000
   31.4720   29.3590   33.9520 C   0  0  0  0  0  0  0  0  0  0  0  0
   32.3890   28.7890   34.2540 H   0  0  0  0  0  0  0  0  0  0  0  0
   30.7000   28.6350   33.6730 H   0  0  0  0  0  0  0  0  0  0  0  0
   31.9980   31.0140   37.0420 C   0  0  1  0  0  0  0  0  0  0  0  0
   31.8820   31.2350   35.5400 C   0  0  0  0  0  0  0  0  0  0  0  0
   30.9550   30.1000   35.1660 C   0  0  2  0  0  0  0  0  0  0  0  0
   30.7960   29.2870   36.2450 O   0  0  0  0  0  0  0  0  0  0  0  0
   31.8600   29.5010   37.1110 C   0  0  0  0  0  0  0  0  0  0  0  0
   31.1620   31.5210   37.5520 H   0  0  0  0  0  0  0  0  0  0  0  0
   31.3710   32.2020   35.3320 H   0  0  0  0  0  0  0  0  0  0  0  0
   32.8550   31.1220   35.0340 H   0  0  0  0  0  0  0  0  0  0  0  0
   29.9530   30.5050   34.8890 H   0  0  0  0  0  0  0  0  0  0  0  0
   32.8110   29.1000   36.6880 H   0  0  0  0  0  0  0  0  0  0  0  0
   31.6490   29.1490   38.1270 H   0  0  0  0  0  0  0  0  0  0  0  0
   33.2250   31.4330   37.5160 O   0  0  0  0  0  0  0  0  0  0  0  0
   33.3330   34.3410   37.7450 Cl  0  0  0  0  0  0  0  0  0  0  0  0
   34.4560   33.3390   36.8560 C   0  0  0  0  0  0  0  0  0  0  0  0
   34.2740   31.9740   36.8390 C   0  0  0  0  0  0  0  0  0  0  0  0
   35.1990   31.2640   36.1200 C   0  0  0  0  0  0  0  0  0  0  0  0
   35.1180   30.1950   36.0640 H   0  0  0  0  0  0  0  0  0  0  0  0
   36.2350   31.8510   35.4570 C   0  0  0  0  0  3  0  0  0  0  0  0
   36.3790   33.2220   35.5000 C   0  0  0  0  0  0  0  0  0  0  0  0
   37.6990   34.0080   34.6610 Cl  0  0  0  0  0  0  0  0  0  0  0  0
   35.4750   33.9810   36.2110 C   0  0  0  0  0  0  0  0  0  0  0  0
   35.5840   35.0650   36.2490 H   0  0  0  0  0  0  0  0  0  0  0  0
   31.8510   30.5870   32.6780 S   0  0  0  0  0  0  0  0  0  0  0  0
   35.5100   29.0630   32.3160 C   0  0  0  0  0  0  0  0  0  0  0  0
   36.2950   30.1730   31.9730 C   0  0  0  0  0  0  0  0  0  0  0  0
   35.7480   31.4320   31.8360 C   0  0  0  0  0  0  0  0  0  0  0  0
   34.3910   31.5300   32.0560 C   0  0  0  0  0  0  0  0  0  0  0  0
   33.6470   30.4450   32.3890 C   0  0  0  0  0  0  0  0  0  0  0  0
   34.1780   29.2070   32.5240 N   0  0  0  0  0  0  0  0  0  0  0  0
   37.3600   30.0750   31.8030 H   0  0  0  0  0  0  0  0  0  0  0  0
   36.3670   32.2820   31.5690 H   0  0  0  0  0  0  0  0  0  0  0  0
   33.8930   32.4870   31.9650 H   0  0  0  0  0  0  0  0  0  0  0  0
   36.1580   27.7940   32.4370 C   0  0  0  0  0  0  0  0  0  0  0  0
   35.8270   26.8380   31.7400 O   0  0  0  0  0  0  0  0  0  0  0  0
   36.9750   27.7560   34.7660 C   0  0  0  0  0  0  0  0  0  0  0  0
   37.2470   27.5540   33.3930 C   0  0  0  0  0  0  0  0  0  0  0  0
   38.5260   27.1400   33.0040 C   0  0  0  0  0  0  0  0  0  0  0  0
   39.4670   26.9460   33.9800 N   0  0  0  0  0  0  0  0  0  0  0  0
   39.1830   27.1450   35.2790 C   0  0  0  0  0  0  0  0  0  0  0  0
   37.9700   27.5380   35.6570 N   0  0  0  0  0  0  0  0  0  0  0  0
   35.9750   28.0760   35.0320 H   0  0  0  0  0  0  0  0  0  0  0  0
   38.7180   26.9920   31.9690 H   0  0  0  0  0  0  0  0  0  0  0  0
   39.9040   27.0000   36.0740 H   0  0  0  0  0  0  0  0  0  0  0  0
  1  2  1  0  0  0  0
  1  6  1  0  0  0  0
  3  1  1  0  0  0  0
  4  8  1  0  0  0  0
  4 15  1  0  0  0  0
  4  9  1  1  0  0  0
  5  4  1  0  0  0  0
  6 12  1  6  0  0  0
  6  5  1  0  0  0  0
  6  7  1  0  0  0  0
  7  8  1  0  0  0  0
  8 14  1  0  0  0  0
 10  5  1  0  0  0  0
 11  5  1  0  0  0  0
 13  8  1  0  0  0  0
 17 16  1  0  0  0  0
 18 17  1  0  0  0  0
 18 15  1  0  0  0  0
 19 18  2  0  0  0  0
 20 19  1  0  0  0  0
 21 22  2  0  0  0  0
 21 19  1  0  0  0  0
 22 24  1  0  0  0  0
 23 22  1  0  0  0  0
 24 25  1  0  0  0  0
 24 17  2  0  0  0  0
 26  1  1  0  0  0  0
 27 36  1  0  0  0  0
 27 32  1  0  0  0  0
 28 27  2  0  0  0  0
 29 28  1  0  0  0  0
 29 30  2  0  0  0  0
 30 31  1  0  0  0  0
 31 32  2  0  0  0  0
 31 26  1  0  0  0  0
 33 28  1  0  0  0  0
 34 29  1  0  0  0  0
 35 30  1  0  0  0  0
 36 39  1  0  0  0  0
 37 36  2  0  0  0  0
 38 44  1  0  0  0  0
 38 43  1  0  0  0  0
 39 38  2  0  0  0  0
 40 39  1  0  0  0  0
 40 41  2  0  0  0  0
 41 42  1  0  0  0  0
 42 43  2  0  0  0  0
 42 46  1  0  0  0  0
 45 40  1  0  0  0  0
M  END
>  <minimizedAffinity>
-5.88544512

$$$$

 OpenBabel03262522173D

 46 49  0  0  1  0  0  0  0  0999 V2000
   36.3070   30.0210   31.6360 C   0  0  0  0  0  0  0  0  0  0  0  0
   37.1380   30.2290   32.3590 H   0  0  0  0  0  0  0  0  0  0  0  0
   36.7230   30.0490   30.6250 H   0  0  0  0  0  0  0  0  0  0  0  0
   36.8710   26.6610   32.6130 C   0  0  1  0  0  0  0  0  0  0  0  0
   36.4320   28.0270   33.1240 C   0  0  0  0  0  0  0  0  0  0  0  0
   35.8210   28.6070   31.8690 C   0  0  2  0  0  0  0  0  0  0  0  0
   36.0970   27.7820   30.8230 O   0  0  0  0  0  0  0  0  0  0  0  0
   37.1900   26.9970   31.1650 C   0  0  0  0  0  0  0  0  0  0  0  0
   36.0280   25.9540   32.6890 H   0  0  0  0  0  0  0  0  0  0  0  0
   35.6350   27.9100   33.8940 H   0  0  0  0  0  0  0  0  0  0  0  0
   37.2900   28.6350   33.4540 H   0  0  0  0  0  0  0  0  0  0  0  0
   34.7120   28.6650   31.9790 H   0  0  0  0  0  0  0  0  0  0  0  0
   38.1250   27.6030   31.2030 H   0  0  0  0  0  0  0  0  0  0  0  0
   37.2730   26.1010   30.5390 H   0  0  0  0  0  0  0  0  0  0  0  0
   37.9880   26.2110   33.2870 O   0  0  0  0  0  0  0  0  0  0  0  0
   38.1130   23.3060   33.0390 Cl  0  0  0  0  0  0  0  0  0  0  0  0
   38.1450   24.2110   34.5350 C   0  0  0  0  0  0  0  0  0  0  0  0
   38.0770   25.5850   34.4910 C   0  0  0  0  0  0  0  0  0  0  0  0
   38.1100   26.2160   35.7080 C   0  0  0  0  0  0  0  0  0  0  0  0
   38.0610   27.2880   35.7480 H   0  0  0  0  0  0  0  0  0  0  0  0
   38.2000   25.5460   36.8910 C   0  0  0  0  0  3  0  0  0  0  0  0
   38.2640   24.1680   36.8870 C   0  0  0  0  0  0  0  0  0  0  0  0
   38.3820   23.2750   38.3880 Cl  0  0  0  0  0  0  0  0  0  0  0  0
   38.2370   23.4870   35.6900 C   0  0  0  0  0  0  0  0  0  0  0  0
   38.2870   22.3970   35.6800 H   0  0  0  0  0  0  0  0  0  0  0  0
   34.9060   31.1340   31.9060 S   0  0  0  0  0  0  0  0  0  0  0  0
   33.4730   31.1740   35.6190 C   0  0  0  0  0  0  0  0  0  0  0  0
   34.5610   31.6160   36.3860 C   0  0  0  0  0  0  0  0  0  0  0  0
   35.7770   31.9210   35.8090 C   0  0  0  0  0  0  0  0  0  0  0  0
   35.8550   31.7650   34.4420 C   0  0  0  0  0  0  0  0  0  0  0  0
   34.7910   31.3370   33.7160 C   0  0  0  0  0  0  0  0  0  0  0  0
   33.5950   31.0360   34.2760 N   0  0  0  0  0  0  0  0  0  0  0  0
   34.4790   31.7310   37.4600 H   0  0  0  0  0  0  0  0  0  0  0  0
   36.6100   32.2610   36.4140 H   0  0  0  0  0  0  0  0  0  0  0  0
   36.7790   31.9840   33.9210 H   0  0  0  0  0  0  0  0  0  0  0  0
   32.2490   30.8810   36.2970 C   0  0  0  0  0  0  0  0  0  0  0  0
   31.5920   31.7650   36.8420 O   0  0  0  0  0  0  0  0  0  0  0  0
   31.6240   28.9250   37.6660 C   0  0  0  0  0  0  0  0  0  0  0  0
   31.7060   29.5190   36.3870 C   0  0  0  0  0  0  0  0  0  0  0  0
   31.2720   28.7970   35.2690 C   0  0  0  0  0  0  0  0  0  0  0  0
   30.7820   27.5330   35.4670 N   0  0  0  0  0  0  0  0  0  0  0  0
   30.7160   26.9900   36.6960 C   0  0  0  0  0  0  0  0  0  0  0  0
   31.1260   27.6700   37.7630 N   0  0  0  0  0  0  0  0  0  0  0  0
   31.9690   29.5120   38.5090 H   0  0  0  0  0  0  0  0  0  0  0  0
   31.3380   29.2540   34.3120 H   0  0  0  0  0  0  0  0  0  0  0  0
   30.3340   25.9950   36.8860 H   0  0  0  0  0  0  0  0  0  0  0  0
  1  6  1  0  0  0  0
  1 26  1  0  0  0  0
  1  2  1  0  0  0  0
  3  1  1  0  0  0  0
  4  9  1  1  0  0  0
  4  5  1  0  0  0  0
  4 15  1  0  0  0  0
  5 11  1  0  0  0  0
  5 10  1  0  0  0  0
  6 12  1  1  0  0  0
  6  5  1  0  0  0  0
  7  8  1  0  0  0  0
  7  6  1  0  0  0  0
  8 13  1  0  0  0  0
  8  4  1  0  0  0  0
 14  8  1  0  0  0  0
 15 18  1  0  0  0  0
 16 17  1  0  0  0  0
 17 24  1  0  0  0  0
 18 17  2  0  0  0  0
 18 19  1  0  0  0  0
 19 20  1  0  0  0  0
 19 21  2  0  0  0  0
 22 21  1  0  0  0  0
 22 23  1  0  0  0  0
 24 22  2  0  0  0  0
 25 24  1  0  0  0  0
 26 31  1  0  0  0  0
 27 36  1  0  0  0  0
 27 28  1  0  0  0  0
 28 33  1  0  0  0  0
 29 28  2  0  0  0  0
 29 34  1  0  0  0  0
 30 29  1  0  0  0  0
 31 32  1  0  0  0  0
 31 30  2  0  0  0  0
 32 27  2  0  0  0  0
 35 30  1  0  0  0  0
 36 39  1  0  0  0  0
 36 37  2  0  0  0  0
 38 43  1  0  0  0  0
 38 44  1  0  0  0  0
 39 38  2  0  0  0  0
 40 41  2  0  0  0  0
 40 39  1  0  0  0  0
 41 42  1  0  0  0  0
 42 46  1  0  0  0  0
 42 43  2  0  0  0  0
 45 40  1  0  0  0  0
M  END
>  <minimizedAffinity>
-5.87906551

$$$$

 OpenBabel03262522173D

 46 49  0  0  1  0  0  0  0  0999 V2000
   37.9840   25.2140   35.9940 C   0  0  0  0  0  0  0  0  0  0  0  0
   36.9410   25.0760   35.6070 H   0  0  0  0  0  0  0  0  0  0  0  0
   38.0080   24.8690   37.0320 H   0  0  0  0  0  0  0  0  0  0  0  0
   38.5990   22.2310   34.1810 C   0  0  1  0  0  0  0  0  0  0  0  0
   38.1790   23.6870   34.0350 C   0  0  0  0  0  0  0  0  0  0  0  0
   38.9030   24.3020   35.2110 C   0  0  2  0  0  0  0  0  0  0  0  0
   39.4260   23.3060   35.9760 O   0  0  0  0  0  0  0  0  0  0  0  0
   38.7390   22.1340   35.6930 C   0  0  0  0  0  0  0  0  0  0  0  0
   39.5670   22.0770   33.6750 H   0  0  0  0  0  0  0  0  0  0  0  0
   38.5930   24.1140   33.0930 H   0  0  0  0  0  0  0  0  0  0  0  0
   37.0890   23.8110   34.1440 H   0  0  0  0  0  0  0  0  0  0  0  0
   39.7470   24.9360   34.8480 H   0  0  0  0  0  0  0  0  0  0  0  0
   37.6960   22.1720   36.0870 H   0  0  0  0  0  0  0  0  0  0  0  0
   39.2920   21.2400   36.0030 H   0  0  0  0  0  0  0  0  0  0  0  0
   37.6230   21.3790   33.7070 O   0  0  0  0  0  0  0  0  0  0  0  0
   35.0270   21.7420   32.4230 Cl  0  0  0  0  0  0  0  0  0  0  0  0
   36.3710   20.8260   31.7810 C   0  0  0  0  0  0  0  0  0  0  0  0
   37.5380   20.7450   32.5060 C   0  0  0  0  0  0  0  0  0  0  0  0
   38.5410   20.0090   31.9310 C   0  0  0  0  0  0  0  0  0  0  0  0
   39.4800   19.9030   32.4420 H   0  0  0  0  0  0  0  0  0  0  0  0
   38.4110   19.3910   30.7240 C   0  0  0  0  0  3  0  0  0  0  0  0
   37.2220   19.4980   30.0310 C   0  0  0  0  0  0  0  0  0  0  0  0
   37.0200   18.7170   28.4770 Cl  0  0  0  0  0  0  0  0  0  0  0  0
   36.1840   20.2280   30.5670 C   0  0  0  0  0  0  0  0  0  0  0  0
   35.2420   20.3170   30.0240 H   0  0  0  0  0  0  0  0  0  0  0  0
   38.5570   26.9130   35.7510 S   0  0  0  0  0  0  0  0  0  0  0  0
   35.7300   28.8790   33.7540 C   0  0  0  0  0  0  0  0  0  0  0  0
   36.0100   28.5820   32.4120 C   0  0  0  0  0  0  0  0  0  0  0  0
   37.0700   27.7730   32.0550 C   0  0  0  0  0  0  0  0  0  0  0  0
   37.8300   27.2770   33.0930 C   0  0  0  0  0  0  0  0  0  0  0  0
   37.5430   27.5750   34.3860 C   0  0  0  0  0  0  0  0  0  0  0  0
   36.5060   28.3690   34.7420 N   0  0  0  0  0  0  0  0  0  0  0  0
   35.4010   28.9820   31.6110 H   0  0  0  0  0  0  0  0  0  0  0  0
   37.2750   27.5520   31.0140 H   0  0  0  0  0  0  0  0  0  0  0  0
   38.6780   26.6360   32.8880 H   0  0  0  0  0  0  0  0  0  0  0  0
   34.6140   29.7260   34.0350 C   0  0  0  0  0  0  0  0  0  0  0  0
   33.5590   29.6220   33.4120 O   0  0  0  0  0  0  0  0  0  0  0  0
   33.5600   30.8500   35.9630 C   0  0  0  0  0  0  0  0  0  0  0  0
   34.6550   30.7640   35.0730 C   0  0  0  0  0  0  0  0  0  0  0  0
   35.7210   31.6610   35.2130 C   0  0  0  0  0  0  0  0  0  0  0  0
   35.6550   32.5900   36.2170 N   0  0  0  0  0  0  0  0  0  0  0  0
   34.6020   32.6510   37.0510 C   0  0  0  0  0  0  0  0  0  0  0  0
   33.5850   31.8020   36.9250 N   0  0  0  0  0  0  0  0  0  0  0  0
   32.7530   30.1410   35.8270 H   0  0  0  0  0  0  0  0  0  0  0  0
   36.5380   31.5870   34.5380 H   0  0  0  0  0  0  0  0  0  0  0  0
   34.5210   33.3720   37.8540 H   0  0  0  0  0  0  0  0  0  0  0  0
  1  3  1  0  0  0  0
  2  1  1  0  0  0  0
  4  9  1  6  0  0  0
  4  8  1  0  0  0  0
  5 11  1  0  0  0  0
  5  4  1  0  0  0  0
  5  6  1  0  0  0  0
  6 12  1  6  0  0  0
  6  7  1  0  0  0  0
  6  1  1  0  0  0  0
  8  7  1  0  0  0  0
  8 14  1  0  0  0  0
  8 13  1  0  0  0  0
 10  5  1  0  0  0  0
 15  4  1  0  0  0  0
 17 16  1  0  0  0  0
 17 18  1  0  0  0  0
 18 15  1  0  0  0  0
 19 20  1  0  0  0  0
 19 18  2  0  0  0  0
 21 19  1  0  0  0  0
 22 24  1  0  0  0  0
 22 21  2  0  0  0  0
 23 22  1  0  0  0  0
 24 17  2  0  0  0  0
 25 24  1  0  0  0  0
 26  1  1  0  0  0  0
 27 36  1  0  0  0  0
 27 32  1  0  0  0  0
 28 27  2  0  0  0  0
 29 28  1  0  0  0  0
 29 30  2  0  0  0  0
 30 31  1  0  0  0  0
 31 32  2  0  0  0  0
 31 26  1  0  0  0  0
 33 28  1  0  0  0  0
 34 29  1  0  0  0  0
 35 30  1  0  0  0  0
 36 39  1  0  0  0  0
 37 36  2  0  0  0  0
 38 43  1  0  0  0  0
 39 40  1  0  0  0  0
 39 38  2  0  0  0  0
 40 41  2  0  0  0  0
 41 42  1  0  0  0  0
 42 46  1  0  0  0  0
 43 42  2  0  0  0  0
 44 38  1  0  0  0  0
 45 40  1  0  0  0  0
M  END
>  <minimizedAffinity>
-5.80939007

$$$$

 OpenBabel03262522173D

 46 49  0  0  1  0  0  0  0  0999 V2000
   39.2220   26.5820   34.4470 C   0  0  0  0  0  0  0  0  0  0  0  0
   40.2310   26.0950   34.4700 H   0  0  0  0  0  0  0  0  0  0  0  0
   39.2440   27.4390   35.1270 H   0  0  0  0  0  0  0  0  0  0  0  0
   38.3860   26.1570   31.0290 C   0  0  1  0  0  0  0  0  0  0  0  0
   37.8060   26.4750   32.4000 C   0  0  0  0  0  0  0  0  0  0  0  0
   38.9970   27.1360   33.0560 C   0  0  2  0  0  0  0  0  0  0  0  0
   40.0830   26.9840   32.2520 O   0  0  0  0  0  0  0  0  0  0  0  0
   39.8440   25.9200   31.3930 C   0  0  0  0  0  0  0  0  0  0  0  0
   38.2720   27.0340   30.3700 H   0  0  0  0  0  0  0  0  0  0  0  0
   36.9850   27.2220   32.3050 H   0  0  0  0  0  0  0  0  0  0  0  0
   37.5210   25.5600   32.9450 H   0  0  0  0  0  0  0  0  0  0  0  0
   38.8060   28.2290   33.1750 H   0  0  0  0  0  0  0  0  0  0  0  0
   39.8550   24.9490   31.9410 H   0  0  0  0  0  0  0  0  0  0  0  0
   40.5000   25.9360   30.5160 H   0  0  0  0  0  0  0  0  0  0  0  0
   37.8080   25.0250   30.4910 O   0  0  0  0  0  0  0  0  0  0  0  0
   34.8980   25.0120   30.7160 Cl  0  0  0  0  0  0  0  0  0  0  0  0
   35.9790   23.7670   31.2980 C   0  0  0  0  0  0  0  0  0  0  0  0
   37.3350   23.9150   31.1180 C   0  0  0  0  0  0  0  0  0  0  0  0
   38.1090   22.8930   31.6030 C   0  0  0  0  0  0  0  0  0  0  0  0
   39.1770   22.9430   31.4970 H   0  0  0  0  0  0  0  0  0  0  0  0
   37.5910   21.7980   32.2260 C   0  0  0  0  0  3  0  0  0  0  0  0
   36.2250   21.6920   32.3850 C   0  0  0  0  0  0  0  0  0  0  0  0
   35.5230   20.2980   33.1790 Cl  0  0  0  0  0  0  0  0  0  0  0  0
   35.4030   22.6920   31.9140 C   0  0  0  0  0  0  0  0  0  0  0  0
   34.3220   22.6130   32.0370 H   0  0  0  0  0  0  0  0  0  0  0  0
   37.9060   25.3870   34.7830 S   0  0  0  0  0  0  0  0  0  0  0  0
   40.0980   23.0430   37.1360 C   0  0  0  0  0  0  0  0  0  0  0  0
   39.3710   23.0090   38.3350 C   0  0  0  0  0  0  0  0  0  0  0  0
   38.1840   23.6960   38.4810 C   0  0  0  0  0  0  0  0  0  0  0  0
   37.7600   24.4130   37.3830 C   0  0  0  0  0  0  0  0  0  0  0  0
   38.4770   24.4340   36.2300 C   0  0  0  0  0  0  0  0  0  0  0  0
   39.6430   23.7620   36.0810 N   0  0  0  0  0  0  0  0  0  0  0  0
   39.7220   22.4390   39.1870 H   0  0  0  0  0  0  0  0  0  0  0  0
   37.6320   23.6610   39.4140 H   0  0  0  0  0  0  0  0  0  0  0  0
   36.8370   24.9780   37.4250 H   0  0  0  0  0  0  0  0  0  0  0  0
   41.3190   22.3010   37.0710 C   0  0  0  0  0  0  0  0  0  0  0  0
   41.4790   21.2730   37.7250 O   0  0  0  0  0  0  0  0  0  0  0  0
   42.6170   22.0670   34.9850 C   0  0  0  0  0  0  0  0  0  0  0  0
   42.4480   22.7170   36.2290 C   0  0  0  0  0  0  0  0  0  0  0  0
   43.3530   23.7170   36.6050 C   0  0  0  0  0  0  0  0  0  0  0  0
   44.3710   24.0250   35.7420 N   0  0  0  0  0  0  0  0  0  0  0  0
   44.5090   23.3920   34.5640 C   0  0  0  0  0  0  0  0  0  0  0  0
   43.6540   22.4400   34.1990 N   0  0  0  0  0  0  0  0  0  0  0  0
   41.8990   21.2980   34.7250 H   0  0  0  0  0  0  0  0  0  0  0  0
   43.2160   24.1980   37.5420 H   0  0  0  0  0  0  0  0  0  0  0  0
   45.3020   23.6130   33.8600 H   0  0  0  0  0  0  0  0  0  0  0  0
  1  2  1  0  0  0  0
  1 26  1  0  0  0  0
  1  3  1  0  0  0  0
  4  9  1  6  0  0  0
  4  8  1  0  0  0  0
  4  5  1  0  0  0  0
  5 11  1  0  0  0  0
  5  6  1  0  0  0  0
  6 12  1  1  0  0  0
  6  1  1  0  0  0  0
  7  6  1  0  0  0  0
  8 13  1  0  0  0  0
  8  7  1  0  0  0  0
 10  5  1  0  0  0  0
 14  8  1  0  0  0  0
 15  4  1  0  0  0  0
 15 18  1  0  0  0  0
 16 17  1  0  0  0  0
 17 24  1  0  0  0  0
 18 17  2  0  0  0  0
 18 19  1  0  0  0  0
 19 21  2  0  0  0  0
 20 19  1  0  0  0  0
 21 22  1  0  0  0  0
 22 23  1  0  0  0  0
 24 25  1  0  0  0  0
 24 22  2  0  0  0  0
 26 31  1  0  0  0  0
 27 28  1  0  0  0  0
 28 29  2  0  0  0  0
 28 33  1  0  0  0  0
 29 34  1  0  0  0  0
 30 35  1  0  0  0  0
 30 29  1  0  0  0  0
 31 30  2  0  0  0  0
 32 31  1  0  0  0  0
 32 27  2  0  0  0  0
 36 27  1  0  0  0  0
 36 37  2  0  0  0  0
 38 39  1  0  0  0  0
 39 40  2  0  0  0  0
 39 36  1  0  0  0  0
 40 45  1  0  0  0  0
 41 40  1  0  0  0  0
 42 41  2  0  0  0  0
 43 42  1  0  0  0  0
 43 38  2  0  0  0  0
 44 38  1  0  0  0  0
 46 42  1  0  0  0  0
M  END
>  <minimizedAffinity>
-5.80724144

$$$$

 OpenBabel03262522173D

 46 49  0  0  1  0  0  0  0  0999 V2000
   32.0590   29.4520   33.0860 C   0  0  0  0  0  0  0  0  0  0  0  0
   32.6870   28.5590   33.3400 H   0  0  0  0  0  0  0  0  0  0  0  0
   31.3250   29.1470   32.3330 H   0  0  0  0  0  0  0  0  0  0  0  0
   31.9060   30.6190   36.4290 C   0  0  1  0  0  0  0  0  0  0  0  0
   31.8830   31.0680   34.9740 C   0  0  0  0  0  0  0  0  0  0  0  0
   31.2760   29.8470   34.3190 C   0  0  2  0  0  0  0  0  0  0  0  0
   31.2070   28.8440   35.2360 O   0  0  0  0  0  0  0  0  0  0  0  0
   32.1090   29.1220   36.2540 C   0  0  0  0  0  0  0  0  0  0  0  0
   30.9320   30.8430   36.8970 H   0  0  0  0  0  0  0  0  0  0  0  0
   31.1860   31.9280   34.8490 H   0  0  0  0  0  0  0  0  0  0  0  0
   32.8980   31.2510   34.5860 H   0  0  0  0  0  0  0  0  0  0  0  0
   30.2380   30.0760   33.9790 H   0  0  0  0  0  0  0  0  0  0  0  0
   33.1610   29.0080   35.9020 H   0  0  0  0  0  0  0  0  0  0  0  0
   31.8900   28.5620   37.1700 H   0  0  0  0  0  0  0  0  0  0  0  0
   32.9560   31.1970   37.1130 O   0  0  0  0  0  0  0  0  0  0  0  0
   32.8570   34.0890   37.4860 Cl  0  0  0  0  0  0  0  0  0  0  0  0
   34.1580   33.1950   36.7360 C   0  0  0  0  0  0  0  0  0  0  0  0
   34.0610   31.8260   36.6310 C   0  0  0  0  0  0  0  0  0  0  0  0
   35.1240   31.2030   36.0300 C   0  0  0  0  0  0  0  0  0  0  0  0
   35.1150   30.1350   35.9150 H   0  0  0  0  0  0  0  0  0  0  0  0
   36.2120   31.8760   35.5610 C   0  0  0  0  0  3  0  0  0  0  0  0
   36.2670   33.2480   35.6860 C   0  0  0  0  0  0  0  0  0  0  0  0
   37.6490   34.1450   35.0950 Cl  0  0  0  0  0  0  0  0  0  0  0  0
   35.2240   33.9210   36.2840 C   0  0  0  0  0  0  0  0  0  0  0  0
   35.2610   35.0060   36.3860 H   0  0  0  0  0  0  0  0  0  0  0  0
   33.0840   30.8650   32.6090 S   0  0  0  0  0  0  0  0  0  0  0  0
   36.2400   28.4600   32.2900 C   0  0  0  0  0  0  0  0  0  0  0  0
   36.9900   29.0390   31.2570 C   0  0  0  0  0  0  0  0  0  0  0  0
   36.5710   30.1850   30.6120 C   0  0  0  0  0  0  0  0  0  0  0  0
   35.3770   30.7210   31.0430 C   0  0  0  0  0  0  0  0  0  0  0  0
   34.6640   30.1470   32.0460 C   0  0  0  0  0  0  0  0  0  0  0  0
   35.0700   29.0220   32.6820 N   0  0  0  0  0  0  0  0  0  0  0  0
   37.9270   28.6030   30.9320 H   0  0  0  0  0  0  0  0  0  0  0  0
   37.1620   30.6220   29.8140 H   0  0  0  0  0  0  0  0  0  0  0  0
   34.9850   31.6190   30.5820 H   0  0  0  0  0  0  0  0  0  0  0  0
   36.7480   27.2730   32.9040 C   0  0  0  0  0  0  0  0  0  0  0  0
   37.3860   27.3190   33.9540 O   0  0  0  0  0  0  0  0  0  0  0  0
   37.3830   24.8920   32.7710 C   0  0  0  0  0  0  0  0  0  0  0  0
   36.5430   25.9390   32.3270 C   0  0  0  0  0  0  0  0  0  0  0  0
   35.5640   25.6670   31.3640 C   0  0  0  0  0  0  0  0  0  0  0  0
   35.4600   24.3840   30.8930 N   0  0  0  0  0  0  0  0  0  0  0  0
   36.2720   23.4070   31.3330 C   0  0  0  0  0  0  0  0  0  0  0  0
   37.2050   23.6570   32.2460 N   0  0  0  0  0  0  0  0  0  0  0  0
   38.1300   25.1380   33.5160 H   0  0  0  0  0  0  0  0  0  0  0  0
   34.9390   26.4610   31.0380 H   0  0  0  0  0  0  0  0  0  0  0  0
   36.2150   22.3840   30.9810 H   0  0  0  0  0  0  0  0  0  0  0  0
  1  2  1  0  0  0  0
  1  6  1  0  0  0  0
  3  1  1  0  0  0  0
  4  9  1  1  0  0  0
  4 15  1  0  0  0  0
  5  4  1  0  0  0  0
  6 12  1  6  0  0  0
  6  5  1  0  0  0  0
  6  7  1  0  0  0  0
  7  8  1  0  0  0  0
  8  4  1  0  0  0  0
  8 14  1  0  0  0  0
 10  5  1  0  0  0  0
 11  5  1  0  0  0  0
 13  8  1  0  0  0  0
 17 16  1  0  0  0  0
 18 17  1  0  0  0  0
 18 15  1  0  0  0  0
 19 18  2  0  0  0  0
 20 19  1  0  0  0  0
 21 22  2  0  0  0  0
 21 19  1  0  0  0  0
 22 24  1  0  0  0  0
 23 22  1  0  0  0  0
 24 25  1  0  0  0  0
 24 17  2  0  0  0  0
 26  1  1  0  0  0  0
 27 32  1  0  0  0  0
 27 36  1  0  0  0  0
 28 27  2  0  0  0  0
 29 30  2  0  0  0  0
 29 28  1  0  0  0  0
 30 31  1  0  0  0  0
 31 26  1  0  0  0  0
 31 32  2  0  0  0  0
 33 28  1  0  0  0  0
 34 29  1  0  0  0  0
 35 30  1  0  0  0  0
 36 37  2  0  0  0  0
 38 44  1  0  0  0  0
 39 38  1  0  0  0  0
 39 36  1  0  0  0  0
 40 39  2  0  0  0  0
 41 42  2  0  0  0  0
 41 40  1  0  0  0  0
 42 43  1  0  0  0  0
 43 38  2  0  0  0  0
 45 40  1  0  0  0  0
 46 42  1  0  0  0  0
M  END
>  <minimizedAffinity>
-5.7407918

$$$$

 OpenBabel03262522173D

 46 49  0  0  1  0  0  0  0  0999 V2000
   41.5170   26.2810   34.2930 C   0  0  0  0  0  0  0  0  0  0  0  0
   42.0300   27.2550   34.5050 H   0  0  0  0  0  0  0  0  0  0  0  0
   40.6280   26.2210   34.9290 H   0  0  0  0  0  0  0  0  0  0  0  0
   38.9010   26.2670   31.9020 C   0  0  1  0  0  0  0  0  0  0  0  0
   39.7980   27.1780   32.7290 C   0  0  0  0  0  0  0  0  0  0  0  0
   41.0260   26.3070   32.8610 C   0  0  2  0  0  0  0  0  0  0  0  0
   40.7390   25.0650   32.3860 O   0  0  0  0  0  0  0  0  0  0  0  0
   39.3600   24.9040   32.3950 C   0  0  0  0  0  0  0  0  0  0  0  0
   39.1240   26.4070   30.8310 H   0  0  0  0  0  0  0  0  0  0  0  0
   40.0630   28.0890   32.1440 H   0  0  0  0  0  0  0  0  0  0  0  0
   39.3640   27.3900   33.7200 H   0  0  0  0  0  0  0  0  0  0  0  0
   41.8580   26.7280   32.2470 H   0  0  0  0  0  0  0  0  0  0  0  0
   38.9710   24.8220   33.4360 H   0  0  0  0  0  0  0  0  0  0  0  0
   39.0310   24.0910   31.7380 H   0  0  0  0  0  0  0  0  0  0  0  0
   37.5680   26.4860   32.1870 O   0  0  0  0  0  0  0  0  0  0  0  0
   36.9990   26.6770   35.0430 Cl  0  0  0  0  0  0  0  0  0  0  0  0
   36.6000   27.8750   33.8340 C   0  0  0  0  0  0  0  0  0  0  0  0
   36.9330   27.6420   32.5190 C   0  0  0  0  0  0  0  0  0  0  0  0
   36.5850   28.6320   31.6380 C   0  0  0  0  0  0  0  0  0  0  0  0
   36.8150   28.5170   30.5950 H   0  0  0  0  0  0  0  0  0  0  0  0
   35.9490   29.7760   32.0180 C   0  0  0  0  0  3  0  0  0  0  0  0
   35.6330   29.9670   33.3470 C   0  0  0  0  0  0  0  0  0  0  0  0
   34.8170   31.4250   33.8700 Cl  0  0  0  0  0  0  0  0  0  0  0  0
   35.9630   29.0020   34.2720 C   0  0  0  0  0  0  0  0  0  0  0  0
   35.7160   29.1470   35.3250 H   0  0  0  0  0  0  0  0  0  0  0  0
   42.6580   24.8870   34.4580 S   0  0  0  0  0  0  0  0  0  0  0  0
   39.7900   22.9200   36.3940 C   0  0  0  0  0  0  0  0  0  0  0  0
   40.4930   21.9520   37.1270 C   0  0  0  0  0  0  0  0  0  0  0  0
   41.8680   21.8550   37.0650 C   0  0  0  0  0  0  0  0  0  0  0  0
   42.5030   22.7620   36.2440 C   0  0  0  0  0  0  0  0  0  0  0  0
   41.8060   23.6910   35.5430 C   0  0  0  0  0  0  0  0  0  0  0  0
   40.4570   23.7910   35.5990 N   0  0  0  0  0  0  0  0  0  0  0  0
   39.9750   21.2480   37.7670 H   0  0  0  0  0  0  0  0  0  0  0  0
   42.3990   21.1020   37.6370 H   0  0  0  0  0  0  0  0  0  0  0  0
   43.5810   22.7440   36.1460 H   0  0  0  0  0  0  0  0  0  0  0  0
   38.3660   22.9500   36.5160 C   0  0  0  0  0  0  0  0  0  0  0  0
   37.8110   23.6600   37.3520 O   0  0  0  0  0  0  0  0  0  0  0  0
   36.3960   21.4830   36.2750 C   0  0  0  0  0  0  0  0  0  0  0  0
   37.4850   22.1440   35.6620 C   0  0  0  0  0  0  0  0  0  0  0  0
   37.6790   22.0040   34.2830 C   0  0  0  0  0  0  0  0  0  0  0  0
   36.7960   21.2270   33.5810 N   0  0  0  0  0  0  0  0  0  0  0  0
   35.7680   20.6080   34.1890 C   0  0  0  0  0  0  0  0  0  0  0  0
   35.5770   20.7350   35.4990 N   0  0  0  0  0  0  0  0  0  0  0  0
   36.2750   21.6120   37.3440 H   0  0  0  0  0  0  0  0  0  0  0  0
   38.5010   22.5060   33.8330 H   0  0  0  0  0  0  0  0  0  0  0  0
   35.0530   19.9880   33.6630 H   0  0  0  0  0  0  0  0  0  0  0  0
  1 26  1  0  0  0  0
  1  2  1  0  0  0  0
  1  3  1  0  0  0  0
  4  9  1  6  0  0  0
  4 15  1  0  0  0  0
  4  8  1  0  0  0  0
  4  5  1  0  0  0  0
  5  6  1  0  0  0  0
  5 11  1  0  0  0  0
  6 12  1  6  0  0  0
  6  1  1  0  0  0  0
  7  8  1  0  0  0  0
  7  6  1  0  0  0  0
  8 13  1  0  0  0  0
 10  5  1  0  0  0  0
 14  8  1  0  0  0  0
 15 18  1  0  0  0  0
 17 24  1  0  0  0  0
 17 16  1  0  0  0  0
 18 17  2  0  0  0  0
 19 21  2  0  0  0  0
 19 18  1  0  0  0  0
 20 19  1  0  0  0  0
 21 22  1  0  0  0  0
 22 23  1  0  0  0  0
 22 24  2  0  0  0  0
 24 25  1  0  0  0  0
 26 31  1  0  0  0  0
 27 36  1  0  0  0  0
 27 28  1  0  0  0  0
 28 33  1  0  0  0  0
 29 28  2  0  0  0  0
 29 34  1  0  0  0  0
 30 29  1  0  0  0  0
 31 32  1  0  0  0  0
 31 30  2  0  0  0  0
 32 27  2  0  0  0  0
 35 30  1  0  0  0  0
 36 37  2  0  0  0  0
 38 44  1  0  0  0  0
 39 38  1  0  0  0  0
 39 36  1  0  0  0  0
 40 39  2  0  0  0  0
 41 42  2  0  0  0  0
 41 40  1  0  0  0  0
 42 43  1  0  0  0  0
 43 38  2  0  0  0  0
 45 40  1  0  0  0  0
 46 42  1  0  0  0  0
M  END
>  <minimizedAffinity>
-5.72472191

$$$$

 OpenBabel03262522173D

 46 49  0  0  1  0  0  0  0  0999 V2000
   41.4490   25.9430   32.2260 C   0  0  0  0  0  0  0  0  0  0  0  0
   40.8240   25.0340   32.4200 H   0  0  0  0  0  0  0  0  0  0  0  0
   42.4800   25.6160   32.0580 H   0  0  0  0  0  0  0  0  0  0  0  0
   38.8640   27.0260   30.0570 C   0  0  1  0  0  0  0  0  0  0  0  0
   39.7890   27.4770   31.1780 C   0  0  0  0  0  0  0  0  0  0  0  0
   40.9770   26.5750   30.9340 C   0  0  2  0  0  0  0  0  0  0  0  0
   40.6430   25.6510   29.9930 O   0  0  0  0  0  0  0  0  0  0  0  0
   39.2590   25.5620   29.9440 C   0  0  0  0  0  0  0  0  0  0  0  0
   39.1060   27.5820   29.1360 H   0  0  0  0  0  0  0  0  0  0  0  0
   40.1000   28.5350   31.0170 H   0  0  0  0  0  0  0  0  0  0  0  0
   39.3530   27.2830   32.1720 H   0  0  0  0  0  0  0  0  0  0  0  0
   41.8340   27.1730   30.5410 H   0  0  0  0  0  0  0  0  0  0  0  0
   38.8540   25.0770   30.8630 H   0  0  0  0  0  0  0  0  0  0  0  0
   38.9030   25.1050   29.0140 H   0  0  0  0  0  0  0  0  0  0  0  0
   37.5380   27.1670   30.4150 O   0  0  0  0  0  0  0  0  0  0  0  0
   36.9210   25.8540   32.9480 Cl  0  0  0  0  0  0  0  0  0  0  0  0
   36.6260   27.5340   32.5640 C   0  0  0  0  0  0  0  0  0  0  0  0
   36.9730   28.0110   31.3200 C   0  0  0  0  0  0  0  0  0  0  0  0
   36.7080   29.3380   31.1020 C   0  0  0  0  0  0  0  0  0  0  0  0
   36.9520   29.7770   30.1530 H   0  0  0  0  0  0  0  0  0  0  0  0
   36.1390   30.1470   32.0400 C   0  0  0  0  0  3  0  0  0  0  0  0
   35.8070   29.6260   33.2730 C   0  0  0  0  0  0  0  0  0  0  0  0
   35.0760   30.6360   34.5020 Cl  0  0  0  0  0  0  0  0  0  0  0  0
   36.0540   28.2980   33.5420 C   0  0  0  0  0  0  0  0  0  0  0  0
   35.7940   27.8800   34.5150 H   0  0  0  0  0  0  0  0  0  0  0  0
   41.2530   27.1700   33.5420 S   0  0  0  0  0  0  0  0  0  0  0  0
   39.1860   24.5280   35.6840 C   0  0  0  0  0  0  0  0  0  0  0  0
   38.2750   25.3230   36.3950 C   0  0  0  0  0  0  0  0  0  0  0  0
   38.2490   26.6960   36.2550 C   0  0  0  0  0  0  0  0  0  0  0  0
   39.1680   27.2330   35.3790 C   0  0  0  0  0  0  0  0  0  0  0  0
   40.0420   26.4480   34.6990 C   0  0  0  0  0  0  0  0  0  0  0  0
   40.0720   25.1010   34.8330 N   0  0  0  0  0  0  0  0  0  0  0  0
   37.5610   24.8820   37.0790 H   0  0  0  0  0  0  0  0  0  0  0  0
   37.5400   27.2990   36.8110 H   0  0  0  0  0  0  0  0  0  0  0  0
   39.2060   28.3030   35.2190 H   0  0  0  0  0  0  0  0  0  0  0  0
   39.1450   23.1140   35.8890 C   0  0  0  0  0  0  0  0  0  0  0  0
   38.0790   22.5010   35.9070 O   0  0  0  0  0  0  0  0  0  0  0  0
   40.7310   22.0030   37.4190 C   0  0  0  0  0  0  0  0  0  0  0  0
   40.3580   22.3120   36.0910 C   0  0  0  0  0  0  0  0  0  0  0  0
   41.1500   21.8490   35.0330 C   0  0  0  0  0  0  0  0  0  0  0  0
   42.2620   21.1080   35.3360 N   0  0  0  0  0  0  0  0  0  0  0  0
   42.5950   20.8280   36.6080 C   0  0  0  0  0  0  0  0  0  0  0  0
   41.8480   21.2650   37.6180 N   0  0  0  0  0  0  0  0  0  0  0  0
   40.0960   22.3770   38.2130 H   0  0  0  0  0  0  0  0  0  0  0  0
   40.8600   22.0870   34.0400 H   0  0  0  0  0  0  0  0  0  0  0  0
   43.4660   20.2450   36.8800 H   0  0  0  0  0  0  0  0  0  0  0  0
  1  2  1  0  0  0  0
  1 26  1  0  0  0  0
  3  1  1  0  0  0  0
  4  9  1  6  0  0  0
  4 15  1  0  0  0  0
  4  5  1  0  0  0  0
  5 11  1  0  0  0  0
  6 12  1  6  0  0  0
  6  5  1  0  0  0  0
  6  1  1  0  0  0  0
  7  6  1  0  0  0  0
  8  7  1  0  0  0  0
  8  4  1  0  0  0  0
  8 13  1  0  0  0  0
 10  5  1  0  0  0  0
 14  8  1  0  0  0  0
 15 18  1  0  0  0  0
 17 16  1  0  0  0  0
 17 24  1  0  0  0  0
 18 17  2  0  0  0  0
 19 18  1  0  0  0  0
 19 21  2  0  0  0  0
 20 19  1  0  0  0  0
 21 22  1  0  0  0  0
 22 24  2  0  0  0  0
 22 23  1  0  0  0  0
 24 25  1  0  0  0  0
 26 31  1  0  0  0  0
 27 36  1  0  0  0  0
 27 28  1  0  0  0  0
 28 33  1  0  0  0  0
 29 28  2  0  0  0  0
 29 34  1  0  0  0  0
 30 29  1  0  0  0  0
 31 32  1  0  0  0  0
 31 30  2  0  0  0  0
 32 27  2  0  0  0  0
 35 30  1  0  0  0  0
 36 37  2  0  0  0  0
 36 39  1  0  0  0  0
 38 43  1  0  0  0  0
 38 44  1  0  0  0  0
 39 38  2  0  0  0  0
 40 41  2  0  0  0  0
 40 39  1  0  0  0  0
 41 42  1  0  0  0  0
 42 46  1  0  0  0  0
 42 43  2  0  0  0  0
 45 40  1  0  0  0  0
M  END
>  <minimizedAffinity>
-5.67058372

$$$$
