
 OpenBabel03272501573D

 32 34  0  0  0  0  0  0  0  0999 V2000
   32.9290   28.1170   47.8730 C   0  0  0  0  0  0  0  0  0  0  0  0
   31.8430   27.7000   48.6280 C   0  0  0  0  0  0  0  0  0  0  0  0
   30.6540   28.0100   47.9970 C   0  0  0  0  0  0  0  0  0  0  0  0
   31.0620   28.6140   46.8640 N   0  0  0  0  0  0  0  0  0  0  0  0
   32.3790   28.6840   46.7750 N   0  0  0  0  0  0  0  0  0  0  0  0
   31.8550   27.1870   49.6020 H   0  0  0  0  0  0  0  0  0  0  0  0
   29.6270   27.8740   48.2180 H   0  0  0  0  0  0  0  0  0  0  0  0
   32.2770   31.1570   46.0260 Cl  0  0  0  0  0  0  0  0  0  0  0  0
   30.8920   30.3870   45.3010 C   0  0  0  0  0  0  0  0  0  0  0  0
   30.3760   29.1850   45.7530 C   0  0  0  0  0  0  0  0  0  0  0  0
   29.2640   28.6060   45.1400 C   0  0  0  0  0  0  0  0  0  0  0  0
   28.9740   27.6730   45.5970 H   0  0  0  0  0  0  0  0  0  0  0  0
   28.6630   29.2350   44.0670 C   0  0  0  0  0  3  0  0  0  0  0  0
   29.1730   30.4400   43.6070 C   0  0  0  0  0  0  0  0  0  0  0  0
   28.3720   31.2030   42.2330 Cl  0  0  0  0  0  0  0  0  0  0  0  0
   30.2830   31.0160   44.2190 C   0  0  0  0  0  0  0  0  0  0  0  0
   30.6570   31.9600   43.8350 H   0  0  0  0  0  0  0  0  0  0  0  0
   34.3750   27.9360   48.2700 C   0  0  0  0  0  0  0  0  0  0  0  0
   34.6580   26.8590   48.1710 H   0  0  0  0  0  0  0  0  0  0  0  0
   35.0110   28.5460   47.6040 H   0  0  0  0  0  0  0  0  0  0  0  0
   34.4800   28.3630   49.7000 C   0  0  0  0  0  0  0  0  0  0  0  0
   34.5230   27.5170   50.4210 H   0  0  0  0  0  0  0  0  0  0  0  0
   33.6120   28.9950   50.0300 H   0  0  0  0  0  0  0  0  0  0  0  0
   37.2880   30.1760   51.2840 C   0  0  0  0  0  0  0  0  0  0  0  0
   38.0280   30.6390   50.1860 C   0  0  0  0  0  0  0  0  0  0  0  0
   37.5390   30.3150   48.8970 C   0  0  0  0  0  0  0  0  0  0  0  0
   36.4050   29.5880   48.7850 N   0  0  0  0  0  0  0  0  0  0  0  0
   35.7350   29.1680   49.8900 C   0  0  0  0  0  0  0  0  0  0  0  0
   36.1780   29.4630   51.1060 N   0  0  0  0  0  0  0  0  0  0  0  0
   37.7070   30.4520   52.2410 H   0  0  0  0  0  0  0  0  0  0  0  0
   38.9250   31.2130   50.1710 H   0  0  0  0  0  0  0  0  0  0  0  0
   37.9720   30.5840   47.9480 H   0  0  0  0  0  0  0  0  0  0  0  0
  1 18  1  0  0  0  0
  1  2  1  0  0  0  0
  2  6  1  0  0  0  0
  3  7  1  0  0  0  0
  3  2  2  0  0  0  0
  4  3  1  0  0  0  0
  5  4  1  0  0  0  0
  5  1  2  0  0  0  0
  9 10  1  0  0  0  0
  9  8  1  0  0  0  0
 10  4  1  0  0  0  0
 11 12  1  0  0  0  0
 11 10  2  0  0  0  0
 13 11  1  0  0  0  0
 14 13  2  0  0  0  0
 14 16  1  0  0  0  0
 15 14  1  0  0  0  0
 16  9  2  0  0  0  0
 17 16  1  0  0  0  0
 18 21  1  0  0  0  0
 19 18  1  0  0  0  0
 20 18  1  0  0  0  0
 21 28  1  0  0  0  0
 21 23  1  0  0  0  0
 21 22  1  0  0  0  0
 24 30  1  0  0  0  0
 25 24  2  0  0  0  0
 26 25  1  0  0  0  0
 27 26  2  0  0  0  0
 27 28  1  0  0  0  0
 28 29  2  0  0  0  0
 29 24  1  0  0  0  0
 31 25  1  0  0  0  0
 32 26  1  0  0  0  0
M  END
>  <minimizedAffinity>
-4.86183882

>  <minimizedRMSD>
0.694704175

$$$$
