
 OpenBabel03272510303D

 29 31  0  0  0  0  0  0  0  0999 V2000
   35.9690   23.7480   31.4360 C   0  0  0  0  0  0  0  0  0  0  0  0
   35.0980   24.7400   30.9810 C   0  0  0  0  0  0  0  0  0  0  0  0
   35.4720   26.0360   31.2550 C   0  0  0  0  0  0  0  0  0  0  0  0
   36.6400   26.2830   31.9370 N   0  0  0  0  0  0  0  0  0  0  0  0
   37.4560   25.2780   32.3600 C   0  0  0  0  0  0  0  0  0  0  0  0
   37.1120   23.9790   32.1040 N   0  0  0  0  0  0  0  0  0  0  0  0
   34.1940   24.4690   30.4490 H   0  0  0  0  0  0  0  0  0  0  0  0
   34.8430   26.8560   30.9310 H   0  0  0  0  0  0  0  0  0  0  0  0
   35.6090   22.3160   31.1270 C   0  0  0  0  0  0  0  0  0  0  0  0
   36.3920   21.1930   31.5750 C   0  0  0  0  0  0  0  0  0  0  0  0
   35.1430   21.5380   32.3660 C   0  0  0  0  0  0  0  0  0  0  0  0
   34.9450   22.2090   30.2270 H   0  0  0  0  0  0  0  0  0  0  0  0
   36.4150   20.2690   30.9860 H   0  0  0  0  0  0  0  0  0  0  0  0
   37.3750   21.4350   32.0690 H   0  0  0  0  0  0  0  0  0  0  0  0
   34.2770   20.8940   32.1780 H   0  0  0  0  0  0  0  0  0  0  0  0
   35.2260   22.0090   33.3580 H   0  0  0  0  0  0  0  0  0  0  0  0
   38.7080   25.5260   33.0720 C   0  0  0  0  0  0  0  0  0  0  0  0
   38.8280   26.6320   33.2600 H   0  0  0  0  0  0  0  0  0  0  0  0
   39.5920   25.1790   32.5110 H   0  0  0  0  0  0  0  0  0  0  0  0
   37.5630   27.3250   35.2670 Cl  0  0  0  0  0  0  0  0  0  0  0  0
   38.1790   25.6950   35.4460 C   0  0  0  0  0  0  0  0  0  0  0  0
   38.6930   24.9000   34.4420 C   0  0  0  0  0  0  0  0  0  0  0  0
   39.1380   23.6350   34.7530 C   0  0  0  0  0  0  0  0  0  0  0  0
   39.5310   23.0540   33.9240 H   0  0  0  0  0  0  0  0  0  0  0  0
   39.0820   23.1550   36.0310 C   0  0  0  0  0  3  0  0  0  0  0  0
   38.5650   23.9490   37.0580 C   0  0  0  0  0  0  0  0  0  0  0  0
   38.5140   23.2910   38.6780 Cl  0  0  0  0  0  0  0  0  0  0  0  0
   38.1130   25.2250   36.7610 C   0  0  0  0  0  0  0  0  0  0  0  0
   37.7260   25.7800   37.6030 H   0  0  0  0  0  0  0  0  0  0  0  0
  1  6  1  0  0  0  0
  2  3  1  0  0  0  0
  2  1  2  0  0  0  0
  3  4  2  0  0  0  0
  4  5  1  0  0  0  0
  5 17  1  0  0  0  0
  6  5  2  0  0  0  0
  7  2  1  0  0  0  0
  8  3  1  0  0  0  0
  9  1  1  0  0  0  0
  9 10  1  0  0  0  0
  9 11  1  0  0  0  0
 10 14  1  0  0  0  0
 10 11  1  0  0  0  0
 11 16  1  0  0  0  0
 12  9  1  0  0  0  0
 13 10  1  0  0  0  0
 15 11  1  0  0  0  0
 17 18  1  0  0  0  0
 17 22  1  0  0  0  0
 19 17  1  0  0  0  0
 20 21  1  0  0  0  0
 21 28  1  0  0  0  0
 22 23  1  0  0  0  0
 22 21  2  0  0  0  0
 23 25  2  0  0  0  0
 24 23  1  0  0  0  0
 25 26  1  0  0  0  0
 26 27  1  0  0  0  0
 28 26  2  0  0  0  0
 28 29  1  0  0  0  0
M  END
>  <minimizedAffinity>
-5.14731598

$$$$

 OpenBabel03272510303D

 29 31  0  0  0  0  0  0  0  0999 V2000
   36.6080   25.9790   32.0950 C   0  0  0  0  0  0  0  0  0  0  0  0
   35.8600   27.0280   31.5580 C   0  0  0  0  0  0  0  0  0  0  0  0
   35.8040   28.1740   32.3200 C   0  0  0  0  0  0  0  0  0  0  0  0
   36.4620   28.2270   33.5270 N   0  0  0  0  0  0  0  0  0  0  0  0
   37.1790   27.1740   34.0060 C   0  0  0  0  0  0  0  0  0  0  0  0
   37.2540   26.0210   33.2730 N   0  0  0  0  0  0  0  0  0  0  0  0
   35.3680   26.9130   30.6000 H   0  0  0  0  0  0  0  0  0  0  0  0
   35.2410   29.0280   31.9640 H   0  0  0  0  0  0  0  0  0  0  0  0
   36.7200   24.7180   31.2740 C   0  0  0  0  0  0  0  0  0  0  0  0
   36.9690   23.4230   31.8510 C   0  0  0  0  0  0  0  0  0  0  0  0
   35.5350   23.7630   31.4860 C   0  0  0  0  0  0  0  0  0  0  0  0
   36.9830   24.9090   30.1990 H   0  0  0  0  0  0  0  0  0  0  0  0
   37.5020   22.6570   31.2750 H   0  0  0  0  0  0  0  0  0  0  0  0
   37.2080   23.4030   32.9520 H   0  0  0  0  0  0  0  0  0  0  0  0
   35.1680   23.3100   30.5580 H   0  0  0  0  0  0  0  0  0  0  0  0
   34.7990   23.9870   32.2730 H   0  0  0  0  0  0  0  0  0  0  0  0
   37.8950   27.2220   35.2790 C   0  0  0  0  0  0  0  0  0  0  0  0
   37.1720   27.4430   36.1170 H   0  0  0  0  0  0  0  0  0  0  0  0
   38.6810   27.9970   35.2950 H   0  0  0  0  0  0  0  0  0  0  0  0
   40.7670   26.8300   34.3000 Cl  0  0  0  0  0  0  0  0  0  0  0  0
   39.7860   25.6860   35.1920 C   0  0  0  0  0  0  0  0  0  0  0  0
   38.4900   25.8830   35.6240 C   0  0  0  0  0  0  0  0  0  0  0  0
   37.8560   24.8760   36.3180 C   0  0  0  0  0  0  0  0  0  0  0  0
   36.8390   25.0860   36.6330 H   0  0  0  0  0  0  0  0  0  0  0  0
   38.4840   23.6910   36.5830 C   0  0  0  0  0  3  0  0  0  0  0  0
   39.7950   23.4780   36.1510 C   0  0  0  0  0  0  0  0  0  0  0  0
   40.5560   21.9450   36.5150 Cl  0  0  0  0  0  0  0  0  0  0  0  0
   40.4460   24.4820   35.4520 C   0  0  0  0  0  0  0  0  0  0  0  0
   41.4570   24.2480   35.1510 H   0  0  0  0  0  0  0  0  0  0  0  0
  1  6  1  0  0  0  0
  2  1  2  0  0  0  0
  2  3  1  0  0  0  0
  3  4  2  0  0  0  0
  4  5  1  0  0  0  0
  5 17  1  0  0  0  0
  6  5  2  0  0  0  0
  7  2  1  0  0  0  0
  8  3  1  0  0  0  0
  9 11  1  0  0  0  0
  9 10  1  0  0  0  0
  9  1  1  0  0  0  0
 10 14  1  0  0  0  0
 11 10  1  0  0  0  0
 11 16  1  0  0  0  0
 12  9  1  0  0  0  0
 13 10  1  0  0  0  0
 15 11  1  0  0  0  0
 17 19  1  0  0  0  0
 17 22  1  0  0  0  0
 17 18  1  0  0  0  0
 20 21  1  0  0  0  0
 21 28  2  0  0  0  0
 21 22  1  0  0  0  0
 22 23  2  0  0  0  0
 23 25  1  0  0  0  0
 23 24  1  0  0  0  0
 26 27  1  0  0  0  0
 26 25  2  0  0  0  0
 28 26  1  0  0  0  0
 29 28  1  0  0  0  0
M  END
>  <minimizedAffinity>
-4.93212605

$$$$

 OpenBabel03272510303D

 29 31  0  0  0  0  0  0  0  0999 V2000
   35.9990   23.7650   31.4420 C   0  0  0  0  0  0  0  0  0  0  0  0
   35.1240   24.7560   30.9940 C   0  0  0  0  0  0  0  0  0  0  0  0
   35.4980   26.0530   31.2680 C   0  0  0  0  0  0  0  0  0  0  0  0
   36.6690   26.3000   31.9440 N   0  0  0  0  0  0  0  0  0  0  0  0
   37.4890   25.2960   32.3610 C   0  0  0  0  0  0  0  0  0  0  0  0
   37.1460   23.9960   32.1040 N   0  0  0  0  0  0  0  0  0  0  0  0
   34.2170   24.4850   30.4670 H   0  0  0  0  0  0  0  0  0  0  0  0
   34.8650   26.8720   30.9490 H   0  0  0  0  0  0  0  0  0  0  0  0
   35.6400   22.3330   31.1330 C   0  0  0  0  0  0  0  0  0  0  0  0
   36.4090   21.2100   31.6020 C   0  0  0  0  0  0  0  0  0  0  0  0
   35.1460   21.5630   32.3660 C   0  0  0  0  0  0  0  0  0  0  0  0
   34.9930   22.2240   30.2200 H   0  0  0  0  0  0  0  0  0  0  0  0
   36.4400   20.2820   31.0180 H   0  0  0  0  0  0  0  0  0  0  0  0
   37.3820   21.4490   32.1150 H   0  0  0  0  0  0  0  0  0  0  0  0
   34.2810   20.9220   32.1640 H   0  0  0  0  0  0  0  0  0  0  0  0
   35.2100   22.0390   33.3570 H   0  0  0  0  0  0  0  0  0  0  0  0
   38.7440   25.5450   33.0660 C   0  0  0  0  0  0  0  0  0  0  0  0
   38.9130   26.6560   33.1660 H   0  0  0  0  0  0  0  0  0  0  0  0
   39.6170   25.1140   32.5460 H   0  0  0  0  0  0  0  0  0  0  0  0
   40.5760   23.1560   33.6140 Cl  0  0  0  0  0  0  0  0  0  0  0  0
   39.5090   23.9560   34.7490 C   0  0  0  0  0  0  0  0  0  0  0  0
   38.6890   25.0330   34.4810 C   0  0  0  0  0  0  0  0  0  0  0  0
   37.9070   25.5460   35.4920 C   0  0  0  0  0  0  0  0  0  0  0  0
   37.2820   26.3930   35.2240 H   0  0  0  0  0  0  0  0  0  0  0  0
   37.9270   25.0100   36.7490 C   0  0  0  0  0  3  0  0  0  0  0  0
   38.7510   23.9190   37.0350 C   0  0  0  0  0  0  0  0  0  0  0  0
   38.7420   23.2670   38.6580 Cl  0  0  0  0  0  0  0  0  0  0  0  0
   39.5450   23.3910   36.0280 C   0  0  0  0  0  0  0  0  0  0  0  0
   40.1560   22.5500   36.3210 H   0  0  0  0  0  0  0  0  0  0  0  0
  1  6  1  0  0  0  0
  2  3  1  0  0  0  0
  2  1  2  0  0  0  0
  3  4  2  0  0  0  0
  4  5  1  0  0  0  0
  5 17  1  0  0  0  0
  6  5  2  0  0  0  0
  7  2  1  0  0  0  0
  8  3  1  0  0  0  0
  9  1  1  0  0  0  0
  9 10  1  0  0  0  0
  9 11  1  0  0  0  0
 10 14  1  0  0  0  0
 10 11  1  0  0  0  0
 11 16  1  0  0  0  0
 12  9  1  0  0  0  0
 13 10  1  0  0  0  0
 15 11  1  0  0  0  0
 17 18  1  0  0  0  0
 17 22  1  0  0  0  0
 19 17  1  0  0  0  0
 20 21  1  0  0  0  0
 21 28  1  0  0  0  0
 22 21  2  0  0  0  0
 22 23  1  0  0  0  0
 23 25  2  0  0  0  0
 24 23  1  0  0  0  0
 25 26  1  0  0  0  0
 26 27  1  0  0  0  0
 28 29  1  0  0  0  0
 28 26  2  0  0  0  0
M  END
>  <minimizedAffinity>
-4.90623093

$$$$

 OpenBabel03272510303D

 29 31  0  0  0  0  0  0  0  0999 V2000
   37.1760   26.8600   34.0590 C   0  0  0  0  0  0  0  0  0  0  0  0
   37.1270   25.8310   33.1160 C   0  0  0  0  0  0  0  0  0  0  0  0
   36.5110   26.1420   31.9240 C   0  0  0  0  0  0  0  0  0  0  0  0
   35.9950   27.4010   31.7270 N   0  0  0  0  0  0  0  0  0  0  0  0
   36.0680   28.3700   32.6800 C   0  0  0  0  0  0  0  0  0  0  0  0
   36.6730   28.0930   33.8760 N   0  0  0  0  0  0  0  0  0  0  0  0
   37.5560   24.8630   33.3420 H   0  0  0  0  0  0  0  0  0  0  0  0
   36.4380   25.3910   31.1470 H   0  0  0  0  0  0  0  0  0  0  0  0
   37.8710   26.5680   35.3660 C   0  0  0  0  0  0  0  0  0  0  0  0
   38.9020   25.5720   35.5030 C   0  0  0  0  0  0  0  0  0  0  0  0
   39.3380   27.0210   35.3730 C   0  0  0  0  0  0  0  0  0  0  0  0
   37.2770   26.8840   36.2650 H   0  0  0  0  0  0  0  0  0  0  0  0
   39.0420   25.0540   36.4590 H   0  0  0  0  0  0  0  0  0  0  0  0
   39.0870   24.9160   34.6060 H   0  0  0  0  0  0  0  0  0  0  0  0
   39.6420   27.5040   36.3080 H   0  0  0  0  0  0  0  0  0  0  0  0
   39.7940   27.3830   34.4380 H   0  0  0  0  0  0  0  0  0  0  0  0
   35.5370   29.7170   32.4790 C   0  0  0  0  0  0  0  0  0  0  0  0
   34.6730   29.6820   31.7540 H   0  0  0  0  0  0  0  0  0  0  0  0
   36.2910   30.4140   32.0750 H   0  0  0  0  0  0  0  0  0  0  0  0
   32.5910   29.0220   32.9220 Cl  0  0  0  0  0  0  0  0  0  0  0  0
   33.6260   29.9690   33.9700 C   0  0  0  0  0  0  0  0  0  0  0  0
   34.9540   30.2720   33.7510 C   0  0  0  0  0  0  0  0  0  0  0  0
   35.6290   31.0340   34.6790 C   0  0  0  0  0  0  0  0  0  0  0  0
   36.6710   31.2400   34.4550 H   0  0  0  0  0  0  0  0  0  0  0  0
   35.0090   31.4930   35.8080 C   0  0  0  0  0  3  0  0  0  0  0  0
   33.6650   31.1940   36.0420 C   0  0  0  0  0  0  0  0  0  0  0  0
   32.9160   31.8050   37.5010 Cl  0  0  0  0  0  0  0  0  0  0  0  0
   32.9730   30.4290   35.1170 C   0  0  0  0  0  0  0  0  0  0  0  0
   31.9380   30.2380   35.3640 H   0  0  0  0  0  0  0  0  0  0  0  0
  1  9  1  0  0  0  0
  2  7  1  0  0  0  0
  2  1  2  0  0  0  0
  3  2  1  0  0  0  0
  4  3  2  0  0  0  0
  4  5  1  0  0  0  0
  5  6  2  0  0  0  0
  6  1  1  0  0  0  0
  8  3  1  0  0  0  0
  9 11  1  0  0  0  0
  9 10  1  0  0  0  0
  9 12  1  0  0  0  0
 10 13  1  0  0  0  0
 11 10  1  0  0  0  0
 11 15  1  0  0  0  0
 14 10  1  0  0  0  0
 16 11  1  0  0  0  0
 17  5  1  0  0  0  0
 17 22  1  0  0  0  0
 18 17  1  0  0  0  0
 19 17  1  0  0  0  0
 20 21  1  0  0  0  0
 21 28  1  0  0  0  0
 22 21  2  0  0  0  0
 22 23  1  0  0  0  0
 23 25  2  0  0  0  0
 24 23  1  0  0  0  0
 25 26  1  0  0  0  0
 26 27  1  0  0  0  0
 28 29  1  0  0  0  0
 28 26  2  0  0  0  0
M  END
>  <minimizedAffinity>
-4.89042664

$$$$

 OpenBabel03272510303D

 29 31  0  0  0  0  0  0  0  0999 V2000
   37.4170   27.3150   33.6670 C   0  0  0  0  0  0  0  0  0  0  0  0
   37.4270   26.7480   32.3910 C   0  0  0  0  0  0  0  0  0  0  0  0
   36.4550   27.2010   31.5270 C   0  0  0  0  0  0  0  0  0  0  0  0
   35.5550   28.1530   31.9460 N   0  0  0  0  0  0  0  0  0  0  0  0
   35.5880   28.6740   33.2040 C   0  0  0  0  0  0  0  0  0  0  0  0
   36.5420   28.2440   34.0860 N   0  0  0  0  0  0  0  0  0  0  0  0
   38.1690   26.0020   32.1320 H   0  0  0  0  0  0  0  0  0  0  0  0
   36.4050   26.8040   30.5210 H   0  0  0  0  0  0  0  0  0  0  0  0
   38.4870   26.8670   34.6310 C   0  0  0  0  0  0  0  0  0  0  0  0
   38.5270   27.2820   36.0100 C   0  0  0  0  0  0  0  0  0  0  0  0
   37.9560   25.9080   35.7070 C   0  0  0  0  0  0  0  0  0  0  0  0
   39.4300   26.5280   34.1240 H   0  0  0  0  0  0  0  0  0  0  0  0
   39.4870   27.3590   36.5330 H   0  0  0  0  0  0  0  0  0  0  0  0
   37.7840   28.0710   36.3170 H   0  0  0  0  0  0  0  0  0  0  0  0
   38.6260   25.0660   35.9120 H   0  0  0  0  0  0  0  0  0  0  0  0
   36.8720   25.7280   35.7780 H   0  0  0  0  0  0  0  0  0  0  0  0
   34.6480   29.6970   33.6570 C   0  0  0  0  0  0  0  0  0  0  0  0
   34.0550   29.3090   34.5360 H   0  0  0  0  0  0  0  0  0  0  0  0
   33.9340   29.9960   32.8720 H   0  0  0  0  0  0  0  0  0  0  0  0
   35.4370   31.7230   31.5050 Cl  0  0  0  0  0  0  0  0  0  0  0  0
   35.7330   31.8360   33.2270 C   0  0  0  0  0  0  0  0  0  0  0  0
   35.3690   30.9100   34.1830 C   0  0  0  0  0  0  0  0  0  0  0  0
   35.6800   31.1520   35.5020 C   0  0  0  0  0  0  0  0  0  0  0  0
   35.3690   30.3890   36.2100 H   0  0  0  0  0  0  0  0  0  0  0  0
   36.3390   32.2880   35.8810 C   0  0  0  0  0  3  0  0  0  0  0  0
   36.7140   33.2350   34.9250 C   0  0  0  0  0  0  0  0  0  0  0  0
   37.5570   34.6720   35.4580 Cl  0  0  0  0  0  0  0  0  0  0  0  0
   36.4090   33.0050   33.5920 C   0  0  0  0  0  0  0  0  0  0  0  0
   36.7290   33.7790   32.9100 H   0  0  0  0  0  0  0  0  0  0  0  0
  1  6  1  0  0  0  0
  1  9  1  0  0  0  0
  2  1  2  0  0  0  0
  3  4  2  0  0  0  0
  3  2  1  0  0  0  0
  4  5  1  0  0  0  0
  5 17  1  0  0  0  0
  5  6  2  0  0  0  0
  7  2  1  0  0  0  0
  8  3  1  0  0  0  0
  9 11  1  0  0  0  0
  9 10  1  0  0  0  0
 10 14  1  0  0  0  0
 10 13  1  0  0  0  0
 11 16  1  0  0  0  0
 11 15  1  0  0  0  0
 11 10  1  0  0  0  0
 12  9  1  0  0  0  0
 17 22  1  0  0  0  0
 17 18  1  0  0  0  0
 19 17  1  0  0  0  0
 20 21  1  0  0  0  0
 21 28  2  0  0  0  0
 21 22  1  0  0  0  0
 22 23  2  0  0  0  0
 23 25  1  0  0  0  0
 23 24  1  0  0  0  0
 26 27  1  0  0  0  0
 26 25  2  0  0  0  0
 28 26  1  0  0  0  0
 29 28  1  0  0  0  0
M  END
>  <minimizedAffinity>
-4.78876352

$$$$

 OpenBabel03272510303D

 29 31  0  0  0  0  0  0  0  0999 V2000
   36.9780   27.7940   33.7960 C   0  0  0  0  0  0  0  0  0  0  0  0
   36.8270   27.5620   32.4270 C   0  0  0  0  0  0  0  0  0  0  0  0
   35.7730   28.2100   31.8230 C   0  0  0  0  0  0  0  0  0  0  0  0
   34.9500   29.0220   32.5670 N   0  0  0  0  0  0  0  0  0  0  0  0
   35.1400   29.2150   33.9020 C   0  0  0  0  0  0  0  0  0  0  0  0
   36.1780   28.5860   34.5320 N   0  0  0  0  0  0  0  0  0  0  0  0
   37.5160   26.9080   31.9060 H   0  0  0  0  0  0  0  0  0  0  0  0
   35.5970   28.0750   30.7630 H   0  0  0  0  0  0  0  0  0  0  0  0
   38.1410   27.1280   34.4870 C   0  0  0  0  0  0  0  0  0  0  0  0
   38.4430   27.3200   35.8820 C   0  0  0  0  0  0  0  0  0  0  0  0
   37.7000   26.0540   35.4930 C   0  0  0  0  0  0  0  0  0  0  0  0
   38.9520   26.8050   33.7800 H   0  0  0  0  0  0  0  0  0  0  0  0
   39.4780   27.2470   36.2350 H   0  0  0  0  0  0  0  0  0  0  0  0
   37.8390   28.1030   36.4210 H   0  0  0  0  0  0  0  0  0  0  0  0
   38.3110   25.1450   35.4580 H   0  0  0  0  0  0  0  0  0  0  0  0
   36.6290   25.9440   35.7260 H   0  0  0  0  0  0  0  0  0  0  0  0
   34.2830   30.0880   34.7010 C   0  0  0  0  0  0  0  0  0  0  0  0
   34.1300   29.6400   35.7260 H   0  0  0  0  0  0  0  0  0  0  0  0
   33.2890   30.2410   34.2470 H   0  0  0  0  0  0  0  0  0  0  0  0
   33.3990   31.4560   37.2920 Cl  0  0  0  0  0  0  0  0  0  0  0  0
   34.5550   32.0520   36.1190 C   0  0  0  0  0  0  0  0  0  0  0  0
   34.9400   31.4190   34.9550 C   0  0  0  0  0  0  0  0  0  0  0  0
   35.8660   32.0270   34.1370 C   0  0  0  0  0  0  0  0  0  0  0  0
   36.1310   31.4830   33.2350 H   0  0  0  0  0  0  0  0  0  0  0  0
   36.4080   33.2410   34.4550 C   0  0  0  0  0  3  0  0  0  0  0  0
   36.0270   33.8930   35.6300 C   0  0  0  0  0  0  0  0  0  0  0  0
   36.7480   35.4460   35.9950 Cl  0  0  0  0  0  0  0  0  0  0  0  0
   35.0960   33.2940   36.4640 C   0  0  0  0  0  0  0  0  0  0  0  0
   34.8510   33.8550   37.3540 H   0  0  0  0  0  0  0  0  0  0  0  0
  1  9  1  0  0  0  0
  1  6  1  0  0  0  0
  2  1  2  0  0  0  0
  3  2  1  0  0  0  0
  3  4  2  0  0  0  0
  4  5  1  0  0  0  0
  5  6  2  0  0  0  0
  5 17  1  0  0  0  0
  7  2  1  0  0  0  0
  8  3  1  0  0  0  0
  9 11  1  0  0  0  0
  9 10  1  0  0  0  0
 10 13  1  0  0  0  0
 10 14  1  0  0  0  0
 11 16  1  0  0  0  0
 11 10  1  0  0  0  0
 12  9  1  0  0  0  0
 15 11  1  0  0  0  0
 17 22  1  0  0  0  0
 17 18  1  0  0  0  0
 19 17  1  0  0  0  0
 21 28  1  0  0  0  0
 21 20  1  0  0  0  0
 22 21  2  0  0  0  0
 23 25  2  0  0  0  0
 23 22  1  0  0  0  0
 24 23  1  0  0  0  0
 25 26  1  0  0  0  0
 26 27  1  0  0  0  0
 26 28  2  0  0  0  0
 28 29  1  0  0  0  0
M  END
>  <minimizedAffinity>
-4.76792288

$$$$

 OpenBabel03272510303D

 29 31  0  0  0  0  0  0  0  0999 V2000
   37.9360   26.3290   33.6040 C   0  0  0  0  0  0  0  0  0  0  0  0
   37.0240   27.3760   33.4600 C   0  0  0  0  0  0  0  0  0  0  0  0
   36.2210   27.3190   32.3430 C   0  0  0  0  0  0  0  0  0  0  0  0
   36.3510   26.2760   31.4570 N   0  0  0  0  0  0  0  0  0  0  0  0
   37.2590   25.2790   31.6430 C   0  0  0  0  0  0  0  0  0  0  0  0
   38.0720   25.3050   32.7440 N   0  0  0  0  0  0  0  0  0  0  0  0
   36.9780   28.1650   34.2010 H   0  0  0  0  0  0  0  0  0  0  0  0
   35.4900   28.1000   32.1680 H   0  0  0  0  0  0  0  0  0  0  0  0
   38.8120   26.3380   34.8330 C   0  0  0  0  0  0  0  0  0  0  0  0
   38.5240   27.1330   35.9990 C   0  0  0  0  0  0  0  0  0  0  0  0
   38.1470   25.6630   36.0420 C   0  0  0  0  0  0  0  0  0  0  0  0
   39.8650   26.0070   34.6300 H   0  0  0  0  0  0  0  0  0  0  0  0
   39.3420   27.4960   36.6320 H   0  0  0  0  0  0  0  0  0  0  0  0
   37.6690   27.8610   35.9090 H   0  0  0  0  0  0  0  0  0  0  0  0
   38.8280   25.0220   36.6130 H   0  0  0  0  0  0  0  0  0  0  0  0
   37.0910   25.3570   35.9740 H   0  0  0  0  0  0  0  0  0  0  0  0
   37.3970   24.1560   30.7180 C   0  0  0  0  0  0  0  0  0  0  0  0
   38.4900   23.9400   30.5400 H   0  0  0  0  0  0  0  0  0  0  0  0
   36.9260   24.3510   29.7400 H   0  0  0  0  0  0  0  0  0  0  0  0
   39.4010   21.8480   30.8500 Cl  0  0  0  0  0  0  0  0  0  0  0  0
   37.7320   21.8340   31.3790 C   0  0  0  0  0  0  0  0  0  0  0  0
   36.8430   22.8870   31.3100 C   0  0  0  0  0  0  0  0  0  0  0  0
   35.5580   22.7090   31.7710 C   0  0  0  0  0  0  0  0  0  0  0  0
   34.9020   23.5710   31.6930 H   0  0  0  0  0  0  0  0  0  0  0  0
   35.1490   21.5140   32.2940 C   0  0  0  0  0  3  0  0  0  0  0  0
   36.0370   20.4390   32.3690 C   0  0  0  0  0  0  0  0  0  0  0  0
   35.4670   18.9290   33.0450 Cl  0  0  0  0  0  0  0  0  0  0  0  0
   37.3340   20.6020   31.9090 C   0  0  0  0  0  0  0  0  0  0  0  0
   37.9650   19.7300   31.9990 H   0  0  0  0  0  0  0  0  0  0  0  0
  1  9  1  0  0  0  0
  2  1  1  0  0  0  0
  2  7  1  0  0  0  0
  3  2  2  0  0  0  0
  4  5  2  0  0  0  0
  4  3  1  0  0  0  0
  5  6  1  0  0  0  0
  6  1  2  0  0  0  0
  8  3  1  0  0  0  0
  9 10  1  0  0  0  0
  9 11  1  0  0  0  0
 10 11  1  0  0  0  0
 10 13  1  0  0  0  0
 11 15  1  0  0  0  0
 12  9  1  0  0  0  0
 14 10  1  0  0  0  0
 16 11  1  0  0  0  0
 17 22  1  0  0  0  0
 17  5  1  0  0  0  0
 18 17  1  0  0  0  0
 19 17  1  0  0  0  0
 20 21  1  0  0  0  0
 21 28  1  0  0  0  0
 22 21  2  0  0  0  0
 22 23  1  0  0  0  0
 23 25  2  0  0  0  0
 24 23  1  0  0  0  0
 25 26  1  0  0  0  0
 26 27  1  0  0  0  0
 28 29  1  0  0  0  0
 28 26  2  0  0  0  0
M  END
>  <minimizedAffinity>
-4.75193644

$$$$

 OpenBabel03272510303D

 29 31  0  0  0  0  0  0  0  0999 V2000
   35.4900   30.3950   33.6660 C   0  0  0  0  0  0  0  0  0  0  0  0
   35.2220   30.8200   32.3640 C   0  0  0  0  0  0  0  0  0  0  0  0
   35.5340   29.9240   31.3660 C   0  0  0  0  0  0  0  0  0  0  0  0
   36.0740   28.7010   31.6870 N   0  0  0  0  0  0  0  0  0  0  0  0
   36.3170   28.3340   32.9760 C   0  0  0  0  0  0  0  0  0  0  0  0
   36.0180   29.2020   33.9900 N   0  0  0  0  0  0  0  0  0  0  0  0
   34.7940   31.8000   32.1870 H   0  0  0  0  0  0  0  0  0  0  0  0
   35.3520   30.1890   30.3320 H   0  0  0  0  0  0  0  0  0  0  0  0
   35.1320   31.3370   34.7890 C   0  0  0  0  0  0  0  0  0  0  0  0
   35.8920   31.4330   36.0080 C   0  0  0  0  0  0  0  0  0  0  0  0
   36.1360   32.4880   34.9440 C   0  0  0  0  0  0  0  0  0  0  0  0
   34.0540   31.6510   34.7780 H   0  0  0  0  0  0  0  0  0  0  0  0
   35.3980   31.7200   36.9440 H   0  0  0  0  0  0  0  0  0  0  0  0
   36.7110   30.6720   36.1490 H   0  0  0  0  0  0  0  0  0  0  0  0
   35.6630   33.4590   35.1300 H   0  0  0  0  0  0  0  0  0  0  0  0
   37.0640   32.4750   34.3500 H   0  0  0  0  0  0  0  0  0  0  0  0
   36.8760   27.0320   33.3320 C   0  0  0  0  0  0  0  0  0  0  0  0
   36.6010   26.2700   32.5470 H   0  0  0  0  0  0  0  0  0  0  0  0
   36.5090   26.6640   34.3060 H   0  0  0  0  0  0  0  0  0  0  0  0
   38.1400   26.9160   36.1170 Cl  0  0  0  0  0  0  0  0  0  0  0  0
   38.9710   27.0110   34.5780 C   0  0  0  0  0  0  0  0  0  0  0  0
   38.3820   27.0630   33.3320 C   0  0  0  0  0  0  0  0  0  0  0  0
   39.1840   27.1360   32.2150 C   0  0  0  0  0  0  0  0  0  0  0  0
   38.6660   27.1740   31.2610 H   0  0  0  0  0  0  0  0  0  0  0  0
   40.5460   27.1580   32.3180 C   0  0  0  0  0  3  0  0  0  0  0  0
   41.1570   27.1060   33.5740 C   0  0  0  0  0  0  0  0  0  0  0  0
   42.9050   27.1380   33.6550 Cl  0  0  0  0  0  0  0  0  0  0  0  0
   40.3630   27.0330   34.7070 C   0  0  0  0  0  0  0  0  0  0  0  0
   40.9030   26.9950   35.6420 H   0  0  0  0  0  0  0  0  0  0  0  0
  1  6  1  0  0  0  0
  1  9  1  0  0  0  0
  2  1  2  0  0  0  0
  3  4  2  0  0  0  0
  3  2  1  0  0  0  0
  4  5  1  0  0  0  0
  5 17  1  0  0  0  0
  5  6  2  0  0  0  0
  7  2  1  0  0  0  0
  8  3  1  0  0  0  0
  9 11  1  0  0  0  0
  9 10  1  0  0  0  0
 10 14  1  0  0  0  0
 10 13  1  0  0  0  0
 11 15  1  0  0  0  0
 11 10  1  0  0  0  0
 12  9  1  0  0  0  0
 16 11  1  0  0  0  0
 17 22  1  0  0  0  0
 17 19  1  0  0  0  0
 18 17  1  0  0  0  0
 21 28  1  0  0  0  0
 21 20  1  0  0  0  0
 22 21  2  0  0  0  0
 23 25  2  0  0  0  0
 23 22  1  0  0  0  0
 24 23  1  0  0  0  0
 25 26  1  0  0  0  0
 26 27  1  0  0  0  0
 26 28  2  0  0  0  0
 28 29  1  0  0  0  0
M  END
>  <minimizedAffinity>
-4.73717594

$$$$

 OpenBabel03272510303D

 29 31  0  0  0  0  0  0  0  0999 V2000
   36.1220   26.7510   31.6070 C   0  0  0  0  0  0  0  0  0  0  0  0
   35.3060   25.7810   31.0220 C   0  0  0  0  0  0  0  0  0  0  0  0
   35.7220   24.4780   31.1760 C   0  0  0  0  0  0  0  0  0  0  0  0
   36.8760   24.2040   31.8710 N   0  0  0  0  0  0  0  0  0  0  0  0
   37.6380   25.1880   32.4230 C   0  0  0  0  0  0  0  0  0  0  0  0
   37.2520   26.4930   32.2870 N   0  0  0  0  0  0  0  0  0  0  0  0
   34.4090   26.0730   30.4880 H   0  0  0  0  0  0  0  0  0  0  0  0
   35.1360   23.6740   30.7470 H   0  0  0  0  0  0  0  0  0  0  0  0
   35.6820   28.1890   31.4870 C   0  0  0  0  0  0  0  0  0  0  0  0
   36.4760   29.2960   31.9560 C   0  0  0  0  0  0  0  0  0  0  0  0
   36.5150   28.9830   30.4710 C   0  0  0  0  0  0  0  0  0  0  0  0
   34.5710   28.3060   31.3790 H   0  0  0  0  0  0  0  0  0  0  0  0
   35.9880   30.2160   32.2970 H   0  0  0  0  0  0  0  0  0  0  0  0
   37.4010   29.0350   32.5420 H   0  0  0  0  0  0  0  0  0  0  0  0
   35.9160   29.6460   29.8370 H   0  0  0  0  0  0  0  0  0  0  0  0
   37.4070   28.5160   30.0240 H   0  0  0  0  0  0  0  0  0  0  0  0
   38.8580   24.9100   33.1770 C   0  0  0  0  0  0  0  0  0  0  0  0
   39.4200   25.8710   33.3630 H   0  0  0  0  0  0  0  0  0  0  0  0
   39.5360   24.2180   32.6490 H   0  0  0  0  0  0  0  0  0  0  0  0
   38.7840   27.0370   35.3750 Cl  0  0  0  0  0  0  0  0  0  0  0  0
   38.5060   25.3170   35.5540 C   0  0  0  0  0  0  0  0  0  0  0  0
   38.5450   24.3730   34.5490 C   0  0  0  0  0  0  0  0  0  0  0  0
   38.3010   23.0540   34.8590 C   0  0  0  0  0  0  0  0  0  0  0  0
   38.3450   22.3560   34.0290 H   0  0  0  0  0  0  0  0  0  0  0  0
   38.0240   22.6650   36.1400 C   0  0  0  0  0  3  0  0  0  0  0  0
   37.9820   23.6090   37.1680 C   0  0  0  0  0  0  0  0  0  0  0  0
   37.6230   23.0620   38.7910 Cl  0  0  0  0  0  0  0  0  0  0  0  0
   38.2250   24.9410   36.8710 C   0  0  0  0  0  0  0  0  0  0  0  0
   38.1750   25.6140   37.7150 H   0  0  0  0  0  0  0  0  0  0  0  0
  1  6  1  0  0  0  0
  2  3  1  0  0  0  0
  2  1  2  0  0  0  0
  3  4  2  0  0  0  0
  4  5  1  0  0  0  0
  5 17  1  0  0  0  0
  6  5  2  0  0  0  0
  7  2  1  0  0  0  0
  8  3  1  0  0  0  0
  9  1  1  0  0  0  0
  9 10  1  0  0  0  0
 10 13  1  0  0  0  0
 10 14  1  0  0  0  0
 11  9  1  0  0  0  0
 11 10  1  0  0  0  0
 12  9  1  0  0  0  0
 15 11  1  0  0  0  0
 16 11  1  0  0  0  0
 17 18  1  0  0  0  0
 17 22  1  0  0  0  0
 19 17  1  0  0  0  0
 20 21  1  0  0  0  0
 21 28  1  0  0  0  0
 22 23  1  0  0  0  0
 22 21  2  0  0  0  0
 23 25  2  0  0  0  0
 24 23  1  0  0  0  0
 25 26  1  0  0  0  0
 26 27  1  0  0  0  0
 28 26  2  0  0  0  0
 28 29  1  0  0  0  0
M  END
>  <minimizedAffinity>
-4.71206379

$$$$
