
 OpenBabel03272509013D

 32 34  0  0  0  0  0  0  0  0999 V2000
   37.4660   31.9690   48.1200 Cl  0  0  0  0  0  0  0  0  0  0  0  0
   36.6370   31.0210   46.9030 C   0  0  0  0  0  0  0  0  0  0  0  0
   37.2190   30.8380   45.6690 C   0  0  0  0  0  0  0  0  0  0  0  0
   36.6120   30.1060   44.6890 C   0  0  0  0  0  0  0  0  0  0  0  0
   35.3820   29.5270   44.9180 C   0  0  0  0  0  0  0  0  0  0  0  0
   34.7680   29.6850   46.1310 C   0  0  0  0  0  0  0  0  0  0  0  0
   33.2140   29.0050   46.5500 Cl  0  0  0  0  0  0  0  0  0  0  0  0
   35.4180   30.4280   47.0850 C   0  0  0  0  0  0  0  0  0  0  0  0
   37.0360   29.9420   43.7130 H   0  0  0  0  0  0  0  0  0  0  0  0
   34.8770   28.9410   44.1600 H   0  0  0  0  0  0  0  0  0  0  0  0
   39.8150   33.2320   44.6410 C   0  0  0  0  0  0  0  0  0  0  0  0
   40.9950   32.5590   44.8940 C   0  0  0  0  0  0  0  0  0  0  0  0
   40.8880   31.2430   45.4340 C   0  0  0  0  0  0  0  0  0  0  0  0
   39.6450   30.7420   45.6620 N   0  0  0  0  0  0  0  0  0  0  0  0
   38.5180   31.4450   45.3970 C   0  0  0  0  0  0  0  0  0  0  0  0
   38.6180   32.6900   44.8850 N   0  0  0  0  0  0  0  0  0  0  0  0
   39.9790   34.2070   44.2370 H   0  0  0  0  0  0  0  0  0  0  0  0
   42.0190   32.8430   44.7590 H   0  0  0  0  0  0  0  0  0  0  0  0
   41.6670   30.5520   45.7030 H   0  0  0  0  0  0  0  0  0  0  0  0
   34.7720   30.6540   48.4380 C   0  0  0  0  0  0  0  0  0  0  0  0
   34.5160   31.7440   48.4520 H   0  0  0  0  0  0  0  0  0  0  0  0
   33.8560   30.0330   48.5050 H   0  0  0  0  0  0  0  0  0  0  0  0
   34.6620   27.7700   49.1030 Cl  0  0  0  0  0  0  0  0  0  0  0  0
   35.6840   28.9660   49.8800 C   0  0  0  0  0  0  0  0  0  0  0  0
   35.6890   30.3020   49.5270 C   0  0  0  0  0  0  0  0  0  0  0  0
   36.5400   31.1570   50.2130 C   0  0  0  0  0  0  0  0  0  0  0  0
   36.4720   32.1760   49.8590 H   0  0  0  0  0  0  0  0  0  0  0  0
   37.3630   30.7010   51.2220 C   0  0  0  0  0  3  0  0  0  0  0  0
   37.3700   29.3640   51.5890 C   0  0  0  0  0  0  0  0  0  0  0  0
   38.4240   28.7940   52.8750 Cl  0  0  0  0  0  0  0  0  0  0  0  0
   36.5230   28.5190   50.9060 C   0  0  0  0  0  0  0  0  0  0  0  0
   36.5140   27.4510   51.1810 H   0  0  0  0  0  0  0  0  0  0  0  0
  2  8  1  0  0  0  0
  2  1  1  0  0  0  0
  3  2  2  0  0  0  0
  4  5  2  0  0  0  0
  4  3  1  0  0  0  0
  5  6  1  0  0  0  0
  6  7  1  0  0  0  0
  6  8  2  0  0  0  0
  8 20  1  0  0  0  0
  9  4  1  0  0  0  0
 10  5  1  0  0  0  0
 11 16  2  0  0  0  0
 11 12  1  0  0  0  0
 12 13  2  0  0  0  0
 13 14  1  0  0  0  0
 13 19  1  0  0  0  0
 15 14  2  0  0  0  0
 15  3  1  0  0  0  0
 16 15  1  0  0  0  0
 17 11  1  0  0  0  0
 18 12  1  0  0  0  0
 20 21  1  0  0  0  0
 20 22  1  0  0  0  0
 20 25  1  0  0  0  0
 23 24  1  0  0  0  0
 24 31  1  0  0  0  0
 25 24  2  0  0  0  0
 25 26  1  0  0  0  0
 26 28  2  0  0  0  0
 27 26  1  0  0  0  0
 28 29  1  0  0  0  0
 29 30  1  0  0  0  0
 31 32  1  0  0  0  0
 31 29  2  0  0  0  0
M  END
>  <minimizedAffinity>
-5.48446321

>  <minimizedRMSD>
2.63411212

$$$$
