
 OpenBabel03272510303D

 29 31  0  0  0  0  0  0  0  0999 V2000
   37.2110   31.3450   49.3030 C   0  0  0  0  0  0  0  0  0  0  0  0
   37.4140   32.6200   49.8340 C   0  0  0  0  0  0  0  0  0  0  0  0
   38.3190   33.4110   49.1620 C   0  0  0  0  0  0  0  0  0  0  0  0
   38.9560   32.9250   48.0450 N   0  0  0  0  0  0  0  0  0  0  0  0
   38.7230   31.6720   47.5670 C   0  0  0  0  0  0  0  0  0  0  0  0
   37.8290   30.8610   48.2120 N   0  0  0  0  0  0  0  0  0  0  0  0
   36.8740   32.9340   50.7200 H   0  0  0  0  0  0  0  0  0  0  0  0
   38.5250   34.4120   49.5200 H   0  0  0  0  0  0  0  0  0  0  0  0
   36.2020   30.4600   49.9930 C   0  0  0  0  0  0  0  0  0  0  0  0
   36.1840   29.0280   49.8500 C   0  0  0  0  0  0  0  0  0  0  0  0
   36.8250   29.6000   51.1020 C   0  0  0  0  0  0  0  0  0  0  0  0
   35.2640   31.0030   50.2890 H   0  0  0  0  0  0  0  0  0  0  0  0
   35.2390   28.4780   49.9350 H   0  0  0  0  0  0  0  0  0  0  0  0
   36.8890   28.5920   49.0880 H   0  0  0  0  0  0  0  0  0  0  0  0
   36.2120   29.5450   52.0090 H   0  0  0  0  0  0  0  0  0  0  0  0
   37.9190   29.5880   51.2220 H   0  0  0  0  0  0  0  0  0  0  0  0
   39.3810   31.1490   46.3720 C   0  0  0  0  0  0  0  0  0  0  0  0
   39.5030   30.0310   46.4600 H   0  0  0  0  0  0  0  0  0  0  0  0
   40.3810   31.5870   46.2110 H   0  0  0  0  0  0  0  0  0  0  0  0
   40.0660   33.6590   44.7620 Cl  0  0  0  0  0  0  0  0  0  0  0  0
   38.8240   32.4770   44.4050 C   0  0  0  0  0  0  0  0  0  0  0  0
   38.5310   31.3500   45.1450 C   0  0  0  0  0  0  0  0  0  0  0  0
   37.5170   30.5180   44.7250 C   0  0  0  0  0  0  0  0  0  0  0  0
   37.3300   29.6470   45.3460 H   0  0  0  0  0  0  0  0  0  0  0  0
   36.8000   30.7870   43.5930 C   0  0  0  0  0  0  0  0  0  0  0  0
   37.0850   31.9250   42.8340 C   0  0  0  0  0  0  0  0  0  0  0  0
   36.1390   32.2270   41.3930 Cl  0  0  0  0  0  0  0  0  0  0  0  0
   38.1030   32.7720   43.2440 C   0  0  0  0  0  0  0  0  0  0  0  0
   38.2680   33.6300   42.6090 H   0  0  0  0  0  0  0  0  0  0  0  0
  1  2  1  0  0  0  0
  1  9  1  0  0  0  0
  2  7  1  0  0  0  0
  3  8  1  0  0  0  0
  3  2  2  0  0  0  0
  4  3  1  0  0  0  0
  5  4  2  0  0  0  0
  5  6  1  0  0  0  0
  6  1  2  0  0  0  0
  9 12  1  0  0  0  0
  9 11  1  0  0  0  0
 10 13  1  0  0  0  0
 10  9  1  0  0  0  0
 10 11  1  0  0  0  0
 11 16  1  0  0  0  0
 11 15  1  0  0  0  0
 14 10  1  0  0  0  0
 17 18  1  0  0  0  0
 17  5  1  0  0  0  0
 19 17  1  0  0  0  0
 21 20  1  0  0  0  0
 21 22  1  0  0  0  0
 22 17  1  0  0  0  0
 23 22  2  0  0  0  0
 23 24  1  0  0  0  0
 25 23  1  0  0  0  0
 26 28  1  0  0  0  0
 26 25  2  0  0  0  0
 27 26  1  0  0  0  0
 28 21  2  0  0  0  0
 29 28  1  0  0  0  0
M  END
>  <minimizedAffinity>
-5.73426056

>  <minimizedRMSD>
1.11308861

$$$$
