
 OpenBabel03272503333D

 42 45  0  0  1  0  0  0  0  0999 V2000
   35.6110   29.5200   47.7900 C   0  0  0  0  0  0  0  0  0  0  0  0
   35.5190   30.1320   46.5400 C   0  0  0  0  0  0  0  0  0  0  0  0
   34.4720   29.7330   45.7010 C   0  0  0  0  0  0  0  0  0  0  0  0
   33.6130   28.7650   46.1760 N   0  0  0  0  0  0  0  0  0  0  0  0
   33.7400   28.2070   47.3810 C   0  0  0  0  0  0  0  0  0  0  0  0
   34.7400   28.5870   48.1850 N   0  0  0  0  0  0  0  0  0  0  0  0
   36.1930   30.8900   46.1660 H   0  0  0  0  0  0  0  0  0  0  0  0
   34.3180   30.1420   44.7260 H   0  0  0  0  0  0  0  0  0  0  0  0
   36.6880   29.9370   48.6410 N   0  0  0  0  0  0  0  0  0  0  0  0
   37.8360   30.7090   48.2710 C   0  0  0  0  0  0  0  0  0  0  0  0
   38.1960   31.4050   49.5760 C   0  0  2  0  0  0  0  0  0  0  0  0
   37.0890   31.0530   50.5680 C   0  0  0  0  0  0  0  0  0  0  0  0
   36.8140   29.6440   50.0660 C   0  0  0  0  0  0  0  0  0  0  0  0
   37.6040   31.4790   47.4860 H   0  0  0  0  0  0  0  0  0  0  0  0
   38.7010   30.0760   47.9620 H   0  0  0  0  0  0  0  0  0  0  0  0
   39.1310   30.9790   50.0130 H   0  0  0  0  0  0  0  0  0  0  0  0
   36.2240   31.6930   50.3850 H   0  0  0  0  0  0  0  0  0  0  0  0
   37.4440   31.0690   51.6040 H   0  0  0  0  0  0  0  0  0  0  0  0
   35.8510   29.2930   50.4700 H   0  0  0  0  0  0  0  0  0  0  0  0
   37.6700   29.0000   50.2840 H   0  0  0  0  0  0  0  0  0  0  0  0
   38.3310   32.8920   49.4050 C   0  0  0  0  0  0  0  0  0  0  0  0
   37.1500   33.4540   49.8510 F   0  0  0  0  0  0  0  0  0  0  0  0
   38.3970   33.1380   48.0590 F   0  0  0  0  0  0  0  0  0  0  0  0
   39.4210   33.4150   50.0490 F   0  0  0  0  0  0  0  0  0  0  0  0
   32.5960   26.9610   47.9390 S   0  0  0  0  0  0  0  0  0  0  0  0
   31.1630   27.4750   48.6670 C   0  0  0  0  0  0  0  0  0  0  0  0
   30.4790   27.3770   49.8420 C   0  0  0  0  0  0  0  0  0  0  0  0
   29.2800   27.9480   50.1030 C   0  0  0  0  0  0  0  0  0  0  0  0
   28.7450   28.7210   48.9580 C   0  0  0  0  0  0  0  0  0  0  0  0
   30.0040   28.5440   47.6590 S   0  0  0  0  0  0  0  0  0  0  0  0
   31.0250   26.7770   50.5530 H   0  0  0  0  0  0  0  0  0  0  0  0
   28.7470   27.8690   51.0280 H   0  0  0  0  0  0  0  0  0  0  0  0
   26.4150   26.9780   48.3720 Cl  0  0  0  0  0  0  0  0  0  0  0  0
   26.3950   28.7080   48.6200 C   0  0  0  0  0  0  0  0  0  0  0  0
   27.5350   29.4330   48.8880 C   0  0  0  0  0  0  0  0  0  0  0  0
   27.5850   30.7930   49.0910 C   0  0  0  0  0  0  0  0  0  0  0  0
   28.5030   31.3100   49.2980 H   0  0  0  0  0  0  0  0  0  0  0  0
   26.3720   31.4910   49.0180 C   0  0  0  0  0  3  0  0  0  0  0  0
   25.1840   30.8020   48.7480 C   0  0  0  0  0  0  0  0  0  0  0  0
   23.6510   31.6430   48.6500 Cl  0  0  0  0  0  0  0  0  0  0  0  0
   25.1870   29.4170   48.5480 C   0  0  0  0  0  0  0  0  0  0  0  0
   24.2610   28.9000   48.3410 H   0  0  0  0  0  0  0  0  0  0  0  0
  1  6  1  0  0  0  0
  1  9  1  0  0  0  0
  2  1  2  0  0  0  0
  3  4  2  0  0  0  0
  3  2  1  0  0  0  0
  4  5  1  0  0  0  0
  5 25  1  0  0  0  0
  5  6  2  0  0  0  0
  7  2  1  0  0  0  0
  8  3  1  0  0  0  0
  9 13  1  0  0  0  0
 10  9  1  0  0  0  0
 10 11  1  0  0  0  0
 11 16  1  1  0  0  0
 11 12  1  0  0  0  0
 12 18  1  0  0  0  0
 13 20  1  0  0  0  0
 13 19  1  0  0  0  0
 13 12  1  0  0  0  0
 14 10  1  0  0  0  0
 15 10  1  0  0  0  0
 17 12  1  0  0  0  0
 21 11  1  0  0  0  0
 21 22  1  0  0  0  0
 21 24  1  0  0  0  0
 23 21  1  0  0  0  0
 25 26  1  0  0  0  0
 26 27  2  0  0  0  0
 27 28  1  0  0  0  0
 27 31  1  0  0  0  0
 28 32  1  0  0  0  0
 29 28  2  0  0  0  0
 30 26  1  0  0  0  0
 30 29  1  0  0  0  0
 33 34  1  0  0  0  0
 34 35  1  0  0  0  0
 35 29  1  0  0  0  0
 35 36  2  0  0  0  0
 36 37  1  0  0  0  0
 38 36  1  0  0  0  0
 39 38  2  0  0  0  0
 40 39  1  0  0  0  0
 41 34  2  0  0  0  0
 41 39  1  0  0  0  0
 42 41  1  0  0  0  0
M  END
>  <minimizedAffinity>
-6.66106415

>  <minimizedRMSD>
0.71533376

$$$$
