
 OpenBabel03272503423D

 42 45  0  0  1  0  0  0  0  0999 V2000
   39.7790   31.5270   41.7080 C   0  0  2  0  0  0  0  0  0  0  0  0
   39.3830   32.6200   42.7280 C   0  0  1  0  0  0  0  0  0  0  0  0
   38.1300   33.1050   42.0740 C   0  0  0  0  0  0  0  0  0  0  0  0
   38.3280   33.0570   40.7170 O   0  0  0  0  0  0  0  0  0  0  0  0
   39.4500   32.3400   40.4370 C   0  0  0  0  0  0  0  0  0  0  0  0
   40.8440   31.3140   41.7670 H   0  0  0  0  0  0  0  0  0  0  0  0
   40.1260   33.4180   42.7760 H   0  0  0  0  0  0  0  0  0  0  0  0
   37.2740   32.4530   42.3680 H   0  0  0  0  0  0  0  0  0  0  0  0
   37.8860   34.1120   42.4370 H   0  0  0  0  0  0  0  0  0  0  0  0
   39.2460   31.6400   39.6000 H   0  0  0  0  0  0  0  0  0  0  0  0
   40.2970   33.0180   40.1840 H   0  0  0  0  0  0  0  0  0  0  0  0
   38.2530   31.2610   45.8610 C   0  0  0  0  0  0  0  0  0  0  0  0
   39.6000   31.0900   45.9950 C   0  0  0  0  0  0  0  0  0  0  0  0
   40.1450   31.5910   44.8150 C   0  0  0  0  0  0  0  0  0  0  0  0
   39.1580   32.0380   44.0250 N   0  0  0  0  0  0  0  0  0  0  0  0
   38.0040   31.8380   44.6620 N   0  0  0  0  0  0  0  0  0  0  0  0
   40.1190   30.6500   46.8500 H   0  0  0  0  0  0  0  0  0  0  0  0
   41.2370   31.5610   44.6860 H   0  0  0  0  0  0  0  0  0  0  0  0
   36.4510   30.6060   49.0800 C   0  0  0  0  0  0  0  0  0  0  0  0
   37.4460   30.9760   48.1960 C   0  0  0  0  0  0  0  0  0  0  0  0
   37.2540   30.8920   46.8370 C   0  0  0  0  0  0  0  0  0  0  0  0
   36.0520   30.4340   46.4210 N   0  0  0  0  0  0  0  0  0  0  0  0
   35.0780   30.0720   47.3060 C   0  0  0  0  0  0  0  0  0  0  0  0
   35.2600   30.1520   48.6050 N   0  0  0  0  0  0  0  0  0  0  0  0
   38.4310   31.3500   48.4900 H   0  0  0  0  0  0  0  0  0  0  0  0
   34.1160   29.7050   46.9460 H   0  0  0  0  0  0  0  0  0  0  0  0
   36.8350   30.7630   50.4170 O   0  0  0  0  0  0  0  0  0  0  0  0
   36.8840   29.6910   51.3320 C   0  0  0  0  0  0  0  0  0  0  0  0
   35.6220   29.2300   51.6730 F   0  0  0  0  0  0  0  0  0  0  0  0
   37.5790   30.0890   52.4400 F   0  0  0  0  0  0  0  0  0  0  0  0
   37.6020   28.6630   50.7480 F   0  0  0  0  0  0  0  0  0  0  0  0
   38.8720   30.5260   41.8480 O   0  0  0  0  0  0  0  0  0  0  0  0
   41.5160   28.8970   41.9870 Cl  0  0  0  0  0  0  0  0  0  0  0  0
   39.9200   28.2770   42.2970 C   0  0  0  0  0  0  0  0  0  0  0  0
   38.9260   29.2180   42.1640 C   0  0  0  0  0  0  0  0  0  0  0  0
   37.6310   28.7310   42.4120 C   0  0  0  0  0  0  0  0  0  0  0  0
   36.6860   29.2980   42.3660 H   0  0  0  0  0  0  0  0  0  0  0  0
   37.3700   27.4200   42.7600 C   0  0  0  0  0  3  0  0  0  0  0  0
   38.4290   26.5410   42.8720 C   0  0  0  0  0  0  0  0  0  0  0  0
   38.2100   24.8640   43.3070 Cl  0  0  0  0  0  0  0  0  0  0  0  0
   39.7150   26.9720   42.6390 C   0  0  0  0  0  0  0  0  0  0  0  0
   40.5840   26.3420   42.7080 H   0  0  0  0  0  0  0  0  0  0  0  0
  1  6  1  1  0  0  0
  1 32  1  0  0  0  0
  1  2  1  0  0  0  0
  2  7  1  1  0  0  0
  2 15  1  0  0  0  0
  3  8  1  0  0  0  0
  3  9  1  0  0  0  0
  3  2  1  0  0  0  0
  4  3  1  0  0  0  0
  5  4  1  0  0  0  0
  5  1  1  0  0  0  0
 10  5  1  0  0  0  0
 11  5  1  0  0  0  0
 12 13  1  0  0  0  0
 12 21  1  0  0  0  0
 13 17  1  0  0  0  0
 14 13  2  0  0  0  0
 15 16  1  0  0  0  0
 15 14  1  0  0  0  0
 16 12  2  0  0  0  0
 18 14  1  0  0  0  0
 19 27  1  0  0  0  0
 20 25  1  0  0  0  0
 20 19  2  0  0  0  0
 21 20  1  0  0  0  0
 22 21  2  0  0  0  0
 22 23  1  0  0  0  0
 23 24  2  0  0  0  0
 24 19  1  0  0  0  0
 26 23  1  0  0  0  0
 27 28  1  0  0  0  0
 28 29  1  0  0  0  0
 28 30  1  0  0  0  0
 31 28  1  0  0  0  0
 32 35  1  0  0  0  0
 33 34  1  0  0  0  0
 34 41  1  0  0  0  0
 35 34  2  0  0  0  0
 35 36  1  0  0  0  0
 36 38  2  0  0  0  0
 37 36  1  0  0  0  0
 38 39  1  0  0  0  0
 39 40  1  0  0  0  0
 41 42  1  0  0  0  0
 41 39  2  0  0  0  0
M  END
>  <minimizedAffinity>
-6.59344673

>  <minimizedRMSD>
0.823592305

$$$$
