
 OpenBabel03262522133D

 34 36  0  0  0  0  0  0  0  0999 V2000
   37.7900   31.7020   47.5690 C   0  0  0  0  0  0  0  0  0  0  0  0
   37.9270   32.5750   48.6600 C   0  0  0  0  0  0  0  0  0  0  0  0
   38.9500   33.4870   48.6830 C   0  0  0  0  0  0  0  0  0  0  0  0
   39.8070   33.4890   47.5990 C   0  0  0  0  0  0  0  0  0  0  0  0
   39.6480   32.6340   46.5610 C   0  0  0  0  0  0  0  0  0  0  0  0
   38.6390   31.7050   46.4950 N   0  0  0  0  0  0  0  0  0  0  0  0
   37.2220   32.5200   49.4740 H   0  0  0  0  0  0  0  0  0  0  0  0
   39.0560   34.1490   49.5110 H   0  0  0  0  0  0  0  0  0  0  0  0
   40.6140   34.2100   47.6200 H   0  0  0  0  0  0  0  0  0  0  0  0
   36.6820   30.7670   47.6130 C   0  0  0  0  0  0  0  0  0  0  0  0
   36.1220   30.4020   46.5760 O   0  0  0  0  0  0  0  0  0  0  0  0
   37.0880   29.6670   49.7910 C   0  0  0  0  0  0  0  0  0  0  0  0
   36.1780   30.2150   48.8790 C   0  0  0  0  0  0  0  0  0  0  0  0
   34.7970   30.2330   49.1780 C   0  0  0  0  0  0  0  0  0  0  0  0
   34.4260   29.6900   50.3930 N   0  0  0  0  0  0  0  0  0  0  0  0
   35.3310   29.1710   51.2470 C   0  0  0  0  0  0  0  0  0  0  0  0
   36.6140   29.1630   50.9520 N   0  0  0  0  0  0  0  0  0  0  0  0
   38.1460   29.6350   49.5970 H   0  0  0  0  0  0  0  0  0  0  0  0
   34.1630   30.6630   48.4450 H   0  0  0  0  0  0  0  0  0  0  0  0
   34.7950   28.8160   52.1160 H   0  0  0  0  0  0  0  0  0  0  0  0
   40.7740   32.6490   45.1440 S   0  0  0  0  0  0  0  0  0  0  0  0
   39.7310   32.5780   43.6720 C   0  0  0  0  0  0  0  0  0  0  0  0
   38.9110   33.3390   43.6920 H   0  0  0  0  0  0  0  0  0  0  0  0
   40.3440   32.8820   42.7720 H   0  0  0  0  0  0  0  0  0  0  0  0
   36.6870   32.3360   43.5080 Cl  0  0  0  0  0  0  0  0  0  0  0  0
   37.7980   30.9990   43.3040 C   0  0  0  0  0  0  0  0  0  0  0  0
   39.1740   31.2340   43.3960 C   0  0  0  0  0  0  0  0  0  0  0  0
   39.9530   30.1140   43.2210 C   0  0  0  0  0  0  0  0  0  0  0  0
   41.0330   30.3150   43.2940 H   0  0  0  0  0  0  0  0  0  0  0  0
   39.5690   28.8160   42.9720 C   0  0  0  0  0  3  0  0  0  0  0  0
   38.1840   28.6310   42.8910 C   0  0  0  0  0  0  0  0  0  0  0  0
   37.6200   27.0020   42.5780 Cl  0  0  0  0  0  0  0  0  0  0  0  0
   37.3100   29.7120   43.0550 C   0  0  0  0  0  0  0  0  0  0  0  0
   36.2480   29.5100   42.9810 H   0  0  0  0  0  0  0  0  0  0  0  0
  1 10  1  0  0  0  0
  1  2  1  0  0  0  0
  2  3  2  0  0  0  0
  2  7  1  0  0  0  0
  3  8  1  0  0  0  0
  4  9  1  0  0  0  0
  4  3  1  0  0  0  0
  5  4  2  0  0  0  0
  6  5  1  0  0  0  0
  6  1  2  0  0  0  0
 10 13  1  0  0  0  0
 11 10  2  0  0  0  0
 12 17  1  0  0  0  0
 13 14  1  0  0  0  0
 13 12  2  0  0  0  0
 14 15  2  0  0  0  0
 15 16  1  0  0  0  0
 16 20  1  0  0  0  0
 17 16  2  0  0  0  0
 18 12  1  0  0  0  0
 19 14  1  0  0  0  0
 21  5  1  0  0  0  0
 22 23  1  0  0  0  0
 22 21  1  0  0  0  0
 24 22  1  0  0  0  0
 26 27  1  0  0  0  0
 26 25  1  0  0  0  0
 27 22  1  0  0  0  0
 28 29  1  0  0  0  0
 28 27  2  0  0  0  0
 30 28  1  0  0  0  0
 31 30  2  0  0  0  0
 31 33  1  0  0  0  0
 32 31  1  0  0  0  0
 33 26  2  0  0  0  0
 34 33  1  0  0  0  0
M  END
>  <minimizedAffinity>
-5.52923536

>  <minimizedRMSD>
0.88358438

$$$$
