
 OpenBabel03272510273D

 46 50  0  0  1  0  0  0  0  0999 V2000
   39.5090   33.5660   43.3580 O   0  0  0  0  0  0  0  0  0  0  0  0
   36.2220   30.2280   46.9360 C   0  0  0  0  0  0  0  0  0  0  0  0
   37.0610   30.7560   47.9030 C   0  0  0  0  0  0  0  0  0  0  0  0
   38.0710   31.6570   47.5460 C   0  0  0  0  0  0  0  0  0  0  0  0
   38.1590   31.9680   46.1940 C   0  0  0  0  0  0  0  0  0  0  0  0
   39.0670   32.8180   45.5990 N   0  0  0  0  0  0  0  0  0  0  0  0
   38.7870   32.8120   44.2890 C   0  0  0  0  0  0  0  0  0  0  0  0
   37.7690   32.0130   44.0620 N   0  0  0  0  0  0  0  0  0  0  0  0
   37.3480   31.4670   45.2140 C   0  0  0  0  0  0  0  0  0  0  0  0
   36.3510   30.5720   45.5960 C   0  0  0  0  0  0  0  0  0  0  0  0
   35.4210   29.5240   47.1530 H   0  0  0  0  0  0  0  0  0  0  0  0
   38.7330   32.0770   48.2910 H   0  0  0  0  0  0  0  0  0  0  0  0
   39.8180   33.3500   46.1040 H   0  0  0  0  0  0  0  0  0  0  0  0
   35.7040   30.1700   44.8260 H   0  0  0  0  0  0  0  0  0  0  0  0
   37.4300   30.1220   51.5800 C   0  0  0  0  0  0  0  0  0  0  0  0
   37.7560   30.5780   50.3100 C   0  0  0  0  0  0  0  0  0  0  0  0
   36.8660   30.3490   49.2780 C   0  0  0  0  0  0  0  0  0  0  0  0
   35.7050   29.6810   49.5760 N   0  0  0  0  0  0  0  0  0  0  0  0
   35.4090   29.2470   50.8170 C   0  0  0  0  0  0  0  0  0  0  0  0
   36.2700   29.4700   51.8020 N   0  0  0  0  0  0  0  0  0  0  0  0
   38.1420   30.3100   52.3840 H   0  0  0  0  0  0  0  0  0  0  0  0
   38.6680   31.1020   50.0820 H   0  0  0  0  0  0  0  0  0  0  0  0
   34.4650   28.7320   50.9320 H   0  0  0  0  0  0  0  0  0  0  0  0
   39.5940   31.6700   42.0470 N   0  0  0  0  0  0  0  0  0  0  0  0
   39.4580   33.1290   42.0080 C   0  0  1  0  0  0  0  0  0  0  0  0
   38.1670   33.4520   41.4140 C   0  0  0  0  0  0  0  0  0  0  0  0
   38.1690   33.0360   40.0770 O   0  0  0  0  0  0  0  0  0  0  0  0
   38.4280   31.6930   39.8970 C   0  0  0  0  0  0  0  0  0  0  0  0
   39.6610   31.2550   40.6800 C   0  0  2  0  0  0  0  0  0  0  0  0
   38.7390   31.2200   42.4170 H   0  0  0  0  0  0  0  0  0  0  0  0
   40.2850   33.4790   41.3940 H   0  0  0  0  0  0  0  0  0  0  0  0
   37.2310   33.1100   41.7690 H   0  0  0  0  0  0  0  0  0  0  0  0
   38.0950   34.5810   41.3460 H   0  0  0  0  0  0  0  0  0  0  0  0
   37.5680   31.0680   40.1890 H   0  0  0  0  0  0  0  0  0  0  0  0
   38.6290   31.5460   38.8240 H   0  0  0  0  0  0  0  0  0  0  0  0
   40.5750   31.7310   40.2030 H   0  0  0  0  0  0  0  0  0  0  0  0
   38.0170   28.9110   42.2970 Cl  0  0  0  0  0  0  0  0  0  0  0  0
   39.2310   28.6640   41.0710 C   0  0  0  0  0  0  0  0  0  0  0  0
   39.7840   29.8060   40.5540 C   0  0  0  0  0  0  0  0  0  0  0  0
   40.7590   29.4800   39.5870 C   0  0  0  0  0  0  0  0  0  0  0  0
   41.3520   30.2160   39.0230 H   0  0  0  0  0  0  0  0  0  0  0  0
   41.1250   28.1900   39.1940 C   0  0  0  0  0  3  0  0  0  0  0  0
   40.4990   27.1350   39.7830 C   0  0  0  0  0  0  0  0  0  0  0  0
   40.8730   25.4790   39.3710 Cl  0  0  0  0  0  0  0  0  0  0  0  0
   39.5460   27.3780   40.7270 C   0  0  0  0  0  0  0  0  0  0  0  0
   39.0340   26.5800   41.2100 H   0  0  0  0  0  0  0  0  0  0  0  0
  1  7  1  0  0  0  0
  2 11  1  0  0  0  0
  2  3  1  0  0  0  0
  3 17  1  0  0  0  0
  4  3  2  0  0  0  0
  4 12  1  0  0  0  0
  5  4  1  0  0  0  0
  6 13  1  0  0  0  0
  6  5  1  0  0  0  0
  7  6  1  0  0  0  0
  8  7  2  0  0  0  0
  8  9  1  0  0  0  0
  9 10  1  0  0  0  0
  9  5  2  0  0  0  0
 10  2  2  0  0  0  0
 14 10  1  0  0  0  0
 15 20  1  0  0  0  0
 15 21  1  0  0  0  0
 16 15  2  0  0  0  0
 17 18  2  0  0  0  0
 17 16  1  0  0  0  0
 18 19  1  0  0  0  0
 19 23  1  0  0  0  0
 19 20  2  0  0  0  0
 22 16  1  0  0  0  0
 24 30  1  0  0  0  0
 25 31  1  6  0  0  0
 25 24  1  0  0  0  0
 25  1  1  0  0  0  0
 26 32  1  0  0  0  0
 26 25  1  0  0  0  0
 27 26  1  0  0  0  0
 28 27  1  0  0  0  0
 28 34  1  0  0  0  0
 28 29  1  0  0  0  0
 29 36  1  6  0  0  0
 29 24  1  0  0  0  0
 33 26  1  0  0  0  0
 35 28  1  0  0  0  0
 38 37  1  0  0  0  0
 39 29  1  0  0  0  0
 39 38  2  0  0  0  0
 40 39  1  0  0  0  0
 41 40  1  0  0  0  0
 42 40  2  0  0  0  0
 42 43  1  0  0  0  0
 43 45  2  0  0  0  0
 44 43  1  0  0  0  0
 45 38  1  0  0  0  0
 45 46  1  0  0  0  0
M  END
>  <minimizedAffinity>
-6.18298912

>  <minimizedRMSD>
0.527083337

$$$$
