
 OpenBabel03272503333D

 42 45  0  0  1  0  0  0  0  0999 V2000
   35.8030   29.5810   47.8240 C   0  0  0  0  0  0  0  0  0  0  0  0
   35.7230   30.2390   46.5970 C   0  0  0  0  0  0  0  0  0  0  0  0
   34.7640   29.7870   45.6830 C   0  0  0  0  0  0  0  0  0  0  0  0
   33.9720   28.7250   46.0680 N   0  0  0  0  0  0  0  0  0  0  0  0
   34.0850   28.1260   47.2540 C   0  0  0  0  0  0  0  0  0  0  0  0
   35.0010   28.5570   48.1290 N   0  0  0  0  0  0  0  0  0  0  0  0
   36.3440   31.0710   46.2930 H   0  0  0  0  0  0  0  0  0  0  0  0
   34.6260   30.2240   44.7180 H   0  0  0  0  0  0  0  0  0  0  0  0
   36.7900   30.0530   48.7520 N   0  0  0  0  0  0  0  0  0  0  0  0
   38.0280   30.7030   48.4450 C   0  0  0  0  0  0  0  0  0  0  0  0
   38.2680   31.5530   49.6850 C   0  0  2  0  0  0  0  0  0  0  0  0
   37.0200   31.4030   50.5530 C   0  0  0  0  0  0  0  0  0  0  0  0
   36.7110   29.9550   50.2070 C   0  0  0  0  0  0  0  0  0  0  0  0
   37.9540   31.3670   47.5420 H   0  0  0  0  0  0  0  0  0  0  0  0
   38.8780   29.9870   48.3420 H   0  0  0  0  0  0  0  0  0  0  0  0
   39.1060   31.1410   50.2970 H   0  0  0  0  0  0  0  0  0  0  0  0
   36.2350   32.0580   50.1720 H   0  0  0  0  0  0  0  0  0  0  0  0
   37.2410   31.5440   51.6170 H   0  0  0  0  0  0  0  0  0  0  0  0
   35.6810   29.7160   50.5190 H   0  0  0  0  0  0  0  0  0  0  0  0
   37.4830   29.3010   50.6230 H   0  0  0  0  0  0  0  0  0  0  0  0
   38.5310   32.9920   49.3410 C   0  0  0  0  0  0  0  0  0  0  0  0
   37.3370   33.6660   49.5050 F   0  0  0  0  0  0  0  0  0  0  0  0
   38.8260   33.0390   48.0030 F   0  0  0  0  0  0  0  0  0  0  0  0
   39.5390   33.5500   50.0810 F   0  0  0  0  0  0  0  0  0  0  0  0
   33.0310   26.7590   47.6940 S   0  0  0  0  0  0  0  0  0  0  0  0
   31.5130   27.1100   48.3440 C   0  0  0  0  0  0  0  0  0  0  0  0
   30.6600   26.6950   49.3230 C   0  0  0  0  0  0  0  0  0  0  0  0
   29.4450   27.2310   49.5840 C   0  0  0  0  0  0  0  0  0  0  0  0
   29.0990   28.3520   48.6800 C   0  0  0  0  0  0  0  0  0  0  0  0
   30.5350   28.5080   47.5770 S   0  0  0  0  0  0  0  0  0  0  0  0
   31.0850   25.8720   49.8760 H   0  0  0  0  0  0  0  0  0  0  0  0
   28.7780   26.9010   50.3550 H   0  0  0  0  0  0  0  0  0  0  0  0
   27.1010   27.3890   46.7080 Cl  0  0  0  0  0  0  0  0  0  0  0  0
   26.9360   28.7540   47.7880 C   0  0  0  0  0  0  0  0  0  0  0  0
   27.9240   29.1240   48.6730 C   0  0  0  0  0  0  0  0  0  0  0  0
   27.8550   30.1840   49.5470 C   0  0  0  0  0  0  0  0  0  0  0  0
   28.6570   30.4310   50.2180 H   0  0  0  0  0  0  0  0  0  0  0  0
   26.6790   30.9450   49.5290 C   0  0  0  0  0  3  0  0  0  0  0  0
   25.6420   30.6130   48.6490 C   0  0  0  0  0  0  0  0  0  0  0  0
   24.1590   31.5430   48.6010 Cl  0  0  0  0  0  0  0  0  0  0  0  0
   25.7640   29.5220   47.7800 C   0  0  0  0  0  0  0  0  0  0  0  0
   24.9540   29.2780   47.1060 H   0  0  0  0  0  0  0  0  0  0  0  0
  1  6  1  0  0  0  0
  1  9  1  0  0  0  0
  2  1  2  0  0  0  0
  3  4  2  0  0  0  0
  3  2  1  0  0  0  0
  4  5  1  0  0  0  0
  5 25  1  0  0  0  0
  5  6  2  0  0  0  0
  7  2  1  0  0  0  0
  8  3  1  0  0  0  0
  9 13  1  0  0  0  0
 10  9  1  0  0  0  0
 10 11  1  0  0  0  0
 11 16  1  1  0  0  0
 11 12  1  0  0  0  0
 12 18  1  0  0  0  0
 13 19  1  0  0  0  0
 13 12  1  0  0  0  0
 13 20  1  0  0  0  0
 14 10  1  0  0  0  0
 15 10  1  0  0  0  0
 17 12  1  0  0  0  0
 21 22  1  0  0  0  0
 21 11  1  0  0  0  0
 21 24  1  0  0  0  0
 23 21  1  0  0  0  0
 25 26  1  0  0  0  0
 26 27  2  0  0  0  0
 27 28  1  0  0  0  0
 27 31  1  0  0  0  0
 28 32  1  0  0  0  0
 29 28  2  0  0  0  0
 30 26  1  0  0  0  0
 30 29  1  0  0  0  0
 33 34  1  0  0  0  0
 34 35  1  0  0  0  0
 35 29  1  0  0  0  0
 35 36  2  0  0  0  0
 36 37  1  0  0  0  0
 38 36  1  0  0  0  0
 39 38  2  0  0  0  0
 40 39  1  0  0  0  0
 41 34  2  0  0  0  0
 41 39  1  0  0  0  0
 42 41  1  0  0  0  0
M  END
>  <minimizedAffinity>
-6.62863874

>  <minimizedRMSD>
1.19400752

$$$$
