
 OpenBabel03262522153D

 46 49  0  0  1  0  0  0  0  0999 V2000
   39.4300   33.1370   43.9490 C   0  0  0  0  0  0  0  0  0  0  0  0
   39.4810   33.9880   43.2210 H   0  0  0  0  0  0  0  0  0  0  0  0
   38.3790   32.9770   44.2080 H   0  0  0  0  0  0  0  0  0  0  0  0
   39.0840   29.7000   43.1560 C   0  0  1  0  0  0  0  0  0  0  0  0
   38.7300   31.1050   42.6890 C   0  0  0  0  0  0  0  0  0  0  0  0
   39.9010   31.8830   43.2440 C   0  0  2  0  0  0  0  0  0  0  0  0
   40.6250   31.0690   44.0580 O   0  0  0  0  0  0  0  0  0  0  0  0
   39.8120   30.0150   44.4540 C   0  0  0  0  0  0  0  0  0  0  0  0
   39.7560   29.2280   42.4200 H   0  0  0  0  0  0  0  0  0  0  0  0
   38.7560   31.1580   41.5760 H   0  0  0  0  0  0  0  0  0  0  0  0
   37.7850   31.4580   43.1340 H   0  0  0  0  0  0  0  0  0  0  0  0
   40.5640   32.2160   42.4110 H   0  0  0  0  0  0  0  0  0  0  0  0
   39.0200   30.3600   45.1580 H   0  0  0  0  0  0  0  0  0  0  0  0
   40.3880   29.1610   44.8260 H   0  0  0  0  0  0  0  0  0  0  0  0
   37.9500   28.9470   43.3810 O   0  0  0  0  0  0  0  0  0  0  0  0
   39.0890   26.2620   43.2980 Cl  0  0  0  0  0  0  0  0  0  0  0  0
   37.7020   26.8170   42.3900 C   0  0  0  0  0  0  0  0  0  0  0  0
   37.2800   28.1190   42.5360 C   0  0  0  0  0  0  0  0  0  0  0  0
   36.1870   28.4710   41.7870 C   0  0  0  0  0  0  0  0  0  0  0  0
   35.8030   29.4730   41.8510 H   0  0  0  0  0  0  0  0  0  0  0  0
   35.5480   27.6060   40.9510 C   0  0  0  0  0  3  0  0  0  0  0  0
   36.0050   26.3090   40.8370 C   0  0  0  0  0  0  0  0  0  0  0  0
   35.2090   25.1710   39.7740 Cl  0  0  0  0  0  0  0  0  0  0  0  0
   37.1020   25.9060   41.5690 C   0  0  0  0  0  0  0  0  0  0  0  0
   37.4690   24.8830   41.4830 H   0  0  0  0  0  0  0  0  0  0  0  0
   40.5210   33.4150   45.3650 S   0  0  0  0  0  0  0  0  0  0  0  0
   37.7750   31.8490   47.7820 C   0  0  0  0  0  0  0  0  0  0  0  0
   37.9490   32.5580   48.9800 C   0  0  0  0  0  0  0  0  0  0  0  0
   38.9080   33.5420   49.1060 C   0  0  0  0  0  0  0  0  0  0  0  0
   39.6780   33.7840   47.9880 C   0  0  0  0  0  0  0  0  0  0  0  0
   39.4950   33.0870   46.8370 C   0  0  0  0  0  0  0  0  0  0  0  0
   38.5560   32.1200   46.7080 N   0  0  0  0  0  0  0  0  0  0  0  0
   37.3330   32.3530   49.8470 H   0  0  0  0  0  0  0  0  0  0  0  0
   39.0320   34.0820   50.0380 H   0  0  0  0  0  0  0  0  0  0  0  0
   40.4510   34.5410   48.0140 H   0  0  0  0  0  0  0  0  0  0  0  0
   36.7580   30.8450   47.7390 C   0  0  0  0  0  0  0  0  0  0  0  0
   36.3290   30.4150   46.6700 O   0  0  0  0  0  0  0  0  0  0  0  0
   37.0310   29.6440   49.8770 C   0  0  0  0  0  0  0  0  0  0  0  0
   36.1650   30.2720   48.9540 C   0  0  0  0  0  0  0  0  0  0  0  0
   34.7930   30.3200   49.2290 C   0  0  0  0  0  0  0  0  0  0  0  0
   34.3470   29.7530   50.3940 N   0  0  0  0  0  0  0  0  0  0  0  0
   35.1930   29.1620   51.2550 C   0  0  0  0  0  0  0  0  0  0  0  0
   36.4980   29.1110   51.0010 N   0  0  0  0  0  0  0  0  0  0  0  0
   38.0870   29.6240   49.6330 H   0  0  0  0  0  0  0  0  0  0  0  0
   34.1510   30.7950   48.5270 H   0  0  0  0  0  0  0  0  0  0  0  0
   34.8730   28.7050   52.1840 H   0  0  0  0  0  0  0  0  0  0  0  0
  1  3  1  0  0  0  0
  1 26  1  0  0  0  0
  2  1  1  0  0  0  0
  4  9  1  6  0  0  0
  4 15  1  0  0  0  0
  4  8  1  0  0  0  0
  5 11  1  0  0  0  0
  5  4  1  0  0  0  0
  5  6  1  0  0  0  0
  6 12  1  6  0  0  0
  6  1  1  0  0  0  0
  6  7  1  0  0  0  0
  7  8  1  0  0  0  0
  8 14  1  0  0  0  0
  8 13  1  0  0  0  0
 10  5  1  0  0  0  0
 17 18  1  0  0  0  0
 17 16  1  0  0  0  0
 18 15  1  0  0  0  0
 19 20  1  0  0  0  0
 19 18  2  0  0  0  0
 21 19  1  0  0  0  0
 22 21  2  0  0  0  0
 22 24  1  0  0  0  0
 23 22  1  0  0  0  0
 24 17  2  0  0  0  0
 25 24  1  0  0  0  0
 26 31  1  0  0  0  0
 27 28  1  0  0  0  0
 28 29  2  0  0  0  0
 28 33  1  0  0  0  0
 29 34  1  0  0  0  0
 30 35  1  0  0  0  0
 30 29  1  0  0  0  0
 31 30  2  0  0  0  0
 32 31  1  0  0  0  0
 32 27  2  0  0  0  0
 36 27  1  0  0  0  0
 36 39  1  0  0  0  0
 37 36  2  0  0  0  0
 38 43  1  0  0  0  0
 39 40  1  0  0  0  0
 39 38  2  0  0  0  0
 40 41  2  0  0  0  0
 41 42  1  0  0  0  0
 42 46  1  0  0  0  0
 43 42  2  0  0  0  0
 44 38  1  0  0  0  0
 45 40  1  0  0  0  0
M  END
>  <minimizedAffinity>
-5.32085323

>  <minimizedRMSD>
0.802386999

$$$$
