
 OpenBabel03272503413D

 42 45  0  0  1  0  0  0  0  0999 V2000
   39.7830   31.5220   41.7180 C   0  0  2  0  0  0  0  0  0  0  0  0
   39.3850   32.6140   42.7390 C   0  0  1  0  0  0  0  0  0  0  0  0
   38.1340   33.1010   42.0840 C   0  0  0  0  0  0  0  0  0  0  0  0
   38.3350   33.0550   40.7270 O   0  0  0  0  0  0  0  0  0  0  0  0
   39.4570   32.3380   40.4480 C   0  0  0  0  0  0  0  0  0  0  0  0
   40.8480   31.3090   41.7790 H   0  0  0  0  0  0  0  0  0  0  0  0
   40.1280   33.4110   42.7910 H   0  0  0  0  0  0  0  0  0  0  0  0
   37.2770   32.4480   42.3740 H   0  0  0  0  0  0  0  0  0  0  0  0
   37.8900   34.1070   42.4480 H   0  0  0  0  0  0  0  0  0  0  0  0
   39.2540   31.6410   39.6090 H   0  0  0  0  0  0  0  0  0  0  0  0
   40.3060   33.0160   40.1990 H   0  0  0  0  0  0  0  0  0  0  0  0
   38.2480   31.2530   45.8690 C   0  0  0  0  0  0  0  0  0  0  0  0
   39.5940   31.0720   46.0020 C   0  0  0  0  0  0  0  0  0  0  0  0
   40.1410   31.5730   44.8230 C   0  0  0  0  0  0  0  0  0  0  0  0
   39.1570   32.0290   44.0350 N   0  0  0  0  0  0  0  0  0  0  0  0
   38.0020   31.8340   44.6720 N   0  0  0  0  0  0  0  0  0  0  0  0
   40.1100   30.6260   46.8550 H   0  0  0  0  0  0  0  0  0  0  0  0
   41.2330   31.5360   44.6930 H   0  0  0  0  0  0  0  0  0  0  0  0
   36.4400   30.6050   49.0870 C   0  0  0  0  0  0  0  0  0  0  0  0
   37.4370   30.9720   48.2040 C   0  0  0  0  0  0  0  0  0  0  0  0
   37.2470   30.8870   46.8440 C   0  0  0  0  0  0  0  0  0  0  0  0
   36.0440   30.4310   46.4280 N   0  0  0  0  0  0  0  0  0  0  0  0
   35.0680   30.0720   47.3120 C   0  0  0  0  0  0  0  0  0  0  0  0
   35.2490   30.1540   48.6110 N   0  0  0  0  0  0  0  0  0  0  0  0
   38.4230   31.3450   48.4980 H   0  0  0  0  0  0  0  0  0  0  0  0
   34.1060   29.7070   46.9510 H   0  0  0  0  0  0  0  0  0  0  0  0
   36.8240   30.7630   50.4240 O   0  0  0  0  0  0  0  0  0  0  0  0
   36.8750   29.6920   51.3390 C   0  0  0  0  0  0  0  0  0  0  0  0
   35.6130   29.2220   51.6710 F   0  0  0  0  0  0  0  0  0  0  0  0
   37.5580   30.0950   52.4520 F   0  0  0  0  0  0  0  0  0  0  0  0
   37.6040   28.6690   50.7600 F   0  0  0  0  0  0  0  0  0  0  0  0
   38.8750   30.5220   41.8540 O   0  0  0  0  0  0  0  0  0  0  0  0
   41.5160   28.8880   41.9830 Cl  0  0  0  0  0  0  0  0  0  0  0  0
   39.9210   28.2700   42.2970 C   0  0  0  0  0  0  0  0  0  0  0  0
   38.9270   29.2130   42.1680 C   0  0  0  0  0  0  0  0  0  0  0  0
   37.6320   28.7280   42.4180 C   0  0  0  0  0  0  0  0  0  0  0  0
   36.6890   29.2960   42.3760 H   0  0  0  0  0  0  0  0  0  0  0  0
   37.3700   27.4180   42.7650 C   0  0  0  0  0  0  0  0  0  0  0  0
   38.4280   26.5350   42.8730 C   0  0  0  0  0  0  0  0  0  0  0  0
   38.2060   24.8580   43.3040 Cl  0  0  0  0  0  0  0  0  0  0  0  0
   39.7130   26.9650   42.6360 C   0  0  0  0  0  0  0  0  0  0  0  0
   40.5810   26.3330   42.7020 H   0  0  0  0  0  0  0  0  0  0  0  0
  1  6  1  1  0  0  0
  1 32  1  0  0  0  0
  1  2  1  0  0  0  0
  2  7  1  1  0  0  0
  2 15  1  0  0  0  0
  3  8  1  0  0  0  0
  3  9  1  0  0  0  0
  3  2  1  0  0  0  0
  4  3  1  0  0  0  0
  5  4  1  0  0  0  0
  5  1  1  0  0  0  0
 10  5  1  0  0  0  0
 11  5  1  0  0  0  0
 12 13  1  0  0  0  0
 12 21  1  0  0  0  0
 13 17  1  0  0  0  0
 14 13  2  0  0  0  0
 15 16  1  0  0  0  0
 15 14  1  0  0  0  0
 16 12  2  0  0  0  0
 18 14  1  0  0  0  0
 19 27  1  0  0  0  0
 20 25  1  0  0  0  0
 20 19  2  0  0  0  0
 21 20  1  0  0  0  0
 22 21  2  0  0  0  0
 22 23  1  0  0  0  0
 23 24  2  0  0  0  0
 24 19  1  0  0  0  0
 26 23  1  0  0  0  0
 27 28  1  0  0  0  0
 28 29  1  0  0  0  0
 28 30  1  0  0  0  0
 31 28  1  0  0  0  0
 32 35  1  0  0  0  0
 33 34  1  0  0  0  0
 34 41  1  0  0  0  0
 35 34  2  0  0  0  0
 35 36  1  0  0  0  0
 36 38  2  0  0  0  0
 37 36  1  0  0  0  0
 38 39  1  0  0  0  0
 39 40  1  0  0  0  0
 41 42  1  0  0  0  0
 41 39  2  0  0  0  0
M  END
>  <minimizedAffinity>
-6.59448957

>  <minimizedRMSD>
0.863039196

$$$$
