
 OpenBabel03272510273D

 46 50  0  0  1  0  0  0  0  0999 V2000
   39.4990   33.5530   43.3160 O   0  0  0  0  0  0  0  0  0  0  0  0
   36.2290   30.2250   46.9180 C   0  0  0  0  0  0  0  0  0  0  0  0
   37.0700   30.7570   47.8800 C   0  0  0  0  0  0  0  0  0  0  0  0
   38.0770   31.6580   47.5160 C   0  0  0  0  0  0  0  0  0  0  0  0
   38.1610   31.9640   46.1620 C   0  0  0  0  0  0  0  0  0  0  0  0
   39.0650   32.8130   45.5600 N   0  0  0  0  0  0  0  0  0  0  0  0
   38.7800   32.8010   44.2510 C   0  0  0  0  0  0  0  0  0  0  0  0
   37.7630   32.0000   44.0320 N   0  0  0  0  0  0  0  0  0  0  0  0
   37.3470   31.4580   45.1870 C   0  0  0  0  0  0  0  0  0  0  0  0
   36.3520   30.5630   45.5760 C   0  0  0  0  0  0  0  0  0  0  0  0
   35.4280   29.5210   47.1400 H   0  0  0  0  0  0  0  0  0  0  0  0
   38.7420   32.0810   48.2560 H   0  0  0  0  0  0  0  0  0  0  0  0
   39.8180   33.3480   46.0600 H   0  0  0  0  0  0  0  0  0  0  0  0
   35.7030   30.1580   44.8100 H   0  0  0  0  0  0  0  0  0  0  0  0
   37.4530   30.1370   51.5570 C   0  0  0  0  0  0  0  0  0  0  0  0
   37.7740   30.5880   50.2850 C   0  0  0  0  0  0  0  0  0  0  0  0
   36.8800   30.3550   49.2570 C   0  0  0  0  0  0  0  0  0  0  0  0
   35.7200   29.6880   49.5620 N   0  0  0  0  0  0  0  0  0  0  0  0
   35.4300   29.2590   50.8060 C   0  0  0  0  0  0  0  0  0  0  0  0
   36.2940   29.4860   51.7860 N   0  0  0  0  0  0  0  0  0  0  0  0
   38.1680   30.3270   52.3580 H   0  0  0  0  0  0  0  0  0  0  0  0
   38.6850   31.1110   50.0510 H   0  0  0  0  0  0  0  0  0  0  0  0
   34.4860   28.7440   50.9260 H   0  0  0  0  0  0  0  0  0  0  0  0
   39.6030   31.6680   41.9900 N   0  0  0  0  0  0  0  0  0  0  0  0
   39.4270   33.1230   41.9640 C   0  0  1  0  0  0  0  0  0  0  0  0
   38.1140   33.4150   41.4030 C   0  0  0  0  0  0  0  0  0  0  0  0
   38.0940   33.0070   40.0640 O   0  0  0  0  0  0  0  0  0  0  0  0
   38.3840   31.6720   39.8690 C   0  0  0  0  0  0  0  0  0  0  0  0
   39.6480   31.2630   40.6200 C   0  0  2  0  0  0  0  0  0  0  0  0
   38.7690   31.1930   42.3780 H   0  0  0  0  0  0  0  0  0  0  0  0
   40.2290   33.4980   41.3330 H   0  0  0  0  0  0  0  0  0  0  0  0
   37.1950   33.0460   41.7780 H   0  0  0  0  0  0  0  0  0  0  0  0
   38.0100   34.5420   41.3440 H   0  0  0  0  0  0  0  0  0  0  0  0
   37.5490   31.0220   40.1770 H   0  0  0  0  0  0  0  0  0  0  0  0
   38.5630   31.5370   38.7900 H   0  0  0  0  0  0  0  0  0  0  0  0
   40.5360   31.7660   40.1240 H   0  0  0  0  0  0  0  0  0  0  0  0
   38.0570   28.8670   42.2110 Cl  0  0  0  0  0  0  0  0  0  0  0  0
   39.2790   28.6580   40.9870 C   0  0  0  0  0  0  0  0  0  0  0  0
   39.8060   29.8180   40.4810 C   0  0  0  0  0  0  0  0  0  0  0  0
   40.7910   29.5240   39.5130 C   0  0  0  0  0  0  0  0  0  0  0  0
   41.3670   30.2790   38.9570 H   0  0  0  0  0  0  0  0  0  0  0  0
   41.1890   28.2470   39.1100 C   0  0  0  0  0  3  0  0  0  0  0  0
   40.5880   27.1720   39.6880 C   0  0  0  0  0  0  0  0  0  0  0  0
   41.0030   25.5300   39.2630 Cl  0  0  0  0  0  0  0  0  0  0  0  0
   39.6270   27.3840   40.6320 C   0  0  0  0  0  0  0  0  0  0  0  0
   39.1330   26.5700   41.1070 H   0  0  0  0  0  0  0  0  0  0  0  0
  1  7  1  0  0  0  0
  2 11  1  0  0  0  0
  2  3  1  0  0  0  0
  3 17  1  0  0  0  0
  4  3  2  0  0  0  0
  4 12  1  0  0  0  0
  5  4  1  0  0  0  0
  6 13  1  0  0  0  0
  6  5  1  0  0  0  0
  7  6  1  0  0  0  0
  8  7  2  0  0  0  0
  8  9  1  0  0  0  0
  9 10  1  0  0  0  0
  9  5  2  0  0  0  0
 10  2  2  0  0  0  0
 14 10  1  0  0  0  0
 15 20  1  0  0  0  0
 15 21  1  0  0  0  0
 16 15  2  0  0  0  0
 17 18  2  0  0  0  0
 17 16  1  0  0  0  0
 18 19  1  0  0  0  0
 19 23  1  0  0  0  0
 19 20  2  0  0  0  0
 22 16  1  0  0  0  0
 24 30  1  0  0  0  0
 25 31  1  6  0  0  0
 25 24  1  0  0  0  0
 25  1  1  0  0  0  0
 26 32  1  0  0  0  0
 26 25  1  0  0  0  0
 27 26  1  0  0  0  0
 28 27  1  0  0  0  0
 28 34  1  0  0  0  0
 28 29  1  0  0  0  0
 29 36  1  6  0  0  0
 29 24  1  0  0  0  0
 33 26  1  0  0  0  0
 35 28  1  0  0  0  0
 38 37  1  0  0  0  0
 39 29  1  0  0  0  0
 39 38  2  0  0  0  0
 40 39  1  0  0  0  0
 41 40  1  0  0  0  0
 42 40  2  0  0  0  0
 42 43  1  0  0  0  0
 43 45  2  0  0  0  0
 44 43  1  0  0  0  0
 45 38  1  0  0  0  0
 45 46  1  0  0  0  0
M  END
>  <minimizedAffinity>
-6.17387819

>  <minimizedRMSD>
0.518462658

$$$$
