
 OpenBabel03272510303D

 29 31  0  0  0  0  0  0  0  0999 V2000
   37.2760   31.3720   49.3190 C   0  0  0  0  0  0  0  0  0  0  0  0
   37.4790   32.6550   49.8320 C   0  0  0  0  0  0  0  0  0  0  0  0
   38.3680   33.4430   49.1380 C   0  0  0  0  0  0  0  0  0  0  0  0
   38.9910   32.9500   48.0150 N   0  0  0  0  0  0  0  0  0  0  0  0
   38.7590   31.6900   47.5550 C   0  0  0  0  0  0  0  0  0  0  0  0
   37.8800   30.8800   48.2230 N   0  0  0  0  0  0  0  0  0  0  0  0
   36.9510   32.9740   50.7230 H   0  0  0  0  0  0  0  0  0  0  0  0
   38.5730   34.4500   49.4800 H   0  0  0  0  0  0  0  0  0  0  0  0
   36.2840   30.4890   50.0330 C   0  0  0  0  0  0  0  0  0  0  0  0
   36.2760   29.0540   49.9110 C   0  0  0  0  0  0  0  0  0  0  0  0
   36.9280   29.6490   51.1460 C   0  0  0  0  0  0  0  0  0  0  0  0
   35.3460   31.0280   50.3350 H   0  0  0  0  0  0  0  0  0  0  0  0
   35.3370   28.4990   50.0150 H   0  0  0  0  0  0  0  0  0  0  0  0
   36.9750   28.6140   49.1450 H   0  0  0  0  0  0  0  0  0  0  0  0
   36.3280   29.6020   52.0610 H   0  0  0  0  0  0  0  0  0  0  0  0
   38.0250   29.6480   51.2520 H   0  0  0  0  0  0  0  0  0  0  0  0
   39.4020   31.1580   46.3560 C   0  0  0  0  0  0  0  0  0  0  0  0
   39.5200   30.0400   46.4490 H   0  0  0  0  0  0  0  0  0  0  0  0
   40.4010   31.5910   46.1810 H   0  0  0  0  0  0  0  0  0  0  0  0
   40.0710   33.6630   44.7320 Cl  0  0  0  0  0  0  0  0  0  0  0  0
   38.8240   32.4810   44.3920 C   0  0  0  0  0  0  0  0  0  0  0  0
   38.5380   31.3560   45.1380 C   0  0  0  0  0  0  0  0  0  0  0  0
   37.5180   30.5240   44.7300 C   0  0  0  0  0  0  0  0  0  0  0  0
   37.3370   29.6550   45.3550 H   0  0  0  0  0  0  0  0  0  0  0  0
   36.7900   30.7920   43.6050 C   0  0  0  0  0  3  0  0  0  0  0  0
   37.0690   31.9270   42.8410 C   0  0  0  0  0  0  0  0  0  0  0  0
   36.1080   32.2270   41.4100 Cl  0  0  0  0  0  0  0  0  0  0  0  0
   38.0910   32.7740   43.2380 C   0  0  0  0  0  0  0  0  0  0  0  0
   38.2510   33.6300   42.6000 H   0  0  0  0  0  0  0  0  0  0  0  0
  1  2  1  0  0  0  0
  1  9  1  0  0  0  0
  2  7  1  0  0  0  0
  3  8  1  0  0  0  0
  3  2  2  0  0  0  0
  4  3  1  0  0  0  0
  5  4  2  0  0  0  0
  5  6  1  0  0  0  0
  6  1  2  0  0  0  0
  9 12  1  0  0  0  0
  9 11  1  0  0  0  0
 10 13  1  0  0  0  0
 10  9  1  0  0  0  0
 10 11  1  0  0  0  0
 11 16  1  0  0  0  0
 11 15  1  0  0  0  0
 14 10  1  0  0  0  0
 17 18  1  0  0  0  0
 17  5  1  0  0  0  0
 19 17  1  0  0  0  0
 21 20  1  0  0  0  0
 21 22  1  0  0  0  0
 22 17  1  0  0  0  0
 23 22  2  0  0  0  0
 23 24  1  0  0  0  0
 25 23  1  0  0  0  0
 26 28  1  0  0  0  0
 26 25  2  0  0  0  0
 27 26  1  0  0  0  0
 28 21  2  0  0  0  0
 29 28  1  0  0  0  0
M  END
>  <minimizedAffinity>
-5.72737932

>  <minimizedRMSD>
0.377765894

$$$$
