
 OpenBabel03262522153D

 46 49  0  0  1  0  0  0  0  0999 V2000
   39.6540   32.8420   43.8080 C   0  0  0  0  0  0  0  0  0  0  0  0
   39.7710   33.7270   43.1310 H   0  0  0  0  0  0  0  0  0  0  0  0
   38.5900   32.7280   44.0360 H   0  0  0  0  0  0  0  0  0  0  0  0
   38.8980   29.7560   42.2380 C   0  0  1  0  0  0  0  0  0  0  0  0
   39.0470   31.2510   41.9900 C   0  0  0  0  0  0  0  0  0  0  0  0
   40.0710   31.6040   43.0450 C   0  0  2  0  0  0  0  0  0  0  0  0
   40.2560   30.5280   43.8570 O   0  0  0  0  0  0  0  0  0  0  0  0
   39.1500   29.6970   43.7360 C   0  0  0  0  0  0  0  0  0  0  0  0
   39.6750   29.2120   41.6750 H   0  0  0  0  0  0  0  0  0  0  0  0
   39.4890   31.4310   40.9830 H   0  0  0  0  0  0  0  0  0  0  0  0
   38.1040   31.7920   42.1710 H   0  0  0  0  0  0  0  0  0  0  0  0
   41.0480   31.8420   42.5610 H   0  0  0  0  0  0  0  0  0  0  0  0
   38.2480   30.1570   44.2040 H   0  0  0  0  0  0  0  0  0  0  0  0
   39.3540   28.6780   44.0850 H   0  0  0  0  0  0  0  0  0  0  0  0
   37.6270   29.3210   41.9210 O   0  0  0  0  0  0  0  0  0  0  0  0
   38.3060   27.7360   39.5660 Cl  0  0  0  0  0  0  0  0  0  0  0  0
   37.3430   27.1990   40.9220 C   0  0  0  0  0  0  0  0  0  0  0  0
   37.1070   28.0650   41.9660 C   0  0  0  0  0  0  0  0  0  0  0  0
   36.3440   27.5640   42.9870 C   0  0  0  0  0  0  0  0  0  0  0  0
   36.1200   28.1860   43.8350 H   0  0  0  0  0  0  0  0  0  0  0  0
   35.8430   26.2960   42.9900 C   0  0  0  0  0  3  0  0  0  0  0  0
   36.1060   25.4620   41.9230 C   0  0  0  0  0  0  0  0  0  0  0  0
   35.4790   23.8270   41.8920 Cl  0  0  0  0  0  0  0  0  0  0  0  0
   36.8680   25.9190   40.8710 C   0  0  0  0  0  0  0  0  0  0  0  0
   37.0790   25.2640   40.0240 H   0  0  0  0  0  0  0  0  0  0  0  0
   40.7240   32.9790   45.2610 S   0  0  0  0  0  0  0  0  0  0  0  0
   37.7850   31.7570   47.6510 C   0  0  0  0  0  0  0  0  0  0  0  0
   37.9330   32.5610   48.7900 C   0  0  0  0  0  0  0  0  0  0  0  0
   38.9320   33.5090   48.8830 C   0  0  0  0  0  0  0  0  0  0  0  0
   39.7690   33.6150   47.7930 C   0  0  0  0  0  0  0  0  0  0  0  0
   39.6100   32.8290   46.6980 C   0  0  0  0  0  0  0  0  0  0  0  0
   38.6320   31.8970   46.6020 N   0  0  0  0  0  0  0  0  0  0  0  0
   37.2650   32.4620   49.6370 H   0  0  0  0  0  0  0  0  0  0  0  0
   39.0350   34.1230   49.7710 H   0  0  0  0  0  0  0  0  0  0  0  0
   40.5760   34.3370   47.7960 H   0  0  0  0  0  0  0  0  0  0  0  0
   36.7230   30.8000   47.6380 C   0  0  0  0  0  0  0  0  0  0  0  0
   36.2350   30.4000   46.5830 O   0  0  0  0  0  0  0  0  0  0  0  0
   37.0370   29.6380   49.7920 C   0  0  0  0  0  0  0  0  0  0  0  0
   36.1520   30.2420   48.8700 C   0  0  0  0  0  0  0  0  0  0  0  0
   34.7830   30.2820   49.1630 C   0  0  0  0  0  0  0  0  0  0  0  0
   34.3590   29.7300   50.3430 N   0  0  0  0  0  0  0  0  0  0  0  0
   35.2220   29.1610   51.2030 C   0  0  0  0  0  0  0  0  0  0  0  0
   36.5230   29.1190   50.9320 N   0  0  0  0  0  0  0  0  0  0  0  0
   38.0890   29.6240   49.5340 H   0  0  0  0  0  0  0  0  0  0  0  0
   34.1280   30.7380   48.4620 H   0  0  0  0  0  0  0  0  0  0  0  0
   34.9180   28.7170   52.1420 H   0  0  0  0  0  0  0  0  0  0  0  0
  1  3  1  0  0  0  0
  1 26  1  0  0  0  0
  2  1  1  0  0  0  0
  4  9  1  6  0  0  0
  4  8  1  0  0  0  0
  5 11  1  0  0  0  0
  5  4  1  0  0  0  0
  5  6  1  0  0  0  0
  6 12  1  6  0  0  0
  6  1  1  0  0  0  0
  6  7  1  0  0  0  0
  8  7  1  0  0  0  0
  8 14  1  0  0  0  0
  8 13  1  0  0  0  0
 10  5  1  0  0  0  0
 15 18  1  0  0  0  0
 15  4  1  0  0  0  0
 16 17  1  0  0  0  0
 17 18  1  0  0  0  0
 18 19  2  0  0  0  0
 19 21  1  0  0  0  0
 19 20  1  0  0  0  0
 22 21  2  0  0  0  0
 23 22  1  0  0  0  0
 24 17  2  0  0  0  0
 24 22  1  0  0  0  0
 25 24  1  0  0  0  0
 26 31  1  0  0  0  0
 27 28  1  0  0  0  0
 28 29  2  0  0  0  0
 28 33  1  0  0  0  0
 29 34  1  0  0  0  0
 30 35  1  0  0  0  0
 30 29  1  0  0  0  0
 31 30  2  0  0  0  0
 32 31  1  0  0  0  0
 32 27  2  0  0  0  0
 36 27  1  0  0  0  0
 36 39  1  0  0  0  0
 37 36  2  0  0  0  0
 38 43  1  0  0  0  0
 39 40  1  0  0  0  0
 39 38  2  0  0  0  0
 40 41  2  0  0  0  0
 41 42  1  0  0  0  0
 42 46  1  0  0  0  0
 43 42  2  0  0  0  0
 44 38  1  0  0  0  0
 45 40  1  0  0  0  0
M  END
>  <minimizedAffinity>
-5.25400066

>  <minimizedRMSD>
1.09066308

$$$$
