
 OpenBabel03272510273D

 46 50  0  0  1  0  0  0  0  0999 V2000
   39.4830   33.5950   43.3680 O   0  0  0  0  0  0  0  0  0  0  0  0
   36.2590   30.1840   46.9340 C   0  0  0  0  0  0  0  0  0  0  0  0
   37.0700   30.7430   47.9060 C   0  0  0  0  0  0  0  0  0  0  0  0
   38.0560   31.6730   47.5540 C   0  0  0  0  0  0  0  0  0  0  0  0
   38.1500   31.9770   46.2000 C   0  0  0  0  0  0  0  0  0  0  0  0
   39.0380   32.8500   45.6090 N   0  0  0  0  0  0  0  0  0  0  0  0
   38.7730   32.8250   44.2960 C   0  0  0  0  0  0  0  0  0  0  0  0
   37.7830   31.9940   44.0640 N   0  0  0  0  0  0  0  0  0  0  0  0
   37.3660   31.4440   45.2150 C   0  0  0  0  0  0  0  0  0  0  0  0
   36.3920   30.5210   45.5930 C   0  0  0  0  0  0  0  0  0  0  0  0
   35.4770   29.4570   47.1460 H   0  0  0  0  0  0  0  0  0  0  0  0
   38.6960   32.1170   48.3020 H   0  0  0  0  0  0  0  0  0  0  0  0
   39.7670   33.4080   46.1180 H   0  0  0  0  0  0  0  0  0  0  0  0
   35.7670   30.0950   44.8190 H   0  0  0  0  0  0  0  0  0  0  0  0
   37.4320   30.1180   51.5850 C   0  0  0  0  0  0  0  0  0  0  0  0
   37.7610   30.5690   50.3140 C   0  0  0  0  0  0  0  0  0  0  0  0
   36.8720   30.3410   49.2820 C   0  0  0  0  0  0  0  0  0  0  0  0
   35.7080   29.6760   49.5800 N   0  0  0  0  0  0  0  0  0  0  0  0
   35.4100   29.2470   50.8210 C   0  0  0  0  0  0  0  0  0  0  0  0
   36.2690   29.4700   51.8070 N   0  0  0  0  0  0  0  0  0  0  0  0
   38.1430   30.3050   52.3890 H   0  0  0  0  0  0  0  0  0  0  0  0
   38.6750   31.0900   50.0860 H   0  0  0  0  0  0  0  0  0  0  0  0
   34.4640   28.7350   50.9360 H   0  0  0  0  0  0  0  0  0  0  0  0
   39.7330   31.8110   41.9260 N   0  0  0  0  0  0  0  0  0  0  0  0
   39.3530   33.2250   42.0030 C   0  0  1  0  0  0  0  0  0  0  0  0
   37.9680   33.3500   41.5690 C   0  0  0  0  0  0  0  0  0  0  0  0
   37.8870   33.0090   40.2130 O   0  0  0  0  0  0  0  0  0  0  0  0
   38.3440   31.7420   39.9140 C   0  0  0  0  0  0  0  0  0  0  0  0
   39.7140   31.4840   40.5340 C   0  0  2  0  0  0  0  0  0  0  0  0
   39.0120   31.2020   42.3500 H   0  0  0  0  0  0  0  0  0  0  0  0
   40.0360   33.7430   41.3330 H   0  0  0  0  0  0  0  0  0  0  0  0
   37.1470   32.8330   41.9930 H   0  0  0  0  0  0  0  0  0  0  0  0
   37.7010   34.4510   41.5870 H   0  0  0  0  0  0  0  0  0  0  0  0
   37.6390   30.9630   40.2480 H   0  0  0  0  0  0  0  0  0  0  0  0
   38.4440   31.6870   38.8180 H   0  0  0  0  0  0  0  0  0  0  0  0
   40.4750   32.1350   40.0000 H   0  0  0  0  0  0  0  0  0  0  0  0
   42.5540   30.2360   39.4460 Cl  0  0  0  0  0  0  0  0  0  0  0  0
   41.1280   29.3330   39.8830 C   0  0  0  0  0  0  0  0  0  0  0  0
   40.0610   30.0870   40.2960 C   0  0  0  0  0  0  0  0  0  0  0  0
   38.9670   29.2500   40.6080 C   0  0  0  0  0  0  0  0  0  0  0  0
   37.9890   29.6070   40.9620 H   0  0  0  0  0  0  0  0  0  0  0  0
   38.9490   27.8570   40.5180 C   0  0  0  0  0  3  0  0  0  0  0  0
   40.0760   27.2240   40.0940 C   0  0  0  0  0  0  0  0  0  0  0  0
   40.1690   25.4860   39.9420 Cl  0  0  0  0  0  0  0  0  0  0  0  0
   41.1710   27.9700   39.7750 C   0  0  0  0  0  0  0  0  0  0  0  0
   42.0720   27.5130   39.4400 H   0  0  0  0  0  0  0  0  0  0  0  0
  1  7  1  0  0  0  0
  2 11  1  0  0  0  0
  2  3  1  0  0  0  0
  3 17  1  0  0  0  0
  4  3  2  0  0  0  0
  4 12  1  0  0  0  0
  5  4  1  0  0  0  0
  6 13  1  0  0  0  0
  6  5  1  0  0  0  0
  7  6  1  0  0  0  0
  8  7  2  0  0  0  0
  8  9  1  0  0  0  0
  9 10  1  0  0  0  0
  9  5  2  0  0  0  0
 10  2  2  0  0  0  0
 14 10  1  0  0  0  0
 15 20  1  0  0  0  0
 15 21  1  0  0  0  0
 16 15  2  0  0  0  0
 17 18  2  0  0  0  0
 17 16  1  0  0  0  0
 18 19  1  0  0  0  0
 19 23  1  0  0  0  0
 19 20  2  0  0  0  0
 22 16  1  0  0  0  0
 24 25  1  0  0  0  0
 24 30  1  0  0  0  0
 25 31  1  6  0  0  0
 25  1  1  0  0  0  0
 26 33  1  0  0  0  0
 26 32  1  0  0  0  0
 26 25  1  0  0  0  0
 27 26  1  0  0  0  0
 28 27  1  0  0  0  0
 28 34  1  0  0  0  0
 28 29  1  0  0  0  0
 29 36  1  6  0  0  0
 29 24  1  0  0  0  0
 35 28  1  0  0  0  0
 37 38  1  0  0  0  0
 38 39  1  0  0  0  0
 39 29  1  0  0  0  0
 39 40  2  0  0  0  0
 40 41  1  0  0  0  0
 42 40  1  0  0  0  0
 43 42  2  0  0  0  0
 44 43  1  0  0  0  0
 45 38  2  0  0  0  0
 45 43  1  0  0  0  0
 46 45  1  0  0  0  0
M  END
>  <minimizedAffinity>
-6.25820541

>  <minimizedRMSD>
0.867369473

$$$$
