
 OpenBabel03272504193D

 28 29  0  0  0  0  0  0  0  0999 V2000
   36.6800   28.8770   49.1910 O   0  0  0  0  0  0  0  0  0  0  0  0
   36.2750   30.2190   49.7630 P   0  0  2  0  0  0  0  0  0  0  0  0
   36.1550   30.0150   51.4590 O   0  0  0  0  0  0  0  0  0  0  0  0
   37.0820   29.9790   51.8170 H   0  0  0  0  0  0  0  0  0  0  0  0
   34.7630   30.6910   49.1540 O   0  0  0  0  0  0  0  0  0  0  0  0
   34.2620   29.6460   48.4160 C   0  0  0  0  0  0  0  0  0  0  0  0
   33.2810   29.3320   48.8730 H   0  0  0  0  0  0  0  0  0  0  0  0
   34.9320   28.7400   48.4320 H   0  0  0  0  0  0  0  0  0  0  0  0
   33.9640   30.0100   47.0120 C   0  0  0  0  0  0  0  0  0  0  0  0
   34.9500   29.7590   46.0530 C   0  0  0  0  0  0  0  0  0  0  0  0
   34.7000   30.0930   44.7140 C   0  0  0  0  0  0  0  0  0  0  0  0
   33.4780   30.6550   44.4270 N   0  0  0  0  0  0  0  0  0  0  0  0
   32.5580   30.8800   45.3770 C   0  0  0  0  0  0  0  0  0  0  0  0
   32.7840   30.5670   46.6570 N   0  0  0  0  0  0  0  0  0  0  0  0
   35.8770   29.3180   46.3590 H   0  0  0  0  0  0  0  0  0  0  0  0
   35.4500   29.9050   43.9670 H   0  0  0  0  0  0  0  0  0  0  0  0
   31.6160   31.3260   45.0840 H   0  0  0  0  0  0  0  0  0  0  0  0
   37.4560   31.3540   49.3870 O   0  0  0  0  0  0  0  0  0  0  0  0
   38.9740   33.8330   49.4550 Cl  0  0  0  0  0  0  0  0  0  0  0  0
   38.9010   32.6350   48.1590 C   0  0  0  0  0  0  0  0  0  0  0  0
   38.1440   31.4580   48.1970 C   0  0  0  0  0  0  0  0  0  0  0  0
   38.1850   30.6160   47.1080 C   0  0  0  0  0  0  0  0  0  0  0  0
   37.5720   29.7480   47.2360 H   0  0  0  0  0  0  0  0  0  0  0  0
   38.9530   30.9260   46.0140 C   0  0  0  0  0  3  0  0  0  0  0  0
   39.7150   32.0940   45.9560 C   0  0  0  0  0  0  0  0  0  0  0  0
   40.6770   32.4500   44.5430 Cl  0  0  0  0  0  0  0  0  0  0  0  0
   39.6780   32.9430   47.0450 C   0  0  0  0  0  0  0  0  0  0  0  0
   40.2790   33.8370   46.9680 H   0  0  0  0  0  0  0  0  0  0  0  0
  2  1  2  6  0  0  0
  2  3  1  0  0  0  0
  3  4  1  0  0  0  0
  5  2  1  0  0  0  0
  6  8  1  0  0  0  0
  6  7  1  0  0  0  0
  6  5  1  0  0  0  0
  9  6  1  0  0  0  0
 10 15  1  0  0  0  0
 10  9  2  0  0  0  0
 11 10  1  0  0  0  0
 12 11  2  0  0  0  0
 12 13  1  0  0  0  0
 13 14  2  0  0  0  0
 14  9  1  0  0  0  0
 16 11  1  0  0  0  0
 17 13  1  0  0  0  0
 18  2  1  0  0  0  0
 20 21  1  0  0  0  0
 20 19  1  0  0  0  0
 21 18  1  0  0  0  0
 22 23  1  0  0  0  0
 22 21  2  0  0  0  0
 24 22  1  0  0  0  0
 25 24  2  0  0  0  0
 25 27  1  0  0  0  0
 26 25  1  0  0  0  0
 27 20  2  0  0  0  0
 28 27  1  0  0  0  0
M  END
>  <minimizedAffinity>
-4.81597137

>  <minimizedRMSD>
3.39920211

$$$$
