
 OpenBabel03272501293D

 21 22  0  0  0  0  0  0  0  0999 V2000
   37.9890   31.8230   48.1080 C   0  0  0  0  0  0  0  0  0  0  0  0
   37.8630   33.0610   48.2270 O   0  0  0  0  0  0  0  0  0  0  0  0
   35.9490   30.6630   46.2210 Cl  0  0  0  0  0  0  0  0  0  0  0  0
   37.6800   30.7580   45.9230 C   0  0  0  0  0  0  0  0  0  0  0  0
   38.5330   31.3100   46.8570 C   0  0  0  0  0  0  0  0  0  0  0  0
   39.8670   31.3260   46.5040 C   0  0  0  0  0  0  0  0  0  0  0  0
   40.5650   31.7510   47.2090 H   0  0  0  0  0  0  0  0  0  0  0  0
   40.3230   30.8250   45.3040 C   0  0  0  0  0  3  0  0  0  0  0  0
   39.4430   30.2790   44.3920 C   0  0  0  0  0  0  0  0  0  0  0  0
   40.0940   29.6620   42.8870 Cl  0  0  0  0  0  0  0  0  0  0  0  0
   38.0990   30.2400   44.6960 C   0  0  0  0  0  0  0  0  0  0  0  0
   37.4070   29.8130   43.9840 H   0  0  0  0  0  0  0  0  0  0  0  0
   37.6470   30.1370   51.4320 C   0  0  0  0  0  0  0  0  0  0  0  0
   38.0400   31.0680   50.4690 C   0  0  0  0  0  0  0  0  0  0  0  0
   37.6190   30.8980   49.1560 C   0  0  0  0  0  0  0  0  0  0  0  0
   36.8430   29.8250   48.8800 N   0  0  0  0  0  0  0  0  0  0  0  0
   36.4770   28.9380   49.8380 C   0  0  0  0  0  0  0  0  0  0  0  0
   36.8730   29.0880   51.1040 N   0  0  0  0  0  0  0  0  0  0  0  0
   38.0320   30.3690   52.4210 H   0  0  0  0  0  0  0  0  0  0  0  0
   38.6650   31.9280   50.7000 H   0  0  0  0  0  0  0  0  0  0  0  0
   35.8430   28.0780   49.5690 H   0  0  0  0  0  0  0  0  0  0  0  0
  1  2  2  0  0  0  0
  1 15  1  0  0  0  0
  4  3  1  0  0  0  0
  4  5  1  0  0  0  0
  5  1  1  0  0  0  0
  6  5  2  0  0  0  0
  6  7  1  0  0  0  0
  8  6  1  0  0  0  0
  9 11  1  0  0  0  0
  9  8  2  0  0  0  0
 10  9  1  0  0  0  0
 11  4  2  0  0  0  0
 12 11  1  0  0  0  0
 13 19  1  0  0  0  0
 14 20  1  0  0  0  0
 14 13  2  0  0  0  0
 15 14  1  0  0  0  0
 16 15  2  0  0  0  0
 16 17  1  0  0  0  0
 17 18  2  0  0  0  0
 18 13  1  0  0  0  0
 21 17  1  0  0  0  0
M  END
>  <minimizedAffinity>
-4.66321611

>  <minimizedRMSD>
1.67262554

$$$$
