
 OpenBabel03272510243D

 33 36  0  0  0  0  0  0  0  0999 V2000
   36.0120   30.2270   46.9680 C   0  0  0  0  0  0  0  0  0  0  0  0
   37.0480   30.4600   47.8570 C   0  0  0  0  0  0  0  0  0  0  0  0
   38.2540   30.9760   47.4260 C   0  0  0  0  0  0  0  0  0  0  0  0
   38.3680   31.2490   46.0600 C   0  0  0  0  0  0  0  0  0  0  0  0
   39.4330   31.7550   45.3840 N   0  0  0  0  0  0  0  0  0  0  0  0
   39.0680   31.8370   44.1050 C   0  0  0  0  0  0  0  0  0  0  0  0
   37.8270   31.4080   43.9310 N   0  0  0  0  0  0  0  0  0  0  0  0
   37.3480   31.0270   45.1410 C   0  0  0  0  0  0  0  0  0  0  0  0
   36.1540   30.5080   45.6100 C   0  0  0  0  0  0  0  0  0  0  0  0
   35.0380   29.8220   47.2390 H   0  0  0  0  0  0  0  0  0  0  0  0
   39.0660   31.1630   48.0920 H   0  0  0  0  0  0  0  0  0  0  0  0
   40.3530   32.0210   45.8140 H   0  0  0  0  0  0  0  0  0  0  0  0
   35.3520   30.3320   44.9040 H   0  0  0  0  0  0  0  0  0  0  0  0
   37.3710   30.0530   51.5870 C   0  0  0  0  0  0  0  0  0  0  0  0
   37.7210   30.4160   50.2900 C   0  0  0  0  0  0  0  0  0  0  0  0
   36.8260   30.1410   49.2620 C   0  0  0  0  0  0  0  0  0  0  0  0
   35.6380   29.5220   49.5800 N   0  0  0  0  0  0  0  0  0  0  0  0
   35.3390   29.1870   50.8510 C   0  0  0  0  0  0  0  0  0  0  0  0
   36.2000   29.4510   51.8400 N   0  0  0  0  0  0  0  0  0  0  0  0
   38.0940   30.2840   52.3550 H   0  0  0  0  0  0  0  0  0  0  0  0
   38.6510   30.9020   50.0210 H   0  0  0  0  0  0  0  0  0  0  0  0
   34.3840   28.7030   51.0220 H   0  0  0  0  0  0  0  0  0  0  0  0
   39.9270   32.3190   43.1190 O   0  0  0  0  0  0  0  0  0  0  0  0
   38.4720   33.4740   40.7470 Cl  0  0  0  0  0  0  0  0  0  0  0  0
   39.3780   31.9720   40.7490 C   0  0  0  0  0  0  0  0  0  0  0  0
   39.9810   31.5990   41.9330 C   0  0  0  0  0  0  0  0  0  0  0  0
   40.6990   30.4100   41.9390 C   0  0  0  0  0  0  0  0  0  0  0  0
   41.2040   30.0510   42.8430 H   0  0  0  0  0  0  0  0  0  0  0  0
   40.8090   29.6230   40.8050 C   0  0  0  0  0  3  0  0  0  0  0  0
   40.1900   30.0320   39.6430 C   0  0  0  0  0  0  0  0  0  0  0  0
   40.2860   29.0870   38.1660 Cl  0  0  0  0  0  0  0  0  0  0  0  0
   39.4690   31.2080   39.6020 C   0  0  0  0  0  0  0  0  0  0  0  0
   38.9930   31.5140   38.6870 H   0  0  0  0  0  0  0  0  0  0  0  0
  1 10  1  0  0  0  0
  1  2  1  0  0  0  0
  2 16  1  0  0  0  0
  3  2  2  0  0  0  0
  3 11  1  0  0  0  0
  4  3  1  0  0  0  0
  5 12  1  0  0  0  0
  5  4  1  0  0  0  0
  6  5  1  0  0  0  0
  7  6  2  0  0  0  0
  7  8  1  0  0  0  0
  8  9  1  0  0  0  0
  8  4  2  0  0  0  0
  9  1  2  0  0  0  0
 13  9  1  0  0  0  0
 14 19  1  0  0  0  0
 14 20  1  0  0  0  0
 15 14  2  0  0  0  0
 16 17  2  0  0  0  0
 16 15  1  0  0  0  0
 17 18  1  0  0  0  0
 18 22  1  0  0  0  0
 18 19  2  0  0  0  0
 21 15  1  0  0  0  0
 23  6  1  0  0  0  0
 24 25  1  0  0  0  0
 25 26  1  0  0  0  0
 26 27  2  0  0  0  0
 26 23  1  0  0  0  0
 27 28  1  0  0  0  0
 29 27  1  0  0  0  0
 30 29  2  0  0  0  0
 31 30  1  0  0  0  0
 32 30  1  0  0  0  0
 32 25  2  0  0  0  0
 33 32  1  0  0  0  0
M  END
>  <minimizedAffinity>
-5.57196379

>  <minimizedRMSD>
2.43801689

$$$$
