
 OpenBabel03272510303D

 29 31  0  0  0  0  0  0  0  0999 V2000
   37.2760   31.3720   49.3170 C   0  0  0  0  0  0  0  0  0  0  0  0
   37.4770   32.6550   49.8310 C   0  0  0  0  0  0  0  0  0  0  0  0
   38.3670   33.4440   49.1360 C   0  0  0  0  0  0  0  0  0  0  0  0
   38.9910   32.9500   48.0150 N   0  0  0  0  0  0  0  0  0  0  0  0
   38.7600   31.6890   47.5550 C   0  0  0  0  0  0  0  0  0  0  0  0
   37.8810   30.8800   48.2230 N   0  0  0  0  0  0  0  0  0  0  0  0
   36.9480   32.9750   50.7200 H   0  0  0  0  0  0  0  0  0  0  0  0
   38.5700   34.4510   49.4790 H   0  0  0  0  0  0  0  0  0  0  0  0
   36.2830   30.4880   50.0320 C   0  0  0  0  0  0  0  0  0  0  0  0
   36.2760   29.0540   49.9100 C   0  0  0  0  0  0  0  0  0  0  0  0
   36.9270   29.6490   51.1450 C   0  0  0  0  0  0  0  0  0  0  0  0
   35.3450   31.0270   50.3320 H   0  0  0  0  0  0  0  0  0  0  0  0
   35.3370   28.4980   50.0130 H   0  0  0  0  0  0  0  0  0  0  0  0
   36.9760   28.6140   49.1440 H   0  0  0  0  0  0  0  0  0  0  0  0
   36.3260   29.6020   52.0600 H   0  0  0  0  0  0  0  0  0  0  0  0
   38.0230   29.6480   51.2520 H   0  0  0  0  0  0  0  0  0  0  0  0
   39.4040   31.1570   46.3560 C   0  0  0  0  0  0  0  0  0  0  0  0
   39.5230   30.0390   46.4500 H   0  0  0  0  0  0  0  0  0  0  0  0
   40.4030   31.5920   46.1820 H   0  0  0  0  0  0  0  0  0  0  0  0
   40.0710   33.6630   44.7320 Cl  0  0  0  0  0  0  0  0  0  0  0  0
   38.8260   32.4790   44.3920 C   0  0  0  0  0  0  0  0  0  0  0  0
   38.5410   31.3540   45.1380 C   0  0  0  0  0  0  0  0  0  0  0  0
   37.5230   30.5190   44.7290 C   0  0  0  0  0  0  0  0  0  0  0  0
   37.3440   29.6500   45.3550 H   0  0  0  0  0  0  0  0  0  0  0  0
   36.7950   30.7860   43.6040 C   0  0  0  0  0  3  0  0  0  0  0  0
   37.0730   31.9210   42.8390 C   0  0  0  0  0  0  0  0  0  0  0  0
   36.1120   32.2180   41.4080 Cl  0  0  0  0  0  0  0  0  0  0  0  0
   38.0930   32.7700   43.2370 C   0  0  0  0  0  0  0  0  0  0  0  0
   38.2510   33.6270   42.5980 H   0  0  0  0  0  0  0  0  0  0  0  0
  1  2  1  0  0  0  0
  1  9  1  0  0  0  0
  2  7  1  0  0  0  0
  3  8  1  0  0  0  0
  3  2  2  0  0  0  0
  4  3  1  0  0  0  0
  5  4  2  0  0  0  0
  5  6  1  0  0  0  0
  6  1  2  0  0  0  0
  9 12  1  0  0  0  0
  9 11  1  0  0  0  0
 10 13  1  0  0  0  0
 10  9  1  0  0  0  0
 10 11  1  0  0  0  0
 11 16  1  0  0  0  0
 11 15  1  0  0  0  0
 14 10  1  0  0  0  0
 17 18  1  0  0  0  0
 17  5  1  0  0  0  0
 19 17  1  0  0  0  0
 21 20  1  0  0  0  0
 21 22  1  0  0  0  0
 22 17  1  0  0  0  0
 23 22  2  0  0  0  0
 23 24  1  0  0  0  0
 25 23  1  0  0  0  0
 26 28  1  0  0  0  0
 26 25  2  0  0  0  0
 27 26  1  0  0  0  0
 28 21  2  0  0  0  0
 29 28  1  0  0  0  0
M  END
>  <minimizedAffinity>
-5.7287035

>  <minimizedRMSD>
0.402739763

$$$$
