
 OpenBabel03272501133D

 29 31  0  0  1  0  0  0  0  0999 V2000
   35.4420   30.3030   49.6870 C   0  0  1  0  0  0  0  0  0  0  0  0
   34.9350   29.0680   49.1290 C   0  0  1  0  0  0  0  0  0  0  0  0
   35.9450   28.9620   50.2240 C   0  0  0  0  0  0  0  0  0  0  0  0
   34.9390   30.9500   50.4510 H   0  0  0  0  0  0  0  0  0  0  0  0
   35.3720   28.7840   48.1240 H   0  0  0  0  0  0  0  0  0  0  0  0
   36.9820   28.6610   50.0130 H   0  0  0  0  0  0  0  0  0  0  0  0
   35.6040   28.7210   51.2470 H   0  0  0  0  0  0  0  0  0  0  0  0
   36.5410   31.0810   48.9800 C   0  0  0  0  0  0  0  0  0  0  0  0
   37.1640   32.0670   49.7490 C   0  0  0  0  0  0  0  0  0  0  0  0
   38.1590   32.7860   49.0840 C   0  0  0  0  0  0  0  0  0  0  0  0
   38.4620   32.5070   47.7790 N   0  0  0  0  0  0  0  0  0  0  0  0
   37.8170   31.5320   47.0820 C   0  0  0  0  0  0  0  0  0  0  0  0
   36.8380   30.8070   47.6990 N   0  0  0  0  0  0  0  0  0  0  0  0
   36.8790   32.2340   50.7680 H   0  0  0  0  0  0  0  0  0  0  0  0
   38.6760   33.5630   49.6320 H   0  0  0  0  0  0  0  0  0  0  0  0
   38.0890   31.3480   46.0540 H   0  0  0  0  0  0  0  0  0  0  0  0
   33.4830   28.7300   49.3650 C   0  0  0  0  0  0  0  0  0  0  0  0
   33.3850   28.4440   50.4320 H   0  0  0  0  0  0  0  0  0  0  0  0
   32.8560   29.6350   49.1950 H   0  0  0  0  0  0  0  0  0  0  0  0
   30.5940   28.0010   49.6530 Cl  0  0  0  0  0  0  0  0  0  0  0  0
   31.7310   27.2000   48.5830 C   0  0  0  0  0  0  0  0  0  0  0  0
   33.0470   27.5980   48.5090 C   0  0  0  0  0  0  0  0  0  0  0  0
   33.9310   26.9570   47.6600 C   0  0  0  0  0  0  0  0  0  0  0  0
   34.9560   27.2600   47.5970 H   0  0  0  0  0  0  0  0  0  0  0  0
   33.4320   25.9030   46.8940 C   0  0  0  0  0  3  0  0  0  0  0  0
   32.1070   25.4840   46.9520 C   0  0  0  0  0  0  0  0  0  0  0  0
   31.5240   24.1550   45.9740 Cl  0  0  0  0  0  0  0  0  0  0  0  0
   31.2620   26.1620   47.8210 C   0  0  0  0  0  0  0  0  0  0  0  0
   30.2160   25.8230   47.8610 H   0  0  0  0  0  0  0  0  0  0  0  0
  1  3  1  0  0  0  0
  1  4  1  1  0  0  0
  2  5  1  6  0  0  0
  2 17  1  0  0  0  0
  2  1  1  0  0  0  0
  2  3  1  0  0  0  0
  3  7  1  0  0  0  0
  6  3  1  0  0  0  0
  8  1  1  0  0  0  0
  8  9  1  0  0  0  0
  9 14  1  0  0  0  0
 10 15  1  0  0  0  0
 10  9  2  0  0  0  0
 11 10  1  0  0  0  0
 12 13  1  0  0  0  0
 12 11  2  0  0  0  0
 13  8  2  0  0  0  0
 16 12  1  0  0  0  0
 17 18  1  0  0  0  0
 19 17  1  0  0  0  0
 21 20  1  0  0  0  0
 22 21  1  0  0  0  0
 22 17  1  0  0  0  0
 23 22  2  0  0  0  0
 24 23  1  0  0  0  0
 25 26  2  0  0  0  0
 25 23  1  0  0  0  0
 26 28  1  0  0  0  0
 27 26  1  0  0  0  0
 28 29  1  0  0  0  0
 28 21  2  0  0  0  0
M  END
>  <minimizedAffinity>
-5.42744827

>  <minimizedRMSD>
2.31095028

$$$$
