
 OpenBabel03272501293D

 21 22  0  0  0  0  0  0  0  0999 V2000
   39.4550   32.8410   46.6410 C   0  0  0  0  0  0  0  0  0  0  0  0
   40.2310   33.7870   46.8960 O   0  0  0  0  0  0  0  0  0  0  0  0
   41.6990   31.0510   45.7280 Cl  0  0  0  0  0  0  0  0  0  0  0  0
   40.3370   31.5690   44.7410 C   0  0  0  0  0  0  0  0  0  0  0  0
   39.3580   32.3940   45.2560 C   0  0  0  0  0  0  0  0  0  0  0  0
   38.3440   32.7270   44.3820 C   0  0  0  0  0  0  0  0  0  0  0  0
   37.5600   33.3710   44.7500 H   0  0  0  0  0  0  0  0  0  0  0  0
   38.3060   32.2720   43.0820 C   0  0  0  0  0  3  0  0  0  0  0  0
   39.3000   31.4490   42.5980 C   0  0  0  0  0  0  0  0  0  0  0  0
   39.1870   30.9090   40.9350 Cl  0  0  0  0  0  0  0  0  0  0  0  0
   40.3380   31.0850   43.4330 C   0  0  0  0  0  0  0  0  0  0  0  0
   41.1180   30.4400   43.0550 H   0  0  0  0  0  0  0  0  0  0  0  0
   37.4780   32.1600   49.7440 C   0  0  0  0  0  0  0  0  0  0  0  0
   38.2420   32.8520   48.8020 C   0  0  0  0  0  0  0  0  0  0  0  0
   38.6630   32.1860   47.6570 C   0  0  0  0  0  0  0  0  0  0  0  0
   38.3060   30.8890   47.5190 N   0  0  0  0  0  0  0  0  0  0  0  0
   37.5630   30.2440   48.4520 C   0  0  0  0  0  0  0  0  0  0  0  0
   37.1510   30.8690   49.5570 N   0  0  0  0  0  0  0  0  0  0  0  0
   37.2050   32.7760   50.5970 H   0  0  0  0  0  0  0  0  0  0  0  0
   38.5240   33.8950   48.9220 H   0  0  0  0  0  0  0  0  0  0  0  0
   37.2950   29.1870   48.2980 H   0  0  0  0  0  0  0  0  0  0  0  0
  1  2  2  0  0  0  0
  1 15  1  0  0  0  0
  4  5  1  0  0  0  0
  4  3  1  0  0  0  0
  5  1  1  0  0  0  0
  6  7  1  0  0  0  0
  6  5  2  0  0  0  0
  8  6  1  0  0  0  0
  9  8  2  0  0  0  0
  9 11  1  0  0  0  0
 10  9  1  0  0  0  0
 11  4  2  0  0  0  0
 12 11  1  0  0  0  0
 13 19  1  0  0  0  0
 14 20  1  0  0  0  0
 14 13  2  0  0  0  0
 15 14  1  0  0  0  0
 16 15  2  0  0  0  0
 16 17  1  0  0  0  0
 17 18  2  0  0  0  0
 18 13  1  0  0  0  0
 21 17  1  0  0  0  0
M  END
>  <minimizedAffinity>
-4.57492352

>  <minimizedRMSD>
3.11440063

$$$$
