
 OpenBabel03272510273D

 46 50  0  0  1  0  0  0  0  0999 V2000
   39.5000   33.5650   43.2690 O   0  0  0  0  0  0  0  0  0  0  0  0
   36.2640   30.1990   46.8670 C   0  0  0  0  0  0  0  0  0  0  0  0
   37.0860   30.7550   47.8320 C   0  0  0  0  0  0  0  0  0  0  0  0
   38.0780   31.6740   47.4710 C   0  0  0  0  0  0  0  0  0  0  0  0
   38.1680   31.9710   46.1150 C   0  0  0  0  0  0  0  0  0  0  0  0
   39.0600   32.8330   45.5150 N   0  0  0  0  0  0  0  0  0  0  0  0
   38.7880   32.8060   44.2040 C   0  0  0  0  0  0  0  0  0  0  0  0
   37.7890   31.9830   43.9810 N   0  0  0  0  0  0  0  0  0  0  0  0
   37.3730   31.4410   45.1370 C   0  0  0  0  0  0  0  0  0  0  0  0
   36.3930   30.5290   45.5240 C   0  0  0  0  0  0  0  0  0  0  0  0
   35.4760   29.4800   47.0870 H   0  0  0  0  0  0  0  0  0  0  0  0
   38.7270   32.1160   48.2140 H   0  0  0  0  0  0  0  0  0  0  0  0
   39.7980   33.3870   46.0180 H   0  0  0  0  0  0  0  0  0  0  0  0
   35.7590   30.1050   44.7550 H   0  0  0  0  0  0  0  0  0  0  0  0
   37.4570   30.1510   51.5140 C   0  0  0  0  0  0  0  0  0  0  0  0
   37.7830   30.5960   50.2400 C   0  0  0  0  0  0  0  0  0  0  0  0
   36.8910   30.3600   49.2110 C   0  0  0  0  0  0  0  0  0  0  0  0
   35.7280   29.6970   49.5160 N   0  0  0  0  0  0  0  0  0  0  0  0
   35.4340   29.2750   50.7610 C   0  0  0  0  0  0  0  0  0  0  0  0
   36.2950   29.5040   51.7430 N   0  0  0  0  0  0  0  0  0  0  0  0
   38.1700   30.3440   52.3160 H   0  0  0  0  0  0  0  0  0  0  0  0
   38.6950   31.1160   50.0060 H   0  0  0  0  0  0  0  0  0  0  0  0
   34.4890   28.7630   50.8810 H   0  0  0  0  0  0  0  0  0  0  0  0
   39.5820   31.8540   41.7240 N   0  0  0  0  0  0  0  0  0  0  0  0
   39.2620   33.2730   41.9000 C   0  0  1  0  0  0  0  0  0  0  0  0
   37.8550   33.4690   41.5720 C   0  0  0  0  0  0  0  0  0  0  0  0
   37.6680   33.2040   40.2100 O   0  0  0  0  0  0  0  0  0  0  0  0
   38.0550   31.9390   39.8150 C   0  0  0  0  0  0  0  0  0  0  0  0
   39.4540   31.6030   40.3220 C   0  0  2  0  0  0  0  0  0  0  0  0
   38.8690   31.2470   42.1660 H   0  0  0  0  0  0  0  0  0  0  0  0
   39.9150   33.8030   41.2100 H   0  0  0  0  0  0  0  0  0  0  0  0
   37.0470   32.9590   42.0270 H   0  0  0  0  0  0  0  0  0  0  0  0
   37.6330   34.5760   41.6650 H   0  0  0  0  0  0  0  0  0  0  0  0
   37.3450   31.1690   40.1580 H   0  0  0  0  0  0  0  0  0  0  0  0
   38.0770   31.9400   38.7130 H   0  0  0  0  0  0  0  0  0  0  0  0
   40.2000   32.2550   39.7690 H   0  0  0  0  0  0  0  0  0  0  0  0
   40.8560   30.3860   37.6080 Cl  0  0  0  0  0  0  0  0  0  0  0  0
   40.2960   29.4710   38.9810 C   0  0  0  0  0  0  0  0  0  0  0  0
   39.7300   30.2090   39.9880 C   0  0  0  0  0  0  0  0  0  0  0  0
   39.3050   29.3610   41.0340 C   0  0  0  0  0  0  0  0  0  0  0  0
   38.8180   29.7040   41.9590 H   0  0  0  0  0  0  0  0  0  0  0  0
   39.4300   27.9710   41.0640 C   0  0  0  0  0  3  0  0  0  0  0  0
   40.0120   27.3530   40.0010 C   0  0  0  0  0  0  0  0  0  0  0  0
   40.2210   25.6200   39.9280 Cl  0  0  0  0  0  0  0  0  0  0  0  0
   40.4460   28.1100   38.9540 C   0  0  0  0  0  0  0  0  0  0  0  0
   40.9060   27.6650   38.1050 H   0  0  0  0  0  0  0  0  0  0  0  0
  1  7  1  0  0  0  0
  2 11  1  0  0  0  0
  2  3  1  0  0  0  0
  3 17  1  0  0  0  0
  4  3  2  0  0  0  0
  4 12  1  0  0  0  0
  5  4  1  0  0  0  0
  6 13  1  0  0  0  0
  6  5  1  0  0  0  0
  7  6  1  0  0  0  0
  8  7  2  0  0  0  0
  8  9  1  0  0  0  0
  9 10  1  0  0  0  0
  9  5  2  0  0  0  0
 10  2  2  0  0  0  0
 14 10  1  0  0  0  0
 15 20  1  0  0  0  0
 15 21  1  0  0  0  0
 16 15  2  0  0  0  0
 17 18  2  0  0  0  0
 17 16  1  0  0  0  0
 18 19  1  0  0  0  0
 19 23  1  0  0  0  0
 19 20  2  0  0  0  0
 22 16  1  0  0  0  0
 24 25  1  0  0  0  0
 24 30  1  0  0  0  0
 25 31  1  6  0  0  0
 25  1  1  0  0  0  0
 26 33  1  0  0  0  0
 26 25  1  0  0  0  0
 26 32  1  0  0  0  0
 27 26  1  0  0  0  0
 28 34  1  0  0  0  0
 28 27  1  0  0  0  0
 28 29  1  0  0  0  0
 29 36  1  6  0  0  0
 29 24  1  0  0  0  0
 35 28  1  0  0  0  0
 37 38  1  0  0  0  0
 38 39  1  0  0  0  0
 39 29  1  0  0  0  0
 39 40  2  0  0  0  0
 40 42  1  0  0  0  0
 40 41  1  0  0  0  0
 43 42  2  0  0  0  0
 44 43  1  0  0  0  0
 45 38  2  0  0  0  0
 45 43  1  0  0  0  0
 46 45  1  0  0  0  0
M  END
>  <minimizedAffinity>
-6.07131672

>  <minimizedRMSD>
0.0662786961

$$$$
