
 OpenBabel03272500083D

 40 43  0  0  0  0  0  0  0  0999 V2000
   32.4710   27.0560   48.0760 O   0  0  0  0  0  0  0  0  0  0  0  0
   31.1480   27.4540   48.2730 C   0  0  0  0  0  0  0  0  0  0  0  0
   30.8310   27.7620   49.5780 C   0  0  0  0  0  0  0  0  0  0  0  0
   29.5590   28.1700   49.9100 C   0  0  0  0  0  0  0  0  0  0  0  0
   28.5910   28.2630   48.8960 C   0  0  0  0  0  0  0  0  0  0  0  0
   28.9230   27.9500   47.5990 C   0  0  0  0  0  0  0  0  0  0  0  0
   30.1890   27.5510   47.2970 C   0  0  0  0  0  0  0  0  0  0  0  0
   31.5470   27.7040   50.3850 H   0  0  0  0  0  0  0  0  0  0  0  0
   29.3230   28.4120   50.9530 H   0  0  0  0  0  0  0  0  0  0  0  0
   27.6070   28.5840   49.1890 H   0  0  0  0  0  0  0  0  0  0  0  0
   28.1370   28.0430   46.8730 H   0  0  0  0  0  0  0  0  0  0  0  0
   30.5430   30.0350   45.7810 Cl  0  0  0  0  0  0  0  0  0  0  0  0
   30.7180   28.3890   45.1880 C   0  0  0  0  0  0  0  0  0  0  0  0
   30.5440   27.2140   45.9240 C   0  0  0  0  0  0  0  0  0  0  0  0
   30.7240   26.0040   45.2870 C   0  0  0  0  0  0  0  0  0  0  0  0
   30.5610   25.1860   45.9700 H   0  0  0  0  0  0  0  0  0  0  0  0
   31.0700   25.9790   43.9540 C   0  0  0  0  0  3  0  0  0  0  0  0
   31.2450   27.1210   43.2160 C   0  0  0  0  0  0  0  0  0  0  0  0
   31.6830   26.9140   41.5300 Cl  0  0  0  0  0  0  0  0  0  0  0  0
   31.0690   28.3350   43.8350 C   0  0  0  0  0  0  0  0  0  0  0  0
   31.2200   29.1990   43.2040 H   0  0  0  0  0  0  0  0  0  0  0  0
   35.4020   28.8440   49.1460 C   0  0  0  0  0  0  0  0  0  0  0  0
   35.3360   30.0290   48.4090 C   0  0  0  0  0  0  0  0  0  0  0  0
   34.2590   30.1890   47.5420 C   0  0  0  0  0  0  0  0  0  0  0  0
   33.3380   29.1870   47.4620 N   0  0  0  0  0  0  0  0  0  0  0  0
   33.4260   28.0670   48.1760 C   0  0  0  0  0  0  0  0  0  0  0  0
   34.4700   27.8820   49.0350 N   0  0  0  0  0  0  0  0  0  0  0  0
   36.2140   28.6520   49.8420 H   0  0  0  0  0  0  0  0  0  0  0  0
   34.2160   31.1000   46.9820 H   0  0  0  0  0  0  0  0  0  0  0  0
   36.3630   30.9950   48.5840 N   0  0  0  0  0  0  0  0  0  0  0  0
   36.5190   31.6710   49.7180 C   0  0  0  0  0  0  0  0  0  0  0  0
   37.5490   32.6000   49.8120 C   0  0  0  0  0  0  0  0  0  0  0  0
   38.3310   32.7440   48.7130 C   0  0  0  0  0  0  0  0  0  0  0  0
   39.2690   33.5910   48.7990 O   0  0  0  0  0  0  0  0  0  0  0  0
   38.2050   32.0870   47.5630 N   0  0  0  0  0  0  0  0  0  0  0  0
   37.1880   31.1850   47.4990 C   0  0  0  0  0  0  0  0  0  0  0  0
   37.0540   30.5470   46.4080 O   0  0  0  0  0  0  0  0  0  0  0  0
   35.8640   31.5130   50.5630 H   0  0  0  0  0  0  0  0  0  0  0  0
   37.7170   33.1780   50.7210 H   0  0  0  0  0  0  0  0  0  0  0  0
   38.8350   32.2350   46.7420 H   0  0  0  0  0  0  0  0  0  0  0  0
  1 26  1  0  0  0  0
  1  2  1  0  0  0  0
  2  3  1  0  0  0  0
  3  4  2  0  0  0  0
  3  8  1  0  0  0  0
  4  9  1  0  0  0  0
  5 10  1  0  0  0  0
  5  4  1  0  0  0  0
  6  5  2  0  0  0  0
  7  6  1  0  0  0  0
  7  2  2  0  0  0  0
 11  6  1  0  0  0  0
 13 12  1  0  0  0  0
 13 14  1  0  0  0  0
 14  7  1  0  0  0  0
 15 14  2  0  0  0  0
 15 16  1  0  0  0  0
 17 15  1  0  0  0  0
 18 20  1  0  0  0  0
 18 17  2  0  0  0  0
 19 18  1  0  0  0  0
 20 13  2  0  0  0  0
 21 20  1  0  0  0  0
 22 28  1  0  0  0  0
 23 30  1  0  0  0  0
 23 22  2  0  0  0  0
 24 23  1  0  0  0  0
 25 24  2  0  0  0  0
 25 26  1  0  0  0  0
 26 27  2  0  0  0  0
 27 22  1  0  0  0  0
 29 24  1  0  0  0  0
 30 31  1  0  0  0  0
 31 32  2  0  0  0  0
 31 38  1  0  0  0  0
 32 39  1  0  0  0  0
 33 34  2  0  0  0  0
 33 32  1  0  0  0  0
 35 33  1  0  0  0  0
 36 35  1  0  0  0  0
 36 30  1  0  0  0  0
 37 36  2  0  0  0  0
 40 35  1  0  0  0  0
M  END
>  <minimizedAffinity>
-5.91473007

>  <minimizedRMSD>
0.608816385

$$$$
