
 OpenBabel03272510243D

 33 36  0  0  0  0  0  0  0  0999 V2000
   35.3280   29.9420   46.9790 C   0  0  0  0  0  0  0  0  0  0  0  0
   36.5520   30.3460   47.4880 C   0  0  0  0  0  0  0  0  0  0  0  0
   37.5330   30.8560   46.6620 C   0  0  0  0  0  0  0  0  0  0  0  0
   37.2260   30.9430   45.3020 C   0  0  0  0  0  0  0  0  0  0  0  0
   38.0040   31.4030   44.2860 N   0  0  0  0  0  0  0  0  0  0  0  0
   37.2820   31.2900   43.1720 C   0  0  0  0  0  0  0  0  0  0  0  0
   36.0850   30.7810   43.4250 N   0  0  0  0  0  0  0  0  0  0  0  0
   36.0090   30.5470   44.7580 C   0  0  0  0  0  0  0  0  0  0  0  0
   35.0500   30.0390   45.6170 C   0  0  0  0  0  0  0  0  0  0  0  0
   34.5120   29.5310   47.5720 H   0  0  0  0  0  0  0  0  0  0  0  0
   38.4830   31.1730   47.0320 H   0  0  0  0  0  0  0  0  0  0  0  0
   38.9820   31.7720   44.3910 H   0  0  0  0  0  0  0  0  0  0  0  0
   34.0980   29.7290   45.2050 H   0  0  0  0  0  0  0  0  0  0  0  0
   37.9490   30.5030   50.9820 C   0  0  0  0  0  0  0  0  0  0  0  0
   37.8760   30.7060   49.6070 C   0  0  0  0  0  0  0  0  0  0  0  0
   36.7700   30.2130   48.9240 C   0  0  0  0  0  0  0  0  0  0  0  0
   35.8030   29.5480   49.6420 N   0  0  0  0  0  0  0  0  0  0  0  0
   35.9130   29.3740   50.9740 C   0  0  0  0  0  0  0  0  0  0  0  0
   36.9760   29.8470   51.6320 N   0  0  0  0  0  0  0  0  0  0  0  0
   38.8230   30.9020   51.4740 H   0  0  0  0  0  0  0  0  0  0  0  0
   38.6280   31.2260   49.0250 H   0  0  0  0  0  0  0  0  0  0  0  0
   35.1100   28.8400   51.4700 H   0  0  0  0  0  0  0  0  0  0  0  0
   37.7770   31.6740   41.9270 O   0  0  0  0  0  0  0  0  0  0  0  0
   36.1140   34.1230   41.3690 Cl  0  0  0  0  0  0  0  0  0  0  0  0
   36.0530   32.6270   40.4560 C   0  0  0  0  0  0  0  0  0  0  0  0
   36.8920   31.6080   40.8580 C   0  0  0  0  0  0  0  0  0  0  0  0
   36.8480   30.4200   40.1380 C   0  0  0  0  0  0  0  0  0  0  0  0
   37.4850   29.5680   40.4000 H   0  0  0  0  0  0  0  0  0  0  0  0
   35.9980   30.2580   39.0570 C   0  0  0  0  0  3  0  0  0  0  0  0
   35.1770   31.3020   38.6880 C   0  0  0  0  0  0  0  0  0  0  0  0
   34.0740   31.1720   37.3290 Cl  0  0  0  0  0  0  0  0  0  0  0  0
   35.1950   32.4960   39.3820 C   0  0  0  0  0  0  0  0  0  0  0  0
   34.5480   33.3000   39.0810 H   0  0  0  0  0  0  0  0  0  0  0  0
  1  2  1  0  0  0  0
  1 10  1  0  0  0  0
  2 16  1  0  0  0  0
  3 11  1  0  0  0  0
  3  2  2  0  0  0  0
  4  3  1  0  0  0  0
  5 12  1  0  0  0  0
  5  4  1  0  0  0  0
  6  7  2  0  0  0  0
  6  5  1  0  0  0  0
  7  8  1  0  0  0  0
  8  4  2  0  0  0  0
  8  9  1  0  0  0  0
  9  1  2  0  0  0  0
 13  9  1  0  0  0  0
 14 20  1  0  0  0  0
 14 19  1  0  0  0  0
 15 14  2  0  0  0  0
 16 15  1  0  0  0  0
 16 17  2  0  0  0  0
 17 18  1  0  0  0  0
 18 22  1  0  0  0  0
 18 19  2  0  0  0  0
 21 15  1  0  0  0  0
 23  6  1  0  0  0  0
 25 26  1  0  0  0  0
 25 24  1  0  0  0  0
 26 23  1  0  0  0  0
 27 28  1  0  0  0  0
 27 26  2  0  0  0  0
 29 27  1  0  0  0  0
 30 29  2  0  0  0  0
 30 32  1  0  0  0  0
 31 30  1  0  0  0  0
 32 25  2  0  0  0  0
 33 32  1  0  0  0  0
M  END
>  <minimizedAffinity>
-4.61939287

>  <minimizedRMSD>
3.65806174

$$$$
