
 OpenBabel03272500183D

 35 37  0  0  0  0  0  0  0  0999 V2000
   35.3590   29.2680   50.4480 C   0  0  0  0  0  0  0  0  0  0  0  0
   36.2910   30.0950   49.7640 C   0  0  0  0  0  0  0  0  0  0  0  0
   36.1890   30.1880   48.3860 C   0  0  0  0  0  0  0  0  0  0  0  0
   35.2200   29.5030   47.7390 N   0  0  0  0  0  0  0  0  0  0  0  0
   34.3510   28.7280   48.3990 C   0  0  0  0  0  0  0  0  0  0  0  0
   34.4130   28.6090   49.7260 N   0  0  0  0  0  0  0  0  0  0  0  0
   35.4420   29.1920   51.5220 H   0  0  0  0  0  0  0  0  0  0  0  0
   32.6370   30.3870   46.5550 Cl  0  0  0  0  0  0  0  0  0  0  0  0
   32.4760   28.6420   46.7680 C   0  0  0  0  0  0  0  0  0  0  0  0
   33.3290   27.9910   47.6440 C   0  0  0  0  0  0  0  0  0  0  0  0
   33.2530   26.6070   47.8410 C   0  0  0  0  0  0  0  0  0  0  0  0
   32.2740   25.9360   47.1090 C   0  0  0  0  0  0  0  0  0  0  0  0
   31.4280   26.5650   46.2460 C   0  0  0  0  0  0  0  0  0  0  0  0
   30.2380   25.6070   45.3960 Cl  0  0  0  0  0  0  0  0  0  0  0  0
   31.5360   27.9340   46.0790 C   0  0  0  0  0  0  0  0  0  0  0  0
   33.9250   26.1390   48.5250 H   0  0  0  0  0  0  0  0  0  0  0  0
   32.2830   24.8540   47.3260 H   0  0  0  0  0  0  0  0  0  0  0  0
   30.6290   28.6370   45.1450 C   0  0  0  0  0  0  0  0  0  0  0  0
   29.6000   27.7800   44.7350 F   0  0  0  0  0  0  0  0  0  0  0  0
   31.2760   29.1580   44.0800 F   0  0  0  0  0  0  0  0  0  0  0  0
   30.0030   29.6840   45.8060 F   0  0  0  0  0  0  0  0  0  0  0  0
   35.9790   30.0570   45.3130 Cl  0  0  0  0  0  0  0  0  0  0  0  0
   37.2000   31.0450   46.1350 C   0  0  0  0  0  0  0  0  0  0  0  0
   37.0190   30.9600   47.4920 C   0  0  0  0  0  0  0  0  0  0  0  0
   37.8910   31.6900   48.3180 C   0  0  0  0  0  0  0  0  0  0  0  0
   38.0090   31.8060   49.4040 H   0  0  0  0  0  0  0  0  0  0  0  0
   38.9180   32.4850   47.7880 C   0  0  0  0  0  0  0  0  0  0  0  0
   39.0630   32.5400   46.3990 C   0  0  0  0  0  0  0  0  0  0  0  0
   40.2990   33.4730   45.5670 Cl  0  0  0  0  0  0  0  0  0  0  0  0
   38.1950   31.8140   45.5750 C   0  0  0  0  0  0  0  0  0  0  0  0
   38.1980   31.7490   44.5090 H   0  0  0  0  0  0  0  0  0  0  0  0
   37.3150   30.8410   50.5500 C   0  0  0  0  0  0  0  0  0  0  0  0
   38.5920   30.5780   50.1000 F   0  0  0  0  0  0  0  0  0  0  0  0
   37.0870   32.1990   50.4120 F   0  0  0  0  0  0  0  0  0  0  0  0
   37.2470   30.5440   51.8970 F   0  0  0  0  0  0  0  0  0  0  0  0
  1  7  1  0  0  0  0
  2  1  1  0  0  0  0
  2 32  1  0  0  0  0
  3  2  2  0  0  0  0
  4  3  1  0  0  0  0
  4  5  2  0  0  0  0
  5  6  1  0  0  0  0
  6  1  2  0  0  0  0
  8  9  1  0  0  0  0
  9 10  1  0  0  0  0
 10 11  2  0  0  0  0
 10  5  1  0  0  0  0
 11 16  1  0  0  0  0
 12 17  1  0  0  0  0
 12 11  1  0  0  0  0
 13 12  2  0  0  0  0
 14 13  1  0  0  0  0
 15 13  1  0  0  0  0
 15  9  2  0  0  0  0
 18 21  1  0  0  0  0
 18 15  1  0  0  0  0
 19 18  1  0  0  0  0
 20 18  1  0  0  0  0
 22 23  1  0  0  0  0
 23 24  1  0  0  0  0
 24 25  2  0  0  0  0
 24  3  1  0  0  0  0
 25 26  1  0  0  0  0
 27 25  1  0  0  0  0
 28 27  2  0  0  0  0
 29 28  1  0  0  0  0
 30 23  2  0  0  0  0
 30 28  1  0  0  0  0
 31 30  1  0  0  0  0
 32 35  1  0  0  0  0
 33 32  1  0  0  0  0
 34 32  1  0  0  0  0
M  END
>  <minimizedAffinity>
-7.40269756

>  <minimizedRMSD>
0.209560111

$$$$
