
 OpenBabel03272509013D

 32 34  0  0  0  0  0  0  0  0999 V2000
   39.2410   26.6560   35.3490 Cl  0  0  0  0  0  0  0  0  0  0  0  0
   38.6760   25.4290   34.2350 C   0  0  0  0  0  0  0  0  0  0  0  0
   38.3820   24.1670   34.7040 C   0  0  0  0  0  0  0  0  0  0  0  0
   37.9370   23.1780   33.8750 C   0  0  0  0  0  0  0  0  0  0  0  0
   37.7720   23.4240   32.5280 C   0  0  0  0  0  0  0  0  0  0  0  0
   38.0540   24.6640   32.0210 C   0  0  0  0  0  0  0  0  0  0  0  0
   37.8880   25.1070   30.3400 Cl  0  0  0  0  0  0  0  0  0  0  0  0
   38.4970   25.6270   32.8940 C   0  0  0  0  0  0  0  0  0  0  0  0
   37.6980   22.1820   34.2050 H   0  0  0  0  0  0  0  0  0  0  0  0
   37.4210   22.6590   31.8470 H   0  0  0  0  0  0  0  0  0  0  0  0
   37.7910   23.9650   38.3280 C   0  0  0  0  0  0  0  0  0  0  0  0
   38.9120   23.3110   38.8040 C   0  0  0  0  0  0  0  0  0  0  0  0
   39.8970   22.9310   37.8430 C   0  0  0  0  0  0  0  0  0  0  0  0
   39.6700   23.2340   36.5380 N   0  0  0  0  0  0  0  0  0  0  0  0
   38.5530   23.8770   36.1240 C   0  0  0  0  0  0  0  0  0  0  0  0
   37.6200   24.2370   37.0320 N   0  0  0  0  0  0  0  0  0  0  0  0
   37.1040   24.2170   39.1070 H   0  0  0  0  0  0  0  0  0  0  0  0
   39.2000   23.0200   39.7930 H   0  0  0  0  0  0  0  0  0  0  0  0
   40.8320   22.4200   37.9920 H   0  0  0  0  0  0  0  0  0  0  0  0
   38.8460   27.0110   32.3810 C   0  0  0  0  0  0  0  0  0  0  0  0
   39.5740   27.4160   33.1300 H   0  0  0  0  0  0  0  0  0  0  0  0
   39.3200   26.9130   31.3840 H   0  0  0  0  0  0  0  0  0  0  0  0
   38.7530   28.5190   29.8340 Cl  0  0  0  0  0  0  0  0  0  0  0  0
   37.5510   28.5820   31.1100 C   0  0  0  0  0  0  0  0  0  0  0  0
   37.6510   27.8540   32.2810 C   0  0  0  0  0  0  0  0  0  0  0  0
   36.6380   27.9840   33.2210 C   0  0  0  0  0  0  0  0  0  0  0  0
   36.8080   27.3730   34.0960 H   0  0  0  0  0  0  0  0  0  0  0  0
   35.5560   28.8120   33.0060 C   0  0  0  0  0  3  0  0  0  0  0  0
   35.4390   29.5500   31.8380 C   0  0  0  0  0  0  0  0  0  0  0  0
   34.0540   30.6000   31.5760 Cl  0  0  0  0  0  0  0  0  0  0  0  0
   36.4480   29.4170   30.9080 C   0  0  0  0  0  0  0  0  0  0  0  0
   36.3750   29.9930   29.9710 H   0  0  0  0  0  0  0  0  0  0  0  0
  2  3  1  0  0  0  0
  2  1  1  0  0  0  0
  3 15  1  0  0  0  0
  4  9  1  0  0  0  0
  4  3  2  0  0  0  0
  5  4  1  0  0  0  0
  6  5  2  0  0  0  0
  6  8  1  0  0  0  0
  7  6  1  0  0  0  0
  8  2  2  0  0  0  0
 10  5  1  0  0  0  0
 11 12  1  0  0  0  0
 11 17  1  0  0  0  0
 12 18  1  0  0  0  0
 13 19  1  0  0  0  0
 13 12  2  0  0  0  0
 14 13  1  0  0  0  0
 15 14  2  0  0  0  0
 15 16  1  0  0  0  0
 16 11  2  0  0  0  0
 20  8  1  0  0  0  0
 20 21  1  0  0  0  0
 22 20  1  0  0  0  0
 23 24  1  0  0  0  0
 24 25  1  0  0  0  0
 25 20  1  0  0  0  0
 25 26  2  0  0  0  0
 26 27  1  0  0  0  0
 28 26  1  0  0  0  0
 29 28  2  0  0  0  0
 30 29  1  0  0  0  0
 31 24  2  0  0  0  0
 31 29  1  0  0  0  0
 32 31  1  0  0  0  0
M  END
>  <minimizedAffinity>
-5.62544537

$$$$

 OpenBabel03272509013D

 32 34  0  0  0  0  0  0  0  0999 V2000
   39.0340   27.1140   32.1130 Cl  0  0  0  0  0  0  0  0  0  0  0  0
   37.6110   26.1440   31.7960 C   0  0  0  0  0  0  0  0  0  0  0  0
   36.4850   26.7390   31.2720 C   0  0  0  0  0  0  0  0  0  0  0  0
   35.3520   26.0240   31.0070 C   0  0  0  0  0  0  0  0  0  0  0  0
   35.3100   24.6700   31.2640 C   0  0  0  0  0  0  0  0  0  0  0  0
   36.4080   24.0400   31.7860 C   0  0  0  0  0  0  0  0  0  0  0  0
   36.4870   22.3350   32.1570 Cl  0  0  0  0  0  0  0  0  0  0  0  0
   37.5240   24.8010   32.0350 C   0  0  0  0  0  0  0  0  0  0  0  0
   34.4540   26.4540   30.5980 H   0  0  0  0  0  0  0  0  0  0  0  0
   34.4260   24.0780   31.0640 H   0  0  0  0  0  0  0  0  0  0  0  0
   36.9580   29.9690   29.5790 C   0  0  0  0  0  0  0  0  0  0  0  0
   36.5100   30.8910   30.5080 C   0  0  0  0  0  0  0  0  0  0  0  0
   36.0330   30.3780   31.7510 C   0  0  0  0  0  0  0  0  0  0  0  0
   36.0490   29.0320   31.9390 N   0  0  0  0  0  0  0  0  0  0  0  0
   36.4980   28.1710   30.9950 C   0  0  0  0  0  0  0  0  0  0  0  0
   36.9510   28.6550   29.8180 N   0  0  0  0  0  0  0  0  0  0  0  0
   37.3000   30.4310   28.6780 H   0  0  0  0  0  0  0  0  0  0  0  0
   36.4480   31.9590   30.4760 H   0  0  0  0  0  0  0  0  0  0  0  0
   35.6430   30.9090   32.6010 H   0  0  0  0  0  0  0  0  0  0  0  0
   38.7590   24.1580   32.6350 C   0  0  0  0  0  0  0  0  0  0  0  0
   38.8110   23.1450   32.1600 H   0  0  0  0  0  0  0  0  0  0  0  0
   39.6460   24.7660   32.3640 H   0  0  0  0  0  0  0  0  0  0  0  0
   39.8190   21.5930   33.6700 Cl  0  0  0  0  0  0  0  0  0  0  0  0
   39.1310   22.8860   34.6360 C   0  0  0  0  0  0  0  0  0  0  0  0
   38.6500   24.0630   34.0940 C   0  0  0  0  0  0  0  0  0  0  0  0
   38.1280   25.0160   34.9570 C   0  0  0  0  0  0  0  0  0  0  0  0
   37.7820   25.8970   34.4360 H   0  0  0  0  0  0  0  0  0  0  0  0
   38.0850   24.8090   36.3200 C   0  0  0  0  0  3  0  0  0  0  0  0
   38.5630   23.6350   36.8820 C   0  0  0  0  0  0  0  0  0  0  0  0
   38.5020   23.3840   38.6210 Cl  0  0  0  0  0  0  0  0  0  0  0  0
   39.0800   22.6910   36.0200 C   0  0  0  0  0  0  0  0  0  0  0  0
   39.4670   21.7510   36.4450 H   0  0  0  0  0  0  0  0  0  0  0  0
  2  8  1  0  0  0  0
  2  1  1  0  0  0  0
  3  2  2  0  0  0  0
  4  5  2  0  0  0  0
  4  3  1  0  0  0  0
  5  6  1  0  0  0  0
  6  8  2  0  0  0  0
  6  7  1  0  0  0  0
  8 20  1  0  0  0  0
  9  4  1  0  0  0  0
 10  5  1  0  0  0  0
 11 16  2  0  0  0  0
 11 12  1  0  0  0  0
 12 13  2  0  0  0  0
 13 14  1  0  0  0  0
 13 19  1  0  0  0  0
 15  3  1  0  0  0  0
 15 14  2  0  0  0  0
 16 15  1  0  0  0  0
 17 11  1  0  0  0  0
 18 12  1  0  0  0  0
 20 25  1  0  0  0  0
 21 20  1  0  0  0  0
 22 20  1  0  0  0  0
 23 24  1  0  0  0  0
 24 31  1  0  0  0  0
 25 24  2  0  0  0  0
 25 26  1  0  0  0  0
 26 28  2  0  0  0  0
 27 26  1  0  0  0  0
 28 29  1  0  0  0  0
 29 30  1  0  0  0  0
 31 32  1  0  0  0  0
 31 29  2  0  0  0  0
M  END
>  <minimizedAffinity>
-5.50843334

$$$$

 OpenBabel03272509013D

 32 34  0  0  0  0  0  0  0  0999 V2000
   36.6600   27.5630   34.5910 Cl  0  0  0  0  0  0  0  0  0  0  0  0
   36.6800   28.3460   33.0250 C   0  0  0  0  0  0  0  0  0  0  0  0
   35.8970   29.4590   32.8100 C   0  0  0  0  0  0  0  0  0  0  0  0
   35.8800   30.1040   31.6070 C   0  0  0  0  0  0  0  0  0  0  0  0
   36.6570   29.6470   30.5640 C   0  0  0  0  0  0  0  0  0  0  0  0
   37.4490   28.5440   30.7340 C   0  0  0  0  0  0  0  0  0  0  0  0
   38.4790   27.8630   29.4990 Cl  0  0  0  0  0  0  0  0  0  0  0  0
   37.4340   27.9290   31.9620 C   0  0  0  0  0  0  0  0  0  0  0  0
   35.2810   30.9750   31.4020 H   0  0  0  0  0  0  0  0  0  0  0  0
   36.6640   30.1380   29.5980 H   0  0  0  0  0  0  0  0  0  0  0  0
   34.7400   31.3390   35.7510 C   0  0  0  0  0  0  0  0  0  0  0  0
   33.4460   30.8880   35.9360 C   0  0  0  0  0  0  0  0  0  0  0  0
   32.9640   29.9090   35.0170 C   0  0  0  0  0  0  0  0  0  0  0  0
   33.7990   29.4870   34.0320 N   0  0  0  0  0  0  0  0  0  0  0  0
   35.0600   29.9620   33.8940 C   0  0  0  0  0  0  0  0  0  0  0  0
   35.5180   30.8890   34.7630 N   0  0  0  0  0  0  0  0  0  0  0  0
   35.0270   32.0670   36.4780 H   0  0  0  0  0  0  0  0  0  0  0  0
   32.7020   31.1410   36.6630 H   0  0  0  0  0  0  0  0  0  0  0  0
   32.0020   29.4290   34.9760 H   0  0  0  0  0  0  0  0  0  0  0  0
   38.2740   26.6900   32.1990 C   0  0  0  0  0  0  0  0  0  0  0  0
   39.0960   26.7550   31.4410 H   0  0  0  0  0  0  0  0  0  0  0  0
   38.6840   26.7270   33.2280 H   0  0  0  0  0  0  0  0  0  0  0  0
   39.2930   24.4480   33.8450 Cl  0  0  0  0  0  0  0  0  0  0  0  0
   37.9060   24.3880   32.7720 C   0  0  0  0  0  0  0  0  0  0  0  0
   37.4780   25.4710   32.0260 C   0  0  0  0  0  0  0  0  0  0  0  0
   36.3670   25.3060   31.2110 C   0  0  0  0  0  0  0  0  0  0  0  0
   36.1130   26.2080   30.6740 H   0  0  0  0  0  0  0  0  0  0  0  0
   35.6970   24.1020   31.1390 C   0  0  0  0  0  3  0  0  0  0  0  0
   36.1120   23.0060   31.8800 C   0  0  0  0  0  0  0  0  0  0  0  0
   35.2490   21.4780   31.7780 Cl  0  0  0  0  0  0  0  0  0  0  0  0
   37.2160   23.1740   32.6870 C   0  0  0  0  0  0  0  0  0  0  0  0
   37.5620   22.3160   33.2860 H   0  0  0  0  0  0  0  0  0  0  0  0
  2  1  1  0  0  0  0
  3  2  1  0  0  0  0
  3 15  1  0  0  0  0
  4  3  2  0  0  0  0
  5  6  2  0  0  0  0
  5  4  1  0  0  0  0
  6  8  1  0  0  0  0
  7  6  1  0  0  0  0
  8 20  1  0  0  0  0
  8  2  2  0  0  0  0
  9  4  1  0  0  0  0
 10  5  1  0  0  0  0
 11 12  1  0  0  0  0
 11 17  1  0  0  0  0
 12 18  1  0  0  0  0
 13 12  2  0  0  0  0
 14 13  1  0  0  0  0
 15 14  2  0  0  0  0
 15 16  1  0  0  0  0
 16 11  2  0  0  0  0
 19 13  1  0  0  0  0
 20 22  1  0  0  0  0
 21 20  1  0  0  0  0
 24 23  1  0  0  0  0
 25 20  1  0  0  0  0
 25 24  2  0  0  0  0
 26 25  1  0  0  0  0
 27 26  1  0  0  0  0
 28 26  2  0  0  0  0
 28 29  1  0  0  0  0
 29 31  2  0  0  0  0
 30 29  1  0  0  0  0
 31 24  1  0  0  0  0
 31 32  1  0  0  0  0
M  END
>  <minimizedAffinity>
-5.39971399

$$$$

 OpenBabel03272509013D

 32 34  0  0  0  0  0  0  0  0999 V2000
   38.0790   23.3080   33.7100 Cl  0  0  0  0  0  0  0  0  0  0  0  0
   37.9390   24.9690   34.2480 C   0  0  0  0  0  0  0  0  0  0  0  0
   38.4820   25.3400   35.4580 C   0  0  0  0  0  0  0  0  0  0  0  0
   38.3990   26.6230   35.9190 C   0  0  0  0  0  0  0  0  0  0  0  0
   37.7590   27.5890   35.1710 C   0  0  0  0  0  0  0  0  0  0  0  0
   37.2050   27.2610   33.9630 C   0  0  0  0  0  0  0  0  0  0  0  0
   36.3700   28.3850   32.9190 Cl  0  0  0  0  0  0  0  0  0  0  0  0
   37.3150   25.9590   33.5410 C   0  0  0  0  0  0  0  0  0  0  0  0
   38.8100   26.9500   36.8580 H   0  0  0  0  0  0  0  0  0  0  0  0
   37.6780   28.6140   35.5110 H   0  0  0  0  0  0  0  0  0  0  0  0
   39.2400   22.9510   38.1480 C   0  0  0  0  0  0  0  0  0  0  0  0
   40.4740   22.4410   37.7910 C   0  0  0  0  0  0  0  0  0  0  0  0
   41.0570   22.9390   36.5870 C   0  0  0  0  0  0  0  0  0  0  0  0
   40.3680   23.8710   35.8790 N   0  0  0  0  0  0  0  0  0  0  0  0
   39.1600   24.3380   36.2730 C   0  0  0  0  0  0  0  0  0  0  0  0
   38.6070   23.8680   37.4120 N   0  0  0  0  0  0  0  0  0  0  0  0
   38.8730   22.5310   39.0600 H   0  0  0  0  0  0  0  0  0  0  0  0
   41.1060   21.7140   38.2590 H   0  0  0  0  0  0  0  0  0  0  0  0
   41.9960   22.6820   36.1290 H   0  0  0  0  0  0  0  0  0  0  0  0
   36.6990   25.5370   32.2210 C   0  0  0  0  0  0  0  0  0  0  0  0
   36.1760   24.5730   32.4470 H   0  0  0  0  0  0  0  0  0  0  0  0
   35.9760   26.3120   31.9000 H   0  0  0  0  0  0  0  0  0  0  0  0
   36.5020   22.9020   30.8820 Cl  0  0  0  0  0  0  0  0  0  0  0  0
   37.6850   24.1490   30.5290 C   0  0  0  0  0  0  0  0  0  0  0  0
   37.7280   25.3610   31.1910 C   0  0  0  0  0  0  0  0  0  0  0  0
   38.7100   26.2720   30.8250 C   0  0  0  0  0  0  0  0  0  0  0  0
   38.6560   27.1860   31.3990 H   0  0  0  0  0  0  0  0  0  0  0  0
   39.6230   25.9890   29.8310 C   0  0  0  0  0  3  0  0  0  0  0  0
   39.5950   24.7780   29.1560 C   0  0  0  0  0  0  0  0  0  0  0  0
   40.7640   24.4300   27.8910 Cl  0  0  0  0  0  0  0  0  0  0  0  0
   38.6180   23.8770   29.5230 C   0  0  0  0  0  0  0  0  0  0  0  0
   38.5760   22.9080   28.9980 H   0  0  0  0  0  0  0  0  0  0  0  0
  1  2  1  0  0  0  0
  2  3  1  0  0  0  0
  3  4  2  0  0  0  0
  3 15  1  0  0  0  0
  4  9  1  0  0  0  0
  5 10  1  0  0  0  0
  5  4  1  0  0  0  0
  6  5  2  0  0  0  0
  7  6  1  0  0  0  0
  8  6  1  0  0  0  0
  8  2  2  0  0  0  0
 11 17  1  0  0  0  0
 12 11  1  0  0  0  0
 12 18  1  0  0  0  0
 13 12  2  0  0  0  0
 14 15  2  0  0  0  0
 14 13  1  0  0  0  0
 15 16  1  0  0  0  0
 16 11  2  0  0  0  0
 19 13  1  0  0  0  0
 20 21  1  0  0  0  0
 20  8  1  0  0  0  0
 22 20  1  0  0  0  0
 24 23  1  0  0  0  0
 24 25  1  0  0  0  0
 25 20  1  0  0  0  0
 26 25  2  0  0  0  0
 26 27  1  0  0  0  0
 28 26  1  0  0  0  0
 29 31  1  0  0  0  0
 29 28  2  0  0  0  0
 30 29  1  0  0  0  0
 31 24  2  0  0  0  0
 32 31  1  0  0  0  0
M  END
>  <minimizedAffinity>
-5.3384428

$$$$

 OpenBabel03272509013D

 32 34  0  0  0  0  0  0  0  0999 V2000
   36.3750   27.4990   34.4120 Cl  0  0  0  0  0  0  0  0  0  0  0  0
   36.1550   28.6790   33.1380 C   0  0  0  0  0  0  0  0  0  0  0  0
   36.3320   28.3040   31.8240 C   0  0  0  0  0  0  0  0  0  0  0  0
   36.1710   29.1880   30.7970 C   0  0  0  0  0  0  0  0  0  0  0  0
   35.8240   30.4970   31.0560 C   0  0  0  0  0  0  0  0  0  0  0  0
   35.6390   30.9120   32.3470 C   0  0  0  0  0  0  0  0  0  0  0  0
   35.1980   32.5360   32.8120 Cl  0  0  0  0  0  0  0  0  0  0  0  0
   35.8110   29.9860   33.3470 C   0  0  0  0  0  0  0  0  0  0  0  0
   36.3020   28.9320   29.7590 H   0  0  0  0  0  0  0  0  0  0  0  0
   35.6890   31.2200   30.2610 H   0  0  0  0  0  0  0  0  0  0  0  0
   38.3270   25.2860   31.1620 C   0  0  0  0  0  0  0  0  0  0  0  0
   37.3740   24.3090   30.9430 C   0  0  0  0  0  0  0  0  0  0  0  0
   36.0070   24.7080   31.0270 C   0  0  0  0  0  0  0  0  0  0  0  0
   35.7330   26.0070   31.3140 N   0  0  0  0  0  0  0  0  0  0  0  0
   36.7060   26.9270   31.5210 C   0  0  0  0  0  0  0  0  0  0  0  0
   38.0010   26.5510   31.4410 N   0  0  0  0  0  0  0  0  0  0  0  0
   39.3240   24.9110   31.0800 H   0  0  0  0  0  0  0  0  0  0  0  0
   37.4640   23.2670   30.7130 H   0  0  0  0  0  0  0  0  0  0  0  0
   35.1170   24.1180   30.8950 H   0  0  0  0  0  0  0  0  0  0  0  0
   35.6410   30.3980   34.7970 C   0  0  0  0  0  0  0  0  0  0  0  0
   36.2090   29.6280   35.3780 H   0  0  0  0  0  0  0  0  0  0  0  0
   36.0850   31.4040   34.9360 H   0  0  0  0  0  0  0  0  0  0  0  0
   35.0830   32.4100   36.8970 Cl  0  0  0  0  0  0  0  0  0  0  0  0
   33.9030   31.3460   36.1530 C   0  0  0  0  0  0  0  0  0  0  0  0
   34.2250   30.4230   35.1760 C   0  0  0  0  0  0  0  0  0  0  0  0
   33.2060   29.6340   34.6600 C   0  0  0  0  0  0  0  0  0  0  0  0
   33.5600   28.9490   33.9030 H   0  0  0  0  0  0  0  0  0  0  0  0
   31.9050   29.7570   35.0990 C   0  0  0  0  0  3  0  0  0  0  0  0
   31.5630   30.6770   36.0790 C   0  0  0  0  0  0  0  0  0  0  0  0
   29.9000   30.8250   36.6290 Cl  0  0  0  0  0  0  0  0  0  0  0  0
   32.5790   31.4580   36.5890 C   0  0  0  0  0  0  0  0  0  0  0  0
   32.3290   32.1980   37.3670 H   0  0  0  0  0  0  0  0  0  0  0  0
  2  8  1  0  0  0  0
  2  1  1  0  0  0  0
  3  2  2  0  0  0  0
  4  5  2  0  0  0  0
  4  3  1  0  0  0  0
  5  6  1  0  0  0  0
  6  7  1  0  0  0  0
  6  8  2  0  0  0  0
  8 20  1  0  0  0  0
  9  4  1  0  0  0  0
 10  5  1  0  0  0  0
 11 16  1  0  0  0  0
 12 13  1  0  0  0  0
 12 11  2  0  0  0  0
 13 14  2  0  0  0  0
 14 15  1  0  0  0  0
 15  3  1  0  0  0  0
 16 15  2  0  0  0  0
 17 11  1  0  0  0  0
 18 12  1  0  0  0  0
 19 13  1  0  0  0  0
 20 22  1  0  0  0  0
 20 25  1  0  0  0  0
 20 21  1  0  0  0  0
 24 31  1  0  0  0  0
 24 23  1  0  0  0  0
 25 24  2  0  0  0  0
 26 28  2  0  0  0  0
 26 25  1  0  0  0  0
 27 26  1  0  0  0  0
 28 29  1  0  0  0  0
 29 31  2  0  0  0  0
 29 30  1  0  0  0  0
 31 32  1  0  0  0  0
M  END
>  <minimizedAffinity>
-5.31089783

$$$$

 OpenBabel03272509013D

 32 34  0  0  0  0  0  0  0  0999 V2000
   40.2590   25.5910   34.4250 Cl  0  0  0  0  0  0  0  0  0  0  0  0
   38.9990   24.5920   33.7330 C   0  0  0  0  0  0  0  0  0  0  0  0
   38.7820   23.3270   34.2330 C   0  0  0  0  0  0  0  0  0  0  0  0
   37.8100   22.5110   33.7270 C   0  0  0  0  0  0  0  0  0  0  0  0
   37.0140   22.9430   32.6870 C   0  0  0  0  0  0  0  0  0  0  0  0
   37.1980   24.1930   32.1600 C   0  0  0  0  0  0  0  0  0  0  0  0
   36.2610   24.8610   30.8460 Cl  0  0  0  0  0  0  0  0  0  0  0  0
   38.1860   24.9770   32.7030 C   0  0  0  0  0  0  0  0  0  0  0  0
   37.6120   21.5180   34.0910 H   0  0  0  0  0  0  0  0  0  0  0  0
   36.2360   22.3190   32.2660 H   0  0  0  0  0  0  0  0  0  0  0  0
   41.4760   21.6750   36.1120 C   0  0  0  0  0  0  0  0  0  0  0  0
   41.1600   21.9390   37.4320 C   0  0  0  0  0  0  0  0  0  0  0  0
   39.9840   22.7090   37.6750 C   0  0  0  0  0  0  0  0  0  0  0  0
   39.2580   23.1270   36.6050 N   0  0  0  0  0  0  0  0  0  0  0  0
   39.6120   22.8410   35.3290 C   0  0  0  0  0  0  0  0  0  0  0  0
   40.7260   22.1130   35.0980 N   0  0  0  0  0  0  0  0  0  0  0  0
   42.3670   21.0930   36.0140 H   0  0  0  0  0  0  0  0  0  0  0  0
   41.6460   21.6680   38.3470 H   0  0  0  0  0  0  0  0  0  0  0  0
   39.5590   23.0260   38.6110 H   0  0  0  0  0  0  0  0  0  0  0  0
   38.4470   26.3620   32.1420 C   0  0  0  0  0  0  0  0  0  0  0  0
   39.5110   26.5820   32.4130 H   0  0  0  0  0  0  0  0  0  0  0  0
   38.3200   26.3310   31.0410 H   0  0  0  0  0  0  0  0  0  0  0  0
   37.4530   28.2830   30.1180 Cl  0  0  0  0  0  0  0  0  0  0  0  0
   37.0300   28.2720   31.8210 C   0  0  0  0  0  0  0  0  0  0  0  0
   37.5290   27.3480   32.7200 C   0  0  0  0  0  0  0  0  0  0  0  0
   37.1230   27.4370   34.0440 C   0  0  0  0  0  0  0  0  0  0  0  0
   37.5660   26.6700   34.6620 H   0  0  0  0  0  0  0  0  0  0  0  0
   36.2450   28.4140   34.4650 C   0  0  0  0  0  3  0  0  0  0  0  0
   35.7340   29.3490   33.5780 C   0  0  0  0  0  0  0  0  0  0  0  0
   34.6160   30.5890   34.1290 Cl  0  0  0  0  0  0  0  0  0  0  0  0
   36.1410   29.2570   32.2640 C   0  0  0  0  0  0  0  0  0  0  0  0
   35.7460   29.9890   31.5420 H   0  0  0  0  0  0  0  0  0  0  0  0
  2  3  1  0  0  0  0
  2  1  1  0  0  0  0
  3 15  1  0  0  0  0
  4  9  1  0  0  0  0
  4  3  2  0  0  0  0
  5  4  1  0  0  0  0
  6  5  2  0  0  0  0
  6  8  1  0  0  0  0
  7  6  1  0  0  0  0
  8  2  2  0  0  0  0
 10  5  1  0  0  0  0
 11 12  1  0  0  0  0
 12 13  2  0  0  0  0
 12 18  1  0  0  0  0
 13 19  1  0  0  0  0
 14 13  1  0  0  0  0
 15 14  2  0  0  0  0
 16 15  1  0  0  0  0
 16 11  2  0  0  0  0
 17 11  1  0  0  0  0
 20 21  1  0  0  0  0
 20  8  1  0  0  0  0
 20 25  1  0  0  0  0
 22 20  1  0  0  0  0
 23 24  1  0  0  0  0
 24 31  2  0  0  0  0
 24 25  1  0  0  0  0
 25 26  2  0  0  0  0
 26 28  1  0  0  0  0
 26 27  1  0  0  0  0
 29 30  1  0  0  0  0
 29 28  2  0  0  0  0
 31 29  1  0  0  0  0
 32 31  1  0  0  0  0
M  END
>  <minimizedAffinity>
-5.28643656

$$$$

 OpenBabel03272509013D

 32 34  0  0  0  0  0  0  0  0999 V2000
   39.3140   22.9730   33.6910 Cl  0  0  0  0  0  0  0  0  0  0  0  0
   38.4410   24.4910   33.7020 C   0  0  0  0  0  0  0  0  0  0  0  0
   38.0890   25.0650   34.9040 C   0  0  0  0  0  0  0  0  0  0  0  0
   37.4090   26.2470   34.9630 C   0  0  0  0  0  0  0  0  0  0  0  0
   37.0530   26.9010   33.8030 C   0  0  0  0  0  0  0  0  0  0  0  0
   37.3810   26.3640   32.5880 C   0  0  0  0  0  0  0  0  0  0  0  0
   36.9910   27.0890   31.0470 Cl  0  0  0  0  0  0  0  0  0  0  0  0
   38.0660   25.1740   32.5790 C   0  0  0  0  0  0  0  0  0  0  0  0
   37.1180   26.7260   35.8820 H   0  0  0  0  0  0  0  0  0  0  0  0
   36.5130   27.8410   33.8190 H   0  0  0  0  0  0  0  0  0  0  0  0
   39.9370   23.1240   37.4220 C   0  0  0  0  0  0  0  0  0  0  0  0
   39.0940   23.1290   38.5180 C   0  0  0  0  0  0  0  0  0  0  0  0
   37.8550   23.8230   38.3790 C   0  0  0  0  0  0  0  0  0  0  0  0
   37.5870   24.4270   37.1920 N   0  0  0  0  0  0  0  0  0  0  0  0
   38.4490   24.3920   36.1470 C   0  0  0  0  0  0  0  0  0  0  0  0
   39.6220   23.7360   36.2770 N   0  0  0  0  0  0  0  0  0  0  0  0
   40.8400   22.5840   37.6040 H   0  0  0  0  0  0  0  0  0  0  0  0
   39.1930   22.6970   39.4930 H   0  0  0  0  0  0  0  0  0  0  0  0
   37.0630   23.9520   39.0960 H   0  0  0  0  0  0  0  0  0  0  0  0
   38.4350   24.5240   31.2590 C   0  0  0  0  0  0  0  0  0  0  0  0
   38.1040   25.2560   30.4800 H   0  0  0  0  0  0  0  0  0  0  0  0
   39.5340   24.3820   31.2260 H   0  0  0  0  0  0  0  0  0  0  0  0
   40.2590   22.4390   30.2110 Cl  0  0  0  0  0  0  0  0  0  0  0  0
   38.5670   22.2150   30.6170 C   0  0  0  0  0  0  0  0  0  0  0  0
   37.7640   23.2300   31.1030 C   0  0  0  0  0  0  0  0  0  0  0  0
   36.4390   22.9350   31.3900 C   0  0  0  0  0  0  0  0  0  0  0  0
   35.8990   23.7920   31.7650 H   0  0  0  0  0  0  0  0  0  0  0  0
   35.9240   21.6690   31.2020 C   0  0  0  0  0  3  0  0  0  0  0  0
   36.7150   20.6380   30.7160 C   0  0  0  0  0  0  0  0  0  0  0  0
   36.0470   19.0290   30.4830 Cl  0  0  0  0  0  0  0  0  0  0  0  0
   38.0300   20.9370   30.4320 C   0  0  0  0  0  0  0  0  0  0  0  0
   38.6780   20.1320   30.0460 H   0  0  0  0  0  0  0  0  0  0  0  0
  1  2  1  0  0  0  0
  2  3  1  0  0  0  0
  3  4  2  0  0  0  0
  3 15  1  0  0  0  0
  4  9  1  0  0  0  0
  5 10  1  0  0  0  0
  5  4  1  0  0  0  0
  6  5  2  0  0  0  0
  7  6  1  0  0  0  0
  8  6  1  0  0  0  0
  8  2  2  0  0  0  0
 11 17  1  0  0  0  0
 11 12  1  0  0  0  0
 12 18  1  0  0  0  0
 13 12  2  0  0  0  0
 13 19  1  0  0  0  0
 14 13  1  0  0  0  0
 15 16  1  0  0  0  0
 15 14  2  0  0  0  0
 16 11  2  0  0  0  0
 20  8  1  0  0  0  0
 21 20  1  0  0  0  0
 22 20  1  0  0  0  0
 23 24  1  0  0  0  0
 24 25  1  0  0  0  0
 25 20  1  0  0  0  0
 25 26  2  0  0  0  0
 26 27  1  0  0  0  0
 28 26  1  0  0  0  0
 29 28  2  0  0  0  0
 30 29  1  0  0  0  0
 31 24  2  0  0  0  0
 31 29  1  0  0  0  0
 32 31  1  0  0  0  0
M  END
>  <minimizedAffinity>
-5.2637043

$$$$

 OpenBabel03272509013D

 32 34  0  0  0  0  0  0  0  0999 V2000
   39.2360   24.8500   33.1210 Cl  0  0  0  0  0  0  0  0  0  0  0  0
   37.8190   23.9790   32.5760 C   0  0  0  0  0  0  0  0  0  0  0  0
   36.8470   24.6410   31.8570 C   0  0  0  0  0  0  0  0  0  0  0  0
   35.7250   24.0050   31.4100 C   0  0  0  0  0  0  0  0  0  0  0  0
   35.5370   22.6640   31.6730 C   0  0  0  0  0  0  0  0  0  0  0  0
   36.4770   21.9690   32.3850 C   0  0  0  0  0  0  0  0  0  0  0  0
   36.3620   20.2730   32.7850 Cl  0  0  0  0  0  0  0  0  0  0  0  0
   37.5890   22.6520   32.8130 C   0  0  0  0  0  0  0  0  0  0  0  0
   34.9460   24.4880   30.8470 H   0  0  0  0  0  0  0  0  0  0  0  0
   34.6570   22.1330   31.3310 H   0  0  0  0  0  0  0  0  0  0  0  0
   37.9840   27.7880   30.3310 C   0  0  0  0  0  0  0  0  0  0  0  0
   37.3160   28.7590   31.0530 C   0  0  0  0  0  0  0  0  0  0  0  0
   36.4500   28.3100   32.0950 C   0  0  0  0  0  0  0  0  0  0  0  0
   36.3410   26.9720   32.3070 N   0  0  0  0  0  0  0  0  0  0  0  0
   37.0180   26.0610   31.5690 C   0  0  0  0  0  0  0  0  0  0  0  0
   37.8380   26.4840   30.5830 N   0  0  0  0  0  0  0  0  0  0  0  0
   38.6120   28.2020   29.5720 H   0  0  0  0  0  0  0  0  0  0  0  0
   37.3200   29.8270   30.9810 H   0  0  0  0  0  0  0  0  0  0  0  0
   35.8420   28.8860   32.7700 H   0  0  0  0  0  0  0  0  0  0  0  0
   38.6510   21.9360   33.6250 C   0  0  0  0  0  0  0  0  0  0  0  0
   38.3940   20.8500   33.5330 H   0  0  0  0  0  0  0  0  0  0  0  0
   39.6440   22.1450   33.1780 H   0  0  0  0  0  0  0  0  0  0  0  0
   41.3810   22.2530   34.7300 Cl  0  0  0  0  0  0  0  0  0  0  0  0
   39.8820   22.5440   35.5940 C   0  0  0  0  0  0  0  0  0  0  0  0
   38.6340   22.3770   35.0230 C   0  0  0  0  0  0  0  0  0  0  0  0
   37.5170   22.6390   35.8040 C   0  0  0  0  0  0  0  0  0  0  0  0
   36.5930   22.4810   35.2660 H   0  0  0  0  0  0  0  0  0  0  0  0
   37.6330   23.0550   37.1140 C   0  0  0  0  0  3  0  0  0  0  0  0
   38.8770   23.2280   37.7030 C   0  0  0  0  0  0  0  0  0  0  0  0
   39.0110   23.7600   39.3730 Cl  0  0  0  0  0  0  0  0  0  0  0  0
   39.9830   22.9670   36.9230 C   0  0  0  0  0  0  0  0  0  0  0  0
   40.9810   23.1000   37.3700 H   0  0  0  0  0  0  0  0  0  0  0  0
  2  8  1  0  0  0  0
  2  1  1  0  0  0  0
  3  2  2  0  0  0  0
  4  5  2  0  0  0  0
  4  3  1  0  0  0  0
  5  6  1  0  0  0  0
  6  7  1  0  0  0  0
  6  8  2  0  0  0  0
  8 20  1  0  0  0  0
  9  4  1  0  0  0  0
 10  5  1  0  0  0  0
 11 16  2  0  0  0  0
 11 12  1  0  0  0  0
 12 13  2  0  0  0  0
 13 14  1  0  0  0  0
 13 19  1  0  0  0  0
 15  3  1  0  0  0  0
 15 14  2  0  0  0  0
 16 15  1  0  0  0  0
 17 11  1  0  0  0  0
 18 12  1  0  0  0  0
 20 25  1  0  0  0  0
 21 20  1  0  0  0  0
 22 20  1  0  0  0  0
 23 24  1  0  0  0  0
 24 31  1  0  0  0  0
 25 24  2  0  0  0  0
 25 26  1  0  0  0  0
 26 28  2  0  0  0  0
 27 26  1  0  0  0  0
 28 29  1  0  0  0  0
 29 30  1  0  0  0  0
 31 32  1  0  0  0  0
 31 29  2  0  0  0  0
M  END
>  <minimizedAffinity>
-5.20958996

$$$$

 OpenBabel03272509013D

 32 34  0  0  0  0  0  0  0  0999 V2000
   37.6100   24.8820   30.7250 Cl  0  0  0  0  0  0  0  0  0  0  0  0
   38.0410   24.7120   32.4130 C   0  0  0  0  0  0  0  0  0  0  0  0
   37.8070   23.5170   33.0580 C   0  0  0  0  0  0  0  0  0  0  0  0
   38.1260   23.3360   34.3730 C   0  0  0  0  0  0  0  0  0  0  0  0
   38.6980   24.3620   35.0960 C   0  0  0  0  0  0  0  0  0  0  0  0
   38.9460   25.5660   34.4930 C   0  0  0  0  0  0  0  0  0  0  0  0
   39.6630   26.9440   35.2920 Cl  0  0  0  0  0  0  0  0  0  0  0  0
   38.6080   25.7000   33.1690 C   0  0  0  0  0  0  0  0  0  0  0  0
   37.9590   22.4190   34.9100 H   0  0  0  0  0  0  0  0  0  0  0  0
   38.9620   24.2480   36.1400 H   0  0  0  0  0  0  0  0  0  0  0  0
   35.3160   21.2450   31.5900 C   0  0  0  0  0  0  0  0  0  0  0  0
   36.0830   20.3170   30.9110 C   0  0  0  0  0  0  0  0  0  0  0  0
   37.4990   20.4840   30.9650 C   0  0  0  0  0  0  0  0  0  0  0  0
   37.9960   21.5330   31.6720 N   0  0  0  0  0  0  0  0  0  0  0  0
   37.1990   22.4160   32.3200 C   0  0  0  0  0  0  0  0  0  0  0  0
   35.8580   22.2590   32.2710 N   0  0  0  0  0  0  0  0  0  0  0  0
   34.2690   21.0510   31.5040 H   0  0  0  0  0  0  0  0  0  0  0  0
   35.8130   19.4610   30.3280 H   0  0  0  0  0  0  0  0  0  0  0  0
   38.2730   19.8870   30.5140 H   0  0  0  0  0  0  0  0  0  0  0  0
   38.8400   27.0200   32.4590 C   0  0  0  0  0  0  0  0  0  0  0  0
   39.6500   27.5200   33.0480 H   0  0  0  0  0  0  0  0  0  0  0  0
   39.1760   26.8140   31.4230 H   0  0  0  0  0  0  0  0  0  0  0  0
   38.4630   28.3910   29.8610 Cl  0  0  0  0  0  0  0  0  0  0  0  0
   37.3860   28.4920   31.2420 C   0  0  0  0  0  0  0  0  0  0  0  0
   37.6170   27.8280   32.4320 C   0  0  0  0  0  0  0  0  0  0  0  0
   36.6940   27.9820   33.4570 C   0  0  0  0  0  0  0  0  0  0  0  0
   36.9630   27.4220   34.3410 H   0  0  0  0  0  0  0  0  0  0  0  0
   35.5730   28.7710   33.3060 C   0  0  0  0  0  3  0  0  0  0  0  0
   35.3250   29.4440   32.1190 C   0  0  0  0  0  0  0  0  0  0  0  0
   33.8920   30.4470   31.9400 Cl  0  0  0  0  0  0  0  0  0  0  0  0
   36.2450   29.2890   31.1050 C   0  0  0  0  0  0  0  0  0  0  0  0
   36.0670   29.8130   30.1520 H   0  0  0  0  0  0  0  0  0  0  0  0
  1  2  1  0  0  0  0
  2  3  2  0  0  0  0
  2  8  1  0  0  0  0
  3  4  1  0  0  0  0
  4  9  1  0  0  0  0
  4  5  2  0  0  0  0
  5 10  1  0  0  0  0
  6  5  1  0  0  0  0
  6  7  1  0  0  0  0
  8  6  2  0  0  0  0
 11 16  1  0  0  0  0
 12 13  1  0  0  0  0
 12 11  2  0  0  0  0
 13 14  2  0  0  0  0
 14 15  1  0  0  0  0
 15  3  1  0  0  0  0
 16 15  2  0  0  0  0
 17 11  1  0  0  0  0
 18 12  1  0  0  0  0
 19 13  1  0  0  0  0
 20 21  1  0  0  0  0
 20  8  1  0  0  0  0
 22 20  1  0  0  0  0
 23 24  1  0  0  0  0
 24 25  1  0  0  0  0
 25 20  1  0  0  0  0
 25 26  2  0  0  0  0
 26 27  1  0  0  0  0
 28 26  1  0  0  0  0
 29 28  2  0  0  0  0
 30 29  1  0  0  0  0
 31 24  2  0  0  0  0
 31 29  1  0  0  0  0
 32 31  1  0  0  0  0
M  END
>  <minimizedAffinity>
-5.19689941

$$$$
