
 OpenBabel03272501553D

 25 26  0  0  0  0  0  0  0  0999 V2000
   37.8280   25.1760   35.9350 C   0  0  0  0  0  0  0  0  0  0  0  0
   37.4270   24.8900   34.9420 H   0  0  0  0  0  0  0  0  0  0  0  0
   36.9570   25.1840   36.6470 H   0  0  0  0  0  0  0  0  0  0  0  0
   37.8420   24.0410   38.7830 Cl  0  0  0  0  0  0  0  0  0  0  0  0
   39.0000   23.6070   37.5410 C   0  0  0  0  0  0  0  0  0  0  0  0
   38.8540   24.2050   36.3150 C   0  0  0  0  0  0  0  0  0  0  0  0
   39.8200   23.8010   35.3840 C   0  0  0  0  0  0  0  0  0  0  0  0
   39.7400   24.2590   34.3850 H   0  0  0  0  0  0  0  0  0  0  0  0
   40.8410   22.8960   35.6140 C   0  0  0  0  0  3  0  0  0  0  0  0
   40.9200   22.3370   36.8760 C   0  0  0  0  0  0  0  0  0  0  0  0
   42.2370   21.2060   37.0830 Cl  0  0  0  0  0  0  0  0  0  0  0  0
   39.9980   22.6940   37.8350 C   0  0  0  0  0  0  0  0  0  0  0  0
   40.1090   22.2260   38.8000 H   0  0  0  0  0  0  0  0  0  0  0  0
   38.3400   26.5820   35.7790 C   0  0  0  0  0  0  0  0  0  0  0  0
   37.8210   27.1640   36.6000 H   0  0  0  0  0  0  0  0  0  0  0  0
   39.4310   26.6600   35.8810 H   0  0  0  0  0  0  0  0  0  0  0  0
   36.2190   28.4690   33.4260 C   0  0  0  0  0  0  0  0  0  0  0  0
   36.9180   28.3110   32.2290 C   0  0  0  0  0  0  0  0  0  0  0  0
   38.1250   27.5520   32.2210 C   0  0  0  0  0  0  0  0  0  0  0  0
   38.5230   27.0200   33.4050 N   0  0  0  0  0  0  0  0  0  0  0  0
   37.8050   27.2050   34.5350 C   0  0  0  0  0  0  0  0  0  0  0  0
   36.6690   27.9190   34.5480 N   0  0  0  0  0  0  0  0  0  0  0  0
   35.3220   29.0640   33.2990 H   0  0  0  0  0  0  0  0  0  0  0  0
   36.6600   28.7080   31.2420 H   0  0  0  0  0  0  0  0  0  0  0  0
   38.7450   27.3630   31.3640 H   0  0  0  0  0  0  0  0  0  0  0  0
  1  6  1  0  0  0  0
  1  3  1  0  0  0  0
  2  1  1  0  0  0  0
  5 12  1  0  0  0  0
  5  4  1  0  0  0  0
  6  5  2  0  0  0  0
  7  9  2  0  0  0  0
  7  6  1  0  0  0  0
  8  7  1  0  0  0  0
  9 10  1  0  0  0  0
 10 11  1  0  0  0  0
 10 12  2  0  0  0  0
 12 13  1  0  0  0  0
 14 16  1  0  0  0  0
 14  1  1  0  0  0  0
 14 15  1  0  0  0  0
 17 22  1  0  0  0  0
 18 17  2  0  0  0  0
 19 18  1  0  0  0  0
 19 20  2  0  0  0  0
 20 21  1  0  0  0  0
 21 22  2  0  0  0  0
 21 14  1  0  0  0  0
 23 17  1  0  0  0  0
 24 18  1  0  0  0  0
 25 19  1  0  0  0  0
M  END
>  <minimizedAffinity>
-4.57255745

$$$$

 OpenBabel03272501553D

 25 26  0  0  0  0  0  0  0  0999 V2000
   38.4600   26.9350   35.5020 C   0  0  0  0  0  0  0  0  0  0  0  0
   39.4240   26.7620   36.0200 H   0  0  0  0  0  0  0  0  0  0  0  0
   38.0040   27.8550   35.9640 H   0  0  0  0  0  0  0  0  0  0  0  0
   41.3420   26.7190   34.4790 Cl  0  0  0  0  0  0  0  0  0  0  0  0
   39.9520   27.0340   33.4580 C   0  0  0  0  0  0  0  0  0  0  0  0
   38.7270   27.0990   34.0740 C   0  0  0  0  0  0  0  0  0  0  0  0
   37.6750   27.3540   33.1850 C   0  0  0  0  0  0  0  0  0  0  0  0
   36.6720   27.4150   33.6380 H   0  0  0  0  0  0  0  0  0  0  0  0
   37.7910   27.5310   31.8170 C   0  0  0  0  0  3  0  0  0  0  0  0
   39.0590   27.4500   31.2740 C   0  0  0  0  0  0  0  0  0  0  0  0
   39.1180   27.6860   29.5420 Cl  0  0  0  0  0  0  0  0  0  0  0  0
   40.1360   27.2010   32.0960 C   0  0  0  0  0  0  0  0  0  0  0  0
   41.1000   27.1490   31.6170 H   0  0  0  0  0  0  0  0  0  0  0  0
   37.5980   25.7470   35.8340 C   0  0  0  0  0  0  0  0  0  0  0  0
   36.9220   26.1130   36.6650 H   0  0  0  0  0  0  0  0  0  0  0  0
   37.0040   25.3920   34.9810 H   0  0  0  0  0  0  0  0  0  0  0  0
   40.1200   23.1350   36.4770 C   0  0  0  0  0  0  0  0  0  0  0  0
   39.8100   22.7620   37.7850 C   0  0  0  0  0  0  0  0  0  0  0  0
   38.7290   23.4050   38.4570 C   0  0  0  0  0  0  0  0  0  0  0  0
   38.0560   24.3580   37.7630 N   0  0  0  0  0  0  0  0  0  0  0  0
   38.4000   24.6800   36.4960 C   0  0  0  0  0  0  0  0  0  0  0  0
   39.4170   24.0780   35.8600 N   0  0  0  0  0  0  0  0  0  0  0  0
   40.9590   22.5750   36.0800 H   0  0  0  0  0  0  0  0  0  0  0  0
   40.3050   22.0070   38.4040 H   0  0  0  0  0  0  0  0  0  0  0  0
   38.3990   23.2010   39.4580 H   0  0  0  0  0  0  0  0  0  0  0  0
  1 14  1  0  0  0  0
  1  3  1  0  0  0  0
  1  2  1  0  0  0  0
  5  6  1  0  0  0  0
  5  4  1  0  0  0  0
  6  1  1  0  0  0  0
  7  8  1  0  0  0  0
  7  6  2  0  0  0  0
  9  7  1  0  0  0  0
 10  9  2  0  0  0  0
 10 12  1  0  0  0  0
 11 10  1  0  0  0  0
 12  5  2  0  0  0  0
 13 12  1  0  0  0  0
 14 21  1  0  0  0  0
 14 15  1  0  0  0  0
 16 14  1  0  0  0  0
 17 18  1  0  0  0  0
 18 24  1  0  0  0  0
 18 19  2  0  0  0  0
 19 25  1  0  0  0  0
 20 19  1  0  0  0  0
 21 20  2  0  0  0  0
 22 17  2  0  0  0  0
 22 21  1  0  0  0  0
 23 17  1  0  0  0  0
M  END
>  <minimizedAffinity>
-4.56082344

$$$$

 OpenBabel03272501553D

 25 26  0  0  0  0  0  0  0  0999 V2000
   38.6140   23.5030   33.5670 C   0  0  0  0  0  0  0  0  0  0  0  0
   39.3210   22.8460   34.1120 H   0  0  0  0  0  0  0  0  0  0  0  0
   39.1940   23.9750   32.7250 H   0  0  0  0  0  0  0  0  0  0  0  0
   37.2160   24.2520   30.9430 Cl  0  0  0  0  0  0  0  0  0  0  0  0
   36.7710   22.8840   31.9440 C   0  0  0  0  0  0  0  0  0  0  0  0
   37.4990   22.6850   33.0900 C   0  0  0  0  0  0  0  0  0  0  0  0
   37.0760   21.5720   33.8290 C   0  0  0  0  0  0  0  0  0  0  0  0
   37.6350   21.3770   34.7580 H   0  0  0  0  0  0  0  0  0  0  0  0
   36.0380   20.7210   33.4920 C   0  0  0  0  0  3  0  0  0  0  0  0
   35.3540   20.9880   32.3210 C   0  0  0  0  0  0  0  0  0  0  0  0
   34.0590   19.8660   31.9710 Cl  0  0  0  0  0  0  0  0  0  0  0  0
   35.7230   22.0690   31.5510 C   0  0  0  0  0  0  0  0  0  0  0  0
   35.1530   22.2280   30.6500 H   0  0  0  0  0  0  0  0  0  0  0  0
   38.2150   24.5760   34.5440 C   0  0  0  0  0  0  0  0  0  0  0  0
   38.9840   25.3930   34.3940 H   0  0  0  0  0  0  0  0  0  0  0  0
   37.2020   24.9630   34.3730 H   0  0  0  0  0  0  0  0  0  0  0  0
   37.9180   24.1320   38.1930 C   0  0  0  0  0  0  0  0  0  0  0  0
   38.9790   23.2650   38.4570 C   0  0  0  0  0  0  0  0  0  0  0  0
   39.8070   22.8270   37.3820 C   0  0  0  0  0  0  0  0  0  0  0  0
   39.5030   23.2940   36.1440 N   0  0  0  0  0  0  0  0  0  0  0  0
   38.4620   24.1330   35.9460 C   0  0  0  0  0  0  0  0  0  0  0  0
   37.6800   24.5480   36.9540 N   0  0  0  0  0  0  0  0  0  0  0  0
   37.3680   24.3890   39.0900 H   0  0  0  0  0  0  0  0  0  0  0  0
   39.2830   22.8500   39.4230 H   0  0  0  0  0  0  0  0  0  0  0  0
   40.6480   22.1640   37.4640 H   0  0  0  0  0  0  0  0  0  0  0  0
  1  2  1  0  0  0  0
  1 14  1  0  0  0  0
  3  1  1  0  0  0  0
  4  5  1  0  0  0  0
  5  6  1  0  0  0  0
  6  1  1  0  0  0  0
  6  7  2  0  0  0  0
  7  8  1  0  0  0  0
  9  7  1  0  0  0  0
 10  9  2  0  0  0  0
 11 10  1  0  0  0  0
 12  5  2  0  0  0  0
 12 10  1  0  0  0  0
 13 12  1  0  0  0  0
 14 21  1  0  0  0  0
 15 14  1  0  0  0  0
 16 14  1  0  0  0  0
 17 18  1  0  0  0  0
 17 23  1  0  0  0  0
 18 24  1  0  0  0  0
 19 25  1  0  0  0  0
 19 18  2  0  0  0  0
 20 19  1  0  0  0  0
 21 20  2  0  0  0  0
 21 22  1  0  0  0  0
 22 17  2  0  0  0  0
M  END
>  <minimizedAffinity>
-4.55907249

$$$$

 OpenBabel03272501553D

 25 26  0  0  0  0  0  0  0  0999 V2000
   38.8680   25.0700   34.0100 C   0  0  0  0  0  0  0  0  0  0  0  0
   39.3930   24.7900   33.0740 H   0  0  0  0  0  0  0  0  0  0  0  0
   39.6610   25.3990   34.7390 H   0  0  0  0  0  0  0  0  0  0  0  0
   38.4490   27.3420   36.0250 Cl  0  0  0  0  0  0  0  0  0  0  0  0
   37.6100   27.2140   34.4910 C   0  0  0  0  0  0  0  0  0  0  0  0
   37.9130   26.1340   33.7010 C   0  0  0  0  0  0  0  0  0  0  0  0
   37.1980   26.1100   32.4970 C   0  0  0  0  0  0  0  0  0  0  0  0
   37.4110   25.2580   31.8320 H   0  0  0  0  0  0  0  0  0  0  0  0
   36.2680   27.0500   32.0870 C   0  0  0  0  0  3  0  0  0  0  0  0
   36.0180   28.1090   32.9390 C   0  0  0  0  0  0  0  0  0  0  0  0
   34.8310   29.2470   32.3460 Cl  0  0  0  0  0  0  0  0  0  0  0  0
   36.6900   28.1870   34.1380 C   0  0  0  0  0  0  0  0  0  0  0  0
   36.4550   29.0350   34.7620 H   0  0  0  0  0  0  0  0  0  0  0  0
   38.2350   23.8040   34.5190 C   0  0  0  0  0  0  0  0  0  0  0  0
   37.1220   23.9970   34.4480 H   0  0  0  0  0  0  0  0  0  0  0  0
   38.5120   22.9160   33.9350 H   0  0  0  0  0  0  0  0  0  0  0  0
   37.7970   23.9840   38.1760 C   0  0  0  0  0  0  0  0  0  0  0  0
   38.9390   23.3230   38.6290 C   0  0  0  0  0  0  0  0  0  0  0  0
   39.8720   22.8120   37.6790 C   0  0  0  0  0  0  0  0  0  0  0  0
   39.5810   23.0070   36.3670 N   0  0  0  0  0  0  0  0  0  0  0  0
   38.4580   23.6540   35.9850 C   0  0  0  0  0  0  0  0  0  0  0  0
   37.5770   24.1380   36.8750 N   0  0  0  0  0  0  0  0  0  0  0  0
   37.1710   24.3230   38.9930 H   0  0  0  0  0  0  0  0  0  0  0  0
   39.2390   23.1300   39.6630 H   0  0  0  0  0  0  0  0  0  0  0  0
   40.7820   22.2890   37.9080 H   0  0  0  0  0  0  0  0  0  0  0  0
  1 14  1  0  0  0  0
  1  3  1  0  0  0  0
  2  1  1  0  0  0  0
  5  4  1  0  0  0  0
  6  1  1  0  0  0  0
  6  5  2  0  0  0  0
  7  6  1  0  0  0  0
  8  7  1  0  0  0  0
  9  7  2  0  0  0  0
  9 10  1  0  0  0  0
 10 12  2  0  0  0  0
 11 10  1  0  0  0  0
 12  5  1  0  0  0  0
 12 13  1  0  0  0  0
 14 21  1  0  0  0  0
 15 14  1  0  0  0  0
 16 14  1  0  0  0  0
 17 18  1  0  0  0  0
 17 23  1  0  0  0  0
 18 24  1  0  0  0  0
 19 25  1  0  0  0  0
 19 18  2  0  0  0  0
 20 19  1  0  0  0  0
 21 20  2  0  0  0  0
 21 22  1  0  0  0  0
 22 17  2  0  0  0  0
M  END
>  <minimizedAffinity>
-4.49307346

$$$$

 OpenBabel03272501553D

 25 26  0  0  0  0  0  0  0  0999 V2000
   38.0940   27.5370   35.3650 C   0  0  0  0  0  0  0  0  0  0  0  0
   37.9400   27.9960   36.3620 H   0  0  0  0  0  0  0  0  0  0  0  0
   38.7370   28.2490   34.7760 H   0  0  0  0  0  0  0  0  0  0  0  0
   40.7820   26.9670   34.0040 Cl  0  0  0  0  0  0  0  0  0  0  0  0
   39.9230   25.8200   35.0150 C   0  0  0  0  0  0  0  0  0  0  0  0
   38.7300   26.2330   35.5520 C   0  0  0  0  0  0  0  0  0  0  0  0
   38.1130   25.2560   36.3440 C   0  0  0  0  0  0  0  0  0  0  0  0
   37.1500   25.5460   36.7950 H   0  0  0  0  0  0  0  0  0  0  0  0
   38.6040   23.9870   36.5990 C   0  0  0  0  0  3  0  0  0  0  0  0
   39.8130   23.6490   36.0210 C   0  0  0  0  0  0  0  0  0  0  0  0
   40.3610   22.0300   36.3920 Cl  0  0  0  0  0  0  0  0  0  0  0  0
   40.4690   24.5660   35.2310 C   0  0  0  0  0  0  0  0  0  0  0  0
   41.4070   24.2470   34.8070 H   0  0  0  0  0  0  0  0  0  0  0  0
   36.7320   27.4710   34.7300 C   0  0  0  0  0  0  0  0  0  0  0  0
   36.5640   26.3690   34.5370 H   0  0  0  0  0  0  0  0  0  0  0  0
   35.9370   27.8780   35.3680 H   0  0  0  0  0  0  0  0  0  0  0  0
   37.6720   28.1930   31.2380 C   0  0  0  0  0  0  0  0  0  0  0  0
   36.7260   29.1550   30.8850 C   0  0  0  0  0  0  0  0  0  0  0  0
   35.7570   29.5660   31.8470 C   0  0  0  0  0  0  0  0  0  0  0  0
   35.8210   28.9810   33.0710 N   0  0  0  0  0  0  0  0  0  0  0  0
   36.7600   28.0530   33.3580 C   0  0  0  0  0  0  0  0  0  0  0  0
   37.6750   27.6630   32.4560 N   0  0  0  0  0  0  0  0  0  0  0  0
   38.3490   27.9680   30.4220 H   0  0  0  0  0  0  0  0  0  0  0  0
   36.6140   29.6680   29.9250 H   0  0  0  0  0  0  0  0  0  0  0  0
   34.9840   30.2960   31.6920 H   0  0  0  0  0  0  0  0  0  0  0  0
  1  6  1  0  0  0  0
  1  2  1  0  0  0  0
  3  1  1  0  0  0  0
  4  5  1  0  0  0  0
  5 12  2  0  0  0  0
  5  6  1  0  0  0  0
  6  7  2  0  0  0  0
  7  9  1  0  0  0  0
  7  8  1  0  0  0  0
 10 11  1  0  0  0  0
 10  9  2  0  0  0  0
 12 10  1  0  0  0  0
 13 12  1  0  0  0  0
 14  1  1  0  0  0  0
 14 16  1  0  0  0  0
 15 14  1  0  0  0  0
 17 22  1  0  0  0  0
 18 17  2  0  0  0  0
 18 19  1  0  0  0  0
 19 20  2  0  0  0  0
 20 21  1  0  0  0  0
 21 14  1  0  0  0  0
 22 21  2  0  0  0  0
 23 17  1  0  0  0  0
 24 18  1  0  0  0  0
 25 19  1  0  0  0  0
M  END
>  <minimizedAffinity>
-4.39581251

$$$$

 OpenBabel03272501553D

 25 26  0  0  0  0  0  0  0  0999 V2000
   37.0240   27.1050   34.9200 C   0  0  0  0  0  0  0  0  0  0  0  0
   36.4680   27.8160   35.5640 H   0  0  0  0  0  0  0  0  0  0  0  0
   36.4910   26.1160   34.9950 H   0  0  0  0  0  0  0  0  0  0  0  0
   35.1040   29.3750   34.1700 Cl  0  0  0  0  0  0  0  0  0  0  0  0
   36.2450   28.6400   33.0610 C   0  0  0  0  0  0  0  0  0  0  0  0
   37.0360   27.6330   33.5560 C   0  0  0  0  0  0  0  0  0  0  0  0
   37.9170   27.1030   32.6040 C   0  0  0  0  0  0  0  0  0  0  0  0
   38.5710   26.2910   32.9600 H   0  0  0  0  0  0  0  0  0  0  0  0
   38.0270   27.5090   31.2850 C   0  0  0  0  0  3  0  0  0  0  0  0
   37.1950   28.5290   30.8650 C   0  0  0  0  0  0  0  0  0  0  0  0
   37.3980   28.9790   29.1870 Cl  0  0  0  0  0  0  0  0  0  0  0  0
   36.3070   29.0910   31.7540 C   0  0  0  0  0  0  0  0  0  0  0  0
   35.6840   29.8820   31.3690 H   0  0  0  0  0  0  0  0  0  0  0  0
   38.3880   26.9710   35.5400 C   0  0  0  0  0  0  0  0  0  0  0  0
   39.1050   27.1530   34.6830 H   0  0  0  0  0  0  0  0  0  0  0  0
   38.5670   27.6870   36.3520 H   0  0  0  0  0  0  0  0  0  0  0  0
   38.1650   23.6500   37.1280 C   0  0  0  0  0  0  0  0  0  0  0  0
   39.2250   22.9770   36.5200 C   0  0  0  0  0  0  0  0  0  0  0  0
   40.0280   23.6610   35.5600 C   0  0  0  0  0  0  0  0  0  0  0  0
   39.7000   24.9520   35.2950 N   0  0  0  0  0  0  0  0  0  0  0  0
   38.6620   25.5550   35.9140 C   0  0  0  0  0  0  0  0  0  0  0  0
   37.9030   24.9150   36.8180 N   0  0  0  0  0  0  0  0  0  0  0  0
   37.6350   23.0230   37.8350 H   0  0  0  0  0  0  0  0  0  0  0  0
   39.5470   21.9440   36.6830 H   0  0  0  0  0  0  0  0  0  0  0  0
   40.8660   23.2480   35.0300 H   0  0  0  0  0  0  0  0  0  0  0  0
  1  3  1  0  0  0  0
  1 14  1  0  0  0  0
  1  2  1  0  0  0  0
  5  6  1  0  0  0  0
  5  4  1  0  0  0  0
  6  1  1  0  0  0  0
  7  8  1  0  0  0  0
  7  6  2  0  0  0  0
  9  7  1  0  0  0  0
 10  9  2  0  0  0  0
 10 12  1  0  0  0  0
 11 10  1  0  0  0  0
 12  5  2  0  0  0  0
 13 12  1  0  0  0  0
 14 21  1  0  0  0  0
 14 16  1  0  0  0  0
 15 14  1  0  0  0  0
 17 23  1  0  0  0  0
 18 24  1  0  0  0  0
 18 17  2  0  0  0  0
 19 18  1  0  0  0  0
 20 19  2  0  0  0  0
 20 21  1  0  0  0  0
 21 22  2  0  0  0  0
 22 17  1  0  0  0  0
 25 19  1  0  0  0  0
M  END
>  <minimizedAffinity>
-4.39412498

$$$$

 OpenBabel03272501553D

 25 26  0  0  0  0  0  0  0  0999 V2000
   36.0600   29.3510   33.0410 C   0  0  0  0  0  0  0  0  0  0  0  0
   35.5410   29.4720   32.0690 H   0  0  0  0  0  0  0  0  0  0  0  0
   37.0920   29.7810   32.9130 H   0  0  0  0  0  0  0  0  0  0  0  0
   32.9970   29.2620   32.9310 Cl  0  0  0  0  0  0  0  0  0  0  0  0
   33.9170   30.1070   34.1600 C   0  0  0  0  0  0  0  0  0  0  0  0
   35.2850   30.0480   34.0670 C   0  0  0  0  0  0  0  0  0  0  0  0
   35.9400   30.7500   35.0870 C   0  0  0  0  0  0  0  0  0  0  0  0
   37.0410   30.7290   35.0500 H   0  0  0  0  0  0  0  0  0  0  0  0
   35.3290   31.4510   36.1130 C   0  0  0  0  0  3  0  0  0  0  0  0
   33.9470   31.4620   36.1360 C   0  0  0  0  0  0  0  0  0  0  0  0
   33.2560   32.3690   37.4620 Cl  0  0  0  0  0  0  0  0  0  0  0  0
   33.2460   30.7900   35.1600 C   0  0  0  0  0  0  0  0  0  0  0  0
   32.1710   30.8340   35.2300 H   0  0  0  0  0  0  0  0  0  0  0  0
   36.1770   27.8670   33.2610 C   0  0  0  0  0  0  0  0  0  0  0  0
   35.4250   27.6440   34.0780 H   0  0  0  0  0  0  0  0  0  0  0  0
   35.9570   27.2770   32.3620 H   0  0  0  0  0  0  0  0  0  0  0  0
   38.7840   27.1900   35.7790 C   0  0  0  0  0  0  0  0  0  0  0  0
   39.8820   26.8880   34.9730 C   0  0  0  0  0  0  0  0  0  0  0  0
   39.7350   26.9170   33.5550 C   0  0  0  0  0  0  0  0  0  0  0  0
   38.5090   27.2450   33.0720 N   0  0  0  0  0  0  0  0  0  0  0  0
   37.4800   27.5280   33.9010 C   0  0  0  0  0  0  0  0  0  0  0  0
   37.6130   27.5030   35.2360 N   0  0  0  0  0  0  0  0  0  0  0  0
   39.0250   27.1340   36.8350 H   0  0  0  0  0  0  0  0  0  0  0  0
   40.8940   26.6180   35.2890 H   0  0  0  0  0  0  0  0  0  0  0  0
   40.5050   26.7050   32.8370 H   0  0  0  0  0  0  0  0  0  0  0  0
  1 14  1  0  0  0  0
  1  6  1  0  0  0  0
  2  1  1  0  0  0  0
  3  1  1  0  0  0  0
  4  5  1  0  0  0  0
  5 12  1  0  0  0  0
  6  5  2  0  0  0  0
  6  7  1  0  0  0  0
  7  9  2  0  0  0  0
  8  7  1  0  0  0  0
  9 10  1  0  0  0  0
 10 11  1  0  0  0  0
 12 13  1  0  0  0  0
 12 10  2  0  0  0  0
 14 21  1  0  0  0  0
 14 15  1  0  0  0  0
 16 14  1  0  0  0  0
 17 23  1  0  0  0  0
 18 24  1  0  0  0  0
 18 17  2  0  0  0  0
 19 18  1  0  0  0  0
 20 19  2  0  0  0  0
 20 21  1  0  0  0  0
 21 22  2  0  0  0  0
 22 17  1  0  0  0  0
 25 19  1  0  0  0  0
M  END
>  <minimizedAffinity>
-4.35708761

$$$$

 OpenBabel03272501553D

 25 26  0  0  0  0  0  0  0  0999 V2000
   38.8470   25.0470   34.0320 C   0  0  0  0  0  0  0  0  0  0  0  0
   39.3420   24.7400   33.0890 H   0  0  0  0  0  0  0  0  0  0  0  0
   39.6650   25.3520   34.7430 H   0  0  0  0  0  0  0  0  0  0  0  0
   37.7150   25.3270   31.1960 Cl  0  0  0  0  0  0  0  0  0  0  0  0
   37.3360   26.4090   32.5220 C   0  0  0  0  0  0  0  0  0  0  0  0
   37.9270   26.1440   33.7330 C   0  0  0  0  0  0  0  0  0  0  0  0
   37.5700   27.0560   34.7340 C   0  0  0  0  0  0  0  0  0  0  0  0
   38.0230   26.8800   35.7230 H   0  0  0  0  0  0  0  0  0  0  0  0
   36.7150   28.1340   34.5830 C   0  0  0  0  0  3  0  0  0  0  0  0
   36.1600   28.3330   33.3330 C   0  0  0  0  0  0  0  0  0  0  0  0
   35.0940   29.7150   33.2280 Cl  0  0  0  0  0  0  0  0  0  0  0  0
   36.4730   27.4690   32.3070 C   0  0  0  0  0  0  0  0  0  0  0  0
   36.0110   27.6740   31.3550 H   0  0  0  0  0  0  0  0  0  0  0  0
   38.1770   23.8100   34.5650 C   0  0  0  0  0  0  0  0  0  0  0  0
   37.0710   24.0460   34.5160 H   0  0  0  0  0  0  0  0  0  0  0  0
   38.4060   22.9080   33.9820 H   0  0  0  0  0  0  0  0  0  0  0  0
   37.8120   24.0090   38.2290 C   0  0  0  0  0  0  0  0  0  0  0  0
   38.9520   23.3320   38.6620 C   0  0  0  0  0  0  0  0  0  0  0  0
   39.8590   22.8030   37.6960 C   0  0  0  0  0  0  0  0  0  0  0  0
   39.5450   22.9980   36.3900 N   0  0  0  0  0  0  0  0  0  0  0  0
   38.4250   23.6620   36.0270 C   0  0  0  0  0  0  0  0  0  0  0  0
   37.5690   24.1620   36.9320 N   0  0  0  0  0  0  0  0  0  0  0  0
   37.2070   24.3610   39.0570 H   0  0  0  0  0  0  0  0  0  0  0  0
   39.2690   23.1380   39.6910 H   0  0  0  0  0  0  0  0  0  0  0  0
   40.7650   22.2680   37.9090 H   0  0  0  0  0  0  0  0  0  0  0  0
  1 14  1  0  0  0  0
  1  3  1  0  0  0  0
  2  1  1  0  0  0  0
  4  5  1  0  0  0  0
  5  6  1  0  0  0  0
  6  1  1  0  0  0  0
  6  7  2  0  0  0  0
  7  8  1  0  0  0  0
  9  7  1  0  0  0  0
 10  9  2  0  0  0  0
 11 10  1  0  0  0  0
 12  5  2  0  0  0  0
 12 10  1  0  0  0  0
 13 12  1  0  0  0  0
 14 21  1  0  0  0  0
 15 14  1  0  0  0  0
 16 14  1  0  0  0  0
 17 18  1  0  0  0  0
 17 23  1  0  0  0  0
 18 24  1  0  0  0  0
 19 25  1  0  0  0  0
 19 18  2  0  0  0  0
 20 19  1  0  0  0  0
 21 20  2  0  0  0  0
 21 22  1  0  0  0  0
 22 17  2  0  0  0  0
M  END
>  <minimizedAffinity>
-4.33371115

$$$$

 OpenBabel03272501553D

 25 26  0  0  0  0  0  0  0  0999 V2000
   35.7670   29.5410   33.8840 C   0  0  0  0  0  0  0  0  0  0  0  0
   36.3320   29.6310   34.8330 H   0  0  0  0  0  0  0  0  0  0  0  0
   36.0360   30.4390   33.2600 H   0  0  0  0  0  0  0  0  0  0  0  0
   37.6790   27.6290   35.3310 Cl  0  0  0  0  0  0  0  0  0  0  0  0
   36.9820   27.3220   33.7520 C   0  0  0  0  0  0  0  0  0  0  0  0
   36.1420   28.2810   33.2430 C   0  0  0  0  0  0  0  0  0  0  0  0
   35.6320   27.9540   31.9800 C   0  0  0  0  0  0  0  0  0  0  0  0
   34.9520   28.6980   31.5340 H   0  0  0  0  0  0  0  0  0  0  0  0
   35.9070   26.8010   31.2660 C   0  0  0  0  0  3  0  0  0  0  0  0
   36.7620   25.8850   31.8480 C   0  0  0  0  0  0  0  0  0  0  0  0
   37.0570   24.4580   30.8800 Cl  0  0  0  0  0  0  0  0  0  0  0  0
   37.2970   26.1480   33.0890 C   0  0  0  0  0  0  0  0  0  0  0  0
   37.9570   25.3980   33.4930 H   0  0  0  0  0  0  0  0  0  0  0  0
   34.3140   29.6290   34.2630 C   0  0  0  0  0  0  0  0  0  0  0  0
   33.8250   30.1490   33.3830 H   0  0  0  0  0  0  0  0  0  0  0  0
   33.8510   28.6490   34.4380 H   0  0  0  0  0  0  0  0  0  0  0  0
   34.9130   32.2410   36.7960 C   0  0  0  0  0  0  0  0  0  0  0  0
   33.6600   32.3370   37.4020 C   0  0  0  0  0  0  0  0  0  0  0  0
   32.5980   31.5020   36.9460 C   0  0  0  0  0  0  0  0  0  0  0  0
   32.8830   30.6480   35.9290 N   0  0  0  0  0  0  0  0  0  0  0  0
   34.1160   30.5980   35.3780 C   0  0  0  0  0  0  0  0  0  0  0  0
   35.1190   31.3810   35.8050 N   0  0  0  0  0  0  0  0  0  0  0  0
   35.6310   32.9260   37.2320 H   0  0  0  0  0  0  0  0  0  0  0  0
   33.3580   32.9960   38.2220 H   0  0  0  0  0  0  0  0  0  0  0  0
   31.5970   31.4860   37.3340 H   0  0  0  0  0  0  0  0  0  0  0  0
  1 14  1  0  0  0  0
  1  2  1  0  0  0  0
  3  1  1  0  0  0  0
  5  4  1  0  0  0  0
  6  5  1  0  0  0  0
  6  1  1  0  0  0  0
  7  6  2  0  0  0  0
  8  7  1  0  0  0  0
  9 10  2  0  0  0  0
  9  7  1  0  0  0  0
 10 12  1  0  0  0  0
 11 10  1  0  0  0  0
 12 13  1  0  0  0  0
 12  5  2  0  0  0  0
 14 16  1  0  0  0  0
 14 21  1  0  0  0  0
 15 14  1  0  0  0  0
 17 23  1  0  0  0  0
 17 18  1  0  0  0  0
 18 24  1  0  0  0  0
 19 25  1  0  0  0  0
 19 18  2  0  0  0  0
 20 19  1  0  0  0  0
 21 22  1  0  0  0  0
 21 20  2  0  0  0  0
 22 17  2  0  0  0  0
M  END
>  <minimizedAffinity>
-4.29077625

$$$$
