
 OpenBabel03272500283D

 35 37  0  0  0  0  0  0  0  0999 V2000
   36.8500   27.4100   32.8250 C   0  0  0  0  0  0  0  0  0  0  0  0
   37.0240   27.8870   31.5620 C   0  0  0  0  0  0  0  0  0  0  0  0
   36.6180   29.1780   31.1790 C   0  0  0  0  0  0  0  0  0  0  0  0
   36.0330   29.9040   32.1940 N   0  0  0  0  0  0  0  0  0  0  0  0
   35.8660   29.4240   33.4360 C   0  0  0  0  0  0  0  0  0  0  0  0
   36.2800   28.1650   33.7460 N   0  0  0  0  0  0  0  0  0  0  0  0
   37.4780   27.3490   30.7370 H   0  0  0  0  0  0  0  0  0  0  0  0
   36.7460   29.5710   30.1960 H   0  0  0  0  0  0  0  0  0  0  0  0
   32.9330   29.3060   33.4540 Cl  0  0  0  0  0  0  0  0  0  0  0  0
   33.8630   30.2540   34.5740 C   0  0  0  0  0  0  0  0  0  0  0  0
   35.2390   30.2370   34.4750 C   0  0  0  0  0  0  0  0  0  0  0  0
   35.9960   30.9830   35.3550 C   0  0  0  0  0  0  0  0  0  0  0  0
   37.0710   30.9460   35.2480 H   0  0  0  0  0  0  0  0  0  0  0  0
   35.3790   31.7570   36.3440 C   0  0  0  0  0  3  0  0  0  0  0  0
   34.0070   31.7340   36.3920 C   0  0  0  0  0  0  0  0  0  0  0  0
   33.1530   32.6760   37.6040 Cl  0  0  0  0  0  0  0  0  0  0  0  0
   33.2280   31.0070   35.5380 C   0  0  0  0  0  0  0  0  0  0  0  0
   32.1450   30.9720   35.5570 H   0  0  0  0  0  0  0  0  0  0  0  0
   37.2800   26.0870   33.1680 C   0  0  0  0  0  0  0  0  0  0  0  0
   37.3370   25.4920   32.2100 H   0  0  0  0  0  0  0  0  0  0  0  0
   36.4640   25.5480   33.7300 H   0  0  0  0  0  0  0  0  0  0  0  0
   38.5100   25.8770   33.9370 C   0  0  0  0  0  0  0  0  0  0  0  0
   38.9780   26.8120   34.3100 H   0  0  0  0  0  0  0  0  0  0  0  0
   39.3250   25.4190   33.3010 H   0  0  0  0  0  0  0  0  0  0  0  0
   38.3860   24.9590   35.0920 C   0  0  0  0  0  0  0  0  0  0  0  0
   38.2170   23.5860   34.8870 C   0  0  0  0  0  0  0  0  0  0  0  0
   38.1300   22.9830   36.1130 C   0  0  0  0  0  0  0  0  0  0  0  0
   38.2420   23.9570   37.0260 N   0  0  0  0  0  0  0  0  0  0  0  0
   38.3890   25.0920   36.3970 N   0  0  0  0  0  0  0  0  0  0  0  0
   38.1540   23.0000   33.9670 H   0  0  0  0  0  0  0  0  0  0  0  0
   37.9960   21.9170   36.3530 H   0  0  0  0  0  0  0  0  0  0  0  0
   38.2110   23.8220   38.4810 C   0  0  0  0  0  0  0  0  0  0  0  0
   37.3040   22.8540   38.8540 F   0  0  0  0  0  0  0  0  0  0  0  0
   37.8850   25.0030   39.1080 F   0  0  0  0  0  0  0  0  0  0  0  0
   39.4430   23.3980   38.9610 F   0  0  0  0  0  0  0  0  0  0  0  0
  1 19  1  0  0  0  0
  1  6  1  0  0  0  0
  2  1  2  0  0  0  0
  3  2  1  0  0  0  0
  3  4  2  0  0  0  0
  4  5  1  0  0  0  0
  5  6  2  0  0  0  0
  5 11  1  0  0  0  0
  7  2  1  0  0  0  0
  8  3  1  0  0  0  0
  9 10  1  0  0  0  0
 10 17  1  0  0  0  0
 11 10  2  0  0  0  0
 11 12  1  0  0  0  0
 12 14  2  0  0  0  0
 13 12  1  0  0  0  0
 14 15  1  0  0  0  0
 15 16  1  0  0  0  0
 17 18  1  0  0  0  0
 17 15  2  0  0  0  0
 19 21  1  0  0  0  0
 19 22  1  0  0  0  0
 20 19  1  0  0  0  0
 22 23  1  0  0  0  0
 22 25  1  0  0  0  0
 24 22  1  0  0  0  0
 25 29  2  0  0  0  0
 26 25  1  0  0  0  0
 26 27  2  0  0  0  0
 27 31  1  0  0  0  0
 27 28  1  0  0  0  0
 28 32  1  0  0  0  0
 29 28  1  0  0  0  0
 30 26  1  0  0  0  0
 32 33  1  0  0  0  0
 32 35  1  0  0  0  0
 32 34  1  0  0  0  0
M  END
>  <minimizedAffinity>
-6.47205639

$$$$

 OpenBabel03272500283D

 35 37  0  0  0  0  0  0  0  0999 V2000
   36.9680   27.9890   32.6220 C   0  0  0  0  0  0  0  0  0  0  0  0
   37.1380   28.5490   31.3940 C   0  0  0  0  0  0  0  0  0  0  0  0
   36.2660   29.5270   30.8820 C   0  0  0  0  0  0  0  0  0  0  0  0
   35.2350   29.8580   31.7340 N   0  0  0  0  0  0  0  0  0  0  0  0
   35.0760   29.2990   32.9440 C   0  0  0  0  0  0  0  0  0  0  0  0
   35.9540   28.3570   33.3850 N   0  0  0  0  0  0  0  0  0  0  0  0
   37.9330   28.3170   30.6940 H   0  0  0  0  0  0  0  0  0  0  0  0
   36.3810   29.9790   29.9230 H   0  0  0  0  0  0  0  0  0  0  0  0
   35.8630   30.9050   35.2720 Cl  0  0  0  0  0  0  0  0  0  0  0  0
   34.2230   30.4440   34.9330 C   0  0  0  0  0  0  0  0  0  0  0  0
   33.9650   29.6860   33.8090 C   0  0  0  0  0  0  0  0  0  0  0  0
   32.6690   29.3100   33.5220 C   0  0  0  0  0  0  0  0  0  0  0  0
   32.5050   28.7160   32.6340 H   0  0  0  0  0  0  0  0  0  0  0  0
   31.6160   29.6890   34.3620 C   0  0  0  0  0  3  0  0  0  0  0  0
   31.9360   30.4420   35.4650 C   0  0  0  0  0  0  0  0  0  0  0  0
   30.6730   30.9600   36.5710 Cl  0  0  0  0  0  0  0  0  0  0  0  0
   33.2060   30.8320   35.7780 C   0  0  0  0  0  0  0  0  0  0  0  0
   33.4820   31.4260   36.6410 H   0  0  0  0  0  0  0  0  0  0  0  0
   37.8830   26.9960   33.1010 C   0  0  0  0  0  0  0  0  0  0  0  0
   38.7020   26.8920   32.3300 H   0  0  0  0  0  0  0  0  0  0  0  0
   37.4010   25.9780   33.0710 H   0  0  0  0  0  0  0  0  0  0  0  0
   38.4910   27.1180   34.4300 C   0  0  0  0  0  0  0  0  0  0  0  0
   38.1200   27.9810   35.0220 H   0  0  0  0  0  0  0  0  0  0  0  0
   39.6020   27.3130   34.3630 H   0  0  0  0  0  0  0  0  0  0  0  0
   38.3790   25.9180   35.2890 C   0  0  0  0  0  0  0  0  0  0  0  0
   38.2640   24.6470   34.7160 C   0  0  0  0  0  0  0  0  0  0  0  0
   38.1770   23.7320   35.7290 C   0  0  0  0  0  0  0  0  0  0  0  0
   38.2370   24.4240   36.8750 N   0  0  0  0  0  0  0  0  0  0  0  0
   38.3540   25.6910   36.5820 N   0  0  0  0  0  0  0  0  0  0  0  0
   38.2390   24.3320   33.6700 H   0  0  0  0  0  0  0  0  0  0  0  0
   38.0780   22.6370   35.6680 H   0  0  0  0  0  0  0  0  0  0  0  0
   38.1850   23.8980   38.2380 C   0  0  0  0  0  0  0  0  0  0  0  0
   37.8310   24.8930   39.1230 F   0  0  0  0  0  0  0  0  0  0  0  0
   39.3870   23.3570   38.6350 F   0  0  0  0  0  0  0  0  0  0  0  0
   37.2070   22.9200   38.3490 F   0  0  0  0  0  0  0  0  0  0  0  0
  1 19  1  0  0  0  0
  1  6  1  0  0  0  0
  2  1  2  0  0  0  0
  3  2  1  0  0  0  0
  3  4  2  0  0  0  0
  4  5  1  0  0  0  0
  5  6  2  0  0  0  0
  5 11  1  0  0  0  0
  7  2  1  0  0  0  0
  8  3  1  0  0  0  0
 10  9  1  0  0  0  0
 10 17  1  0  0  0  0
 11 10  2  0  0  0  0
 12 11  1  0  0  0  0
 12 14  2  0  0  0  0
 13 12  1  0  0  0  0
 14 15  1  0  0  0  0
 15 17  2  0  0  0  0
 15 16  1  0  0  0  0
 17 18  1  0  0  0  0
 19 22  1  0  0  0  0
 20 19  1  0  0  0  0
 21 19  1  0  0  0  0
 22 23  1  0  0  0  0
 22 25  1  0  0  0  0
 24 22  1  0  0  0  0
 25 29  2  0  0  0  0
 26 25  1  0  0  0  0
 26 27  2  0  0  0  0
 27 28  1  0  0  0  0
 28 32  1  0  0  0  0
 29 28  1  0  0  0  0
 30 26  1  0  0  0  0
 31 27  1  0  0  0  0
 32 35  1  0  0  0  0
 32 34  1  0  0  0  0
 32 33  1  0  0  0  0
M  END
>  <minimizedAffinity>
-6.13444185

$$$$

 OpenBabel03272500283D

 35 37  0  0  0  0  0  0  0  0999 V2000
   37.5090   25.7820   33.1980 C   0  0  0  0  0  0  0  0  0  0  0  0
   37.1420   26.9110   33.8620 C   0  0  0  0  0  0  0  0  0  0  0  0
   37.5790   27.1960   35.1680 C   0  0  0  0  0  0  0  0  0  0  0  0
   38.4060   26.2320   35.7030 N   0  0  0  0  0  0  0  0  0  0  0  0
   38.7620   25.1210   35.0400 C   0  0  0  0  0  0  0  0  0  0  0  0
   38.3050   24.9010   33.7760 N   0  0  0  0  0  0  0  0  0  0  0  0
   36.4950   27.6920   33.4780 H   0  0  0  0  0  0  0  0  0  0  0  0
   37.3050   28.0760   35.7060 H   0  0  0  0  0  0  0  0  0  0  0  0
   37.4340   23.3800   36.9940 Cl  0  0  0  0  0  0  0  0  0  0  0  0
   39.1190   23.2590   36.5880 C   0  0  0  0  0  0  0  0  0  0  0  0
   39.6410   24.1300   35.6540 C   0  0  0  0  0  0  0  0  0  0  0  0
   40.9770   24.0500   35.3190 C   0  0  0  0  0  0  0  0  0  0  0  0
   41.3510   24.7490   34.5840 H   0  0  0  0  0  0  0  0  0  0  0  0
   41.8050   23.0950   35.9180 C   0  0  0  0  0  3  0  0  0  0  0  0
   41.2280   22.2570   36.8400 C   0  0  0  0  0  0  0  0  0  0  0  0
   42.1970   21.0290   37.6390 Cl  0  0  0  0  0  0  0  0  0  0  0  0
   39.9110   22.3080   37.1950 C   0  0  0  0  0  0  0  0  0  0  0  0
   39.4330   21.6580   37.9180 H   0  0  0  0  0  0  0  0  0  0  0  0
   37.0370   25.5340   31.8680 C   0  0  0  0  0  0  0  0  0  0  0  0
   37.8740   25.0290   31.3020 H   0  0  0  0  0  0  0  0  0  0  0  0
   36.9280   26.5070   31.3080 H   0  0  0  0  0  0  0  0  0  0  0  0
   35.7920   24.7940   31.6420 C   0  0  0  0  0  0  0  0  0  0  0  0
   35.2500   25.0860   30.7180 H   0  0  0  0  0  0  0  0  0  0  0  0
   35.0350   24.9940   32.4570 H   0  0  0  0  0  0  0  0  0  0  0  0
   35.9280   23.3200   31.6210 C   0  0  0  0  0  0  0  0  0  0  0  0
   37.0730   22.7240   31.0820 C   0  0  0  0  0  0  0  0  0  0  0  0
   36.9360   21.3670   31.1900 C   0  0  0  0  0  0  0  0  0  0  0  0
   35.7490   21.1500   31.7740 N   0  0  0  0  0  0  0  0  0  0  0  0
   35.1910   22.3060   32.0100 N   0  0  0  0  0  0  0  0  0  0  0  0
   37.9670   23.1640   30.6340 H   0  0  0  0  0  0  0  0  0  0  0  0
   37.6300   20.5730   30.8770 H   0  0  0  0  0  0  0  0  0  0  0  0
   35.1440   19.8610   32.1080 C   0  0  0  0  0  0  0  0  0  0  0  0
   33.7800   19.9090   31.9180 F   0  0  0  0  0  0  0  0  0  0  0  0
   35.3990   19.4860   33.4070 F   0  0  0  0  0  0  0  0  0  0  0  0
   35.6140   18.8640   31.2650 F   0  0  0  0  0  0  0  0  0  0  0  0
  1  6  2  0  0  0  0
  1  2  1  0  0  0  0
  2  3  2  0  0  0  0
  3  4  1  0  0  0  0
  3  8  1  0  0  0  0
  5 11  1  0  0  0  0
  5  4  2  0  0  0  0
  6  5  1  0  0  0  0
  7  2  1  0  0  0  0
 10  9  1  0  0  0  0
 10 17  1  0  0  0  0
 11 10  2  0  0  0  0
 12 11  1  0  0  0  0
 12 14  2  0  0  0  0
 13 12  1  0  0  0  0
 14 15  1  0  0  0  0
 15 17  2  0  0  0  0
 15 16  1  0  0  0  0
 17 18  1  0  0  0  0
 19  1  1  0  0  0  0
 20 19  1  0  0  0  0
 21 19  1  0  0  0  0
 22 19  1  0  0  0  0
 22 24  1  0  0  0  0
 23 22  1  0  0  0  0
 25 22  1  0  0  0  0
 25 29  2  0  0  0  0
 26 27  2  0  0  0  0
 26 25  1  0  0  0  0
 27 28  1  0  0  0  0
 28 29  1  0  0  0  0
 28 32  1  0  0  0  0
 30 26  1  0  0  0  0
 31 27  1  0  0  0  0
 32 34  1  0  0  0  0
 33 32  1  0  0  0  0
 35 32  1  0  0  0  0
M  END
>  <minimizedAffinity>
-6.04370689

$$$$

 OpenBabel03272500283D

 35 37  0  0  0  0  0  0  0  0999 V2000
   36.8240   27.3400   33.3680 C   0  0  0  0  0  0  0  0  0  0  0  0
   36.6920   28.2560   32.3700 C   0  0  0  0  0  0  0  0  0  0  0  0
   36.5570   27.8870   31.0190 C   0  0  0  0  0  0  0  0  0  0  0  0
   36.5720   26.5250   30.8080 N   0  0  0  0  0  0  0  0  0  0  0  0
   36.7030   25.6300   31.8000 C   0  0  0  0  0  0  0  0  0  0  0  0
   36.8300   26.0500   33.0880 N   0  0  0  0  0  0  0  0  0  0  0  0
   36.6760   29.3330   32.4940 H   0  0  0  0  0  0  0  0  0  0  0  0
   36.4510   28.5880   30.2220 H   0  0  0  0  0  0  0  0  0  0  0  0
   39.3720   24.5210   31.2870 Cl  0  0  0  0  0  0  0  0  0  0  0  0
   37.9170   23.5730   31.2650 C   0  0  0  0  0  0  0  0  0  0  0  0
   36.7130   24.1970   31.5200 C   0  0  0  0  0  0  0  0  0  0  0  0
   35.5460   23.4610   31.5070 C   0  0  0  0  0  0  0  0  0  0  0  0
   34.6220   23.9840   31.7100 H   0  0  0  0  0  0  0  0  0  0  0  0
   35.5740   22.0890   31.2350 C   0  0  0  0  0  3  0  0  0  0  0  0
   36.8010   21.5250   30.9890 C   0  0  0  0  0  0  0  0  0  0  0  0
   36.9250   19.8070   30.6410 Cl  0  0  0  0  0  0  0  0  0  0  0  0
   37.9750   22.2230   30.9950 C   0  0  0  0  0  0  0  0  0  0  0  0
   38.9540   21.7990   30.8040 H   0  0  0  0  0  0  0  0  0  0  0  0
   36.9590   27.7640   34.7310 C   0  0  0  0  0  0  0  0  0  0  0  0
   36.1620   27.2320   35.3290 H   0  0  0  0  0  0  0  0  0  0  0  0
   36.6500   28.8430   34.8330 H   0  0  0  0  0  0  0  0  0  0  0  0
   38.2430   27.6410   35.4280 C   0  0  0  0  0  0  0  0  0  0  0  0
   38.2870   28.1820   36.3970 H   0  0  0  0  0  0  0  0  0  0  0  0
   39.0840   28.1080   34.8350 H   0  0  0  0  0  0  0  0  0  0  0  0
   38.6950   26.2540   35.6800 C   0  0  0  0  0  0  0  0  0  0  0  0
   39.7990   25.7360   34.9950 C   0  0  0  0  0  0  0  0  0  0  0  0
   39.9930   24.4490   35.4160 C   0  0  0  0  0  0  0  0  0  0  0  0
   39.0390   24.1970   36.3240 N   0  0  0  0  0  0  0  0  0  0  0  0
   38.3040   25.2680   36.4520 N   0  0  0  0  0  0  0  0  0  0  0  0
   40.4540   26.1870   34.2460 H   0  0  0  0  0  0  0  0  0  0  0  0
   40.7620   23.7250   35.1050 H   0  0  0  0  0  0  0  0  0  0  0  0
   38.8210   22.9570   37.0670 C   0  0  0  0  0  0  0  0  0  0  0  0
   37.4720   22.7250   37.2270 F   0  0  0  0  0  0  0  0  0  0  0  0
   39.4190   22.9790   38.3060 F   0  0  0  0  0  0  0  0  0  0  0  0
   39.3170   21.8690   36.3620 F   0  0  0  0  0  0  0  0  0  0  0  0
  1 19  1  0  0  0  0
  2  7  1  0  0  0  0
  2  1  2  0  0  0  0
  3  2  1  0  0  0  0
  4  3  2  0  0  0  0
  4  5  1  0  0  0  0
  5  6  2  0  0  0  0
  6  1  1  0  0  0  0
  8  3  1  0  0  0  0
 10  9  1  0  0  0  0
 10 11  1  0  0  0  0
 11  5  1  0  0  0  0
 12 11  2  0  0  0  0
 12 13  1  0  0  0  0
 14 12  1  0  0  0  0
 15 17  1  0  0  0  0
 15 14  2  0  0  0  0
 16 15  1  0  0  0  0
 17 10  2  0  0  0  0
 18 17  1  0  0  0  0
 19 21  1  0  0  0  0
 19 20  1  0  0  0  0
 19 22  1  0  0  0  0
 22 25  1  0  0  0  0
 22 23  1  0  0  0  0
 24 22  1  0  0  0  0
 25 29  2  0  0  0  0
 26 27  2  0  0  0  0
 26 25  1  0  0  0  0
 27 28  1  0  0  0  0
 28 29  1  0  0  0  0
 28 32  1  0  0  0  0
 30 26  1  0  0  0  0
 31 27  1  0  0  0  0
 32 33  1  0  0  0  0
 32 34  1  0  0  0  0
 35 32  1  0  0  0  0
M  END
>  <minimizedAffinity>
-5.9375782

$$$$

 OpenBabel03272500283D

 35 37  0  0  0  0  0  0  0  0999 V2000
   37.6510   25.5810   32.1710 C   0  0  0  0  0  0  0  0  0  0  0  0
   36.7170   24.9290   31.4260 C   0  0  0  0  0  0  0  0  0  0  0  0
   35.4950   25.5200   31.0610 C   0  0  0  0  0  0  0  0  0  0  0  0
   35.3360   26.8080   31.5240 N   0  0  0  0  0  0  0  0  0  0  0  0
   36.2630   27.4420   32.2590 C   0  0  0  0  0  0  0  0  0  0  0  0
   37.4280   26.8160   32.5810 N   0  0  0  0  0  0  0  0  0  0  0  0
   36.8030   23.9180   31.0430 H   0  0  0  0  0  0  0  0  0  0  0  0
   34.7500   25.0270   30.4770 H   0  0  0  0  0  0  0  0  0  0  0  0
   36.6490   29.4960   30.1980 Cl  0  0  0  0  0  0  0  0  0  0  0  0
   36.1990   29.8530   31.8380 C   0  0  0  0  0  0  0  0  0  0  0  0
   36.0440   28.8090   32.7260 C   0  0  0  0  0  0  0  0  0  0  0  0
   35.6870   29.0710   34.0320 C   0  0  0  0  0  0  0  0  0  0  0  0
   35.5760   28.2280   34.7000 H   0  0  0  0  0  0  0  0  0  0  0  0
   35.4820   30.3860   34.4630 C   0  0  0  0  0  3  0  0  0  0  0  0
   35.6510   31.3820   33.5330 C   0  0  0  0  0  0  0  0  0  0  0  0
   35.4120   33.0610   33.9910 Cl  0  0  0  0  0  0  0  0  0  0  0  0
   36.0030   31.1580   32.2330 C   0  0  0  0  0  0  0  0  0  0  0  0
   36.1410   31.9270   31.4820 H   0  0  0  0  0  0  0  0  0  0  0  0
   38.8830   24.9360   32.5190 C   0  0  0  0  0  0  0  0  0  0  0  0
   39.6010   25.0970   31.6620 H   0  0  0  0  0  0  0  0  0  0  0  0
   38.7520   23.8170   32.5090 H   0  0  0  0  0  0  0  0  0  0  0  0
   39.5620   25.2550   33.7790 C   0  0  0  0  0  0  0  0  0  0  0  0
   39.5380   26.3310   34.0490 H   0  0  0  0  0  0  0  0  0  0  0  0
   40.6680   25.0300   33.7240 H   0  0  0  0  0  0  0  0  0  0  0  0
   39.0910   24.4960   34.9600 C   0  0  0  0  0  0  0  0  0  0  0  0
   38.6370   23.1810   34.8190 C   0  0  0  0  0  0  0  0  0  0  0  0
   38.2660   22.7270   36.0560 C   0  0  0  0  0  0  0  0  0  0  0  0
   38.4890   23.7310   36.9140 N   0  0  0  0  0  0  0  0  0  0  0  0
   38.9690   24.7440   36.2430 N   0  0  0  0  0  0  0  0  0  0  0  0
   38.5510   22.5430   33.9370 H   0  0  0  0  0  0  0  0  0  0  0  0
   37.8620   21.7430   36.3400 H   0  0  0  0  0  0  0  0  0  0  0  0
   38.2530   23.7400   38.3570 C   0  0  0  0  0  0  0  0  0  0  0  0
   39.4170   23.4440   39.0340 F   0  0  0  0  0  0  0  0  0  0  0  0
   37.2800   22.8420   38.7320 F   0  0  0  0  0  0  0  0  0  0  0  0
   37.8710   25.0040   38.7850 F   0  0  0  0  0  0  0  0  0  0  0  0
  1 19  1  0  0  0  0
  1  6  1  0  0  0  0
  2  1  2  0  0  0  0
  3  2  1  0  0  0  0
  3  4  2  0  0  0  0
  4  5  1  0  0  0  0
  5  6  2  0  0  0  0
  5 11  1  0  0  0  0
  7  2  1  0  0  0  0
  8  3  1  0  0  0  0
  9 10  1  0  0  0  0
 10 17  2  0  0  0  0
 10 11  1  0  0  0  0
 11 12  2  0  0  0  0
 12 14  1  0  0  0  0
 12 13  1  0  0  0  0
 15 16  1  0  0  0  0
 15 14  2  0  0  0  0
 17 15  1  0  0  0  0
 18 17  1  0  0  0  0
 19 22  1  0  0  0  0
 20 19  1  0  0  0  0
 21 19  1  0  0  0  0
 22 23  1  0  0  0  0
 22 25  1  0  0  0  0
 24 22  1  0  0  0  0
 25 29  2  0  0  0  0
 26 25  1  0  0  0  0
 26 27  2  0  0  0  0
 27 31  1  0  0  0  0
 27 28  1  0  0  0  0
 28 32  1  0  0  0  0
 29 28  1  0  0  0  0
 30 26  1  0  0  0  0
 32 34  1  0  0  0  0
 32 35  1  0  0  0  0
 32 33  1  0  0  0  0
M  END
>  <minimizedAffinity>
-5.89261436

$$$$

 OpenBabel03272500283D

 35 37  0  0  0  0  0  0  0  0999 V2000
   37.4880   24.6800   31.8890 C   0  0  0  0  0  0  0  0  0  0  0  0
   36.3110   24.0350   31.6620 C   0  0  0  0  0  0  0  0  0  0  0  0
   35.1780   24.6890   31.1460 C   0  0  0  0  0  0  0  0  0  0  0  0
   35.3730   26.0300   30.8940 N   0  0  0  0  0  0  0  0  0  0  0  0
   36.5380   26.6570   31.1210 C   0  0  0  0  0  0  0  0  0  0  0  0
   37.6000   25.9690   31.6240 N   0  0  0  0  0  0  0  0  0  0  0  0
   36.1180   22.9840   31.8460 H   0  0  0  0  0  0  0  0  0  0  0  0
   34.2470   24.2020   30.9600 H   0  0  0  0  0  0  0  0  0  0  0  0
   35.8510   28.4140   33.3700 Cl  0  0  0  0  0  0  0  0  0  0  0  0
   36.3940   28.9970   31.8260 C   0  0  0  0  0  0  0  0  0  0  0  0
   36.6900   28.0810   30.8370 C   0  0  0  0  0  0  0  0  0  0  0  0
   37.1230   28.5240   29.6040 C   0  0  0  0  0  0  0  0  0  0  0  0
   37.3440   27.7780   28.8540 H   0  0  0  0  0  0  0  0  0  0  0  0
   37.2620   29.8920   29.3480 C   0  0  0  0  0  3  0  0  0  0  0  0
   36.9520   30.7550   30.3720 C   0  0  0  0  0  0  0  0  0  0  0  0
   37.1000   32.4890   30.1350 Cl  0  0  0  0  0  0  0  0  0  0  0  0
   36.5220   30.3510   31.6030 C   0  0  0  0  0  0  0  0  0  0  0  0
   36.2720   31.0120   32.4250 H   0  0  0  0  0  0  0  0  0  0  0  0
   38.6160   23.9720   32.4170 C   0  0  0  0  0  0  0  0  0  0  0  0
   39.2010   23.5680   31.5400 H   0  0  0  0  0  0  0  0  0  0  0  0
   38.2750   23.0260   32.9280 H   0  0  0  0  0  0  0  0  0  0  0  0
   39.5400   24.6260   33.3490 C   0  0  0  0  0  0  0  0  0  0  0  0
   39.8800   25.6310   33.0210 H   0  0  0  0  0  0  0  0  0  0  0  0
   40.5060   24.0490   33.4500 H   0  0  0  0  0  0  0  0  0  0  0  0
   39.0460   24.7640   34.7370 C   0  0  0  0  0  0  0  0  0  0  0  0
   38.5280   25.9840   35.1850 C   0  0  0  0  0  0  0  0  0  0  0  0
   38.1500   25.8300   36.4910 C   0  0  0  0  0  0  0  0  0  0  0  0
   38.4290   24.5620   36.8220 N   0  0  0  0  0  0  0  0  0  0  0  0
   38.9480   23.9720   35.7790 N   0  0  0  0  0  0  0  0  0  0  0  0
   38.4030   26.9410   34.6730 H   0  0  0  0  0  0  0  0  0  0  0  0
   37.7030   26.5670   37.1750 H   0  0  0  0  0  0  0  0  0  0  0  0
   38.2080   23.9070   38.1110 C   0  0  0  0  0  0  0  0  0  0  0  0
   39.3820   23.3540   38.5740 F   0  0  0  0  0  0  0  0  0  0  0  0
   37.2500   22.9230   38.0380 F   0  0  0  0  0  0  0  0  0  0  0  0
   37.8150   24.8310   39.0690 F   0  0  0  0  0  0  0  0  0  0  0  0
  1 19  1  0  0  0  0
  2  7  1  0  0  0  0
  2  1  1  0  0  0  0
  3  2  2  0  0  0  0
  4  5  2  0  0  0  0
  4  3  1  0  0  0  0
  5  6  1  0  0  0  0
  6  1  2  0  0  0  0
  8  3  1  0  0  0  0
 10  9  1  0  0  0  0
 11  5  1  0  0  0  0
 11 10  2  0  0  0  0
 12 11  1  0  0  0  0
 13 12  1  0  0  0  0
 14 12  2  0  0  0  0
 14 15  1  0  0  0  0
 15 17  2  0  0  0  0
 16 15  1  0  0  0  0
 17 10  1  0  0  0  0
 17 18  1  0  0  0  0
 19 21  1  0  0  0  0
 19 22  1  0  0  0  0
 20 19  1  0  0  0  0
 22 24  1  0  0  0  0
 22 25  1  0  0  0  0
 23 22  1  0  0  0  0
 25 26  1  0  0  0  0
 25 29  2  0  0  0  0
 26 27  2  0  0  0  0
 27 28  1  0  0  0  0
 27 31  1  0  0  0  0
 28 32  1  0  0  0  0
 29 28  1  0  0  0  0
 30 26  1  0  0  0  0
 32 33  1  0  0  0  0
 32 35  1  0  0  0  0
 34 32  1  0  0  0  0
M  END
>  <minimizedAffinity>
-5.81814861

$$$$

 OpenBabel03272500283D

 35 37  0  0  0  0  0  0  0  0999 V2000
   37.7920   23.9340   32.5330 C   0  0  0  0  0  0  0  0  0  0  0  0
   38.9980   24.0870   31.9230 C   0  0  0  0  0  0  0  0  0  0  0  0
   39.5190   25.3470   31.5820 C   0  0  0  0  0  0  0  0  0  0  0  0
   38.6990   26.4020   31.9220 N   0  0  0  0  0  0  0  0  0  0  0  0
   37.5100   26.2410   32.5240 C   0  0  0  0  0  0  0  0  0  0  0  0
   37.0590   24.9930   32.8280 N   0  0  0  0  0  0  0  0  0  0  0  0
   39.6720   23.2850   31.6390 H   0  0  0  0  0  0  0  0  0  0  0  0
   40.4630   25.4890   31.1040 H   0  0  0  0  0  0  0  0  0  0  0  0
   37.8330   27.1900   35.2830 Cl  0  0  0  0  0  0  0  0  0  0  0  0
   36.7530   27.9220   34.1350 C   0  0  0  0  0  0  0  0  0  0  0  0
   36.6800   27.3940   32.8620 C   0  0  0  0  0  0  0  0  0  0  0  0
   35.8280   27.9600   31.9360 C   0  0  0  0  0  0  0  0  0  0  0  0
   35.7970   27.5190   30.9490 H   0  0  0  0  0  0  0  0  0  0  0  0
   35.0390   29.0630   32.2770 C   0  0  0  0  0  3  0  0  0  0  0  0
   35.1550   29.5430   33.5590 C   0  0  0  0  0  0  0  0  0  0  0  0
   34.2000   30.9270   34.0690 Cl  0  0  0  0  0  0  0  0  0  0  0  0
   35.9870   29.0080   34.4990 C   0  0  0  0  0  0  0  0  0  0  0  0
   36.0960   29.3700   35.5150 H   0  0  0  0  0  0  0  0  0  0  0  0
   37.3010   22.6280   32.8610 C   0  0  0  0  0  0  0  0  0  0  0  0
   37.0260   22.1190   31.8910 H   0  0  0  0  0  0  0  0  0  0  0  0
   36.3020   22.7070   33.3770 H   0  0  0  0  0  0  0  0  0  0  0  0
   38.1060   21.7100   33.6730 C   0  0  0  0  0  0  0  0  0  0  0  0
   39.0120   21.3250   33.1600 H   0  0  0  0  0  0  0  0  0  0  0  0
   37.5350   20.7680   33.9240 H   0  0  0  0  0  0  0  0  0  0  0  0
   38.5390   22.2400   34.9850 C   0  0  0  0  0  0  0  0  0  0  0  0
   39.9000   22.3450   35.2900 C   0  0  0  0  0  0  0  0  0  0  0  0
   40.0120   22.8590   36.5540 C   0  0  0  0  0  0  0  0  0  0  0  0
   38.7630   23.0580   36.9970 N   0  0  0  0  0  0  0  0  0  0  0  0
   37.9330   22.6870   36.0600 N   0  0  0  0  0  0  0  0  0  0  0  0
   40.7870   22.0940   34.7050 H   0  0  0  0  0  0  0  0  0  0  0  0
   40.9210   23.0840   37.1330 H   0  0  0  0  0  0  0  0  0  0  0  0
   38.3520   23.5940   38.2940 C   0  0  0  0  0  0  0  0  0  0  0  0
   37.9010   24.8890   38.1560 F   0  0  0  0  0  0  0  0  0  0  0  0
   39.3750   23.5740   39.2140 F   0  0  0  0  0  0  0  0  0  0  0  0
   37.2860   22.8690   38.8090 F   0  0  0  0  0  0  0  0  0  0  0  0
  1  6  1  0  0  0  0
  1 19  1  0  0  0  0
  2  1  2  0  0  0  0
  3  4  2  0  0  0  0
  3  2  1  0  0  0  0
  4  5  1  0  0  0  0
  5  6  2  0  0  0  0
  5 11  1  0  0  0  0
  7  2  1  0  0  0  0
  8  3  1  0  0  0  0
 10 17  1  0  0  0  0
 10  9  1  0  0  0  0
 11 10  2  0  0  0  0
 12 14  2  0  0  0  0
 12 11  1  0  0  0  0
 13 12  1  0  0  0  0
 14 15  1  0  0  0  0
 15 16  1  0  0  0  0
 15 17  2  0  0  0  0
 17 18  1  0  0  0  0
 19 21  1  0  0  0  0
 19 22  1  0  0  0  0
 20 19  1  0  0  0  0
 22 24  1  0  0  0  0
 22 25  1  0  0  0  0
 23 22  1  0  0  0  0
 25 26  1  0  0  0  0
 25 29  2  0  0  0  0
 26 27  2  0  0  0  0
 27 28  1  0  0  0  0
 27 31  1  0  0  0  0
 28 32  1  0  0  0  0
 29 28  1  0  0  0  0
 30 26  1  0  0  0  0
 32 35  1  0  0  0  0
 32 34  1  0  0  0  0
 33 32  1  0  0  0  0
M  END
>  <minimizedAffinity>
-5.76252365

$$$$

 OpenBabel03272500283D

 35 37  0  0  0  0  0  0  0  0999 V2000
   37.3680   27.1190   33.3120 C   0  0  0  0  0  0  0  0  0  0  0  0
   38.3540   27.4770   32.4440 C   0  0  0  0  0  0  0  0  0  0  0  0
   38.9720   26.5550   31.5810 C   0  0  0  0  0  0  0  0  0  0  0  0
   38.4890   25.2700   31.6980 N   0  0  0  0  0  0  0  0  0  0  0  0
   37.5170   24.9270   32.5570 C   0  0  0  0  0  0  0  0  0  0  0  0
   36.9570   25.8660   33.3680 N   0  0  0  0  0  0  0  0  0  0  0  0
   38.7600   28.4750   32.3220 H   0  0  0  0  0  0  0  0  0  0  0  0
   39.7450   26.8150   30.8930 H   0  0  0  0  0  0  0  0  0  0  0  0
   35.2010   24.3440   30.8500 Cl  0  0  0  0  0  0  0  0  0  0  0  0
   35.9580   23.1660   31.8790 C   0  0  0  0  0  0  0  0  0  0  0  0
   37.0420   23.5480   32.6410 C   0  0  0  0  0  0  0  0  0  0  0  0
   37.6570   22.6280   33.4640 C   0  0  0  0  0  0  0  0  0  0  0  0
   38.5030   22.9630   34.0470 H   0  0  0  0  0  0  0  0  0  0  0  0
   37.1890   21.3110   33.5330 C   0  0  0  0  0  3  0  0  0  0  0  0
   36.1060   20.9910   32.7510 C   0  0  0  0  0  0  0  0  0  0  0  0
   35.4550   19.3590   32.7780 Cl  0  0  0  0  0  0  0  0  0  0  0  0
   35.4750   21.8760   31.9260 C   0  0  0  0  0  0  0  0  0  0  0  0
   34.6200   21.6460   31.3000 H   0  0  0  0  0  0  0  0  0  0  0  0
   36.7670   28.0950   34.1730 C   0  0  0  0  0  0  0  0  0  0  0  0
   37.6030   28.6110   34.7310 H   0  0  0  0  0  0  0  0  0  0  0  0
   36.2080   27.5830   35.0070 H   0  0  0  0  0  0  0  0  0  0  0  0
   35.8550   29.1080   33.6330 C   0  0  0  0  0  0  0  0  0  0  0  0
   35.0350   28.6940   33.0090 H   0  0  0  0  0  0  0  0  0  0  0  0
   36.3850   29.8110   32.9260 H   0  0  0  0  0  0  0  0  0  0  0  0
   35.2330   29.9980   34.6390 C   0  0  0  0  0  0  0  0  0  0  0  0
   36.0200   30.8850   35.3800 C   0  0  0  0  0  0  0  0  0  0  0  0
   35.1960   31.5770   36.2260 C   0  0  0  0  0  0  0  0  0  0  0  0
   33.9550   31.1240   36.0050 N   0  0  0  0  0  0  0  0  0  0  0  0
   34.0130   30.2070   35.0770 N   0  0  0  0  0  0  0  0  0  0  0  0
   37.0960   31.0730   35.3660 H   0  0  0  0  0  0  0  0  0  0  0  0
   35.4530   32.3580   36.9580 H   0  0  0  0  0  0  0  0  0  0  0  0
   32.7200   31.5510   36.6620 C   0  0  0  0  0  0  0  0  0  0  0  0
   31.6240   31.1490   35.9290 F   0  0  0  0  0  0  0  0  0  0  0  0
   32.6650   32.9150   36.8330 F   0  0  0  0  0  0  0  0  0  0  0  0
   32.5920   30.9470   37.9050 F   0  0  0  0  0  0  0  0  0  0  0  0
  1  6  1  0  0  0  0
  1 19  1  0  0  0  0
  2  1  2  0  0  0  0
  3  4  2  0  0  0  0
  3  2  1  0  0  0  0
  4  5  1  0  0  0  0
  5 11  1  0  0  0  0
  5  6  2  0  0  0  0
  7  2  1  0  0  0  0
  8  3  1  0  0  0  0
  9 10  1  0  0  0  0
 10 17  2  0  0  0  0
 10 11  1  0  0  0  0
 11 12  2  0  0  0  0
 12 14  1  0  0  0  0
 12 13  1  0  0  0  0
 15 16  1  0  0  0  0
 15 14  2  0  0  0  0
 17 15  1  0  0  0  0
 18 17  1  0  0  0  0
 19 20  1  0  0  0  0
 19 21  1  0  0  0  0
 22 19  1  0  0  0  0
 22 25  1  0  0  0  0
 23 22  1  0  0  0  0
 24 22  1  0  0  0  0
 25 29  2  0  0  0  0
 25 26  1  0  0  0  0
 26 27  2  0  0  0  0
 27 31  1  0  0  0  0
 28 27  1  0  0  0  0
 28 32  1  0  0  0  0
 29 28  1  0  0  0  0
 30 26  1  0  0  0  0
 32 34  1  0  0  0  0
 32 35  1  0  0  0  0
 33 32  1  0  0  0  0
M  END
>  <minimizedAffinity>
-5.56464148

$$$$

 OpenBabel03272500283D

 35 37  0  0  0  0  0  0  0  0999 V2000
   38.5230   26.5470   33.0730 C   0  0  0  0  0  0  0  0  0  0  0  0
   38.8080   27.3700   32.0280 C   0  0  0  0  0  0  0  0  0  0  0  0
   38.6810   26.9620   30.6880 C   0  0  0  0  0  0  0  0  0  0  0  0
   38.2460   25.6630   30.5380 N   0  0  0  0  0  0  0  0  0  0  0  0
   37.9670   24.8590   31.5770 C   0  0  0  0  0  0  0  0  0  0  0  0
   38.1100   25.3120   32.8520 N   0  0  0  0  0  0  0  0  0  0  0  0
   39.1520   28.3960   32.1030 H   0  0  0  0  0  0  0  0  0  0  0  0
   38.8990   27.5910   29.8540 H   0  0  0  0  0  0  0  0  0  0  0  0
   35.0510   24.5810   31.3790 Cl  0  0  0  0  0  0  0  0  0  0  0  0
   36.1550   23.2450   31.2540 C   0  0  0  0  0  0  0  0  0  0  0  0
   37.5080   23.4890   31.3620 C   0  0  0  0  0  0  0  0  0  0  0  0
   38.4010   22.4410   31.2650 C   0  0  0  0  0  0  0  0  0  0  0  0
   39.4530   22.6700   31.3550 H   0  0  0  0  0  0  0  0  0  0  0  0
   37.9450   21.1350   31.0600 C   0  0  0  0  0  3  0  0  0  0  0  0
   36.5860   20.9550   30.9620 C   0  0  0  0  0  0  0  0  0  0  0  0
   35.9300   19.3460   30.7030 Cl  0  0  0  0  0  0  0  0  0  0  0  0
   35.6760   21.9690   31.0520 C   0  0  0  0  0  0  0  0  0  0  0  0
   34.6010   21.8510   30.9760 H   0  0  0  0  0  0  0  0  0  0  0  0
   38.6670   27.0080   34.4230 C   0  0  0  0  0  0  0  0  0  0  0  0
   38.4840   28.1230   34.4190 H   0  0  0  0  0  0  0  0  0  0  0  0
   39.7480   26.9480   34.7390 H   0  0  0  0  0  0  0  0  0  0  0  0
   37.8920   26.3990   35.5080 C   0  0  0  0  0  0  0  0  0  0  0  0
   36.8330   26.1900   35.2480 H   0  0  0  0  0  0  0  0  0  0  0  0
   37.8060   27.0910   36.3970 H   0  0  0  0  0  0  0  0  0  0  0  0
   38.4590   25.1500   36.0660 C   0  0  0  0  0  0  0  0  0  0  0  0
   37.6890   24.3390   36.9050 C   0  0  0  0  0  0  0  0  0  0  0  0
   38.4520   23.2640   37.2720 C   0  0  0  0  0  0  0  0  0  0  0  0
   39.6420   23.4200   36.6750 N   0  0  0  0  0  0  0  0  0  0  0  0
   39.6100   24.5260   35.9830 N   0  0  0  0  0  0  0  0  0  0  0  0
   36.6630   24.4470   37.2640 H   0  0  0  0  0  0  0  0  0  0  0  0
   38.1890   22.4150   37.9220 H   0  0  0  0  0  0  0  0  0  0  0  0
   40.8020   22.5340   36.7550 C   0  0  0  0  0  0  0  0  0  0  0  0
   41.9680   23.2680   36.7510 F   0  0  0  0  0  0  0  0  0  0  0  0
   40.8410   21.6310   35.7180 F   0  0  0  0  0  0  0  0  0  0  0  0
   40.7990   21.8270   37.9500 F   0  0  0  0  0  0  0  0  0  0  0  0
  1 19  1  0  0  0  0
  2  7  1  0  0  0  0
  2  1  2  0  0  0  0
  3  2  1  0  0  0  0
  4  3  2  0  0  0  0
  4  5  1  0  0  0  0
  5  6  2  0  0  0  0
  6  1  1  0  0  0  0
  8  3  1  0  0  0  0
 10 11  1  0  0  0  0
 10  9  1  0  0  0  0
 11  5  1  0  0  0  0
 12 13  1  0  0  0  0
 12 11  2  0  0  0  0
 14 12  1  0  0  0  0
 15 17  1  0  0  0  0
 15 14  2  0  0  0  0
 16 15  1  0  0  0  0
 17 10  2  0  0  0  0
 18 17  1  0  0  0  0
 19 21  1  0  0  0  0
 19 22  1  0  0  0  0
 20 19  1  0  0  0  0
 22 25  1  0  0  0  0
 22 24  1  0  0  0  0
 23 22  1  0  0  0  0
 25 26  1  0  0  0  0
 26 30  1  0  0  0  0
 26 27  2  0  0  0  0
 27 31  1  0  0  0  0
 28 32  1  0  0  0  0
 28 27  1  0  0  0  0
 29 25  2  0  0  0  0
 29 28  1  0  0  0  0
 32 35  1  0  0  0  0
 33 32  1  0  0  0  0
 34 32  1  0  0  0  0
M  END
>  <minimizedAffinity>
-5.55632687

$$$$
