
 OpenBabel03272507163D

 27 29  0  0  1  0  0  0  0  0999 V2000
   36.3990   30.5150   50.3880 C   0  0  1  0  0  0  0  0  0  0  0  0
   35.5970   29.3280   50.2000 C   0  0  2  0  0  0  0  0  0  0  0  0
   36.9120   29.1820   50.9420 C   0  0  0  0  0  0  0  0  0  0  0  0
   36.1880   31.2940   51.1790 H   0  0  0  0  0  0  0  0  0  0  0  0
   34.6360   29.2880   50.7620 H   0  0  0  0  0  0  0  0  0  0  0  0
   36.7610   29.0500   52.0310 H   0  0  0  0  0  0  0  0  0  0  0  0
   37.7440   28.6760   50.4250 H   0  0  0  0  0  0  0  0  0  0  0  0
   37.2840   31.0520   49.2820 C   0  0  0  0  0  0  0  0  0  0  0  0
   37.7680   32.3480   49.4530 C   0  0  0  0  0  0  0  0  0  0  0  0
   38.5550   32.8300   48.4190 C   0  0  0  0  0  0  0  0  0  0  0  0
   38.8150   32.0510   47.3190 N   0  0  0  0  0  0  0  0  0  0  0  0
   38.3220   30.7930   47.1970 C   0  0  0  0  0  0  0  0  0  0  0  0
   37.5420   30.2800   48.1940 N   0  0  0  0  0  0  0  0  0  0  0  0
   37.5260   32.9110   50.3440 H   0  0  0  0  0  0  0  0  0  0  0  0
   38.9470   33.8310   48.5170 H   0  0  0  0  0  0  0  0  0  0  0  0
   38.5630   30.2280   46.3050 H   0  0  0  0  0  0  0  0  0  0  0  0
   35.5520   28.7250   48.9340 O   0  0  0  0  0  0  0  0  0  0  0  0
   34.2060   30.7230   47.2050 Cl  0  0  0  0  0  0  0  0  0  0  0  0
   33.7770   29.0440   47.4890 C   0  0  0  0  0  0  0  0  0  0  0  0
   34.4650   28.1690   48.3200 C   0  0  0  0  0  0  0  0  0  0  0  0
   34.0020   26.8800   48.4380 C   0  0  0  0  0  0  0  0  0  0  0  0
   34.5680   26.2310   49.0960 H   0  0  0  0  0  0  0  0  0  0  0  0
   32.8910   26.4020   47.7780 C   0  0  0  0  0  3  0  0  0  0  0  0
   32.2100   27.2810   46.9510 C   0  0  0  0  0  0  0  0  0  0  0  0
   30.7940   26.7170   46.0930 Cl  0  0  0  0  0  0  0  0  0  0  0  0
   32.6500   28.5850   46.8090 C   0  0  0  0  0  0  0  0  0  0  0  0
   32.0770   29.2110   46.1550 H   0  0  0  0  0  0  0  0  0  0  0  0
  1  3  1  0  0  0  0
  1  4  1  1  0  0  0
  2  1  1  0  0  0  0
  2  5  1  1  0  0  0
  2  3  1  0  0  0  0
  3  6  1  0  0  0  0
  7  3  1  0  0  0  0
  8  9  1  0  0  0  0
  8  1  1  0  0  0  0
  9 14  1  0  0  0  0
 10 15  1  0  0  0  0
 10  9  2  0  0  0  0
 11 10  1  0  0  0  0
 12 11  2  0  0  0  0
 12 13  1  0  0  0  0
 13  8  2  0  0  0  0
 16 12  1  0  0  0  0
 17  2  1  0  0  0  0
 18 19  1  0  0  0  0
 19 20  1  0  0  0  0
 20 21  2  0  0  0  0
 20 17  1  0  0  0  0
 21 22  1  0  0  0  0
 23 21  1  0  0  0  0
 24 23  2  0  0  0  0
 25 24  1  0  0  0  0
 26 24  1  0  0  0  0
 26 19  2  0  0  0  0
 27 26  1  0  0  0  0
M  END
>  <minimizedAffinity>
-4.78183603

>  <minimizedRMSD>
1.48549819

$$$$
