
 OpenBabel03262523503D

 22 23  0  0  0  0  0  0  0  0999 V2000
   37.8570   27.4310   35.3060 C   0  0  0  0  0  0  0  0  0  0  0  0
   38.6290   28.2180   35.3440 H   0  0  0  0  0  0  0  0  0  0  0  0
   37.0930   27.5500   36.1130 H   0  0  0  0  0  0  0  0  0  0  0  0
   40.6560   26.9980   34.1620 Cl  0  0  0  0  0  0  0  0  0  0  0  0
   39.7940   25.7750   35.0760 C   0  0  0  0  0  0  0  0  0  0  0  0
   38.5190   26.1240   35.5340 C   0  0  0  0  0  0  0  0  0  0  0  0
   37.8750   25.1350   36.2490 C   0  0  0  0  0  0  0  0  0  0  0  0
   36.8740   25.3760   36.6210 H   0  0  0  0  0  0  0  0  0  0  0  0
   38.3410   23.8760   36.5500 C   0  0  0  0  0  3  0  0  0  0  0  0
   39.5980   23.5790   36.0780 C   0  0  0  0  0  0  0  0  0  0  0  0
   40.2760   21.9940   36.4140 Cl  0  0  0  0  0  0  0  0  0  0  0  0
   40.3000   24.5220   35.3550 C   0  0  0  0  0  0  0  0  0  0  0  0
   41.3080   24.2880   34.9780 H   0  0  0  0  0  0  0  0  0  0  0  0
   37.0850   27.4020   34.0460 C   0  0  0  0  0  0  0  0  0  0  0  0
   36.2550   28.4960   33.7910 C   0  0  0  0  0  0  0  0  0  0  0  0
   35.5020   28.5090   32.5990 C   0  0  0  0  0  0  0  0  0  0  0  0
   35.6330   27.4350   31.7540 N   0  0  0  0  0  0  0  0  0  0  0  0
   36.4500   26.4050   32.0490 C   0  0  0  0  0  0  0  0  0  0  0  0
   37.1710   26.3760   33.1770 N   0  0  0  0  0  0  0  0  0  0  0  0
   36.1120   29.3590   34.4130 H   0  0  0  0  0  0  0  0  0  0  0  0
   34.8340   29.3250   32.3290 H   0  0  0  0  0  0  0  0  0  0  0  0
   36.5770   25.5440   31.4050 H   0  0  0  0  0  0  0  0  0  0  0  0
  1  2  1  0  0  0  0
  1  6  1  0  0  0  0
  1  3  1  0  0  0  0
  4  5  1  0  0  0  0
  5 12  2  0  0  0  0
  5  6  1  0  0  0  0
  6  7  2  0  0  0  0
  7  9  1  0  0  0  0
  7  8  1  0  0  0  0
 10 11  1  0  0  0  0
 10  9  2  0  0  0  0
 12 10  1  0  0  0  0
 13 12  1  0  0  0  0
 14  1  1  0  0  0  0
 15 14  1  0  0  0  0
 15 20  1  0  0  0  0
 16 15  2  0  0  0  0
 17 18  2  0  0  0  0
 17 16  1  0  0  0  0
 18 19  1  0  0  0  0
 19 14  2  0  0  0  0
 21 16  1  0  0  0  0
 22 18  1  0  0  0  0
M  END
>  <minimizedAffinity>
-4.43350983

$$$$

 OpenBabel03262523503D

 22 23  0  0  0  0  0  0  0  0999 V2000
   39.1920   26.3630   35.2830 C   0  0  0  0  0  0  0  0  0  0  0  0
   39.3940   27.0050   36.1580 H   0  0  0  0  0  0  0  0  0  0  0  0
   40.1160   26.1580   34.6890 H   0  0  0  0  0  0  0  0  0  0  0  0
   39.7550   26.3490   32.2800 Cl  0  0  0  0  0  0  0  0  0  0  0  0
   38.3800   27.1700   32.9950 C   0  0  0  0  0  0  0  0  0  0  0  0
   38.2580   27.0850   34.3860 C   0  0  0  0  0  0  0  0  0  0  0  0
   37.1640   27.7430   34.9070 C   0  0  0  0  0  0  0  0  0  0  0  0
   37.0400   27.6970   35.9940 H   0  0  0  0  0  0  0  0  0  0  0  0
   36.2060   28.4550   34.2240 C   0  0  0  0  0  3  0  0  0  0  0  0
   36.3680   28.5110   32.8590 C   0  0  0  0  0  0  0  0  0  0  0  0
   35.1930   29.3980   31.9020 Cl  0  0  0  0  0  0  0  0  0  0  0  0
   37.4410   27.8740   32.2690 C   0  0  0  0  0  0  0  0  0  0  0  0
   37.5730   27.9150   31.1760 H   0  0  0  0  0  0  0  0  0  0  0  0
   38.6500   25.0310   35.6230 C   0  0  0  0  0  0  0  0  0  0  0  0
   38.1290   24.8720   36.9090 C   0  0  0  0  0  0  0  0  0  0  0  0
   37.5990   23.6180   37.2740 C   0  0  0  0  0  0  0  0  0  0  0  0
   37.6280   22.6190   36.3330 N   0  0  0  0  0  0  0  0  0  0  0  0
   38.1430   22.8260   35.1040 C   0  0  0  0  0  0  0  0  0  0  0  0
   38.6510   24.0110   34.7420 N   0  0  0  0  0  0  0  0  0  0  0  0
   38.0810   25.6150   37.6840 H   0  0  0  0  0  0  0  0  0  0  0  0
   37.1750   23.4170   38.2560 H   0  0  0  0  0  0  0  0  0  0  0  0
   38.1810   22.0620   34.3390 H   0  0  0  0  0  0  0  0  0  0  0  0
  1 14  1  0  0  0  0
  1  2  1  0  0  0  0
  3  1  1  0  0  0  0
  4  5  1  0  0  0  0
  5  6  1  0  0  0  0
  6  7  2  0  0  0  0
  6  1  1  0  0  0  0
  7  8  1  0  0  0  0
  9  7  1  0  0  0  0
 10  9  2  0  0  0  0
 11 10  1  0  0  0  0
 12 10  1  0  0  0  0
 12  5  2  0  0  0  0
 13 12  1  0  0  0  0
 14 15  1  0  0  0  0
 15 16  2  0  0  0  0
 15 20  1  0  0  0  0
 16 21  1  0  0  0  0
 17 16  1  0  0  0  0
 18 17  2  0  0  0  0
 19 18  1  0  0  0  0
 19 14  2  0  0  0  0
 22 18  1  0  0  0  0
M  END
>  <minimizedAffinity>
-4.29403687

$$$$

 OpenBabel03262523503D

 22 23  0  0  0  0  0  0  0  0999 V2000
   38.7520   25.5290   33.2490 C   0  0  0  0  0  0  0  0  0  0  0  0
   39.5300   24.9040   32.7790 H   0  0  0  0  0  0  0  0  0  0  0  0
   39.0790   26.5900   33.3720 H   0  0  0  0  0  0  0  0  0  0  0  0
   38.3520   27.5200   35.5310 Cl  0  0  0  0  0  0  0  0  0  0  0  0
   38.2920   25.7820   35.7540 C   0  0  0  0  0  0  0  0  0  0  0  0
   38.4960   25.0010   34.6110 C   0  0  0  0  0  0  0  0  0  0  0  0
   38.4410   23.6400   34.8290 C   0  0  0  0  0  0  0  0  0  0  0  0
   38.5970   23.0000   33.9540 H   0  0  0  0  0  0  0  0  0  0  0  0
   38.2150   22.9860   36.0180 C   0  0  0  0  0  3  0  0  0  0  0  0
   38.0220   23.7970   37.1130 C   0  0  0  0  0  0  0  0  0  0  0  0
   37.7260   23.0510   38.6750 Cl  0  0  0  0  0  0  0  0  0  0  0  0
   38.0630   25.1680   36.9680 C   0  0  0  0  0  0  0  0  0  0  0  0
   37.9060   25.8200   37.8420 H   0  0  0  0  0  0  0  0  0  0  0  0
   37.4900   25.6020   32.4820 C   0  0  0  0  0  0  0  0  0  0  0  0
   36.9580   26.8750   32.2660 C   0  0  0  0  0  0  0  0  0  0  0  0
   35.7560   26.9900   31.5370 C   0  0  0  0  0  0  0  0  0  0  0  0
   35.1780   25.8310   31.0800 N   0  0  0  0  0  0  0  0  0  0  0  0
   35.7360   24.6270   31.3170 C   0  0  0  0  0  0  0  0  0  0  0  0
   36.8760   24.5010   32.0080 N   0  0  0  0  0  0  0  0  0  0  0  0
   37.3640   27.8110   32.5990 H   0  0  0  0  0  0  0  0  0  0  0  0
   35.2800   27.9460   31.3270 H   0  0  0  0  0  0  0  0  0  0  0  0
   35.3080   23.6960   30.9700 H   0  0  0  0  0  0  0  0  0  0  0  0
  1  3  1  0  0  0  0
  1  6  1  0  0  0  0
  2  1  1  0  0  0  0
  4  5  1  0  0  0  0
  5 12  1  0  0  0  0
  6  7  1  0  0  0  0
  6  5  2  0  0  0  0
  7  9  2  0  0  0  0
  8  7  1  0  0  0  0
  9 10  1  0  0  0  0
 10 11  1  0  0  0  0
 12 10  2  0  0  0  0
 12 13  1  0  0  0  0
 14  1  1  0  0  0  0
 15 14  1  0  0  0  0
 15 20  1  0  0  0  0
 16 15  2  0  0  0  0
 17 18  2  0  0  0  0
 17 16  1  0  0  0  0
 18 19  1  0  0  0  0
 19 14  2  0  0  0  0
 21 16  1  0  0  0  0
 22 18  1  0  0  0  0
M  END
>  <minimizedAffinity>
-4.29147959

$$$$

 OpenBabel03262523503D

 22 23  0  0  0  0  0  0  0  0999 V2000
   38.7000   24.7390   32.7160 C   0  0  0  0  0  0  0  0  0  0  0  0
   39.1720   23.8150   32.3400 H   0  0  0  0  0  0  0  0  0  0  0  0
   39.3460   25.6370   32.5580 H   0  0  0  0  0  0  0  0  0  0  0  0
   38.6970   21.9310   33.9210 Cl  0  0  0  0  0  0  0  0  0  0  0  0
   38.4900   23.3860   34.8780 C   0  0  0  0  0  0  0  0  0  0  0  0
   38.5140   24.5990   34.1800 C   0  0  0  0  0  0  0  0  0  0  0  0
   38.3490   25.7180   34.9690 C   0  0  0  0  0  0  0  0  0  0  0  0
   38.3620   26.6840   34.4530 H   0  0  0  0  0  0  0  0  0  0  0  0
   38.1660   25.7680   36.3320 C   0  0  0  0  0  3  0  0  0  0  0  0
   38.1480   24.5510   36.9730 C   0  0  0  0  0  0  0  0  0  0  0  0
   37.9210   24.5160   38.7140 Cl  0  0  0  0  0  0  0  0  0  0  0  0
   38.3090   23.3900   36.2460 C   0  0  0  0  0  0  0  0  0  0  0  0
   38.2970   22.4140   36.7570 H   0  0  0  0  0  0  0  0  0  0  0  0
   37.4150   25.0690   32.0650 C   0  0  0  0  0  0  0  0  0  0  0  0
   36.5390   24.0070   31.8270 C   0  0  0  0  0  0  0  0  0  0  0  0
   35.3010   24.2770   31.2100 C   0  0  0  0  0  0  0  0  0  0  0  0
   35.0290   25.5820   30.8780 N   0  0  0  0  0  0  0  0  0  0  0  0
   35.9120   26.5690   31.1310 C   0  0  0  0  0  0  0  0  0  0  0  0
   37.0920   26.3290   31.7160 N   0  0  0  0  0  0  0  0  0  0  0  0
   36.6980   22.9710   32.0640 H   0  0  0  0  0  0  0  0  0  0  0  0
   34.5660   23.5050   30.9920 H   0  0  0  0  0  0  0  0  0  0  0  0
   35.7290   27.6070   30.8830 H   0  0  0  0  0  0  0  0  0  0  0  0
  1  6  1  0  0  0  0
  2  1  1  0  0  0  0
  3  1  1  0  0  0  0
  4  5  1  0  0  0  0
  5 12  1  0  0  0  0
  6  5  2  0  0  0  0
  6  7  1  0  0  0  0
  7  9  2  0  0  0  0
  8  7  1  0  0  0  0
  9 10  1  0  0  0  0
 10 11  1  0  0  0  0
 12 13  1  0  0  0  0
 12 10  2  0  0  0  0
 14  1  1  0  0  0  0
 15 20  1  0  0  0  0
 15 14  1  0  0  0  0
 16 15  2  0  0  0  0
 17 18  2  0  0  0  0
 17 16  1  0  0  0  0
 18 19  1  0  0  0  0
 19 14  2  0  0  0  0
 21 16  1  0  0  0  0
 22 18  1  0  0  0  0
M  END
>  <minimizedAffinity>
-4.22583961

$$$$

 OpenBabel03262523503D

 22 23  0  0  0  0  0  0  0  0999 V2000
   37.2540   27.4350   33.0190 C   0  0  0  0  0  0  0  0  0  0  0  0
   37.1670   28.3620   32.4280 H   0  0  0  0  0  0  0  0  0  0  0  0
   36.7300   27.5120   34.0030 H   0  0  0  0  0  0  0  0  0  0  0  0
   38.0890   27.0020   35.9260 Cl  0  0  0  0  0  0  0  0  0  0  0  0
   39.2260   26.9970   34.5910 C   0  0  0  0  0  0  0  0  0  0  0  0
   38.6900   27.2110   33.3160 C   0  0  0  0  0  0  0  0  0  0  0  0
   39.6170   27.1990   32.2950 C   0  0  0  0  0  0  0  0  0  0  0  0
   39.2290   27.3640   31.2840 H   0  0  0  0  0  0  0  0  0  0  0  0
   40.9750   27.0060   32.3930 C   0  0  0  0  0  3  0  0  0  0  0  0
   41.4550   26.8020   33.6660 C   0  0  0  0  0  0  0  0  0  0  0  0
   43.1780   26.5460   33.8900 Cl  0  0  0  0  0  0  0  0  0  0  0  0
   40.5840   26.8000   34.7360 C   0  0  0  0  0  0  0  0  0  0  0  0
   40.9650   26.6340   35.7560 H   0  0  0  0  0  0  0  0  0  0  0  0
   36.6740   26.2440   32.3660 C   0  0  0  0  0  0  0  0  0  0  0  0
   35.6650   26.4700   31.4260 C   0  0  0  0  0  0  0  0  0  0  0  0
   35.0850   25.3610   30.7770 C   0  0  0  0  0  0  0  0  0  0  0  0
   35.5530   24.1140   31.1120 N   0  0  0  0  0  0  0  0  0  0  0  0
   36.5300   23.9530   32.0270 C   0  0  0  0  0  0  0  0  0  0  0  0
   37.0900   24.9950   32.6530 N   0  0  0  0  0  0  0  0  0  0  0  0
   35.2610   27.4180   31.1260 H   0  0  0  0  0  0  0  0  0  0  0  0
   34.2960   25.4550   30.0340 H   0  0  0  0  0  0  0  0  0  0  0  0
   36.9210   22.9850   32.3130 H   0  0  0  0  0  0  0  0  0  0  0  0
  1  6  1  0  0  0  0
  1  3  1  0  0  0  0
  2  1  1  0  0  0  0
  5 12  1  0  0  0  0
  5  4  1  0  0  0  0
  6  5  2  0  0  0  0
  7  9  2  0  0  0  0
  7  6  1  0  0  0  0
  8  7  1  0  0  0  0
  9 10  1  0  0  0  0
 10 11  1  0  0  0  0
 10 12  2  0  0  0  0
 12 13  1  0  0  0  0
 14 19  1  0  0  0  0
 14  1  1  0  0  0  0
 15 14  2  0  0  0  0
 16 17  2  0  0  0  0
 16 15  1  0  0  0  0
 17 18  1  0  0  0  0
 18 22  1  0  0  0  0
 18 19  2  0  0  0  0
 20 15  1  0  0  0  0
 21 16  1  0  0  0  0
M  END
>  <minimizedAffinity>
-4.19702673

$$$$

 OpenBabel03262523503D

 22 23  0  0  0  0  0  0  0  0999 V2000
   37.9090   23.5150   35.9060 C   0  0  0  0  0  0  0  0  0  0  0  0
   37.3400   23.4860   36.8510 H   0  0  0  0  0  0  0  0  0  0  0  0
   37.4210   22.9140   35.1000 H   0  0  0  0  0  0  0  0  0  0  0  0
   38.9250   23.3320   38.7820 Cl  0  0  0  0  0  0  0  0  0  0  0  0
   39.8370   22.7470   37.4030 C   0  0  0  0  0  0  0  0  0  0  0  0
   39.2380   22.9030   36.1490 C   0  0  0  0  0  0  0  0  0  0  0  0
   39.9880   22.4290   35.0920 C   0  0  0  0  0  0  0  0  0  0  0  0
   39.5470   22.5370   34.0950 H   0  0  0  0  0  0  0  0  0  0  0  0
   41.2290   21.8380   35.1390 C   0  0  0  0  0  3  0  0  0  0  0  0
   41.7780   21.7080   36.3940 C   0  0  0  0  0  0  0  0  0  0  0  0
   43.3600   20.9640   36.5520 Cl  0  0  0  0  0  0  0  0  0  0  0  0
   41.0820   22.1590   37.4970 C   0  0  0  0  0  0  0  0  0  0  0  0
   41.5180   22.0550   38.5030 H   0  0  0  0  0  0  0  0  0  0  0  0
   38.0660   24.8690   35.3350 C   0  0  0  0  0  0  0  0  0  0  0  0
   38.3180   25.9070   36.2360 C   0  0  0  0  0  0  0  0  0  0  0  0
   38.4760   27.2140   35.7340 C   0  0  0  0  0  0  0  0  0  0  0  0
   38.3710   27.3890   34.3760 N   0  0  0  0  0  0  0  0  0  0  0  0
   38.1260   26.3510   33.5510 C   0  0  0  0  0  0  0  0  0  0  0  0
   37.9730   25.1040   34.0120 N   0  0  0  0  0  0  0  0  0  0  0  0
   38.4100   25.8290   37.3030 H   0  0  0  0  0  0  0  0  0  0  0  0
   38.6750   28.0740   36.3710 H   0  0  0  0  0  0  0  0  0  0  0  0
   38.0380   26.4540   32.4770 H   0  0  0  0  0  0  0  0  0  0  0  0
  1  6  1  0  0  0  0
  1  2  1  0  0  0  0
  3  1  1  0  0  0  0
  5 12  1  0  0  0  0
  5  4  1  0  0  0  0
  6  5  2  0  0  0  0
  7  9  2  0  0  0  0
  7  6  1  0  0  0  0
  8  7  1  0  0  0  0
  9 10  1  0  0  0  0
 10 11  1  0  0  0  0
 10 12  2  0  0  0  0
 12 13  1  0  0  0  0
 14  1  1  0  0  0  0
 14 15  1  0  0  0  0
 15 20  1  0  0  0  0
 16 15  2  0  0  0  0
 16 21  1  0  0  0  0
 17 16  1  0  0  0  0
 18 19  1  0  0  0  0
 18 17  2  0  0  0  0
 19 14  2  0  0  0  0
 22 18  1  0  0  0  0
M  END
>  <minimizedAffinity>
-4.12591076

$$$$

 OpenBabel03262523503D

 22 23  0  0  0  0  0  0  0  0999 V2000
   38.4270   24.5550   34.7650 C   0  0  0  0  0  0  0  0  0  0  0  0
   38.1850   23.7680   34.0300 H   0  0  0  0  0  0  0  0  0  0  0  0
   37.6000   25.2990   34.8730 H   0  0  0  0  0  0  0  0  0  0  0  0
   38.7700   27.4700   35.6150 Cl  0  0  0  0  0  0  0  0  0  0  0  0
   39.9050   26.6350   34.5710 C   0  0  0  0  0  0  0  0  0  0  0  0
   39.6100   25.3010   34.2700 C   0  0  0  0  0  0  0  0  0  0  0  0
   40.5270   24.6810   33.4470 C   0  0  0  0  0  0  0  0  0  0  0  0
   40.3240   23.6350   33.1920 H   0  0  0  0  0  0  0  0  0  0  0  0
   41.6700   25.2210   32.9040 C   0  0  0  0  0  3  0  0  0  0  0  0
   41.9170   26.5350   33.2270 C   0  0  0  0  0  0  0  0  0  0  0  0
   43.3540   27.3090   32.5790 Cl  0  0  0  0  0  0  0  0  0  0  0  0
   41.0420   27.2170   34.0470 C   0  0  0  0  0  0  0  0  0  0  0  0
   41.2380   28.2680   34.3090 H   0  0  0  0  0  0  0  0  0  0  0  0
   38.6730   24.0510   36.1320 C   0  0  0  0  0  0  0  0  0  0  0  0
   37.7810   24.4620   37.1250 C   0  0  0  0  0  0  0  0  0  0  0  0
   37.9780   24.0020   38.4430 C   0  0  0  0  0  0  0  0  0  0  0  0
   39.0460   23.1700   38.6710 N   0  0  0  0  0  0  0  0  0  0  0  0
   39.8770   22.8040   37.6750 C   0  0  0  0  0  0  0  0  0  0  0  0
   39.7040   23.2320   36.4180 N   0  0  0  0  0  0  0  0  0  0  0  0
   36.9320   25.1090   37.0050 H   0  0  0  0  0  0  0  0  0  0  0  0
   37.3260   24.2770   39.2700 H   0  0  0  0  0  0  0  0  0  0  0  0
   40.7270   22.1500   37.8200 H   0  0  0  0  0  0  0  0  0  0  0  0
  1  3  1  0  0  0  0
  1 14  1  0  0  0  0
  2  1  1  0  0  0  0
  5  4  1  0  0  0  0
  6  5  1  0  0  0  0
  6  1  1  0  0  0  0
  7  6  2  0  0  0  0
  8  7  1  0  0  0  0
  9 10  2  0  0  0  0
  9  7  1  0  0  0  0
 10 12  1  0  0  0  0
 11 10  1  0  0  0  0
 12 13  1  0  0  0  0
 12  5  2  0  0  0  0
 14 19  2  0  0  0  0
 14 15  1  0  0  0  0
 15 16  2  0  0  0  0
 16 17  1  0  0  0  0
 16 21  1  0  0  0  0
 18 22  1  0  0  0  0
 18 17  2  0  0  0  0
 19 18  1  0  0  0  0
 20 15  1  0  0  0  0
M  END
>  <minimizedAffinity>
-4.09467602

$$$$

 OpenBabel03262523503D

 22 23  0  0  0  0  0  0  0  0999 V2000
   35.6110   29.5920   32.3880 C   0  0  0  0  0  0  0  0  0  0  0  0
   36.4010   30.3040   32.0950 H   0  0  0  0  0  0  0  0  0  0  0  0
   34.8130   29.5030   31.6120 H   0  0  0  0  0  0  0  0  0  0  0  0
   32.6530   28.9710   32.8330 Cl  0  0  0  0  0  0  0  0  0  0  0  0
   33.6160   29.9080   33.9590 C   0  0  0  0  0  0  0  0  0  0  0  0
   34.9580   30.1080   33.6150 C   0  0  0  0  0  0  0  0  0  0  0  0
   35.6800   30.8490   34.5280 C   0  0  0  0  0  0  0  0  0  0  0  0
   36.7340   31.0240   34.2880 H   0  0  0  0  0  0  0  0  0  0  0  0
   35.2330   31.3980   35.7070 C   0  0  0  0  0  3  0  0  0  0  0  0
   33.9080   31.1760   36.0020 C   0  0  0  0  0  0  0  0  0  0  0  0
   33.2490   31.8400   37.4880 Cl  0  0  0  0  0  0  0  0  0  0  0  0
   33.1260   30.4420   35.1340 C   0  0  0  0  0  0  0  0  0  0  0  0
   32.0650   30.2610   35.3680 H   0  0  0  0  0  0  0  0  0  0  0  0
   36.0920   28.2110   32.6060 C   0  0  0  0  0  0  0  0  0  0  0  0
   35.8040   27.2800   31.6060 C   0  0  0  0  0  0  0  0  0  0  0  0
   36.2450   25.9510   31.7720 C   0  0  0  0  0  0  0  0  0  0  0  0
   36.9390   25.6520   32.9180 N   0  0  0  0  0  0  0  0  0  0  0  0
   37.1900   26.5910   33.8530 C   0  0  0  0  0  0  0  0  0  0  0  0
   36.7770   27.8570   33.7100 N   0  0  0  0  0  0  0  0  0  0  0  0
   35.2670   27.4560   30.6930 H   0  0  0  0  0  0  0  0  0  0  0  0
   36.0600   25.1690   31.0380 H   0  0  0  0  0  0  0  0  0  0  0  0
   37.7340   26.3890   34.7660 H   0  0  0  0  0  0  0  0  0  0  0  0
  1 14  1  0  0  0  0
  1  6  1  0  0  0  0
  2  1  1  0  0  0  0
  3  1  1  0  0  0  0
  4  5  1  0  0  0  0
  5 12  1  0  0  0  0
  6  5  2  0  0  0  0
  6  7  1  0  0  0  0
  7  9  2  0  0  0  0
  8  7  1  0  0  0  0
  9 10  1  0  0  0  0
 10 11  1  0  0  0  0
 12 13  1  0  0  0  0
 12 10  2  0  0  0  0
 14 19  1  0  0  0  0
 15 16  1  0  0  0  0
 15 14  2  0  0  0  0
 16 17  2  0  0  0  0
 17 18  1  0  0  0  0
 18 22  1  0  0  0  0
 19 18  2  0  0  0  0
 20 15  1  0  0  0  0
 21 16  1  0  0  0  0
M  END
>  <minimizedAffinity>
-4.06207323

$$$$

 OpenBabel03262523503D

 22 23  0  0  0  0  0  0  0  0999 V2000
   37.6340   26.5220   35.3180 C   0  0  0  0  0  0  0  0  0  0  0  0
   37.6570   27.3880   36.0000 H   0  0  0  0  0  0  0  0  0  0  0  0
   37.0480   25.6690   35.7380 H   0  0  0  0  0  0  0  0  0  0  0  0
   38.2470   23.5930   35.9320 Cl  0  0  0  0  0  0  0  0  0  0  0  0
   39.4600   24.7310   35.3760 C   0  0  0  0  0  0  0  0  0  0  0  0
   39.0240   26.0390   35.1380 C   0  0  0  0  0  0  0  0  0  0  0  0
   40.0080   26.9020   34.7030 C   0  0  0  0  0  0  0  0  0  0  0  0
   39.7000   27.9340   34.5070 H   0  0  0  0  0  0  0  0  0  0  0  0
   41.3370   26.6210   34.4840 C   0  0  0  0  0  3  0  0  0  0  0  0
   41.7180   25.3220   34.7330 C   0  0  0  0  0  0  0  0  0  0  0  0
   43.3970   24.8710   34.4830 Cl  0  0  0  0  0  0  0  0  0  0  0  0
   40.7850   24.4050   35.1710 C   0  0  0  0  0  0  0  0  0  0  0  0
   41.0870   23.3640   35.3690 H   0  0  0  0  0  0  0  0  0  0  0  0
   37.0150   26.8040   34.0050 C   0  0  0  0  0  0  0  0  0  0  0  0
   36.5030   28.0890   33.8130 C   0  0  0  0  0  0  0  0  0  0  0  0
   35.9060   28.4000   32.5740 C   0  0  0  0  0  0  0  0  0  0  0  0
   35.8660   27.4110   31.6230 N   0  0  0  0  0  0  0  0  0  0  0  0
   36.3760   26.1860   31.8610 C   0  0  0  0  0  0  0  0  0  0  0  0
   36.9450   25.8740   33.0320 N   0  0  0  0  0  0  0  0  0  0  0  0
   36.5060   28.8990   34.5180 H   0  0  0  0  0  0  0  0  0  0  0  0
   35.4860   29.3780   32.3480 H   0  0  0  0  0  0  0  0  0  0  0  0
   36.3610   25.3850   31.1340 H   0  0  0  0  0  0  0  0  0  0  0  0
  1  3  1  0  0  0  0
  1  2  1  0  0  0  0
  5  4  1  0  0  0  0
  6  1  1  0  0  0  0
  6  5  2  0  0  0  0
  7  6  1  0  0  0  0
  8  7  1  0  0  0  0
  9  7  2  0  0  0  0
  9 10  1  0  0  0  0
 10 12  2  0  0  0  0
 11 10  1  0  0  0  0
 12 13  1  0  0  0  0
 12  5  1  0  0  0  0
 14  1  1  0  0  0  0
 15 14  1  0  0  0  0
 15 20  1  0  0  0  0
 16 15  2  0  0  0  0
 17 18  2  0  0  0  0
 17 16  1  0  0  0  0
 18 19  1  0  0  0  0
 19 14  2  0  0  0  0
 21 16  1  0  0  0  0
 22 18  1  0  0  0  0
M  END
>  <minimizedAffinity>
-4.0540905

$$$$
