
 OpenBabel03272507173D

 27 29  0  0  1  0  0  0  0  0999 V2000
   37.8830   27.2320   34.6750 C   0  0  1  0  0  0  0  0  0  0  0  0
   37.9260   26.4310   35.8760 C   0  0  2  0  0  0  0  0  0  0  0  0
   39.2240   27.0470   35.3930 C   0  0  0  0  0  0  0  0  0  0  0  0
   37.5150   28.3000   34.6490 H   0  0  0  0  0  0  0  0  0  0  0  0
   37.4100   26.8520   36.7700 H   0  0  0  0  0  0  0  0  0  0  0  0
   39.5310   27.9090   36.0160 H   0  0  0  0  0  0  0  0  0  0  0  0
   39.9790   26.3810   34.9450 H   0  0  0  0  0  0  0  0  0  0  0  0
   37.8770   26.5940   33.3020 C   0  0  0  0  0  0  0  0  0  0  0  0
   38.7590   27.1340   32.3660 C   0  0  0  0  0  0  0  0  0  0  0  0
   38.7210   26.5530   31.1090 C   0  0  0  0  0  0  0  0  0  0  0  0
   37.8590   25.5180   30.8440 N   0  0  0  0  0  0  0  0  0  0  0  0
   37.0180   25.0250   31.7870 C   0  0  0  0  0  0  0  0  0  0  0  0
   37.0240   25.5690   33.0400 N   0  0  0  0  0  0  0  0  0  0  0  0
   39.4140   27.9500   32.6380 H   0  0  0  0  0  0  0  0  0  0  0  0
   39.3910   26.9450   30.3590 H   0  0  0  0  0  0  0  0  0  0  0  0
   36.3620   24.2070   31.5170 H   0  0  0  0  0  0  0  0  0  0  0  0
   37.8490   25.0340   35.7720 O   0  0  0  0  0  0  0  0  0  0  0  0
   37.7740   24.3980   38.6680 Cl  0  0  0  0  0  0  0  0  0  0  0  0
   38.8510   23.7740   37.4300 C   0  0  0  0  0  0  0  0  0  0  0  0
   38.8200   24.1250   36.0860 C   0  0  0  0  0  0  0  0  0  0  0  0
   39.7360   23.5470   35.2380 C   0  0  0  0  0  0  0  0  0  0  0  0
   39.6770   23.8480   34.1990 H   0  0  0  0  0  0  0  0  0  0  0  0
   40.6850   22.6350   35.6440 C   0  0  0  0  0  3  0  0  0  0  0  0
   40.7100   22.2880   36.9860 C   0  0  0  0  0  0  0  0  0  0  0  0
   41.8990   21.1350   37.5450 Cl  0  0  0  0  0  0  0  0  0  0  0  0
   39.8030   22.8530   37.8660 C   0  0  0  0  0  0  0  0  0  0  0  0
   39.8770   22.5420   38.8890 H   0  0  0  0  0  0  0  0  0  0  0  0
  1  4  1  1  0  0  0
  1  3  1  0  0  0  0
  1  2  1  0  0  0  0
  2  5  1  1  0  0  0
  3  2  1  0  0  0  0
  3  6  1  0  0  0  0
  7  3  1  0  0  0  0
  8  1  1  0  0  0  0
  9 14  1  0  0  0  0
  9  8  2  0  0  0  0
 10  9  1  0  0  0  0
 11 10  2  0  0  0  0
 11 12  1  0  0  0  0
 12 13  2  0  0  0  0
 13  8  1  0  0  0  0
 15 10  1  0  0  0  0
 16 12  1  0  0  0  0
 17  2  1  0  0  0  0
 17 20  1  0  0  0  0
 19 26  1  0  0  0  0
 19 18  1  0  0  0  0
 20 19  2  0  0  0  0
 21 23  2  0  0  0  0
 21 20  1  0  0  0  0
 22 21  1  0  0  0  0
 23 24  1  0  0  0  0
 24 25  1  0  0  0  0
 24 26  2  0  0  0  0
 26 27  1  0  0  0  0
M  END
>  <minimizedAffinity>
-5.02166367

$$$$

 OpenBabel03272507173D

 27 29  0  0  1  0  0  0  0  0999 V2000
   37.8470   22.2840   34.7170 C   0  0  1  0  0  0  0  0  0  0  0  0
   37.8790   23.2770   33.6700 C   0  0  2  0  0  0  0  0  0  0  0  0
   38.9890   22.2450   33.6970 C   0  0  0  0  0  0  0  0  0  0  0  0
   37.1770   21.3740   34.6960 H   0  0  0  0  0  0  0  0  0  0  0  0
   37.0770   23.2100   32.9000 H   0  0  0  0  0  0  0  0  0  0  0  0
   38.8670   21.4840   32.9020 H   0  0  0  0  0  0  0  0  0  0  0  0
   39.9940   22.5720   34.0100 H   0  0  0  0  0  0  0  0  0  0  0  0
   38.3410   22.5940   36.1150 C   0  0  0  0  0  0  0  0  0  0  0  0
   37.3960   23.1060   37.0040 C   0  0  0  0  0  0  0  0  0  0  0  0
   37.8730   23.4070   38.2700 C   0  0  0  0  0  0  0  0  0  0  0  0
   39.1940   23.2010   38.5850 N   0  0  0  0  0  0  0  0  0  0  0  0
   40.0770   22.7000   37.6860 C   0  0  0  0  0  0  0  0  0  0  0  0
   39.6480   22.3890   36.4270 N   0  0  0  0  0  0  0  0  0  0  0  0
   36.3700   23.2460   36.6930 H   0  0  0  0  0  0  0  0  0  0  0  0
   37.1700   23.8060   38.9840 H   0  0  0  0  0  0  0  0  0  0  0  0
   41.1050   22.5590   37.9950 H   0  0  0  0  0  0  0  0  0  0  0  0
   38.2720   24.5880   33.9810 O   0  0  0  0  0  0  0  0  0  0  0  0
   38.3300   26.4390   36.2980 Cl  0  0  0  0  0  0  0  0  0  0  0  0
   37.5880   26.6660   34.7240 C   0  0  0  0  0  0  0  0  0  0  0  0
   37.6060   25.7440   33.6850 C   0  0  0  0  0  0  0  0  0  0  0  0
   36.9750   26.0730   32.5080 C   0  0  0  0  0  0  0  0  0  0  0  0
   37.0140   25.3250   31.7240 H   0  0  0  0  0  0  0  0  0  0  0  0
   36.3250   27.2680   32.2970 C   0  0  0  0  0  3  0  0  0  0  0  0
   36.3110   28.1840   33.3370 C   0  0  0  0  0  0  0  0  0  0  0  0
   35.4950   29.7150   33.1120 Cl  0  0  0  0  0  0  0  0  0  0  0  0
   36.9350   27.8840   34.5350 C   0  0  0  0  0  0  0  0  0  0  0  0
   36.8860   28.6360   35.2960 H   0  0  0  0  0  0  0  0  0  0  0  0
  1  4  1  6  0  0  0
  1  8  1  0  0  0  0
  2  5  1  6  0  0  0
  2  3  1  0  0  0  0
  2 17  1  0  0  0  0
  2  1  1  0  0  0  0
  3  7  1  0  0  0  0
  3  1  1  0  0  0  0
  6  3  1  0  0  0  0
  8 13  2  0  0  0  0
  8  9  1  0  0  0  0
  9 10  2  0  0  0  0
 10 11  1  0  0  0  0
 10 15  1  0  0  0  0
 12 16  1  0  0  0  0
 12 11  2  0  0  0  0
 13 12  1  0  0  0  0
 14  9  1  0  0  0  0
 19 18  1  0  0  0  0
 20 17  1  0  0  0  0
 20 19  2  0  0  0  0
 21 20  1  0  0  0  0
 22 21  1  0  0  0  0
 23 21  2  0  0  0  0
 23 24  1  0  0  0  0
 24 26  2  0  0  0  0
 25 24  1  0  0  0  0
 26 19  1  0  0  0  0
 26 27  1  0  0  0  0
M  END
>  <minimizedAffinity>
-4.86240387

$$$$

 OpenBabel03272507173D

 27 29  0  0  1  0  0  0  0  0999 V2000
   37.6430   27.2120   34.7820 C   0  0  1  0  0  0  0  0  0  0  0  0
   37.7310   26.1990   35.8080 C   0  0  2  0  0  0  0  0  0  0  0  0
   38.9080   27.1410   35.6430 C   0  0  0  0  0  0  0  0  0  0  0  0
   37.0570   28.1710   34.8980 H   0  0  0  0  0  0  0  0  0  0  0  0
   37.0450   26.3160   36.6770 H   0  0  0  0  0  0  0  0  0  0  0  0
   38.9520   27.8950   36.4530 H   0  0  0  0  0  0  0  0  0  0  0  0
   39.8330   26.7410   35.1970 H   0  0  0  0  0  0  0  0  0  0  0  0
   37.9230   26.8890   33.3290 C   0  0  0  0  0  0  0  0  0  0  0  0
   36.9180   26.2070   32.6420 C   0  0  0  0  0  0  0  0  0  0  0  0
   37.2040   25.8990   31.3220 C   0  0  0  0  0  0  0  0  0  0  0  0
   38.4070   26.2590   30.7660 N   0  0  0  0  0  0  0  0  0  0  0  0
   39.3550   26.9220   31.4730 C   0  0  0  0  0  0  0  0  0  0  0  0
   39.1130   27.2460   32.7780 N   0  0  0  0  0  0  0  0  0  0  0  0
   35.9920   25.9520   33.1380 H   0  0  0  0  0  0  0  0  0  0  0  0
   36.4490   25.3720   30.7600 H   0  0  0  0  0  0  0  0  0  0  0  0
   40.2830   27.1790   30.9790 H   0  0  0  0  0  0  0  0  0  0  0  0
   37.9730   24.8680   35.4370 O   0  0  0  0  0  0  0  0  0  0  0  0
   39.8480   23.8270   33.3880 Cl  0  0  0  0  0  0  0  0  0  0  0  0
   39.7790   23.4660   35.1040 C   0  0  0  0  0  0  0  0  0  0  0  0
   38.8640   23.9990   36.0030 C   0  0  0  0  0  0  0  0  0  0  0  0
   38.9410   23.6150   37.3210 C   0  0  0  0  0  0  0  0  0  0  0  0
   38.2080   24.0550   37.9880 H   0  0  0  0  0  0  0  0  0  0  0  0
   39.8770   22.7290   37.8060 C   0  0  0  0  0  3  0  0  0  0  0  0
   40.7880   22.2000   36.9050 C   0  0  0  0  0  0  0  0  0  0  0  0
   41.9930   21.0710   37.4780 Cl  0  0  0  0  0  0  0  0  0  0  0  0
   40.7370   22.5660   35.5710 C   0  0  0  0  0  0  0  0  0  0  0  0
   41.4700   22.1200   34.9290 H   0  0  0  0  0  0  0  0  0  0  0  0
  1  4  1  1  0  0  0
  1  3  1  0  0  0  0
  1  2  1  0  0  0  0
  2  5  1  1  0  0  0
  3  2  1  0  0  0  0
  3  6  1  0  0  0  0
  7  3  1  0  0  0  0
  8  1  1  0  0  0  0
  9 14  1  0  0  0  0
  9  8  2  0  0  0  0
 10  9  1  0  0  0  0
 11 10  2  0  0  0  0
 11 12  1  0  0  0  0
 12 13  2  0  0  0  0
 13  8  1  0  0  0  0
 15 10  1  0  0  0  0
 16 12  1  0  0  0  0
 17  2  1  0  0  0  0
 17 20  1  0  0  0  0
 18 19  1  0  0  0  0
 19 26  2  0  0  0  0
 19 20  1  0  0  0  0
 20 21  2  0  0  0  0
 21 23  1  0  0  0  0
 21 22  1  0  0  0  0
 24 25  1  0  0  0  0
 24 23  2  0  0  0  0
 26 24  1  0  0  0  0
 27 26  1  0  0  0  0
M  END
>  <minimizedAffinity>
-4.61717987

$$$$

 OpenBabel03272507173D

 27 29  0  0  1  0  0  0  0  0999 V2000
   39.2990   24.0960   36.5150 C   0  0  1  0  0  0  0  0  0  0  0  0
   37.9330   23.6300   36.4710 C   0  0  2  0  0  0  0  0  0  0  0  0
   38.5200   23.9640   37.8280 C   0  0  0  0  0  0  0  0  0  0  0  0
   39.6080   25.1530   36.2650 H   0  0  0  0  0  0  0  0  0  0  0  0
   37.1910   24.3180   36.0020 H   0  0  0  0  0  0  0  0  0  0  0  0
   38.1280   24.9200   38.2250 H   0  0  0  0  0  0  0  0  0  0  0  0
   38.7600   23.1300   38.5070 H   0  0  0  0  0  0  0  0  0  0  0  0
   40.4640   23.1300   36.4430 C   0  0  0  0  0  0  0  0  0  0  0  0
   41.2730   23.2210   35.3110 C   0  0  0  0  0  0  0  0  0  0  0  0
   42.3170   22.3130   35.2530 C   0  0  0  0  0  0  0  0  0  0  0  0
   42.5080   21.4020   36.2620 N   0  0  0  0  0  0  0  0  0  0  0  0
   41.6940   21.3510   37.3460 C   0  0  0  0  0  0  0  0  0  0  0  0
   40.6520   22.2290   37.4430 N   0  0  0  0  0  0  0  0  0  0  0  0
   41.0690   23.9620   34.5510 H   0  0  0  0  0  0  0  0  0  0  0  0
   42.9650   22.3550   34.3900 H   0  0  0  0  0  0  0  0  0  0  0  0
   41.8960   20.6100   38.1090 H   0  0  0  0  0  0  0  0  0  0  0  0
   37.6790   22.2690   36.2450 O   0  0  0  0  0  0  0  0  0  0  0  0
   35.0800   20.9120   36.6910 Cl  0  0  0  0  0  0  0  0  0  0  0  0
   36.0230   21.0300   35.2150 C   0  0  0  0  0  0  0  0  0  0  0  0
   37.2390   21.6880   35.0880 C   0  0  0  0  0  0  0  0  0  0  0  0
   37.8570   21.6910   33.8600 C   0  0  0  0  0  0  0  0  0  0  0  0
   38.8040   22.2160   33.8050 H   0  0  0  0  0  0  0  0  0  0  0  0
   37.3380   21.0760   32.7410 C   0  0  0  0  0  3  0  0  0  0  0  0
   36.1240   20.4210   32.8740 C   0  0  0  0  0  0  0  0  0  0  0  0
   35.4290   19.6270   31.4800 Cl  0  0  0  0  0  0  0  0  0  0  0  0
   35.4770   20.4000   34.0970 C   0  0  0  0  0  0  0  0  0  0  0  0
   34.5430   19.8750   34.1300 H   0  0  0  0  0  0  0  0  0  0  0  0
  1  4  1  6  0  0  0
  1  3  1  0  0  0  0
  2  5  1  6  0  0  0
  2  1  1  0  0  0  0
  2  3  1  0  0  0  0
  3  6  1  0  0  0  0
  3  7  1  0  0  0  0
  8  1  1  0  0  0  0
  8 13  1  0  0  0  0
  9  8  2  0  0  0  0
 10  9  1  0  0  0  0
 10 11  2  0  0  0  0
 11 12  1  0  0  0  0
 12 13  2  0  0  0  0
 12 16  1  0  0  0  0
 14  9  1  0  0  0  0
 15 10  1  0  0  0  0
 17  2  1  0  0  0  0
 19 18  1  0  0  0  0
 20 19  1  0  0  0  0
 20 17  1  0  0  0  0
 21 20  2  0  0  0  0
 22 21  1  0  0  0  0
 23 24  2  0  0  0  0
 23 21  1  0  0  0  0
 24 26  1  0  0  0  0
 25 24  1  0  0  0  0
 26 27  1  0  0  0  0
 26 19  2  0  0  0  0
M  END
>  <minimizedAffinity>
-4.60324526

$$$$

 OpenBabel03272507173D

 27 29  0  0  1  0  0  0  0  0999 V2000
   36.1160   25.0780   31.5950 C   0  0  1  0  0  0  0  0  0  0  0  0
   36.6770   25.9710   32.5820 C   0  0  2  0  0  0  0  0  0  0  0  0
   36.7960   26.3670   31.1230 C   0  0  0  0  0  0  0  0  0  0  0  0
   35.0130   25.0230   31.3570 H   0  0  0  0  0  0  0  0  0  0  0  0
   35.9510   26.4980   33.2420 H   0  0  0  0  0  0  0  0  0  0  0  0
   36.0960   27.1830   30.8560 H   0  0  0  0  0  0  0  0  0  0  0  0
   37.7880   26.3020   30.6480 H   0  0  0  0  0  0  0  0  0  0  0  0
   36.8590   23.8400   31.1380 C   0  0  0  0  0  0  0  0  0  0  0  0
   36.3310   22.6160   31.5470 C   0  0  0  0  0  0  0  0  0  0  0  0
   37.0390   21.4970   31.1400 C   0  0  0  0  0  0  0  0  0  0  0  0
   38.1790   21.6290   30.3860 N   0  0  0  0  0  0  0  0  0  0  0  0
   38.6560   22.8420   30.0120 C   0  0  0  0  0  0  0  0  0  0  0  0
   37.9880   23.9710   30.3920 N   0  0  0  0  0  0  0  0  0  0  0  0
   35.4280   22.5800   32.1400 H   0  0  0  0  0  0  0  0  0  0  0  0
   36.6590   20.5320   31.4380 H   0  0  0  0  0  0  0  0  0  0  0  0
   39.5600   22.8810   29.4170 H   0  0  0  0  0  0  0  0  0  0  0  0
   37.8840   25.6270   33.2100 O   0  0  0  0  0  0  0  0  0  0  0  0
   37.8560   27.6020   35.4230 Cl  0  0  0  0  0  0  0  0  0  0  0  0
   38.0390   25.8590   35.5040 C   0  0  0  0  0  0  0  0  0  0  0  0
   38.0410   24.9980   34.4130 C   0  0  0  0  0  0  0  0  0  0  0  0
   38.1960   23.6510   34.6430 C   0  0  0  0  0  0  0  0  0  0  0  0
   38.1910   23.0160   33.7640 H   0  0  0  0  0  0  0  0  0  0  0  0
   38.3500   23.1020   35.8970 C   0  0  0  0  0  3  0  0  0  0  0  0
   38.3460   23.9650   36.9810 C   0  0  0  0  0  0  0  0  0  0  0  0
   38.5390   23.3100   38.5900 Cl  0  0  0  0  0  0  0  0  0  0  0  0
   38.1930   25.3260   36.7840 C   0  0  0  0  0  0  0  0  0  0  0  0
   38.2010   25.9360   37.6650 H   0  0  0  0  0  0  0  0  0  0  0  0
  1  4  1  6  0  0  0
  1  2  1  0  0  0  0
  2 17  1  0  0  0  0
  2  5  1  1  0  0  0
  3  1  1  0  0  0  0
  3  2  1  0  0  0  0
  6  3  1  0  0  0  0
  7  3  1  0  0  0  0
  8  9  1  0  0  0  0
  8  1  1  0  0  0  0
  9 14  1  0  0  0  0
 10 15  1  0  0  0  0
 10  9  2  0  0  0  0
 11 10  1  0  0  0  0
 12 11  2  0  0  0  0
 12 13  1  0  0  0  0
 13  8  2  0  0  0  0
 16 12  1  0  0  0  0
 17 20  1  0  0  0  0
 18 19  1  0  0  0  0
 19 26  1  0  0  0  0
 20 21  1  0  0  0  0
 20 19  2  0  0  0  0
 21 23  2  0  0  0  0
 22 21  1  0  0  0  0
 23 24  1  0  0  0  0
 24 25  1  0  0  0  0
 26 24  2  0  0  0  0
 26 27  1  0  0  0  0
M  END
>  <minimizedAffinity>
-4.56576395

$$$$

 OpenBabel03272507173D

 27 29  0  0  1  0  0  0  0  0999 V2000
   37.9730   22.7260   34.5890 C   0  0  1  0  0  0  0  0  0  0  0  0
   38.1090   23.7430   33.5730 C   0  0  2  0  0  0  0  0  0  0  0  0
   39.1820   22.6750   33.6500 C   0  0  0  0  0  0  0  0  0  0  0  0
   37.2790   21.8390   34.4980 H   0  0  0  0  0  0  0  0  0  0  0  0
   37.3610   23.7190   32.7470 H   0  0  0  0  0  0  0  0  0  0  0  0
   39.0930   21.9370   32.8290 H   0  0  0  0  0  0  0  0  0  0  0  0
   40.1720   22.9620   34.0410 H   0  0  0  0  0  0  0  0  0  0  0  0
   38.3770   22.9870   36.0250 C   0  0  0  0  0  0  0  0  0  0  0  0
   39.6090   22.4710   36.4250 C   0  0  0  0  0  0  0  0  0  0  0  0
   39.9490   22.7000   37.7490 C   0  0  0  0  0  0  0  0  0  0  0  0
   39.1000   23.3920   38.5770 N   0  0  0  0  0  0  0  0  0  0  0  0
   37.9090   23.8760   38.1440 C   0  0  0  0  0  0  0  0  0  0  0  0
   37.5370   23.6730   36.8450 N   0  0  0  0  0  0  0  0  0  0  0  0
   40.2320   21.9340   35.7230 H   0  0  0  0  0  0  0  0  0  0  0  0
   40.8960   22.3140   38.0930 H   0  0  0  0  0  0  0  0  0  0  0  0
   37.2850   24.4140   38.8450 H   0  0  0  0  0  0  0  0  0  0  0  0
   38.5180   25.0320   33.9440 O   0  0  0  0  0  0  0  0  0  0  0  0
   38.8040   26.0040   31.1560 Cl  0  0  0  0  0  0  0  0  0  0  0  0
   37.9160   26.7230   32.4880 C   0  0  0  0  0  0  0  0  0  0  0  0
   37.8310   26.2010   33.7730 C   0  0  0  0  0  0  0  0  0  0  0  0
   37.0930   26.8860   34.7100 C   0  0  0  0  0  0  0  0  0  0  0  0
   37.0530   26.4440   35.6990 H   0  0  0  0  0  0  0  0  0  0  0  0
   36.4290   28.0640   34.4490 C   0  0  0  0  0  3  0  0  0  0  0  0
   36.5170   28.5790   33.1650 C   0  0  0  0  0  0  0  0  0  0  0  0
   35.6900   30.0730   32.7900 Cl  0  0  0  0  0  0  0  0  0  0  0  0
   37.2520   27.9150   32.1990 C   0  0  0  0  0  0  0  0  0  0  0  0
   37.2790   28.3680   31.2280 H   0  0  0  0  0  0  0  0  0  0  0  0
  1  4  1  6  0  0  0
  1  8  1  0  0  0  0
  2  5  1  6  0  0  0
  2  3  1  0  0  0  0
  2 17  1  0  0  0  0
  2  1  1  0  0  0  0
  3  7  1  0  0  0  0
  3  1  1  0  0  0  0
  6  3  1  0  0  0  0
  8  9  2  0  0  0  0
  8 13  1  0  0  0  0
  9 10  1  0  0  0  0
 10 15  1  0  0  0  0
 10 11  2  0  0  0  0
 12 11  1  0  0  0  0
 12 16  1  0  0  0  0
 13 12  2  0  0  0  0
 14  9  1  0  0  0  0
 18 19  1  0  0  0  0
 19 20  1  0  0  0  0
 20 17  1  0  0  0  0
 20 21  2  0  0  0  0
 21 22  1  0  0  0  0
 23 21  1  0  0  0  0
 24 23  2  0  0  0  0
 25 24  1  0  0  0  0
 26 19  2  0  0  0  0
 26 24  1  0  0  0  0
 27 26  1  0  0  0  0
M  END
>  <minimizedAffinity>
-4.55324507

$$$$

 OpenBabel03272507173D

 27 29  0  0  1  0  0  0  0  0999 V2000
   36.3840   23.5440   30.9270 C   0  0  1  0  0  0  0  0  0  0  0  0
   36.8150   24.9160   31.0500 C   0  0  2  0  0  0  0  0  0  0  0  0
   37.7980   23.9180   30.4730 C   0  0  0  0  0  0  0  0  0  0  0  0
   35.7150   23.1700   30.0960 H   0  0  0  0  0  0  0  0  0  0  0  0
   36.3140   25.6540   30.3810 H   0  0  0  0  0  0  0  0  0  0  0  0
   37.9120   24.0330   29.3770 H   0  0  0  0  0  0  0  0  0  0  0  0
   38.6550   23.6150   31.0960 H   0  0  0  0  0  0  0  0  0  0  0  0
   36.3950   22.6040   32.1140 C   0  0  0  0  0  0  0  0  0  0  0  0
   35.3500   21.6840   32.1840 C   0  0  0  0  0  0  0  0  0  0  0  0
   35.3650   20.8500   33.2910 C   0  0  0  0  0  0  0  0  0  0  0  0
   36.3600   20.9550   34.2310 N   0  0  0  0  0  0  0  0  0  0  0  0
   37.3590   21.8670   34.1200 C   0  0  0  0  0  0  0  0  0  0  0  0
   37.3810   22.7080   33.0440 N   0  0  0  0  0  0  0  0  0  0  0  0
   34.5960   21.6510   31.4100 H   0  0  0  0  0  0  0  0  0  0  0  0
   34.5710   20.1250   33.3780 H   0  0  0  0  0  0  0  0  0  0  0  0
   38.1150   21.9010   34.8940 H   0  0  0  0  0  0  0  0  0  0  0  0
   37.1450   25.4200   32.3180 O   0  0  0  0  0  0  0  0  0  0  0  0
   37.9110   25.5540   35.1800 Cl  0  0  0  0  0  0  0  0  0  0  0  0
   37.0970   26.7610   34.1990 C   0  0  0  0  0  0  0  0  0  0  0  0
   36.7730   26.6190   32.8560 C   0  0  0  0  0  0  0  0  0  0  0  0
   36.1320   27.6600   32.2240 C   0  0  0  0  0  0  0  0  0  0  0  0
   35.8980   27.5080   31.1770 H   0  0  0  0  0  0  0  0  0  0  0  0
   35.7920   28.8400   32.8480 C   0  0  0  0  0  3  0  0  0  0  0  0
   36.1190   28.9760   34.1880 C   0  0  0  0  0  0  0  0  0  0  0  0
   35.7060   30.4570   35.0190 Cl  0  0  0  0  0  0  0  0  0  0  0  0
   36.7640   27.9470   34.8530 C   0  0  0  0  0  0  0  0  0  0  0  0
   36.9860   28.1170   35.8870 H   0  0  0  0  0  0  0  0  0  0  0  0
  1  4  1  6  0  0  0
  1  2  1  0  0  0  0
  1  8  1  0  0  0  0
  2  5  1  6  0  0  0
  2 17  1  0  0  0  0
  3  1  1  0  0  0  0
  3  2  1  0  0  0  0
  3  7  1  0  0  0  0
  6  3  1  0  0  0  0
  8  9  2  0  0  0  0
  8 13  1  0  0  0  0
  9 10  1  0  0  0  0
 10 15  1  0  0  0  0
 10 11  2  0  0  0  0
 12 11  1  0  0  0  0
 12 16  1  0  0  0  0
 13 12  2  0  0  0  0
 14  9  1  0  0  0  0
 17 20  1  0  0  0  0
 19 26  1  0  0  0  0
 19 18  1  0  0  0  0
 20 19  2  0  0  0  0
 21 23  2  0  0  0  0
 21 20  1  0  0  0  0
 22 21  1  0  0  0  0
 23 24  1  0  0  0  0
 24 26  2  0  0  0  0
 24 25  1  0  0  0  0
 26 27  1  0  0  0  0
M  END
>  <minimizedAffinity>
-4.53347683

$$$$

 OpenBabel03272507173D

 27 29  0  0  1  0  0  0  0  0999 V2000
   39.2380   26.2430   35.7920 C   0  0  1  0  0  0  0  0  0  0  0  0
   38.9750   27.1380   34.6900 C   0  0  2  0  0  0  0  0  0  0  0  0
   38.1810   27.3380   35.9660 C   0  0  0  0  0  0  0  0  0  0  0  0
   40.1270   26.3440   36.4820 H   0  0  0  0  0  0  0  0  0  0  0  0
   39.7900   27.8500   34.4260 H   0  0  0  0  0  0  0  0  0  0  0  0
   38.5280   28.2220   36.5360 H   0  0  0  0  0  0  0  0  0  0  0  0
   37.1160   27.0550   35.9640 H   0  0  0  0  0  0  0  0  0  0  0  0
   38.6340   24.8550   35.8420 C   0  0  0  0  0  0  0  0  0  0  0  0
   38.0810   24.4650   37.0610 C   0  0  0  0  0  0  0  0  0  0  0  0
   37.5570   23.1830   37.0920 C   0  0  0  0  0  0  0  0  0  0  0  0
   37.6000   22.3830   35.9770 N   0  0  0  0  0  0  0  0  0  0  0  0
   38.1490   22.8060   34.8110 C   0  0  0  0  0  0  0  0  0  0  0  0
   38.6770   24.0630   34.7370 N   0  0  0  0  0  0  0  0  0  0  0  0
   38.0780   25.1420   37.9030 H   0  0  0  0  0  0  0  0  0  0  0  0
   37.1200   22.8470   38.0200 H   0  0  0  0  0  0  0  0  0  0  0  0
   38.1530   22.1290   33.9660 H   0  0  0  0  0  0  0  0  0  0  0  0
   38.2360   26.6740   33.5910 O   0  0  0  0  0  0  0  0  0  0  0  0
   35.9600   28.5530   33.2920 Cl  0  0  0  0  0  0  0  0  0  0  0  0
   37.1700   28.0900   32.1080 C   0  0  0  0  0  0  0  0  0  0  0  0
   38.2110   27.1980   32.3290 C   0  0  0  0  0  0  0  0  0  0  0  0
   39.0810   26.9370   31.2950 C   0  0  0  0  0  0  0  0  0  0  0  0
   39.8790   26.2360   31.5110 H   0  0  0  0  0  0  0  0  0  0  0  0
   38.9800   27.5130   30.0480 C   0  0  0  0  0  3  0  0  0  0  0  0
   37.9400   28.4040   29.8340 C   0  0  0  0  0  0  0  0  0  0  0  0
   37.7740   29.1570   28.2650 Cl  0  0  0  0  0  0  0  0  0  0  0  0
   37.0470   28.6860   30.8530 C   0  0  0  0  0  0  0  0  0  0  0  0
   36.2660   29.3820   30.6200 H   0  0  0  0  0  0  0  0  0  0  0  0
  1  8  1  0  0  0  0
  1  3  1  0  0  0  0
  1  4  1  1  0  0  0
  2  5  1  6  0  0  0
  2  1  1  0  0  0  0
  2  3  1  0  0  0  0
  3  6  1  0  0  0  0
  7  3  1  0  0  0  0
  8  9  1  0  0  0  0
  9 10  2  0  0  0  0
  9 14  1  0  0  0  0
 10 15  1  0  0  0  0
 11 10  1  0  0  0  0
 12 11  2  0  0  0  0
 13 12  1  0  0  0  0
 13  8  2  0  0  0  0
 16 12  1  0  0  0  0
 17  2  1  0  0  0  0
 19 20  1  0  0  0  0
 19 18  1  0  0  0  0
 20 17  1  0  0  0  0
 21 22  1  0  0  0  0
 21 20  2  0  0  0  0
 23 21  1  0  0  0  0
 24 23  2  0  0  0  0
 24 26  1  0  0  0  0
 25 24  1  0  0  0  0
 26 19  2  0  0  0  0
 27 26  1  0  0  0  0
M  END
>  <minimizedAffinity>
-4.52031088

$$$$

 OpenBabel03272507173D

 27 29  0  0  1  0  0  0  0  0999 V2000
   38.8330   25.5930   34.7140 C   0  0  1  0  0  0  0  0  0  0  0  0
   38.7140   25.0900   33.3660 C   0  0  2  0  0  0  0  0  0  0  0  0
   37.4480   25.5500   34.0610 C   0  0  0  0  0  0  0  0  0  0  0  0
   39.1950   26.6350   34.9640 H   0  0  0  0  0  0  0  0  0  0  0  0
   39.1650   25.7170   32.5630 H   0  0  0  0  0  0  0  0  0  0  0  0
   37.0930   26.5260   33.6760 H   0  0  0  0  0  0  0  0  0  0  0  0
   36.7290   24.7820   34.3900 H   0  0  0  0  0  0  0  0  0  0  0  0
   38.9350   24.6560   35.8990 C   0  0  0  0  0  0  0  0  0  0  0  0
   39.9960   23.7510   35.8820 C   0  0  0  0  0  0  0  0  0  0  0  0
   40.0570   22.8850   36.9620 C   0  0  0  0  0  0  0  0  0  0  0  0
   39.1170   22.9490   37.9610 N   0  0  0  0  0  0  0  0  0  0  0  0
   38.1010   23.8480   37.9360 C   0  0  0  0  0  0  0  0  0  0  0  0
   38.0050   24.7200   36.8890 N   0  0  0  0  0  0  0  0  0  0  0  0
   40.7030   23.7510   35.0640 H   0  0  0  0  0  0  0  0  0  0  0  0
   40.8650   22.1710   36.9820 H   0  0  0  0  0  0  0  0  0  0  0  0
   37.3920   23.8490   38.7530 H   0  0  0  0  0  0  0  0  0  0  0  0
   38.8060   23.7090   33.1390 O   0  0  0  0  0  0  0  0  0  0  0  0
   37.6400   23.9640   30.4230 Cl  0  0  0  0  0  0  0  0  0  0  0  0
   37.1740   22.8840   31.7250 C   0  0  0  0  0  0  0  0  0  0  0  0
   37.7760   22.8260   32.9760 C   0  0  0  0  0  0  0  0  0  0  0  0
   37.2930   21.9210   33.8930 C   0  0  0  0  0  0  0  0  0  0  0  0
   37.7910   21.9080   34.8560 H   0  0  0  0  0  0  0  0  0  0  0  0
   36.2440   21.0640   33.6420 C   0  0  0  0  0  3  0  0  0  0  0  0
   35.6490   21.1260   32.3920 C   0  0  0  0  0  0  0  0  0  0  0  0
   34.3140   20.0560   32.0320 Cl  0  0  0  0  0  0  0  0  0  0  0  0
   36.1100   22.0260   31.4480 C   0  0  0  0  0  0  0  0  0  0  0  0
   35.6050   22.0220   30.5030 H   0  0  0  0  0  0  0  0  0  0  0  0
  1  4  1  1  0  0  0
  1  8  1  0  0  0  0
  2  5  1  6  0  0  0
  2  3  1  0  0  0  0
  2  1  1  0  0  0  0
  3  7  1  0  0  0  0
  3  1  1  0  0  0  0
  6  3  1  0  0  0  0
  8 13  1  0  0  0  0
  9  8  2  0  0  0  0
  9 10  1  0  0  0  0
 10 15  1  0  0  0  0
 10 11  2  0  0  0  0
 12 11  1  0  0  0  0
 12 16  1  0  0  0  0
 13 12  2  0  0  0  0
 14  9  1  0  0  0  0
 17  2  1  0  0  0  0
 18 19  1  0  0  0  0
 19 20  1  0  0  0  0
 20 17  1  0  0  0  0
 20 21  2  0  0  0  0
 21 22  1  0  0  0  0
 23 21  1  0  0  0  0
 24 23  2  0  0  0  0
 25 24  1  0  0  0  0
 26 19  2  0  0  0  0
 26 24  1  0  0  0  0
 27 26  1  0  0  0  0
M  END
>  <minimizedAffinity>
-4.50947046

$$$$
