
 OpenBabel03272508483D

 41 45  0  0  0  0  0  0  0  0999 V2000
   35.5250   29.5310   49.6060 C   0  0  0  0  0  0  0  0  0  0  0  0
   36.5810   29.1140   50.3950 C   0  0  0  0  0  0  0  0  0  0  0  0
   37.6920   29.6580   49.7580 C   0  0  0  0  0  0  0  0  0  0  0  0
   37.2780   30.3600   48.6420 C   0  0  0  0  0  0  0  0  0  0  0  0
   35.9740   30.2570   48.5900 O   0  0  0  0  0  0  0  0  0  0  0  0
   36.5320   28.5200   51.2760 H   0  0  0  0  0  0  0  0  0  0  0  0
   38.7150   29.5150   50.1330 H   0  0  0  0  0  0  0  0  0  0  0  0
   38.6470   32.2990   48.0500 C   0  0  0  0  0  0  0  0  0  0  0  0
   38.1220   31.0750   47.7050 C   0  0  0  0  0  0  0  0  0  0  0  0
   38.3860   30.4970   46.4630 C   0  0  0  0  0  0  0  0  0  0  0  0
   39.1890   31.1530   45.5470 C   0  0  0  0  0  0  0  0  0  0  0  0
   39.6190   30.8690   44.3020 N   0  0  0  0  0  0  0  0  0  0  0  0
   40.3780   31.8910   43.9100 N   0  0  0  0  0  0  0  0  0  0  0  0
   40.4420   32.8250   44.8830 C   0  0  0  0  0  0  0  0  0  0  0  0
   39.6810   32.3710   45.9530 C   0  0  0  0  0  0  0  0  0  0  0  0
   39.4640   32.9920   47.1480 C   0  0  0  0  0  0  0  0  0  0  0  0
   38.4280   32.7380   49.0330 H   0  0  0  0  0  0  0  0  0  0  0  0
   37.9970   29.5320   46.1430 H   0  0  0  0  0  0  0  0  0  0  0  0
   39.3850   30.0060   43.7740 H   0  0  0  0  0  0  0  0  0  0  0  0
   40.9980   33.7760   44.8370 H   0  0  0  0  0  0  0  0  0  0  0  0
   39.8670   33.9390   47.4170 H   0  0  0  0  0  0  0  0  0  0  0  0
   34.1300   29.2140   49.8600 C   0  0  0  0  0  0  0  0  0  0  0  0
   33.5830   29.7440   50.8550 O   0  0  0  0  0  0  0  0  0  0  0  0
   31.4060   27.2580   48.4330 C   0  0  0  0  0  0  0  0  0  0  0  0
   32.0200   26.6180   47.3510 C   0  0  0  0  0  0  0  0  0  0  0  0
   33.3510   26.8440   47.1040 C   0  0  0  0  0  0  0  0  0  0  0  0
   34.0130   27.6910   47.9320 N   0  0  0  0  0  0  0  0  0  0  0  0
   33.4130   28.3050   48.9740 C   0  0  0  0  0  0  0  0  0  0  0  0
   32.1060   28.0850   49.2200 N   0  0  0  0  0  0  0  0  0  0  0  0
   30.3750   27.1140   48.6640 H   0  0  0  0  0  0  0  0  0  0  0  0
   31.4280   25.9630   46.7440 H   0  0  0  0  0  0  0  0  0  0  0  0
   34.2450   24.0410   47.6170 Cl  0  0  0  0  0  0  0  0  0  0  0  0
   34.5000   24.9090   46.1370 C   0  0  0  0  0  0  0  0  0  0  0  0
   34.0470   26.2070   45.9950 C   0  0  0  0  0  0  0  0  0  0  0  0
   34.3020   26.7880   44.7940 C   0  0  0  0  0  0  0  0  0  0  0  0
   33.9750   27.7980   44.6180 H   0  0  0  0  0  0  0  0  0  0  0  0
   34.9650   26.1500   43.7640 C   0  0  0  0  0  3  0  0  0  0  0  0
   35.4070   24.8490   43.9380 C   0  0  0  0  0  0  0  0  0  0  0  0
   36.2500   24.0880   42.5850 Cl  0  0  0  0  0  0  0  0  0  0  0  0
   35.1690   24.2140   45.1540 C   0  0  0  0  0  0  0  0  0  0  0  0
   35.5250   23.2010   45.2570 H   0  0  0  0  0  0  0  0  0  0  0  0
  1 22  1  0  0  0  0
  1  2  2  0  0  0  0
  2  6  1  0  0  0  0
  3  7  1  0  0  0  0
  3  2  1  0  0  0  0
  4  3  2  0  0  0  0
  5  4  1  0  0  0  0
  5  1  1  0  0  0  0
  8 17  1  0  0  0  0
  9  8  1  0  0  0  0
  9  4  1  0  0  0  0
 10  9  2  0  0  0  0
 11 15  2  0  0  0  0
 11 10  1  0  0  0  0
 12 11  1  0  0  0  0
 13 12  1  0  0  0  0
 13 14  2  0  0  0  0
 14 15  1  0  0  0  0
 15 16  1  0  0  0  0
 16 21  1  0  0  0  0
 16  8  2  0  0  0  0
 18 10  1  0  0  0  0
 19 12  1  0  0  0  0
 20 14  1  0  0  0  0
 22 23  2  0  0  0  0
 24 30  1  0  0  0  0
 24 29  1  0  0  0  0
 25 24  2  0  0  0  0
 26 25  1  0  0  0  0
 26 27  2  0  0  0  0
 27 28  1  0  0  0  0
 28 29  2  0  0  0  0
 28 22  1  0  0  0  0
 31 25  1  0  0  0  0
 33 32  1  0  0  0  0
 34 33  1  0  0  0  0
 34 26  1  0  0  0  0
 35 34  2  0  0  0  0
 36 35  1  0  0  0  0
 37 38  2  0  0  0  0
 37 35  1  0  0  0  0
 38 40  1  0  0  0  0
 39 38  1  0  0  0  0
 40 41  1  0  0  0  0
 40 33  2  0  0  0  0
M  END
>  <minimizedAffinity>
-6.83289385

>  <minimizedRMSD>
0.869052112

$$$$
