
 OpenBabel03262522103D

 30 32  0  0  0  0  0  0  0  0999 V2000
   38.4270   31.4950   46.2460 C   0  0  0  0  0  0  0  0  0  0  0  0
   39.1140   32.5260   46.8710 C   0  0  0  0  0  0  0  0  0  0  0  0
   40.2110   33.0810   46.2400 C   0  0  0  0  0  0  0  0  0  0  0  0
   40.5470   32.5470   45.0010 C   0  0  0  0  0  0  0  0  0  0  0  0
   39.8590   31.5270   44.3990 C   0  0  0  0  0  0  0  0  0  0  0  0
   38.7720   30.9850   45.0340 N   0  0  0  0  0  0  0  0  0  0  0  0
   38.8090   32.9050   47.8360 H   0  0  0  0  0  0  0  0  0  0  0  0
   40.7440   33.8740   46.7110 H   0  0  0  0  0  0  0  0  0  0  0  0
   41.4110   33.0090   44.5450 H   0  0  0  0  0  0  0  0  0  0  0  0
   38.8160   33.0610   42.0740 Cl  0  0  0  0  0  0  0  0  0  0  0  0
   39.8250   31.6170   41.9380 C   0  0  0  0  0  0  0  0  0  0  0  0
   40.2430   30.9970   43.1020 C   0  0  0  0  0  0  0  0  0  0  0  0
   41.0220   29.8860   42.9220 C   0  0  0  0  0  0  0  0  0  0  0  0
   41.3870   29.3480   43.7590 H   0  0  0  0  0  0  0  0  0  0  0  0
   41.3790   29.3940   41.6730 C   0  0  0  0  0  0  0  0  0  0  0  0
   40.9130   30.0810   40.5670 C   0  0  0  0  0  0  0  0  0  0  0  0
   41.3540   29.4760   38.9810 Cl  0  0  0  0  0  0  0  0  0  0  0  0
   40.1240   31.2100   40.6550 C   0  0  0  0  0  0  0  0  0  0  0  0
   39.7610   31.7450   39.7950 H   0  0  0  0  0  0  0  0  0  0  0  0
   37.2820   30.9470   46.9620 C   0  0  0  0  0  0  0  0  0  0  0  0
   36.2730   30.5730   46.3640 O   0  0  0  0  0  0  0  0  0  0  0  0
   37.4780   29.5330   49.0020 C   0  0  0  0  0  0  0  0  0  0  0  0
   37.2650   30.8100   48.4270 C   0  0  0  0  0  0  0  0  0  0  0  0
   37.0500   31.8790   49.2640 C   0  0  0  0  0  0  0  0  0  0  0  0
   37.0530   31.6520   50.6180 N   0  0  0  0  0  0  0  0  0  0  0  0
   37.2600   30.4250   51.1380 C   0  0  0  0  0  0  0  0  0  0  0  0
   37.4710   29.3710   50.3430 N   0  0  0  0  0  0  0  0  0  0  0  0
   37.6480   28.6930   48.3380 H   0  0  0  0  0  0  0  0  0  0  0  0
   36.8860   32.8520   48.8490 H   0  0  0  0  0  0  0  0  0  0  0  0
   37.2470   30.3270   52.2170 H   0  0  0  0  0  0  0  0  0  0  0  0
  1  2  1  0  0  0  0
  1 20  1  0  0  0  0
  2  7  1  0  0  0  0
  3  8  1  0  0  0  0
  3  2  2  0  0  0  0
  4  3  1  0  0  0  0
  5  4  2  0  0  0  0
  5  6  1  0  0  0  0
  6  1  2  0  0  0  0
  9  4  1  0  0  0  0
 11 10  1  0  0  0  0
 11 12  1  0  0  0  0
 12  5  1  0  0  0  0
 13 12  2  0  0  0  0
 13 14  1  0  0  0  0
 15 13  1  0  0  0  0
 16 18  1  0  0  0  0
 16 15  2  0  0  0  0
 17 16  1  0  0  0  0
 18 11  2  0  0  0  0
 19 18  1  0  0  0  0
 20 23  1  0  0  0  0
 21 20  2  0  0  0  0
 22 27  1  0  0  0  0
 23 22  2  0  0  0  0
 23 24  1  0  0  0  0
 24 25  2  0  0  0  0
 25 26  1  0  0  0  0
 26 30  1  0  0  0  0
 27 26  2  0  0  0  0
 28 22  1  0  0  0  0
 29 24  1  0  0  0  0
M  END
>  <minimizedAffinity>
-5.51195145

>  <minimizedRMSD>
4.03371716

$$$$
