
 OpenBabel03272505123D

 40 43  0  0  0  0  0  0  0  0999 V2000
   34.0660   29.9720   47.5560 S   0  0  0  0  0  0  0  0  0  0  0  0
   36.4110   30.9120   45.7210 Cl  0  0  0  0  0  0  0  0  0  0  0  0
   36.7020   30.7920   47.4350 C   0  0  0  0  0  0  0  0  0  0  0  0
   37.9620   31.1230   47.8920 C   0  0  0  0  0  0  0  0  0  0  0  0
   38.2050   31.0310   49.2530 C   0  0  0  0  0  0  0  0  0  0  0  0
   37.2130   30.6260   50.0910 C   0  0  0  0  0  0  0  0  0  0  0  0
   35.9570   30.3040   49.5740 C   0  0  0  0  0  0  0  0  0  0  0  0
   35.6490   30.3720   48.2390 C   0  0  0  0  0  0  0  0  0  0  0  0
   39.2010   31.2940   49.5910 H   0  0  0  0  0  0  0  0  0  0  0  0
   37.4240   30.5610   51.1490 H   0  0  0  0  0  0  0  0  0  0  0  0
   35.1890   29.9840   50.2710 H   0  0  0  0  0  0  0  0  0  0  0  0
   40.2250   33.3340   46.0710 C   0  0  0  0  0  0  0  0  0  0  0  0
   40.9350   32.4670   45.2130 C   0  0  0  0  0  0  0  0  0  0  0  0
   40.6180   31.1070   45.2750 C   0  0  0  0  0  0  0  0  0  0  0  0
   39.6530   30.6920   46.1480 N   0  0  0  0  0  0  0  0  0  0  0  0
   39.0090   31.5590   46.9410 C   0  0  0  0  0  0  0  0  0  0  0  0
   39.2960   32.8570   46.8990 N   0  0  0  0  0  0  0  0  0  0  0  0
   40.4490   34.3980   46.0480 H   0  0  0  0  0  0  0  0  0  0  0  0
   41.6940   32.8180   44.5310 H   0  0  0  0  0  0  0  0  0  0  0  0
   41.1240   30.3730   44.6420 H   0  0  0  0  0  0  0  0  0  0  0  0
   33.8970   29.2210   44.5000 Cl  0  0  0  0  0  0  0  0  0  0  0  0
   33.8860   27.9850   45.7510 C   0  0  0  0  0  0  0  0  0  0  0  0
   33.9560   28.2230   47.1210 C   0  0  0  0  0  0  0  0  0  0  0  0
   33.9400   27.1810   48.0020 C   0  0  0  0  0  0  0  0  0  0  0  0
   33.8530   25.8880   47.5470 C   0  0  0  0  0  0  0  0  0  0  0  0
   33.7800   25.5880   46.1920 C   0  0  0  0  0  0  0  0  0  0  0  0
   33.7990   26.6520   45.3340 C   0  0  0  0  0  0  0  0  0  0  0  0
   33.9990   27.4560   49.0560 H   0  0  0  0  0  0  0  0  0  0  0  0
   33.8410   25.0790   48.2560 H   0  0  0  0  0  0  0  0  0  0  0  0
   33.7120   24.5620   45.8550 H   0  0  0  0  0  0  0  0  0  0  0  0
   30.9960   26.5500   44.4720 Cl  0  0  0  0  0  0  0  0  0  0  0  0
   32.3910   26.3010   43.4760 C   0  0  0  0  0  0  0  0  0  0  0  0
   33.7210   26.3520   43.8980 C   0  0  0  0  0  0  0  0  0  0  0  0
   34.7700   26.1410   43.0270 C   0  0  0  0  0  0  0  0  0  0  0  0
   35.7490   26.2090   43.4810 H   0  0  0  0  0  0  0  0  0  0  0  0
   34.5050   25.8690   41.7010 C   0  0  0  0  0  3  0  0  0  0  0  0
   33.1950   25.8110   41.2560 C   0  0  0  0  0  0  0  0  0  0  0  0
   32.8540   25.4650   39.5670 Cl  0  0  0  0  0  0  0  0  0  0  0  0
   32.1340   26.0250   42.1300 C   0  0  0  0  0  0  0  0  0  0  0  0
   31.1350   25.9690   41.7300 H   0  0  0  0  0  0  0  0  0  0  0  0
  1  8  1  0  0  0  0
  2  3  1  0  0  0  0
  3  4  2  0  0  0  0
  3  8  1  0  0  0  0
  4  5  1  0  0  0  0
  5  9  1  0  0  0  0
  5  6  2  0  0  0  0
  6 10  1  0  0  0  0
  7  6  1  0  0  0  0
  7 11  1  0  0  0  0
  8  7  2  0  0  0  0
 12 17  1  0  0  0  0
 13 14  1  0  0  0  0
 13 12  2  0  0  0  0
 14 15  2  0  0  0  0
 15 16  1  0  0  0  0
 16  4  1  0  0  0  0
 17 16  2  0  0  0  0
 18 12  1  0  0  0  0
 19 13  1  0  0  0  0
 20 14  1  0  0  0  0
 21 22  1  0  0  0  0
 22 23  1  0  0  0  0
 23  1  1  0  0  0  0
 23 24  2  0  0  0  0
 24 28  1  0  0  0  0
 25 24  1  0  0  0  0
 25 29  1  0  0  0  0
 26 25  2  0  0  0  0
 27 22  2  0  0  0  0
 27 26  1  0  0  0  0
 30 26  1  0  0  0  0
 32 33  1  0  0  0  0
 32 31  1  0  0  0  0
 33 27  1  0  0  0  0
 34 35  1  0  0  0  0
 34 33  2  0  0  0  0
 36 34  1  0  0  0  0
 37 36  2  0  0  0  0
 37 39  1  0  0  0  0
 38 37  1  0  0  0  0
 39 32  2  0  0  0  0
 40 39  1  0  0  0  0
M  END
>  <minimizedAffinity>
-5.73074579

>  <minimizedRMSD>
0.141903386

$$$$
