
 OpenBabel03272508123D

 35 37  0  0  0  0  0  0  0  0999 V2000
   36.7530   29.4050   44.1250 Cl  0  0  0  0  0  0  0  0  0  0  0  0
   38.4090   29.8120   43.6090 C   0  0  0  0  0  0  0  0  0  0  0  0
   39.3750   30.3370   44.4490 C   0  0  0  0  0  0  0  0  0  0  0  0
   40.6130   30.6000   43.9020 C   0  0  0  0  0  0  0  0  0  0  0  0
   40.8790   30.3530   42.5790 C   0  0  0  0  0  0  0  0  0  0  0  0
   39.9350   29.8330   41.7340 C   0  0  0  0  0  0  0  0  0  0  0  0
   38.7030   29.5650   42.2560 C   0  0  0  0  0  0  0  0  0  0  0  0
   41.3270   31.0130   44.6200 H   0  0  0  0  0  0  0  0  0  0  0  0
   41.8990   30.6100   42.2880 H   0  0  0  0  0  0  0  0  0  0  0  0
   40.2050   29.6600   40.7030 H   0  0  0  0  0  0  0  0  0  0  0  0
   38.2890   26.5450   42.0800 Cl  0  0  0  0  0  0  0  0  0  0  0  0
   37.3470   27.6880   41.1520 C   0  0  0  0  0  0  0  0  0  0  0  0
   37.6800   29.0080   41.3650 C   0  0  0  0  0  0  0  0  0  0  0  0
   37.0150   30.0240   40.6950 C   0  0  0  0  0  0  0  0  0  0  0  0
   37.1840   31.0890   40.7770 H   0  0  0  0  0  0  0  0  0  0  0  0
   35.9960   29.7300   39.7910 C   0  0  0  0  0  3  0  0  0  0  0  0
   35.6680   28.3880   39.5830 C   0  0  0  0  0  0  0  0  0  0  0  0
   34.4000   27.9470   38.4620 Cl  0  0  0  0  0  0  0  0  0  0  0  0
   36.3410   27.3890   40.2580 C   0  0  0  0  0  0  0  0  0  0  0  0
   36.1300   26.3250   40.1390 H   0  0  0  0  0  0  0  0  0  0  0  0
   38.9300   30.5160   45.7260 O   0  0  0  0  0  0  0  0  0  0  0  0
   39.4350   32.6060   47.1480 O   0  0  0  0  0  0  0  0  0  0  0  0
   38.3200   31.8980   46.4650 P   0  0  1  0  0  0  0  0  0  0  0  0
   37.7330   32.8600   45.1830 O   0  0  0  0  0  0  0  0  0  0  0  0
   37.1570   32.3420   44.5850 H   0  0  0  0  0  0  0  0  0  0  0  0
   37.0460   31.4830   47.4900 O   0  0  0  0  0  0  0  0  0  0  0  0
   37.6050   30.5070   51.0150 C   0  0  0  0  0  0  0  0  0  0  0  0
   37.7080   31.3160   49.8690 C   0  0  0  0  0  0  0  0  0  0  0  0
   37.0840   30.8820   48.6960 C   0  0  0  0  0  0  0  0  0  0  0  0
   36.4100   29.6960   48.7320 N   0  0  0  0  0  0  0  0  0  0  0  0
   36.3350   28.9460   49.8550 C   0  0  0  0  0  0  0  0  0  0  0  0
   36.9390   29.3650   50.9920 N   0  0  0  0  0  0  0  0  0  0  0  0
   38.1180   30.9200   51.8730 H   0  0  0  0  0  0  0  0  0  0  0  0
   38.2150   32.2530   49.7620 H   0  0  0  0  0  0  0  0  0  0  0  0
   35.7920   28.0040   49.8590 H   0  0  0  0  0  0  0  0  0  0  0  0
  2  1  1  0  0  0  0
  2  3  1  0  0  0  0
  3 21  1  0  0  0  0
  4  3  2  0  0  0  0
  4  8  1  0  0  0  0
  5  4  1  0  0  0  0
  6  7  1  0  0  0  0
  6  5  2  0  0  0  0
  7  2  2  0  0  0  0
  9  5  1  0  0  0  0
 10  6  1  0  0  0  0
 12 13  1  0  0  0  0
 12 11  1  0  0  0  0
 13  7  1  0  0  0  0
 14 15  1  0  0  0  0
 14 13  2  0  0  0  0
 16 14  1  0  0  0  0
 17 16  2  0  0  0  0
 17 19  1  0  0  0  0
 18 17  1  0  0  0  0
 19 12  2  0  0  0  0
 20 19  1  0  0  0  0
 21 23  1  0  0  0  0
 23 22  2  1  0  0  0
 23 26  1  0  0  0  0
 24 23  1  0  0  0  0
 25 24  1  0  0  0  0
 26 29  1  0  0  0  0
 27 33  1  0  0  0  0
 28 27  2  0  0  0  0
 29 30  2  0  0  0  0
 29 28  1  0  0  0  0
 30 31  1  0  0  0  0
 31 35  1  0  0  0  0
 31 32  2  0  0  0  0
 32 27  1  0  0  0  0
 34 28  1  0  0  0  0
M  END
>  <minimizedAffinity>
-4.89887857

>  <minimizedRMSD>
0.344246477

$$$$
