
 OpenBabel03272505123D

 40 43  0  0  0  0  0  0  0  0999 V2000
   33.9850   29.8370   47.4260 S   0  0  0  0  0  0  0  0  0  0  0  0
   36.3120   30.9180   45.6470 Cl  0  0  0  0  0  0  0  0  0  0  0  0
   36.6310   30.6270   47.3360 C   0  0  0  0  0  0  0  0  0  0  0  0
   37.9040   30.8940   47.7990 C   0  0  0  0  0  0  0  0  0  0  0  0
   38.1690   30.6660   49.1390 C   0  0  0  0  0  0  0  0  0  0  0  0
   37.1850   30.1950   49.9530 C   0  0  0  0  0  0  0  0  0  0  0  0
   35.9150   29.9440   49.4310 C   0  0  0  0  0  0  0  0  0  0  0  0
   35.5850   30.1460   48.1140 C   0  0  0  0  0  0  0  0  0  0  0  0
   39.1750   30.8810   49.4830 H   0  0  0  0  0  0  0  0  0  0  0  0
   37.4130   30.0240   50.9960 H   0  0  0  0  0  0  0  0  0  0  0  0
   35.1550   29.5690   50.1080 H   0  0  0  0  0  0  0  0  0  0  0  0
   40.1400   33.2480   46.1300 C   0  0  0  0  0  0  0  0  0  0  0  0
   40.8490   32.4510   45.2050 C   0  0  0  0  0  0  0  0  0  0  0  0
   40.5410   31.0870   45.1690 C   0  0  0  0  0  0  0  0  0  0  0  0
   39.5850   30.6040   46.0170 N   0  0  0  0  0  0  0  0  0  0  0  0
   38.9410   31.4060   46.8750 C   0  0  0  0  0  0  0  0  0  0  0  0
   39.2190   32.7050   46.9260 N   0  0  0  0  0  0  0  0  0  0  0  0
   40.3570   34.3120   46.1830 H   0  0  0  0  0  0  0  0  0  0  0  0
   41.6000   32.8560   44.5460 H   0  0  0  0  0  0  0  0  0  0  0  0
   41.0460   30.4060   44.4820 H   0  0  0  0  0  0  0  0  0  0  0  0
   33.1390   29.1620   44.4660 Cl  0  0  0  0  0  0  0  0  0  0  0  0
   33.4060   27.8950   45.6570 C   0  0  0  0  0  0  0  0  0  0  0  0
   33.7800   28.0990   46.9820 C   0  0  0  0  0  0  0  0  0  0  0  0
   33.9600   27.0350   47.8170 C   0  0  0  0  0  0  0  0  0  0  0  0
   33.7720   25.7530   47.3600 C   0  0  0  0  0  0  0  0  0  0  0  0
   33.4000   25.4870   46.0480 C   0  0  0  0  0  0  0  0  0  0  0  0
   33.2280   26.5730   45.2350 C   0  0  0  0  0  0  0  0  0  0  0  0
   34.2520   27.2840   48.8390 H   0  0  0  0  0  0  0  0  0  0  0  0
   33.9190   24.9270   48.0330 H   0  0  0  0  0  0  0  0  0  0  0  0
   33.2580   24.4690   45.7080 H   0  0  0  0  0  0  0  0  0  0  0  0
   35.6090   26.2260   43.5570 Cl  0  0  0  0  0  0  0  0  0  0  0  0
   33.9590   26.1420   43.0360 C   0  0  0  0  0  0  0  0  0  0  0  0
   32.8330   26.3090   43.8450 C   0  0  0  0  0  0  0  0  0  0  0  0
   31.5530   26.2240   43.3370 C   0  0  0  0  0  0  0  0  0  0  0  0
   30.7720   26.3730   44.0690 H   0  0  0  0  0  0  0  0  0  0  0  0
   31.3730   25.9660   41.9940 C   0  0  0  0  0  3  0  0  0  0  0  0
   32.4720   25.7960   41.1700 C   0  0  0  0  0  0  0  0  0  0  0  0
   32.2460   25.4680   39.4580 Cl  0  0  0  0  0  0  0  0  0  0  0  0
   33.7650   25.8810   41.6770 C   0  0  0  0  0  0  0  0  0  0  0  0
   34.5840   25.7410   40.9900 H   0  0  0  0  0  0  0  0  0  0  0  0
  1  8  1  0  0  0  0
  2  3  1  0  0  0  0
  3  4  2  0  0  0  0
  3  8  1  0  0  0  0
  4  5  1  0  0  0  0
  5  9  1  0  0  0  0
  5  6  2  0  0  0  0
  6 10  1  0  0  0  0
  7  6  1  0  0  0  0
  7 11  1  0  0  0  0
  8  7  2  0  0  0  0
 12 18  1  0  0  0  0
 12 17  1  0  0  0  0
 13 12  2  0  0  0  0
 14 13  1  0  0  0  0
 14 15  2  0  0  0  0
 15 16  1  0  0  0  0
 16 17  2  0  0  0  0
 16  4  1  0  0  0  0
 19 13  1  0  0  0  0
 20 14  1  0  0  0  0
 21 22  1  0  0  0  0
 22 23  1  0  0  0  0
 23  1  1  0  0  0  0
 23 24  2  0  0  0  0
 24 28  1  0  0  0  0
 25 24  1  0  0  0  0
 25 29  1  0  0  0  0
 26 25  2  0  0  0  0
 27 22  2  0  0  0  0
 27 26  1  0  0  0  0
 30 26  1  0  0  0  0
 32 31  1  0  0  0  0
 32 33  1  0  0  0  0
 33 27  1  0  0  0  0
 34 33  2  0  0  0  0
 34 35  1  0  0  0  0
 36 34  1  0  0  0  0
 37 39  1  0  0  0  0
 37 36  2  0  0  0  0
 38 37  1  0  0  0  0
 39 32  2  0  0  0  0
 40 39  1  0  0  0  0
M  END
>  <minimizedAffinity>
-5.50852251

>  <minimizedRMSD>
0.690151095

$$$$
