
 OpenBabel03272505393D

 32 34  0  0  0  0  0  0  0  0999 V2000
   41.0260   24.9790   34.7470 C   0  0  0  0  0  0  0  0  0  0  0  0
   42.3130   24.4940   34.7510 C   0  0  0  0  0  0  0  0  0  0  0  0
   43.3480   25.2900   34.3110 C   0  0  0  0  0  0  0  0  0  0  0  0
   43.1650   26.5700   33.8570 C   0  0  0  0  0  0  0  0  0  0  0  0
   41.8860   27.0770   33.8450 C   0  0  0  0  0  0  0  0  0  0  0  0
   40.8420   26.2790   34.2860 C   0  0  0  0  0  0  0  0  0  0  0  0
   42.4540   23.4830   35.1100 H   0  0  0  0  0  0  0  0  0  0  0  0
   44.3090   24.8230   34.3530 H   0  0  0  0  0  0  0  0  0  0  0  0
   44.0140   27.1690   33.5170 H   0  0  0  0  0  0  0  0  0  0  0  0
   41.7190   28.0830   33.4910 H   0  0  0  0  0  0  0  0  0  0  0  0
   39.4220   26.2040   31.6460 Cl  0  0  0  0  0  0  0  0  0  0  0  0
   38.7190   26.8810   33.1070 C   0  0  0  0  0  0  0  0  0  0  0  0
   39.4990   26.8470   34.2580 C   0  0  0  0  0  0  0  0  0  0  0  0
   38.9170   27.3890   35.3970 C   0  0  0  0  0  0  0  0  0  0  0  0
   39.5370   27.3560   36.2910 H   0  0  0  0  0  0  0  0  0  0  0  0
   37.6620   27.9500   35.4950 C   0  0  0  0  0  3  0  0  0  0  0  0
   36.9370   27.9510   34.2990 C   0  0  0  0  0  0  0  0  0  0  0  0
   35.3320   28.6470   34.3450 Cl  0  0  0  0  0  0  0  0  0  0  0  0
   37.4520   27.4270   33.1260 C   0  0  0  0  0  0  0  0  0  0  0  0
   36.8490   27.4480   32.2090 H   0  0  0  0  0  0  0  0  0  0  0  0
   38.4910   23.4580   36.9110 C   0  0  0  0  0  0  0  0  0  0  0  0
   37.8000   22.6060   36.0380 C   0  0  0  0  0  0  0  0  0  0  0  0
   38.2240   22.5700   34.7080 C   0  0  0  0  0  0  0  0  0  0  0  0
   39.2650   23.3510   34.3460 N   0  0  0  0  0  0  0  0  0  0  0  0
   39.9070   24.1600   35.2080 C   0  0  0  0  0  0  0  0  0  0  0  0
   39.5120   24.2020   36.4820 N   0  0  0  0  0  0  0  0  0  0  0  0
   36.9920   22.0250   36.4060 H   0  0  0  0  0  0  0  0  0  0  0  0
   37.7180   21.9230   33.9940 H   0  0  0  0  0  0  0  0  0  0  0  0
   38.0440   23.5080   38.3560 C   0  0  0  0  0  0  0  0  0  0  0  0
   37.6430   24.7980   38.6630 F   0  0  0  0  0  0  0  0  0  0  0  0
   37.0670   22.5790   38.5200 F   0  0  0  0  0  0  0  0  0  0  0  0
   39.1740   23.2450   39.1330 F   0  0  0  0  0  0  0  0  0  0  0  0
  1  2  1  0  0  0  0
  1 25  1  0  0  0  0
  2  7  1  0  0  0  0
  3  8  1  0  0  0  0
  3  2  2  0  0  0  0
  4  3  1  0  0  0  0
  5  4  2  0  0  0  0
  5  6  1  0  0  0  0
  6  1  2  0  0  0  0
  9  4  1  0  0  0  0
 10  5  1  0  0  0  0
 11 12  1  0  0  0  0
 12 19  2  0  0  0  0
 12 13  1  0  0  0  0
 13  6  1  0  0  0  0
 13 14  2  0  0  0  0
 14 16  1  0  0  0  0
 14 15  1  0  0  0  0
 17 18  1  0  0  0  0
 17 16  2  0  0  0  0
 19 17  1  0  0  0  0
 20 19  1  0  0  0  0
 21 29  1  0  0  0  0
 22 27  1  0  0  0  0
 22 21  2  0  0  0  0
 23 22  1  0  0  0  0
 24 23  2  0  0  0  0
 24 25  1  0  0  0  0
 25 26  2  0  0  0  0
 26 21  1  0  0  0  0
 28 23  1  0  0  0  0
 29 31  1  0  0  0  0
 29 30  1  0  0  0  0
 29 32  1  0  0  0  0
M  END
>  <minimizedAffinity>
-6.17289257

$$$$

 OpenBabel03272505393D

 32 34  0  0  0  0  0  0  0  0999 V2000
   37.0700   21.8500   33.8160 C   0  0  0  0  0  0  0  0  0  0  0  0
   36.2530   20.7590   33.9980 C   0  0  0  0  0  0  0  0  0  0  0  0
   35.2880   20.4590   33.0600 C   0  0  0  0  0  0  0  0  0  0  0  0
   35.0920   21.2040   31.9260 C   0  0  0  0  0  0  0  0  0  0  0  0
   35.8990   22.3000   31.7230 C   0  0  0  0  0  0  0  0  0  0  0  0
   36.8690   22.6050   32.6640 C   0  0  0  0  0  0  0  0  0  0  0  0
   36.4100   20.1740   34.8940 H   0  0  0  0  0  0  0  0  0  0  0  0
   34.7050   19.5940   33.2920 H   0  0  0  0  0  0  0  0  0  0  0  0
   34.3160   20.9310   31.2060 H   0  0  0  0  0  0  0  0  0  0  0  0
   35.7610   22.9000   30.8370 H   0  0  0  0  0  0  0  0  0  0  0  0
   39.2720   22.1760   30.9230 Cl  0  0  0  0  0  0  0  0  0  0  0  0
   38.8510   23.7270   31.6290 C   0  0  0  0  0  0  0  0  0  0  0  0
   37.7060   23.7740   32.4180 C   0  0  0  0  0  0  0  0  0  0  0  0
   37.3990   25.0140   32.9640 C   0  0  0  0  0  0  0  0  0  0  0  0
   36.5010   25.0360   33.5780 H   0  0  0  0  0  0  0  0  0  0  0  0
   38.1080   26.1850   32.8030 C   0  0  0  0  0  3  0  0  0  0  0  0
   39.2460   26.0620   31.9990 C   0  0  0  0  0  0  0  0  0  0  0  0
   40.1990   27.5090   31.7480 Cl  0  0  0  0  0  0  0  0  0  0  0  0
   39.6140   24.8600   31.4220 C   0  0  0  0  0  0  0  0  0  0  0  0
   40.5150   24.8080   30.7980 H   0  0  0  0  0  0  0  0  0  0  0  0
   38.7090   23.0490   36.8650 C   0  0  0  0  0  0  0  0  0  0  0  0
   40.0690   22.8240   36.6020 C   0  0  0  0  0  0  0  0  0  0  0  0
   40.3980   22.2590   35.3690 C   0  0  0  0  0  0  0  0  0  0  0  0
   39.3970   21.9660   34.5100 N   0  0  0  0  0  0  0  0  0  0  0  0
   38.1020   22.1940   34.7920 C   0  0  0  0  0  0  0  0  0  0  0  0
   37.7740   22.7330   35.9680 N   0  0  0  0  0  0  0  0  0  0  0  0
   40.7910   23.0850   37.3340 H   0  0  0  0  0  0  0  0  0  0  0  0
   41.4400   22.0670   35.1210 H   0  0  0  0  0  0  0  0  0  0  0  0
   38.3360   23.6600   38.1970 C   0  0  0  0  0  0  0  0  0  0  0  0
   38.1490   25.0230   38.0360 F   0  0  0  0  0  0  0  0  0  0  0  0
   37.2360   23.0090   38.6590 F   0  0  0  0  0  0  0  0  0  0  0  0
   39.4440   23.5050   39.0330 F   0  0  0  0  0  0  0  0  0  0  0  0
  1  2  1  0  0  0  0
  1 25  1  0  0  0  0
  2  7  1  0  0  0  0
  3  8  1  0  0  0  0
  3  2  2  0  0  0  0
  4  3  1  0  0  0  0
  5  4  2  0  0  0  0
  5  6  1  0  0  0  0
  6  1  2  0  0  0  0
  9  4  1  0  0  0  0
 10  5  1  0  0  0  0
 11 12  1  0  0  0  0
 12 13  1  0  0  0  0
 13  6  1  0  0  0  0
 13 14  2  0  0  0  0
 14 15  1  0  0  0  0
 16 14  1  0  0  0  0
 17 16  2  0  0  0  0
 18 17  1  0  0  0  0
 19 12  2  0  0  0  0
 19 17  1  0  0  0  0
 20 19  1  0  0  0  0
 21 29  1  0  0  0  0
 22 21  1  0  0  0  0
 22 27  1  0  0  0  0
 23 22  2  0  0  0  0
 24 25  2  0  0  0  0
 24 23  1  0  0  0  0
 25 26  1  0  0  0  0
 26 21  2  0  0  0  0
 28 23  1  0  0  0  0
 29 31  1  0  0  0  0
 29 32  1  0  0  0  0
 30 29  1  0  0  0  0
M  END
>  <minimizedAffinity>
-6.06919193

$$$$

 OpenBabel03272505393D

 32 34  0  0  0  0  0  0  0  0999 V2000
   38.0720   24.8810   34.0230 C   0  0  0  0  0  0  0  0  0  0  0  0
   37.3330   25.9120   33.4920 C   0  0  0  0  0  0  0  0  0  0  0  0
   37.3770   27.1600   34.0760 C   0  0  0  0  0  0  0  0  0  0  0  0
   38.1340   27.4400   35.1840 C   0  0  0  0  0  0  0  0  0  0  0  0
   38.8820   26.4240   35.7310 C   0  0  0  0  0  0  0  0  0  0  0  0
   38.8400   25.1680   35.1470 C   0  0  0  0  0  0  0  0  0  0  0  0
   36.7360   25.6880   32.6180 H   0  0  0  0  0  0  0  0  0  0  0  0
   36.7690   27.8930   33.5900 H   0  0  0  0  0  0  0  0  0  0  0  0
   38.1420   28.4440   35.6150 H   0  0  0  0  0  0  0  0  0  0  0  0
   39.4860   26.6230   36.6040 H   0  0  0  0  0  0  0  0  0  0  0  0
   37.4660   23.4590   37.1930 Cl  0  0  0  0  0  0  0  0  0  0  0  0
   39.1420   23.2420   36.7160 C   0  0  0  0  0  0  0  0  0  0  0  0
   39.6440   24.1130   35.7540 C   0  0  0  0  0  0  0  0  0  0  0  0
   40.9720   23.9170   35.3970 C   0  0  0  0  0  0  0  0  0  0  0  0
   41.3520   24.6040   34.6440 H   0  0  0  0  0  0  0  0  0  0  0  0
   41.8280   22.9590   35.8960 C   0  0  0  0  0  3  0  0  0  0  0  0
   41.2560   22.1210   36.8600 C   0  0  0  0  0  0  0  0  0  0  0  0
   42.2830   20.8780   37.5400 Cl  0  0  0  0  0  0  0  0  0  0  0  0
   39.9390   22.2570   37.2630 C   0  0  0  0  0  0  0  0  0  0  0  0
   39.5300   21.5770   38.0230 H   0  0  0  0  0  0  0  0  0  0  0  0
   37.0220   21.4800   33.1570 C   0  0  0  0  0  0  0  0  0  0  0  0
   38.0330   21.0490   32.2840 C   0  0  0  0  0  0  0  0  0  0  0  0
   39.0660   21.9470   32.0090 C   0  0  0  0  0  0  0  0  0  0  0  0
   39.0310   23.1640   32.5930 N   0  0  0  0  0  0  0  0  0  0  0  0
   38.0470   23.5470   33.4260 C   0  0  0  0  0  0  0  0  0  0  0  0
   37.0530   22.6980   33.6980 N   0  0  0  0  0  0  0  0  0  0  0  0
   37.9830   20.0750   31.8680 H   0  0  0  0  0  0  0  0  0  0  0  0
   39.8720   21.6570   31.3380 H   0  0  0  0  0  0  0  0  0  0  0  0
   35.8950   20.5190   33.4660 C   0  0  0  0  0  0  0  0  0  0  0  0
   36.2040   19.2730   32.9450 F   0  0  0  0  0  0  0  0  0  0  0  0
   35.7090   20.5170   34.8120 F   0  0  0  0  0  0  0  0  0  0  0  0
   34.7760   20.9780   32.7680 F   0  0  0  0  0  0  0  0  0  0  0  0
  1  6  1  0  0  0  0
  2  1  2  0  0  0  0
  2  3  1  0  0  0  0
  3  4  2  0  0  0  0
  4  9  1  0  0  0  0
  4  5  1  0  0  0  0
  5 10  1  0  0  0  0
  6  5  2  0  0  0  0
  6 13  1  0  0  0  0
  7  2  1  0  0  0  0
  8  3  1  0  0  0  0
 12 11  1  0  0  0  0
 12 19  1  0  0  0  0
 13 12  2  0  0  0  0
 14 13  1  0  0  0  0
 14 16  2  0  0  0  0
 15 14  1  0  0  0  0
 16 17  1  0  0  0  0
 17 19  2  0  0  0  0
 17 18  1  0  0  0  0
 19 20  1  0  0  0  0
 21 29  1  0  0  0  0
 21 26  1  0  0  0  0
 22 21  2  0  0  0  0
 23 22  1  0  0  0  0
 23 24  2  0  0  0  0
 24 25  1  0  0  0  0
 25 26  2  0  0  0  0
 25  1  1  0  0  0  0
 27 22  1  0  0  0  0
 28 23  1  0  0  0  0
 29 31  1  0  0  0  0
 30 29  1  0  0  0  0
 32 29  1  0  0  0  0
M  END
>  <minimizedAffinity>
-6.00717926

$$$$

 OpenBabel03272505393D

 32 34  0  0  0  0  0  0  0  0999 V2000
   37.7440   22.6110   33.6760 C   0  0  0  0  0  0  0  0  0  0  0  0
   36.7570   21.6700   33.4960 C   0  0  0  0  0  0  0  0  0  0  0  0
   35.9910   21.6900   32.3500 C   0  0  0  0  0  0  0  0  0  0  0  0
   36.1610   22.6170   31.3540 C   0  0  0  0  0  0  0  0  0  0  0  0
   37.1430   23.5670   31.5130 C   0  0  0  0  0  0  0  0  0  0  0  0
   37.9150   23.5500   32.6640 C   0  0  0  0  0  0  0  0  0  0  0  0
   36.6260   20.9410   34.2840 H   0  0  0  0  0  0  0  0  0  0  0  0
   35.2510   20.9190   32.3040 H   0  0  0  0  0  0  0  0  0  0  0  0
   35.5320   22.5970   30.4600 H   0  0  0  0  0  0  0  0  0  0  0  0
   37.2930   24.3060   30.7410 H   0  0  0  0  0  0  0  0  0  0  0  0
   37.1420   26.0260   34.1680 Cl  0  0  0  0  0  0  0  0  0  0  0  0
   38.7340   25.7710   33.4730 C   0  0  0  0  0  0  0  0  0  0  0  0
   38.9460   24.5720   32.8010 C   0  0  0  0  0  0  0  0  0  0  0  0
   40.2150   24.3990   32.2610 C   0  0  0  0  0  0  0  0  0  0  0  0
   40.3680   23.4570   31.7390 H   0  0  0  0  0  0  0  0  0  0  0  0
   41.2670   25.2870   32.3260 C   0  0  0  0  0  3  0  0  0  0  0  0
   40.9810   26.4700   33.0150 C   0  0  0  0  0  0  0  0  0  0  0  0
   42.2700   27.6470   33.1390 Cl  0  0  0  0  0  0  0  0  0  0  0  0
   39.7400   26.7110   33.5790 C   0  0  0  0  0  0  0  0  0  0  0  0
   39.5580   27.6530   34.1120 H   0  0  0  0  0  0  0  0  0  0  0  0
   38.8590   23.1260   37.1280 C   0  0  0  0  0  0  0  0  0  0  0  0
   40.1610   22.6040   37.1210 C   0  0  0  0  0  0  0  0  0  0  0  0
   40.6350   22.0800   35.9170 C   0  0  0  0  0  0  0  0  0  0  0  0
   39.8190   22.1070   34.8410 N   0  0  0  0  0  0  0  0  0  0  0  0
   38.5730   22.6150   34.8800 C   0  0  0  0  0  0  0  0  0  0  0  0
   38.1090   23.1190   36.0250 N   0  0  0  0  0  0  0  0  0  0  0  0
   40.7350   22.6230   38.0130 H   0  0  0  0  0  0  0  0  0  0  0  0
   41.6390   21.6640   35.8630 H   0  0  0  0  0  0  0  0  0  0  0  0
   38.3310   23.6980   38.4250 C   0  0  0  0  0  0  0  0  0  0  0  0
   37.9970   25.0290   38.2330 F   0  0  0  0  0  0  0  0  0  0  0  0
   37.2860   22.9260   38.8240 F   0  0  0  0  0  0  0  0  0  0  0  0
   39.3920   23.6790   39.3320 F   0  0  0  0  0  0  0  0  0  0  0  0
  1 25  1  0  0  0  0
  2  1  1  0  0  0  0
  2  7  1  0  0  0  0
  3  2  2  0  0  0  0
  4  5  2  0  0  0  0
  4  3  1  0  0  0  0
  5  6  1  0  0  0  0
  6 13  1  0  0  0  0
  6  1  2  0  0  0  0
  8  3  1  0  0  0  0
  9  4  1  0  0  0  0
 10  5  1  0  0  0  0
 12 19  1  0  0  0  0
 12 11  1  0  0  0  0
 13 12  2  0  0  0  0
 14 16  2  0  0  0  0
 14 13  1  0  0  0  0
 15 14  1  0  0  0  0
 16 17  1  0  0  0  0
 17 18  1  0  0  0  0
 17 19  2  0  0  0  0
 19 20  1  0  0  0  0
 21 29  1  0  0  0  0
 22 21  1  0  0  0  0
 22 27  1  0  0  0  0
 23 22  2  0  0  0  0
 24 25  2  0  0  0  0
 24 23  1  0  0  0  0
 25 26  1  0  0  0  0
 26 21  2  0  0  0  0
 28 23  1  0  0  0  0
 29 31  1  0  0  0  0
 29 32  1  0  0  0  0
 30 29  1  0  0  0  0
M  END
>  <minimizedAffinity>
-5.8681426

$$$$

 OpenBabel03272505393D

 32 34  0  0  0  0  0  0  0  0999 V2000
   37.2510   24.8680   32.8000 C   0  0  0  0  0  0  0  0  0  0  0  0
   37.1430   26.2370   32.7270 C   0  0  0  0  0  0  0  0  0  0  0  0
   36.2900   26.8100   31.8090 C   0  0  0  0  0  0  0  0  0  0  0  0
   35.5230   26.0760   30.9420 C   0  0  0  0  0  0  0  0  0  0  0  0
   35.6140   24.7040   30.9980 C   0  0  0  0  0  0  0  0  0  0  0  0
   36.4720   24.1250   31.9200 C   0  0  0  0  0  0  0  0  0  0  0  0
   37.7500   26.8140   33.4130 H   0  0  0  0  0  0  0  0  0  0  0  0
   36.2760   27.8790   31.8300 H   0  0  0  0  0  0  0  0  0  0  0  0
   34.8580   26.5700   30.2290 H   0  0  0  0  0  0  0  0  0  0  0  0
   35.0200   24.1070   30.3240 H   0  0  0  0  0  0  0  0  0  0  0  0
   38.4960   22.8560   30.1070 Cl  0  0  0  0  0  0  0  0  0  0  0  0
   37.4360   21.9420   31.1680 C   0  0  0  0  0  0  0  0  0  0  0  0
   36.5460   22.6680   31.9520 C   0  0  0  0  0  0  0  0  0  0  0  0
   35.7200   21.9180   32.7800 C   0  0  0  0  0  0  0  0  0  0  0  0
   35.0290   22.4980   33.3880 H   0  0  0  0  0  0  0  0  0  0  0  0
   35.6980   20.5450   32.8980 C   0  0  0  0  0  3  0  0  0  0  0  0
   36.6190   19.8820   32.0800 C   0  0  0  0  0  0  0  0  0  0  0  0
   36.6490   18.1340   32.1750 Cl  0  0  0  0  0  0  0  0  0  0  0  0
   37.4720   20.5630   31.2310 C   0  0  0  0  0  0  0  0  0  0  0  0
   38.1800   20.0030   30.6050 H   0  0  0  0  0  0  0  0  0  0  0  0
   38.6020   23.5250   35.9300 C   0  0  0  0  0  0  0  0  0  0  0  0
   39.8550   23.0260   35.5450 C   0  0  0  0  0  0  0  0  0  0  0  0
   40.2150   23.1640   34.2030 C   0  0  0  0  0  0  0  0  0  0  0  0
   39.3430   23.7630   33.3640 N   0  0  0  0  0  0  0  0  0  0  0  0
   38.1460   24.2310   33.7640 C   0  0  0  0  0  0  0  0  0  0  0  0
   37.7910   24.1060   35.0440 N   0  0  0  0  0  0  0  0  0  0  0  0
   40.4800   22.5690   36.2700 H   0  0  0  0  0  0  0  0  0  0  0  0
   41.1780   22.7930   33.8580 H   0  0  0  0  0  0  0  0  0  0  0  0
   38.1970   23.3840   37.3810 C   0  0  0  0  0  0  0  0  0  0  0  0
   37.0280   22.6450   37.4570 F   0  0  0  0  0  0  0  0  0  0  0  0
   39.2400   22.8270   38.0500 F   0  0  0  0  0  0  0  0  0  0  0  0
   37.8890   24.6680   37.8360 F   0  0  0  0  0  0  0  0  0  0  0  0
  1 25  1  0  0  0  0
  2  1  1  0  0  0  0
  2  7  1  0  0  0  0
  3  8  1  0  0  0  0
  3  2  2  0  0  0  0
  4  5  2  0  0  0  0
  4  3  1  0  0  0  0
  5  6  1  0  0  0  0
  6 13  1  0  0  0  0
  6  1  2  0  0  0  0
  9  4  1  0  0  0  0
 10  5  1  0  0  0  0
 11 12  1  0  0  0  0
 12 19  2  0  0  0  0
 12 13  1  0  0  0  0
 13 14  2  0  0  0  0
 14 16  1  0  0  0  0
 14 15  1  0  0  0  0
 17 18  1  0  0  0  0
 17 16  2  0  0  0  0
 19 17  1  0  0  0  0
 20 19  1  0  0  0  0
 21 29  1  0  0  0  0
 22 21  1  0  0  0  0
 22 27  1  0  0  0  0
 23 22  2  0  0  0  0
 24 25  2  0  0  0  0
 24 23  1  0  0  0  0
 25 26  1  0  0  0  0
 26 21  2  0  0  0  0
 28 23  1  0  0  0  0
 29 30  1  0  0  0  0
 29 32  1  0  0  0  0
 29 31  1  0  0  0  0
M  END
>  <minimizedAffinity>
-5.75580645

$$$$

 OpenBabel03272505393D

 32 34  0  0  0  0  0  0  0  0999 V2000
   37.8990   25.3470   33.9500 C   0  0  0  0  0  0  0  0  0  0  0  0
   37.1080   26.3820   33.5090 C   0  0  0  0  0  0  0  0  0  0  0  0
   37.0710   27.5670   34.2120 C   0  0  0  0  0  0  0  0  0  0  0  0
   37.7970   27.7790   35.3560 C   0  0  0  0  0  0  0  0  0  0  0  0
   38.5960   26.7580   35.8150 C   0  0  0  0  0  0  0  0  0  0  0  0
   38.6350   25.5650   35.1110 C   0  0  0  0  0  0  0  0  0  0  0  0
   36.5360   26.2110   32.6060 H   0  0  0  0  0  0  0  0  0  0  0  0
   36.4280   28.3080   33.7890 H   0  0  0  0  0  0  0  0  0  0  0  0
   37.7400   28.7340   35.8830 H   0  0  0  0  0  0  0  0  0  0  0  0
   39.1750   26.9040   36.7140 H   0  0  0  0  0  0  0  0  0  0  0  0
   41.4530   25.5140   34.0860 Cl  0  0  0  0  0  0  0  0  0  0  0  0
   40.8210   24.3550   35.2440 C   0  0  0  0  0  0  0  0  0  0  0  0
   39.4910   24.5030   35.6260 C   0  0  0  0  0  0  0  0  0  0  0  0
   39.0200   23.5710   36.5420 C   0  0  0  0  0  0  0  0  0  0  0  0
   37.9790   23.6980   36.8340 H   0  0  0  0  0  0  0  0  0  0  0  0
   39.7290   22.5290   37.1000 C   0  0  0  0  0  3  0  0  0  0  0  0
   41.0570   22.4410   36.6680 C   0  0  0  0  0  0  0  0  0  0  0  0
   42.0230   21.1420   37.3330 Cl  0  0  0  0  0  0  0  0  0  0  0  0
   41.5950   23.3340   35.7580 C   0  0  0  0  0  0  0  0  0  0  0  0
   42.6430   23.2290   35.4460 H   0  0  0  0  0  0  0  0  0  0  0  0
   37.1540   21.9330   32.8510 C   0  0  0  0  0  0  0  0  0  0  0  0
   38.1030   21.7110   31.8410 C   0  0  0  0  0  0  0  0  0  0  0  0
   38.9890   22.7510   31.5560 C   0  0  0  0  0  0  0  0  0  0  0  0
   38.8820   23.8980   32.2630 N   0  0  0  0  0  0  0  0  0  0  0  0
   37.9590   24.0790   33.2260 C   0  0  0  0  0  0  0  0  0  0  0  0
   37.1060   23.0930   33.5080 N   0  0  0  0  0  0  0  0  0  0  0  0
   38.1180   20.7790   31.3350 H   0  0  0  0  0  0  0  0  0  0  0  0
   39.7430   22.6260   30.7820 H   0  0  0  0  0  0  0  0  0  0  0  0
   36.1860   20.8150   33.1720 C   0  0  0  0  0  0  0  0  0  0  0  0
   34.9270   21.1560   32.7040 F   0  0  0  0  0  0  0  0  0  0  0  0
   36.6780   19.6710   32.6300 F   0  0  0  0  0  0  0  0  0  0  0  0
   36.0920   20.7560   34.5640 F   0  0  0  0  0  0  0  0  0  0  0  0
  1  6  1  0  0  0  0
  2  1  2  0  0  0  0
  2  3  1  0  0  0  0
  3  4  2  0  0  0  0
  4  5  1  0  0  0  0
  4  9  1  0  0  0  0
  5 10  1  0  0  0  0
  6 13  1  0  0  0  0
  6  5  2  0  0  0  0
  7  2  1  0  0  0  0
  8  3  1  0  0  0  0
 11 12  1  0  0  0  0
 12 13  2  0  0  0  0
 12 19  1  0  0  0  0
 13 14  1  0  0  0  0
 14 15  1  0  0  0  0
 14 16  2  0  0  0  0
 17 16  1  0  0  0  0
 17 18  1  0  0  0  0
 19 17  2  0  0  0  0
 20 19  1  0  0  0  0
 21 29  1  0  0  0  0
 21 26  1  0  0  0  0
 22 21  2  0  0  0  0
 23 22  1  0  0  0  0
 23 24  2  0  0  0  0
 24 25  1  0  0  0  0
 25 26  2  0  0  0  0
 25  1  1  0  0  0  0
 27 22  1  0  0  0  0
 28 23  1  0  0  0  0
 29 32  1  0  0  0  0
 30 29  1  0  0  0  0
 31 29  1  0  0  0  0
M  END
>  <minimizedAffinity>
-5.73244715

$$$$

 OpenBabel03272505393D

 32 34  0  0  0  0  0  0  0  0999 V2000
   37.1990   26.7930   33.6980 C   0  0  0  0  0  0  0  0  0  0  0  0
   36.7700   27.9900   34.2220 C   0  0  0  0  0  0  0  0  0  0  0  0
   35.9080   28.7860   33.4980 C   0  0  0  0  0  0  0  0  0  0  0  0
   35.4440   28.4460   32.2540 C   0  0  0  0  0  0  0  0  0  0  0  0
   35.8590   27.2520   31.7110 C   0  0  0  0  0  0  0  0  0  0  0  0
   36.7250   26.4490   32.4360 C   0  0  0  0  0  0  0  0  0  0  0  0
   37.1390   28.2560   35.2030 H   0  0  0  0  0  0  0  0  0  0  0  0
   35.6330   29.6950   33.9900 H   0  0  0  0  0  0  0  0  0  0  0  0
   34.7610   29.1060   31.7140 H   0  0  0  0  0  0  0  0  0  0  0  0
   35.5050   26.9650   30.7330 H   0  0  0  0  0  0  0  0  0  0  0  0
   39.0820   26.5880   30.5880 Cl  0  0  0  0  0  0  0  0  0  0  0  0
   38.2240   25.1000   30.9550 C   0  0  0  0  0  0  0  0  0  0  0  0
   37.1470   25.1910   31.8300 C   0  0  0  0  0  0  0  0  0  0  0  0
   36.4880   23.9980   32.1010 C   0  0  0  0  0  0  0  0  0  0  0  0
   35.6480   24.0830   32.7870 H   0  0  0  0  0  0  0  0  0  0  0  0
   36.7920   22.7530   31.5940 C   0  0  0  0  0  3  0  0  0  0  0  0
   37.8850   22.7390   30.7200 C   0  0  0  0  0  0  0  0  0  0  0  0
   38.3320   21.1920   30.0350 Cl  0  0  0  0  0  0  0  0  0  0  0  0
   38.5900   23.8880   30.4050 C   0  0  0  0  0  0  0  0  0  0  0  0
   39.4410   23.8320   29.7150 H   0  0  0  0  0  0  0  0  0  0  0  0
   38.5020   24.4190   36.1660 C   0  0  0  0  0  0  0  0  0  0  0  0
   39.8550   24.3070   35.8140 C   0  0  0  0  0  0  0  0  0  0  0  0
   40.2970   25.0590   34.7230 C   0  0  0  0  0  0  0  0  0  0  0  0
   39.4040   25.8410   34.0790 N   0  0  0  0  0  0  0  0  0  0  0  0
   38.1110   25.9260   34.4420 C   0  0  0  0  0  0  0  0  0  0  0  0
   37.6760   25.2130   35.4830 N   0  0  0  0  0  0  0  0  0  0  0  0
   40.4890   23.6690   36.3750 H   0  0  0  0  0  0  0  0  0  0  0  0
   41.3380   25.0040   34.4130 H   0  0  0  0  0  0  0  0  0  0  0  0
   38.0070   23.6120   37.3460 C   0  0  0  0  0  0  0  0  0  0  0  0
   37.6620   24.4730   38.3750 F   0  0  0  0  0  0  0  0  0  0  0  0
   36.9770   22.8370   36.9160 F   0  0  0  0  0  0  0  0  0  0  0  0
   39.0930   22.8610   37.8010 F   0  0  0  0  0  0  0  0  0  0  0  0
  1  2  1  0  0  0  0
  1 25  1  0  0  0  0
  2  7  1  0  0  0  0
  3  8  1  0  0  0  0
  3  2  2  0  0  0  0
  4  3  1  0  0  0  0
  5  4  2  0  0  0  0
  5  6  1  0  0  0  0
  6  1  2  0  0  0  0
  9  4  1  0  0  0  0
 10  5  1  0  0  0  0
 11 12  1  0  0  0  0
 12 13  1  0  0  0  0
 13 14  2  0  0  0  0
 13  6  1  0  0  0  0
 14 15  1  0  0  0  0
 16 14  1  0  0  0  0
 17 16  2  0  0  0  0
 18 17  1  0  0  0  0
 19 17  1  0  0  0  0
 19 12  2  0  0  0  0
 20 19  1  0  0  0  0
 21 29  1  0  0  0  0
 22 21  1  0  0  0  0
 22 27  1  0  0  0  0
 23 22  2  0  0  0  0
 24 25  2  0  0  0  0
 24 23  1  0  0  0  0
 25 26  1  0  0  0  0
 26 21  2  0  0  0  0
 28 23  1  0  0  0  0
 29 32  1  0  0  0  0
 29 30  1  0  0  0  0
 31 29  1  0  0  0  0
M  END
>  <minimizedAffinity>
-5.72829056

$$$$

 OpenBabel03272505393D

 32 34  0  0  0  0  0  0  0  0999 V2000
   37.2200   21.9460   34.5980 C   0  0  0  0  0  0  0  0  0  0  0  0
   36.3320   20.8990   34.6700 C   0  0  0  0  0  0  0  0  0  0  0  0
   35.5640   20.5720   33.5720 C   0  0  0  0  0  0  0  0  0  0  0  0
   35.6370   21.2490   32.3830 C   0  0  0  0  0  0  0  0  0  0  0  0
   36.5200   22.3000   32.2870 C   0  0  0  0  0  0  0  0  0  0  0  0
   37.2930   22.6310   33.3890 C   0  0  0  0  0  0  0  0  0  0  0  0
   36.2760   20.3670   35.6110 H   0  0  0  0  0  0  0  0  0  0  0  0
   34.9050   19.7450   33.7280 H   0  0  0  0  0  0  0  0  0  0  0  0
   35.0110   20.9580   31.5350 H   0  0  0  0  0  0  0  0  0  0  0  0
   36.5930   22.8460   31.3590 H   0  0  0  0  0  0  0  0  0  0  0  0
   40.0220   21.9820   32.3300 Cl  0  0  0  0  0  0  0  0  0  0  0  0
   39.5150   23.6030   32.7760 C   0  0  0  0  0  0  0  0  0  0  0  0
   38.2170   23.7510   33.2540 C   0  0  0  0  0  0  0  0  0  0  0  0
   37.8450   25.0440   33.5990 C   0  0  0  0  0  0  0  0  0  0  0  0
   36.8280   25.1460   33.9720 H   0  0  0  0  0  0  0  0  0  0  0  0
   38.6250   26.1780   33.5150 C   0  0  0  0  0  3  0  0  0  0  0  0
   39.9170   25.9520   33.0280 C   0  0  0  0  0  0  0  0  0  0  0  0
   40.9670   27.3460   32.8930 Cl  0  0  0  0  0  0  0  0  0  0  0  0
   40.3570   24.6920   32.6640 C   0  0  0  0  0  0  0  0  0  0  0  0
   41.3790   24.5600   32.2850 H   0  0  0  0  0  0  0  0  0  0  0  0
   40.0830   22.2520   36.8640 C   0  0  0  0  0  0  0  0  0  0  0  0
   39.5730   23.0300   37.9140 C   0  0  0  0  0  0  0  0  0  0  0  0
   38.2410   23.4380   37.8210 C   0  0  0  0  0  0  0  0  0  0  0  0
   37.5290   23.0620   36.7360 N   0  0  0  0  0  0  0  0  0  0  0  0
   38.0480   22.3150   35.7440 C   0  0  0  0  0  0  0  0  0  0  0  0
   39.3200   21.9190   35.8220 N   0  0  0  0  0  0  0  0  0  0  0  0
   40.2020   23.2810   38.7310 H   0  0  0  0  0  0  0  0  0  0  0  0
   37.8020   24.0430   38.6110 H   0  0  0  0  0  0  0  0  0  0  0  0
   41.5240   21.8020   36.9500 C   0  0  0  0  0  0  0  0  0  0  0  0
   41.7040   21.0710   38.1130 F   0  0  0  0  0  0  0  0  0  0  0  0
   41.8100   21.1060   35.8180 F   0  0  0  0  0  0  0  0  0  0  0  0
   42.2970   22.9580   37.0810 F   0  0  0  0  0  0  0  0  0  0  0  0
  1  2  1  0  0  0  0
  1 25  1  0  0  0  0
  2  7  1  0  0  0  0
  3  8  1  0  0  0  0
  3  2  2  0  0  0  0
  4  3  1  0  0  0  0
  5  4  2  0  0  0  0
  5  6  1  0  0  0  0
  6  1  2  0  0  0  0
  9  4  1  0  0  0  0
 10  5  1  0  0  0  0
 11 12  1  0  0  0  0
 12 13  1  0  0  0  0
 13  6  1  0  0  0  0
 13 14  2  0  0  0  0
 14 15  1  0  0  0  0
 16 14  1  0  0  0  0
 17 16  2  0  0  0  0
 18 17  1  0  0  0  0
 19 12  2  0  0  0  0
 19 17  1  0  0  0  0
 20 19  1  0  0  0  0
 21 29  1  0  0  0  0
 21 22  1  0  0  0  0
 22 27  1  0  0  0  0
 23 22  2  0  0  0  0
 23 28  1  0  0  0  0
 24 23  1  0  0  0  0
 25 26  1  0  0  0  0
 25 24  2  0  0  0  0
 26 21  2  0  0  0  0
 29 32  1  0  0  0  0
 29 30  1  0  0  0  0
 31 29  1  0  0  0  0
M  END
>  <minimizedAffinity>
-5.69394445

$$$$

 OpenBabel03272505393D

 32 34  0  0  0  0  0  0  0  0999 V2000
   36.9820   26.5650   32.8660 C   0  0  0  0  0  0  0  0  0  0  0  0
   36.1260   27.5320   32.3910 C   0  0  0  0  0  0  0  0  0  0  0  0
   35.8180   28.6220   33.1760 C   0  0  0  0  0  0  0  0  0  0  0  0
   36.3290   28.8030   34.4360 C   0  0  0  0  0  0  0  0  0  0  0  0
   37.1870   27.8490   34.9310 C   0  0  0  0  0  0  0  0  0  0  0  0
   37.4990   26.7510   34.1440 C   0  0  0  0  0  0  0  0  0  0  0  0
   35.7250   27.3850   31.3970 H   0  0  0  0  0  0  0  0  0  0  0  0
   35.1460   29.3160   32.7190 H   0  0  0  0  0  0  0  0  0  0  0  0
   36.0590   29.6830   35.0260 H   0  0  0  0  0  0  0  0  0  0  0  0
   37.6010   27.9720   35.9200 H   0  0  0  0  0  0  0  0  0  0  0  0
   40.4160   27.1680   33.5880 Cl  0  0  0  0  0  0  0  0  0  0  0  0
   39.7900   25.8220   34.5260 C   0  0  0  0  0  0  0  0  0  0  0  0
   38.4110   25.7580   34.7000 C   0  0  0  0  0  0  0  0  0  0  0  0
   37.9460   24.6830   35.4450 C   0  0  0  0  0  0  0  0  0  0  0  0
   36.8660   24.6450   35.5740 H   0  0  0  0  0  0  0  0  0  0  0  0
   38.7050   23.6860   36.0200 C   0  0  0  0  0  3  0  0  0  0  0  0
   40.0820   23.8140   35.8020 C   0  0  0  0  0  0  0  0  0  0  0  0
   41.1120   22.5850   36.5030 Cl  0  0  0  0  0  0  0  0  0  0  0  0
   40.6170   24.8590   35.0710 C   0  0  0  0  0  0  0  0  0  0  0  0
   41.7030   24.9220   34.9240 H   0  0  0  0  0  0  0  0  0  0  0  0
   36.9210   23.2070   31.4030 C   0  0  0  0  0  0  0  0  0  0  0  0
   38.0080   23.2270   30.5180 C   0  0  0  0  0  0  0  0  0  0  0  0
   38.7490   24.4080   30.4410 C   0  0  0  0  0  0  0  0  0  0  0  0
   38.3780   25.4500   31.2160 N   0  0  0  0  0  0  0  0  0  0  0  0
   37.3280   25.3990   32.0560 C   0  0  0  0  0  0  0  0  0  0  0  0
   36.6120   24.2760   32.1390 N   0  0  0  0  0  0  0  0  0  0  0  0
   38.2310   22.3630   29.9450 H   0  0  0  0  0  0  0  0  0  0  0  0
   39.6020   24.4710   29.7680 H   0  0  0  0  0  0  0  0  0  0  0  0
   36.1070   21.9350   31.4990 C   0  0  0  0  0  0  0  0  0  0  0  0
   35.6360   21.7920   32.7940 F   0  0  0  0  0  0  0  0  0  0  0  0
   35.1230   22.0000   30.5640 F   0  0  0  0  0  0  0  0  0  0  0  0
   36.9920   20.8770   31.2770 F   0  0  0  0  0  0  0  0  0  0  0  0
  1  6  1  0  0  0  0
  2  1  2  0  0  0  0
  2  3  1  0  0  0  0
  3  4  2  0  0  0  0
  4  5  1  0  0  0  0
  4  9  1  0  0  0  0
  5 10  1  0  0  0  0
  6 13  1  0  0  0  0
  6  5  2  0  0  0  0
  7  2  1  0  0  0  0
  8  3  1  0  0  0  0
 11 12  1  0  0  0  0
 12 13  2  0  0  0  0
 12 19  1  0  0  0  0
 13 14  1  0  0  0  0
 14 15  1  0  0  0  0
 14 16  2  0  0  0  0
 17 16  1  0  0  0  0
 17 18  1  0  0  0  0
 19 17  2  0  0  0  0
 20 19  1  0  0  0  0
 21 29  1  0  0  0  0
 21 26  1  0  0  0  0
 22 21  2  0  0  0  0
 23 22  1  0  0  0  0
 23 24  2  0  0  0  0
 24 25  1  0  0  0  0
 25 26  2  0  0  0  0
 25  1  1  0  0  0  0
 27 22  1  0  0  0  0
 28 23  1  0  0  0  0
 29 30  1  0  0  0  0
 31 29  1  0  0  0  0
 32 29  1  0  0  0  0
M  END
>  <minimizedAffinity>
-5.68155527

$$$$
