
 OpenBabel03262523523D

 37 39  0  0  1  0  0  0  0  0999 V2000
   35.2550   30.3800   48.0160 N   0  0  0  0  0  0  0  0  0  0  0  0
   34.2260   30.3980   49.0310 C   0  0  0  0  0  0  0  0  0  0  0  0
   34.7870   30.0980   50.3860 C   0  0  0  0  0  0  0  0  0  0  0  0
   35.7230   28.9180   50.2540 C   0  0  0  0  0  0  0  0  0  0  0  0
   36.9250   29.3280   49.4770 C   0  0  0  0  0  0  0  0  0  0  0  0
   36.5420   30.4740   48.5660 C   0  0  1  0  0  0  0  0  0  0  0  0
   33.4880   29.6360   48.7490 H   0  0  0  0  0  0  0  0  0  0  0  0
   33.7310   31.4090   49.0600 H   0  0  0  0  0  0  0  0  0  0  0  0
   33.9200   29.7660   51.0110 H   0  0  0  0  0  0  0  0  0  0  0  0
   35.2130   30.9540   50.9240 H   0  0  0  0  0  0  0  0  0  0  0  0
   35.1730   28.1390   49.6910 H   0  0  0  0  0  0  0  0  0  0  0  0
   35.9430   28.5140   51.2600 H   0  0  0  0  0  0  0  0  0  0  0  0
   37.2680   28.4490   48.8900 H   0  0  0  0  0  0  0  0  0  0  0  0
   37.7790   29.6420   50.1020 H   0  0  0  0  0  0  0  0  0  0  0  0
   36.4030   31.3120   49.3530 H   0  0  0  0  0  0  0  0  0  0  0  0
   37.7370   33.1060   49.4430 Cl  0  0  0  0  0  0  0  0  0  0  0  0
   38.2810   32.2020   48.0170 C   0  0  0  0  0  0  0  0  0  0  0  0
   37.6260   30.9900   47.7310 C   0  0  0  0  0  0  0  0  0  0  0  0
   38.1670   30.4220   46.6000 C   0  0  0  0  0  0  0  0  0  0  0  0
   37.7790   29.4820   46.2480 H   0  0  0  0  0  0  0  0  0  0  0  0
   39.1930   30.9200   45.8290 C   0  0  0  0  0  0  0  0  0  0  0  0
   39.7610   32.1180   46.2030 C   0  0  0  0  0  0  0  0  0  0  0  0
   41.0680   32.7960   45.2570 Cl  0  0  0  0  0  0  0  0  0  0  0  0
   39.3100   32.7880   47.3170 C   0  0  0  0  0  0  0  0  0  0  0  0
   39.7450   33.7260   47.6220 H   0  0  0  0  0  0  0  0  0  0  0  0
   34.9370   29.6770   46.8620 C   0  0  0  0  0  0  0  0  0  0  0  0
   35.4320   29.9090   45.9190 H   0  0  0  0  0  0  0  0  0  0  0  0
   35.2830   28.5950   47.0520 H   0  0  0  0  0  0  0  0  0  0  0  0
   33.4900   29.5430   46.6490 C   0  0  0  0  0  0  0  0  0  0  0  0
   32.8380   30.5740   45.9480 C   0  0  0  0  0  0  0  0  0  0  0  0
   31.4570   30.5080   45.7230 C   0  0  0  0  0  0  0  0  0  0  0  0
   30.8050   29.4220   46.2070 N   0  0  0  0  0  0  0  0  0  0  0  0
   31.4290   28.4390   46.8760 C   0  0  0  0  0  0  0  0  0  0  0  0
   32.7570   28.5100   47.0870 N   0  0  0  0  0  0  0  0  0  0  0  0
   33.3720   31.4290   45.5700 H   0  0  0  0  0  0  0  0  0  0  0  0
   30.9660   31.2910   45.1910 H   0  0  0  0  0  0  0  0  0  0  0  0
   30.9590   27.5590   47.2790 H   0  0  0  0  0  0  0  0  0  0  0  0
  1  6  1  0  0  0  0
  1  2  1  0  0  0  0
  2  8  1  0  0  0  0
  2  3  1  0  0  0  0
  3 10  1  0  0  0  0
  3  9  1  0  0  0  0
  4  3  1  0  0  0  0
  4 12  1  0  0  0  0
  5 14  1  0  0  0  0
  5  4  1  0  0  0  0
  6 15  1  1  0  0  0
  6  5  1  0  0  0  0
  7  2  1  0  0  0  0
 11  4  1  0  0  0  0
 13  5  1  0  0  0  0
 17 16  1  0  0  0  0
 18 17  1  0  0  0  0
 18  6  1  0  0  0  0
 19 18  2  0  0  0  0
 20 19  1  0  0  0  0
 21 22  2  0  0  0  0
 21 19  1  0  0  0  0
 22 24  1  0  0  0  0
 23 22  1  0  0  0  0
 24 25  1  0  0  0  0
 24 17  2  0  0  0  0
 26 28  1  0  0  0  0
 26  1  1  0  0  0  0
 27 26  1  0  0  0  0
 29 26  1  0  0  0  0
 29 34  1  0  0  0  0
 30 29  2  0  0  0  0
 31 30  1  0  0  0  0
 31 32  2  0  0  0  0
 32 33  1  0  0  0  0
 33 34  2  0  0  0  0
 33 37  1  0  0  0  0
 35 30  1  0  0  0  0
 36 31  1  0  0  0  0
M  END
>  <minimizedAffinity>
-5.88619041

>  <minimizedRMSD>
2.99304152

$$$$
