
 OpenBabel03272508373D

 45 48  0  0  1  0  0  0  0  0999 V2000
   40.0410   31.8950   43.0420 N   0  0  0  0  0  0  0  0  0  0  0  0
   39.3600   33.0940   42.7370 C   0  0  0  0  0  0  0  0  0  0  0  0
   37.9610   32.9700   42.2710 C   0  0  0  0  0  0  0  0  0  0  0  0
   37.7720   31.8730   41.4340 O   0  0  0  0  0  0  0  0  0  0  0  0
   38.1660   30.7200   42.0220 C   0  0  0  0  0  0  0  0  0  0  0  0
   39.6330   30.7590   42.3500 C   0  0  1  0  0  0  0  0  0  0  0  0
   39.9370   33.4010   41.8270 H   0  0  0  0  0  0  0  0  0  0  0  0
   39.5520   33.9850   43.3430 H   0  0  0  0  0  0  0  0  0  0  0  0
   37.8310   33.8000   41.4690 H   0  0  0  0  0  0  0  0  0  0  0  0
   37.1420   33.2900   42.8880 H   0  0  0  0  0  0  0  0  0  0  0  0
   37.5070   30.2630   42.7520 H   0  0  0  0  0  0  0  0  0  0  0  0
   38.0700   29.9880   41.1800 H   0  0  0  0  0  0  0  0  0  0  0  0
   39.6420   29.9620   43.2090 H   0  0  0  0  0  0  0  0  0  0  0  0
   39.9940   27.6610   42.4770 Cl  0  0  0  0  0  0  0  0  0  0  0  0
   40.6710   28.7140   41.2940 C   0  0  0  0  0  0  0  0  0  0  0  0
   40.4560   30.0750   41.3650 C   0  0  0  0  0  0  0  0  0  0  0  0
   41.1350   30.7210   40.3100 C   0  0  0  0  0  0  0  0  0  0  0  0
   41.0450   31.8210   40.2520 H   0  0  0  0  0  0  0  0  0  0  0  0
   41.9110   30.1530   39.3240 C   0  0  0  0  0  3  0  0  0  0  0  0
   42.0540   28.7840   39.3530 C   0  0  0  0  0  0  0  0  0  0  0  0
   43.0320   28.0570   38.1110 Cl  0  0  0  0  0  0  0  0  0  0  0  0
   41.4330   28.0750   40.3370 C   0  0  0  0  0  0  0  0  0  0  0  0
   41.5930   27.0060   40.2940 H   0  0  0  0  0  0  0  0  0  0  0  0
   40.4380   31.7450   44.3990 C   0  0  0  0  0  0  0  0  0  0  0  0
   41.5530   31.7150   44.5360 H   0  0  0  0  0  0  0  0  0  0  0  0
   40.1730   30.6690   44.6410 H   0  0  0  0  0  0  0  0  0  0  0  0
   39.8520   32.5990   45.4160 C   0  0  0  0  0  0  0  0  0  0  0  0
   40.6390   32.8880   46.1900 H   0  0  0  0  0  0  0  0  0  0  0  0
   39.3780   33.5490   45.2140 H   0  0  0  0  0  0  0  0  0  0  0  0
   37.7590   30.9610   47.8240 C   0  0  0  0  0  0  0  0  0  0  0  0
   37.0000   30.8070   46.6800 C   0  0  0  0  0  0  0  0  0  0  0  0
   37.7130   31.4080   45.6340 C   0  0  0  0  0  0  0  0  0  0  0  0
   38.8310   31.8820   46.1760 N   0  0  0  0  0  0  0  0  0  0  0  0
   38.8540   31.6130   47.4810 N   0  0  0  0  0  0  0  0  0  0  0  0
   36.0160   30.3020   46.6170 H   0  0  0  0  0  0  0  0  0  0  0  0
   37.2710   31.3710   44.7110 H   0  0  0  0  0  0  0  0  0  0  0  0
   37.4370   30.2110   51.4950 C   0  0  0  0  0  0  0  0  0  0  0  0
   37.9520   30.7530   50.3110 C   0  0  0  0  0  0  0  0  0  0  0  0
   37.3330   30.4630   49.1080 C   0  0  0  0  0  0  0  0  0  0  0  0
   36.2430   29.6500   49.1920 N   0  0  0  0  0  0  0  0  0  0  0  0
   35.7620   29.1380   50.3400 C   0  0  0  0  0  0  0  0  0  0  0  0
   36.3700   29.4290   51.4860 N   0  0  0  0  0  0  0  0  0  0  0  0
   38.0420   30.5400   52.3510 H   0  0  0  0  0  0  0  0  0  0  0  0
   38.8160   31.3990   50.2300 H   0  0  0  0  0  0  0  0  0  0  0  0
   34.8900   28.5020   50.3020 H   0  0  0  0  0  0  0  0  0  0  0  0
  1 24  1  0  0  0  0
  2  1  1  0  0  0  0
  2  8  1  0  0  0  0
  3  2  1  0  0  0  0
  3 10  1  0  0  0  0
  4  5  1  0  0  0  0
  4  3  1  0  0  0  0
  5  6  1  0  0  0  0
  5 11  1  0  0  0  0
  6  1  1  0  0  0  0
  6 13  1  1  0  0  0
  7  2  1  0  0  0  0
  9  3  1  0  0  0  0
 12  5  1  0  0  0  0
 15 16  1  0  0  0  0
 15 14  1  0  0  0  0
 16  6  1  0  0  0  0
 17 16  2  0  0  0  0
 18 17  1  0  0  0  0
 19 20  2  0  0  0  0
 19 17  1  0  0  0  0
 20 22  1  0  0  0  0
 21 20  1  0  0  0  0
 22 15  2  0  0  0  0
 23 22  1  0  0  0  0
 24 25  1  0  0  0  0
 24 26  1  0  0  0  0
 24 27  1  0  0  0  0
 27 33  1  0  0  0  0
 27 28  1  0  0  0  0
 29 27  1  0  0  0  0
 30 39  1  0  0  0  0
 31 30  1  0  0  0  0
 32 33  1  0  0  0  0
 32 31  2  0  0  0  0
 33 34  1  0  0  0  0
 34 30  2  0  0  0  0
 35 31  1  0  0  0  0
 36 32  1  0  0  0  0
 37 43  1  0  0  0  0
 38 37  2  0  0  0  0
 39 40  2  0  0  0  0
 39 38  1  0  0  0  0
 40 41  1  0  0  0  0
 41 42  2  0  0  0  0
 42 37  1  0  0  0  0
 44 38  1  0  0  0  0
 45 41  1  0  0  0  0
M  END
>  <minimizedAffinity>
-6.0126605

>  <minimizedRMSD>
1.10420644

$$$$
