
 OpenBabel03272506093D

 45 48  0  0  0  0  0  0  0  0999 V2000
   34.9020   28.3550   49.1150 C   0  0  0  0  0  0  0  0  0  0  0  0
   34.9440   27.4570   49.8140 H   0  0  0  0  0  0  0  0  0  0  0  0
   35.8080   28.2480   48.5080 H   0  0  0  0  0  0  0  0  0  0  0  0
   33.6430   28.2100   48.3030 C   0  0  0  0  0  0  0  0  0  0  0  0
   33.6790   28.3980   46.8790 C   0  0  0  0  0  0  0  0  0  0  0  0
   31.9890   28.1250   46.4410 S   0  0  0  0  0  0  0  0  0  0  0  0
   31.4300   27.7960   48.1940 C   0  0  0  0  0  0  0  0  0  0  0  0
   32.4650   27.9250   48.7630 N   0  0  0  0  0  0  0  0  0  0  0  0
   30.1240   27.4740   48.7450 N   0  0  0  0  0  0  0  0  0  0  0  0
   29.2380   26.7600   47.8890 C   0  0  0  0  0  0  0  0  0  0  0  0
   27.8070   26.8100   48.3260 C   0  0  0  0  0  0  0  0  0  0  0  0
   27.5560   27.7300   49.4260 N   0  0  0  0  0  0  0  0  0  0  0  0
   28.4760   27.3370   50.4800 C   0  0  0  0  0  0  0  0  0  0  0  0
   29.8180   27.8930   50.0990 C   0  0  0  0  0  0  0  0  0  0  0  0
   34.4810   28.6420   46.1870 H   0  0  0  0  0  0  0  0  0  0  0  0
   29.2610   27.2040   46.8590 H   0  0  0  0  0  0  0  0  0  0  0  0
   29.6180   25.7260   47.7580 H   0  0  0  0  0  0  0  0  0  0  0  0
   27.5600   25.7870   48.7210 H   0  0  0  0  0  0  0  0  0  0  0  0
   27.0960   26.9770   47.4880 H   0  0  0  0  0  0  0  0  0  0  0  0
   26.5720   27.5530   49.7300 H   0  0  0  0  0  0  0  0  0  0  0  0
   28.4630   26.2530   50.6210 H   0  0  0  0  0  0  0  0  0  0  0  0
   28.1510   27.8520   51.4000 H   0  0  0  0  0  0  0  0  0  0  0  0
   30.6160   27.6520   50.8170 H   0  0  0  0  0  0  0  0  0  0  0  0
   29.7150   29.0050   50.0670 H   0  0  0  0  0  0  0  0  0  0  0  0
   34.9240   29.6010   49.8830 C   0  0  0  0  0  0  0  0  0  0  0  0
   35.2030   29.3780   50.9540 H   0  0  0  0  0  0  0  0  0  0  0  0
   33.9760   30.1600   49.9570 H   0  0  0  0  0  0  0  0  0  0  0  0
   37.3590   32.3830   49.6810 C   0  0  0  0  0  0  0  0  0  0  0  0
   37.9750   32.1510   48.4590 C   0  0  0  0  0  0  0  0  0  0  0  0
   37.5580   31.0340   47.6940 C   0  0  0  0  0  0  0  0  0  0  0  0
   36.5860   30.2420   48.1790 N   0  0  0  0  0  0  0  0  0  0  0  0
   36.0160   30.5220   49.3910 C   0  0  0  0  0  0  0  0  0  0  0  0
   36.3850   31.5660   50.1360 N   0  0  0  0  0  0  0  0  0  0  0  0
   37.5500   33.1850   50.3930 H   0  0  0  0  0  0  0  0  0  0  0  0
   38.6900   32.9140   48.3250 H   0  0  0  0  0  0  0  0  0  0  0  0
   35.9740   30.3690   45.1120 Cl  0  0  0  0  0  0  0  0  0  0  0  0
   37.6940   30.6330   45.2290 C   0  0  0  0  0  0  0  0  0  0  0  0
   38.2750   30.9220   46.4410 C   0  0  0  0  0  0  0  0  0  0  0  0
   39.6270   31.1030   46.3260 C   0  0  0  0  0  0  0  0  0  0  0  0
   40.2500   31.3310   47.1650 H   0  0  0  0  0  0  0  0  0  0  0  0
   40.3390   31.0140   45.1570 C   0  0  0  0  0  3  0  0  0  0  0  0
   39.6990   30.7220   43.9740 C   0  0  0  0  0  0  0  0  0  0  0  0
   40.5980   30.6060   42.4770 Cl  0  0  0  0  0  0  0  0  0  0  0  0
   38.3350   30.5260   44.0160 C   0  0  0  0  0  0  0  0  0  0  0  0
   37.8550   30.2990   43.0760 H   0  0  0  0  0  0  0  0  0  0  0  0
  1  2  1  0  0  0  0
  1 25  1  0  0  0  0
  3  1  1  0  0  0  0
  4  8  1  0  0  0  0
  4  1  1  0  0  0  0
  5  4  2  0  0  0  0
  6  5  1  0  0  0  0
  6  7  1  0  0  0  0
  7  9  1  0  0  0  0
  7  8  2  0  0  0  0
  9 14  1  0  0  0  0
 10 11  1  0  0  0  0
 10  9  1  0  0  0  0
 11 18  1  0  0  0  0
 11 12  1  0  0  0  0
 12 20  1  0  0  0  0
 12 13  1  0  0  0  0
 13 21  1  0  0  0  0
 13 22  1  0  0  0  0
 14 13  1  0  0  0  0
 14 23  1  0  0  0  0
 15  5  1  0  0  0  0
 16 10  1  0  0  0  0
 17 10  1  0  0  0  0
 19 11  1  0  0  0  0
 24 14  1  0  0  0  0
 25 27  1  0  0  0  0
 25 26  1  0  0  0  0
 28 33  1  0  0  0  0
 28 34  1  0  0  0  0
 29 28  2  0  0  0  0
 30 31  2  0  0  0  0
 30 29  1  0  0  0  0
 31 32  1  0  0  0  0
 32 25  1  0  0  0  0
 32 33  2  0  0  0  0
 35 29  1  0  0  0  0
 36 37  1  0  0  0  0
 37 38  1  0  0  0  0
 38 30  1  0  0  0  0
 39 38  2  0  0  0  0
 39 40  1  0  0  0  0
 41 39  1  0  0  0  0
 42 44  1  0  0  0  0
 42 41  2  0  0  0  0
 43 42  1  0  0  0  0
 44 37  2  0  0  0  0
 45 44  1  0  0  0  0
M  END
>  <minimizedAffinity>
-7.03488874

>  <minimizedRMSD>
0.91305846

$$$$
