
 OpenBabel03272505123D

 40 43  0  0  0  0  0  0  0  0999 V2000
   33.9710   29.9110   47.3840 S   0  0  0  0  0  0  0  0  0  0  0  0
   36.3280   30.8710   45.5750 Cl  0  0  0  0  0  0  0  0  0  0  0  0
   36.6210   30.6870   47.2830 C   0  0  0  0  0  0  0  0  0  0  0  0
   37.8880   30.9770   47.7470 C   0  0  0  0  0  0  0  0  0  0  0  0
   38.1330   30.8340   49.1030 C   0  0  0  0  0  0  0  0  0  0  0  0
   37.1360   30.4180   49.9300 C   0  0  0  0  0  0  0  0  0  0  0  0
   35.8730   30.1380   49.4060 C   0  0  0  0  0  0  0  0  0  0  0  0
   35.5630   30.2580   48.0750 C   0  0  0  0  0  0  0  0  0  0  0  0
   39.1350   31.0670   49.4470 H   0  0  0  0  0  0  0  0  0  0  0  0
   37.3480   30.3120   50.9850 H   0  0  0  0  0  0  0  0  0  0  0  0
   35.1010   29.8080   50.0940 H   0  0  0  0  0  0  0  0  0  0  0  0
   40.1630   33.2140   45.9730 C   0  0  0  0  0  0  0  0  0  0  0  0
   40.8770   32.3600   45.1040 C   0  0  0  0  0  0  0  0  0  0  0  0
   40.5570   30.9990   45.1430 C   0  0  0  0  0  0  0  0  0  0  0  0
   39.5870   30.5720   46.0050 N   0  0  0  0  0  0  0  0  0  0  0  0
   38.9410   31.4280   46.8080 C   0  0  0  0  0  0  0  0  0  0  0  0
   39.2290   32.7250   46.7880 N   0  0  0  0  0  0  0  0  0  0  0  0
   40.3890   34.2780   45.9680 H   0  0  0  0  0  0  0  0  0  0  0  0
   41.6390   32.7210   44.4330 H   0  0  0  0  0  0  0  0  0  0  0  0
   41.0650   30.2750   44.5020 H   0  0  0  0  0  0  0  0  0  0  0  0
   33.0760   29.1480   44.4600 Cl  0  0  0  0  0  0  0  0  0  0  0  0
   33.3920   27.9160   45.6750 C   0  0  0  0  0  0  0  0  0  0  0  0
   33.7900   28.1600   46.9870 C   0  0  0  0  0  0  0  0  0  0  0  0
   34.0070   27.1200   47.8440 C   0  0  0  0  0  0  0  0  0  0  0  0
   33.8340   25.8240   47.4220 C   0  0  0  0  0  0  0  0  0  0  0  0
   33.4390   25.5180   46.1250 C   0  0  0  0  0  0  0  0  0  0  0  0
   33.2300   26.5810   45.2900 C   0  0  0  0  0  0  0  0  0  0  0  0
   34.3160   27.3990   48.8520 H   0  0  0  0  0  0  0  0  0  0  0  0
   34.0100   25.0170   48.1120 H   0  0  0  0  0  0  0  0  0  0  0  0
   33.3090   24.4910   45.8130 H   0  0  0  0  0  0  0  0  0  0  0  0
   35.5790   26.2980   43.5560 Cl  0  0  0  0  0  0  0  0  0  0  0  0
   33.9220   26.1390   43.0810 C   0  0  0  0  0  0  0  0  0  0  0  0
   32.8110   26.2750   43.9150 C   0  0  0  0  0  0  0  0  0  0  0  0
   31.5230   26.1290   43.4420 C   0  0  0  0  0  0  0  0  0  0  0  0
   30.7550   26.2610   44.1920 H   0  0  0  0  0  0  0  0  0  0  0  0
   31.3190   25.8410   42.1090 C   0  0  0  0  0  3  0  0  0  0  0  0
   32.4030   25.6990   41.2600 C   0  0  0  0  0  0  0  0  0  0  0  0
   32.1480   25.3310   39.5600 Cl  0  0  0  0  0  0  0  0  0  0  0  0
   33.7040   25.8450   41.7310 C   0  0  0  0  0  0  0  0  0  0  0  0
   34.5100   25.7250   41.0270 H   0  0  0  0  0  0  0  0  0  0  0  0
  1  8  1  0  0  0  0
  2  3  1  0  0  0  0
  3  4  2  0  0  0  0
  3  8  1  0  0  0  0
  4  5  1  0  0  0  0
  5  9  1  0  0  0  0
  5  6  2  0  0  0  0
  6 10  1  0  0  0  0
  7  6  1  0  0  0  0
  7 11  1  0  0  0  0
  8  7  2  0  0  0  0
 12 17  1  0  0  0  0
 13 14  1  0  0  0  0
 13 12  2  0  0  0  0
 14 15  2  0  0  0  0
 15 16  1  0  0  0  0
 16  4  1  0  0  0  0
 17 16  2  0  0  0  0
 18 12  1  0  0  0  0
 19 13  1  0  0  0  0
 20 14  1  0  0  0  0
 21 22  1  0  0  0  0
 22 23  1  0  0  0  0
 23  1  1  0  0  0  0
 23 24  2  0  0  0  0
 24 28  1  0  0  0  0
 25 24  1  0  0  0  0
 25 29  1  0  0  0  0
 26 25  2  0  0  0  0
 27 22  2  0  0  0  0
 27 26  1  0  0  0  0
 30 26  1  0  0  0  0
 32 31  1  0  0  0  0
 32 33  1  0  0  0  0
 33 27  1  0  0  0  0
 34 33  2  0  0  0  0
 34 35  1  0  0  0  0
 36 34  1  0  0  0  0
 37 39  1  0  0  0  0
 37 36  2  0  0  0  0
 38 37  1  0  0  0  0
 39 32  2  0  0  0  0
 40 39  1  0  0  0  0
M  END
>  <minimizedAffinity>
-5.52340698

>  <minimizedRMSD>
0.968753517

$$$$
