
 OpenBabel03262523523D

 37 39  0  0  1  0  0  0  0  0999 V2000
   35.4110   28.9580   32.4400 N   0  0  0  0  0  0  0  0  0  0  0  0
   34.9180   30.2480   32.0090 C   0  0  0  0  0  0  0  0  0  0  0  0
   35.5130   30.6510   30.6960 C   0  0  0  0  0  0  0  0  0  0  0  0
   36.9970   30.3680   30.7480 C   0  0  0  0  0  0  0  0  0  0  0  0
   37.2170   28.8970   30.7770 C   0  0  0  0  0  0  0  0  0  0  0  0
   36.0000   28.2400   31.3890 C   0  0  1  0  0  0  0  0  0  0  0  0
   35.1940   30.9700   32.7880 H   0  0  0  0  0  0  0  0  0  0  0  0
   33.7980   30.2160   31.9050 H   0  0  0  0  0  0  0  0  0  0  0  0
   35.3890   31.7610   30.6300 H   0  0  0  0  0  0  0  0  0  0  0  0
   35.0090   30.2560   29.8050 H   0  0  0  0  0  0  0  0  0  0  0  0
   37.3710   30.8120   31.6920 H   0  0  0  0  0  0  0  0  0  0  0  0
   37.4970   30.8910   29.9110 H   0  0  0  0  0  0  0  0  0  0  0  0
   38.1250   28.6990   31.3870 H   0  0  0  0  0  0  0  0  0  0  0  0
   37.4000   28.4500   29.7850 H   0  0  0  0  0  0  0  0  0  0  0  0
   35.2370   28.4040   30.5330 H   0  0  0  0  0  0  0  0  0  0  0  0
   38.4270   27.1260   32.8000 Cl  0  0  0  0  0  0  0  0  0  0  0  0
   37.1340   26.1200   32.1200 C   0  0  0  0  0  0  0  0  0  0  0  0
   36.0660   26.7820   31.4880 C   0  0  0  0  0  0  0  0  0  0  0  0
   35.1570   25.8600   31.0200 C   0  0  0  0  0  0  0  0  0  0  0  0
   34.2730   26.2050   30.5120 H   0  0  0  0  0  0  0  0  0  0  0  0
   35.2320   24.4900   31.1260 C   0  0  0  0  0  3  0  0  0  0  0  0
   36.3260   23.9500   31.7670 C   0  0  0  0  0  0  0  0  0  0  0  0
   36.4710   22.2140   31.9290 Cl  0  0  0  0  0  0  0  0  0  0  0  0
   37.3080   24.7650   32.2810 C   0  0  0  0  0  0  0  0  0  0  0  0
   38.1690   24.3570   32.7840 H   0  0  0  0  0  0  0  0  0  0  0  0
   35.8120   28.8920   33.7670 C   0  0  0  0  0  0  0  0  0  0  0  0
   35.9470   27.9270   34.2560 H   0  0  0  0  0  0  0  0  0  0  0  0
   36.8800   29.3220   33.7910 H   0  0  0  0  0  0  0  0  0  0  0  0
   35.0570   29.7960   34.6450 C   0  0  0  0  0  0  0  0  0  0  0  0
   35.7730   30.8180   35.2960 C   0  0  0  0  0  0  0  0  0  0  0  0
   35.1090   31.7030   36.1540 C   0  0  0  0  0  0  0  0  0  0  0  0
   33.7750   31.5230   36.3140 N   0  0  0  0  0  0  0  0  0  0  0  0
   33.0940   30.5480   35.6930 C   0  0  0  0  0  0  0  0  0  0  0  0
   33.7390   29.7000   34.8690 N   0  0  0  0  0  0  0  0  0  0  0  0
   36.8320   30.9460   35.1550 H   0  0  0  0  0  0  0  0  0  0  0  0
   35.6540   32.4770   36.6460 H   0  0  0  0  0  0  0  0  0  0  0  0
   32.0380   30.3630   35.7860 H   0  0  0  0  0  0  0  0  0  0  0  0
  1 26  1  0  0  0  0
  2  1  1  0  0  0  0
  2  7  1  0  0  0  0
  3  4  1  0  0  0  0
  3  2  1  0  0  0  0
  4  5  1  0  0  0  0
  4 11  1  0  0  0  0
  5 13  1  0  0  0  0
  5  6  1  0  0  0  0
  6 15  1  6  0  0  0
  6 18  1  0  0  0  0
  6  1  1  0  0  0  0
  8  2  1  0  0  0  0
  9  3  1  0  0  0  0
 10  3  1  0  0  0  0
 12  4  1  0  0  0  0
 14  5  1  0  0  0  0
 17 24  1  0  0  0  0
 17 16  1  0  0  0  0
 18 17  2  0  0  0  0
 19 21  2  0  0  0  0
 19 18  1  0  0  0  0
 20 19  1  0  0  0  0
 21 22  1  0  0  0  0
 22 23  1  0  0  0  0
 22 24  2  0  0  0  0
 24 25  1  0  0  0  0
 26 28  1  0  0  0  0
 26 27  1  0  0  0  0
 26 29  1  0  0  0  0
 29 34  2  0  0  0  0
 29 30  1  0  0  0  0
 30 31  2  0  0  0  0
 31 32  1  0  0  0  0
 31 36  1  0  0  0  0
 33 37  1  0  0  0  0
 33 32  2  0  0  0  0
 34 33  1  0  0  0  0
 35 30  1  0  0  0  0
M  END
>  <minimizedAffinity>
-5.09909201

$$$$

 OpenBabel03262523523D

 37 39  0  0  1  0  0  0  0  0999 V2000
   37.4030   25.9660   33.2620 N   0  0  0  0  0  0  0  0  0  0  0  0
   37.0240   27.3150   33.6180 C   0  0  0  0  0  0  0  0  0  0  0  0
   36.6930   28.1290   32.4060 C   0  0  0  0  0  0  0  0  0  0  0  0
   37.7620   27.8750   31.3660 C   0  0  0  0  0  0  0  0  0  0  0  0
   37.6440   26.4760   30.8720 C   0  0  0  0  0  0  0  0  0  0  0  0
   37.0110   25.6330   31.9570 C   0  0  1  0  0  0  0  0  0  0  0  0
   37.8760   27.7550   34.1500 H   0  0  0  0  0  0  0  0  0  0  0  0
   36.1250   27.2950   34.2960 H   0  0  0  0  0  0  0  0  0  0  0  0
   36.7840   29.1990   32.7200 H   0  0  0  0  0  0  0  0  0  0  0  0
   35.6670   28.0300   32.0310 H   0  0  0  0  0  0  0  0  0  0  0  0
   38.7370   28.0010   31.8780 H   0  0  0  0  0  0  0  0  0  0  0  0
   37.6940   28.6480   30.5780 H   0  0  0  0  0  0  0  0  0  0  0  0
   38.6660   26.1130   30.6300 H   0  0  0  0  0  0  0  0  0  0  0  0
   37.0470   26.3740   29.9500 H   0  0  0  0  0  0  0  0  0  0  0  0
   35.9300   26.0470   31.9210 H   0  0  0  0  0  0  0  0  0  0  0  0
   39.4690   24.1930   30.9520 Cl  0  0  0  0  0  0  0  0  0  0  0  0
   37.8830   23.4220   31.1410 C   0  0  0  0  0  0  0  0  0  0  0  0
   36.8290   24.2220   31.6180 C   0  0  0  0  0  0  0  0  0  0  0  0
   35.6770   23.4730   31.7040 C   0  0  0  0  0  0  0  0  0  0  0  0
   34.7740   23.9390   32.0600 H   0  0  0  0  0  0  0  0  0  0  0  0
   35.5240   22.1430   31.3870 C   0  0  0  0  0  3  0  0  0  0  0  0
   36.6260   21.4560   30.9280 C   0  0  0  0  0  0  0  0  0  0  0  0
   36.4870   19.7630   30.5080 Cl  0  0  0  0  0  0  0  0  0  0  0  0
   37.8400   22.0910   30.7950 C   0  0  0  0  0  0  0  0  0  0  0  0
   38.7110   21.5670   30.4370 H   0  0  0  0  0  0  0  0  0  0  0  0
   38.5430   25.4860   33.8930 C   0  0  0  0  0  0  0  0  0  0  0  0
   39.3480   25.0350   33.3120 H   0  0  0  0  0  0  0  0  0  0  0  0
   39.0630   26.4110   34.3410 H   0  0  0  0  0  0  0  0  0  0  0  0
   38.2470   24.6560   35.0670 C   0  0  0  0  0  0  0  0  0  0  0  0
   38.1490   23.2660   34.8720 C   0  0  0  0  0  0  0  0  0  0  0  0
   37.8570   22.4230   35.9520 C   0  0  0  0  0  0  0  0  0  0  0  0
   37.6810   23.0100   37.1620 N   0  0  0  0  0  0  0  0  0  0  0  0
   37.7740   24.3360   37.3460 C   0  0  0  0  0  0  0  0  0  0  0  0
   38.0550   25.1400   36.3030 N   0  0  0  0  0  0  0  0  0  0  0  0
   38.2930   22.8170   33.9040 H   0  0  0  0  0  0  0  0  0  0  0  0
   37.7840   21.3700   35.8020 H   0  0  0  0  0  0  0  0  0  0  0  0
   37.6430   24.8500   38.2820 H   0  0  0  0  0  0  0  0  0  0  0  0
  1  2  1  0  0  0  0
  1 26  1  0  0  0  0
  2  7  1  0  0  0  0
  2  8  1  0  0  0  0
  3  9  1  0  0  0  0
  3  2  1  0  0  0  0
  4 11  1  0  0  0  0
  4  3  1  0  0  0  0
  5  4  1  0  0  0  0
  5  6  1  0  0  0  0
  6 15  1  6  0  0  0
  6  1  1  0  0  0  0
 10  3  1  0  0  0  0
 12  4  1  0  0  0  0
 13  5  1  0  0  0  0
 14  5  1  0  0  0  0
 16 17  1  0  0  0  0
 17 18  1  0  0  0  0
 18 19  2  0  0  0  0
 18  6  1  0  0  0  0
 19 20  1  0  0  0  0
 21 19  1  0  0  0  0
 22 21  2  0  0  0  0
 23 22  1  0  0  0  0
 24 22  1  0  0  0  0
 24 17  2  0  0  0  0
 25 24  1  0  0  0  0
 26 28  1  0  0  0  0
 26 29  1  0  0  0  0
 27 26  1  0  0  0  0
 29 34  1  0  0  0  0
 30 29  2  0  0  0  0
 30 31  1  0  0  0  0
 31 32  2  0  0  0  0
 32 33  1  0  0  0  0
 33 37  1  0  0  0  0
 34 33  2  0  0  0  0
 35 30  1  0  0  0  0
 36 31  1  0  0  0  0
M  END
>  <minimizedAffinity>
-5.04269886

$$$$

 OpenBabel03262523523D

 37 39  0  0  1  0  0  0  0  0999 V2000
   39.0640   24.1650   34.9190 N   0  0  0  0  0  0  0  0  0  0  0  0
   40.4070   24.6860   35.0450 C   0  0  0  0  0  0  0  0  0  0  0  0
   41.3580   23.6370   35.5300 C   0  0  0  0  0  0  0  0  0  0  0  0
   40.7020   22.9060   36.6800 C   0  0  0  0  0  0  0  0  0  0  0  0
   39.5570   22.1070   36.1650 C   0  0  0  0  0  0  0  0  0  0  0  0
   39.0400   22.7620   34.9030 C   0  0  1  0  0  0  0  0  0  0  0  0
   40.3600   25.5160   35.7600 H   0  0  0  0  0  0  0  0  0  0  0  0
   40.7660   25.0660   34.0480 H   0  0  0  0  0  0  0  0  0  0  0  0
   42.2380   24.1890   35.9470 H   0  0  0  0  0  0  0  0  0  0  0  0
   41.7770   22.9800   34.7580 H   0  0  0  0  0  0  0  0  0  0  0  0
   40.3220   23.6830   37.3730 H   0  0  0  0  0  0  0  0  0  0  0  0
   41.4660   22.3180   37.2210 H   0  0  0  0  0  0  0  0  0  0  0  0
   38.7740   22.0850   36.9530 H   0  0  0  0  0  0  0  0  0  0  0  0
   39.8080   21.0550   35.9410 H   0  0  0  0  0  0  0  0  0  0  0  0
   39.9140   22.5180   34.1840 H   0  0  0  0  0  0  0  0  0  0  0  0
   39.0230   22.7560   31.8830 Cl  0  0  0  0  0  0  0  0  0  0  0  0
   37.7640   22.0010   32.8780 C   0  0  0  0  0  0  0  0  0  0  0  0
   37.9050   22.0880   34.2750 C   0  0  0  0  0  0  0  0  0  0  0  0
   36.8490   21.4550   34.8910 C   0  0  0  0  0  0  0  0  0  0  0  0
   36.8100   21.4260   35.9660 H   0  0  0  0  0  0  0  0  0  0  0  0
   35.7910   20.8190   34.2830 C   0  0  0  0  0  3  0  0  0  0  0  0
   35.7550   20.7960   32.9060 C   0  0  0  0  0  0  0  0  0  0  0  0
   34.4310   20.0010   32.0820 Cl  0  0  0  0  0  0  0  0  0  0  0  0
   36.7520   21.3940   32.1700 C   0  0  0  0  0  0  0  0  0  0  0  0
   36.7370   21.3840   31.0920 H   0  0  0  0  0  0  0  0  0  0  0  0
   38.0660   24.9680   35.4540 C   0  0  0  0  0  0  0  0  0  0  0  0
   37.2800   24.5340   36.0730 H   0  0  0  0  0  0  0  0  0  0  0  0
   38.5960   25.6670   36.2000 H   0  0  0  0  0  0  0  0  0  0  0  0
   37.4800   25.8910   34.4740 C   0  0  0  0  0  0  0  0  0  0  0  0
   37.1190   27.1740   34.9240 C   0  0  0  0  0  0  0  0  0  0  0  0
   36.5450   28.0940   34.0380 C   0  0  0  0  0  0  0  0  0  0  0  0
   36.3630   27.6870   32.7580 N   0  0  0  0  0  0  0  0  0  0  0  0
   36.7070   26.4620   32.3300 C   0  0  0  0  0  0  0  0  0  0  0  0
   37.2590   25.5830   33.1880 N   0  0  0  0  0  0  0  0  0  0  0  0
   37.2720   27.4810   35.9450 H   0  0  0  0  0  0  0  0  0  0  0  0
   36.2730   29.0670   34.3820 H   0  0  0  0  0  0  0  0  0  0  0  0
   36.5850   26.0900   31.3280 H   0  0  0  0  0  0  0  0  0  0  0  0
  1  2  1  0  0  0  0
  1 26  1  0  0  0  0
  2  3  1  0  0  0  0
  2  7  1  0  0  0  0
  3  9  1  0  0  0  0
  3  4  1  0  0  0  0
  4 12  1  0  0  0  0
  4 11  1  0  0  0  0
  5  4  1  0  0  0  0
  5 13  1  0  0  0  0
  6 15  1  6  0  0  0
  6  1  1  0  0  0  0
  6  5  1  0  0  0  0
  8  2  1  0  0  0  0
 10  3  1  0  0  0  0
 14  5  1  0  0  0  0
 16 17  1  0  0  0  0
 17 18  1  0  0  0  0
 18 19  2  0  0  0  0
 18  6  1  0  0  0  0
 19 20  1  0  0  0  0
 21 19  1  0  0  0  0
 22 21  2  0  0  0  0
 23 22  1  0  0  0  0
 24 17  2  0  0  0  0
 24 22  1  0  0  0  0
 25 24  1  0  0  0  0
 26 27  1  0  0  0  0
 26 28  1  0  0  0  0
 29 30  1  0  0  0  0
 29 26  1  0  0  0  0
 30 35  1  0  0  0  0
 31 36  1  0  0  0  0
 31 30  2  0  0  0  0
 32 31  1  0  0  0  0
 33 32  2  0  0  0  0
 33 34  1  0  0  0  0
 34 29  2  0  0  0  0
 37 33  1  0  0  0  0
M  END
>  <minimizedAffinity>
-4.98343182

$$$$

 OpenBabel03262523523D

 37 39  0  0  1  0  0  0  0  0999 V2000
   36.5400   27.4490   31.6920 N   0  0  0  0  0  0  0  0  0  0  0  0
   36.4010   28.5680   30.7850 C   0  0  0  0  0  0  0  0  0  0  0  0
   36.4220   29.8730   31.5170 C   0  0  0  0  0  0  0  0  0  0  0  0
   35.5280   29.7440   32.7300 C   0  0  0  0  0  0  0  0  0  0  0  0
   36.1490   28.8050   33.7020 C   0  0  0  0  0  0  0  0  0  0  0  0
   37.0360   27.8430   32.9440 C   0  0  1  0  0  0  0  0  0  0  0  0
   35.4420   28.4390   30.2670 H   0  0  0  0  0  0  0  0  0  0  0  0
   37.2390   28.5600   30.0340 H   0  0  0  0  0  0  0  0  0  0  0  0
   35.9470   30.6180   30.8310 H   0  0  0  0  0  0  0  0  0  0  0  0
   37.4180   30.2810   31.7320 H   0  0  0  0  0  0  0  0  0  0  0  0
   34.5690   29.3180   32.3720 H   0  0  0  0  0  0  0  0  0  0  0  0
   35.3160   30.7520   33.1350 H   0  0  0  0  0  0  0  0  0  0  0  0
   35.3310   28.2650   34.2250 H   0  0  0  0  0  0  0  0  0  0  0  0
   36.7500   29.3000   34.4840 H   0  0  0  0  0  0  0  0  0  0  0  0
   37.8930   28.5620   32.6440 H   0  0  0  0  0  0  0  0  0  0  0  0
   39.8800   27.2080   32.1470 Cl  0  0  0  0  0  0  0  0  0  0  0  0
   39.0490   26.4550   33.5220 C   0  0  0  0  0  0  0  0  0  0  0  0
   37.7220   26.8490   33.7700 C   0  0  0  0  0  0  0  0  0  0  0  0
   37.2300   26.1740   34.8630 C   0  0  0  0  0  0  0  0  0  0  0  0
   36.2230   26.3660   35.1900 H   0  0  0  0  0  0  0  0  0  0  0  0
   37.8930   25.2450   35.6340 C   0  0  0  0  0  3  0  0  0  0  0  0
   39.1920   24.9350   35.2990 C   0  0  0  0  0  0  0  0  0  0  0  0
   40.0790   23.7600   36.2440 Cl  0  0  0  0  0  0  0  0  0  0  0  0
   39.8010   25.5410   34.2240 C   0  0  0  0  0  0  0  0  0  0  0  0
   40.8170   25.3080   33.9500 H   0  0  0  0  0  0  0  0  0  0  0  0
   35.6470   26.4070   31.4870 C   0  0  0  0  0  0  0  0  0  0  0  0
   34.8140   26.2490   32.1720 H   0  0  0  0  0  0  0  0  0  0  0  0
   35.1020   26.6530   30.5030 H   0  0  0  0  0  0  0  0  0  0  0  0
   36.3100   25.1270   31.2030 C   0  0  0  0  0  0  0  0  0  0  0  0
   35.6120   23.9480   31.5240 C   0  0  0  0  0  0  0  0  0  0  0  0
   36.1970   22.6980   31.2860 C   0  0  0  0  0  0  0  0  0  0  0  0
   37.4390   22.6920   30.7430 N   0  0  0  0  0  0  0  0  0  0  0  0
   38.1040   23.8170   30.4380 C   0  0  0  0  0  0  0  0  0  0  0  0
   37.5340   25.0160   30.6690 N   0  0  0  0  0  0  0  0  0  0  0  0
   34.6250   23.9720   31.9530 H   0  0  0  0  0  0  0  0  0  0  0  0
   35.6650   21.8060   31.5300 H   0  0  0  0  0  0  0  0  0  0  0  0
   39.0890   23.8670   30.0070 H   0  0  0  0  0  0  0  0  0  0  0  0
  1  6  1  0  0  0  0
  2  3  1  0  0  0  0
  2  1  1  0  0  0  0
  3 10  1  0  0  0  0
  3  4  1  0  0  0  0
  4 12  1  0  0  0  0
  4  5  1  0  0  0  0
  5 13  1  0  0  0  0
  5 14  1  0  0  0  0
  6 15  1  6  0  0  0
  6  5  1  0  0  0  0
  6 18  1  0  0  0  0
  7  2  1  0  0  0  0
  8  2  1  0  0  0  0
  9  3  1  0  0  0  0
 11  4  1  0  0  0  0
 16 17  1  0  0  0  0
 17 18  2  0  0  0  0
 17 24  1  0  0  0  0
 18 19  1  0  0  0  0
 19 20  1  0  0  0  0
 19 21  2  0  0  0  0
 22 21  1  0  0  0  0
 22 23  1  0  0  0  0
 24 22  2  0  0  0  0
 25 24  1  0  0  0  0
 26  1  1  0  0  0  0
 26 27  1  0  0  0  0
 28 26  1  0  0  0  0
 29 26  1  0  0  0  0
 29 30  1  0  0  0  0
 30 35  1  0  0  0  0
 31 30  2  0  0  0  0
 31 36  1  0  0  0  0
 32 31  1  0  0  0  0
 33 34  1  0  0  0  0
 33 32  2  0  0  0  0
 34 29  2  0  0  0  0
 37 33  1  0  0  0  0
M  END
>  <minimizedAffinity>
-4.90002155

$$$$

 OpenBabel03262523523D

 37 39  0  0  1  0  0  0  0  0999 V2000
   38.9430   23.6210   35.0710 N   0  0  0  0  0  0  0  0  0  0  0  0
   38.1180   23.2290   36.1920 C   0  0  0  0  0  0  0  0  0  0  0  0
   38.9170   23.1350   37.4550 C   0  0  0  0  0  0  0  0  0  0  0  0
   40.1990   22.3980   37.1430 C   0  0  0  0  0  0  0  0  0  0  0  0
   41.0540   23.2450   36.2680 C   0  0  0  0  0  0  0  0  0  0  0  0
   40.1620   24.1810   35.4820 C   0  0  1  0  0  0  0  0  0  0  0  0
   37.6870   22.2520   35.9430 H   0  0  0  0  0  0  0  0  0  0  0  0
   37.2920   23.9790   36.3420 H   0  0  0  0  0  0  0  0  0  0  0  0
   38.3220   22.4890   38.1480 H   0  0  0  0  0  0  0  0  0  0  0  0
   39.0590   24.0770   37.9990 H   0  0  0  0  0  0  0  0  0  0  0  0
   39.9110   21.4800   36.5920 H   0  0  0  0  0  0  0  0  0  0  0  0
   40.6790   22.0840   38.0890 H   0  0  0  0  0  0  0  0  0  0  0  0
   41.6210   22.5720   35.5890 H   0  0  0  0  0  0  0  0  0  0  0  0
   41.8020   23.8450   36.8150 H   0  0  0  0  0  0  0  0  0  0  0  0
   39.8230   24.8890   36.3340 H   0  0  0  0  0  0  0  0  0  0  0  0
   39.2430   27.0580   35.5190 Cl  0  0  0  0  0  0  0  0  0  0  0  0
   40.5450   26.4520   34.4790 C   0  0  0  0  0  0  0  0  0  0  0  0
   40.8620   25.0840   34.5700 C   0  0  0  0  0  0  0  0  0  0  0  0
   41.8860   24.7830   33.7020 C   0  0  0  0  0  0  0  0  0  0  0  0
   42.2530   23.7730   33.6520 H   0  0  0  0  0  0  0  0  0  0  0  0
   42.5390   25.6490   32.8530 C   0  0  0  0  0  3  0  0  0  0  0  0
   42.1450   26.9690   32.8470 C   0  0  0  0  0  0  0  0  0  0  0  0
   42.9400   28.1110   31.7870 Cl  0  0  0  0  0  0  0  0  0  0  0  0
   41.1290   27.3990   33.6700 C   0  0  0  0  0  0  0  0  0  0  0  0
   40.8110   28.4290   33.6760 H   0  0  0  0  0  0  0  0  0  0  0  0
   38.7650   22.8740   33.9160 C   0  0  0  0  0  0  0  0  0  0  0  0
   39.6210   22.5930   33.3020 H   0  0  0  0  0  0  0  0  0  0  0  0
   38.3760   21.8480   34.2660 H   0  0  0  0  0  0  0  0  0  0  0  0
   37.6810   23.3790   33.0620 C   0  0  0  0  0  0  0  0  0  0  0  0
   37.5690   24.7740   32.9120 C   0  0  0  0  0  0  0  0  0  0  0  0
   36.5490   25.3160   32.1200 C   0  0  0  0  0  0  0  0  0  0  0  0
   35.7020   24.4420   31.5230 N   0  0  0  0  0  0  0  0  0  0  0  0
   35.8090   23.1110   31.6680 C   0  0  0  0  0  0  0  0  0  0  0  0
   36.7930   22.5980   32.4310 N   0  0  0  0  0  0  0  0  0  0  0  0
   38.2530   25.4530   33.3920 H   0  0  0  0  0  0  0  0  0  0  0  0
   36.4670   26.3730   32.0070 H   0  0  0  0  0  0  0  0  0  0  0  0
   35.1650   22.3770   31.2180 H   0  0  0  0  0  0  0  0  0  0  0  0
  1  6  1  0  0  0  0
  1  2  1  0  0  0  0
  2  8  1  0  0  0  0
  2  3  1  0  0  0  0
  3 10  1  0  0  0  0
  3  9  1  0  0  0  0
  4  3  1  0  0  0  0
  4 12  1  0  0  0  0
  5 14  1  0  0  0  0
  5  4  1  0  0  0  0
  6  5  1  0  0  0  0
  6 15  1  1  0  0  0
  7  2  1  0  0  0  0
 11  4  1  0  0  0  0
 13  5  1  0  0  0  0
 17 18  1  0  0  0  0
 17 16  1  0  0  0  0
 18  6  1  0  0  0  0
 19 18  2  0  0  0  0
 20 19  1  0  0  0  0
 21 19  1  0  0  0  0
 22 21  2  0  0  0  0
 22 24  1  0  0  0  0
 23 22  1  0  0  0  0
 24 25  1  0  0  0  0
 24 17  2  0  0  0  0
 26 28  1  0  0  0  0
 26  1  1  0  0  0  0
 27 26  1  0  0  0  0
 29 26  1  0  0  0  0
 30 29  1  0  0  0  0
 30 35  1  0  0  0  0
 31 30  2  0  0  0  0
 32 33  2  0  0  0  0
 32 31  1  0  0  0  0
 33 34  1  0  0  0  0
 34 29  2  0  0  0  0
 36 31  1  0  0  0  0
 37 33  1  0  0  0  0
M  END
>  <minimizedAffinity>
-4.89218283

$$$$

 OpenBabel03262523523D

 37 39  0  0  1  0  0  0  0  0999 V2000
   38.3270   25.4660   32.7560 N   0  0  0  0  0  0  0  0  0  0  0  0
   38.1760   26.8990   32.8820 C   0  0  0  0  0  0  0  0  0  0  0  0
   38.1850   27.5710   31.5440 C   0  0  0  0  0  0  0  0  0  0  0  0
   39.3170   26.9810   30.7330 C   0  0  0  0  0  0  0  0  0  0  0  0
   38.9950   25.5680   30.3950 C   0  0  0  0  0  0  0  0  0  0  0  0
   38.0630   25.0190   31.4530 C   0  0  1  0  0  0  0  0  0  0  0  0
   39.0160   27.2550   33.4910 H   0  0  0  0  0  0  0  0  0  0  0  0
   37.2060   27.1390   33.4000 H   0  0  0  0  0  0  0  0  0  0  0  0
   38.4410   28.6420   31.7400 H   0  0  0  0  0  0  0  0  0  0  0  0
   37.2220   27.6010   31.0200 H   0  0  0  0  0  0  0  0  0  0  0  0
   40.2170   27.0060   31.3790 H   0  0  0  0  0  0  0  0  0  0  0  0
   39.5140   27.6280   29.8580 H   0  0  0  0  0  0  0  0  0  0  0  0
   39.9480   24.9970   30.3700 H   0  0  0  0  0  0  0  0  0  0  0  0
   38.5240   25.4380   29.4060 H   0  0  0  0  0  0  0  0  0  0  0  0
   37.1010   25.6090   31.1900 H   0  0  0  0  0  0  0  0  0  0  0  0
   35.0850   24.5120   31.4600 Cl  0  0  0  0  0  0  0  0  0  0  0  0
   36.3020   23.2410   31.2350 C   0  0  0  0  0  0  0  0  0  0  0  0
   37.6540   23.6290   31.2580 C   0  0  0  0  0  0  0  0  0  0  0  0
   38.4580   22.5290   31.0710 C   0  0  0  0  0  0  0  0  0  0  0  0
   39.5270   22.6560   31.0570 H   0  0  0  0  0  0  0  0  0  0  0  0
   38.0560   21.2260   30.8820 C   0  0  0  0  0  3  0  0  0  0  0  0
   36.7040   20.9610   30.8780 C   0  0  0  0  0  0  0  0  0  0  0  0
   36.1380   19.3220   30.6440 Cl  0  0  0  0  0  0  0  0  0  0  0  0
   35.7920   21.9760   31.0560 C   0  0  0  0  0  0  0  0  0  0  0  0
   34.7310   21.7830   31.0540 H   0  0  0  0  0  0  0  0  0  0  0  0
   39.2500   24.8910   33.6190 C   0  0  0  0  0  0  0  0  0  0  0  0
   40.0390   24.2450   33.2330 H   0  0  0  0  0  0  0  0  0  0  0  0
   39.8540   25.7680   34.0570 H   0  0  0  0  0  0  0  0  0  0  0  0
   38.6310   24.2750   34.7990 C   0  0  0  0  0  0  0  0  0  0  0  0
   38.2860   22.9130   34.7160 C   0  0  0  0  0  0  0  0  0  0  0  0
   37.6820   22.2730   35.8050 C   0  0  0  0  0  0  0  0  0  0  0  0
   37.4570   23.0210   36.9130 N   0  0  0  0  0  0  0  0  0  0  0  0
   37.7860   24.3210   36.9910 C   0  0  0  0  0  0  0  0  0  0  0  0
   38.3670   24.9290   35.9390 N   0  0  0  0  0  0  0  0  0  0  0  0
   38.4730   22.3340   33.8280 H   0  0  0  0  0  0  0  0  0  0  0  0
   37.4220   21.2410   35.7390 H   0  0  0  0  0  0  0  0  0  0  0  0
   37.6300   24.9570   37.8440 H   0  0  0  0  0  0  0  0  0  0  0  0
  1  2  1  0  0  0  0
  1 26  1  0  0  0  0
  2  8  1  0  0  0  0
  2  7  1  0  0  0  0
  3  9  1  0  0  0  0
  3  2  1  0  0  0  0
  4 11  1  0  0  0  0
  4  3  1  0  0  0  0
  5  4  1  0  0  0  0
  5  6  1  0  0  0  0
  6 15  1  6  0  0  0
  6  1  1  0  0  0  0
 10  3  1  0  0  0  0
 12  4  1  0  0  0  0
 13  5  1  0  0  0  0
 14  5  1  0  0  0  0
 17 18  1  0  0  0  0
 17 16  1  0  0  0  0
 18  6  1  0  0  0  0
 19 18  2  0  0  0  0
 20 19  1  0  0  0  0
 21 19  1  0  0  0  0
 22 21  2  0  0  0  0
 22 24  1  0  0  0  0
 23 22  1  0  0  0  0
 24 17  2  0  0  0  0
 25 24  1  0  0  0  0
 26 28  1  0  0  0  0
 26 29  1  0  0  0  0
 27 26  1  0  0  0  0
 29 34  1  0  0  0  0
 30 29  2  0  0  0  0
 30 31  1  0  0  0  0
 31 32  2  0  0  0  0
 32 33  1  0  0  0  0
 33 37  1  0  0  0  0
 34 33  2  0  0  0  0
 35 30  1  0  0  0  0
 36 31  1  0  0  0  0
M  END
>  <minimizedAffinity>
-4.84671783

$$$$

 OpenBabel03262523523D

 37 39  0  0  1  0  0  0  0  0999 V2000
   39.0500   26.7720   33.0950 N   0  0  0  0  0  0  0  0  0  0  0  0
   39.8600   25.8550   32.3230 C   0  0  0  0  0  0  0  0  0  0  0  0
   39.0130   24.9030   31.5370 C   0  0  0  0  0  0  0  0  0  0  0  0
   37.9190   24.3910   32.4460 C   0  0  0  0  0  0  0  0  0  0  0  0
   36.9770   25.5010   32.7560 C   0  0  0  0  0  0  0  0  0  0  0  0
   37.7230   26.8120   32.6440 C   0  0  1  0  0  0  0  0  0  0  0  0
   40.4860   25.3050   33.0370 H   0  0  0  0  0  0  0  0  0  0  0  0
   40.5160   26.4290   31.6110 H   0  0  0  0  0  0  0  0  0  0  0  0
   39.6740   24.0350   31.2920 H   0  0  0  0  0  0  0  0  0  0  0  0
   38.6580   25.2730   30.5670 H   0  0  0  0  0  0  0  0  0  0  0  0
   38.4130   24.0610   33.3820 H   0  0  0  0  0  0  0  0  0  0  0  0
   37.4470   23.5040   31.9840 H   0  0  0  0  0  0  0  0  0  0  0  0
   36.5940   25.3460   33.7870 H   0  0  0  0  0  0  0  0  0  0  0  0
   36.0930   25.5380   32.0950 H   0  0  0  0  0  0  0  0  0  0  0  0
   37.8640   26.8600   31.4960 H   0  0  0  0  0  0  0  0  0  0  0  0
   37.4400   28.7670   30.3590 Cl  0  0  0  0  0  0  0  0  0  0  0  0
   36.7020   29.0020   31.9550 C   0  0  0  0  0  0  0  0  0  0  0  0
   36.9240   28.0050   32.9220 C   0  0  0  0  0  0  0  0  0  0  0  0
   36.2860   28.3420   34.0950 C   0  0  0  0  0  0  0  0  0  0  0  0
   36.3540   27.6780   34.9390 H   0  0  0  0  0  0  0  0  0  0  0  0
   35.5320   29.4680   34.3380 C   0  0  0  0  0  3  0  0  0  0  0  0
   35.3820   30.3790   33.3150 C   0  0  0  0  0  0  0  0  0  0  0  0
   34.4340   31.8270   33.5700 Cl  0  0  0  0  0  0  0  0  0  0  0  0
   35.9700   30.1590   32.0900 C   0  0  0  0  0  0  0  0  0  0  0  0
   35.8610   30.8630   31.2810 H   0  0  0  0  0  0  0  0  0  0  0  0
   39.4440   26.9400   34.4150 C   0  0  0  0  0  0  0  0  0  0  0  0
   40.3940   27.4190   34.6520 H   0  0  0  0  0  0  0  0  0  0  0  0
   38.6860   27.6760   34.8740 H   0  0  0  0  0  0  0  0  0  0  0  0
   39.2790   25.7270   35.2260 C   0  0  0  0  0  0  0  0  0  0  0  0
   38.1600   25.6600   36.0770 C   0  0  0  0  0  0  0  0  0  0  0  0
   37.9550   24.5330   36.8830 C   0  0  0  0  0  0  0  0  0  0  0  0
   38.8730   23.5390   36.7960 N   0  0  0  0  0  0  0  0  0  0  0  0
   39.9410   23.6040   35.9850 C   0  0  0  0  0  0  0  0  0  0  0  0
   40.1300   24.6910   35.2130 N   0  0  0  0  0  0  0  0  0  0  0  0
   37.4400   26.4590   36.1310 H   0  0  0  0  0  0  0  0  0  0  0  0
   37.1060   24.4850   37.5260 H   0  0  0  0  0  0  0  0  0  0  0  0
   40.6960   22.8450   35.8800 H   0  0  0  0  0  0  0  0  0  0  0  0
  1 26  1  0  0  0  0
  2  7  1  0  0  0  0
  2  1  1  0  0  0  0
  3  2  1  0  0  0  0
  3  4  1  0  0  0  0
  4  5  1  0  0  0  0
  4 11  1  0  0  0  0
  5 13  1  0  0  0  0
  6 15  1  6  0  0  0
  6  5  1  0  0  0  0
  6 18  1  0  0  0  0
  6  1  1  0  0  0  0
  8  2  1  0  0  0  0
  9  3  1  0  0  0  0
 10  3  1  0  0  0  0
 12  4  1  0  0  0  0
 14  5  1  0  0  0  0
 16 17  1  0  0  0  0
 17 24  2  0  0  0  0
 17 18  1  0  0  0  0
 18 19  2  0  0  0  0
 19 21  1  0  0  0  0
 19 20  1  0  0  0  0
 22 23  1  0  0  0  0
 22 21  2  0  0  0  0
 24 22  1  0  0  0  0
 25 24  1  0  0  0  0
 26 27  1  0  0  0  0
 26 28  1  0  0  0  0
 26 29  1  0  0  0  0
 29 30  1  0  0  0  0
 30 35  1  0  0  0  0
 30 31  2  0  0  0  0
 31 36  1  0  0  0  0
 32 31  1  0  0  0  0
 33 32  2  0  0  0  0
 34 29  2  0  0  0  0
 34 33  1  0  0  0  0
 37 33  1  0  0  0  0
M  END
>  <minimizedAffinity>
-4.80901861

$$$$

 OpenBabel03262523523D

 37 39  0  0  1  0  0  0  0  0999 V2000
   37.7490   26.1110   33.6000 N   0  0  0  0  0  0  0  0  0  0  0  0
   37.2310   26.4500   34.9070 C   0  0  0  0  0  0  0  0  0  0  0  0
   38.1430   27.3910   35.6310 C   0  0  0  0  0  0  0  0  0  0  0  0
   39.5600   26.8880   35.4670 C   0  0  0  0  0  0  0  0  0  0  0  0
   39.9760   27.0440   34.0460 C   0  0  0  0  0  0  0  0  0  0  0  0
   38.7400   27.0070   33.1750 C   0  0  1  0  0  0  0  0  0  0  0  0
   37.1350   25.5110   35.4650 H   0  0  0  0  0  0  0  0  0  0  0  0
   36.2190   26.9340   34.8050 H   0  0  0  0  0  0  0  0  0  0  0  0
   37.8820   27.3000   36.7140 H   0  0  0  0  0  0  0  0  0  0  0  0
   38.0130   28.4550   35.3960 H   0  0  0  0  0  0  0  0  0  0  0  0
   39.5450   25.8110   35.7270 H   0  0  0  0  0  0  0  0  0  0  0  0
   40.2150   27.4000   36.1960 H   0  0  0  0  0  0  0  0  0  0  0  0
   40.6630   26.2070   33.7990 H   0  0  0  0  0  0  0  0  0  0  0  0
   40.5280   27.9770   33.8400 H   0  0  0  0  0  0  0  0  0  0  0  0
   38.2730   28.0290   33.4560 H   0  0  0  0  0  0  0  0  0  0  0  0
   36.9200   28.9190   31.7080 Cl  0  0  0  0  0  0  0  0  0  0  0  0
   38.2240   28.0050   30.9280 C   0  0  0  0  0  0  0  0  0  0  0  0
   38.9890   27.1490   31.7410 C   0  0  0  0  0  0  0  0  0  0  0  0
   39.9500   26.5200   30.9830 C   0  0  0  0  0  0  0  0  0  0  0  0
   40.6270   25.8310   31.4580 H   0  0  0  0  0  0  0  0  0  0  0  0
   40.1740   26.6700   29.6330 C   0  0  0  0  0  3  0  0  0  0  0  0
   39.3630   27.5370   28.9340 C   0  0  0  0  0  0  0  0  0  0  0  0
   39.6040   27.7640   27.2160 Cl  0  0  0  0  0  0  0  0  0  0  0  0
   38.3610   28.2290   29.5770 C   0  0  0  0  0  0  0  0  0  0  0  0
   37.7190   28.9100   29.0430 H   0  0  0  0  0  0  0  0  0  0  0  0
   37.7150   24.7600   33.2840 C   0  0  0  0  0  0  0  0  0  0  0  0
   36.7740   24.2790   33.0150 H   0  0  0  0  0  0  0  0  0  0  0  0
   38.3220   24.6530   32.3110 H   0  0  0  0  0  0  0  0  0  0  0  0
   38.4490   23.9240   34.2420 C   0  0  0  0  0  0  0  0  0  0  0  0
   39.7420   23.5040   33.8800 C   0  0  0  0  0  0  0  0  0  0  0  0
   40.4870   22.6950   34.7480 C   0  0  0  0  0  0  0  0  0  0  0  0
   39.9050   22.3520   35.9230 N   0  0  0  0  0  0  0  0  0  0  0  0
   38.6700   22.7530   36.2670 C   0  0  0  0  0  0  0  0  0  0  0  0
   37.9610   23.5310   35.4270 N   0  0  0  0  0  0  0  0  0  0  0  0
   40.1900   23.7870   32.9430 H   0  0  0  0  0  0  0  0  0  0  0  0
   41.4670   22.3780   34.4720 H   0  0  0  0  0  0  0  0  0  0  0  0
   38.1640   22.5090   37.1840 H   0  0  0  0  0  0  0  0  0  0  0  0
  1  2  1  0  0  0  0
  2  7  1  0  0  0  0
  2  3  1  0  0  0  0
  3  9  1  0  0  0  0
  4  3  1  0  0  0  0
  4 11  1  0  0  0  0
  4 12  1  0  0  0  0
  5  4  1  0  0  0  0
  6 15  1  1  0  0  0
  6  1  1  0  0  0  0
  6  5  1  0  0  0  0
  8  2  1  0  0  0  0
 10  3  1  0  0  0  0
 13  5  1  0  0  0  0
 14  5  1  0  0  0  0
 17 16  1  0  0  0  0
 17 18  1  0  0  0  0
 18  6  1  0  0  0  0
 19 20  1  0  0  0  0
 19 18  2  0  0  0  0
 21 19  1  0  0  0  0
 22 24  1  0  0  0  0
 22 21  2  0  0  0  0
 23 22  1  0  0  0  0
 24 17  2  0  0  0  0
 25 24  1  0  0  0  0
 26  1  1  0  0  0  0
 26 29  1  0  0  0  0
 27 26  1  0  0  0  0
 28 26  1  0  0  0  0
 29 34  1  0  0  0  0
 30 29  2  0  0  0  0
 30 31  1  0  0  0  0
 31 32  2  0  0  0  0
 32 33  1  0  0  0  0
 33 37  1  0  0  0  0
 34 33  2  0  0  0  0
 35 30  1  0  0  0  0
 36 31  1  0  0  0  0
M  END
>  <minimizedAffinity>
-4.79727888

$$$$

 OpenBabel03262523523D

 37 39  0  0  1  0  0  0  0  0999 V2000
   38.0700   24.9410   32.0650 N   0  0  0  0  0  0  0  0  0  0  0  0
   38.5850   25.2710   30.7540 C   0  0  0  0  0  0  0  0  0  0  0  0
   39.3520   26.5560   30.7740 C   0  0  0  0  0  0  0  0  0  0  0  0
   38.5530   27.5650   31.5690 C   0  0  0  0  0  0  0  0  0  0  0  0
   38.5370   27.1620   33.0010 C   0  0  0  0  0  0  0  0  0  0  0  0
   38.7130   25.6620   33.0820 C   0  0  1  0  0  0  0  0  0  0  0  0
   37.7190   25.3570   30.0850 H   0  0  0  0  0  0  0  0  0  0  0  0
   39.2640   24.4500   30.3900 H   0  0  0  0  0  0  0  0  0  0  0  0
   39.3790   26.9150   29.7150 H   0  0  0  0  0  0  0  0  0  0  0  0
   40.4040   26.4770   31.0740 H   0  0  0  0  0  0  0  0  0  0  0  0
   37.5190   27.5350   31.1700 H   0  0  0  0  0  0  0  0  0  0  0  0
   38.9560   28.5780   31.3810 H   0  0  0  0  0  0  0  0  0  0  0  0
   37.5620   27.4730   33.4320 H   0  0  0  0  0  0  0  0  0  0  0  0
   39.3200   27.6440   33.6130 H   0  0  0  0  0  0  0  0  0  0  0  0
   39.8240   25.5770   32.7670 H   0  0  0  0  0  0  0  0  0  0  0  0
   40.8630   23.6220   33.6630 Cl  0  0  0  0  0  0  0  0  0  0  0  0
   39.6610   24.1540   34.8540 C   0  0  0  0  0  0  0  0  0  0  0  0
   38.7180   25.1100   34.4360 C   0  0  0  0  0  0  0  0  0  0  0  0
   37.8660   25.4090   35.4750 C   0  0  0  0  0  0  0  0  0  0  0  0
   37.0830   26.1330   35.3210 H   0  0  0  0  0  0  0  0  0  0  0  0
   37.8880   24.8840   36.7470 C   0  0  0  0  0  3  0  0  0  0  0  0
   38.8580   23.9530   37.0450 C   0  0  0  0  0  0  0  0  0  0  0  0
   38.9320   23.2530   38.6470 Cl  0  0  0  0  0  0  0  0  0  0  0  0
   39.7740   23.5670   36.0930 C   0  0  0  0  0  0  0  0  0  0  0  0
   40.5380   22.8390   36.3120 H   0  0  0  0  0  0  0  0  0  0  0  0
   36.7410   24.5420   32.0950 C   0  0  0  0  0  0  0  0  0  0  0  0
   36.0680   24.9210   32.8650 H   0  0  0  0  0  0  0  0  0  0  0  0
   36.2670   24.9670   31.1350 H   0  0  0  0  0  0  0  0  0  0  0  0
   36.5700   23.0910   31.9500 C   0  0  0  0  0  0  0  0  0  0  0  0
   37.4230   22.2580   32.6980 C   0  0  0  0  0  0  0  0  0  0  0  0
   37.3150   20.8660   32.5930 C   0  0  0  0  0  0  0  0  0  0  0  0
   36.3660   20.3820   31.7540 N   0  0  0  0  0  0  0  0  0  0  0  0
   35.5530   21.1780   31.0410 C   0  0  0  0  0  0  0  0  0  0  0  0
   35.6630   22.5160   31.1480 N   0  0  0  0  0  0  0  0  0  0  0  0
   38.1700   22.6600   33.3610 H   0  0  0  0  0  0  0  0  0  0  0  0
   37.9630   20.2370   33.1610 H   0  0  0  0  0  0  0  0  0  0  0  0
   34.7870   20.8460   30.3630 H   0  0  0  0  0  0  0  0  0  0  0  0
  1 26  1  0  0  0  0
  1  6  1  0  0  0  0
  2  3  1  0  0  0  0
  2  1  1  0  0  0  0
  3 10  1  0  0  0  0
  3  4  1  0  0  0  0
  4  5  1  0  0  0  0
  5  6  1  0  0  0  0
  5 13  1  0  0  0  0
  5 14  1  0  0  0  0
  6 15  1  6  0  0  0
  6 18  1  0  0  0  0
  7  2  1  0  0  0  0
  8  2  1  0  0  0  0
  9  3  1  0  0  0  0
 11  4  1  0  0  0  0
 12  4  1  0  0  0  0
 16 17  1  0  0  0  0
 17 24  1  0  0  0  0
 18 17  2  0  0  0  0
 18 19  1  0  0  0  0
 19 21  2  0  0  0  0
 20 19  1  0  0  0  0
 21 22  1  0  0  0  0
 22 23  1  0  0  0  0
 24 25  1  0  0  0  0
 24 22  2  0  0  0  0
 26 27  1  0  0  0  0
 28 26  1  0  0  0  0
 29 26  1  0  0  0  0
 29 30  1  0  0  0  0
 30 35  1  0  0  0  0
 31 30  2  0  0  0  0
 31 36  1  0  0  0  0
 32 31  1  0  0  0  0
 33 34  1  0  0  0  0
 33 32  2  0  0  0  0
 34 29  2  0  0  0  0
 37 33  1  0  0  0  0
M  END
>  <minimizedAffinity>
-4.70943832

$$$$
