
 OpenBabel03272505123D

 40 43  0  0  0  0  0  0  0  0999 V2000
   34.0650   29.9700   47.5600 S   0  0  0  0  0  0  0  0  0  0  0  0
   36.4090   30.9100   45.7230 Cl  0  0  0  0  0  0  0  0  0  0  0  0
   36.7010   30.7910   47.4370 C   0  0  0  0  0  0  0  0  0  0  0  0
   37.9610   31.1220   47.8930 C   0  0  0  0  0  0  0  0  0  0  0  0
   38.2040   31.0310   49.2540 C   0  0  0  0  0  0  0  0  0  0  0  0
   37.2130   30.6260   50.0930 C   0  0  0  0  0  0  0  0  0  0  0  0
   35.9560   30.3040   49.5760 C   0  0  0  0  0  0  0  0  0  0  0  0
   35.6480   30.3710   48.2410 C   0  0  0  0  0  0  0  0  0  0  0  0
   39.2010   31.2950   49.5910 H   0  0  0  0  0  0  0  0  0  0  0  0
   37.4240   30.5620   51.1510 H   0  0  0  0  0  0  0  0  0  0  0  0
   35.1890   29.9850   50.2740 H   0  0  0  0  0  0  0  0  0  0  0  0
   40.2250   33.3320   46.0730 C   0  0  0  0  0  0  0  0  0  0  0  0
   40.9330   32.4660   45.2120 C   0  0  0  0  0  0  0  0  0  0  0  0
   40.6130   31.1050   45.2720 C   0  0  0  0  0  0  0  0  0  0  0  0
   39.6480   30.6910   46.1460 N   0  0  0  0  0  0  0  0  0  0  0  0
   39.0070   31.5580   46.9410 C   0  0  0  0  0  0  0  0  0  0  0  0
   39.2960   32.8550   46.9010 N   0  0  0  0  0  0  0  0  0  0  0  0
   40.4510   34.3960   46.0500 H   0  0  0  0  0  0  0  0  0  0  0  0
   41.6910   32.8160   44.5300 H   0  0  0  0  0  0  0  0  0  0  0  0
   41.1170   30.3720   44.6380 H   0  0  0  0  0  0  0  0  0  0  0  0
   33.8980   29.2250   44.5010 Cl  0  0  0  0  0  0  0  0  0  0  0  0
   33.8870   27.9870   45.7510 C   0  0  0  0  0  0  0  0  0  0  0  0
   33.9570   28.2220   47.1210 C   0  0  0  0  0  0  0  0  0  0  0  0
   33.9410   27.1790   48.0000 C   0  0  0  0  0  0  0  0  0  0  0  0
   33.8550   25.8860   47.5420 C   0  0  0  0  0  0  0  0  0  0  0  0
   33.7830   25.5890   46.1860 C   0  0  0  0  0  0  0  0  0  0  0  0
   33.8010   26.6550   45.3310 C   0  0  0  0  0  0  0  0  0  0  0  0
   33.9990   27.4510   49.0550 H   0  0  0  0  0  0  0  0  0  0  0  0
   33.8430   25.0760   48.2500 H   0  0  0  0  0  0  0  0  0  0  0  0
   33.7160   24.5630   45.8470 H   0  0  0  0  0  0  0  0  0  0  0  0
   30.9990   26.5500   44.4660 Cl  0  0  0  0  0  0  0  0  0  0  0  0
   32.3950   26.3060   43.4710 C   0  0  0  0  0  0  0  0  0  0  0  0
   33.7250   26.3580   43.8940 C   0  0  0  0  0  0  0  0  0  0  0  0
   34.7740   26.1490   43.0220 C   0  0  0  0  0  0  0  0  0  0  0  0
   35.7530   26.2180   43.4790 H   0  0  0  0  0  0  0  0  0  0  0  0
   34.5100   25.8790   41.6960 C   0  0  0  0  0  3  0  0  0  0  0  0
   33.2020   25.8220   41.2510 C   0  0  0  0  0  0  0  0  0  0  0  0
   32.8610   25.4790   39.5600 Cl  0  0  0  0  0  0  0  0  0  0  0  0
   32.1400   26.0320   42.1240 C   0  0  0  0  0  0  0  0  0  0  0  0
   31.1400   25.9750   41.7230 H   0  0  0  0  0  0  0  0  0  0  0  0
  1  8  1  0  0  0  0
  2  3  1  0  0  0  0
  3  4  2  0  0  0  0
  3  8  1  0  0  0  0
  4  5  1  0  0  0  0
  5  9  1  0  0  0  0
  5  6  2  0  0  0  0
  6 10  1  0  0  0  0
  7  6  1  0  0  0  0
  7 11  1  0  0  0  0
  8  7  2  0  0  0  0
 12 17  1  0  0  0  0
 13 14  1  0  0  0  0
 13 12  2  0  0  0  0
 14 15  2  0  0  0  0
 15 16  1  0  0  0  0
 16  4  1  0  0  0  0
 17 16  2  0  0  0  0
 18 12  1  0  0  0  0
 19 13  1  0  0  0  0
 20 14  1  0  0  0  0
 21 22  1  0  0  0  0
 22 23  1  0  0  0  0
 23  1  1  0  0  0  0
 23 24  2  0  0  0  0
 24 28  1  0  0  0  0
 25 24  1  0  0  0  0
 25 29  1  0  0  0  0
 26 25  2  0  0  0  0
 27 22  2  0  0  0  0
 27 26  1  0  0  0  0
 30 26  1  0  0  0  0
 32 33  1  0  0  0  0
 32 31  1  0  0  0  0
 33 27  1  0  0  0  0
 34 35  1  0  0  0  0
 34 33  2  0  0  0  0
 36 34  1  0  0  0  0
 37 36  2  0  0  0  0
 37 39  1  0  0  0  0
 38 37  1  0  0  0  0
 39 32  2  0  0  0  0
 40 39  1  0  0  0  0
M  END
>  <minimizedAffinity>
-5.73356342

>  <minimizedRMSD>
0.532262981

$$$$
