
 OpenBabel03272506483D

 43 46  0  0  1  0  0  0  0  0999 V2000
   32.0170   28.3700   47.4890 C   0  0  2  0  0  0  0  0  0  0  0  0
   33.2750   28.1700   48.2820 C   0  0  1  0  0  0  0  0  0  0  0  0
   33.6400   26.8610   48.1690 O   0  0  0  0  0  0  0  0  0  0  0  0
   32.9010   26.2650   47.1520 C   0  0  0  0  0  0  0  0  0  0  0  0
   32.3020   27.3720   46.3230 C   0  0  1  0  0  0  0  0  0  0  0  0
   31.0980   28.0360   47.9560 H   0  0  0  0  0  0  0  0  0  0  0  0
   33.1610   28.4660   49.3410 H   0  0  0  0  0  0  0  0  0  0  0  0
   32.2090   25.5840   47.6230 H   0  0  0  0  0  0  0  0  0  0  0  0
   33.5600   25.6900   46.4530 H   0  0  0  0  0  0  0  0  0  0  0  0
   33.0310   27.8500   45.6680 H   0  0  0  0  0  0  0  0  0  0  0  0
   31.9610   29.6800   46.9660 O   0  0  0  0  0  0  0  0  0  0  0  0
   32.6560   30.2650   47.3630 H   0  0  0  0  0  0  0  0  0  0  0  0
   34.5880   29.1940   47.5030 S   0  0  0  0  0  0  0  0  0  0  0  0
   37.0080   29.2460   50.6410 C   0  0  0  0  0  0  0  0  0  0  0  0
   37.4190   30.5700   50.7660 C   0  0  0  0  0  0  0  0  0  0  0  0
   36.9220   31.4950   49.8330 C   0  0  0  0  0  0  0  0  0  0  0  0
   36.0740   31.0530   48.8620 N   0  0  0  0  0  0  0  0  0  0  0  0
   35.7060   29.7540   48.7850 C   0  0  0  0  0  0  0  0  0  0  0  0
   36.1650   28.8340   49.6710 N   0  0  0  0  0  0  0  0  0  0  0  0
   37.3290   28.4560   51.3060 H   0  0  0  0  0  0  0  0  0  0  0  0
   38.1010   30.8280   51.5750 H   0  0  0  0  0  0  0  0  0  0  0  0
   37.2300   32.5130   49.9160 H   0  0  0  0  0  0  0  0  0  0  0  0
   31.1320   26.9260   45.7590 O   0  0  0  0  0  0  0  0  0  0  0  0
   29.9440   29.1640   44.2590 Cl  0  0  0  0  0  0  0  0  0  0  0  0
   29.2460   28.2330   45.5650 C   0  0  0  0  0  0  0  0  0  0  0  0
   29.8990   27.1940   46.1850 C   0  0  0  0  0  0  0  0  0  0  0  0
   29.2280   26.5080   47.1990 C   0  0  0  0  0  0  0  0  0  0  0  0
   27.9470   26.8690   47.5630 C   0  0  0  0  0  0  0  0  0  0  0  0
   27.2810   27.9140   46.9450 C   0  0  0  0  0  0  0  0  0  0  0  0
   27.9420   28.5960   45.9400 C   0  0  0  0  0  0  0  0  0  0  0  0
   29.6590   25.6810   47.7350 H   0  0  0  0  0  0  0  0  0  0  0  0
   27.3690   26.3850   48.3350 H   0  0  0  0  0  0  0  0  0  0  0  0
   26.2720   28.2310   47.1980 H   0  0  0  0  0  0  0  0  0  0  0  0
   26.5570   28.1330   43.2600 Cl  0  0  0  0  0  0  0  0  0  0  0  0
   26.5900   29.6740   44.0870 C   0  0  0  0  0  0  0  0  0  0  0  0
   27.2550   29.7000   45.2770 C   0  0  0  0  0  0  0  0  0  0  0  0
   27.3450   30.8790   46.0250 C   0  0  0  0  0  0  0  0  0  0  0  0
   27.8500   31.0070   46.9820 H   0  0  0  0  0  0  0  0  0  0  0  0
   26.7440   32.0450   45.5430 C   0  0  0  0  0  3  0  0  0  0  0  0
   26.0750   31.9980   44.3370 C   0  0  0  0  0  0  0  0  0  0  0  0
   25.3130   33.4630   43.7190 Cl  0  0  0  0  0  0  0  0  0  0  0  0
   25.9880   30.8340   43.6020 C   0  0  0  0  0  0  0  0  0  0  0  0
   25.4680   30.7640   42.6460 H   0  0  0  0  0  0  0  0  0  0  0  0
  1  6  1  1  0  0  0
  1  2  1  0  0  0  0
  2  7  1  1  0  0  0
  3  2  1  0  0  0  0
  4  8  1  0  0  0  0
  4  3  1  0  0  0  0
  5 10  1  6  0  0  0
  5  4  1  0  0  0  0
  5  1  1  0  0  0  0
  9  4  1  0  0  0  0
 11 12  1  0  0  0  0
 11  1  1  0  0  0  0
 13  2  1  0  0  0  0
 13 18  1  0  0  0  0
 14 15  1  0  0  0  0
 14 20  1  0  0  0  0
 15 21  1  0  0  0  0
 16 22  1  0  0  0  0
 16 15  2  0  0  0  0
 17 16  1  0  0  0  0
 18 17  2  0  0  0  0
 18 19  1  0  0  0  0
 19 14  2  0  0  0  0
 23 26  1  0  0  0  0
 23  5  1  0  0  0  0
 24 25  1  0  0  0  0
 25 30  2  0  0  0  0
 25 26  1  0  0  0  0
 26 27  2  0  0  0  0
 27 28  1  0  0  0  0
 27 31  1  0  0  0  0
 28 32  1  0  0  0  0
 29 33  1  0  0  0  0
 29 28  2  0  0  0  0
 30 29  1  0  0  0  0
 34 35  1  0  0  0  0
 35 36  1  0  0  0  0
 36 30  1  0  0  0  0
 36 37  2  0  0  0  0
 37 38  1  0  0  0  0
 39 37  1  0  0  0  0
 40 39  2  0  0  0  0
 41 40  1  0  0  0  0
 42 35  2  0  0  0  0
 42 40  1  0  0  0  0
 43 42  1  0  0  0  0
M  END
>  <minimizedAffinity>
-5.79844809

>  <minimizedRMSD>
0.362467885

$$$$
