
 OpenBabel03262522063D

 41 44  0  0  1  0  0  0  0  0999 V2000
   34.4770   29.0450   48.7620 C   0  0  2  0  0  0  0  0  0  0  0  0
   35.1210   28.3350   49.9040 C   0  0  0  0  0  0  0  0  0  0  0  0
   36.2540   29.1260   50.3800 N   0  0  0  0  0  0  0  0  0  0  0  0
   37.2060   29.8800   51.1520 C   0  0  0  0  0  0  0  0  0  0  0  0
   37.4170   30.0920   52.3560 O   0  0  0  0  0  0  0  0  0  0  0  0
   37.9250   30.3760   50.0120 C   0  0  1  0  0  0  0  0  0  0  0  0
   37.0970   29.3560   49.2410 C   0  0  2  0  0  0  0  0  0  0  0  0
   35.8790   30.0390   48.0930 S   0  0  0  0  0  0  0  0  0  0  0  0
   35.5060   27.3640   49.5870 H   0  0  0  0  0  0  0  0  0  0  0  0
   34.4090   28.2250   50.7610 H   0  0  0  0  0  0  0  0  0  0  0  0
   38.9930   30.0690   49.8750 H   0  0  0  0  0  0  0  0  0  0  0  0
   37.6390   28.4790   48.8540 H   0  0  0  0  0  0  0  0  0  0  0  0
   33.2710   29.8610   49.0690 C   0  0  0  0  0  0  0  0  0  0  0  0
   33.4600   30.9290   48.8480 H   0  0  0  0  0  0  0  0  0  0  0  0
   32.3620   29.5620   48.5330 H   0  0  0  0  0  0  0  0  0  0  0  0
   33.0650   29.8120   50.1630 H   0  0  0  0  0  0  0  0  0  0  0  0
   34.1940   28.0090   47.6530 C   0  0  0  0  0  0  0  0  0  0  0  0
   33.1700   27.6270   47.8690 H   0  0  0  0  0  0  0  0  0  0  0  0
   34.8980   27.1650   47.7030 H   0  0  0  0  0  0  0  0  0  0  0  0
   34.2230   28.6600   46.4200 O   0  0  0  0  0  0  0  0  0  0  0  0
   33.3120   28.8220   46.0710 H   0  0  0  0  0  0  0  0  0  0  0  0
   37.7050   31.7890   49.6450 C   0  0  0  0  0  0  0  0  0  0  0  0
   36.7250   32.3200   50.2640 O   0  0  0  0  0  0  0  0  0  0  0  0
   38.5000   32.5100   48.6980 C   0  0  0  0  0  0  0  0  0  0  0  0
   39.1560   33.6430   49.1270 C   0  0  0  0  0  0  0  0  0  0  0  0
   39.9350   34.3540   48.1930 C   0  0  0  0  0  0  0  0  0  0  0  0
   39.9940   33.8730   46.9090 N   0  0  0  0  0  0  0  0  0  0  0  0
   39.3470   32.7720   46.5240 C   0  0  0  0  0  0  0  0  0  0  0  0
   38.5970   32.0850   47.4140 N   0  0  0  0  0  0  0  0  0  0  0  0
   39.0800   33.9830   50.1480 H   0  0  0  0  0  0  0  0  0  0  0  0
   40.4500   35.2350   48.5090 H   0  0  0  0  0  0  0  0  0  0  0  0
   41.6120   30.8660   45.7570 Cl  0  0  0  0  0  0  0  0  0  0  0  0
   40.4680   31.5520   44.6520 C   0  0  0  0  0  0  0  0  0  0  0  0
   39.5070   32.3900   45.1330 C   0  0  0  0  0  0  0  0  0  0  0  0
   38.6360   32.8950   44.1910 C   0  0  0  0  0  0  0  0  0  0  0  0
   37.8240   33.5770   44.4520 H   0  0  0  0  0  0  0  0  0  0  0  0
   38.7460   32.5620   42.8370 C   0  0  0  0  0  0  0  0  0  0  0  0
   39.7330   31.7100   42.3910 C   0  0  0  0  0  0  0  0  0  0  0  0
   39.7790   31.3600   40.6800 Cl  0  0  0  0  0  0  0  0  0  0  0  0
   40.5870   31.2160   43.3270 C   0  0  0  0  0  0  0  0  0  0  0  0
   41.3660   30.5440   42.9820 H   0  0  0  0  0  0  0  0  0  0  0  0
  1 17  1  6  0  0  0
  1 13  1  0  0  0  0
  1  2  1  0  0  0  0
  2  3  1  0  0  0  0
  2 10  1  0  0  0  0
  3  4  1  0  0  0  0
  4  5  2  0  0  0  0
  6 11  1  1  0  0  0
  6  4  1  0  0  0  0
  7 12  1  6  0  0  0
  7  6  1  0  0  0  0
  7  3  1  0  0  0  0
  8  1  1  0  0  0  0
  8  7  1  0  0  0  0
  9  2  1  0  0  0  0
 13 16  1  0  0  0  0
 14 13  1  0  0  0  0
 15 13  1  0  0  0  0
 17 19  1  0  0  0  0
 17 18  1  0  0  0  0
 20 17  1  0  0  0  0
 21 20  1  0  0  0  0
 22  6  1  0  0  0  0
 22 23  2  0  0  0  0
 24 25  1  0  0  0  0
 24 22  1  0  0  0  0
 25 30  1  0  0  0  0
 26 31  1  0  0  0  0
 26 25  2  0  0  0  0
 27 26  1  0  0  0  0
 28 27  2  0  0  0  0
 28 29  1  0  0  0  0
 29 24  2  0  0  0  0
 33 34  1  0  0  0  0
 33 32  1  0  0  0  0
 34 28  1  0  0  0  0
 35 36  1  0  0  0  0
 35 34  2  0  0  0  0
 37 35  1  0  0  0  0
 38 37  2  0  0  0  0
 38 40  1  0  0  0  0
 39 38  1  0  0  0  0
 40 33  2  0  0  0  0
 41 40  1  0  0  0  0
M  END
>  <minimizedAffinity>
-5.86850357

>  <minimizedRMSD>
0.460071027

$$$$
