
 OpenBabel03272506283D

 43 46  0  0  0  0  0  0  0  0999 V2000
   38.0510   23.7200   32.9670 C   0  0  0  0  0  0  0  0  0  0  0  0
   37.3830   22.5210   32.8030 C   0  0  0  0  0  0  0  0  0  0  0  0
   36.1710   22.3870   32.1320 C   0  0  0  0  0  0  0  0  0  0  0  0
   35.5860   23.5470   31.5820 C   0  0  0  0  0  0  0  0  0  0  0  0
   36.2720   24.7300   31.7590 C   0  0  0  0  0  0  0  0  0  0  0  0
   37.4580   24.8480   32.4190 C   0  0  0  0  0  0  0  0  0  0  0  0
   37.8070   21.5920   33.2170 H   0  0  0  0  0  0  0  0  0  0  0  0
   35.7270   21.3790   32.0610 H   0  0  0  0  0  0  0  0  0  0  0  0
   34.6570   23.3310   31.0890 H   0  0  0  0  0  0  0  0  0  0  0  0
   35.6710   25.4680   31.2890 H   0  0  0  0  0  0  0  0  0  0  0  0
   40.4610   23.4770   32.9330 C   0  0  0  0  0  0  0  0  0  0  0  0
   39.2950   23.6660   33.6930 C   0  0  0  0  0  0  0  0  0  0  0  0
   39.4260   23.7880   35.0820 C   0  0  0  0  0  0  0  0  0  0  0  0
   40.6660   23.7180   35.6330 N   0  0  0  0  0  0  0  0  0  0  0  0
   41.7830   23.5330   34.8730 C   0  0  0  0  0  0  0  0  0  0  0  0
   41.6750   23.4120   33.5230 N   0  0  0  0  0  0  0  0  0  0  0  0
   40.3890   23.3790   31.8590 H   0  0  0  0  0  0  0  0  0  0  0  0
   42.6980   23.4980   35.4510 H   0  0  0  0  0  0  0  0  0  0  0  0
   38.2810   23.9880   36.0110 C   0  0  0  0  0  0  0  0  0  0  0  0
   38.7600   24.0880   37.3320 F   0  0  0  0  0  0  0  0  0  0  0  0
   37.4940   25.0510   35.7600 F   0  0  0  0  0  0  0  0  0  0  0  0
   37.4910   22.8330   36.0380 F   0  0  0  0  0  0  0  0  0  0  0  0
   38.3170   26.3650   32.6300 S   0  0  0  0  0  0  0  0  0  0  0  0
   36.5570   27.7380   34.7960 Cl  0  0  0  0  0  0  0  0  0  0  0  0
   36.6240   28.3720   33.1660 C   0  0  0  0  0  0  0  0  0  0  0  0
   37.3790   27.7900   32.1540 C   0  0  0  0  0  0  0  0  0  0  0  0
   37.3800   28.3190   30.8970 C   0  0  0  0  0  0  0  0  0  0  0  0
   36.6230   29.4470   30.6460 C   0  0  0  0  0  0  0  0  0  0  0  0
   35.8620   30.0400   31.6550 C   0  0  0  0  0  0  0  0  0  0  0  0
   35.8540   29.5050   32.9370 C   0  0  0  0  0  0  0  0  0  0  0  0
   37.8900   27.9310   30.0540 H   0  0  0  0  0  0  0  0  0  0  0  0
   36.5790   29.9200   29.6760 H   0  0  0  0  0  0  0  0  0  0  0  0
   35.2700   30.9280   31.4400 H   0  0  0  0  0  0  0  0  0  0  0  0
   32.8500   29.0060   33.0500 Cl  0  0  0  0  0  0  0  0  0  0  0  0
   33.6860   30.0010   34.1930 C   0  0  0  0  0  0  0  0  0  0  0  0
   35.0500   30.1270   34.0050 C   0  0  0  0  0  0  0  0  0  0  0  0
   35.8360   30.9050   34.8630 C   0  0  0  0  0  0  0  0  0  0  0  0
   36.8980   31.0420   34.7700 H   0  0  0  0  0  0  0  0  0  0  0  0
   35.2170   31.5490   35.9110 C   0  0  0  0  0  3  0  0  0  0  0  0
   33.8580   31.4460   36.1300 C   0  0  0  0  0  0  0  0  0  0  0  0
   33.0800   32.2710   37.4670 Cl  0  0  0  0  0  0  0  0  0  0  0  0
   33.1170   30.6680   35.2590 C   0  0  0  0  0  0  0  0  0  0  0  0
   32.0520   30.5550   35.3860 H   0  0  0  0  0  0  0  0  0  0  0  0
  1 12  1  0  0  0  0
  2  1  1  0  0  0  0
  2  7  1  0  0  0  0
  3  2  2  0  0  0  0
  4  5  2  0  0  0  0
  4  3  1  0  0  0  0
  5  6  1  0  0  0  0
  6 23  1  0  0  0  0
  6  1  2  0  0  0  0
  8  3  1  0  0  0  0
  9  4  1  0  0  0  0
 10  5  1  0  0  0  0
 11 16  2  0  0  0  0
 11 12  1  0  0  0  0
 12 13  2  0  0  0  0
 13 14  1  0  0  0  0
 13 19  1  0  0  0  0
 15 18  1  0  0  0  0
 15 14  2  0  0  0  0
 16 15  1  0  0  0  0
 17 11  1  0  0  0  0
 19 22  1  0  0  0  0
 19 20  1  0  0  0  0
 21 19  1  0  0  0  0
 25 24  1  0  0  0  0
 26 23  1  0  0  0  0
 26 25  2  0  0  0  0
 27 26  1  0  0  0  0
 28 27  2  0  0  0  0
 28 29  1  0  0  0  0
 29 30  2  0  0  0  0
 30 25  1  0  0  0  0
 30 36  1  0  0  0  0
 31 27  1  0  0  0  0
 32 28  1  0  0  0  0
 33 29  1  0  0  0  0
 34 35  1  0  0  0  0
 35 42  1  0  0  0  0
 36 35  2  0  0  0  0
 36 37  1  0  0  0  0
 37 39  2  0  0  0  0
 38 37  1  0  0  0  0
 39 40  1  0  0  0  0
 40 41  1  0  0  0  0
 42 43  1  0  0  0  0
 42 40  2  0  0  0  0
M  END
>  <minimizedAffinity>
-6.82462358

$$$$

 OpenBabel03272506283D

 43 46  0  0  0  0  0  0  0  0999 V2000
   39.7850   24.9530   33.9370 C   0  0  0  0  0  0  0  0  0  0  0  0
   40.9910   24.9650   34.6120 C   0  0  0  0  0  0  0  0  0  0  0  0
   41.8660   26.0470   34.6290 C   0  0  0  0  0  0  0  0  0  0  0  0
   41.5020   27.2060   33.9120 C   0  0  0  0  0  0  0  0  0  0  0  0
   40.2950   27.1690   33.2480 C   0  0  0  0  0  0  0  0  0  0  0  0
   39.4460   26.1040   33.2380 C   0  0  0  0  0  0  0  0  0  0  0  0
   41.3120   24.0790   35.1830 H   0  0  0  0  0  0  0  0  0  0  0  0
   42.8040   25.9450   35.2030 H   0  0  0  0  0  0  0  0  0  0  0  0
   42.2470   27.9760   33.9920 H   0  0  0  0  0  0  0  0  0  0  0  0
   40.2140   28.1150   32.7740 H   0  0  0  0  0  0  0  0  0  0  0  0
   39.0310   22.8910   32.9140 C   0  0  0  0  0  0  0  0  0  0  0  0
   39.0090   23.7420   34.0320 C   0  0  0  0  0  0  0  0  0  0  0  0
   38.2460   23.3550   35.1400 C   0  0  0  0  0  0  0  0  0  0  0  0
   37.5640   22.1820   35.0900 N   0  0  0  0  0  0  0  0  0  0  0  0
   37.6010   21.3720   33.9930 C   0  0  0  0  0  0  0  0  0  0  0  0
   38.3360   21.7330   32.9070 N   0  0  0  0  0  0  0  0  0  0  0  0
   39.6120   23.1650   32.0450 H   0  0  0  0  0  0  0  0  0  0  0  0
   37.0090   20.4730   34.0990 H   0  0  0  0  0  0  0  0  0  0  0  0
   38.1260   24.1570   36.3890 C   0  0  0  0  0  0  0  0  0  0  0  0
   39.2240   23.8840   37.2290 F   0  0  0  0  0  0  0  0  0  0  0  0
   38.0310   25.4900   36.2290 F   0  0  0  0  0  0  0  0  0  0  0  0
   37.0280   23.7070   37.1300 F   0  0  0  0  0  0  0  0  0  0  0  0
   37.9100   26.0790   32.3880 S   0  0  0  0  0  0  0  0  0  0  0  0
   36.2310   27.4890   34.5950 Cl  0  0  0  0  0  0  0  0  0  0  0  0
   36.5360   28.2800   33.0630 C   0  0  0  0  0  0  0  0  0  0  0  0
   37.2630   27.6900   32.0350 C   0  0  0  0  0  0  0  0  0  0  0  0
   37.4560   28.3470   30.8560 C   0  0  0  0  0  0  0  0  0  0  0  0
   36.9190   29.6110   30.7000 C   0  0  0  0  0  0  0  0  0  0  0  0
   36.1880   30.2120   31.7250 C   0  0  0  0  0  0  0  0  0  0  0  0
   35.9860   29.5480   32.9290 C   0  0  0  0  0  0  0  0  0  0  0  0
   37.9610   27.9720   30.0050 H   0  0  0  0  0  0  0  0  0  0  0  0
   37.0340   30.1890   29.7940 H   0  0  0  0  0  0  0  0  0  0  0  0
   35.7710   31.2080   31.5850 H   0  0  0  0  0  0  0  0  0  0  0  0
   32.9700   29.1370   33.0670 Cl  0  0  0  0  0  0  0  0  0  0  0  0
   33.8470   30.0900   34.2140 C   0  0  0  0  0  0  0  0  0  0  0  0
   35.2120   30.1790   34.0130 C   0  0  0  0  0  0  0  0  0  0  0  0
   36.0300   30.9200   34.8740 C   0  0  0  0  0  0  0  0  0  0  0  0
   37.0950   31.0270   34.7720 H   0  0  0  0  0  0  0  0  0  0  0  0
   35.4410   31.5670   35.9380 C   0  0  0  0  0  3  0  0  0  0  0  0
   34.0820   31.5020   36.1690 C   0  0  0  0  0  0  0  0  0  0  0  0
   33.3430   32.3300   37.5260 Cl  0  0  0  0  0  0  0  0  0  0  0  0
   33.3090   30.7580   35.2960 C   0  0  0  0  0  0  0  0  0  0  0  0
   32.2420   30.6750   35.4330 H   0  0  0  0  0  0  0  0  0  0  0  0
  1 12  1  0  0  0  0
  1  2  1  0  0  0  0
  2  3  2  0  0  0  0
  2  7  1  0  0  0  0
  3  8  1  0  0  0  0
  4  9  1  0  0  0  0
  4  3  1  0  0  0  0
  5  4  2  0  0  0  0
  6  5  1  0  0  0  0
  6  1  2  0  0  0  0
 10  5  1  0  0  0  0
 11 12  1  0  0  0  0
 12 13  2  0  0  0  0
 13 19  1  0  0  0  0
 14 13  1  0  0  0  0
 15 18  1  0  0  0  0
 15 14  2  0  0  0  0
 16 11  2  0  0  0  0
 16 15  1  0  0  0  0
 17 11  1  0  0  0  0
 19 22  1  0  0  0  0
 19 20  1  0  0  0  0
 21 19  1  0  0  0  0
 23  6  1  0  0  0  0
 25 24  1  0  0  0  0
 26 23  1  0  0  0  0
 26 25  2  0  0  0  0
 27 26  1  0  0  0  0
 28 27  2  0  0  0  0
 28 29  1  0  0  0  0
 29 30  2  0  0  0  0
 30 25  1  0  0  0  0
 30 36  1  0  0  0  0
 31 27  1  0  0  0  0
 32 28  1  0  0  0  0
 33 29  1  0  0  0  0
 34 35  1  0  0  0  0
 35 42  1  0  0  0  0
 36 35  2  0  0  0  0
 36 37  1  0  0  0  0
 37 39  2  0  0  0  0
 38 37  1  0  0  0  0
 39 40  1  0  0  0  0
 40 41  1  0  0  0  0
 42 43  1  0  0  0  0
 42 40  2  0  0  0  0
M  END
>  <minimizedAffinity>
-6.65232754

$$$$

 OpenBabel03272506283D

 43 46  0  0  0  0  0  0  0  0999 V2000
   34.5100   30.5780   33.3910 C   0  0  0  0  0  0  0  0  0  0  0  0
   34.0890   31.5100   32.4610 C   0  0  0  0  0  0  0  0  0  0  0  0
   34.7280   31.7480   31.2480 C   0  0  0  0  0  0  0  0  0  0  0  0
   35.8800   30.9910   30.9450 C   0  0  0  0  0  0  0  0  0  0  0  0
   36.2800   30.0690   31.8890 C   0  0  0  0  0  0  0  0  0  0  0  0
   35.6450   29.8450   33.0740 C   0  0  0  0  0  0  0  0  0  0  0  0
   33.1940   32.1210   32.6580 H   0  0  0  0  0  0  0  0  0  0  0  0
   34.3030   32.5170   30.5800 H   0  0  0  0  0  0  0  0  0  0  0  0
   36.2920   31.2550   29.9890 H   0  0  0  0  0  0  0  0  0  0  0  0
   37.1510   29.6210   31.4820 H   0  0  0  0  0  0  0  0  0  0  0  0
   32.6010   29.6280   34.5390 C   0  0  0  0  0  0  0  0  0  0  0  0
   33.7230   30.4710   34.5930 C   0  0  0  0  0  0  0  0  0  0  0  0
   33.9900   31.1360   35.7960 C   0  0  0  0  0  0  0  0  0  0  0  0
   33.1590   30.9410   36.8530 N   0  0  0  0  0  0  0  0  0  0  0  0
   32.0750   30.1170   36.7750 C   0  0  0  0  0  0  0  0  0  0  0  0
   31.8000   29.4630   35.6140 N   0  0  0  0  0  0  0  0  0  0  0  0
   32.3710   29.1030   33.6220 H   0  0  0  0  0  0  0  0  0  0  0  0
   31.5080   30.0600   37.6950 H   0  0  0  0  0  0  0  0  0  0  0  0
   35.1380   32.0620   35.9980 C   0  0  0  0  0  0  0  0  0  0  0  0
   36.3330   31.3190   36.0670 F   0  0  0  0  0  0  0  0  0  0  0  0
   35.2880   33.0290   35.0740 F   0  0  0  0  0  0  0  0  0  0  0  0
   35.0480   32.6520   37.2640 F   0  0  0  0  0  0  0  0  0  0  0  0
   36.1690   28.6620   34.2600 S   0  0  0  0  0  0  0  0  0  0  0  0
   38.1190   26.9080   35.9330 Cl  0  0  0  0  0  0  0  0  0  0  0  0
   37.5850   26.3880   34.3480 C   0  0  0  0  0  0  0  0  0  0  0  0
   36.7290   27.1390   33.5510 C   0  0  0  0  0  0  0  0  0  0  0  0
   36.3590   26.6900   32.3170 C   0  0  0  0  0  0  0  0  0  0  0  0
   36.8450   25.4750   31.8740 C   0  0  0  0  0  0  0  0  0  0  0  0
   37.7040   24.7130   32.6670 C   0  0  0  0  0  0  0  0  0  0  0  0
   38.0870   25.1640   33.9240 C   0  0  0  0  0  0  0  0  0  0  0  0
   35.7440   27.2020   31.6230 H   0  0  0  0  0  0  0  0  0  0  0  0
   36.5910   25.0590   30.9100 H   0  0  0  0  0  0  0  0  0  0  0  0
   38.0780   23.7580   32.3030 H   0  0  0  0  0  0  0  0  0  0  0  0
   41.0840   25.7080   33.8470 Cl  0  0  0  0  0  0  0  0  0  0  0  0
   40.3710   24.4850   34.8430 C   0  0  0  0  0  0  0  0  0  0  0  0
   38.9960   24.3630   34.7640 C   0  0  0  0  0  0  0  0  0  0  0  0
   38.3030   23.4110   35.5210 C   0  0  0  0  0  0  0  0  0  0  0  0
   37.2380   23.2680   35.5040 H   0  0  0  0  0  0  0  0  0  0  0  0
   39.0270   22.5880   36.3550 C   0  0  0  0  0  3  0  0  0  0  0  0
   40.4000   22.6800   36.4590 C   0  0  0  0  0  0  0  0  0  0  0  0
   41.3110   21.6270   37.5240 Cl  0  0  0  0  0  0  0  0  0  0  0  0
   41.0470   23.6340   35.6950 C   0  0  0  0  0  0  0  0  0  0  0  0
   42.1190   23.7480   35.7400 H   0  0  0  0  0  0  0  0  0  0  0  0
  1 12  1  0  0  0  0
  2  7  1  0  0  0  0
  2  1  2  0  0  0  0
  3  2  1  0  0  0  0
  4  3  2  0  0  0  0
  4  5  1  0  0  0  0
  5  6  2  0  0  0  0
  6  1  1  0  0  0  0
  6 23  1  0  0  0  0
  8  3  1  0  0  0  0
  9  4  1  0  0  0  0
 10  5  1  0  0  0  0
 11 12  2  0  0  0  0
 11 16  1  0  0  0  0
 12 13  1  0  0  0  0
 13 19  1  0  0  0  0
 13 14  2  0  0  0  0
 15 14  1  0  0  0  0
 15 18  1  0  0  0  0
 16 15  2  0  0  0  0
 17 11  1  0  0  0  0
 19 20  1  0  0  0  0
 19 22  1  0  0  0  0
 21 19  1  0  0  0  0
 25 24  1  0  0  0  0
 26 23  1  0  0  0  0
 26 25  2  0  0  0  0
 27 26  1  0  0  0  0
 28 27  2  0  0  0  0
 28 29  1  0  0  0  0
 29 30  2  0  0  0  0
 30 25  1  0  0  0  0
 30 36  1  0  0  0  0
 31 27  1  0  0  0  0
 32 28  1  0  0  0  0
 33 29  1  0  0  0  0
 34 35  1  0  0  0  0
 35 42  1  0  0  0  0
 36 35  2  0  0  0  0
 36 37  1  0  0  0  0
 37 39  2  0  0  0  0
 38 37  1  0  0  0  0
 39 40  1  0  0  0  0
 40 41  1  0  0  0  0
 42 43  1  0  0  0  0
 42 40  2  0  0  0  0
M  END
>  <minimizedAffinity>
-6.56549406

$$$$

 OpenBabel03272506283D

 43 46  0  0  0  0  0  0  0  0999 V2000
   39.6360   24.3410   35.1560 C   0  0  0  0  0  0  0  0  0  0  0  0
   40.9350   23.8710   35.1220 C   0  0  0  0  0  0  0  0  0  0  0  0
   42.0560   24.6820   34.9700 C   0  0  0  0  0  0  0  0  0  0  0  0
   41.8560   26.0730   34.8410 C   0  0  0  0  0  0  0  0  0  0  0  0
   40.5510   26.5160   34.8770 C   0  0  0  0  0  0  0  0  0  0  0  0
   39.4620   25.7120   35.0270 C   0  0  0  0  0  0  0  0  0  0  0  0
   41.1340   22.7920   35.2200 H   0  0  0  0  0  0  0  0  0  0  0  0
   43.0480   24.1980   34.9580 H   0  0  0  0  0  0  0  0  0  0  0  0
   42.7840   26.6010   34.7290 H   0  0  0  0  0  0  0  0  0  0  0  0
   40.6160   27.5680   34.7570 H   0  0  0  0  0  0  0  0  0  0  0  0
   38.1130   22.7490   34.1470 C   0  0  0  0  0  0  0  0  0  0  0  0
   38.6000   23.3520   35.3190 C   0  0  0  0  0  0  0  0  0  0  0  0
   38.0520   22.9500   36.5430 C   0  0  0  0  0  0  0  0  0  0  0  0
   37.0790   22.0030   36.5480 N   0  0  0  0  0  0  0  0  0  0  0  0
   36.6220   21.4330   35.3960 C   0  0  0  0  0  0  0  0  0  0  0  0
   37.1430   21.8110   34.1980 N   0  0  0  0  0  0  0  0  0  0  0  0
   38.5190   23.0410   33.1880 H   0  0  0  0  0  0  0  0  0  0  0  0
   35.8470   20.6960   35.5560 H   0  0  0  0  0  0  0  0  0  0  0  0
   38.4660   23.5030   37.8620 C   0  0  0  0  0  0  0  0  0  0  0  0
   37.6810   22.9270   38.8800 F   0  0  0  0  0  0  0  0  0  0  0  0
   39.7640   23.3500   38.1860 F   0  0  0  0  0  0  0  0  0  0  0  0
   38.1380   24.8610   37.9250 F   0  0  0  0  0  0  0  0  0  0  0  0
   37.8070   26.2980   35.0750 S   0  0  0  0  0  0  0  0  0  0  0  0
   36.2410   28.9380   34.5690 Cl  0  0  0  0  0  0  0  0  0  0  0  0
   36.4170   27.7450   33.2980 C   0  0  0  0  0  0  0  0  0  0  0  0
   37.0900   26.5420   33.4730 C   0  0  0  0  0  0  0  0  0  0  0  0
   37.1820   25.6430   32.4510 C   0  0  0  0  0  0  0  0  0  0  0  0
   36.5970   25.9500   31.2380 C   0  0  0  0  0  0  0  0  0  0  0  0
   35.9200   27.1550   31.0510 C   0  0  0  0  0  0  0  0  0  0  0  0
   35.8200   28.0750   32.0880 C   0  0  0  0  0  0  0  0  0  0  0  0
   37.6380   24.6890   32.4950 H   0  0  0  0  0  0  0  0  0  0  0  0
   36.6330   25.2860   30.3850 H   0  0  0  0  0  0  0  0  0  0  0  0
   35.4650   27.3810   30.0880 H   0  0  0  0  0  0  0  0  0  0  0  0
   37.1840   30.3640   30.6110 Cl  0  0  0  0  0  0  0  0  0  0  0  0
   35.5800   30.4750   31.2510 C   0  0  0  0  0  0  0  0  0  0  0  0
   35.1040   29.3490   31.8950 C   0  0  0  0  0  0  0  0  0  0  0  0
   33.8210   29.3160   32.4550 C   0  0  0  0  0  0  0  0  0  0  0  0
   33.3940   28.4720   32.9670 H   0  0  0  0  0  0  0  0  0  0  0  0
   33.0340   30.4410   32.3500 C   0  0  0  0  0  3  0  0  0  0  0  0
   33.4760   31.5840   31.7160 C   0  0  0  0  0  0  0  0  0  0  0  0
   32.4660   33.0110   31.5890 Cl  0  0  0  0  0  0  0  0  0  0  0  0
   34.7490   31.5760   31.1750 C   0  0  0  0  0  0  0  0  0  0  0  0
   35.1430   32.4430   30.6690 H   0  0  0  0  0  0  0  0  0  0  0  0
  1 12  1  0  0  0  0
  2  1  1  0  0  0  0
  2  7  1  0  0  0  0
  3  2  2  0  0  0  0
  4  5  2  0  0  0  0
  4  3  1  0  0  0  0
  5  6  1  0  0  0  0
  6 23  1  0  0  0  0
  6  1  2  0  0  0  0
  8  3  1  0  0  0  0
  9  4  1  0  0  0  0
 10  5  1  0  0  0  0
 11 16  2  0  0  0  0
 11 12  1  0  0  0  0
 12 13  2  0  0  0  0
 13 14  1  0  0  0  0
 13 19  1  0  0  0  0
 15 18  1  0  0  0  0
 15 14  2  0  0  0  0
 16 15  1  0  0  0  0
 17 11  1  0  0  0  0
 19 22  1  0  0  0  0
 19 21  1  0  0  0  0
 19 20  1  0  0  0  0
 25 26  1  0  0  0  0
 25 24  1  0  0  0  0
 26 23  1  0  0  0  0
 27 31  1  0  0  0  0
 27 26  2  0  0  0  0
 28 27  1  0  0  0  0
 29 28  2  0  0  0  0
 29 30  1  0  0  0  0
 30 25  2  0  0  0  0
 32 28  1  0  0  0  0
 33 29  1  0  0  0  0
 34 35  1  0  0  0  0
 35 36  1  0  0  0  0
 36 30  1  0  0  0  0
 36 37  2  0  0  0  0
 37 38  1  0  0  0  0
 39 37  1  0  0  0  0
 40 39  2  0  0  0  0
 41 40  1  0  0  0  0
 42 35  2  0  0  0  0
 42 40  1  0  0  0  0
 43 42  1  0  0  0  0
M  END
>  <minimizedAffinity>
-6.53272247

$$$$

 OpenBabel03272506283D

 43 46  0  0  0  0  0  0  0  0999 V2000
   39.8870   25.6210   34.3590 C   0  0  0  0  0  0  0  0  0  0  0  0
   41.1860   25.8240   34.7850 C   0  0  0  0  0  0  0  0  0  0  0  0
   42.0840   26.6900   34.1700 C   0  0  0  0  0  0  0  0  0  0  0  0
   41.6440   27.4090   33.0380 C   0  0  0  0  0  0  0  0  0  0  0  0
   40.3450   27.1890   32.6330 C   0  0  0  0  0  0  0  0  0  0  0  0
   39.4750   26.3370   33.2440 C   0  0  0  0  0  0  0  0  0  0  0  0
   41.5690   25.2820   35.6650 H   0  0  0  0  0  0  0  0  0  0  0  0
   43.0990   26.7740   34.5970 H   0  0  0  0  0  0  0  0  0  0  0  0
   42.4140   28.0450   32.6440 H   0  0  0  0  0  0  0  0  0  0  0  0
   40.2160   27.8040   31.7780 H   0  0  0  0  0  0  0  0  0  0  0  0
   38.4270   25.1900   36.2420 C   0  0  0  0  0  0  0  0  0  0  0  0
   39.1020   24.6820   35.1200 C   0  0  0  0  0  0  0  0  0  0  0  0
   38.9630   23.3200   34.8270 C   0  0  0  0  0  0  0  0  0  0  0  0
   38.1870   22.5500   35.6350 N   0  0  0  0  0  0  0  0  0  0  0  0
   37.5420   23.0670   36.7200 C   0  0  0  0  0  0  0  0  0  0  0  0
   37.6670   24.3880   37.0190 N   0  0  0  0  0  0  0  0  0  0  0  0
   38.5170   26.2380   36.4920 H   0  0  0  0  0  0  0  0  0  0  0  0
   36.9630   22.3350   37.2670 H   0  0  0  0  0  0  0  0  0  0  0  0
   39.6210   22.6440   33.6750 C   0  0  0  0  0  0  0  0  0  0  0  0
   39.2760   21.2790   33.6730 F   0  0  0  0  0  0  0  0  0  0  0  0
   39.3540   23.1560   32.4590 F   0  0  0  0  0  0  0  0  0  0  0  0
   41.0060   22.6300   33.8690 F   0  0  0  0  0  0  0  0  0  0  0  0
   37.8220   26.0740   32.7130 S   0  0  0  0  0  0  0  0  0  0  0  0
   36.3500   27.7000   34.9200 Cl  0  0  0  0  0  0  0  0  0  0  0  0
   36.3580   28.2520   33.2580 C   0  0  0  0  0  0  0  0  0  0  0  0
   36.9830   27.5570   32.2290 C   0  0  0  0  0  0  0  0  0  0  0  0
   36.9420   28.0280   30.9500 C   0  0  0  0  0  0  0  0  0  0  0  0
   36.2720   29.2080   30.6930 C   0  0  0  0  0  0  0  0  0  0  0  0
   35.6420   29.9140   31.7180 C   0  0  0  0  0  0  0  0  0  0  0  0
   35.6770   29.4400   33.0240 C   0  0  0  0  0  0  0  0  0  0  0  0
   37.3540   27.5560   30.0960 H   0  0  0  0  0  0  0  0  0  0  0  0
   36.2020   29.6390   29.7040 H   0  0  0  0  0  0  0  0  0  0  0  0
   35.1180   30.8420   31.4990 H   0  0  0  0  0  0  0  0  0  0  0  0
   32.7030   29.0170   33.5340 Cl  0  0  0  0  0  0  0  0  0  0  0  0
   33.6770   30.1020   34.4670 C   0  0  0  0  0  0  0  0  0  0  0  0
   35.0100   30.1810   34.1100 C   0  0  0  0  0  0  0  0  0  0  0  0
   35.8990   31.0230   34.7890 C   0  0  0  0  0  0  0  0  0  0  0  0
   36.9440   31.1280   34.5600 H   0  0  0  0  0  0  0  0  0  0  0  0
   35.4130   31.7800   35.8320 C   0  0  0  0  0  3  0  0  0  0  0  0
   34.0890   31.7280   36.2160 C   0  0  0  0  0  0  0  0  0  0  0  0
   33.4810   32.6960   37.5450 Cl  0  0  0  0  0  0  0  0  0  0  0  0
   33.2430   30.8830   35.5200 C   0  0  0  0  0  0  0  0  0  0  0  0
   32.1990   30.8050   35.7800 H   0  0  0  0  0  0  0  0  0  0  0  0
  1  2  1  0  0  0  0
  1 12  1  0  0  0  0
  2  7  1  0  0  0  0
  3  8  1  0  0  0  0
  3  2  2  0  0  0  0
  4  3  1  0  0  0  0
  5  4  2  0  0  0  0
  5  6  1  0  0  0  0
  6  1  2  0  0  0  0
  9  4  1  0  0  0  0
 10  5  1  0  0  0  0
 11 17  1  0  0  0  0
 11 16  1  0  0  0  0
 12 11  2  0  0  0  0
 13 12  1  0  0  0  0
 13 14  2  0  0  0  0
 14 15  1  0  0  0  0
 15 16  2  0  0  0  0
 15 18  1  0  0  0  0
 19 22  1  0  0  0  0
 19 13  1  0  0  0  0
 20 19  1  0  0  0  0
 21 19  1  0  0  0  0
 23  6  1  0  0  0  0
 25 24  1  0  0  0  0
 26 23  1  0  0  0  0
 26 25  2  0  0  0  0
 27 26  1  0  0  0  0
 28 27  2  0  0  0  0
 28 29  1  0  0  0  0
 29 30  2  0  0  0  0
 30 25  1  0  0  0  0
 30 36  1  0  0  0  0
 31 27  1  0  0  0  0
 32 28  1  0  0  0  0
 33 29  1  0  0  0  0
 34 35  1  0  0  0  0
 35 42  1  0  0  0  0
 36 35  2  0  0  0  0
 36 37  1  0  0  0  0
 37 39  2  0  0  0  0
 38 37  1  0  0  0  0
 39 40  1  0  0  0  0
 40 41  1  0  0  0  0
 42 43  1  0  0  0  0
 42 40  2  0  0  0  0
M  END
>  <minimizedAffinity>
-6.43745136

$$$$

 OpenBabel03272506283D

 43 46  0  0  0  0  0  0  0  0999 V2000
   35.1820   29.9170   32.7130 C   0  0  0  0  0  0  0  0  0  0  0  0
   35.0810   30.8670   31.7140 C   0  0  0  0  0  0  0  0  0  0  0  0
   35.9350   30.9410   30.6170 C   0  0  0  0  0  0  0  0  0  0  0  0
   36.9690   29.9880   30.5160 C   0  0  0  0  0  0  0  0  0  0  0  0
   37.0490   29.0520   31.5250 C   0  0  0  0  0  0  0  0  0  0  0  0
   36.2080   28.9890   32.5940 C   0  0  0  0  0  0  0  0  0  0  0  0
   34.2870   31.6290   31.7550 H   0  0  0  0  0  0  0  0  0  0  0  0
   35.7600   31.7430   29.8780 H   0  0  0  0  0  0  0  0  0  0  0  0
   37.5660   30.1370   29.6350 H   0  0  0  0  0  0  0  0  0  0  0  0
   37.8820   28.4460   31.2710 H   0  0  0  0  0  0  0  0  0  0  0  0
   32.9640   29.3930   33.5330 C   0  0  0  0  0  0  0  0  0  0  0  0
   34.2100   29.9970   33.7740 C   0  0  0  0  0  0  0  0  0  0  0  0
   34.4110   30.6220   35.0100 C   0  0  0  0  0  0  0  0  0  0  0  0
   33.4020   30.6190   35.9200 N   0  0  0  0  0  0  0  0  0  0  0  0
   32.2010   30.0270   35.6620 C   0  0  0  0  0  0  0  0  0  0  0  0
   31.9880   29.4160   34.4660 N   0  0  0  0  0  0  0  0  0  0  0  0
   32.7820   28.9040   32.5870 H   0  0  0  0  0  0  0  0  0  0  0  0
   31.4960   30.1050   36.4790 H   0  0  0  0  0  0  0  0  0  0  0  0
   35.6750   31.3040   35.4020 C   0  0  0  0  0  0  0  0  0  0  0  0
   36.6510   30.3380   35.7190 F   0  0  0  0  0  0  0  0  0  0  0  0
   36.1940   32.1540   34.4960 F   0  0  0  0  0  0  0  0  0  0  0  0
   35.4860   31.9850   36.6100 F   0  0  0  0  0  0  0  0  0  0  0  0
   36.3240   27.7860   33.8670 S   0  0  0  0  0  0  0  0  0  0  0  0
   38.8890   26.9130   35.3960 Cl  0  0  0  0  0  0  0  0  0  0  0  0
   38.2520   25.9360   34.0900 C   0  0  0  0  0  0  0  0  0  0  0  0
   37.1210   26.2870   33.3610 C   0  0  0  0  0  0  0  0  0  0  0  0
   36.6790   25.4940   32.3430 C   0  0  0  0  0  0  0  0  0  0  0  0
   37.3720   24.3350   32.0490 C   0  0  0  0  0  0  0  0  0  0  0  0
   38.5080   23.9740   32.7740 C   0  0  0  0  0  0  0  0  0  0  0  0
   38.9650   24.7780   33.8120 C   0  0  0  0  0  0  0  0  0  0  0  0
   35.8550   25.6910   31.7090 H   0  0  0  0  0  0  0  0  0  0  0  0
   37.0770   23.6610   31.2580 H   0  0  0  0  0  0  0  0  0  0  0  0
   39.0420   23.0580   32.5290 H   0  0  0  0  0  0  0  0  0  0  0  0
   38.6870   22.9960   36.2680 Cl  0  0  0  0  0  0  0  0  0  0  0  0
   40.2080   23.6050   35.7090 C   0  0  0  0  0  0  0  0  0  0  0  0
   40.1660   24.4010   34.5790 C   0  0  0  0  0  0  0  0  0  0  0  0
   41.3300   24.9520   34.0310 C   0  0  0  0  0  0  0  0  0  0  0  0
   41.3630   25.5760   33.1570 H   0  0  0  0  0  0  0  0  0  0  0  0
   42.5320   24.6830   34.6470 C   0  0  0  0  0  3  0  0  0  0  0  0
   42.6130   23.8940   35.7760 C   0  0  0  0  0  0  0  0  0  0  0  0
   44.1490   23.5580   36.5520 Cl  0  0  0  0  0  0  0  0  0  0  0  0
   41.4400   23.3680   36.2860 C   0  0  0  0  0  0  0  0  0  0  0  0
   41.4480   22.7450   37.1670 H   0  0  0  0  0  0  0  0  0  0  0  0
  1 12  1  0  0  0  0
  2  7  1  0  0  0  0
  2  1  2  0  0  0  0
  3  2  1  0  0  0  0
  4  3  2  0  0  0  0
  4  5  1  0  0  0  0
  5  6  2  0  0  0  0
  6  1  1  0  0  0  0
  6 23  1  0  0  0  0
  8  3  1  0  0  0  0
  9  4  1  0  0  0  0
 10  5  1  0  0  0  0
 11 12  2  0  0  0  0
 11 16  1  0  0  0  0
 12 13  1  0  0  0  0
 13 19  1  0  0  0  0
 13 14  2  0  0  0  0
 15 14  1  0  0  0  0
 15 18  1  0  0  0  0
 16 15  2  0  0  0  0
 17 11  1  0  0  0  0
 19 20  1  0  0  0  0
 19 22  1  0  0  0  0
 21 19  1  0  0  0  0
 25 24  1  0  0  0  0
 26 23  1  0  0  0  0
 26 25  2  0  0  0  0
 27 26  1  0  0  0  0
 28 27  2  0  0  0  0
 28 29  1  0  0  0  0
 29 30  2  0  0  0  0
 30 25  1  0  0  0  0
 30 36  1  0  0  0  0
 31 27  1  0  0  0  0
 32 28  1  0  0  0  0
 33 29  1  0  0  0  0
 35 34  1  0  0  0  0
 35 42  1  0  0  0  0
 36 35  2  0  0  0  0
 37 36  1  0  0  0  0
 37 39  2  0  0  0  0
 38 37  1  0  0  0  0
 39 40  1  0  0  0  0
 40 42  2  0  0  0  0
 40 41  1  0  0  0  0
 42 43  1  0  0  0  0
M  END
>  <minimizedAffinity>
-6.41779947

$$$$

 OpenBabel03272506283D

 43 46  0  0  0  0  0  0  0  0999 V2000
   33.6780   31.1060   34.7580 C   0  0  0  0  0  0  0  0  0  0  0  0
   33.8200   32.1410   35.6630 C   0  0  0  0  0  0  0  0  0  0  0  0
   35.0170   32.4720   36.2910 C   0  0  0  0  0  0  0  0  0  0  0  0
   36.1600   31.7040   35.9860 C   0  0  0  0  0  0  0  0  0  0  0  0
   35.9930   30.6770   35.0820 C   0  0  0  0  0  0  0  0  0  0  0  0
   34.8150   30.3620   34.4740 C   0  0  0  0  0  0  0  0  0  0  0  0
   32.9510   32.7650   35.9280 H   0  0  0  0  0  0  0  0  0  0  0  0
   35.0140   33.3210   36.9970 H   0  0  0  0  0  0  0  0  0  0  0  0
   37.0250   32.0440   36.5250 H   0  0  0  0  0  0  0  0  0  0  0  0
   36.9500   30.2260   34.9990 H   0  0  0  0  0  0  0  0  0  0  0  0
   32.0560   31.6130   33.0320 C   0  0  0  0  0  0  0  0  0  0  0  0
   32.3600   30.9100   34.2100 C   0  0  0  0  0  0  0  0  0  0  0  0
   31.3720   30.0800   34.7550 C   0  0  0  0  0  0  0  0  0  0  0  0
   30.1700   29.9900   34.1290 N   0  0  0  0  0  0  0  0  0  0  0  0
   29.8990   30.6840   32.9870 C   0  0  0  0  0  0  0  0  0  0  0  0
   30.8460   31.4950   32.4430 N   0  0  0  0  0  0  0  0  0  0  0  0
   32.8000   32.2610   32.5900 H   0  0  0  0  0  0  0  0  0  0  0  0
   28.9020   30.5130   32.6030 H   0  0  0  0  0  0  0  0  0  0  0  0
   31.5510   29.2790   35.9970 C   0  0  0  0  0  0  0  0  0  0  0  0
   30.3660   28.5700   36.2730 F   0  0  0  0  0  0  0  0  0  0  0  0
   32.5800   28.4100   35.9980 F   0  0  0  0  0  0  0  0  0  0  0  0
   31.6800   30.1380   37.0940 F   0  0  0  0  0  0  0  0  0  0  0  0
   34.6250   29.0530   33.3200 S   0  0  0  0  0  0  0  0  0  0  0  0
   36.6460   27.1570   34.7340 Cl  0  0  0  0  0  0  0  0  0  0  0  0
   36.9730   27.7750   33.1280 C   0  0  0  0  0  0  0  0  0  0  0  0
   36.1150   28.6390   32.4570 C   0  0  0  0  0  0  0  0  0  0  0  0
   36.4300   29.1010   31.2130 C   0  0  0  0  0  0  0  0  0  0  0  0
   37.6140   28.6950   30.6290 C   0  0  0  0  0  0  0  0  0  0  0  0
   38.4830   27.8280   31.2940 C   0  0  0  0  0  0  0  0  0  0  0  0
   38.1700   27.3540   32.5620 C   0  0  0  0  0  0  0  0  0  0  0  0
   35.8640   29.7860   30.6380 H   0  0  0  0  0  0  0  0  0  0  0  0
   37.9250   29.0200   29.6470 H   0  0  0  0  0  0  0  0  0  0  0  0
   39.4120   27.5180   30.8200 H   0  0  0  0  0  0  0  0  0  0  0  0
   37.6940   24.3470   32.4340 Cl  0  0  0  0  0  0  0  0  0  0  0  0
   39.0070   25.0610   33.3080 C   0  0  0  0  0  0  0  0  0  0  0  0
   39.0850   26.4400   33.2690 C   0  0  0  0  0  0  0  0  0  0  0  0
   40.1020   27.1330   33.9370 C   0  0  0  0  0  0  0  0  0  0  0  0
   40.2170   28.2020   33.9430 H   0  0  0  0  0  0  0  0  0  0  0  0
   41.0340   26.4040   34.6420 C   0  0  0  0  0  3  0  0  0  0  0  0
   40.9880   25.0270   34.7040 C   0  0  0  0  0  0  0  0  0  0  0  0
   42.1790   24.1090   35.6060 Cl  0  0  0  0  0  0  0  0  0  0  0  0
   39.9680   24.3800   34.0310 C   0  0  0  0  0  0  0  0  0  0  0  0
   39.8860   23.3040   34.0480 H   0  0  0  0  0  0  0  0  0  0  0  0
  1  2  1  0  0  0  0
  2  7  1  0  0  0  0
  2  3  2  0  0  0  0
  3  8  1  0  0  0  0
  4  3  1  0  0  0  0
  4  9  1  0  0  0  0
  5  4  2  0  0  0  0
  6  1  2  0  0  0  0
  6  5  1  0  0  0  0
 10  5  1  0  0  0  0
 11 12  1  0  0  0  0
 12 13  2  0  0  0  0
 12  1  1  0  0  0  0
 13 19  1  0  0  0  0
 14 13  1  0  0  0  0
 15 14  2  0  0  0  0
 16 15  1  0  0  0  0
 16 11  2  0  0  0  0
 17 11  1  0  0  0  0
 18 15  1  0  0  0  0
 19 21  1  0  0  0  0
 19 20  1  0  0  0  0
 19 22  1  0  0  0  0
 23  6  1  0  0  0  0
 25 24  1  0  0  0  0
 26 25  2  0  0  0  0
 26 23  1  0  0  0  0
 27 26  1  0  0  0  0
 28 27  2  0  0  0  0
 28 29  1  0  0  0  0
 29 30  2  0  0  0  0
 30 25  1  0  0  0  0
 30 36  1  0  0  0  0
 31 27  1  0  0  0  0
 32 28  1  0  0  0  0
 33 29  1  0  0  0  0
 34 35  1  0  0  0  0
 35 42  1  0  0  0  0
 36 35  2  0  0  0  0
 36 37  1  0  0  0  0
 37 38  1  0  0  0  0
 37 39  2  0  0  0  0
 39 40  1  0  0  0  0
 40 41  1  0  0  0  0
 42 43  1  0  0  0  0
 42 40  2  0  0  0  0
M  END
>  <minimizedAffinity>
-6.33473921

$$$$

 OpenBabel03272506283D

 43 46  0  0  0  0  0  0  0  0999 V2000
   37.6500   23.5370   33.0120 C   0  0  0  0  0  0  0  0  0  0  0  0
   36.9150   22.3910   32.7720 C   0  0  0  0  0  0  0  0  0  0  0  0
   35.8740   22.3080   31.8530 C   0  0  0  0  0  0  0  0  0  0  0  0
   35.5450   23.4660   31.1180 C   0  0  0  0  0  0  0  0  0  0  0  0
   36.2910   24.5960   31.3760 C   0  0  0  0  0  0  0  0  0  0  0  0
   37.3090   24.6650   32.2790 C   0  0  0  0  0  0  0  0  0  0  0  0
   37.1410   21.4650   33.3250 H   0  0  0  0  0  0  0  0  0  0  0  0
   35.3560   21.3390   31.7430 H   0  0  0  0  0  0  0  0  0  0  0  0
   34.7300   23.2910   30.4400 H   0  0  0  0  0  0  0  0  0  0  0  0
   35.8870   25.3430   30.7400 H   0  0  0  0  0  0  0  0  0  0  0  0
   38.3360   23.7480   35.3260 C   0  0  0  0  0  0  0  0  0  0  0  0
   38.6920   23.4350   34.0030 C   0  0  0  0  0  0  0  0  0  0  0  0
   40.0140   23.0500   33.7500 C   0  0  0  0  0  0  0  0  0  0  0  0
   40.8920   22.9970   34.7840 N   0  0  0  0  0  0  0  0  0  0  0  0
   40.5230   23.3070   36.0600 C   0  0  0  0  0  0  0  0  0  0  0  0
   39.2430   23.6830   36.3250 N   0  0  0  0  0  0  0  0  0  0  0  0
   37.3220   24.0480   35.5500 H   0  0  0  0  0  0  0  0  0  0  0  0
   41.3290   23.2190   36.7770 H   0  0  0  0  0  0  0  0  0  0  0  0
   40.5330   22.6940   32.4010 C   0  0  0  0  0  0  0  0  0  0  0  0
   41.9090   22.4070   32.4880 F   0  0  0  0  0  0  0  0  0  0  0  0
   39.9200   21.6670   31.7830 F   0  0  0  0  0  0  0  0  0  0  0  0
   40.4860   23.8180   31.5690 F   0  0  0  0  0  0  0  0  0  0  0  0
   38.2510   26.1130   32.5890 S   0  0  0  0  0  0  0  0  0  0  0  0
   36.5050   27.5220   34.7450 Cl  0  0  0  0  0  0  0  0  0  0  0  0
   36.6730   28.2080   33.1420 C   0  0  0  0  0  0  0  0  0  0  0  0
   37.4240   27.6130   32.1360 C   0  0  0  0  0  0  0  0  0  0  0  0
   37.5060   28.1860   30.9010 C   0  0  0  0  0  0  0  0  0  0  0  0
   36.8320   29.3690   30.6660 C   0  0  0  0  0  0  0  0  0  0  0  0
   36.0750   29.9750   31.6700 C   0  0  0  0  0  0  0  0  0  0  0  0
   35.9860   29.3970   32.9300 C   0  0  0  0  0  0  0  0  0  0  0  0
   38.0200   27.7940   30.0620 H   0  0  0  0  0  0  0  0  0  0  0  0
   36.8550   29.8780   29.7130 H   0  0  0  0  0  0  0  0  0  0  0  0
   35.5510   30.9070   31.4690 H   0  0  0  0  0  0  0  0  0  0  0  0
   32.9680   28.9820   32.9990 Cl  0  0  0  0  0  0  0  0  0  0  0  0
   33.8170   29.9430   34.1620 C   0  0  0  0  0  0  0  0  0  0  0  0
   35.1860   30.0330   33.9930 C   0  0  0  0  0  0  0  0  0  0  0  0
   35.9820   30.7810   34.8680 C   0  0  0  0  0  0  0  0  0  0  0  0
   37.0480   30.8890   34.7900 H   0  0  0  0  0  0  0  0  0  0  0  0
   35.3670   31.4330   35.9130 C   0  0  0  0  0  3  0  0  0  0  0  0
   34.0030   31.3670   36.1130 C   0  0  0  0  0  0  0  0  0  0  0  0
   33.2300   32.2020   37.4470 Cl  0  0  0  0  0  0  0  0  0  0  0  0
   33.2520   30.6170   35.2260 C   0  0  0  0  0  0  0  0  0  0  0  0
   32.1820   30.5330   35.3380 H   0  0  0  0  0  0  0  0  0  0  0  0
  1 12  1  0  0  0  0
  2  1  1  0  0  0  0
  2  7  1  0  0  0  0
  3  2  2  0  0  0  0
  4  5  2  0  0  0  0
  4  3  1  0  0  0  0
  5  6  1  0  0  0  0
  6 23  1  0  0  0  0
  6  1  2  0  0  0  0
  8  3  1  0  0  0  0
  9  4  1  0  0  0  0
 10  5  1  0  0  0  0
 11 17  1  0  0  0  0
 11 16  1  0  0  0  0
 12 11  2  0  0  0  0
 13 12  1  0  0  0  0
 13 14  2  0  0  0  0
 14 15  1  0  0  0  0
 15 16  2  0  0  0  0
 15 18  1  0  0  0  0
 19 20  1  0  0  0  0
 19 13  1  0  0  0  0
 21 19  1  0  0  0  0
 22 19  1  0  0  0  0
 25 24  1  0  0  0  0
 26 23  1  0  0  0  0
 26 25  2  0  0  0  0
 27 26  1  0  0  0  0
 28 27  2  0  0  0  0
 28 29  1  0  0  0  0
 29 30  2  0  0  0  0
 30 25  1  0  0  0  0
 30 36  1  0  0  0  0
 31 27  1  0  0  0  0
 32 28  1  0  0  0  0
 33 29  1  0  0  0  0
 34 35  1  0  0  0  0
 35 42  1  0  0  0  0
 36 35  2  0  0  0  0
 36 37  1  0  0  0  0
 37 39  2  0  0  0  0
 38 37  1  0  0  0  0
 39 40  1  0  0  0  0
 40 41  1  0  0  0  0
 42 43  1  0  0  0  0
 42 40  2  0  0  0  0
M  END
>  <minimizedAffinity>
-6.31663847

$$$$

 OpenBabel03272506283D

 43 46  0  0  0  0  0  0  0  0999 V2000
   33.4120   30.6120   35.7630 C   0  0  0  0  0  0  0  0  0  0  0  0
   33.2290   31.5730   36.7390 C   0  0  0  0  0  0  0  0  0  0  0  0
   34.1900   32.5120   37.1020 C   0  0  0  0  0  0  0  0  0  0  0  0
   35.4310   32.4830   36.4320 C   0  0  0  0  0  0  0  0  0  0  0  0
   35.5890   31.5150   35.4630 C   0  0  0  0  0  0  0  0  0  0  0  0
   34.6400   30.6010   35.1170 C   0  0  0  0  0  0  0  0  0  0  0  0
   32.2730   31.6300   37.2860 H   0  0  0  0  0  0  0  0  0  0  0  0
   33.9340   33.2350   37.8970 H   0  0  0  0  0  0  0  0  0  0  0  0
   36.0960   33.2470   36.7900 H   0  0  0  0  0  0  0  0  0  0  0  0
   36.5740   31.6550   35.0940 H   0  0  0  0  0  0  0  0  0  0  0  0
   32.2440   28.5630   36.3140 C   0  0  0  0  0  0  0  0  0  0  0  0
   32.3030   29.7220   35.5230 C   0  0  0  0  0  0  0  0  0  0  0  0
   31.2940   29.9260   34.5750 C   0  0  0  0  0  0  0  0  0  0  0  0
   30.3060   29.0000   34.4580 N   0  0  0  0  0  0  0  0  0  0  0  0
   30.2710   27.8820   35.2370 C   0  0  0  0  0  0  0  0  0  0  0  0
   31.2440   27.6680   36.1630 N   0  0  0  0  0  0  0  0  0  0  0  0
   33.0110   28.3810   37.0540 H   0  0  0  0  0  0  0  0  0  0  0  0
   29.4260   27.2380   35.0310 H   0  0  0  0  0  0  0  0  0  0  0  0
   31.2300   31.1040   33.6670 C   0  0  0  0  0  0  0  0  0  0  0  0
   30.0770   31.0150   32.8630 F   0  0  0  0  0  0  0  0  0  0  0  0
   31.2430   32.3110   34.2630 F   0  0  0  0  0  0  0  0  0  0  0  0
   32.2780   31.0410   32.7420 F   0  0  0  0  0  0  0  0  0  0  0  0
   34.8600   29.3790   33.8760 S   0  0  0  0  0  0  0  0  0  0  0  0
   35.9960   27.9020   31.3850 Cl  0  0  0  0  0  0  0  0  0  0  0  0
   36.7960   27.7790   32.9380 C   0  0  0  0  0  0  0  0  0  0  0  0
   36.3230   28.4030   34.0870 C   0  0  0  0  0  0  0  0  0  0  0  0
   36.9800   28.2590   35.2740 C   0  0  0  0  0  0  0  0  0  0  0  0
   38.1240   27.4860   35.3150 C   0  0  0  0  0  0  0  0  0  0  0  0
   38.6080   26.8570   34.1670 C   0  0  0  0  0  0  0  0  0  0  0  0
   37.9430   26.9970   32.9550 C   0  0  0  0  0  0  0  0  0  0  0  0
   36.6820   28.6610   36.2070 H   0  0  0  0  0  0  0  0  0  0  0  0
   38.6950   27.3310   36.2200 H   0  0  0  0  0  0  0  0  0  0  0  0
   39.5100   26.2510   34.2170 H   0  0  0  0  0  0  0  0  0  0  0  0
   36.9230   24.2220   32.2180 Cl  0  0  0  0  0  0  0  0  0  0  0  0
   38.0890   25.0820   31.2720 C   0  0  0  0  0  0  0  0  0  0  0  0
   38.4490   26.3320   31.7400 C   0  0  0  0  0  0  0  0  0  0  0  0
   39.3830   27.1240   31.0630 C   0  0  0  0  0  0  0  0  0  0  0  0
   39.7040   28.1020   31.3750 H   0  0  0  0  0  0  0  0  0  0  0  0
   39.9420   26.6280   29.9060 C   0  0  0  0  0  3  0  0  0  0  0  0
   39.6080   25.3860   29.4080 C   0  0  0  0  0  0  0  0  0  0  0  0
   40.3260   24.7640   27.9350 Cl  0  0  0  0  0  0  0  0  0  0  0  0
   38.6800   24.6340   30.1070 C   0  0  0  0  0  0  0  0  0  0  0  0
   38.3840   23.6570   29.7610 H   0  0  0  0  0  0  0  0  0  0  0  0
  1  2  1  0  0  0  0
  2  3  2  0  0  0  0
  2  7  1  0  0  0  0
  3  8  1  0  0  0  0
  4  9  1  0  0  0  0
  4  3  1  0  0  0  0
  5  4  2  0  0  0  0
  6  5  1  0  0  0  0
  6  1  2  0  0  0  0
 10  5  1  0  0  0  0
 11 17  1  0  0  0  0
 12  1  1  0  0  0  0
 12 11  2  0  0  0  0
 13 12  1  0  0  0  0
 14 13  2  0  0  0  0
 14 15  1  0  0  0  0
 15 16  2  0  0  0  0
 16 11  1  0  0  0  0
 18 15  1  0  0  0  0
 19 21  1  0  0  0  0
 19 13  1  0  0  0  0
 20 19  1  0  0  0  0
 22 19  1  0  0  0  0
 23 26  1  0  0  0  0
 23  6  1  0  0  0  0
 24 25  1  0  0  0  0
 25 30  2  0  0  0  0
 25 26  1  0  0  0  0
 26 27  2  0  0  0  0
 27 28  1  0  0  0  0
 27 31  1  0  0  0  0
 28 32  1  0  0  0  0
 29 33  1  0  0  0  0
 29 28  2  0  0  0  0
 30 29  1  0  0  0  0
 35 36  1  0  0  0  0
 35 34  1  0  0  0  0
 36 30  1  0  0  0  0
 37 38  1  0  0  0  0
 37 36  2  0  0  0  0
 39 37  1  0  0  0  0
 40 39  2  0  0  0  0
 40 42  1  0  0  0  0
 41 40  1  0  0  0  0
 42 35  2  0  0  0  0
 43 42  1  0  0  0  0
M  END
>  <minimizedAffinity>
-6.21499348

$$$$
