
 OpenBabel03262520193D

 22 23  0  0  0  0  0  0  0  0999 V2000
   37.6200   29.3340   50.7060 C   0  0  0  0  0  0  0  0  0  0  0  0
   38.1260   30.6330   50.4830 C   0  0  0  0  0  0  0  0  0  0  0  0
   37.4470   31.4430   49.5560 C   0  0  0  0  0  0  0  0  0  0  0  0
   36.3550   30.9210   48.9410 N   0  0  0  0  0  0  0  0  0  0  0  0
   35.9040   29.6810   49.1780 C   0  0  0  0  0  0  0  0  0  0  0  0
   36.5410   28.9000   50.0590 N   0  0  0  0  0  0  0  0  0  0  0  0
   38.0820   28.6560   51.3980 H   0  0  0  0  0  0  0  0  0  0  0  0
   39.0030   30.9610   51.0210 H   0  0  0  0  0  0  0  0  0  0  0  0
   35.7060   30.1820   46.1740 Cl  0  0  0  0  0  0  0  0  0  0  0  0
   34.5260   29.3290   47.1440 C   0  0  0  0  0  0  0  0  0  0  0  0
   34.7240   29.1650   48.4900 C   0  0  0  0  0  0  0  0  0  0  0  0
   33.7450   28.4790   49.1830 C   0  0  0  0  0  0  0  0  0  0  0  0
   33.9080   28.3500   50.2640 H   0  0  0  0  0  0  0  0  0  0  0  0
   32.5980   27.9540   48.6270 C   0  0  0  0  0  0  0  0  0  0  0  0
   32.4500   28.1500   47.2590 C   0  0  0  0  0  0  0  0  0  0  0  0
   31.0030   27.4980   46.5070 Cl  0  0  0  0  0  0  0  0  0  0  0  0
   33.3940   28.8310   46.4920 C   0  0  0  0  0  0  0  0  0  0  0  0
   33.2310   28.9580   45.4200 H   0  0  0  0  0  0  0  0  0  0  0  0
   37.9510   32.8130   49.2980 C   0  0  0  0  0  0  0  0  0  0  0  0
   39.1470   32.9130   49.9780 F   0  0  0  0  0  0  0  0  0  0  0  0
   38.1880   33.0660   47.9650 F   0  0  0  0  0  0  0  0  0  0  0  0
   37.0850   33.7850   49.8050 F   0  0  0  0  0  0  0  0  0  0  0  0
  1  7  1  0  0  0  0
  2  1  1  0  0  0  0
  2  8  1  0  0  0  0
  3  2  2  0  0  0  0
  4  5  2  0  0  0  0
  4  3  1  0  0  0  0
  5  6  1  0  0  0  0
  6  1  2  0  0  0  0
  9 10  1  0  0  0  0
 10 11  1  0  0  0  0
 11  5  1  0  0  0  0
 11 12  2  0  0  0  0
 12 13  1  0  0  0  0
 14 12  1  0  0  0  0
 15 14  2  0  0  0  0
 16 15  1  0  0  0  0
 17 10  2  0  0  0  0
 17 15  1  0  0  0  0
 18 17  1  0  0  0  0
 19  3  1  0  0  0  0
 19 22  1  0  0  0  0
 19 20  1  0  0  0  0
 21 19  1  0  0  0  0
M  END
>  <minimizedAffinity>
-5.88942242

>  <minimizedRMSD>
1.41618431

$$$$
