
 OpenBabel03272510343D

 29 31  0  0  0  0  0  0  0  0999 V2000
   32.6500   29.9730   45.8940 C   0  0  0  0  0  0  0  0  0  0  0  0
   31.9780   31.1410   45.5800 C   0  0  0  0  0  0  0  0  0  0  0  0
   30.6910   31.0750   45.0630 C   0  0  0  0  0  0  0  0  0  0  0  0
   30.1040   29.8510   44.8700 C   0  0  0  0  0  0  0  0  0  0  0  0
   30.7650   28.6830   45.1770 C   0  0  0  0  0  0  0  0  0  0  0  0
   32.0530   28.7370   45.6950 C   0  0  0  0  0  0  0  0  0  0  0  0
   32.4500   32.0990   45.7380 H   0  0  0  0  0  0  0  0  0  0  0  0
   30.2170   32.0270   44.8380 H   0  0  0  0  0  0  0  0  0  0  0  0
   29.0910   29.8880   44.4580 H   0  0  0  0  0  0  0  0  0  0  0  0
   30.2720   27.7340   45.0110 H   0  0  0  0  0  0  0  0  0  0  0  0
   31.8840   27.6610   48.5490 Cl  0  0  0  0  0  0  0  0  0  0  0  0
   32.8050   26.8880   47.2610 C   0  0  0  0  0  0  0  0  0  0  0  0
   32.7700   27.5120   46.0290 C   0  0  0  0  0  0  0  0  0  0  0  0
   33.4940   26.9030   45.0170 C   0  0  0  0  0  0  0  0  0  0  0  0
   33.5060   27.3410   44.0350 H   0  0  0  0  0  0  0  0  0  0  0  0
   34.2240   25.7430   45.1720 C   0  0  0  0  0  3  0  0  0  0  0  0
   34.2420   25.1460   46.4010 C   0  0  0  0  0  0  0  0  0  0  0  0
   35.1580   23.6640   46.6580 Cl  0  0  0  0  0  0  0  0  0  0  0  0
   33.5370   25.7200   47.4280 C   0  0  0  0  0  0  0  0  0  0  0  0
   33.5350   25.2680   48.4110 H   0  0  0  0  0  0  0  0  0  0  0  0
   35.3380   30.3580   48.3180 C   0  0  0  0  0  0  0  0  0  0  0  0
   36.5050   30.3810   47.5620 C   0  0  0  0  0  0  0  0  0  0  0  0
   36.3400   30.2570   46.1680 C   0  0  0  0  0  0  0  0  0  0  0  0
   35.0960   30.1270   45.6560 N   0  0  0  0  0  0  0  0  0  0  0  0
   33.9910   30.1100   46.4300 C   0  0  0  0  0  0  0  0  0  0  0  0
   34.1280   30.2280   47.7600 N   0  0  0  0  0  0  0  0  0  0  0  0
   35.4680   30.4530   49.4000 H   0  0  0  0  0  0  0  0  0  0  0  0
   37.5060   30.4800   47.9250 H   0  0  0  0  0  0  0  0  0  0  0  0
   37.2030   30.2660   45.5110 H   0  0  0  0  0  0  0  0  0  0  0  0
  1 25  1  0  0  0  0
  2  7  1  0  0  0  0
  2  1  2  0  0  0  0
  3  2  1  0  0  0  0
  4  3  2  0  0  0  0
  4  5  1  0  0  0  0
  5  6  2  0  0  0  0
  6  1  1  0  0  0  0
  6 13  1  0  0  0  0
  8  3  1  0  0  0  0
  9  4  1  0  0  0  0
 10  5  1  0  0  0  0
 12 19  1  0  0  0  0
 12 11  1  0  0  0  0
 13 12  2  0  0  0  0
 14 16  2  0  0  0  0
 14 13  1  0  0  0  0
 15 14  1  0  0  0  0
 16 17  1  0  0  0  0
 17 18  1  0  0  0  0
 17 19  2  0  0  0  0
 19 20  1  0  0  0  0
 21 27  1  0  0  0  0
 22 28  1  0  0  0  0
 22 21  2  0  0  0  0
 23 22  1  0  0  0  0
 24 23  2  0  0  0  0
 24 25  1  0  0  0  0
 25 26  2  0  0  0  0
 26 21  1  0  0  0  0
 29 23  1  0  0  0  0
M  END
>  <minimizedAffinity>
-3.68332124

>  <minimizedRMSD>
6.4338088

$$$$
