
 OpenBabel03262520083D

 19 20  0  0  0  0  0  0  0  0999 V2000
   37.2230   29.0970   50.5650 Cl  0  0  0  0  0  0  0  0  0  0  0  0
   35.9550   29.1880   49.3870 C   0  0  0  0  0  0  0  0  0  0  0  0
   35.9360   30.2220   48.4820 C   0  0  0  0  0  0  0  0  0  0  0  0
   34.9490   30.3370   47.5270 C   0  0  0  0  0  0  0  0  0  0  0  0
   34.9060   31.1460   46.7930 H   0  0  0  0  0  0  0  0  0  0  0  0
   33.9360   29.3900   47.4610 C   0  0  0  0  0  0  0  0  0  0  0  0
   33.9250   28.3370   48.3560 C   0  0  0  0  0  0  0  0  0  0  0  0
   32.7080   27.0740   48.3870 Cl  0  0  0  0  0  0  0  0  0  0  0  0
   34.9390   28.2700   49.2940 C   0  0  0  0  0  0  0  0  0  0  0  0
   34.9620   27.4540   50.0160 H   0  0  0  0  0  0  0  0  0  0  0  0
   37.9750   33.1000   49.5080 C   0  0  0  0  0  0  0  0  0  0  0  0
   39.0090   33.1100   48.5580 C   0  0  0  0  0  0  0  0  0  0  0  0
   38.9830   32.1070   47.5630 C   0  0  0  0  0  0  0  0  0  0  0  0
   37.9710   31.2050   47.5880 N   0  0  0  0  0  0  0  0  0  0  0  0
   36.9890   31.2310   48.5280 C   0  0  0  0  0  0  0  0  0  0  0  0
   37.0050   32.1820   49.4780 N   0  0  0  0  0  0  0  0  0  0  0  0
   38.0410   33.8860   50.2460 H   0  0  0  0  0  0  0  0  0  0  0  0
   39.8280   33.8010   48.4990 H   0  0  0  0  0  0  0  0  0  0  0  0
   39.7260   32.0060   46.7710 H   0  0  0  0  0  0  0  0  0  0  0  0
  2  1  1  0  0  0  0
  3 15  1  0  0  0  0
  3  2  2  0  0  0  0
  4  3  1  0  0  0  0
  5  4  1  0  0  0  0
  6  4  2  0  0  0  0
  6  7  1  0  0  0  0
  7  8  1  0  0  0  0
  7  9  2  0  0  0  0
  9  2  1  0  0  0  0
  9 10  1  0  0  0  0
 11 17  1  0  0  0  0
 12 11  2  0  0  0  0
 13 14  2  0  0  0  0
 13 12  1  0  0  0  0
 14 15  1  0  0  0  0
 15 16  2  0  0  0  0
 16 11  1  0  0  0  0
 18 12  1  0  0  0  0
 19 13  1  0  0  0  0
M  END
>  <minimizedAffinity>
-5.32355309

>  <minimizedRMSD>
2.94923544

$$$$
