
 OpenBabel03272501123D

 26 28  0  0  1  0  0  0  0  0999 V2000
   39.5050   25.2060   34.6520 C   0  0  1  0  0  0  0  0  0  0  0  0
   39.0070   26.5590   34.4370 C   0  0  1  0  0  0  0  0  0  0  0  0
   40.4440   26.3890   34.8340 C   0  0  0  0  0  0  0  0  0  0  0  0
   39.7490   24.5230   33.7970 H   0  0  0  0  0  0  0  0  0  0  0  0
   38.3760   26.9620   35.2820 H   0  0  0  0  0  0  0  0  0  0  0  0
   41.1710   26.5500   34.0280 H   0  0  0  0  0  0  0  0  0  0  0  0
   40.7890   26.6260   35.8360 H   0  0  0  0  0  0  0  0  0  0  0  0
   36.4330   27.9980   34.4790 Cl  0  0  0  0  0  0  0  0  0  0  0  0
   37.4350   27.7790   33.0490 C   0  0  0  0  0  0  0  0  0  0  0  0
   38.6280   27.0890   33.1270 C   0  0  0  0  0  0  0  0  0  0  0  0
   39.3990   26.9280   31.9930 C   0  0  0  0  0  0  0  0  0  0  0  0
   40.3420   26.3830   32.0500 H   0  0  0  0  0  0  0  0  0  0  0  0
   39.0000   27.4500   30.7580 C   0  0  0  0  0  3  0  0  0  0  0  0
   37.7900   28.1330   30.7500 C   0  0  0  0  0  0  0  0  0  0  0  0
   37.2290   28.8190   29.2190 Cl  0  0  0  0  0  0  0  0  0  0  0  0
   36.9860   28.3150   31.8740 C   0  0  0  0  0  0  0  0  0  0  0  0
   36.0640   28.8600   31.7630 H   0  0  0  0  0  0  0  0  0  0  0  0
   39.2390   24.4730   35.9440 C   0  0  0  0  0  0  0  0  0  0  0  0
   38.1390   24.8870   36.7130 C   0  0  0  0  0  0  0  0  0  0  0  0
   37.9380   24.2030   37.8990 C   0  0  0  0  0  0  0  0  0  0  0  0
   38.7760   23.2030   38.2580 N   0  0  0  0  0  0  0  0  0  0  0  0
   39.8420   22.8190   37.4890 C   0  0  0  0  0  0  0  0  0  0  0  0
   40.0640   23.4730   36.3140 N   0  0  0  0  0  0  0  0  0  0  0  0
   37.5450   25.6850   36.3400 H   0  0  0  0  0  0  0  0  0  0  0  0
   37.1040   24.5140   38.4870 H   0  0  0  0  0  0  0  0  0  0  0  0
   40.4710   22.0110   37.8350 H   0  0  0  0  0  0  0  0  0  0  0  0
  1  4  1  6  0  0  0
  1  3  1  0  0  0  0
  1 18  1  0  0  0  0
  2  1  1  0  0  0  0
  2  3  1  0  0  0  0
  2  5  1  1  0  0  0
  3  7  1  0  0  0  0
  6  3  1  0  0  0  0
  9 10  1  0  0  0  0
  9  8  1  0  0  0  0
 10  2  1  0  0  0  0
 11 12  1  0  0  0  0
 11 10  2  0  0  0  0
 13 11  1  0  0  0  0
 14 13  2  0  0  0  0
 14 16  1  0  0  0  0
 15 14  1  0  0  0  0
 16  9  2  0  0  0  0
 17 16  1  0  0  0  0
 18 23  2  0  0  0  0
 18 19  1  0  0  0  0
 19 20  2  0  0  0  0
 20 21  1  0  0  0  0
 20 25  1  0  0  0  0
 22 26  1  0  0  0  0
 22 21  2  0  0  0  0
 23 22  1  0  0  0  0
 24 19  1  0  0  0  0
M  END
>  <minimizedAffinity>
-4.94988775

$$$$

 OpenBabel03272501123D

 26 28  0  0  1  0  0  0  0  0999 V2000
   37.2470   26.9250   34.4340 C   0  0  1  0  0  0  0  0  0  0  0  0
   38.6460   26.6410   34.7260 C   0  0  1  0  0  0  0  0  0  0  0  0
   37.9740   27.7430   35.4900 C   0  0  0  0  0  0  0  0  0  0  0  0
   36.4190   26.2720   34.8170 H   0  0  0  0  0  0  0  0  0  0  0  0
   39.3710   27.0370   33.9560 H   0  0  0  0  0  0  0  0  0  0  0  0
   37.7290   27.5040   36.5330 H   0  0  0  0  0  0  0  0  0  0  0  0
   38.1820   28.7890   35.2820 H   0  0  0  0  0  0  0  0  0  0  0  0
   41.3490   25.8280   33.8690 Cl  0  0  0  0  0  0  0  0  0  0  0  0
   40.3670   24.9610   35.0450 C   0  0  0  0  0  0  0  0  0  0  0  0
   39.1100   25.4190   35.3840 C   0  0  0  0  0  0  0  0  0  0  0  0
   38.3560   24.7240   36.3080 C   0  0  0  0  0  0  0  0  0  0  0  0
   37.3610   25.0830   36.5780 H   0  0  0  0  0  0  0  0  0  0  0  0
   38.8360   23.5590   36.9140 C   0  0  0  0  0  3  0  0  0  0  0  0
   40.1070   23.1530   36.5290 C   0  0  0  0  0  0  0  0  0  0  0  0
   40.7730   21.6860   37.2600 Cl  0  0  0  0  0  0  0  0  0  0  0  0
   40.8960   23.8290   35.6000 C   0  0  0  0  0  0  0  0  0  0  0  0
   41.8710   23.4320   35.3680 H   0  0  0  0  0  0  0  0  0  0  0  0
   36.8510   27.7480   33.2340 C   0  0  0  0  0  0  0  0  0  0  0  0
   37.6630   27.6650   32.0910 C   0  0  0  0  0  0  0  0  0  0  0  0
   37.2790   28.4490   31.0170 C   0  0  0  0  0  0  0  0  0  0  0  0
   36.1790   29.2330   31.1060 N   0  0  0  0  0  0  0  0  0  0  0  0
   35.4040   29.2950   32.2330 C   0  0  0  0  0  0  0  0  0  0  0  0
   35.7570   28.5340   33.3070 N   0  0  0  0  0  0  0  0  0  0  0  0
   38.5060   27.0180   32.1270 H   0  0  0  0  0  0  0  0  0  0  0  0
   37.8920   28.3890   30.1460 H   0  0  0  0  0  0  0  0  0  0  0  0
   34.5390   29.9430   32.2360 H   0  0  0  0  0  0  0  0  0  0  0  0
  1  2  1  0  0  0  0
  1  4  1  1  0  0  0
  1  3  1  0  0  0  0
  2  5  1  6  0  0  0
  2 10  1  0  0  0  0
  2  3  1  0  0  0  0
  3  6  1  0  0  0  0
  7  3  1  0  0  0  0
  8  9  1  0  0  0  0
  9 10  2  0  0  0  0
  9 16  1  0  0  0  0
 10 11  1  0  0  0  0
 11 12  1  0  0  0  0
 11 13  2  0  0  0  0
 14 13  1  0  0  0  0
 14 15  1  0  0  0  0
 16 14  2  0  0  0  0
 17 16  1  0  0  0  0
 18 23  1  0  0  0  0
 18  1  1  0  0  0  0
 19 24  1  0  0  0  0
 19 18  2  0  0  0  0
 20 21  2  0  0  0  0
 20 19  1  0  0  0  0
 21 22  1  0  0  0  0
 22 26  1  0  0  0  0
 22 23  2  0  0  0  0
 25 20  1  0  0  0  0
M  END
>  <minimizedAffinity>
-4.68011427

$$$$

 OpenBabel03272501123D

 26 28  0  0  1  0  0  0  0  0999 V2000
   35.0390   29.9060   34.0010 C   0  0  1  0  0  0  0  0  0  0  0  0
   35.7530   30.9980   34.6500 C   0  0  1  0  0  0  0  0  0  0  0  0
   35.4600   31.1180   33.1840 C   0  0  0  0  0  0  0  0  0  0  0  0
   33.9320   29.7690   34.1220 H   0  0  0  0  0  0  0  0  0  0  0  0
   36.8430   30.7860   34.8520 H   0  0  0  0  0  0  0  0  0  0  0  0
   34.6600   31.8230   32.9250 H   0  0  0  0  0  0  0  0  0  0  0  0
   36.2390   30.9920   32.4370 H   0  0  0  0  0  0  0  0  0  0  0  0
   37.1760   33.5710   34.8850 Cl  0  0  0  0  0  0  0  0  0  0  0  0
   35.7460   33.1280   35.8110 C   0  0  0  0  0  0  0  0  0  0  0  0
   35.1470   31.8980   35.6320 C   0  0  0  0  0  0  0  0  0  0  0  0
   34.0260   31.5710   36.3680 C   0  0  0  0  0  0  0  0  0  0  0  0
   33.5490   30.5990   36.2300 H   0  0  0  0  0  0  0  0  0  0  0  0
   33.4770   32.4610   37.2980 C   0  0  0  0  0  3  0  0  0  0  0  0
   34.1290   33.6800   37.4280 C   0  0  0  0  0  0  0  0  0  0  0  0
   33.4840   34.8510   38.5880 Cl  0  0  0  0  0  0  0  0  0  0  0  0
   35.2620   34.0450   36.7030 C   0  0  0  0  0  0  0  0  0  0  0  0
   35.6940   35.0160   36.8780 H   0  0  0  0  0  0  0  0  0  0  0  0
   35.7540   28.6460   33.5810 C   0  0  0  0  0  0  0  0  0  0  0  0
   36.6280   28.0540   34.5090 C   0  0  0  0  0  0  0  0  0  0  0  0
   37.2800   26.9110   34.0810 C   0  0  0  0  0  0  0  0  0  0  0  0
   37.0590   26.4270   32.8370 N   0  0  0  0  0  0  0  0  0  0  0  0
   36.2010   27.0240   31.9520 C   0  0  0  0  0  0  0  0  0  0  0  0
   35.5440   28.1510   32.3450 N   0  0  0  0  0  0  0  0  0  0  0  0
   36.7290   28.5170   35.4600 H   0  0  0  0  0  0  0  0  0  0  0  0
   37.9440   26.4570   34.7810 H   0  0  0  0  0  0  0  0  0  0  0  0
   36.0720   26.5840   30.9730 H   0  0  0  0  0  0  0  0  0  0  0  0
  1  4  1  1  0  0  0
  1  2  1  0  0  0  0
  2  5  1  1  0  0  0
  2 10  1  0  0  0  0
  3  1  1  0  0  0  0
  3  2  1  0  0  0  0
  6  3  1  0  0  0  0
  7  3  1  0  0  0  0
  8  9  1  0  0  0  0
  9 16  1  0  0  0  0
 10  9  2  0  0  0  0
 10 11  1  0  0  0  0
 11 13  2  0  0  0  0
 12 11  1  0  0  0  0
 13 14  1  0  0  0  0
 14 15  1  0  0  0  0
 16 17  1  0  0  0  0
 16 14  2  0  0  0  0
 18  1  1  0  0  0  0
 18 19  1  0  0  0  0
 19 24  1  0  0  0  0
 20 19  2  0  0  0  0
 20 25  1  0  0  0  0
 21 20  1  0  0  0  0
 22 23  1  0  0  0  0
 22 21  2  0  0  0  0
 23 18  2  0  0  0  0
 26 22  1  0  0  0  0
M  END
>  <minimizedAffinity>
-4.65228462

$$$$

 OpenBabel03272501123D

 26 28  0  0  1  0  0  0  0  0999 V2000
   39.3180   26.2770   35.1880 C   0  0  1  0  0  0  0  0  0  0  0  0
   40.1500   25.2480   34.5760 C   0  0  1  0  0  0  0  0  0  0  0  0
   40.6900   26.6460   34.6440 C   0  0  0  0  0  0  0  0  0  0  0  0
   39.2020   26.3590   36.3000 H   0  0  0  0  0  0  0  0  0  0  0  0
   39.8400   24.9610   33.5290 H   0  0  0  0  0  0  0  0  0  0  0  0
   41.4740   26.8060   35.3950 H   0  0  0  0  0  0  0  0  0  0  0  0
   40.7430   27.2780   33.7620 H   0  0  0  0  0  0  0  0  0  0  0  0
   38.2140   23.1670   35.3630 Cl  0  0  0  0  0  0  0  0  0  0  0  0
   39.9350   23.1260   35.7320 C   0  0  0  0  0  0  0  0  0  0  0  0
   40.7650   24.1490   35.3210 C   0  0  0  0  0  0  0  0  0  0  0  0
   42.1120   24.0970   35.6200 C   0  0  0  0  0  0  0  0  0  0  0  0
   42.7720   24.9040   35.2970 H   0  0  0  0  0  0  0  0  0  0  0  0
   42.6610   23.0280   36.3350 C   0  0  0  0  0  3  0  0  0  0  0  0
   41.7710   22.0330   36.7180 C   0  0  0  0  0  0  0  0  0  0  0  0
   42.4020   20.6510   37.6250 Cl  0  0  0  0  0  0  0  0  0  0  0  0
   40.4060   22.0510   36.4340 C   0  0  0  0  0  0  0  0  0  0  0  0
   39.7990   21.2300   36.7760 H   0  0  0  0  0  0  0  0  0  0  0  0
   38.1950   26.9300   34.4210 C   0  0  0  0  0  0  0  0  0  0  0  0
   37.3720   27.8330   35.1140 C   0  0  0  0  0  0  0  0  0  0  0  0
   36.3420   28.3980   34.3830 C   0  0  0  0  0  0  0  0  0  0  0  0
   36.1740   28.0700   33.0800 N   0  0  0  0  0  0  0  0  0  0  0  0
   36.9910   27.1860   32.4280 C   0  0  0  0  0  0  0  0  0  0  0  0
   38.0150   26.6150   33.1220 N   0  0  0  0  0  0  0  0  0  0  0  0
   37.5920   28.0190   36.1370 H   0  0  0  0  0  0  0  0  0  0  0  0
   35.7150   29.0840   34.9040 H   0  0  0  0  0  0  0  0  0  0  0  0
   36.8000   26.9700   31.3860 H   0  0  0  0  0  0  0  0  0  0  0  0
  1  4  1  1  0  0  0
  2  5  1  6  0  0  0
  2  3  1  0  0  0  0
  2  1  1  0  0  0  0
  2 10  1  0  0  0  0
  3  1  1  0  0  0  0
  3  6  1  0  0  0  0
  7  3  1  0  0  0  0
  8  9  1  0  0  0  0
  9 16  1  0  0  0  0
 10 11  1  0  0  0  0
 10  9  2  0  0  0  0
 11 13  2  0  0  0  0
 12 11  1  0  0  0  0
 13 14  1  0  0  0  0
 14 15  1  0  0  0  0
 16 14  2  0  0  0  0
 16 17  1  0  0  0  0
 18 19  1  0  0  0  0
 18  1  1  0  0  0  0
 19 24  1  0  0  0  0
 20 25  1  0  0  0  0
 20 19  2  0  0  0  0
 21 20  1  0  0  0  0
 22 21  2  0  0  0  0
 22 23  1  0  0  0  0
 23 18  2  0  0  0  0
 26 22  1  0  0  0  0
M  END
>  <minimizedAffinity>
-4.52109671

$$$$

 OpenBabel03272501123D

 26 28  0  0  1  0  0  0  0  0999 V2000
   39.3110   26.9880   34.7360 C   0  0  1  0  0  0  0  0  0  0  0  0
   37.8650   26.8390   34.6350 C   0  0  1  0  0  0  0  0  0  0  0  0
   38.4490   27.1780   35.9740 C   0  0  0  0  0  0  0  0  0  0  0  0
   39.8370   27.9090   34.3700 H   0  0  0  0  0  0  0  0  0  0  0  0
   37.5110   25.7680   34.5830 H   0  0  0  0  0  0  0  0  0  0  0  0
   38.2990   28.2160   36.2990 H   0  0  0  0  0  0  0  0  0  0  0  0
   38.5160   26.4400   36.7680 H   0  0  0  0  0  0  0  0  0  0  0  0
   37.8460   26.3790   31.7210 Cl  0  0  0  0  0  0  0  0  0  0  0  0
   36.9260   27.6330   32.5440 C   0  0  0  0  0  0  0  0  0  0  0  0
   36.9980   27.7730   33.9150 C   0  0  0  0  0  0  0  0  0  0  0  0
   36.2670   28.7630   34.5400 C   0  0  0  0  0  0  0  0  0  0  0  0
   36.3220   28.8770   35.6240 H   0  0  0  0  0  0  0  0  0  0  0  0
   35.4500   29.6360   33.8150 C   0  0  0  0  0  3  0  0  0  0  0  0
   35.4230   29.4410   32.4400 C   0  0  0  0  0  0  0  0  0  0  0  0
   34.4070   30.5130   31.4650 Cl  0  0  0  0  0  0  0  0  0  0  0  0
   36.1460   28.4530   31.7750 C   0  0  0  0  0  0  0  0  0  0  0  0
   36.0570   28.3840   30.7030 H   0  0  0  0  0  0  0  0  0  0  0  0
   40.2150   25.7850   34.8360 C   0  0  0  0  0  0  0  0  0  0  0  0
   41.6010   26.0040   34.7660 C   0  0  0  0  0  0  0  0  0  0  0  0
   42.3960   24.8740   34.8440 C   0  0  0  0  0  0  0  0  0  0  0  0
   41.8310   23.6520   34.9780 N   0  0  0  0  0  0  0  0  0  0  0  0
   40.4760   23.4660   35.0450 C   0  0  0  0  0  0  0  0  0  0  0  0
   39.6670   24.5600   34.9720 N   0  0  0  0  0  0  0  0  0  0  0  0
   41.9400   27.0050   34.6590 H   0  0  0  0  0  0  0  0  0  0  0  0
   43.4490   25.0340   34.7910 H   0  0  0  0  0  0  0  0  0  0  0  0
   40.0920   22.4620   35.1530 H   0  0  0  0  0  0  0  0  0  0  0  0
  1  4  1  6  0  0  0
  1 18  1  0  0  0  0
  1  3  1  0  0  0  0
  2  5  1  6  0  0  0
  2  1  1  0  0  0  0
  2  3  1  0  0  0  0
  3  6  1  0  0  0  0
  3  7  1  0  0  0  0
  8  9  1  0  0  0  0
  9 10  1  0  0  0  0
 10 11  2  0  0  0  0
 10  2  1  0  0  0  0
 11 12  1  0  0  0  0
 13 11  1  0  0  0  0
 14 13  2  0  0  0  0
 15 14  1  0  0  0  0
 16 14  1  0  0  0  0
 16  9  2  0  0  0  0
 17 16  1  0  0  0  0
 18 23  1  0  0  0  0
 19 18  2  0  0  0  0
 19 20  1  0  0  0  0
 20 21  2  0  0  0  0
 21 22  1  0  0  0  0
 22 26  1  0  0  0  0
 23 22  2  0  0  0  0
 24 19  1  0  0  0  0
 25 20  1  0  0  0  0
M  END
>  <minimizedAffinity>
-4.49461985

$$$$

 OpenBabel03272501123D

 26 28  0  0  1  0  0  0  0  0999 V2000
   35.8330   28.4820   33.9090 C   0  0  1  0  0  0  0  0  0  0  0  0
   35.5240   29.7780   34.5000 C   0  0  1  0  0  0  0  0  0  0  0  0
   35.8710   29.7300   33.0410 C   0  0  0  0  0  0  0  0  0  0  0  0
   35.0290   27.7420   33.6540 H   0  0  0  0  0  0  0  0  0  0  0  0
   36.3590   30.2150   35.1220 H   0  0  0  0  0  0  0  0  0  0  0  0
   35.0230   29.8630   32.3560 H   0  0  0  0  0  0  0  0  0  0  0  0
   36.8340   30.0750   32.6740 H   0  0  0  0  0  0  0  0  0  0  0  0
   35.5760   32.0460   36.3840 Cl  0  0  0  0  0  0  0  0  0  0  0  0
   34.1160   31.2210   35.8490 C   0  0  0  0  0  0  0  0  0  0  0  0
   34.1910   30.1670   34.9620 C   0  0  0  0  0  0  0  0  0  0  0  0
   33.0340   29.5330   34.5550 C   0  0  0  0  0  0  0  0  0  0  0  0
   33.0900   28.6980   33.8540 H   0  0  0  0  0  0  0  0  0  0  0  0
   31.7790   29.9350   35.0210 C   0  0  0  0  0  3  0  0  0  0  0  0
   31.7740   31.0020   35.9100 C   0  0  0  0  0  0  0  0  0  0  0  0
   30.2170   31.5600   36.5370 Cl  0  0  0  0  0  0  0  0  0  0  0  0
   32.9210   31.6650   36.3430 C   0  0  0  0  0  0  0  0  0  0  0  0
   32.8110   32.4830   37.0360 H   0  0  0  0  0  0  0  0  0  0  0  0
   37.1930   27.8510   34.0780 C   0  0  0  0  0  0  0  0  0  0  0  0
   37.7110   27.7600   35.3810 C   0  0  0  0  0  0  0  0  0  0  0  0
   38.9680   27.1920   35.4940 C   0  0  0  0  0  0  0  0  0  0  0  0
   39.6230   26.7640   34.3890 N   0  0  0  0  0  0  0  0  0  0  0  0
   39.0940   26.8640   33.1310 C   0  0  0  0  0  0  0  0  0  0  0  0
   37.8570   27.4180   32.9880 N   0  0  0  0  0  0  0  0  0  0  0  0
   37.1140   28.1290   36.1790 H   0  0  0  0  0  0  0  0  0  0  0  0
   39.3660   27.1210   36.4810 H   0  0  0  0  0  0  0  0  0  0  0  0
   39.6720   26.5020   32.2920 H   0  0  0  0  0  0  0  0  0  0  0  0
  1  4  1  6  0  0  0
  1 18  1  0  0  0  0
  1  2  1  0  0  0  0
  2 10  1  0  0  0  0
  2  5  1  1  0  0  0
  3  1  1  0  0  0  0
  3  2  1  0  0  0  0
  6  3  1  0  0  0  0
  7  3  1  0  0  0  0
  9 16  1  0  0  0  0
  9  8  1  0  0  0  0
 10  9  2  0  0  0  0
 11 10  1  0  0  0  0
 11 13  2  0  0  0  0
 12 11  1  0  0  0  0
 13 14  1  0  0  0  0
 14 16  2  0  0  0  0
 14 15  1  0  0  0  0
 16 17  1  0  0  0  0
 18 19  1  0  0  0  0
 19 20  2  0  0  0  0
 19 24  1  0  0  0  0
 20 25  1  0  0  0  0
 21 20  1  0  0  0  0
 22 21  2  0  0  0  0
 23 22  1  0  0  0  0
 23 18  2  0  0  0  0
 26 22  1  0  0  0  0
M  END
>  <minimizedAffinity>
-4.49015903

$$$$

 OpenBabel03272501123D

 26 28  0  0  1  0  0  0  0  0999 V2000
   36.9090   27.9340   33.2940 C   0  0  1  0  0  0  0  0  0  0  0  0
   35.8430   28.6200   34.0130 C   0  0  1  0  0  0  0  0  0  0  0  0
   36.7330   27.6920   34.7860 C   0  0  0  0  0  0  0  0  0  0  0  0
   37.8560   28.4590   33.0000 H   0  0  0  0  0  0  0  0  0  0  0  0
   34.8140   28.1840   33.8460 H   0  0  0  0  0  0  0  0  0  0  0  0
   37.4630   28.1850   35.4400 H   0  0  0  0  0  0  0  0  0  0  0  0
   36.3870   26.7150   35.1130 H   0  0  0  0  0  0  0  0  0  0  0  0
   35.1450   30.2030   31.6240 Cl  0  0  0  0  0  0  0  0  0  0  0  0
   35.5110   30.8830   33.2050 C   0  0  0  0  0  0  0  0  0  0  0  0
   35.8270   30.0610   34.2670 C   0  0  0  0  0  0  0  0  0  0  0  0
   36.1110   30.6150   35.4990 C   0  0  0  0  0  0  0  0  0  0  0  0
   36.3620   29.9680   36.3410 H   0  0  0  0  0  0  0  0  0  0  0  0
   36.0860   31.9990   35.7010 C   0  0  0  0  0  3  0  0  0  0  0  0
   35.7600   32.7680   34.5910 C   0  0  0  0  0  0  0  0  0  0  0  0
   35.7100   34.5270   34.7800 Cl  0  0  0  0  0  0  0  0  0  0  0  0
   35.4680   32.2440   33.3330 C   0  0  0  0  0  0  0  0  0  0  0  0
   35.2270   32.9270   32.5350 H   0  0  0  0  0  0  0  0  0  0  0  0
   36.6280   26.7030   32.4690 C   0  0  0  0  0  0  0  0  0  0  0  0
   35.5420   26.7500   31.5790 C   0  0  0  0  0  0  0  0  0  0  0  0
   35.3050   25.5960   30.8530 C   0  0  0  0  0  0  0  0  0  0  0  0
   36.0950   24.5100   31.0230 N   0  0  0  0  0  0  0  0  0  0  0  0
   37.1470   24.4910   31.8990 C   0  0  0  0  0  0  0  0  0  0  0  0
   37.4070   25.6140   32.6270 N   0  0  0  0  0  0  0  0  0  0  0  0
   34.9850   27.6530   31.5230 H   0  0  0  0  0  0  0  0  0  0  0  0
   34.4820   25.6260   30.1750 H   0  0  0  0  0  0  0  0  0  0  0  0
   37.7380   23.5900   31.9850 H   0  0  0  0  0  0  0  0  0  0  0  0
  1  4  1  6  0  0  0
  1  2  1  0  0  0  0
  1  3  1  0  0  0  0
  2  5  1  6  0  0  0
  2 10  1  0  0  0  0
  2  3  1  0  0  0  0
  3  7  1  0  0  0  0
  3  6  1  0  0  0  0
  8  9  1  0  0  0  0
  9 16  2  0  0  0  0
  9 10  1  0  0  0  0
 10 11  2  0  0  0  0
 11 13  1  0  0  0  0
 11 12  1  0  0  0  0
 14 15  1  0  0  0  0
 14 13  2  0  0  0  0
 16 14  1  0  0  0  0
 17 16  1  0  0  0  0
 18 23  1  0  0  0  0
 18  1  1  0  0  0  0
 19 18  2  0  0  0  0
 20 21  2  0  0  0  0
 20 19  1  0  0  0  0
 21 22  1  0  0  0  0
 22 26  1  0  0  0  0
 22 23  2  0  0  0  0
 24 19  1  0  0  0  0
 25 20  1  0  0  0  0
M  END
>  <minimizedAffinity>
-4.47174311

$$$$

 OpenBabel03272501123D

 26 28  0  0  1  0  0  0  0  0999 V2000
   38.5730   25.2080   33.7290 C   0  0  1  0  0  0  0  0  0  0  0  0
   38.2510   24.2280   34.7590 C   0  0  1  0  0  0  0  0  0  0  0  0
   37.8070   23.9490   33.3530 C   0  0  0  0  0  0  0  0  0  0  0  0
   39.6040   25.2920   33.2950 H   0  0  0  0  0  0  0  0  0  0  0  0
   37.3900   24.5220   35.4270 H   0  0  0  0  0  0  0  0  0  0  0  0
   38.3830   23.1770   32.8270 H   0  0  0  0  0  0  0  0  0  0  0  0
   36.7660   24.0460   33.0560 H   0  0  0  0  0  0  0  0  0  0  0  0
   38.0080   24.2860   37.6980 Cl  0  0  0  0  0  0  0  0  0  0  0  0
   39.2130   23.3590   36.8090 C   0  0  0  0  0  0  0  0  0  0  0  0
   39.2490   23.3940   35.4300 C   0  0  0  0  0  0  0  0  0  0  0  0
   40.2020   22.6600   34.7530 C   0  0  0  0  0  0  0  0  0  0  0  0
   40.2340   22.6850   33.6630 H   0  0  0  0  0  0  0  0  0  0  0  0
   41.1380   21.8750   35.4330 C   0  0  0  0  0  3  0  0  0  0  0  0
   41.0460   21.8840   36.8190 C   0  0  0  0  0  0  0  0  0  0  0  0
   42.2030   20.9110   37.7390 Cl  0  0  0  0  0  0  0  0  0  0  0  0
   40.0980   22.6130   37.5360 C   0  0  0  0  0  0  0  0  0  0  0  0
   40.1110   22.5530   38.6120 H   0  0  0  0  0  0  0  0  0  0  0  0
   37.7500   26.4610   33.5590 C   0  0  0  0  0  0  0  0  0  0  0  0
   37.1920   27.0340   34.7140 C   0  0  0  0  0  0  0  0  0  0  0  0
   36.4280   28.1710   34.5160 C   0  0  0  0  0  0  0  0  0  0  0  0
   36.2550   28.6660   33.2680 N   0  0  0  0  0  0  0  0  0  0  0  0
   36.8110   28.0870   32.1590 C   0  0  0  0  0  0  0  0  0  0  0  0
   37.5690   26.9660   32.3220 N   0  0  0  0  0  0  0  0  0  0  0  0
   37.3890   26.5640   35.6460 H   0  0  0  0  0  0  0  0  0  0  0  0
   36.0020   28.6110   35.3890 H   0  0  0  0  0  0  0  0  0  0  0  0
   36.6320   28.5350   31.1910 H   0  0  0  0  0  0  0  0  0  0  0  0
  1  4  1  6  0  0  0
  1  2  1  0  0  0  0
  2  5  1  1  0  0  0
  2 10  1  0  0  0  0
  3  1  1  0  0  0  0
  3  2  1  0  0  0  0
  6  3  1  0  0  0  0
  7  3  1  0  0  0  0
  9 16  1  0  0  0  0
  9  8  1  0  0  0  0
 10  9  2  0  0  0  0
 11 10  1  0  0  0  0
 11 13  2  0  0  0  0
 12 11  1  0  0  0  0
 13 14  1  0  0  0  0
 14 16  2  0  0  0  0
 14 15  1  0  0  0  0
 16 17  1  0  0  0  0
 18  1  1  0  0  0  0
 18 19  1  0  0  0  0
 19 24  1  0  0  0  0
 20 19  2  0  0  0  0
 20 25  1  0  0  0  0
 21 20  1  0  0  0  0
 22 23  1  0  0  0  0
 22 21  2  0  0  0  0
 23 18  2  0  0  0  0
 26 22  1  0  0  0  0
M  END
>  <minimizedAffinity>
-4.46036816

$$$$

 OpenBabel03272501123D

 26 28  0  0  1  0  0  0  0  0999 V2000
   35.5790   30.8930   33.8710 C   0  0  1  0  0  0  0  0  0  0  0  0
   35.1870   29.8000   32.9900 C   0  0  1  0  0  0  0  0  0  0  0  0
   34.7960   31.1960   32.6030 C   0  0  0  0  0  0  0  0  0  0  0  0
   36.6290   31.2860   33.8940 H   0  0  0  0  0  0  0  0  0  0  0  0
   34.3070   29.1980   33.3600 H   0  0  0  0  0  0  0  0  0  0  0  0
   35.3730   31.6290   31.7760 H   0  0  0  0  0  0  0  0  0  0  0  0
   33.7720   31.5460   32.6990 H   0  0  0  0  0  0  0  0  0  0  0  0
   36.6220   27.7690   34.5760 Cl  0  0  0  0  0  0  0  0  0  0  0  0
   36.8510   28.0400   32.8520 C   0  0  0  0  0  0  0  0  0  0  0  0
   36.1320   29.0170   32.1930 C   0  0  0  0  0  0  0  0  0  0  0  0
   36.3270   29.2140   30.8410 C   0  0  0  0  0  0  0  0  0  0  0  0
   35.7610   29.9850   30.3170 H   0  0  0  0  0  0  0  0  0  0  0  0
   37.2420   28.4430   30.1150 C   0  0  0  0  0  3  0  0  0  0  0  0
   37.9310   27.4780   30.8380 C   0  0  0  0  0  0  0  0  0  0  0  0
   39.1020   26.4690   29.9780 Cl  0  0  0  0  0  0  0  0  0  0  0  0
   37.7600   27.2510   32.2030 C   0  0  0  0  0  0  0  0  0  0  0  0
   38.3450   26.4770   32.6720 H   0  0  0  0  0  0  0  0  0  0  0  0
   34.7980   31.2040   35.1240 C   0  0  0  0  0  0  0  0  0  0  0  0
   35.3650   32.1090   36.0360 C   0  0  0  0  0  0  0  0  0  0  0  0
   34.6280   32.3550   37.1820 C   0  0  0  0  0  0  0  0  0  0  0  0
   33.4380   31.7390   37.3700 N   0  0  0  0  0  0  0  0  0  0  0  0
   32.9070   30.8610   36.4630 C   0  0  0  0  0  0  0  0  0  0  0  0
   33.6100   30.5990   35.3250 N   0  0  0  0  0  0  0  0  0  0  0  0
   36.3070   32.5360   35.7920 H   0  0  0  0  0  0  0  0  0  0  0  0
   35.0540   33.0410   37.8780 H   0  0  0  0  0  0  0  0  0  0  0  0
   31.9510   30.4040   36.6770 H   0  0  0  0  0  0  0  0  0  0  0  0
  1  4  1  1  0  0  0
  1 18  1  0  0  0  0
  2  5  1  1  0  0  0
  2  1  1  0  0  0  0
  3  7  1  0  0  0  0
  3  2  1  0  0  0  0
  3  1  1  0  0  0  0
  6  3  1  0  0  0  0
  9  8  1  0  0  0  0
 10  9  2  0  0  0  0
 10  2  1  0  0  0  0
 11 10  1  0  0  0  0
 12 11  1  0  0  0  0
 13 14  1  0  0  0  0
 13 11  2  0  0  0  0
 14 16  2  0  0  0  0
 15 14  1  0  0  0  0
 16 17  1  0  0  0  0
 16  9  1  0  0  0  0
 18 23  2  0  0  0  0
 18 19  1  0  0  0  0
 19 20  2  0  0  0  0
 20 21  1  0  0  0  0
 20 25  1  0  0  0  0
 22 26  1  0  0  0  0
 22 21  2  0  0  0  0
 23 22  1  0  0  0  0
 24 19  1  0  0  0  0
M  END
>  <minimizedAffinity>
-4.42092562

$$$$
