
 OpenBabel03272508253D

 26 28  0  0  1  0  0  0  0  0999 V2000
   35.9770   30.3570   49.2870 C   0  0  1  0  0  0  0  0  0  0  0  0
   35.8270   29.0640   48.6320 C   0  0  1  0  0  0  0  0  0  0  0  0
   36.4860   29.1020   49.9790 C   0  0  0  0  0  0  0  0  0  0  0  0
   35.1150   30.8690   49.7890 H   0  0  0  0  0  0  0  0  0  0  0  0
   36.5680   28.8750   47.8010 H   0  0  0  0  0  0  0  0  0  0  0  0
   35.8710   28.7310   50.8090 H   0  0  0  0  0  0  0  0  0  0  0  0
   37.5590   28.9730   50.0910 H   0  0  0  0  0  0  0  0  0  0  0  0
   33.8220   29.7720   50.6760 Cl  0  0  0  0  0  0  0  0  0  0  0  0
   33.5370   28.6720   49.3310 C   0  0  0  0  0  0  0  0  0  0  0  0
   34.5400   28.4000   48.4230 C   0  0  0  0  0  0  0  0  0  0  0  0
   34.2960   27.5340   47.3760 C   0  0  0  0  0  0  0  0  0  0  0  0
   35.0870   27.3180   46.6560 H   0  0  0  0  0  0  0  0  0  0  0  0
   33.0500   26.9200   47.2120 C   0  0  0  0  0  3  0  0  0  0  0  0
   32.0870   27.2370   48.1600 C   0  0  0  0  0  0  0  0  0  0  0  0
   30.4890   26.4930   48.0080 Cl  0  0  0  0  0  0  0  0  0  0  0  0
   32.2970   28.1060   49.2300 C   0  0  0  0  0  0  0  0  0  0  0  0
   31.4840   28.2860   49.9120 H   0  0  0  0  0  0  0  0  0  0  0  0
   37.0900   31.3010   48.9050 C   0  0  0  0  0  0  0  0  0  0  0  0
   37.2760   32.4440   49.7000 C   0  0  0  0  0  0  0  0  0  0  0  0
   38.2940   33.2950   49.3080 C   0  0  0  0  0  0  0  0  0  0  0  0
   39.0410   33.0050   48.2170 N   0  0  0  0  0  0  0  0  0  0  0  0
   38.8390   31.8840   47.4590 C   0  0  0  0  0  0  0  0  0  0  0  0
   37.8440   31.0260   47.8210 N   0  0  0  0  0  0  0  0  0  0  0  0
   36.6330   32.5770   50.5360 H   0  0  0  0  0  0  0  0  0  0  0  0
   38.4400   34.1640   49.9090 H   0  0  0  0  0  0  0  0  0  0  0  0
   39.4720   31.7130   46.6000 H   0  0  0  0  0  0  0  0  0  0  0  0
  1  4  1  1  0  0  0
  1  3  1  0  0  0  0
  2  5  1  6  0  0  0
  2  1  1  0  0  0  0
  2  3  1  0  0  0  0
  3  7  1  0  0  0  0
  3  6  1  0  0  0  0
  9  8  1  0  0  0  0
 10  2  1  0  0  0  0
 10  9  2  0  0  0  0
 11 10  1  0  0  0  0
 12 11  1  0  0  0  0
 13 11  2  0  0  0  0
 13 14  1  0  0  0  0
 14 16  2  0  0  0  0
 15 14  1  0  0  0  0
 16  9  1  0  0  0  0
 16 17  1  0  0  0  0
 18  1  1  0  0  0  0
 18 19  1  0  0  0  0
 19 24  1  0  0  0  0
 20 19  2  0  0  0  0
 20 25  1  0  0  0  0
 21 20  1  0  0  0  0
 22 23  1  0  0  0  0
 22 21  2  0  0  0  0
 23 18  2  0  0  0  0
 26 22  1  0  0  0  0
M  END
>  <minimizedAffinity>
-5.36957169

>  <minimizedRMSD>
1.37919271

$$$$
