
 OpenBabel03262523403D

 33 35  0  0  1  0  0  0  0  0999 V2000
   37.5410   28.1640   51.2460 C   0  0  0  0  0  0  0  0  0  0  0  0
   38.0350   28.9010   50.1670 C   0  0  0  0  0  0  0  0  0  0  0  0
   37.1900   29.7700   49.4730 C   0  0  0  0  0  0  0  0  0  0  0  0
   35.8950   29.8550   49.8980 N   0  0  0  0  0  0  0  0  0  0  0  0
   35.4260   29.1370   50.9460 C   0  0  0  0  0  0  0  0  0  0  0  0
   36.2550   28.2920   51.6140 N   0  0  0  0  0  0  0  0  0  0  0  0
   37.6640   30.5300   48.3750 N   0  0  0  0  0  0  0  0  0  0  0  0
   37.2770   30.0980   47.0680 C   0  0  0  0  0  0  0  0  0  0  0  0
   37.7060   30.9770   45.9550 C   0  0  0  0  0  0  0  0  0  0  0  0
   38.4350   32.1070   46.2690 N   0  0  0  0  0  0  0  0  0  0  0  0
   39.1950   32.2140   47.4390 C   0  0  0  0  0  0  0  0  0  0  0  0
   38.4970   31.6760   48.6540 C   0  0  1  0  0  0  0  0  0  0  0  0
   38.2500   27.5170   51.7300 H   0  0  0  0  0  0  0  0  0  0  0  0
   39.0630   28.8300   49.8340 H   0  0  0  0  0  0  0  0  0  0  0  0
   34.3750   29.2480   51.2390 H   0  0  0  0  0  0  0  0  0  0  0  0
   36.1610   29.9310   47.0930 H   0  0  0  0  0  0  0  0  0  0  0  0
   37.6920   29.0630   46.9580 H   0  0  0  0  0  0  0  0  0  0  0  0
   38.2700   30.3540   45.2000 H   0  0  0  0  0  0  0  0  0  0  0  0
   36.7830   31.2700   45.3800 H   0  0  0  0  0  0  0  0  0  0  0  0
   38.4700   32.8230   45.5580 H   0  0  0  0  0  0  0  0  0  0  0  0
   39.4190   33.2880   47.6380 H   0  0  0  0  0  0  0  0  0  0  0  0
   40.2080   31.7240   47.3580 H   0  0  0  0  0  0  0  0  0  0  0  0
   39.2770   31.3180   49.3800 H   0  0  0  0  0  0  0  0  0  0  0  0
   39.8100   34.4300   48.6370 Cl  0  0  0  0  0  0  0  0  0  0  0  0
   38.2310   34.0950   49.3620 C   0  0  0  0  0  0  0  0  0  0  0  0
   37.7470   32.7900   49.3000 C   0  0  0  0  0  0  0  0  0  0  0  0
   36.5290   32.4500   49.8410 C   0  0  0  0  0  0  0  0  0  0  0  0
   36.1220   31.4470   49.8100 H   0  0  0  0  0  0  0  0  0  0  0  0
   35.7630   33.4040   50.4560 C   0  0  0  0  0  3  0  0  0  0  0  0
   36.2350   34.7000   50.5230 C   0  0  0  0  0  0  0  0  0  0  0  0
   35.2530   35.9200   51.3130 Cl  0  0  0  0  0  0  0  0  0  0  0  0
   37.4700   35.0670   49.9800 C   0  0  0  0  0  0  0  0  0  0  0  0
   37.8540   36.0850   50.0260 H   0  0  0  0  0  0  0  0  0  0  0  0
  1  6  1  0  0  0  0
  1 13  1  0  0  0  0
  2  1  2  0  0  0  0
  3  4  2  0  0  0  0
  3  2  1  0  0  0  0
  4  5  1  0  0  0  0
  5 15  1  0  0  0  0
  5  6  2  0  0  0  0
  7 12  1  0  0  0  0
  7  3  1  0  0  0  0
  8 16  1  0  0  0  0
  8  7  1  0  0  0  0
  9 10  1  0  0  0  0
  9  8  1  0  0  0  0
 10 11  1  0  0  0  0
 11 21  1  0  0  0  0
 11 12  1  0  0  0  0
 12 26  1  0  0  0  0
 12 23  1  1  0  0  0
 14  2  1  0  0  0  0
 17  8  1  0  0  0  0
 18  9  1  0  0  0  0
 19  9  1  0  0  0  0
 20 10  1  0  0  0  0
 22 11  1  0  0  0  0
 24 25  1  0  0  0  0
 25 32  1  0  0  0  0
 26 25  2  0  0  0  0
 26 27  1  0  0  0  0
 27 29  2  0  0  0  0
 28 27  1  0  0  0  0
 29 30  1  0  0  0  0
 30 31  1  0  0  0  0
 32 33  1  0  0  0  0
 32 30  2  0  0  0  0
M  END
>  <minimizedAffinity>
4.34053373

>  <minimizedRMSD>
1.98885226

$$$$
