
 OpenBabel03272506273D

 43 46  0  0  0  0  0  0  0  0999 V2000
   28.3360   28.6960   44.1560 C   0  0  0  0  0  0  0  0  0  0  0  0
   27.2470   28.0230   43.6340 C   0  0  0  0  0  0  0  0  0  0  0  0
   27.0390   27.8080   42.2750 C   0  0  0  0  0  0  0  0  0  0  0  0
   27.9990   28.3080   41.3700 C   0  0  0  0  0  0  0  0  0  0  0  0
   29.0750   28.9750   41.9150 C   0  0  0  0  0  0  0  0  0  0  0  0
   29.2680   29.1800   43.2480 C   0  0  0  0  0  0  0  0  0  0  0  0
   26.4740   27.6170   44.3070 H   0  0  0  0  0  0  0  0  0  0  0  0
   26.1330   27.2560   41.9700 H   0  0  0  0  0  0  0  0  0  0  0  0
   27.7410   28.0870   40.3510 H   0  0  0  0  0  0  0  0  0  0  0  0
   29.6630   29.2730   41.0840 H   0  0  0  0  0  0  0  0  0  0  0  0
   28.9410   27.7490   46.3020 C   0  0  0  0  0  0  0  0  0  0  0  0
   28.3820   28.8240   45.5910 C   0  0  0  0  0  0  0  0  0  0  0  0
   27.9190   29.9260   46.3200 C   0  0  0  0  0  0  0  0  0  0  0  0
   28.0270   29.9110   47.6740 N   0  0  0  0  0  0  0  0  0  0  0  0
   28.5740   28.8540   48.3410 C   0  0  0  0  0  0  0  0  0  0  0  0
   29.0280   27.7750   47.6490 N   0  0  0  0  0  0  0  0  0  0  0  0
   29.3070   26.8850   45.7640 H   0  0  0  0  0  0  0  0  0  0  0  0
   28.5930   28.9840   49.4150 H   0  0  0  0  0  0  0  0  0  0  0  0
   27.3010   31.1310   45.7030 C   0  0  0  0  0  0  0  0  0  0  0  0
   26.6960   31.9140   46.7060 F   0  0  0  0  0  0  0  0  0  0  0  0
   28.1260   31.9170   44.9860 F   0  0  0  0  0  0  0  0  0  0  0  0
   26.2240   30.7460   44.8960 F   0  0  0  0  0  0  0  0  0  0  0  0
   30.6480   30.0290   43.9230 S   0  0  0  0  0  0  0  0  0  0  0  0
   32.3790   31.0790   46.2850 Cl  0  0  0  0  0  0  0  0  0  0  0  0
   32.6280   29.4700   45.6410 C   0  0  0  0  0  0  0  0  0  0  0  0
   31.8970   28.9560   44.5760 C   0  0  0  0  0  0  0  0  0  0  0  0
   32.1460   27.7000   44.1050 C   0  0  0  0  0  0  0  0  0  0  0  0
   33.1350   26.9460   44.7060 C   0  0  0  0  0  0  0  0  0  0  0  0
   33.8750   27.4510   45.7760 C   0  0  0  0  0  0  0  0  0  0  0  0
   33.6280   28.7300   46.2600 C   0  0  0  0  0  0  0  0  0  0  0  0
   31.6720   27.2350   43.2810 H   0  0  0  0  0  0  0  0  0  0  0  0
   33.3840   25.9440   44.3860 H   0  0  0  0  0  0  0  0  0  0  0  0
   34.6500   26.8430   46.2380 H   0  0  0  0  0  0  0  0  0  0  0  0
   32.7630   28.1220   49.1170 Cl  0  0  0  0  0  0  0  0  0  0  0  0
   34.1490   29.0860   48.7340 C   0  0  0  0  0  0  0  0  0  0  0  0
   34.4080   29.2690   47.3890 C   0  0  0  0  0  0  0  0  0  0  0  0
   35.5000   30.0290   46.9520 C   0  0  0  0  0  0  0  0  0  0  0  0
   35.7540   30.2080   45.9240 H   0  0  0  0  0  0  0  0  0  0  0  0
   36.3210   30.5960   47.9020 C   0  0  0  0  0  0  0  0  0  0  0  0
   36.0930   30.4350   49.2540 C   0  0  0  0  0  0  0  0  0  0  0  0
   37.1440   31.1630   50.4530 Cl  0  0  0  0  0  0  0  0  0  0  0  0
   35.0040   29.6770   49.6430 C   0  0  0  0  0  0  0  0  0  0  0  0
   34.7820   29.5210   50.6870 H   0  0  0  0  0  0  0  0  0  0  0  0
  1 12  1  0  0  0  0
  2  1  1  0  0  0  0
  2  7  1  0  0  0  0
  3  2  2  0  0  0  0
  4  5  2  0  0  0  0
  4  3  1  0  0  0  0
  5  6  1  0  0  0  0
  6 23  1  0  0  0  0
  6  1  2  0  0  0  0
  8  3  1  0  0  0  0
  9  4  1  0  0  0  0
 10  5  1  0  0  0  0
 11 16  1  0  0  0  0
 12 11  2  0  0  0  0
 12 13  1  0  0  0  0
 13 14  2  0  0  0  0
 14 15  1  0  0  0  0
 15 18  1  0  0  0  0
 16 15  2  0  0  0  0
 17 11  1  0  0  0  0
 19 13  1  0  0  0  0
 19 20  1  0  0  0  0
 21 19  1  0  0  0  0
 22 19  1  0  0  0  0
 23 26  1  0  0  0  0
 25 30  1  0  0  0  0
 25 24  1  0  0  0  0
 26 25  2  0  0  0  0
 27 26  1  0  0  0  0
 27 28  2  0  0  0  0
 28 29  1  0  0  0  0
 29 33  1  0  0  0  0
 29 30  2  0  0  0  0
 30 36  1  0  0  0  0
 31 27  1  0  0  0  0
 32 28  1  0  0  0  0
 35 34  1  0  0  0  0
 35 42  1  0  0  0  0
 36 35  2  0  0  0  0
 37 36  1  0  0  0  0
 37 39  2  0  0  0  0
 38 37  1  0  0  0  0
 39 40  1  0  0  0  0
 40 42  2  0  0  0  0
 40 41  1  0  0  0  0
 42 43  1  0  0  0  0
M  END
>  <minimizedAffinity>
-5.35809994

>  <minimizedRMSD>
6.0656786

$$$$
