
 OpenBabel03272505013D

 29 31  0  0  0  0  0  0  0  0999 V2000
   36.6290   27.7230   34.0770 Cl  0  0  0  0  0  0  0  0  0  0  0  0
   36.5520   28.6890   32.6280 C   0  0  0  0  0  0  0  0  0  0  0  0
   37.1920   28.2500   31.5170 C   0  0  0  0  0  0  0  0  0  0  0  0
   37.0860   29.0770   30.3960 C   0  0  0  0  0  0  0  0  0  0  0  0
   36.3710   30.2630   30.4360 C   0  0  0  0  0  0  0  0  0  0  0  0
   35.7380   30.6590   31.6010 C   0  0  0  0  0  0  0  0  0  0  0  0
   35.8380   29.8400   32.7260 C   0  0  0  0  0  0  0  0  0  0  0  0
   37.5790   28.7750   29.4780 H   0  0  0  0  0  0  0  0  0  0  0  0
   36.3350   30.8470   29.5280 H   0  0  0  0  0  0  0  0  0  0  0  0
   35.1850   31.5920   31.6050 H   0  0  0  0  0  0  0  0  0  0  0  0
   33.0110   29.0500   32.8630 Cl  0  0  0  0  0  0  0  0  0  0  0  0
   33.8170   30.0250   34.0620 C   0  0  0  0  0  0  0  0  0  0  0  0
   35.1490   30.3310   33.8890 C   0  0  0  0  0  0  0  0  0  0  0  0
   35.7910   31.1100   34.8470 C   0  0  0  0  0  0  0  0  0  0  0  0
   36.8550   31.3610   34.7210 H   0  0  0  0  0  0  0  0  0  0  0  0
   35.0730   31.5600   35.9580 C   0  0  0  0  0  3  0  0  0  0  0  0
   33.7210   31.2260   36.0970 C   0  0  0  0  0  0  0  0  0  0  0  0
   32.8560   31.8150   37.5110 Cl  0  0  0  0  0  0  0  0  0  0  0  0
   33.0800   30.4600   35.1580 C   0  0  0  0  0  0  0  0  0  0  0  0
   32.0290   30.2160   35.2910 H   0  0  0  0  0  0  0  0  0  0  0  0
   37.3550   25.8080   31.0480 C   0  0  0  0  0  0  0  0  0  0  0  0
   37.9550   27.0130   31.4270 C   0  0  0  0  0  0  0  0  0  0  0  0
   39.3260   26.9870   31.7200 C   0  0  0  0  0  0  0  0  0  0  0  0
   39.9860   25.8010   31.6190 N   0  0  0  0  0  0  0  0  0  0  0  0
   39.3830   24.6650   31.2530 C   0  0  0  0  0  0  0  0  0  0  0  0
   38.0660   24.6700   30.9670 N   0  0  0  0  0  0  0  0  0  0  0  0
   36.2870   25.8840   30.8310 H   0  0  0  0  0  0  0  0  0  0  0  0
   39.8430   27.8670   32.0140 H   0  0  0  0  0  0  0  0  0  0  0  0
   39.8970   23.7160   31.1690 H   0  0  0  0  0  0  0  0  0  0  0  0
  2  7  1  0  0  0  0
  2  1  1  0  0  0  0
  3  2  2  0  0  0  0
  4  5  2  0  0  0  0
  4  3  1  0  0  0  0
  5  6  1  0  0  0  0
  6 10  1  0  0  0  0
  6  7  2  0  0  0  0
  7 13  1  0  0  0  0
  8  4  1  0  0  0  0
  9  5  1  0  0  0  0
 11 12  1  0  0  0  0
 12 19  1  0  0  0  0
 13 12  2  0  0  0  0
 13 14  1  0  0  0  0
 14 16  2  0  0  0  0
 15 14  1  0  0  0  0
 16 17  1  0  0  0  0
 17 18  1  0  0  0  0
 19 20  1  0  0  0  0
 19 17  2  0  0  0  0
 21 22  1  0  0  0  0
 22  3  1  0  0  0  0
 22 23  2  0  0  0  0
 23 28  1  0  0  0  0
 24 23  1  0  0  0  0
 25 24  2  0  0  0  0
 26 21  2  0  0  0  0
 26 25  1  0  0  0  0
 27 21  1  0  0  0  0
 29 25  1  0  0  0  0
M  END
>  <minimizedAffinity>
-5.10211515

$$$$

 OpenBabel03272505013D

 29 31  0  0  0  0  0  0  0  0999 V2000
   36.5560   27.9700   34.5450 Cl  0  0  0  0  0  0  0  0  0  0  0  0
   36.2770   28.9110   33.1040 C   0  0  0  0  0  0  0  0  0  0  0  0
   35.5810   30.0700   33.2070 C   0  0  0  0  0  0  0  0  0  0  0  0
   35.3980   30.7680   32.0110 C   0  0  0  0  0  0  0  0  0  0  0  0
   35.8990   30.2920   30.8100 C   0  0  0  0  0  0  0  0  0  0  0  0
   36.6020   29.1010   30.7690 C   0  0  0  0  0  0  0  0  0  0  0  0
   36.7910   28.3960   31.9570 C   0  0  0  0  0  0  0  0  0  0  0  0
   34.8470   31.7030   32.0330 H   0  0  0  0  0  0  0  0  0  0  0  0
   35.7150   30.8890   29.9290 H   0  0  0  0  0  0  0  0  0  0  0  0
   36.9830   28.7520   29.8150 H   0  0  0  0  0  0  0  0  0  0  0  0
   35.1490   26.0910   31.1700 Cl  0  0  0  0  0  0  0  0  0  0  0  0
   36.8670   26.0220   31.4520 C   0  0  0  0  0  0  0  0  0  0  0  0
   37.5320   27.1710   31.8180 C   0  0  0  0  0  0  0  0  0  0  0  0
   38.9030   27.1140   32.0420 C   0  0  0  0  0  0  0  0  0  0  0  0
   39.4460   28.0260   32.3340 H   0  0  0  0  0  0  0  0  0  0  0  0
   39.5730   25.8970   31.8920 C   0  0  0  0  0  3  0  0  0  0  0  0
   38.8620   24.7520   31.5180 C   0  0  0  0  0  0  0  0  0  0  0  0
   39.7450   23.2400   31.3400 Cl  0  0  0  0  0  0  0  0  0  0  0  0
   37.5090   24.7980   31.2950 C   0  0  0  0  0  0  0  0  0  0  0  0
   36.9820   23.8920   31.0060 H   0  0  0  0  0  0  0  0  0  0  0  0
   35.8020   31.4100   35.2960 C   0  0  0  0  0  0  0  0  0  0  0  0
   35.0360   30.6080   34.4450 C   0  0  0  0  0  0  0  0  0  0  0  0
   33.7130   30.3390   34.8280 C   0  0  0  0  0  0  0  0  0  0  0  0
   33.2600   30.8700   35.9970 N   0  0  0  0  0  0  0  0  0  0  0  0
   34.0190   31.6340   36.7890 C   0  0  0  0  0  0  0  0  0  0  0  0
   35.2910   31.9040   36.4370 N   0  0  0  0  0  0  0  0  0  0  0  0
   36.8230   31.5890   34.9490 H   0  0  0  0  0  0  0  0  0  0  0  0
   33.0780   29.7370   34.2280 H   0  0  0  0  0  0  0  0  0  0  0  0
   33.6690   32.0620   37.7200 H   0  0  0  0  0  0  0  0  0  0  0  0
  2  3  1  0  0  0  0
  2  1  1  0  0  0  0
  3 22  1  0  0  0  0
  4  8  1  0  0  0  0
  4  3  2  0  0  0  0
  5  4  1  0  0  0  0
  6  5  2  0  0  0  0
  6  7  1  0  0  0  0
  7  2  2  0  0  0  0
  9  5  1  0  0  0  0
 10  6  1  0  0  0  0
 11 12  1  0  0  0  0
 12 13  1  0  0  0  0
 13  7  1  0  0  0  0
 13 14  2  0  0  0  0
 14 15  1  0  0  0  0
 16 14  1  0  0  0  0
 17 16  2  0  0  0  0
 18 17  1  0  0  0  0
 19 12  2  0  0  0  0
 19 17  1  0  0  0  0
 20 19  1  0  0  0  0
 21 26  1  0  0  0  0
 22 23  1  0  0  0  0
 22 21  2  0  0  0  0
 23 24  2  0  0  0  0
 24 25  1  0  0  0  0
 25 29  1  0  0  0  0
 26 25  2  0  0  0  0
 27 21  1  0  0  0  0
 28 23  1  0  0  0  0
M  END
>  <minimizedAffinity>
-5.05970526

$$$$

 OpenBabel03272505013D

 29 31  0  0  0  0  0  0  0  0999 V2000
   36.4020   30.6990   31.8330 Cl  0  0  0  0  0  0  0  0  0  0  0  0
   36.6820   29.1560   32.5950 C   0  0  0  0  0  0  0  0  0  0  0  0
   37.3810   28.2120   31.9180 C   0  0  0  0  0  0  0  0  0  0  0  0
   37.5640   27.0030   32.5930 C   0  0  0  0  0  0  0  0  0  0  0  0
   37.0570   26.7990   33.8660 C   0  0  0  0  0  0  0  0  0  0  0  0
   36.3500   27.8020   34.5060 C   0  0  0  0  0  0  0  0  0  0  0  0
   36.1620   29.0140   33.8410 C   0  0  0  0  0  0  0  0  0  0  0  0
   38.1170   26.2100   32.0990 H   0  0  0  0  0  0  0  0  0  0  0  0
   37.2410   25.8370   34.3210 H   0  0  0  0  0  0  0  0  0  0  0  0
   35.9640   27.6160   35.5020 H   0  0  0  0  0  0  0  0  0  0  0  0
   33.3110   29.1290   33.1390 Cl  0  0  0  0  0  0  0  0  0  0  0  0
   34.0680   30.1410   34.3380 C   0  0  0  0  0  0  0  0  0  0  0  0
   35.4160   29.9950   34.5820 C   0  0  0  0  0  0  0  0  0  0  0  0
   36.0190   30.8040   35.5400 C   0  0  0  0  0  0  0  0  0  0  0  0
   37.0950   30.6970   35.7440 H   0  0  0  0  0  0  0  0  0  0  0  0
   35.2460   31.7420   36.2300 C   0  0  0  0  0  3  0  0  0  0  0  0
   33.8790   31.8580   35.9540 C   0  0  0  0  0  0  0  0  0  0  0  0
   32.9450   33.0520   36.8470 Cl  0  0  0  0  0  0  0  0  0  0  0  0
   33.2770   31.0650   35.0110 C   0  0  0  0  0  0  0  0  0  0  0  0
   32.2130   31.1780   34.8170 H   0  0  0  0  0  0  0  0  0  0  0  0
   39.2910   28.1840   30.3190 C   0  0  0  0  0  0  0  0  0  0  0  0
   37.9320   28.3800   30.5810 C   0  0  0  0  0  0  0  0  0  0  0  0
   37.1120   28.7470   29.5030 C   0  0  0  0  0  0  0  0  0  0  0  0
   37.6860   28.8890   28.2770 N   0  0  0  0  0  0  0  0  0  0  0  0
   38.9900   28.6940   28.0580 C   0  0  0  0  0  0  0  0  0  0  0  0
   39.7920   28.3410   29.0810 N   0  0  0  0  0  0  0  0  0  0  0  0
   39.8830   27.9000   31.1930 H   0  0  0  0  0  0  0  0  0  0  0  0
   36.0720   28.9110   29.6340 H   0  0  0  0  0  0  0  0  0  0  0  0
   39.4560   28.8040   27.0870 H   0  0  0  0  0  0  0  0  0  0  0  0
  1  2  1  0  0  0  0
  2  7  1  0  0  0  0
  3  4  1  0  0  0  0
  3  2  2  0  0  0  0
  4  5  2  0  0  0  0
  5  9  1  0  0  0  0
  5  6  1  0  0  0  0
  6 10  1  0  0  0  0
  7  6  2  0  0  0  0
  7 13  1  0  0  0  0
  8  4  1  0  0  0  0
 11 12  1  0  0  0  0
 12 13  2  0  0  0  0
 12 19  1  0  0  0  0
 13 14  1  0  0  0  0
 14 15  1  0  0  0  0
 14 16  2  0  0  0  0
 17 16  1  0  0  0  0
 17 18  1  0  0  0  0
 19 17  2  0  0  0  0
 20 19  1  0  0  0  0
 21 22  1  0  0  0  0
 21 27  1  0  0  0  0
 22  3  1  0  0  0  0
 23 28  1  0  0  0  0
 23 22  2  0  0  0  0
 24 23  1  0  0  0  0
 25 24  2  0  0  0  0
 25 26  1  0  0  0  0
 26 21  2  0  0  0  0
 29 25  1  0  0  0  0
M  END
>  <minimizedAffinity>
-5.01359797

$$$$

 OpenBabel03272505013D

 29 31  0  0  0  0  0  0  0  0999 V2000
   38.1310   27.2060   33.6840 Cl  0  0  0  0  0  0  0  0  0  0  0  0
   37.2600   26.0130   32.7560 C   0  0  0  0  0  0  0  0  0  0  0  0
   36.3460   26.4340   31.8480 C   0  0  0  0  0  0  0  0  0  0  0  0
   35.6890   25.4220   31.1440 C   0  0  0  0  0  0  0  0  0  0  0  0
   35.9660   24.0840   31.3730 C   0  0  0  0  0  0  0  0  0  0  0  0
   36.9110   23.7160   32.3140 C   0  0  0  0  0  0  0  0  0  0  0  0
   37.5730   24.7190   33.0230 C   0  0  0  0  0  0  0  0  0  0  0  0
   34.9460   25.7010   30.4040 H   0  0  0  0  0  0  0  0  0  0  0  0
   35.4160   23.3610   30.7880 H   0  0  0  0  0  0  0  0  0  0  0  0
   37.1080   22.6610   32.4730 H   0  0  0  0  0  0  0  0  0  0  0  0
   40.2950   24.4590   31.9470 Cl  0  0  0  0  0  0  0  0  0  0  0  0
   39.8470   24.0800   33.5880 C   0  0  0  0  0  0  0  0  0  0  0  0
   38.5360   24.2430   33.9790 C   0  0  0  0  0  0  0  0  0  0  0  0
   38.1810   23.9400   35.2890 C   0  0  0  0  0  0  0  0  0  0  0  0
   37.1370   24.0660   35.6130 H   0  0  0  0  0  0  0  0  0  0  0  0
   39.1580   23.4810   36.1750 C   0  0  0  0  0  3  0  0  0  0  0  0
   40.4790   23.3310   35.7400 C   0  0  0  0  0  0  0  0  0  0  0  0
   41.6770   22.7500   36.8900 Cl  0  0  0  0  0  0  0  0  0  0  0  0
   40.8390   23.6260   34.4500 C   0  0  0  0  0  0  0  0  0  0  0  0
   41.8730   23.4990   34.1390 H   0  0  0  0  0  0  0  0  0  0  0  0
   35.0750   28.5220   32.3330 C   0  0  0  0  0  0  0  0  0  0  0  0
   36.0220   27.8270   31.5740 C   0  0  0  0  0  0  0  0  0  0  0  0
   36.6520   28.5230   30.5320 C   0  0  0  0  0  0  0  0  0  0  0  0
   36.3060   29.8240   30.3240 N   0  0  0  0  0  0  0  0  0  0  0  0
   35.3970   30.4600   31.0680 C   0  0  0  0  0  0  0  0  0  0  0  0
   34.7810   29.8080   32.0740 N   0  0  0  0  0  0  0  0  0  0  0  0
   34.6160   27.9330   33.1310 H   0  0  0  0  0  0  0  0  0  0  0  0
   37.3800   28.0540   29.9180 H   0  0  0  0  0  0  0  0  0  0  0  0
   35.1140   31.4940   30.9120 H   0  0  0  0  0  0  0  0  0  0  0  0
  2  7  1  0  0  0  0
  2  1  1  0  0  0  0
  3  2  2  0  0  0  0
  4  5  2  0  0  0  0
  4  3  1  0  0  0  0
  5  6  1  0  0  0  0
  6 10  1  0  0  0  0
  6  7  2  0  0  0  0
  7 13  1  0  0  0  0
  8  4  1  0  0  0  0
  9  5  1  0  0  0  0
 11 12  1  0  0  0  0
 12 13  2  0  0  0  0
 12 19  1  0  0  0  0
 13 14  1  0  0  0  0
 14 15  1  0  0  0  0
 14 16  2  0  0  0  0
 17 16  1  0  0  0  0
 17 18  1  0  0  0  0
 19 17  2  0  0  0  0
 20 19  1  0  0  0  0
 21 27  1  0  0  0  0
 22  3  1  0  0  0  0
 22 21  2  0  0  0  0
 23 22  1  0  0  0  0
 24 23  2  0  0  0  0
 24 25  1  0  0  0  0
 25 26  2  0  0  0  0
 26 21  1  0  0  0  0
 28 23  1  0  0  0  0
 29 25  1  0  0  0  0
M  END
>  <minimizedAffinity>
-4.99571323

$$$$

 OpenBabel03272505013D

 29 31  0  0  0  0  0  0  0  0999 V2000
   39.0090   24.0650   34.6710 Cl  0  0  0  0  0  0  0  0  0  0  0  0
   40.4180   25.0760   34.4920 C   0  0  0  0  0  0  0  0  0  0  0  0
   41.6220   24.5900   34.8800 C   0  0  0  0  0  0  0  0  0  0  0  0
   42.7040   25.4570   34.7060 C   0  0  0  0  0  0  0  0  0  0  0  0
   42.5380   26.7250   34.1720 C   0  0  0  0  0  0  0  0  0  0  0  0
   41.2820   27.1650   33.7940 C   0  0  0  0  0  0  0  0  0  0  0  0
   40.1950   26.3070   33.9630 C   0  0  0  0  0  0  0  0  0  0  0  0
   43.6930   25.1210   35.0000 H   0  0  0  0  0  0  0  0  0  0  0  0
   43.4230   27.3350   34.0700 H   0  0  0  0  0  0  0  0  0  0  0  0
   41.1810   28.1620   33.3790 H   0  0  0  0  0  0  0  0  0  0  0  0
   38.5240   27.2880   36.1720 Cl  0  0  0  0  0  0  0  0  0  0  0  0
   38.0610   27.3400   34.4920 C   0  0  0  0  0  0  0  0  0  0  0  0
   38.9310   26.8490   33.5430 C   0  0  0  0  0  0  0  0  0  0  0  0
   38.5600   26.8920   32.2030 C   0  0  0  0  0  0  0  0  0  0  0  0
   39.2470   26.5030   31.4360 H   0  0  0  0  0  0  0  0  0  0  0  0
   37.3200   27.4300   31.8520 C   0  0  0  0  0  3  0  0  0  0  0  0
   36.4650   27.9190   32.8460 C   0  0  0  0  0  0  0  0  0  0  0  0
   34.9120   28.5880   32.3580 Cl  0  0  0  0  0  0  0  0  0  0  0  0
   36.8220   27.8810   34.1690 C   0  0  0  0  0  0  0  0  0  0  0  0
   36.1370   28.2680   34.9200 H   0  0  0  0  0  0  0  0  0  0  0  0
   42.3420   22.2130   34.6720 C   0  0  0  0  0  0  0  0  0  0  0  0
   41.8460   23.2670   35.4460 C   0  0  0  0  0  0  0  0  0  0  0  0
   41.5680   23.0020   36.7950 C   0  0  0  0  0  0  0  0  0  0  0  0
   41.7960   21.7460   37.2660 N   0  0  0  0  0  0  0  0  0  0  0  0
   42.2720   20.7590   36.5000 C   0  0  0  0  0  0  0  0  0  0  0  0
   42.5450   20.9950   35.2020 N   0  0  0  0  0  0  0  0  0  0  0  0
   42.5410   22.4740   33.6290 H   0  0  0  0  0  0  0  0  0  0  0  0
   41.1890   23.7580   37.4370 H   0  0  0  0  0  0  0  0  0  0  0  0
   42.4580   19.7570   36.8640 H   0  0  0  0  0  0  0  0  0  0  0  0
  2  1  1  0  0  0  0
  2  3  1  0  0  0  0
  3 22  1  0  0  0  0
  4  3  2  0  0  0  0
  4  8  1  0  0  0  0
  5  4  1  0  0  0  0
  6  7  1  0  0  0  0
  6  5  2  0  0  0  0
  7  2  2  0  0  0  0
  9  5  1  0  0  0  0
 10  6  1  0  0  0  0
 12 11  1  0  0  0  0
 13  7  1  0  0  0  0
 13 12  2  0  0  0  0
 14 13  1  0  0  0  0
 15 14  1  0  0  0  0
 16 14  2  0  0  0  0
 16 17  1  0  0  0  0
 17 19  2  0  0  0  0
 18 17  1  0  0  0  0
 19 12  1  0  0  0  0
 19 20  1  0  0  0  0
 21 26  2  0  0  0  0
 21 22  1  0  0  0  0
 22 23  2  0  0  0  0
 23 24  1  0  0  0  0
 23 28  1  0  0  0  0
 25 29  1  0  0  0  0
 25 24  2  0  0  0  0
 26 25  1  0  0  0  0
 27 21  1  0  0  0  0
M  END
>  <minimizedAffinity>
-4.93899107

$$$$

 OpenBabel03272505013D

 29 31  0  0  0  0  0  0  0  0999 V2000
   34.8970   31.0460   31.6480 Cl  0  0  0  0  0  0  0  0  0  0  0  0
   35.7560   29.7200   32.3850 C   0  0  0  0  0  0  0  0  0  0  0  0
   36.7860   29.1550   31.7100 C   0  0  0  0  0  0  0  0  0  0  0  0
   37.4250   28.0980   32.3640 C   0  0  0  0  0  0  0  0  0  0  0  0
   37.0190   27.6700   33.6170 C   0  0  0  0  0  0  0  0  0  0  0  0
   35.9590   28.2880   34.2570 C   0  0  0  0  0  0  0  0  0  0  0  0
   35.3140   29.3430   33.6130 C   0  0  0  0  0  0  0  0  0  0  0  0
   38.2580   27.6070   31.8690 H   0  0  0  0  0  0  0  0  0  0  0  0
   37.5630   26.8470   34.0560 H   0  0  0  0  0  0  0  0  0  0  0  0
   35.6610   27.9320   35.2380 H   0  0  0  0  0  0  0  0  0  0  0  0
   36.1420   31.3980   35.5440 Cl  0  0  0  0  0  0  0  0  0  0  0  0
   34.4920   30.8980   35.2890 C   0  0  0  0  0  0  0  0  0  0  0  0
   34.2250   29.9230   34.3530 C   0  0  0  0  0  0  0  0  0  0  0  0
   32.9080   29.5250   34.1510 C   0  0  0  0  0  0  0  0  0  0  0  0
   32.6820   28.7480   33.4060 H   0  0  0  0  0  0  0  0  0  0  0  0
   31.8900   30.1220   34.8980 C   0  0  0  0  0  3  0  0  0  0  0  0
   32.2020   31.1100   35.8390 C   0  0  0  0  0  0  0  0  0  0  0  0
   30.8880   31.8350   36.7570 Cl  0  0  0  0  0  0  0  0  0  0  0  0
   33.4980   31.5080   36.0450 C   0  0  0  0  0  0  0  0  0  0  0  0
   33.7110   32.2780   36.7830 H   0  0  0  0  0  0  0  0  0  0  0  0
   37.5550   30.9040   30.1100 C   0  0  0  0  0  0  0  0  0  0  0  0
   37.2490   29.5690   30.3930 C   0  0  0  0  0  0  0  0  0  0  0  0
   37.4030   28.6380   29.3550 C   0  0  0  0  0  0  0  0  0  0  0  0
   37.8380   29.0860   28.1460 N   0  0  0  0  0  0  0  0  0  0  0  0
   38.1230   30.3700   27.9080 C   0  0  0  0  0  0  0  0  0  0  0  0
   37.9810   31.2790   28.8920 N   0  0  0  0  0  0  0  0  0  0  0  0
   37.4180   31.5870   30.9530 H   0  0  0  0  0  0  0  0  0  0  0  0
   37.1880   27.6090   29.5030 H   0  0  0  0  0  0  0  0  0  0  0  0
   38.4700   30.7380   26.9500 H   0  0  0  0  0  0  0  0  0  0  0  0
  1  2  1  0  0  0  0
  2  7  1  0  0  0  0
  3  4  1  0  0  0  0
  3  2  2  0  0  0  0
  4  5  2  0  0  0  0
  5  9  1  0  0  0  0
  5  6  1  0  0  0  0
  6 10  1  0  0  0  0
  7  6  2  0  0  0  0
  7 13  1  0  0  0  0
  8  4  1  0  0  0  0
 12 11  1  0  0  0  0
 12 19  1  0  0  0  0
 13 12  2  0  0  0  0
 14 13  1  0  0  0  0
 14 16  2  0  0  0  0
 15 14  1  0  0  0  0
 16 17  1  0  0  0  0
 17 19  2  0  0  0  0
 17 18  1  0  0  0  0
 19 20  1  0  0  0  0
 21 22  1  0  0  0  0
 21 27  1  0  0  0  0
 22  3  1  0  0  0  0
 23 28  1  0  0  0  0
 23 22  2  0  0  0  0
 24 23  1  0  0  0  0
 25 24  2  0  0  0  0
 25 26  1  0  0  0  0
 26 21  2  0  0  0  0
 29 25  1  0  0  0  0
M  END
>  <minimizedAffinity>
-4.90323305

$$$$

 OpenBabel03272505013D

 29 31  0  0  0  0  0  0  0  0999 V2000
   38.3920   26.5430   34.6270 Cl  0  0  0  0  0  0  0  0  0  0  0  0
   37.8310   25.1950   33.6750 C   0  0  0  0  0  0  0  0  0  0  0  0
   37.9670   23.9420   34.1750 C   0  0  0  0  0  0  0  0  0  0  0  0
   37.4940   22.9140   33.3550 C   0  0  0  0  0  0  0  0  0  0  0  0
   36.9290   23.1760   32.1170 C   0  0  0  0  0  0  0  0  0  0  0  0
   36.8180   24.4780   31.6610 C   0  0  0  0  0  0  0  0  0  0  0  0
   37.2860   25.5120   32.4710 C   0  0  0  0  0  0  0  0  0  0  0  0
   37.5770   21.8900   33.7040 H   0  0  0  0  0  0  0  0  0  0  0  0
   36.5880   22.3280   31.5430 H   0  0  0  0  0  0  0  0  0  0  0  0
   36.3710   24.6540   30.6880 H   0  0  0  0  0  0  0  0  0  0  0  0
   39.5490   26.3840   30.8120 Cl  0  0  0  0  0  0  0  0  0  0  0  0
   38.1280   27.3460   31.1190 C   0  0  0  0  0  0  0  0  0  0  0  0
   37.1290   26.8290   31.9150 C   0  0  0  0  0  0  0  0  0  0  0  0
   35.9970   27.5980   32.1600 C   0  0  0  0  0  0  0  0  0  0  0  0
   35.1920   27.1960   32.7940 H   0  0  0  0  0  0  0  0  0  0  0  0
   35.8970   28.8710   31.5940 C   0  0  0  0  0  3  0  0  0  0  0  0
   36.9330   29.3600   30.7900 C   0  0  0  0  0  0  0  0  0  0  0  0
   36.7660   30.9690   30.0980 Cl  0  0  0  0  0  0  0  0  0  0  0  0
   38.0540   28.6090   30.5440 C   0  0  0  0  0  0  0  0  0  0  0  0
   38.8430   29.0150   29.9150 H   0  0  0  0  0  0  0  0  0  0  0  0
   37.8020   23.6630   36.6450 C   0  0  0  0  0  0  0  0  0  0  0  0
   38.5530   23.6180   35.4670 C   0  0  0  0  0  0  0  0  0  0  0  0
   39.9020   23.2490   35.5750 C   0  0  0  0  0  0  0  0  0  0  0  0
   40.3940   22.9580   36.8110 N   0  0  0  0  0  0  0  0  0  0  0  0
   39.6480   23.0100   37.9190 C   0  0  0  0  0  0  0  0  0  0  0  0
   38.3510   23.3620   37.8350 N   0  0  0  0  0  0  0  0  0  0  0  0
   36.7580   23.9560   36.5040 H   0  0  0  0  0  0  0  0  0  0  0  0
   40.5290   23.1950   34.7200 H   0  0  0  0  0  0  0  0  0  0  0  0
   40.0290   22.7810   38.9070 H   0  0  0  0  0  0  0  0  0  0  0  0
  2  3  1  0  0  0  0
  2  1  1  0  0  0  0
  3 22  1  0  0  0  0
  4  8  1  0  0  0  0
  4  3  2  0  0  0  0
  5  4  1  0  0  0  0
  6  5  2  0  0  0  0
  6  7  1  0  0  0  0
  7  2  2  0  0  0  0
  9  5  1  0  0  0  0
 10  6  1  0  0  0  0
 11 12  1  0  0  0  0
 12 13  1  0  0  0  0
 13 14  2  0  0  0  0
 13  7  1  0  0  0  0
 14 15  1  0  0  0  0
 16 14  1  0  0  0  0
 17 16  2  0  0  0  0
 18 17  1  0  0  0  0
 19 17  1  0  0  0  0
 19 12  2  0  0  0  0
 20 19  1  0  0  0  0
 21 26  1  0  0  0  0
 22 23  1  0  0  0  0
 22 21  2  0  0  0  0
 23 24  2  0  0  0  0
 24 25  1  0  0  0  0
 25 29  1  0  0  0  0
 26 25  2  0  0  0  0
 27 21  1  0  0  0  0
 28 23  1  0  0  0  0
M  END
>  <minimizedAffinity>
-4.88504124

$$$$

 OpenBabel03272505013D

 29 31  0  0  0  0  0  0  0  0999 V2000
   35.8040   27.7450   34.3460 Cl  0  0  0  0  0  0  0  0  0  0  0  0
   35.8770   28.8140   32.9700 C   0  0  0  0  0  0  0  0  0  0  0  0
   35.6010   30.1290   33.1510 C   0  0  0  0  0  0  0  0  0  0  0  0
   35.6790   30.9220   32.0040 C   0  0  0  0  0  0  0  0  0  0  0  0
   36.0160   30.3830   30.7730 C   0  0  0  0  0  0  0  0  0  0  0  0
   36.2870   29.0310   30.6510 C   0  0  0  0  0  0  0  0  0  0  0  0
   36.2120   28.2310   31.7910 C   0  0  0  0  0  0  0  0  0  0  0  0
   35.4690   31.9830   32.0890 H   0  0  0  0  0  0  0  0  0  0  0  0
   36.0560   31.0610   29.9330 H   0  0  0  0  0  0  0  0  0  0  0  0
   36.5480   28.6360   29.6750 H   0  0  0  0  0  0  0  0  0  0  0  0
   39.0460   27.5430   32.1530 Cl  0  0  0  0  0  0  0  0  0  0  0  0
   37.8060   26.4000   31.7090 C   0  0  0  0  0  0  0  0  0  0  0  0
   36.5090   26.8410   31.5690 C   0  0  0  0  0  0  0  0  0  0  0  0
   35.5220   25.9280   31.2150 C   0  0  0  0  0  0  0  0  0  0  0  0
   34.4820   26.2680   31.1000 H   0  0  0  0  0  0  0  0  0  0  0  0
   35.8670   24.5900   31.0110 C   0  0  0  0  0  3  0  0  0  0  0  0
   37.1960   24.1810   31.1650 C   0  0  0  0  0  0  0  0  0  0  0  0
   37.5860   22.4860   30.8990 Cl  0  0  0  0  0  0  0  0  0  0  0  0
   38.1770   25.0740   31.5130 C   0  0  0  0  0  0  0  0  0  0  0  0
   39.2020   24.7290   31.6250 H   0  0  0  0  0  0  0  0  0  0  0  0
   33.9570   30.6160   34.9590 C   0  0  0  0  0  0  0  0  0  0  0  0
   35.2420   30.7390   34.4230 C   0  0  0  0  0  0  0  0  0  0  0  0
   36.1810   31.4780   35.1600 C   0  0  0  0  0  0  0  0  0  0  0  0
   35.7860   32.0250   36.3420 N   0  0  0  0  0  0  0  0  0  0  0  0
   34.5480   31.8880   36.8280 C   0  0  0  0  0  0  0  0  0  0  0  0
   33.6340   31.1830   36.1350 N   0  0  0  0  0  0  0  0  0  0  0  0
   33.2660   30.0320   34.3460 H   0  0  0  0  0  0  0  0  0  0  0  0
   37.1750   31.6090   34.8100 H   0  0  0  0  0  0  0  0  0  0  0  0
   34.2240   32.3190   37.7660 H   0  0  0  0  0  0  0  0  0  0  0  0
  2  3  1  0  0  0  0
  2  1  1  0  0  0  0
  3 22  1  0  0  0  0
  4  8  1  0  0  0  0
  4  3  2  0  0  0  0
  5  4  1  0  0  0  0
  6  5  2  0  0  0  0
  6  7  1  0  0  0  0
  7  2  2  0  0  0  0
  9  5  1  0  0  0  0
 10  6  1  0  0  0  0
 12 11  1  0  0  0  0
 13 12  1  0  0  0  0
 13  7  1  0  0  0  0
 14 13  2  0  0  0  0
 15 14  1  0  0  0  0
 16 17  2  0  0  0  0
 16 14  1  0  0  0  0
 17 19  1  0  0  0  0
 18 17  1  0  0  0  0
 19 20  1  0  0  0  0
 19 12  2  0  0  0  0
 21 26  1  0  0  0  0
 22 21  2  0  0  0  0
 22 23  1  0  0  0  0
 23 24  2  0  0  0  0
 24 25  1  0  0  0  0
 25 29  1  0  0  0  0
 26 25  2  0  0  0  0
 27 21  1  0  0  0  0
 28 23  1  0  0  0  0
M  END
>  <minimizedAffinity>
-4.85794353

$$$$

 OpenBabel03272505013D

 29 31  0  0  0  0  0  0  0  0999 V2000
   36.6020   28.0220   34.6610 Cl  0  0  0  0  0  0  0  0  0  0  0  0
   36.9680   28.1930   32.9650 C   0  0  0  0  0  0  0  0  0  0  0  0
   36.1890   29.0060   32.2090 C   0  0  0  0  0  0  0  0  0  0  0  0
   36.5440   29.0920   30.8600 C   0  0  0  0  0  0  0  0  0  0  0  0
   37.6200   28.3860   30.3480 C   0  0  0  0  0  0  0  0  0  0  0  0
   38.3780   27.5720   31.1710 C   0  0  0  0  0  0  0  0  0  0  0  0
   38.0330   27.4790   32.5190 C   0  0  0  0  0  0  0  0  0  0  0  0
   35.9550   29.7280   30.2070 H   0  0  0  0  0  0  0  0  0  0  0  0
   37.8300   28.5060   29.2950 H   0  0  0  0  0  0  0  0  0  0  0  0
   39.2150   27.0310   30.7420 H   0  0  0  0  0  0  0  0  0  0  0  0
   37.1100   24.6910   32.6120 Cl  0  0  0  0  0  0  0  0  0  0  0  0
   38.5430   25.2780   33.4120 C   0  0  0  0  0  0  0  0  0  0  0  0
   38.8760   26.6100   33.2950 C   0  0  0  0  0  0  0  0  0  0  0  0
   40.0190   27.0770   33.9350 C   0  0  0  0  0  0  0  0  0  0  0  0
   40.2960   28.1390   33.8490 H   0  0  0  0  0  0  0  0  0  0  0  0
   40.8010   26.1880   34.6770 C   0  0  0  0  0  3  0  0  0  0  0  0
   40.4300   24.8420   34.7700 C   0  0  0  0  0  0  0  0  0  0  0  0
   41.4430   23.7590   35.7140 Cl  0  0  0  0  0  0  0  0  0  0  0  0
   39.3040   24.3730   34.1430 C   0  0  0  0  0  0  0  0  0  0  0  0
   39.0390   23.3220   34.2330 H   0  0  0  0  0  0  0  0  0  0  0  0
   33.7640   29.2160   32.7420 C   0  0  0  0  0  0  0  0  0  0  0  0
   35.0490   29.7650   32.7020 C   0  0  0  0  0  0  0  0  0  0  0  0
   35.2020   31.0830   33.1570 C   0  0  0  0  0  0  0  0  0  0  0  0
   34.0990   31.7430   33.6060 N   0  0  0  0  0  0  0  0  0  0  0  0
   32.8830   31.1890   33.6320 C   0  0  0  0  0  0  0  0  0  0  0  0
   32.7170   29.9240   33.1990 N   0  0  0  0  0  0  0  0  0  0  0  0
   33.7010   28.1880   32.3760 H   0  0  0  0  0  0  0  0  0  0  0  0
   36.1510   31.5600   33.1540 H   0  0  0  0  0  0  0  0  0  0  0  0
   31.9990   31.7040   33.9870 H   0  0  0  0  0  0  0  0  0  0  0  0
  2  1  1  0  0  0  0
  3 22  1  0  0  0  0
  3  2  2  0  0  0  0
  4  3  1  0  0  0  0
  5  4  2  0  0  0  0
  5  6  1  0  0  0  0
  6  7  2  0  0  0  0
  7  2  1  0  0  0  0
  7 13  1  0  0  0  0
  8  4  1  0  0  0  0
  9  5  1  0  0  0  0
 10  6  1  0  0  0  0
 11 12  1  0  0  0  0
 12 19  1  0  0  0  0
 13 12  2  0  0  0  0
 13 14  1  0  0  0  0
 14 16  2  0  0  0  0
 15 14  1  0  0  0  0
 16 17  1  0  0  0  0
 17 18  1  0  0  0  0
 19 20  1  0  0  0  0
 19 17  2  0  0  0  0
 21 26  1  0  0  0  0
 22 21  2  0  0  0  0
 22 23  1  0  0  0  0
 23 24  2  0  0  0  0
 24 25  1  0  0  0  0
 25 29  1  0  0  0  0
 26 25  2  0  0  0  0
 27 21  1  0  0  0  0
 28 23  1  0  0  0  0
M  END
>  <minimizedAffinity>
-4.85366392

$$$$
