
 OpenBabel03272506483D

 43 46  0  0  1  0  0  0  0  0999 V2000
   32.0140   28.3750   47.4860 C   0  0  2  0  0  0  0  0  0  0  0  0
   33.2710   28.1740   48.2820 C   0  0  1  0  0  0  0  0  0  0  0  0
   33.6330   26.8650   48.1720 O   0  0  0  0  0  0  0  0  0  0  0  0
   32.8950   26.2670   47.1560 C   0  0  0  0  0  0  0  0  0  0  0  0
   32.2990   27.3740   46.3230 C   0  0  1  0  0  0  0  0  0  0  0  0
   31.0940   28.0440   47.9540 H   0  0  0  0  0  0  0  0  0  0  0  0
   33.1560   28.4730   49.3410 H   0  0  0  0  0  0  0  0  0  0  0  0
   32.2010   25.5890   47.6270 H   0  0  0  0  0  0  0  0  0  0  0  0
   33.5540   25.6890   46.4590 H   0  0  0  0  0  0  0  0  0  0  0  0
   33.0310   27.8490   45.6680 H   0  0  0  0  0  0  0  0  0  0  0  0
   31.9620   29.6830   46.9610 O   0  0  0  0  0  0  0  0  0  0  0  0
   32.6570   30.2690   47.3580 H   0  0  0  0  0  0  0  0  0  0  0  0
   34.5870   29.1940   47.5030 S   0  0  0  0  0  0  0  0  0  0  0  0
   37.0100   29.2440   50.6380 C   0  0  0  0  0  0  0  0  0  0  0  0
   37.4180   30.5690   50.7660 C   0  0  0  0  0  0  0  0  0  0  0  0
   36.9180   31.4940   49.8360 C   0  0  0  0  0  0  0  0  0  0  0  0
   36.0690   31.0530   48.8650 N   0  0  0  0  0  0  0  0  0  0  0  0
   35.7050   29.7540   48.7850 C   0  0  0  0  0  0  0  0  0  0  0  0
   36.1670   28.8330   49.6690 N   0  0  0  0  0  0  0  0  0  0  0  0
   37.3340   28.4530   51.3010 H   0  0  0  0  0  0  0  0  0  0  0  0
   38.1000   30.8260   51.5760 H   0  0  0  0  0  0  0  0  0  0  0  0
   37.2230   32.5130   49.9210 H   0  0  0  0  0  0  0  0  0  0  0  0
   31.1290   26.9280   45.7590 O   0  0  0  0  0  0  0  0  0  0  0  0
   29.9420   29.1670   44.2590 Cl  0  0  0  0  0  0  0  0  0  0  0  0
   29.2440   28.2360   45.5640 C   0  0  0  0  0  0  0  0  0  0  0  0
   29.8970   27.1970   46.1850 C   0  0  0  0  0  0  0  0  0  0  0  0
   29.2250   26.5110   47.1990 C   0  0  0  0  0  0  0  0  0  0  0  0
   27.9440   26.8720   47.5620 C   0  0  0  0  0  0  0  0  0  0  0  0
   27.2780   27.9170   46.9440 C   0  0  0  0  0  0  0  0  0  0  0  0
   27.9390   28.5990   45.9390 C   0  0  0  0  0  0  0  0  0  0  0  0
   29.6550   25.6840   47.7340 H   0  0  0  0  0  0  0  0  0  0  0  0
   27.3660   26.3880   48.3340 H   0  0  0  0  0  0  0  0  0  0  0  0
   26.2690   28.2350   47.1970 H   0  0  0  0  0  0  0  0  0  0  0  0
   26.5570   28.1370   43.2580 Cl  0  0  0  0  0  0  0  0  0  0  0  0
   26.5880   29.6770   44.0860 C   0  0  0  0  0  0  0  0  0  0  0  0
   27.2530   29.7030   45.2760 C   0  0  0  0  0  0  0  0  0  0  0  0
   27.3430   30.8820   46.0250 C   0  0  0  0  0  0  0  0  0  0  0  0
   27.8470   31.0100   46.9820 H   0  0  0  0  0  0  0  0  0  0  0  0
   26.7410   32.0480   45.5430 C   0  0  0  0  0  3  0  0  0  0  0  0
   26.0730   32.0010   44.3360 C   0  0  0  0  0  0  0  0  0  0  0  0
   25.3100   33.4660   43.7180 Cl  0  0  0  0  0  0  0  0  0  0  0  0
   25.9870   30.8370   43.6010 C   0  0  0  0  0  0  0  0  0  0  0  0
   25.4670   30.7670   42.6440 H   0  0  0  0  0  0  0  0  0  0  0  0
  1  6  1  1  0  0  0
  1  2  1  0  0  0  0
  2  7  1  1  0  0  0
  3  2  1  0  0  0  0
  4  8  1  0  0  0  0
  4  3  1  0  0  0  0
  5 10  1  6  0  0  0
  5  4  1  0  0  0  0
  5  1  1  0  0  0  0
  9  4  1  0  0  0  0
 11 12  1  0  0  0  0
 11  1  1  0  0  0  0
 13  2  1  0  0  0  0
 13 18  1  0  0  0  0
 14 15  1  0  0  0  0
 14 20  1  0  0  0  0
 15 21  1  0  0  0  0
 16 22  1  0  0  0  0
 16 15  2  0  0  0  0
 17 16  1  0  0  0  0
 18 17  2  0  0  0  0
 18 19  1  0  0  0  0
 19 14  2  0  0  0  0
 23 26  1  0  0  0  0
 23  5  1  0  0  0  0
 24 25  1  0  0  0  0
 25 30  2  0  0  0  0
 25 26  1  0  0  0  0
 26 27  2  0  0  0  0
 27 28  1  0  0  0  0
 27 31  1  0  0  0  0
 28 32  1  0  0  0  0
 29 33  1  0  0  0  0
 29 28  2  0  0  0  0
 30 29  1  0  0  0  0
 34 35  1  0  0  0  0
 35 36  1  0  0  0  0
 36 30  1  0  0  0  0
 36 37  2  0  0  0  0
 37 38  1  0  0  0  0
 39 37  1  0  0  0  0
 40 39  2  0  0  0  0
 41 40  1  0  0  0  0
 42 35  2  0  0  0  0
 42 40  1  0  0  0  0
 43 42  1  0  0  0  0
M  END
>  <minimizedAffinity>
-5.80086946

>  <minimizedRMSD>
0.953954577

$$$$
