
 OpenBabel03272501243D

 41 44  0  0  0  0  0  0  0  0999 V2000
   37.9310   26.4570   32.2870 O   0  0  0  0  0  0  0  0  0  0  0  0
   36.4070   27.5500   34.6640 Cl  0  0  0  0  0  0  0  0  0  0  0  0
   36.4580   28.3000   33.0780 C   0  0  0  0  0  0  0  0  0  0  0  0
   37.2290   27.6190   32.1250 C   0  0  0  0  0  0  0  0  0  0  0  0
   37.2890   28.1820   30.8740 C   0  0  0  0  0  0  0  0  0  0  0  0
   36.6490   29.3490   30.5170 C   0  0  0  0  0  0  0  0  0  0  0  0
   35.8950   30.0070   31.4680 C   0  0  0  0  0  0  0  0  0  0  0  0
   35.8070   29.4790   32.7320 C   0  0  0  0  0  0  0  0  0  0  0  0
   37.8590   27.7360   30.0550 H   0  0  0  0  0  0  0  0  0  0  0  0
   36.6960   29.7950   29.5290 H   0  0  0  0  0  0  0  0  0  0  0  0
   35.3430   30.9310   31.3200 H   0  0  0  0  0  0  0  0  0  0  0  0
   32.8160   28.9440   33.0270 Cl  0  0  0  0  0  0  0  0  0  0  0  0
   33.7260   29.9070   34.1660 C   0  0  0  0  0  0  0  0  0  0  0  0
   35.0640   30.0310   33.8570 C   0  0  0  0  0  0  0  0  0  0  0  0
   35.8990   30.7700   34.6820 C   0  0  0  0  0  0  0  0  0  0  0  0
   36.9680   30.9460   34.5520 H   0  0  0  0  0  0  0  0  0  0  0  0
   35.3960   31.3930   35.8290 C   0  0  0  0  0  3  0  0  0  0  0  0
   34.0560   31.2590   36.1250 C   0  0  0  0  0  0  0  0  0  0  0  0
   33.3260   32.0050   37.5440 Cl  0  0  0  0  0  0  0  0  0  0  0  0
   33.2330   30.5220   35.2970 C   0  0  0  0  0  0  0  0  0  0  0  0
   32.1750   30.3660   35.4550 H   0  0  0  0  0  0  0  0  0  0  0  0
   39.2420   25.2900   33.9550 C   0  0  0  0  0  0  0  0  0  0  0  0
   40.3590   25.1010   34.7640 C   0  0  0  0  0  0  0  0  0  0  0  0
   41.3570   26.0590   34.6290 C   0  0  0  0  0  0  0  0  0  0  0  0
   41.2120   27.1230   33.7320 C   0  0  0  0  0  0  0  0  0  0  0  0
   40.0770   27.2450   32.9640 C   0  0  0  0  0  0  0  0  0  0  0  0
   39.0790   26.3150   33.0780 C   0  0  0  0  0  0  0  0  0  0  0  0
   42.2300   25.9220   35.2530 H   0  0  0  0  0  0  0  0  0  0  0  0
   42.0420   27.8300   33.6870 H   0  0  0  0  0  0  0  0  0  0  0  0
   40.0180   28.0880   32.2850 H   0  0  0  0  0  0  0  0  0  0  0  0
   41.6010   23.1770   35.6550 C   0  0  0  0  0  0  0  0  0  0  0  0
   40.4830   24.0090   35.6690 C   0  0  0  0  0  0  0  0  0  0  0  0
   39.4910   23.7120   36.6220 C   0  0  0  0  0  0  0  0  0  0  0  0
   39.6720   22.6540   37.4560 N   0  0  0  0  0  0  0  0  0  0  0  0
   40.7730   21.8840   37.3970 C   0  0  0  0  0  0  0  0  0  0  0  0
   41.7390   22.1400   36.5000 N   0  0  0  0  0  0  0  0  0  0  0  0
   42.4010   23.3640   34.9360 H   0  0  0  0  0  0  0  0  0  0  0  0
   38.5960   24.3310   36.6750 H   0  0  0  0  0  0  0  0  0  0  0  0
   40.9500   21.0320   38.0480 H   0  0  0  0  0  0  0  0  0  0  0  0
   38.1830   24.3690   34.0260 O   0  0  0  0  0  0  0  0  0  0  0  0
   38.2580   23.4420   33.6360 H   0  0  0  0  0  0  0  0  0  0  0  0
  1 27  1  0  0  0  0
  3  2  1  0  0  0  0
  4  1  1  0  0  0  0
  4  3  2  0  0  0  0
  5  4  1  0  0  0  0
  6  5  2  0  0  0  0
  6  7  1  0  0  0  0
  7  8  2  0  0  0  0
  8  3  1  0  0  0  0
  8 14  1  0  0  0  0
  9  5  1  0  0  0  0
 10  6  1  0  0  0  0
 11  7  1  0  0  0  0
 12 13  1  0  0  0  0
 13 20  1  0  0  0  0
 14 13  2  0  0  0  0
 14 15  1  0  0  0  0
 15 17  2  0  0  0  0
 16 15  1  0  0  0  0
 17 18  1  0  0  0  0
 18 19  1  0  0  0  0
 20 21  1  0  0  0  0
 20 18  2  0  0  0  0
 22 40  1  0  0  0  0
 22 23  1  0  0  0  0
 23 32  1  0  0  0  0
 24 23  2  0  0  0  0
 24 28  1  0  0  0  0
 25 24  1  0  0  0  0
 26 27  1  0  0  0  0
 26 25  2  0  0  0  0
 27 22  2  0  0  0  0
 29 25  1  0  0  0  0
 30 26  1  0  0  0  0
 31 32  2  0  0  0  0
 31 36  1  0  0  0  0
 32 33  1  0  0  0  0
 33 38  1  0  0  0  0
 33 34  2  0  0  0  0
 35 34  1  0  0  0  0
 35 39  1  0  0  0  0
 36 35  2  0  0  0  0
 37 31  1  0  0  0  0
 41 40  1  0  0  0  0
M  END
>  <minimizedAffinity>
-6.59049845

$$$$

 OpenBabel03272501243D

 41 44  0  0  0  0  0  0  0  0999 V2000
   38.3910   27.1040   32.2660 O   0  0  0  0  0  0  0  0  0  0  0  0
   36.7500   28.0050   34.6470 Cl  0  0  0  0  0  0  0  0  0  0  0  0
   36.5650   28.6210   33.0150 C   0  0  0  0  0  0  0  0  0  0  0  0
   37.4350   28.0610   32.0670 C   0  0  0  0  0  0  0  0  0  0  0  0
   37.3140   28.5240   30.7800 C   0  0  0  0  0  0  0  0  0  0  0  0
   36.4100   29.4840   30.3830 C   0  0  0  0  0  0  0  0  0  0  0  0
   35.5620   30.0260   31.3290 C   0  0  0  0  0  0  0  0  0  0  0  0
   35.6480   29.5920   32.6270 C   0  0  0  0  0  0  0  0  0  0  0  0
   37.9390   28.1570   29.9630 H   0  0  0  0  0  0  0  0  0  0  0  0
   36.3140   29.8520   29.3660 H   0  0  0  0  0  0  0  0  0  0  0  0
   34.8070   30.7860   31.1500 H   0  0  0  0  0  0  0  0  0  0  0  0
   32.7340   28.7210   32.9010 Cl  0  0  0  0  0  0  0  0  0  0  0  0
   33.5250   29.7700   34.0540 C   0  0  0  0  0  0  0  0  0  0  0  0
   34.8420   30.0460   33.7530 C   0  0  0  0  0  0  0  0  0  0  0  0
   35.5850   30.8660   34.5890 C   0  0  0  0  0  0  0  0  0  0  0  0
   36.6280   31.1620   34.4670 H   0  0  0  0  0  0  0  0  0  0  0  0
   35.0100   31.4190   35.7390 C   0  0  0  0  0  3  0  0  0  0  0  0
   33.6920   31.1330   36.0260 C   0  0  0  0  0  0  0  0  0  0  0  0
   32.8770   31.7790   37.4480 Cl  0  0  0  0  0  0  0  0  0  0  0  0
   32.9610   30.3160   35.1880 C   0  0  0  0  0  0  0  0  0  0  0  0
   31.9260   30.0400   35.3380 H   0  0  0  0  0  0  0  0  0  0  0  0
   38.7420   25.2070   33.7300 C   0  0  0  0  0  0  0  0  0  0  0  0
   38.5280   23.9020   34.1630 C   0  0  0  0  0  0  0  0  0  0  0  0
   37.6170   23.1700   33.4100 C   0  0  0  0  0  0  0  0  0  0  0  0
   36.9810   23.7410   32.3030 C   0  0  0  0  0  0  0  0  0  0  0  0
   37.2440   25.0400   31.9340 C   0  0  0  0  0  0  0  0  0  0  0  0
   38.1370   25.7830   32.6590 C   0  0  0  0  0  0  0  0  0  0  0  0
   37.4440   22.1530   33.7370 H   0  0  0  0  0  0  0  0  0  0  0  0
   36.2810   23.0990   31.7670 H   0  0  0  0  0  0  0  0  0  0  0  0
   36.7220   25.4320   31.0680 H   0  0  0  0  0  0  0  0  0  0  0  0
   40.3340   22.5610   35.1530 C   0  0  0  0  0  0  0  0  0  0  0  0
   39.1890   23.3430   35.2940 C   0  0  0  0  0  0  0  0  0  0  0  0
   38.7260   23.5480   36.6070 C   0  0  0  0  0  0  0  0  0  0  0  0
   39.4030   22.9840   37.6420 N   0  0  0  0  0  0  0  0  0  0  0  0
   40.5050   22.2380   37.4460 C   0  0  0  0  0  0  0  0  0  0  0  0
   40.9730   22.0230   36.2060 N   0  0  0  0  0  0  0  0  0  0  0  0
   40.7360   22.3710   34.1550 H   0  0  0  0  0  0  0  0  0  0  0  0
   37.8340   24.1510   36.7720 H   0  0  0  0  0  0  0  0  0  0  0  0
   41.0710   21.7730   38.2500 H   0  0  0  0  0  0  0  0  0  0  0  0
   39.6490   26.0210   34.4320 O   0  0  0  0  0  0  0  0  0  0  0  0
   39.4280   26.4010   35.3400 H   0  0  0  0  0  0  0  0  0  0  0  0
  1 27  1  0  0  0  0
  3  2  1  0  0  0  0
  4  1  1  0  0  0  0
  4  3  2  0  0  0  0
  5  4  1  0  0  0  0
  6  5  2  0  0  0  0
  6  7  1  0  0  0  0
  7  8  2  0  0  0  0
  8  3  1  0  0  0  0
  8 14  1  0  0  0  0
  9  5  1  0  0  0  0
 10  6  1  0  0  0  0
 11  7  1  0  0  0  0
 12 13  1  0  0  0  0
 13 20  1  0  0  0  0
 14 13  2  0  0  0  0
 14 15  1  0  0  0  0
 15 17  2  0  0  0  0
 16 15  1  0  0  0  0
 17 18  1  0  0  0  0
 18 19  1  0  0  0  0
 20 21  1  0  0  0  0
 20 18  2  0  0  0  0
 22 23  1  0  0  0  0
 22 40  1  0  0  0  0
 23 32  1  0  0  0  0
 24 28  1  0  0  0  0
 24 23  2  0  0  0  0
 25 24  1  0  0  0  0
 26 25  2  0  0  0  0
 26 27  1  0  0  0  0
 27 22  2  0  0  0  0
 29 25  1  0  0  0  0
 30 26  1  0  0  0  0
 31 32  2  0  0  0  0
 31 36  1  0  0  0  0
 32 33  1  0  0  0  0
 33 38  1  0  0  0  0
 33 34  2  0  0  0  0
 35 34  1  0  0  0  0
 35 39  1  0  0  0  0
 36 35  2  0  0  0  0
 37 31  1  0  0  0  0
 40 41  1  0  0  0  0
M  END
>  <minimizedAffinity>
-6.45777798

$$$$

 OpenBabel03272501243D

 41 44  0  0  0  0  0  0  0  0999 V2000
   38.3650   27.1670   32.1270 O   0  0  0  0  0  0  0  0  0  0  0  0
   36.7400   28.0200   34.5350 Cl  0  0  0  0  0  0  0  0  0  0  0  0
   36.5800   28.7040   32.9270 C   0  0  0  0  0  0  0  0  0  0  0  0
   37.4370   28.1570   31.9620 C   0  0  0  0  0  0  0  0  0  0  0  0
   37.3360   28.6720   30.6930 C   0  0  0  0  0  0  0  0  0  0  0  0
   36.4600   29.6720   30.3300 C   0  0  0  0  0  0  0  0  0  0  0  0
   35.6240   30.2010   31.2930 C   0  0  0  0  0  0  0  0  0  0  0  0
   35.6910   29.7150   32.5740 C   0  0  0  0  0  0  0  0  0  0  0  0
   37.9540   28.3200   29.8640 H   0  0  0  0  0  0  0  0  0  0  0  0
   36.3790   30.0810   29.3280 H   0  0  0  0  0  0  0  0  0  0  0  0
   34.8910   30.9880   31.1410 H   0  0  0  0  0  0  0  0  0  0  0  0
   32.7920   28.8040   32.8750 Cl  0  0  0  0  0  0  0  0  0  0  0  0
   33.5840   29.8510   34.0280 C   0  0  0  0  0  0  0  0  0  0  0  0
   34.8940   30.1480   33.7140 C   0  0  0  0  0  0  0  0  0  0  0  0
   35.6360   30.9700   34.5490 C   0  0  0  0  0  0  0  0  0  0  0  0
   36.6740   31.2800   34.4170 H   0  0  0  0  0  0  0  0  0  0  0  0
   35.0680   31.5030   35.7100 C   0  0  0  0  0  3  0  0  0  0  0  0
   33.7570   31.1980   36.0110 C   0  0  0  0  0  0  0  0  0  0  0  0
   32.9510   31.8190   37.4480 Cl  0  0  0  0  0  0  0  0  0  0  0  0
   33.0270   30.3790   35.1740 C   0  0  0  0  0  0  0  0  0  0  0  0
   31.9970   30.0890   35.3330 H   0  0  0  0  0  0  0  0  0  0  0  0
   37.6440   24.8600   31.9700 C   0  0  0  0  0  0  0  0  0  0  0  0
   37.5830   23.6040   31.3730 C   0  0  0  0  0  0  0  0  0  0  0  0
   38.3010   23.4750   30.1900 C   0  0  0  0  0  0  0  0  0  0  0  0
   39.0210   24.5550   29.6680 C   0  0  0  0  0  0  0  0  0  0  0  0
   39.0360   25.7680   30.3160 C   0  0  0  0  0  0  0  0  0  0  0  0
   38.3370   25.9220   31.4830 C   0  0  0  0  0  0  0  0  0  0  0  0
   38.2600   22.5020   29.7170 H   0  0  0  0  0  0  0  0  0  0  0  0
   39.5570   24.3690   28.7360 H   0  0  0  0  0  0  0  0  0  0  0  0
   39.6110   26.5710   29.8660 H   0  0  0  0  0  0  0  0  0  0  0  0
   35.5960   22.1590   31.4160 C   0  0  0  0  0  0  0  0  0  0  0  0
   36.8410   22.5210   31.9240 C   0  0  0  0  0  0  0  0  0  0  0  0
   37.3220   21.7600   33.0060 C   0  0  0  0  0  0  0  0  0  0  0  0
   36.5630   20.7390   33.4850 N   0  0  0  0  0  0  0  0  0  0  0  0
   35.3660   20.4350   32.9530 C   0  0  0  0  0  0  0  0  0  0  0  0
   34.8780   21.1410   31.9200 N   0  0  0  0  0  0  0  0  0  0  0  0
   35.1760   22.7170   30.5750 H   0  0  0  0  0  0  0  0  0  0  0  0
   38.2910   22.0010   33.4420 H   0  0  0  0  0  0  0  0  0  0  0  0
   34.7340   19.6260   33.3110 H   0  0  0  0  0  0  0  0  0  0  0  0
   36.9480   25.0810   33.1720 O   0  0  0  0  0  0  0  0  0  0  0  0
   35.9430   25.1640   33.1950 H   0  0  0  0  0  0  0  0  0  0  0  0
  3  2  1  0  0  0  0
  4  1  1  0  0  0  0
  4  3  2  0  0  0  0
  5  4  1  0  0  0  0
  6  5  2  0  0  0  0
  6  7  1  0  0  0  0
  7  8  2  0  0  0  0
  8  3  1  0  0  0  0
  8 14  1  0  0  0  0
  9  5  1  0  0  0  0
 10  6  1  0  0  0  0
 11  7  1  0  0  0  0
 12 13  1  0  0  0  0
 13 20  1  0  0  0  0
 14 13  2  0  0  0  0
 14 15  1  0  0  0  0
 15 17  2  0  0  0  0
 16 15  1  0  0  0  0
 17 18  1  0  0  0  0
 18 19  1  0  0  0  0
 20 21  1  0  0  0  0
 20 18  2  0  0  0  0
 22 40  1  0  0  0  0
 23 32  1  0  0  0  0
 23 22  2  0  0  0  0
 24 23  1  0  0  0  0
 25 24  2  0  0  0  0
 25 26  1  0  0  0  0
 26 27  2  0  0  0  0
 27 22  1  0  0  0  0
 27  1  1  0  0  0  0
 28 24  1  0  0  0  0
 29 25  1  0  0  0  0
 30 26  1  0  0  0  0
 31 36  2  0  0  0  0
 31 32  1  0  0  0  0
 32 33  2  0  0  0  0
 33 38  1  0  0  0  0
 33 34  1  0  0  0  0
 35 39  1  0  0  0  0
 35 34  2  0  0  0  0
 36 35  1  0  0  0  0
 37 31  1  0  0  0  0
 40 41  1  0  0  0  0
M  END
>  <minimizedAffinity>
-6.22820473

$$$$

 OpenBabel03272501243D

 41 44  0  0  0  0  0  0  0  0999 V2000
   35.6860   28.1050   31.3660 O   0  0  0  0  0  0  0  0  0  0  0  0
   34.4010   29.3400   33.8140 Cl  0  0  0  0  0  0  0  0  0  0  0  0
   35.4110   30.2060   32.6700 C   0  0  0  0  0  0  0  0  0  0  0  0
   35.9020   29.4330   31.6080 C   0  0  0  0  0  0  0  0  0  0  0  0
   36.6960   30.0830   30.6960 C   0  0  0  0  0  0  0  0  0  0  0  0
   37.0260   31.4190   30.7690 C   0  0  0  0  0  0  0  0  0  0  0  0
   36.5350   32.1650   31.8210 C   0  0  0  0  0  0  0  0  0  0  0  0
   35.7370   31.5560   32.7560 C   0  0  0  0  0  0  0  0  0  0  0  0
   37.1320   29.5790   29.8300 H   0  0  0  0  0  0  0  0  0  0  0  0
   37.6540   31.9340   30.0490 H   0  0  0  0  0  0  0  0  0  0  0  0
   36.7180   33.2220   31.9960 H   0  0  0  0  0  0  0  0  0  0  0  0
   33.0220   32.9380   32.5500 Cl  0  0  0  0  0  0  0  0  0  0  0  0
   33.9300   32.8440   34.0390 C   0  0  0  0  0  0  0  0  0  0  0  0
   35.1330   32.1790   33.9260 C   0  0  0  0  0  0  0  0  0  0  0  0
   35.9500   32.0340   35.0370 C   0  0  0  0  0  0  0  0  0  0  0  0
   36.9190   31.5330   35.0820 H   0  0  0  0  0  0  0  0  0  0  0  0
   35.5670   32.5570   36.2760 C   0  0  0  0  0  3  0  0  0  0  0  0
   34.3620   33.2190   36.3740 C   0  0  0  0  0  0  0  0  0  0  0  0
   33.7890   33.9150   37.8880 Cl  0  0  0  0  0  0  0  0  0  0  0  0
   33.5550   33.3590   35.2620 C   0  0  0  0  0  0  0  0  0  0  0  0
   32.5970   33.8610   35.2500 H   0  0  0  0  0  0  0  0  0  0  0  0
   36.2630   25.7620   31.5730 C   0  0  0  0  0  0  0  0  0  0  0  0
   36.9210   24.6800   32.1500 C   0  0  0  0  0  0  0  0  0  0  0  0
   37.7440   24.9920   33.2260 C   0  0  0  0  0  0  0  0  0  0  0  0
   37.8760   26.3130   33.6670 C   0  0  0  0  0  0  0  0  0  0  0  0
   37.1910   27.3320   33.0460 C   0  0  0  0  0  0  0  0  0  0  0  0
   36.3750   27.0520   31.9840 C   0  0  0  0  0  0  0  0  0  0  0  0
   38.2610   24.1580   33.6820 H   0  0  0  0  0  0  0  0  0  0  0  0
   38.5410   26.4720   34.5170 H   0  0  0  0  0  0  0  0  0  0  0  0
   37.3310   28.3380   33.4290 H   0  0  0  0  0  0  0  0  0  0  0  0
   37.7930   22.6960   30.9920 C   0  0  0  0  0  0  0  0  0  0  0  0
   36.7710   23.3430   31.6820 C   0  0  0  0  0  0  0  0  0  0  0  0
   35.5890   22.6080   31.8900 C   0  0  0  0  0  0  0  0  0  0  0  0
   35.5110   21.3360   31.4160 N   0  0  0  0  0  0  0  0  0  0  0  0
   36.5320   20.7610   30.7560 C   0  0  0  0  0  0  0  0  0  0  0  0
   37.6730   21.4350   30.5410 N   0  0  0  0  0  0  0  0  0  0  0  0
   38.7320   23.2220   30.8040 H   0  0  0  0  0  0  0  0  0  0  0  0
   34.7580   23.0670   32.4230 H   0  0  0  0  0  0  0  0  0  0  0  0
   36.5040   19.7470   30.3640 H   0  0  0  0  0  0  0  0  0  0  0  0
   35.4080   25.5380   30.4790 O   0  0  0  0  0  0  0  0  0  0  0  0
   35.7660   25.3190   29.5620 H   0  0  0  0  0  0  0  0  0  0  0  0
  1  4  1  0  0  0  0
  1 27  1  0  0  0  0
  3  8  1  0  0  0  0
  3  2  1  0  0  0  0
  4  3  2  0  0  0  0
  5  6  2  0  0  0  0
  5  4  1  0  0  0  0
  6  7  1  0  0  0  0
  7 11  1  0  0  0  0
  7  8  2  0  0  0  0
  8 14  1  0  0  0  0
  9  5  1  0  0  0  0
 10  6  1  0  0  0  0
 12 13  1  0  0  0  0
 13 20  1  0  0  0  0
 14 13  2  0  0  0  0
 14 15  1  0  0  0  0
 15 16  1  0  0  0  0
 15 17  2  0  0  0  0
 17 18  1  0  0  0  0
 18 19  1  0  0  0  0
 20 18  2  0  0  0  0
 21 20  1  0  0  0  0
 22 27  2  0  0  0  0
 22 23  1  0  0  0  0
 23 24  2  0  0  0  0
 24 25  1  0  0  0  0
 24 28  1  0  0  0  0
 25 29  1  0  0  0  0
 26 30  1  0  0  0  0
 26 25  2  0  0  0  0
 27 26  1  0  0  0  0
 31 32  1  0  0  0  0
 32 33  2  0  0  0  0
 32 23  1  0  0  0  0
 33 38  1  0  0  0  0
 34 33  1  0  0  0  0
 35 34  2  0  0  0  0
 36 35  1  0  0  0  0
 36 31  2  0  0  0  0
 37 31  1  0  0  0  0
 39 35  1  0  0  0  0
 40 22  1  0  0  0  0
 41 40  1  0  0  0  0
M  END
>  <minimizedAffinity>
-6.17357159

$$$$

 OpenBabel03272501243D

 41 44  0  0  0  0  0  0  0  0999 V2000
   37.3980   28.2380   32.2760 O   0  0  0  0  0  0  0  0  0  0  0  0
   39.2020   26.8770   34.2930 Cl  0  0  0  0  0  0  0  0  0  0  0  0
   38.0670   26.0450   33.2440 C   0  0  0  0  0  0  0  0  0  0  0  0
   37.3320   26.8770   32.3870 C   0  0  0  0  0  0  0  0  0  0  0  0
   36.4350   26.2550   31.5540 C   0  0  0  0  0  0  0  0  0  0  0  0
   36.2260   24.8940   31.5180 C   0  0  0  0  0  0  0  0  0  0  0  0
   36.9580   24.0900   32.3690 C   0  0  0  0  0  0  0  0  0  0  0  0
   37.8650   24.6690   33.2180 C   0  0  0  0  0  0  0  0  0  0  0  0
   35.8110   26.8050   30.8460 H   0  0  0  0  0  0  0  0  0  0  0  0
   35.5170   24.4010   30.8600 H   0  0  0  0  0  0  0  0  0  0  0  0
   36.8910   23.0080   32.4410 H   0  0  0  0  0  0  0  0  0  0  0  0
   40.6440   23.6970   32.4080 Cl  0  0  0  0  0  0  0  0  0  0  0  0
   39.9910   23.4760   34.0130 C   0  0  0  0  0  0  0  0  0  0  0  0
   38.7200   23.9850   34.1800 C   0  0  0  0  0  0  0  0  0  0  0  0
   38.0870   23.8760   35.4090 C   0  0  0  0  0  0  0  0  0  0  0  0
   37.0900   24.2340   35.6720 H   0  0  0  0  0  0  0  0  0  0  0  0
   38.7260   23.2510   36.4850 C   0  0  0  0  0  3  0  0  0  0  0  0
   39.9960   22.7480   36.3030 C   0  0  0  0  0  0  0  0  0  0  0  0
   40.8850   21.9440   37.5940 Cl  0  0  0  0  0  0  0  0  0  0  0  0
   40.6180   22.8610   35.0760 C   0  0  0  0  0  0  0  0  0  0  0  0
   41.6100   22.4960   34.8470 H   0  0  0  0  0  0  0  0  0  0  0  0
   35.6340   29.3490   33.5090 C   0  0  0  0  0  0  0  0  0  0  0  0
   34.5390   30.1980   33.6380 C   0  0  0  0  0  0  0  0  0  0  0  0
   34.1310   30.8220   32.4650 C   0  0  0  0  0  0  0  0  0  0  0  0
   34.8010   30.5880   31.2590 C   0  0  0  0  0  0  0  0  0  0  0  0
   35.8780   29.7320   31.2090 C   0  0  0  0  0  0  0  0  0  0  0  0
   36.2990   29.1060   32.3490 C   0  0  0  0  0  0  0  0  0  0  0  0
   33.2810   31.4850   32.5540 H   0  0  0  0  0  0  0  0  0  0  0  0
   34.4170   31.1170   30.3860 H   0  0  0  0  0  0  0  0  0  0  0  0
   36.3600   29.5880   30.2480 H   0  0  0  0  0  0  0  0  0  0  0  0
   34.2920   31.4170   35.7580 C   0  0  0  0  0  0  0  0  0  0  0  0
   33.8740   30.4210   34.8780 C   0  0  0  0  0  0  0  0  0  0  0  0
   32.7660   29.6520   35.2800 C   0  0  0  0  0  0  0  0  0  0  0  0
   32.1780   29.9160   36.4770 N   0  0  0  0  0  0  0  0  0  0  0  0
   32.6250   30.8930   37.2870 C   0  0  0  0  0  0  0  0  0  0  0  0
   33.6800   31.6440   36.9330 N   0  0  0  0  0  0  0  0  0  0  0  0
   35.1480   32.0430   35.4940 H   0  0  0  0  0  0  0  0  0  0  0  0
   32.3990   28.8600   34.6290 H   0  0  0  0  0  0  0  0  0  0  0  0
   32.1790   31.1310   38.2490 H   0  0  0  0  0  0  0  0  0  0  0  0
   36.1150   28.6750   34.6450 O   0  0  0  0  0  0  0  0  0  0  0  0
   36.6240   29.1550   35.3720 H   0  0  0  0  0  0  0  0  0  0  0  0
  1 27  1  0  0  0  0
  1  4  1  0  0  0  0
  3  2  1  0  0  0  0
  4  3  2  0  0  0  0
  5  4  1  0  0  0  0
  6  5  2  0  0  0  0
  6  7  1  0  0  0  0
  7 11  1  0  0  0  0
  7  8  2  0  0  0  0
  8  3  1  0  0  0  0
  8 14  1  0  0  0  0
  9  5  1  0  0  0  0
 10  6  1  0  0  0  0
 12 13  1  0  0  0  0
 13 14  2  0  0  0  0
 13 20  1  0  0  0  0
 14 15  1  0  0  0  0
 15 16  1  0  0  0  0
 15 17  2  0  0  0  0
 18 17  1  0  0  0  0
 18 19  1  0  0  0  0
 20 18  2  0  0  0  0
 21 20  1  0  0  0  0
 22 23  1  0  0  0  0
 22 40  1  0  0  0  0
 23 32  1  0  0  0  0
 24 28  1  0  0  0  0
 24 23  2  0  0  0  0
 25 24  1  0  0  0  0
 26 25  2  0  0  0  0
 26 27  1  0  0  0  0
 27 22  2  0  0  0  0
 29 25  1  0  0  0  0
 30 26  1  0  0  0  0
 31 36  1  0  0  0  0
 32 33  1  0  0  0  0
 32 31  2  0  0  0  0
 33 34  2  0  0  0  0
 34 35  1  0  0  0  0
 35 39  1  0  0  0  0
 36 35  2  0  0  0  0
 37 31  1  0  0  0  0
 38 33  1  0  0  0  0
 40 41  1  0  0  0  0
M  END
>  <minimizedAffinity>
-6.09247494

$$$$

 OpenBabel03272501243D

 41 44  0  0  0  0  0  0  0  0999 V2000
   36.8510   26.4910   32.3780 O   0  0  0  0  0  0  0  0  0  0  0  0
   38.3770   23.9790   33.1070 Cl  0  0  0  0  0  0  0  0  0  0  0  0
   38.2050   25.3820   34.1470 C   0  0  0  0  0  0  0  0  0  0  0  0
   37.4550   26.4350   33.6030 C   0  0  0  0  0  0  0  0  0  0  0  0
   37.3030   27.5470   34.3930 C   0  0  0  0  0  0  0  0  0  0  0  0
   37.8350   27.6790   35.6570 C   0  0  0  0  0  0  0  0  0  0  0  0
   38.5720   26.6340   36.1770 C   0  0  0  0  0  0  0  0  0  0  0  0
   38.7490   25.5030   35.4220 C   0  0  0  0  0  0  0  0  0  0  0  0
   36.7380   28.4250   34.0710 H   0  0  0  0  0  0  0  0  0  0  0  0
   37.7160   28.5590   36.2830 H   0  0  0  0  0  0  0  0  0  0  0  0
   39.0440   26.6090   37.1550 H   0  0  0  0  0  0  0  0  0  0  0  0
   37.4190   23.3130   37.0840 Cl  0  0  0  0  0  0  0  0  0  0  0  0
   39.0770   23.2190   36.5400 C   0  0  0  0  0  0  0  0  0  0  0  0
   39.4910   24.3080   35.8020 C   0  0  0  0  0  0  0  0  0  0  0  0
   40.7860   24.3570   35.3090 C   0  0  0  0  0  0  0  0  0  0  0  0
   41.2370   25.1540   34.7150 H   0  0  0  0  0  0  0  0  0  0  0  0
   41.6810   23.3100   35.5530 C   0  0  0  0  0  3  0  0  0  0  0  0
   41.2530   22.2280   36.2920 C   0  0  0  0  0  0  0  0  0  0  0  0
   42.3010   20.8600   36.6550 Cl  0  0  0  0  0  0  0  0  0  0  0  0
   39.9610   22.1880   36.7790 C   0  0  0  0  0  0  0  0  0  0  0  0
   39.5440   21.3810   37.3650 H   0  0  0  0  0  0  0  0  0  0  0  0
   38.0780   27.5660   30.5880 C   0  0  0  0  0  0  0  0  0  0  0  0
   38.2980   28.5630   29.6430 C   0  0  0  0  0  0  0  0  0  0  0  0
   37.3380   29.5680   29.6080 C   0  0  0  0  0  0  0  0  0  0  0  0
   36.2430   29.5430   30.4770 C   0  0  0  0  0  0  0  0  0  0  0  0
   36.0930   28.5230   31.3880 C   0  0  0  0  0  0  0  0  0  0  0  0
   37.0230   27.5210   31.4430 C   0  0  0  0  0  0  0  0  0  0  0  0
   37.5000   30.3490   28.8760 H   0  0  0  0  0  0  0  0  0  0  0  0
   35.5370   30.3700   30.3840 H   0  0  0  0  0  0  0  0  0  0  0  0
   35.2240   28.5530   32.0370 H   0  0  0  0  0  0  0  0  0  0  0  0
   39.3920   27.8970   27.5460 C   0  0  0  0  0  0  0  0  0  0  0  0
   39.4210   28.5660   28.7680 C   0  0  0  0  0  0  0  0  0  0  0  0
   40.6150   29.2400   29.0870 C   0  0  0  0  0  0  0  0  0  0  0  0
   41.6500   29.2010   28.2070 N   0  0  0  0  0  0  0  0  0  0  0  0
   41.5650   28.5390   27.0390 C   0  0  0  0  0  0  0  0  0  0  0  0
   40.4410   27.8860   26.7040 N   0  0  0  0  0  0  0  0  0  0  0  0
   38.4900   27.3580   27.2490 H   0  0  0  0  0  0  0  0  0  0  0  0
   40.6910   29.7780   30.0300 H   0  0  0  0  0  0  0  0  0  0  0  0
   42.3730   28.4880   26.3130 H   0  0  0  0  0  0  0  0  0  0  0  0
   38.9990   26.5090   30.6940 O   0  0  0  0  0  0  0  0  0  0  0  0
   39.0540   25.7800   29.9990 H   0  0  0  0  0  0  0  0  0  0  0  0
  1  4  1  0  0  0  0
  2  3  1  0  0  0  0
  3  8  1  0  0  0  0
  4  3  2  0  0  0  0
  4  5  1  0  0  0  0
  5  6  2  0  0  0  0
  6  7  1  0  0  0  0
  6 10  1  0  0  0  0
  7 11  1  0  0  0  0
  8 14  1  0  0  0  0
  8  7  2  0  0  0  0
  9  5  1  0  0  0  0
 13 20  1  0  0  0  0
 13 12  1  0  0  0  0
 14 13  2  0  0  0  0
 15 17  2  0  0  0  0
 15 14  1  0  0  0  0
 16 15  1  0  0  0  0
 17 18  1  0  0  0  0
 18 19  1  0  0  0  0
 18 20  2  0  0  0  0
 20 21  1  0  0  0  0
 22 40  1  0  0  0  0
 22 27  1  0  0  0  0
 23 22  2  0  0  0  0
 24 23  1  0  0  0  0
 24 25  2  0  0  0  0
 25 26  1  0  0  0  0
 26 27  2  0  0  0  0
 26 30  1  0  0  0  0
 27  1  1  0  0  0  0
 28 24  1  0  0  0  0
 29 25  1  0  0  0  0
 31 32  1  0  0  0  0
 32 33  2  0  0  0  0
 32 23  1  0  0  0  0
 33 38  1  0  0  0  0
 34 33  1  0  0  0  0
 35 34  2  0  0  0  0
 36 35  1  0  0  0  0
 36 31  2  0  0  0  0
 37 31  1  0  0  0  0
 39 35  1  0  0  0  0
 41 40  1  0  0  0  0
M  END
>  <minimizedAffinity>
-6.07659388

$$$$

 OpenBabel03272501243D

 41 44  0  0  0  0  0  0  0  0999 V2000
   38.7600   24.3220   31.3300 O   0  0  0  0  0  0  0  0  0  0  0  0
   38.8700   27.3190   31.7540 Cl  0  0  0  0  0  0  0  0  0  0  0  0
   37.4120   26.4140   31.3870 C   0  0  0  0  0  0  0  0  0  0  0  0
   37.5960   25.0320   31.2290 C   0  0  0  0  0  0  0  0  0  0  0  0
   36.4730   24.2970   30.9410 C   0  0  0  0  0  0  0  0  0  0  0  0
   35.2100   24.8310   30.8010 C   0  0  0  0  0  0  0  0  0  0  0  0
   35.0480   26.1930   30.9580 C   0  0  0  0  0  0  0  0  0  0  0  0
   36.1440   26.9660   31.2480 C   0  0  0  0  0  0  0  0  0  0  0  0
   36.5000   23.2140   30.7980 H   0  0  0  0  0  0  0  0  0  0  0  0
   34.3220   24.2510   30.5720 H   0  0  0  0  0  0  0  0  0  0  0  0
   34.1130   26.7390   30.8750 H   0  0  0  0  0  0  0  0  0  0  0  0
   37.1460   28.8230   29.0400 Cl  0  0  0  0  0  0  0  0  0  0  0  0
   36.5740   29.4050   30.5850 C   0  0  0  0  0  0  0  0  0  0  0  0
   36.1640   28.4100   31.4460 C   0  0  0  0  0  0  0  0  0  0  0  0
   35.6870   28.7390   32.7060 C   0  0  0  0  0  0  0  0  0  0  0  0
   35.3330   28.0530   33.4780 H   0  0  0  0  0  0  0  0  0  0  0  0
   35.6160   30.0750   33.1140 C   0  0  0  0  0  3  0  0  0  0  0  0
   36.0290   31.0590   32.2410 C   0  0  0  0  0  0  0  0  0  0  0  0
   35.9800   32.7700   32.6590 Cl  0  0  0  0  0  0  0  0  0  0  0  0
   36.5030   30.7210   30.9890 C   0  0  0  0  0  0  0  0  0  0  0  0
   36.8450   31.4270   30.2450 H   0  0  0  0  0  0  0  0  0  0  0  0
   39.2160   24.1210   33.6990 C   0  0  0  0  0  0  0  0  0  0  0  0
   40.0360   24.1430   34.8240 C   0  0  0  0  0  0  0  0  0  0  0  0
   41.3730   24.4360   34.5770 C   0  0  0  0  0  0  0  0  0  0  0  0
   41.8220   24.6830   33.2760 C   0  0  0  0  0  0  0  0  0  0  0  0
   40.9510   24.6430   32.2120 C   0  0  0  0  0  0  0  0  0  0  0  0
   39.6310   24.3580   32.4280 C   0  0  0  0  0  0  0  0  0  0  0  0
   42.0190   24.4560   35.4450 H   0  0  0  0  0  0  0  0  0  0  0  0
   42.8860   24.9040   33.1700 H   0  0  0  0  0  0  0  0  0  0  0  0
   41.3550   24.8420   31.2250 H   0  0  0  0  0  0  0  0  0  0  0  0
   38.4970   24.6170   36.6800 C   0  0  0  0  0  0  0  0  0  0  0  0
   39.5530   23.8880   36.1390 C   0  0  0  0  0  0  0  0  0  0  0  0
   40.1130   22.8910   36.9600 C   0  0  0  0  0  0  0  0  0  0  0  0
   39.6050   22.7010   38.2070 N   0  0  0  0  0  0  0  0  0  0  0  0
   38.5820   23.4360   38.6760 C   0  0  0  0  0  0  0  0  0  0  0  0
   38.0250   24.3940   37.9190 N   0  0  0  0  0  0  0  0  0  0  0  0
   38.0250   25.4030   36.0840 H   0  0  0  0  0  0  0  0  0  0  0  0
   40.9430   22.2920   36.5870 H   0  0  0  0  0  0  0  0  0  0  0  0
   38.1510   23.3100   39.6670 H   0  0  0  0  0  0  0  0  0  0  0  0
   37.8490   23.8340   33.8560 O   0  0  0  0  0  0  0  0  0  0  0  0
   37.5220   22.9020   34.0630 H   0  0  0  0  0  0  0  0  0  0  0  0
  1 27  1  0  0  0  0
  3  2  1  0  0  0  0
  4  1  1  0  0  0  0
  4  3  2  0  0  0  0
  5  4  1  0  0  0  0
  6  5  2  0  0  0  0
  6  7  1  0  0  0  0
  7  8  2  0  0  0  0
  8  3  1  0  0  0  0
  8 14  1  0  0  0  0
  9  5  1  0  0  0  0
 10  6  1  0  0  0  0
 11  7  1  0  0  0  0
 12 13  1  0  0  0  0
 13 20  2  0  0  0  0
 13 14  1  0  0  0  0
 14 15  2  0  0  0  0
 15 17  1  0  0  0  0
 15 16  1  0  0  0  0
 18 19  1  0  0  0  0
 18 17  2  0  0  0  0
 20 18  1  0  0  0  0
 21 20  1  0  0  0  0
 22 40  1  0  0  0  0
 22 23  1  0  0  0  0
 23 32  1  0  0  0  0
 24 23  2  0  0  0  0
 24 28  1  0  0  0  0
 25 24  1  0  0  0  0
 26 27  1  0  0  0  0
 26 25  2  0  0  0  0
 27 22  2  0  0  0  0
 29 25  1  0  0  0  0
 30 26  1  0  0  0  0
 31 36  1  0  0  0  0
 32 31  2  0  0  0  0
 32 33  1  0  0  0  0
 33 34  2  0  0  0  0
 34 35  1  0  0  0  0
 35 39  1  0  0  0  0
 36 35  2  0  0  0  0
 37 31  1  0  0  0  0
 38 33  1  0  0  0  0
 40 41  1  0  0  0  0
M  END
>  <minimizedAffinity>
-6.03983593

$$$$

 OpenBabel03272501243D

 41 44  0  0  0  0  0  0  0  0999 V2000
   38.3220   27.4200   32.3670 O   0  0  0  0  0  0  0  0  0  0  0  0
   36.4190   28.1300   34.6130 Cl  0  0  0  0  0  0  0  0  0  0  0  0
   36.3330   28.7820   32.9870 C   0  0  0  0  0  0  0  0  0  0  0  0
   37.3200   28.3130   32.1070 C   0  0  0  0  0  0  0  0  0  0  0  0
   37.2800   28.8060   30.8260 C   0  0  0  0  0  0  0  0  0  0  0  0
   36.3460   29.7130   30.3730 C   0  0  0  0  0  0  0  0  0  0  0  0
   35.3830   30.1650   31.2530 C   0  0  0  0  0  0  0  0  0  0  0  0
   35.3860   29.6980   32.5430 C   0  0  0  0  0  0  0  0  0  0  0  0
   37.9990   28.5090   30.0590 H   0  0  0  0  0  0  0  0  0  0  0  0
   36.3140   30.1040   29.3610 H   0  0  0  0  0  0  0  0  0  0  0  0
   34.5940   30.8760   31.0260 H   0  0  0  0  0  0  0  0  0  0  0  0
   36.0270   31.9890   34.4570 Cl  0  0  0  0  0  0  0  0  0  0  0  0
   34.5570   31.0500   34.5570 C   0  0  0  0  0  0  0  0  0  0  0  0
   34.4540   30.0600   33.6030 C   0  0  0  0  0  0  0  0  0  0  0  0
   33.3340   29.2430   33.5720 C   0  0  0  0  0  0  0  0  0  0  0  0
   33.1300   28.4290   32.8740 H   0  0  0  0  0  0  0  0  0  0  0  0
   32.3040   29.4130   34.5030 C   0  0  0  0  0  3  0  0  0  0  0  0
   32.4210   30.4070   35.4510 C   0  0  0  0  0  0  0  0  0  0  0  0
   31.1800   30.7010   36.6660 Cl  0  0  0  0  0  0  0  0  0  0  0  0
   33.5400   31.2150   35.4740 C   0  0  0  0  0  0  0  0  0  0  0  0
   33.7130   32.0160   36.1790 H   0  0  0  0  0  0  0  0  0  0  0  0
   38.7080   25.5090   33.8030 C   0  0  0  0  0  0  0  0  0  0  0  0
   38.5520   24.1810   34.1910 C   0  0  0  0  0  0  0  0  0  0  0  0
   37.7360   23.4150   33.3670 C   0  0  0  0  0  0  0  0  0  0  0  0
   37.1300   23.9760   32.2380 C   0  0  0  0  0  0  0  0  0  0  0  0
   37.3310   25.2990   31.9170 C   0  0  0  0  0  0  0  0  0  0  0  0
   38.1300   26.0750   32.7110 C   0  0  0  0  0  0  0  0  0  0  0  0
   37.6080   22.3810   33.6590 H   0  0  0  0  0  0  0  0  0  0  0  0
   36.5040   23.3060   31.6460 H   0  0  0  0  0  0  0  0  0  0  0  0
   36.8360   25.6810   31.0310 H   0  0  0  0  0  0  0  0  0  0  0  0
   38.5420   23.6250   36.5840 C   0  0  0  0  0  0  0  0  0  0  0  0
   39.1800   23.6330   35.3450 C   0  0  0  0  0  0  0  0  0  0  0  0
   40.4710   23.0730   35.3000 C   0  0  0  0  0  0  0  0  0  0  0  0
   41.0120   22.5690   36.4400 N   0  0  0  0  0  0  0  0  0  0  0  0
   40.3480   22.5870   37.6100 C   0  0  0  0  0  0  0  0  0  0  0  0
   39.1160   23.1140   37.6880 N   0  0  0  0  0  0  0  0  0  0  0  0
   37.5390   24.0470   36.6750 H   0  0  0  0  0  0  0  0  0  0  0  0
   41.0140   23.0550   34.3560 H   0  0  0  0  0  0  0  0  0  0  0  0
   40.7510   22.1930   38.5390 H   0  0  0  0  0  0  0  0  0  0  0  0
   39.5180   26.3570   34.5780 O   0  0  0  0  0  0  0  0  0  0  0  0
   39.2200   26.6970   35.4800 H   0  0  0  0  0  0  0  0  0  0  0  0
  1 27  1  0  0  0  0
  3  2  1  0  0  0  0
  4  1  1  0  0  0  0
  4  3  2  0  0  0  0
  5  4  1  0  0  0  0
  6  5  2  0  0  0  0
  6  7  1  0  0  0  0
  7  8  2  0  0  0  0
  8  3  1  0  0  0  0
  8 14  1  0  0  0  0
  9  5  1  0  0  0  0
 10  6  1  0  0  0  0
 11  7  1  0  0  0  0
 12 13  1  0  0  0  0
 13 20  1  0  0  0  0
 14 13  2  0  0  0  0
 15 14  1  0  0  0  0
 15 17  2  0  0  0  0
 16 15  1  0  0  0  0
 17 18  1  0  0  0  0
 18 20  2  0  0  0  0
 18 19  1  0  0  0  0
 20 21  1  0  0  0  0
 22 23  1  0  0  0  0
 22 40  1  0  0  0  0
 23 32  1  0  0  0  0
 24 28  1  0  0  0  0
 24 23  2  0  0  0  0
 25 24  1  0  0  0  0
 26 25  2  0  0  0  0
 26 27  1  0  0  0  0
 27 22  2  0  0  0  0
 29 25  1  0  0  0  0
 30 26  1  0  0  0  0
 31 37  1  0  0  0  0
 31 36  1  0  0  0  0
 32 31  2  0  0  0  0
 33 32  1  0  0  0  0
 33 34  2  0  0  0  0
 34 35  1  0  0  0  0
 35 36  2  0  0  0  0
 35 39  1  0  0  0  0
 38 33  1  0  0  0  0
 40 41  1  0  0  0  0
M  END
>  <minimizedAffinity>
-6.01813078

$$$$

 OpenBabel03272501243D

 41 44  0  0  0  0  0  0  0  0999 V2000
   37.9080   25.9680   33.0480 O   0  0  0  0  0  0  0  0  0  0  0  0
   38.8290   23.2350   33.9710 Cl  0  0  0  0  0  0  0  0  0  0  0  0
   39.7960   24.6970   34.0540 C   0  0  0  0  0  0  0  0  0  0  0  0
   39.1670   25.8530   33.5680 C   0  0  0  0  0  0  0  0  0  0  0  0
   39.8990   27.0130   33.6190 C   0  0  0  0  0  0  0  0  0  0  0  0
   41.1850   27.0980   34.1090 C   0  0  0  0  0  0  0  0  0  0  0  0
   41.7890   25.9510   34.5830 C   0  0  0  0  0  0  0  0  0  0  0  0
   41.0930   24.7690   34.5510 C   0  0  0  0  0  0  0  0  0  0  0  0
   39.5080   27.9710   33.2690 H   0  0  0  0  0  0  0  0  0  0  0  0
   41.7640   28.0150   34.1500 H   0  0  0  0  0  0  0  0  0  0  0  0
   42.7920   25.8800   34.9930 H   0  0  0  0  0  0  0  0  0  0  0  0
   42.6110   22.9220   32.6500 Cl  0  0  0  0  0  0  0  0  0  0  0  0
   42.2610   22.4990   34.3090 C   0  0  0  0  0  0  0  0  0  0  0  0
   41.5660   23.4670   35.0030 C   0  0  0  0  0  0  0  0  0  0  0  0
   41.2250   23.2550   36.3310 C   0  0  0  0  0  0  0  0  0  0  0  0
   40.6810   23.9350   36.9890 H   0  0  0  0  0  0  0  0  0  0  0  0
   41.5800   22.0660   36.9760 C   0  0  0  0  0  3  0  0  0  0  0  0
   42.2760   21.1080   36.2690 C   0  0  0  0  0  0  0  0  0  0  0  0
   42.7680   19.5780   36.9890 Cl  0  0  0  0  0  0  0  0  0  0  0  0
   42.6090   21.3280   34.9480 C   0  0  0  0  0  0  0  0  0  0  0  0
   43.1520   20.6330   34.3210 H   0  0  0  0  0  0  0  0  0  0  0  0
   36.6010   27.9190   33.6410 C   0  0  0  0  0  0  0  0  0  0  0  0
   35.9590   29.1250   33.3760 C   0  0  0  0  0  0  0  0  0  0  0  0
   36.0450   29.5660   32.0610 C   0  0  0  0  0  0  0  0  0  0  0  0
   36.7390   28.8210   31.1010 C   0  0  0  0  0  0  0  0  0  0  0  0
   37.3490   27.6350   31.4380 C   0  0  0  0  0  0  0  0  0  0  0  0
   37.2800   27.1790   32.7260 C   0  0  0  0  0  0  0  0  0  0  0  0
   35.5490   30.5030   31.8440 H   0  0  0  0  0  0  0  0  0  0  0  0
   36.7590   29.2380   30.0930 H   0  0  0  0  0  0  0  0  0  0  0  0
   37.8740   27.1000   30.6540 H   0  0  0  0  0  0  0  0  0  0  0  0
   35.9150   30.7790   35.1930 C   0  0  0  0  0  0  0  0  0  0  0  0
   35.2590   29.8640   34.3720 C   0  0  0  0  0  0  0  0  0  0  0  0
   33.8750   29.7130   34.5800 C   0  0  0  0  0  0  0  0  0  0  0  0
   33.2690   30.4500   35.5490 N   0  0  0  0  0  0  0  0  0  0  0  0
   33.9540   31.3190   36.3130 C   0  0  0  0  0  0  0  0  0  0  0  0
   35.2750   31.4870   36.1400 N   0  0  0  0  0  0  0  0  0  0  0  0
   36.9900   30.9350   35.0730 H   0  0  0  0  0  0  0  0  0  0  0  0
   33.3140   29.0110   33.9660 H   0  0  0  0  0  0  0  0  0  0  0  0
   33.5010   31.9240   37.0950 H   0  0  0  0  0  0  0  0  0  0  0  0
   36.5640   27.3970   34.9460 O   0  0  0  0  0  0  0  0  0  0  0  0
   37.1040   27.8020   35.6960 H   0  0  0  0  0  0  0  0  0  0  0  0
  1  4  1  0  0  0  0
  2  3  1  0  0  0  0
  3  8  1  0  0  0  0
  4  5  1  0  0  0  0
  4  3  2  0  0  0  0
  5  6  2  0  0  0  0
  6 10  1  0  0  0  0
  6  7  1  0  0  0  0
  7 11  1  0  0  0  0
  8  7  2  0  0  0  0
  8 14  1  0  0  0  0
  9  5  1  0  0  0  0
 12 13  1  0  0  0  0
 13 20  2  0  0  0  0
 13 14  1  0  0  0  0
 14 15  2  0  0  0  0
 15 17  1  0  0  0  0
 15 16  1  0  0  0  0
 18 17  2  0  0  0  0
 18 19  1  0  0  0  0
 20 18  1  0  0  0  0
 21 20  1  0  0  0  0
 22 40  1  0  0  0  0
 23 22  1  0  0  0  0
 23 32  1  0  0  0  0
 24 23  2  0  0  0  0
 25 26  2  0  0  0  0
 25 24  1  0  0  0  0
 26 27  1  0  0  0  0
 27  1  1  0  0  0  0
 27 22  2  0  0  0  0
 28 24  1  0  0  0  0
 29 25  1  0  0  0  0
 30 26  1  0  0  0  0
 31 36  1  0  0  0  0
 32 33  1  0  0  0  0
 32 31  2  0  0  0  0
 33 34  2  0  0  0  0
 34 35  1  0  0  0  0
 35 39  1  0  0  0  0
 36 35  2  0  0  0  0
 37 31  1  0  0  0  0
 38 33  1  0  0  0  0
 40 41  1  0  0  0  0
M  END
>  <minimizedAffinity>
-5.91876364

$$$$
