
 OpenBabel03272508483D

 41 45  0  0  0  0  0  0  0  0999 V2000
   35.5010   29.5220   49.6300 C   0  0  0  0  0  0  0  0  0  0  0  0
   36.5540   29.0680   50.4020 C   0  0  0  0  0  0  0  0  0  0  0  0
   37.6690   29.6240   49.7830 C   0  0  0  0  0  0  0  0  0  0  0  0
   37.2600   30.3700   48.6940 C   0  0  0  0  0  0  0  0  0  0  0  0
   35.9560   30.2800   48.6400 O   0  0  0  0  0  0  0  0  0  0  0  0
   36.5010   28.4430   51.2610 H   0  0  0  0  0  0  0  0  0  0  0  0
   38.6920   29.4590   50.1510 H   0  0  0  0  0  0  0  0  0  0  0  0
   38.5990   32.3430   48.1470 C   0  0  0  0  0  0  0  0  0  0  0  0
   38.1100   31.1100   47.7820 C   0  0  0  0  0  0  0  0  0  0  0  0
   38.4150   30.5470   46.5420 C   0  0  0  0  0  0  0  0  0  0  0  0
   39.2250   31.2270   45.6490 C   0  0  0  0  0  0  0  0  0  0  0  0
   39.6890   30.9630   44.4130 N   0  0  0  0  0  0  0  0  0  0  0  0
   40.4350   32.0040   44.0460 N   0  0  0  0  0  0  0  0  0  0  0  0
   40.4550   32.9320   45.0270 C   0  0  0  0  0  0  0  0  0  0  0  0
   39.6790   32.4530   46.0750 C   0  0  0  0  0  0  0  0  0  0  0  0
   39.4210   33.0600   47.2690 C   0  0  0  0  0  0  0  0  0  0  0  0
   38.3470   32.7690   49.1280 H   0  0  0  0  0  0  0  0  0  0  0  0
   38.0550   29.5760   46.2060 H   0  0  0  0  0  0  0  0  0  0  0  0
   39.4870   30.0990   43.8740 H   0  0  0  0  0  0  0  0  0  0  0  0
   40.9900   33.8950   45.0000 H   0  0  0  0  0  0  0  0  0  0  0  0
   39.7970   34.0130   47.5550 H   0  0  0  0  0  0  0  0  0  0  0  0
   34.1040   29.2080   49.8750 C   0  0  0  0  0  0  0  0  0  0  0  0
   33.5510   29.7400   50.8660 O   0  0  0  0  0  0  0  0  0  0  0  0
   31.3870   27.2500   48.4360 C   0  0  0  0  0  0  0  0  0  0  0  0
   32.0050   26.6160   47.3530 C   0  0  0  0  0  0  0  0  0  0  0  0
   33.3350   26.8470   47.1090 C   0  0  0  0  0  0  0  0  0  0  0  0
   33.9940   27.6920   47.9410 N   0  0  0  0  0  0  0  0  0  0  0  0
   33.3910   28.3000   48.9840 C   0  0  0  0  0  0  0  0  0  0  0  0
   32.0840   28.0760   49.2280 N   0  0  0  0  0  0  0  0  0  0  0  0
   30.3570   27.1010   48.6660 H   0  0  0  0  0  0  0  0  0  0  0  0
   31.4160   25.9620   46.7430 H   0  0  0  0  0  0  0  0  0  0  0  0
   34.2440   24.0470   47.6150 Cl  0  0  0  0  0  0  0  0  0  0  0  0
   34.4960   24.9200   46.1360 C   0  0  0  0  0  0  0  0  0  0  0  0
   34.0350   26.2160   45.9980 C   0  0  0  0  0  0  0  0  0  0  0  0
   34.2870   26.8020   44.7980 C   0  0  0  0  0  0  0  0  0  0  0  0
   33.9550   27.8110   44.6250 H   0  0  0  0  0  0  0  0  0  0  0  0
   34.9540   26.1710   43.7670 C   0  0  0  0  0  3  0  0  0  0  0  0
   35.4030   24.8710   43.9380 C   0  0  0  0  0  0  0  0  0  0  0  0
   36.2490   24.1190   42.5820 Cl  0  0  0  0  0  0  0  0  0  0  0  0
   35.1670   24.2320   45.1520 C   0  0  0  0  0  0  0  0  0  0  0  0
   35.5280   23.2210   45.2520 H   0  0  0  0  0  0  0  0  0  0  0  0
  1 22  1  0  0  0  0
  1  2  2  0  0  0  0
  2  6  1  0  0  0  0
  3  7  1  0  0  0  0
  3  2  1  0  0  0  0
  4  3  2  0  0  0  0
  5  4  1  0  0  0  0
  5  1  1  0  0  0  0
  8 17  1  0  0  0  0
  9  8  1  0  0  0  0
  9  4  1  0  0  0  0
 10  9  2  0  0  0  0
 11 15  2  0  0  0  0
 11 10  1  0  0  0  0
 12 11  1  0  0  0  0
 13 12  1  0  0  0  0
 13 14  2  0  0  0  0
 14 15  1  0  0  0  0
 15 16  1  0  0  0  0
 16 21  1  0  0  0  0
 16  8  2  0  0  0  0
 18 10  1  0  0  0  0
 19 12  1  0  0  0  0
 20 14  1  0  0  0  0
 22 23  2  0  0  0  0
 24 30  1  0  0  0  0
 24 29  1  0  0  0  0
 25 24  2  0  0  0  0
 26 25  1  0  0  0  0
 26 27  2  0  0  0  0
 27 28  1  0  0  0  0
 28 29  2  0  0  0  0
 28 22  1  0  0  0  0
 31 25  1  0  0  0  0
 33 32  1  0  0  0  0
 34 33  1  0  0  0  0
 34 26  1  0  0  0  0
 35 34  2  0  0  0  0
 36 35  1  0  0  0  0
 37 38  2  0  0  0  0
 37 35  1  0  0  0  0
 38 40  1  0  0  0  0
 39 38  1  0  0  0  0
 40 41  1  0  0  0  0
 40 33  2  0  0  0  0
M  END
>  <minimizedAffinity>
-6.83048964

>  <minimizedRMSD>
0.853136122

$$$$
