
 OpenBabel03272505003D

 29 31  0  0  0  0  0  0  0  0999 V2000
   37.3860   30.3010   46.6500 Cl  0  0  0  0  0  0  0  0  0  0  0  0
   38.1910   31.6640   47.3810 C   0  0  0  0  0  0  0  0  0  0  0  0
   38.0510   31.8670   48.7140 C   0  0  0  0  0  0  0  0  0  0  0  0
   38.7240   32.9780   49.2260 C   0  0  0  0  0  0  0  0  0  0  0  0
   39.4790   33.8070   48.4120 C   0  0  0  0  0  0  0  0  0  0  0  0
   39.5850   33.5480   47.0570 C   0  0  0  0  0  0  0  0  0  0  0  0
   38.9170   32.4410   46.5350 C   0  0  0  0  0  0  0  0  0  0  0  0
   38.6470   33.1900   50.2880 H   0  0  0  0  0  0  0  0  0  0  0  0
   39.9700   34.6460   48.8840 H   0  0  0  0  0  0  0  0  0  0  0  0
   40.1830   34.2130   46.4430 H   0  0  0  0  0  0  0  0  0  0  0  0
   41.3790   31.0130   45.8040 Cl  0  0  0  0  0  0  0  0  0  0  0  0
   40.2030   31.5940   44.6560 C   0  0  0  0  0  0  0  0  0  0  0  0
   39.0840   32.2510   45.1190 C   0  0  0  0  0  0  0  0  0  0  0  0
   38.1470   32.7140   44.2020 C   0  0  0  0  0  0  0  0  0  0  0  0
   37.2490   33.2400   44.5590 H   0  0  0  0  0  0  0  0  0  0  0  0
   38.3610   32.5020   42.8370 C   0  0  0  0  0  0  0  0  0  0  0  0
   39.5090   31.8290   42.4070 C   0  0  0  0  0  0  0  0  0  0  0  0
   39.7380   31.5840   40.6800 Cl  0  0  0  0  0  0  0  0  0  0  0  0
   40.4390   31.3690   43.3050 C   0  0  0  0  0  0  0  0  0  0  0  0
   41.3230   30.8500   42.9420 H   0  0  0  0  0  0  0  0  0  0  0  0
   37.8430   30.4090   50.7230 C   0  0  0  0  0  0  0  0  0  0  0  0
   37.2690   31.0250   49.6080 C   0  0  0  0  0  0  0  0  0  0  0  0
   35.9030   30.8020   49.3790 C   0  0  0  0  0  0  0  0  0  0  0  0
   35.2240   30.0050   50.2490 N   0  0  0  0  0  0  0  0  0  0  0  0
   35.8030   29.4300   51.3080 C   0  0  0  0  0  0  0  0  0  0  0  0
   37.1140   29.6330   51.5440 N   0  0  0  0  0  0  0  0  0  0  0  0
   38.9080   30.6160   50.8550 H   0  0  0  0  0  0  0  0  0  0  0  0
   35.4050   31.2410   48.5500 H   0  0  0  0  0  0  0  0  0  0  0  0
   35.2740   28.7950   52.0070 H   0  0  0  0  0  0  0  0  0  0  0  0
  1  2  1  0  0  0  0
  2  3  1  0  0  0  0
  3  4  2  0  0  0  0
  3 22  1  0  0  0  0
  4  8  1  0  0  0  0
  5  9  1  0  0  0  0
  5  4  1  0  0  0  0
  6  5  2  0  0  0  0
  7  6  1  0  0  0  0
  7  2  2  0  0  0  0
 10  6  1  0  0  0  0
 12 13  1  0  0  0  0
 12 11  1  0  0  0  0
 13  7  1  0  0  0  0
 14 15  1  0  0  0  0
 14 13  2  0  0  0  0
 16 14  1  0  0  0  0
 17 16  2  0  0  0  0
 17 19  1  0  0  0  0
 18 17  1  0  0  0  0
 19 12  2  0  0  0  0
 20 19  1  0  0  0  0
 21 27  1  0  0  0  0
 21 26  1  0  0  0  0
 22 21  2  0  0  0  0
 23 22  1  0  0  0  0
 23 24  2  0  0  0  0
 24 25  1  0  0  0  0
 25 26  2  0  0  0  0
 25 29  1  0  0  0  0
 28 23  1  0  0  0  0
M  END
>  <minimizedAffinity>
-6.2682786

>  <minimizedRMSD>
1.21690106

$$$$
