
 OpenBabel03272500303D

 29 31  0  0  0  0  0  0  0  0999 V2000
   36.5270   30.3940   45.7180 Cl  0  0  0  0  0  0  0  0  0  0  0  0
   36.6150   30.8220   47.4180 C   0  0  0  0  0  0  0  0  0  0  0  0
   37.7790   31.4470   47.8210 C   0  0  0  0  0  0  0  0  0  0  0  0
   37.8650   31.7970   49.1800 C   0  0  0  0  0  0  0  0  0  0  0  0
   36.8060   31.5040   50.0170 C   0  0  0  0  0  0  0  0  0  0  0  0
   35.6920   30.8840   49.5320 C   0  0  0  0  0  0  0  0  0  0  0  0
   35.5440   30.5170   48.2250 C   0  0  0  0  0  0  0  0  0  0  0  0
   38.7820   32.2860   49.4820 H   0  0  0  0  0  0  0  0  0  0  0  0
   36.9840   31.8210   51.0450 H   0  0  0  0  0  0  0  0  0  0  0  0
   34.8910   30.6790   50.2420 H   0  0  0  0  0  0  0  0  0  0  0  0
   35.0250   27.9030   49.5550 Cl  0  0  0  0  0  0  0  0  0  0  0  0
   34.0400   28.6450   48.3110 C   0  0  0  0  0  0  0  0  0  0  0  0
   34.3550   29.8630   47.7470 C   0  0  0  0  0  0  0  0  0  0  0  0
   33.6020   30.4760   46.7660 C   0  0  0  0  0  0  0  0  0  0  0  0
   33.8370   31.4280   46.3180 H   0  0  0  0  0  0  0  0  0  0  0  0
   32.4640   29.7800   46.3560 C   0  0  0  0  0  0  0  0  0  0  0  0
   32.0930   28.5460   46.8870 C   0  0  0  0  0  0  0  0  0  0  0  0
   30.6590   27.7220   46.3330 Cl  0  0  0  0  0  0  0  0  0  0  0  0
   32.9070   27.9890   47.8780 C   0  0  0  0  0  0  0  0  0  0  0  0
   32.5720   27.0280   48.2560 H   0  0  0  0  0  0  0  0  0  0  0  0
   40.1610   33.3380   45.8280 C   0  0  0  0  0  0  0  0  0  0  0  0
   40.8960   32.3640   45.1490 C   0  0  0  0  0  0  0  0  0  0  0  0
   40.5490   31.0310   45.3970 C   0  0  0  0  0  0  0  0  0  0  0  0
   39.5330   30.7610   46.2680 N   0  0  0  0  0  0  0  0  0  0  0  0
   38.8610   31.7300   46.8910 C   0  0  0  0  0  0  0  0  0  0  0  0
   39.1800   33.0180   46.6670 N   0  0  0  0  0  0  0  0  0  0  0  0
   40.3810   34.3790   45.6790 H   0  0  0  0  0  0  0  0  0  0  0  0
   41.6860   32.6820   44.4760 H   0  0  0  0  0  0  0  0  0  0  0  0
   41.0980   30.2680   44.8880 H   0  0  0  0  0  0  0  0  0  0  0  0
  1  2  1  0  0  0  0
  2  3  2  0  0  0  0
  2  7  1  0  0  0  0
  3  4  1  0  0  0  0
  4  8  1  0  0  0  0
  4  5  2  0  0  0  0
  5  9  1  0  0  0  0
  6  5  1  0  0  0  0
  6 10  1  0  0  0  0
  7  6  2  0  0  0  0
 12 11  1  0  0  0  0
 13  7  1  0  0  0  0
 13 12  2  0  0  0  0
 14 13  1  0  0  0  0
 15 14  1  0  0  0  0
 16 14  2  0  0  0  0
 16 17  1  0  0  0  0
 17 19  2  0  0  0  0
 18 17  1  0  0  0  0
 19 20  1  0  0  0  0
 19 12  1  0  0  0  0
 21 26  1  0  0  0  0
 22 23  1  0  0  0  0
 22 21  2  0  0  0  0
 23 24  2  0  0  0  0
 24 25  1  0  0  0  0
 25  3  1  0  0  0  0
 26 25  2  0  0  0  0
 27 21  1  0  0  0  0
 28 22  1  0  0  0  0
 29 23  1  0  0  0  0
M  END
>  <minimizedAffinity>
-6.40978479

>  <minimizedRMSD>
0.882393658

$$$$
