
 OpenBabel03272508373D

 45 48  0  0  1  0  0  0  0  0999 V2000
   39.9070   32.1180   42.6090 N   0  0  0  0  0  0  0  0  0  0  0  0
   39.1140   33.2870   42.5560 C   0  0  0  0  0  0  0  0  0  0  0  0
   37.7310   33.1360   42.0530 C   0  0  0  0  0  0  0  0  0  0  0  0
   37.6410   32.2310   40.9990 O   0  0  0  0  0  0  0  0  0  0  0  0
   38.1440   31.0200   41.3340 C   0  0  0  0  0  0  0  0  0  0  0  0
   39.6030   31.1230   41.6850 C   0  0  1  0  0  0  0  0  0  0  0  0
   39.6550   33.8330   41.7410 H   0  0  0  0  0  0  0  0  0  0  0  0
   39.2250   34.0420   43.3410 H   0  0  0  0  0  0  0  0  0  0  0  0
   37.5200   34.1030   41.4440 H   0  0  0  0  0  0  0  0  0  0  0  0
   36.8890   33.2400   42.7120 H   0  0  0  0  0  0  0  0  0  0  0  0
   37.5340   30.3590   41.9400 H   0  0  0  0  0  0  0  0  0  0  0  0
   38.1120   30.4790   40.3540 H   0  0  0  0  0  0  0  0  0  0  0  0
   39.6910   30.1660   42.3540 H   0  0  0  0  0  0  0  0  0  0  0  0
   41.7570   28.9030   42.0920 Cl  0  0  0  0  0  0  0  0  0  0  0  0
   41.4510   29.7630   40.6300 C   0  0  0  0  0  0  0  0  0  0  0  0
   40.4810   30.7440   40.5890 C   0  0  0  0  0  0  0  0  0  0  0  0
   40.4400   31.3200   39.3010 C   0  0  0  0  0  0  0  0  0  0  0  0
   39.7030   32.1240   39.1320 H   0  0  0  0  0  0  0  0  0  0  0  0
   41.2120   31.0060   38.2050 C   0  0  0  0  0  3  0  0  0  0  0  0
   42.1480   30.0090   38.3630 C   0  0  0  0  0  0  0  0  0  0  0  0
   43.1290   29.6040   36.9840 Cl  0  0  0  0  0  0  0  0  0  0  0  0
   42.2600   29.3950   39.5760 C   0  0  0  0  0  0  0  0  0  0  0  0
   43.0150   28.6220   39.6240 H   0  0  0  0  0  0  0  0  0  0  0  0
   40.3220   31.7200   43.9090 C   0  0  0  0  0  0  0  0  0  0  0  0
   41.4190   31.4800   43.9710 H   0  0  0  0  0  0  0  0  0  0  0  0
   39.8790   30.6820   44.0280 H   0  0  0  0  0  0  0  0  0  0  0  0
   39.9370   32.5150   45.0600 C   0  0  0  0  0  0  0  0  0  0  0  0
   40.8260   32.6440   45.7650 H   0  0  0  0  0  0  0  0  0  0  0  0
   39.5510   33.5220   45.0020 H   0  0  0  0  0  0  0  0  0  0  0  0
   37.8910   30.9400   47.5490 C   0  0  0  0  0  0  0  0  0  0  0  0
   37.0950   30.7890   46.4300 C   0  0  0  0  0  0  0  0  0  0  0  0
   37.7860   31.3650   45.3570 C   0  0  0  0  0  0  0  0  0  0  0  0
   38.9280   31.8240   45.8590 N   0  0  0  0  0  0  0  0  0  0  0  0
   38.9870   31.5680   47.1650 N   0  0  0  0  0  0  0  0  0  0  0  0
   36.1000   30.3010   46.4040 H   0  0  0  0  0  0  0  0  0  0  0  0
   37.3140   31.3270   44.4480 H   0  0  0  0  0  0  0  0  0  0  0  0
   37.5890   30.3340   51.2480 C   0  0  0  0  0  0  0  0  0  0  0  0
   38.0670   30.8670   50.0450 C   0  0  0  0  0  0  0  0  0  0  0  0
   37.4970   30.4630   48.8510 C   0  0  0  0  0  0  0  0  0  0  0  0
   36.4910   29.5520   48.9620 N   0  0  0  0  0  0  0  0  0  0  0  0
   36.0440   29.0490   50.1280 C   0  0  0  0  0  0  0  0  0  0  0  0
   36.6040   29.4510   51.2650 N   0  0  0  0  0  0  0  0  0  0  0  0
   38.1470   30.7590   52.0940 H   0  0  0  0  0  0  0  0  0  0  0  0
   38.8650   31.5900   49.9420 H   0  0  0  0  0  0  0  0  0  0  0  0
   35.2380   28.3300   50.1120 H   0  0  0  0  0  0  0  0  0  0  0  0
  1 24  1  0  0  0  0
  2  1  1  0  0  0  0
  2  8  1  0  0  0  0
  3  2  1  0  0  0  0
  3 10  1  0  0  0  0
  4  5  1  0  0  0  0
  4  3  1  0  0  0  0
  5  6  1  0  0  0  0
  5 11  1  0  0  0  0
  6 13  1  1  0  0  0
  6  1  1  0  0  0  0
  7  2  1  0  0  0  0
  9  3  1  0  0  0  0
 12  5  1  0  0  0  0
 15 14  1  0  0  0  0
 16 15  1  0  0  0  0
 16  6  1  0  0  0  0
 17 16  2  0  0  0  0
 18 17  1  0  0  0  0
 19 20  2  0  0  0  0
 19 17  1  0  0  0  0
 20 22  1  0  0  0  0
 21 20  1  0  0  0  0
 22 23  1  0  0  0  0
 22 15  2  0  0  0  0
 24 25  1  0  0  0  0
 24 26  1  0  0  0  0
 24 27  1  0  0  0  0
 27 28  1  0  0  0  0
 27 33  1  0  0  0  0
 29 27  1  0  0  0  0
 30 39  1  0  0  0  0
 31 30  1  0  0  0  0
 32 33  1  0  0  0  0
 32 31  2  0  0  0  0
 33 34  1  0  0  0  0
 34 30  2  0  0  0  0
 35 31  1  0  0  0  0
 36 32  1  0  0  0  0
 37 42  1  0  0  0  0
 37 43  1  0  0  0  0
 38 37  2  0  0  0  0
 39 40  2  0  0  0  0
 39 38  1  0  0  0  0
 40 41  1  0  0  0  0
 41 42  2  0  0  0  0
 44 38  1  0  0  0  0
 45 41  1  0  0  0  0
M  END
>  <minimizedAffinity>
-5.80207157

>  <minimizedRMSD>
1.77408159

$$$$
