
 OpenBabel03272508123D

 35 37  0  0  0  0  0  0  0  0999 V2000
   36.6510   29.5400   44.0470 Cl  0  0  0  0  0  0  0  0  0  0  0  0
   38.3020   29.9110   43.4910 C   0  0  0  0  0  0  0  0  0  0  0  0
   39.3140   30.3630   44.3190 C   0  0  0  0  0  0  0  0  0  0  0  0
   40.5430   30.6070   43.7420 C   0  0  0  0  0  0  0  0  0  0  0  0
   40.7550   30.4110   42.4010 C   0  0  0  0  0  0  0  0  0  0  0  0
   39.7640   29.9630   41.5670 C   0  0  0  0  0  0  0  0  0  0  0  0
   38.5410   29.7160   42.1190 C   0  0  0  0  0  0  0  0  0  0  0  0
   41.2950   30.9620   44.4510 H   0  0  0  0  0  0  0  0  0  0  0  0
   41.7730   30.6440   42.0850 H   0  0  0  0  0  0  0  0  0  0  0  0
   39.9930   29.8280   40.5200 H   0  0  0  0  0  0  0  0  0  0  0  0
   36.5800   31.6890   40.8640 Cl  0  0  0  0  0  0  0  0  0  0  0  0
   36.4970   29.9660   40.5890 C   0  0  0  0  0  0  0  0  0  0  0  0
   37.4700   29.2360   41.2410 C   0  0  0  0  0  0  0  0  0  0  0  0
   37.5250   27.8570   41.1140 C   0  0  0  0  0  0  0  0  0  0  0  0
   38.2350   27.1810   41.5710 H   0  0  0  0  0  0  0  0  0  0  0  0
   36.6010   27.1790   40.3230 C   0  0  0  0  0  3  0  0  0  0  0  0
   35.6200   27.9280   39.6670 C   0  0  0  0  0  0  0  0  0  0  0  0
   34.4270   27.1410   38.6590 Cl  0  0  0  0  0  0  0  0  0  0  0  0
   35.5800   29.3010   39.8060 C   0  0  0  0  0  0  0  0  0  0  0  0
   34.8390   29.9400   39.3200 H   0  0  0  0  0  0  0  0  0  0  0  0
   38.9190   30.5000   45.6170 O   0  0  0  0  0  0  0  0  0  0  0  0
   39.4660   32.5090   47.1380 O   0  0  0  0  0  0  0  0  0  0  0  0
   38.3370   31.8560   46.4240 P   0  0  1  0  0  0  0  0  0  0  0  0
   37.7660   32.8900   45.1920 O   0  0  0  0  0  0  0  0  0  0  0  0
   37.1790   32.4120   44.5710 H   0  0  0  0  0  0  0  0  0  0  0  0
   37.0570   31.4160   47.4320 O   0  0  0  0  0  0  0  0  0  0  0  0
   37.6070   30.5270   50.9810 C   0  0  0  0  0  0  0  0  0  0  0  0
   37.7150   31.3060   49.8140 C   0  0  0  0  0  0  0  0  0  0  0  0
   37.0910   30.8450   48.6520 C   0  0  0  0  0  0  0  0  0  0  0  0
   36.4120   29.6630   48.7170 N   0  0  0  0  0  0  0  0  0  0  0  0
   36.3330   28.9420   49.8580 C   0  0  0  0  0  0  0  0  0  0  0  0
   36.9370   29.3870   50.9850 N   0  0  0  0  0  0  0  0  0  0  0  0
   38.1200   30.9590   51.8290 H   0  0  0  0  0  0  0  0  0  0  0  0
   38.2250   32.2380   49.6850 H   0  0  0  0  0  0  0  0  0  0  0  0
   35.7860   28.0020   49.8850 H   0  0  0  0  0  0  0  0  0  0  0  0
  2  1  1  0  0  0  0
  2  3  1  0  0  0  0
  3 21  1  0  0  0  0
  4  3  2  0  0  0  0
  4  8  1  0  0  0  0
  5  4  1  0  0  0  0
  6  7  1  0  0  0  0
  6  5  2  0  0  0  0
  7  2  2  0  0  0  0
  9  5  1  0  0  0  0
 10  6  1  0  0  0  0
 12 11  1  0  0  0  0
 12 13  1  0  0  0  0
 13  7  1  0  0  0  0
 14 13  2  0  0  0  0
 14 15  1  0  0  0  0
 16 14  1  0  0  0  0
 17 19  1  0  0  0  0
 17 16  2  0  0  0  0
 18 17  1  0  0  0  0
 19 12  2  0  0  0  0
 20 19  1  0  0  0  0
 21 23  1  0  0  0  0
 23 22  2  1  0  0  0
 23 26  1  0  0  0  0
 24 23  1  0  0  0  0
 25 24  1  0  0  0  0
 26 29  1  0  0  0  0
 27 32  1  0  0  0  0
 27 33  1  0  0  0  0
 28 27  2  0  0  0  0
 29 30  2  0  0  0  0
 29 28  1  0  0  0  0
 30 31  1  0  0  0  0
 31 35  1  0  0  0  0
 31 32  2  0  0  0  0
 34 28  1  0  0  0  0
M  END
>  <minimizedAffinity>
-4.90026522

>  <minimizedRMSD>
0.5123083

$$$$
