
 OpenBabel03272506103D

 45 48  0  0  0  0  0  0  0  0999 V2000
   36.7390   26.6720   32.7020 C   0  0  0  0  0  0  0  0  0  0  0  0
   36.9820   26.8510   31.6040 H   0  0  0  0  0  0  0  0  0  0  0  0
   35.6640   26.4590   32.6930 H   0  0  0  0  0  0  0  0  0  0  0  0
   37.5590   25.4870   33.1360 C   0  0  0  0  0  0  0  0  0  0  0  0
   38.0870   24.5780   32.1570 C   0  0  0  0  0  0  0  0  0  0  0  0
   38.9360   23.4100   33.1760 S   0  0  0  0  0  0  0  0  0  0  0  0
   38.4920   24.2600   34.7810 C   0  0  0  0  0  0  0  0  0  0  0  0
   37.8580   25.1710   34.3580 N   0  0  0  0  0  0  0  0  0  0  0  0
   38.8080   23.9360   36.1620 N   0  0  0  0  0  0  0  0  0  0  0  0
   40.0380   23.2530   36.3840 C   0  0  0  0  0  0  0  0  0  0  0  0
   40.1270   22.5930   37.7240 C   0  0  0  0  0  0  0  0  0  0  0  0
   38.8790   22.6040   38.4740 N   0  0  0  0  0  0  0  0  0  0  0  0
   38.4740   23.9980   38.5350 C   0  0  0  0  0  0  0  0  0  0  0  0
   37.8710   24.3220   37.1990 C   0  0  0  0  0  0  0  0  0  0  0  0
   38.0260   24.5450   31.0720 H   0  0  0  0  0  0  0  0  0  0  0  0
   40.1610   22.4340   35.6270 H   0  0  0  0  0  0  0  0  0  0  0  0
   40.8790   23.9490   36.1840 H   0  0  0  0  0  0  0  0  0  0  0  0
   40.8530   23.2000   38.3300 H   0  0  0  0  0  0  0  0  0  0  0  0
   40.5660   21.5720   37.6830 H   0  0  0  0  0  0  0  0  0  0  0  0
   39.1170   22.2600   39.4320 H   0  0  0  0  0  0  0  0  0  0  0  0
   39.3190   24.6350   38.8120 H   0  0  0  0  0  0  0  0  0  0  0  0
   37.6720   24.0680   39.2890 H   0  0  0  0  0  0  0  0  0  0  0  0
   37.5310   25.3650   37.1090 H   0  0  0  0  0  0  0  0  0  0  0  0
   36.9780   23.6620   37.0740 H   0  0  0  0  0  0  0  0  0  0  0  0
   37.0350   27.8690   33.4920 C   0  0  0  0  0  0  0  0  0  0  0  0
   37.8430   28.4680   32.9790 H   0  0  0  0  0  0  0  0  0  0  0  0
   37.4170   27.7110   34.5140 H   0  0  0  0  0  0  0  0  0  0  0  0
   33.8360   29.5330   32.6520 C   0  0  0  0  0  0  0  0  0  0  0  0
   33.7280   30.4920   33.6500 C   0  0  0  0  0  0  0  0  0  0  0  0
   34.7550   30.5720   34.6220 C   0  0  0  0  0  0  0  0  0  0  0  0
   35.7920   29.7200   34.5420 N   0  0  0  0  0  0  0  0  0  0  0  0
   35.8430   28.7960   33.5350 C   0  0  0  0  0  0  0  0  0  0  0  0
   34.8930   28.6940   32.6030 N   0  0  0  0  0  0  0  0  0  0  0  0
   33.1480   29.3300   31.8310 H   0  0  0  0  0  0  0  0  0  0  0  0
   32.8310   31.0170   33.4760 H   0  0  0  0  0  0  0  0  0  0  0  0
   36.5820   33.0800   34.6010 Cl  0  0  0  0  0  0  0  0  0  0  0  0
   35.2520   32.7790   35.6890 C   0  0  0  0  0  0  0  0  0  0  0  0
   34.5180   31.6210   35.5920 C   0  0  0  0  0  0  0  0  0  0  0  0
   33.5160   31.5750   36.5240 C   0  0  0  0  0  0  0  0  0  0  0  0
   32.8430   30.7470   36.6030 H   0  0  0  0  0  0  0  0  0  0  0  0
   33.2550   32.5520   37.4510 C   0  0  0  0  0  3  0  0  0  0  0  0
   34.0270   33.6900   37.4980 C   0  0  0  0  0  0  0  0  0  0  0  0
   33.7000   34.9400   38.6780 Cl  0  0  0  0  0  0  0  0  0  0  0  0
   35.0550   33.8030   36.5870 C   0  0  0  0  0  0  0  0  0  0  0  0
   35.6460   34.7050   36.6440 H   0  0  0  0  0  0  0  0  0  0  0  0
  1  4  1  0  0  0  0
  1 25  1  0  0  0  0
  2  1  1  0  0  0  0
  3  1  1  0  0  0  0
  4  8  1  0  0  0  0
  5  4  2  0  0  0  0
  5  6  1  0  0  0  0
  6  7  1  0  0  0  0
  7  9  1  0  0  0  0
  8  7  2  0  0  0  0
  9 10  1  0  0  0  0
  9 14  1  0  0  0  0
 10 11  1  0  0  0  0
 11 18  1  0  0  0  0
 11 12  1  0  0  0  0
 12 13  1  0  0  0  0
 12 20  1  0  0  0  0
 13 21  1  0  0  0  0
 13 22  1  0  0  0  0
 14 13  1  0  0  0  0
 15  5  1  0  0  0  0
 16 10  1  0  0  0  0
 17 10  1  0  0  0  0
 19 11  1  0  0  0  0
 23 14  1  0  0  0  0
 24 14  1  0  0  0  0
 25 32  1  0  0  0  0
 25 27  1  0  0  0  0
 26 25  1  0  0  0  0
 28 29  1  0  0  0  0
 29 30  2  0  0  0  0
 30 38  1  0  0  0  0
 31 30  1  0  0  0  0
 32 31  2  0  0  0  0
 33 28  2  0  0  0  0
 33 32  1  0  0  0  0
 34 28  1  0  0  0  0
 35 29  1  0  0  0  0
 36 37  1  0  0  0  0
 37 44  1  0  0  0  0
 38 37  2  0  0  0  0
 38 39  1  0  0  0  0
 39 40  1  0  0  0  0
 39 41  2  0  0  0  0
 41 42  1  0  0  0  0
 42 43  1  0  0  0  0
 44 45  1  0  0  0  0
 44 42  2  0  0  0  0
M  END
>  <minimizedAffinity>
-6.61776733

$$$$

 OpenBabel03272506103D

 45 48  0  0  0  0  0  0  0  0999 V2000
   36.5220   25.4110   32.1840 C   0  0  0  0  0  0  0  0  0  0  0  0
   35.7020   24.8060   31.6770 H   0  0  0  0  0  0  0  0  0  0  0  0
   35.9760   26.0140   32.9200 H   0  0  0  0  0  0  0  0  0  0  0  0
   37.4550   24.4210   32.8260 C   0  0  0  0  0  0  0  0  0  0  0  0
   38.1140   23.4280   32.0240 C   0  0  0  0  0  0  0  0  0  0  0  0
   39.0550   22.5550   33.2390 S   0  0  0  0  0  0  0  0  0  0  0  0
   38.4640   23.6050   34.6690 C   0  0  0  0  0  0  0  0  0  0  0  0
   37.7460   24.3510   34.0880 N   0  0  0  0  0  0  0  0  0  0  0  0
   38.7680   23.5560   36.0900 N   0  0  0  0  0  0  0  0  0  0  0  0
   40.0590   23.0690   36.4420 C   0  0  0  0  0  0  0  0  0  0  0  0
   40.1770   22.6580   37.8760 C   0  0  0  0  0  0  0  0  0  0  0  0
   38.9110   22.6490   38.5960 N   0  0  0  0  0  0  0  0  0  0  0  0
   38.3500   23.9770   38.4120 C   0  0  0  0  0  0  0  0  0  0  0  0
   37.7590   23.9990   37.0320 C   0  0  0  0  0  0  0  0  0  0  0  0
   38.0950   23.2060   30.9600 H   0  0  0  0  0  0  0  0  0  0  0  0
   40.2990   22.1540   35.8380 H   0  0  0  0  0  0  0  0  0  0  0  0
   40.8220   23.8150   36.1380 H   0  0  0  0  0  0  0  0  0  0  0  0
   40.8080   23.4390   38.3790 H   0  0  0  0  0  0  0  0  0  0  0  0
   40.7290   21.7030   38.0160 H   0  0  0  0  0  0  0  0  0  0  0  0
   39.1540   22.5010   39.6010 H   0  0  0  0  0  0  0  0  0  0  0  0
   39.1070   24.7450   38.5880 H   0  0  0  0  0  0  0  0  0  0  0  0
   37.5190   24.0780   39.1310 H   0  0  0  0  0  0  0  0  0  0  0  0
   37.3070   24.9650   36.7600 H   0  0  0  0  0  0  0  0  0  0  0  0
   36.9500   23.2280   37.0090 H   0  0  0  0  0  0  0  0  0  0  0  0
   37.2060   26.2620   31.2070 C   0  0  0  0  0  0  0  0  0  0  0  0
   36.9290   25.9340   30.1630 H   0  0  0  0  0  0  0  0  0  0  0  0
   38.3080   26.2470   31.2170 H   0  0  0  0  0  0  0  0  0  0  0  0
   36.4370   29.7810   30.3510 C   0  0  0  0  0  0  0  0  0  0  0  0
   35.8370   30.2460   31.5140 C   0  0  0  0  0  0  0  0  0  0  0  0
   35.6900   29.3510   32.6010 C   0  0  0  0  0  0  0  0  0  0  0  0
   36.1350   28.0900   32.4680 N   0  0  0  0  0  0  0  0  0  0  0  0
   36.7190   27.6890   31.2980 C   0  0  0  0  0  0  0  0  0  0  0  0
   36.8730   28.5070   30.2540 N   0  0  0  0  0  0  0  0  0  0  0  0
   36.6310   30.3230   29.4260 H   0  0  0  0  0  0  0  0  0  0  0  0
   35.5890   31.2570   31.3480 H   0  0  0  0  0  0  0  0  0  0  0  0
   32.6290   29.0330   32.9910 Cl  0  0  0  0  0  0  0  0  0  0  0  0
   33.7180   29.9080   34.0360 C   0  0  0  0  0  0  0  0  0  0  0  0
   35.0600   29.9730   33.7480 C   0  0  0  0  0  0  0  0  0  0  0  0
   35.7470   30.6940   34.6870 C   0  0  0  0  0  0  0  0  0  0  0  0
   36.8030   30.8550   34.6280 H   0  0  0  0  0  0  0  0  0  0  0  0
   35.1880   31.2890   35.7900 C   0  0  0  0  0  3  0  0  0  0  0  0
   33.8350   31.1890   36.0230 C   0  0  0  0  0  0  0  0  0  0  0  0
   33.1150   31.9450   37.4260 Cl  0  0  0  0  0  0  0  0  0  0  0  0
   33.0810   30.4750   35.1160 C   0  0  0  0  0  0  0  0  0  0  0  0
   32.0240   30.4100   35.3210 H   0  0  0  0  0  0  0  0  0  0  0  0
  1  4  1  0  0  0  0
  1  3  1  0  0  0  0
  2  1  1  0  0  0  0
  4  8  1  0  0  0  0
  5  4  2  0  0  0  0
  5  6  1  0  0  0  0
  6  7  1  0  0  0  0
  7  9  1  0  0  0  0
  8  7  2  0  0  0  0
  9 10  1  0  0  0  0
  9 14  1  0  0  0  0
 10 11  1  0  0  0  0
 11 19  1  0  0  0  0
 11 18  1  0  0  0  0
 11 12  1  0  0  0  0
 12 20  1  0  0  0  0
 13 21  1  0  0  0  0
 13 12  1  0  0  0  0
 13 22  1  0  0  0  0
 14 13  1  0  0  0  0
 15  5  1  0  0  0  0
 16 10  1  0  0  0  0
 17 10  1  0  0  0  0
 23 14  1  0  0  0  0
 24 14  1  0  0  0  0
 25 27  1  0  0  0  0
 25 32  1  0  0  0  0
 25  1  1  0  0  0  0
 26 25  1  0  0  0  0
 28 29  1  0  0  0  0
 29 30  2  0  0  0  0
 30 38  1  0  0  0  0
 31 30  1  0  0  0  0
 32 31  2  0  0  0  0
 33 28  2  0  0  0  0
 33 32  1  0  0  0  0
 34 28  1  0  0  0  0
 35 29  1  0  0  0  0
 36 37  1  0  0  0  0
 37 44  1  0  0  0  0
 38 37  2  0  0  0  0
 38 39  1  0  0  0  0
 39 41  2  0  0  0  0
 40 39  1  0  0  0  0
 41 42  1  0  0  0  0
 42 43  1  0  0  0  0
 44 45  1  0  0  0  0
 44 42  2  0  0  0  0
M  END
>  <minimizedAffinity>
-6.61024904

$$$$

 OpenBabel03272506103D

 45 48  0  0  0  0  0  0  0  0999 V2000
   36.0390   23.2220   31.9190 C   0  0  0  0  0  0  0  0  0  0  0  0
   35.3870   22.3370   31.6230 H   0  0  0  0  0  0  0  0  0  0  0  0
   35.3960   23.7960   32.5970 H   0  0  0  0  0  0  0  0  0  0  0  0
   37.2480   22.6550   32.6130 C   0  0  0  0  0  0  0  0  0  0  0  0
   38.1160   21.7460   31.9180 C   0  0  0  0  0  0  0  0  0  0  0  0
   39.3300   21.3970   33.1540 S   0  0  0  0  0  0  0  0  0  0  0  0
   38.5460   22.4940   34.4490 C   0  0  0  0  0  0  0  0  0  0  0  0
   37.6150   22.8990   33.8320 N   0  0  0  0  0  0  0  0  0  0  0  0
   38.9280   22.7910   35.8200 N   0  0  0  0  0  0  0  0  0  0  0  0
   40.3210   22.7420   36.1100 C   0  0  0  0  0  0  0  0  0  0  0  0
   40.6280   22.6490   37.5720 C   0  0  0  0  0  0  0  0  0  0  0  0
   39.4580   22.4320   38.4100 N   0  0  0  0  0  0  0  0  0  0  0  0
   38.5350   23.5030   38.0740 C   0  0  0  0  0  0  0  0  0  0  0  0
   37.8870   23.1110   36.7770 C   0  0  0  0  0  0  0  0  0  0  0  0
   38.1020   21.3360   30.9110 H   0  0  0  0  0  0  0  0  0  0  0  0
   40.7770   21.8310   35.6400 H   0  0  0  0  0  0  0  0  0  0  0  0
   40.8240   23.5970   35.6120 H   0  0  0  0  0  0  0  0  0  0  0  0
   41.0390   23.6500   37.8740 H   0  0  0  0  0  0  0  0  0  0  0  0
   41.4350   21.9210   37.8060 H   0  0  0  0  0  0  0  0  0  0  0  0
   39.7870   22.5430   39.3960 H   0  0  0  0  0  0  0  0  0  0  0  0
   39.0520   24.4650   38.0440 H   0  0  0  0  0  0  0  0  0  0  0  0
   37.7500   23.5080   38.8500 H   0  0  0  0  0  0  0  0  0  0  0  0
   37.1660   23.8530   36.4020 H   0  0  0  0  0  0  0  0  0  0  0  0
   37.3300   22.1610   36.9630 H   0  0  0  0  0  0  0  0  0  0  0  0
   36.3980   24.0090   30.7380 C   0  0  0  0  0  0  0  0  0  0  0  0
   35.4590   24.3760   30.2300 H   0  0  0  0  0  0  0  0  0  0  0  0
   36.9550   23.4890   29.9410 H   0  0  0  0  0  0  0  0  0  0  0  0
   39.0960   26.4860   31.2780 C   0  0  0  0  0  0  0  0  0  0  0  0
   38.4140   27.5470   31.8580 C   0  0  0  0  0  0  0  0  0  0  0  0
   37.0190   27.4200   32.0660 C   0  0  0  0  0  0  0  0  0  0  0  0
   36.4100   26.2810   31.6960 N   0  0  0  0  0  0  0  0  0  0  0  0
   37.1350   25.2690   31.1290 C   0  0  0  0  0  0  0  0  0  0  0  0
   38.4500   25.3560   30.9190 N   0  0  0  0  0  0  0  0  0  0  0  0
   40.1580   26.4100   31.0470 H   0  0  0  0  0  0  0  0  0  0  0  0
   39.1250   28.3020   32.0480 H   0  0  0  0  0  0  0  0  0  0  0  0
   36.3490   29.8800   30.2980 Cl  0  0  0  0  0  0  0  0  0  0  0  0
   36.1010   29.7460   32.0200 C   0  0  0  0  0  0  0  0  0  0  0  0
   36.4430   28.5940   32.6870 C   0  0  0  0  0  0  0  0  0  0  0  0
   36.1640   28.6810   34.0250 C   0  0  0  0  0  0  0  0  0  0  0  0
   36.3660   27.8810   34.7070 H   0  0  0  0  0  0  0  0  0  0  0  0
   35.6110   29.7710   34.6470 C   0  0  0  0  0  3  0  0  0  0  0  0
   35.2900   30.8970   33.9230 C   0  0  0  0  0  0  0  0  0  0  0  0
   34.5850   32.2910   34.7090 Cl  0  0  0  0  0  0  0  0  0  0  0  0
   35.5440   30.8790   32.5680 C   0  0  0  0  0  0  0  0  0  0  0  0
   35.2840   31.7730   32.0220 H   0  0  0  0  0  0  0  0  0  0  0  0
  1  3  1  0  0  0  0
  1  4  1  0  0  0  0
  2  1  1  0  0  0  0
  4  8  1  0  0  0  0
  5  4  2  0  0  0  0
  5  6  1  0  0  0  0
  6  7  1  0  0  0  0
  7  9  1  0  0  0  0
  8  7  2  0  0  0  0
  9 10  1  0  0  0  0
  9 14  1  0  0  0  0
 10 11  1  0  0  0  0
 11 19  1  0  0  0  0
 11 18  1  0  0  0  0
 11 12  1  0  0  0  0
 12 20  1  0  0  0  0
 13 12  1  0  0  0  0
 13 22  1  0  0  0  0
 14 24  1  0  0  0  0
 14 13  1  0  0  0  0
 15  5  1  0  0  0  0
 16 10  1  0  0  0  0
 17 10  1  0  0  0  0
 21 13  1  0  0  0  0
 23 14  1  0  0  0  0
 25 32  1  0  0  0  0
 25  1  1  0  0  0  0
 26 25  1  0  0  0  0
 27 25  1  0  0  0  0
 28 29  1  0  0  0  0
 29 35  1  0  0  0  0
 29 30  2  0  0  0  0
 30 38  1  0  0  0  0
 31 30  1  0  0  0  0
 32 31  2  0  0  0  0
 33 32  1  0  0  0  0
 33 28  2  0  0  0  0
 34 28  1  0  0  0  0
 36 37  1  0  0  0  0
 37 44  2  0  0  0  0
 37 38  1  0  0  0  0
 38 39  2  0  0  0  0
 39 41  1  0  0  0  0
 39 40  1  0  0  0  0
 42 41  2  0  0  0  0
 42 43  1  0  0  0  0
 44 42  1  0  0  0  0
 45 44  1  0  0  0  0
M  END
>  <minimizedAffinity>
-6.21684647

$$$$

 OpenBabel03272506103D

 45 48  0  0  0  0  0  0  0  0999 V2000
   37.2280   25.8160   31.9560 C   0  0  0  0  0  0  0  0  0  0  0  0
   37.0710   25.4430   30.8920 H   0  0  0  0  0  0  0  0  0  0  0  0
   36.2070   25.9000   32.3490 H   0  0  0  0  0  0  0  0  0  0  0  0
   38.0350   24.7640   32.6680 C   0  0  0  0  0  0  0  0  0  0  0  0
   38.7540   23.7760   31.9130 C   0  0  0  0  0  0  0  0  0  0  0  0
   39.5010   22.8200   33.1990 S   0  0  0  0  0  0  0  0  0  0  0  0
   38.7730   23.8390   34.5860 C   0  0  0  0  0  0  0  0  0  0  0  0
   38.1620   24.6360   33.9520 N   0  0  0  0  0  0  0  0  0  0  0  0
   38.8930   23.7260   36.0310 N   0  0  0  0  0  0  0  0  0  0  0  0
   40.1110   23.1730   36.5200 C   0  0  0  0  0  0  0  0  0  0  0  0
   40.0310   22.7040   37.9400 C   0  0  0  0  0  0  0  0  0  0  0  0
   38.6850   22.7210   38.4940 N   0  0  0  0  0  0  0  0  0  0  0  0
   38.2000   24.0770   38.2980 C   0  0  0  0  0  0  0  0  0  0  0  0
   37.7900   24.1750   36.8570 C   0  0  0  0  0  0  0  0  0  0  0  0
   38.8610   23.5950   30.8470 H   0  0  0  0  0  0  0  0  0  0  0  0
   40.3920   22.2720   35.9130 H   0  0  0  0  0  0  0  0  0  0  0  0
   40.9330   23.8980   36.3450 H   0  0  0  0  0  0  0  0  0  0  0  0
   40.6220   23.4400   38.5500 H   0  0  0  0  0  0  0  0  0  0  0  0
   40.5260   21.7230   38.1070 H   0  0  0  0  0  0  0  0  0  0  0  0
   38.7930   22.5260   39.5150 H   0  0  0  0  0  0  0  0  0  0  0  0
   38.9560   24.8060   38.5990 H   0  0  0  0  0  0  0  0  0  0  0  0
   37.2900   24.1850   38.9120 H   0  0  0  0  0  0  0  0  0  0  0  0
   37.4110   25.1680   36.5720 H   0  0  0  0  0  0  0  0  0  0  0  0
   36.9630   23.4390   36.7010 H   0  0  0  0  0  0  0  0  0  0  0  0
   37.8990   27.1170   31.9470 C   0  0  0  0  0  0  0  0  0  0  0  0
   38.5680   27.1890   31.0400 H   0  0  0  0  0  0  0  0  0  0  0  0
   38.5650   27.3410   32.7970 H   0  0  0  0  0  0  0  0  0  0  0  0
   36.1860   30.1380   30.6640 C   0  0  0  0  0  0  0  0  0  0  0  0
   35.0910   30.2420   31.5120 C   0  0  0  0  0  0  0  0  0  0  0  0
   34.9330   29.2720   32.5320 C   0  0  0  0  0  0  0  0  0  0  0  0
   35.8450   28.2900   32.6400 N   0  0  0  0  0  0  0  0  0  0  0  0
   36.9030   28.2390   31.7750 C   0  0  0  0  0  0  0  0  0  0  0  0
   37.0820   29.1370   30.8030 N   0  0  0  0  0  0  0  0  0  0  0  0
   36.4630   30.7870   29.8340 H   0  0  0  0  0  0  0  0  0  0  0  0
   34.5480   31.0920   31.2090 H   0  0  0  0  0  0  0  0  0  0  0  0
   35.2590   30.7280   35.2520 Cl  0  0  0  0  0  0  0  0  0  0  0  0
   33.7660   30.1430   34.5650 C   0  0  0  0  0  0  0  0  0  0  0  0
   33.7590   29.5100   33.3450 C   0  0  0  0  0  0  0  0  0  0  0  0
   32.4950   29.1350   32.9750 C   0  0  0  0  0  0  0  0  0  0  0  0
   32.2940   28.6260   32.0560 H   0  0  0  0  0  0  0  0  0  0  0  0
   31.3600   29.3510   33.7130 C   0  0  0  0  0  3  0  0  0  0  0  0
   31.4320   29.9910   34.9300 C   0  0  0  0  0  0  0  0  0  0  0  0
   29.9880   30.2700   35.8770 Cl  0  0  0  0  0  0  0  0  0  0  0  0
   32.6750   30.3970   35.3650 C   0  0  0  0  0  0  0  0  0  0  0  0
   32.7060   30.8960   36.3210 H   0  0  0  0  0  0  0  0  0  0  0  0
  1  3  1  0  0  0  0
  1  4  1  0  0  0  0
  2  1  1  0  0  0  0
  4  8  1  0  0  0  0
  5  4  2  0  0  0  0
  5  6  1  0  0  0  0
  6  7  1  0  0  0  0
  7  9  1  0  0  0  0
  8  7  2  0  0  0  0
  9 10  1  0  0  0  0
  9 14  1  0  0  0  0
 10 11  1  0  0  0  0
 11 19  1  0  0  0  0
 11 12  1  0  0  0  0
 11 18  1  0  0  0  0
 12 20  1  0  0  0  0
 13 12  1  0  0  0  0
 13 21  1  0  0  0  0
 13 22  1  0  0  0  0
 14 13  1  0  0  0  0
 15  5  1  0  0  0  0
 16 10  1  0  0  0  0
 17 10  1  0  0  0  0
 23 14  1  0  0  0  0
 24 14  1  0  0  0  0
 25  1  1  0  0  0  0
 25 27  1  0  0  0  0
 26 25  1  0  0  0  0
 28 33  2  0  0  0  0
 28 29  1  0  0  0  0
 29 30  2  0  0  0  0
 30 31  1  0  0  0  0
 30 38  1  0  0  0  0
 32 25  1  0  0  0  0
 32 31  2  0  0  0  0
 33 32  1  0  0  0  0
 34 28  1  0  0  0  0
 35 29  1  0  0  0  0
 37 36  1  0  0  0  0
 37 44  1  0  0  0  0
 38 37  2  0  0  0  0
 39 38  1  0  0  0  0
 39 41  2  0  0  0  0
 40 39  1  0  0  0  0
 41 42  1  0  0  0  0
 42 44  2  0  0  0  0
 42 43  1  0  0  0  0
 44 45  1  0  0  0  0
M  END
>  <minimizedAffinity>
-6.16546297

$$$$

 OpenBabel03272506103D

 45 48  0  0  0  0  0  0  0  0999 V2000
   36.0620   28.7150   33.4910 C   0  0  0  0  0  0  0  0  0  0  0  0
   35.4950   27.9370   32.8840 H   0  0  0  0  0  0  0  0  0  0  0  0
   36.7160   29.1890   32.7490 H   0  0  0  0  0  0  0  0  0  0  0  0
   35.0340   29.6640   34.0440 C   0  0  0  0  0  0  0  0  0  0  0  0
   35.2640   31.0820   33.9980 C   0  0  0  0  0  0  0  0  0  0  0  0
   33.7960   31.7050   34.7580 S   0  0  0  0  0  0  0  0  0  0  0  0
   33.0490   30.0170   35.0510 C   0  0  0  0  0  0  0  0  0  0  0  0
   33.9060   29.3360   34.5920 N   0  0  0  0  0  0  0  0  0  0  0  0
   31.7920   29.6120   35.6590 N   0  0  0  0  0  0  0  0  0  0  0  0
   30.7070   30.5260   35.5340 C   0  0  0  0  0  0  0  0  0  0  0  0
   29.5890   30.2690   36.4950 C   0  0  0  0  0  0  0  0  0  0  0  0
   29.8940   29.2630   37.5030 N   0  0  0  0  0  0  0  0  0  0  0  0
   30.3100   28.0840   36.7620 C   0  0  0  0  0  0  0  0  0  0  0  0
   31.7290   28.3310   36.3370 C   0  0  0  0  0  0  0  0  0  0  0  0
   36.0850   31.6850   33.6190 H   0  0  0  0  0  0  0  0  0  0  0  0
   31.0620   31.5690   35.7440 H   0  0  0  0  0  0  0  0  0  0  0  0
   30.3760   30.5500   34.4750 H   0  0  0  0  0  0  0  0  0  0  0  0
   28.7410   29.8490   35.8900 H   0  0  0  0  0  0  0  0  0  0  0  0
   29.1850   31.1960   36.9570 H   0  0  0  0  0  0  0  0  0  0  0  0
   28.9940   29.0720   37.9980 H   0  0  0  0  0  0  0  0  0  0  0  0
   29.6230   27.8830   35.9360 H   0  0  0  0  0  0  0  0  0  0  0  0
   30.3180   27.2420   37.4740 H   0  0  0  0  0  0  0  0  0  0  0  0
   32.1630   27.5090   35.7490 H   0  0  0  0  0  0  0  0  0  0  0  0
   32.3360   28.4400   37.2680 H   0  0  0  0  0  0  0  0  0  0  0  0
   36.8430   28.0680   34.5470 C   0  0  0  0  0  0  0  0  0  0  0  0
   36.1920   27.9140   35.4560 H   0  0  0  0  0  0  0  0  0  0  0  0
   37.7200   28.6180   34.9280 H   0  0  0  0  0  0  0  0  0  0  0  0
   37.1810   24.9130   32.6400 C   0  0  0  0  0  0  0  0  0  0  0  0
   38.0280   24.1660   33.4470 C   0  0  0  0  0  0  0  0  0  0  0  0
   38.4910   24.7440   34.6550 C   0  0  0  0  0  0  0  0  0  0  0  0
   38.0960   25.9890   34.9720 N   0  0  0  0  0  0  0  0  0  0  0  0
   37.2590   26.6750   34.1360 C   0  0  0  0  0  0  0  0  0  0  0  0
   36.8040   26.1610   32.9920 N   0  0  0  0  0  0  0  0  0  0  0  0
   36.7320   24.6320   31.6870 H   0  0  0  0  0  0  0  0  0  0  0  0
   38.1720   23.2390   32.9680 H   0  0  0  0  0  0  0  0  0  0  0  0
   37.7190   23.9820   37.5620 Cl  0  0  0  0  0  0  0  0  0  0  0  0
   39.1280   23.4350   36.6900 C   0  0  0  0  0  0  0  0  0  0  0  0
   39.3550   23.8500   35.3990 C   0  0  0  0  0  0  0  0  0  0  0  0
   40.5020   23.3070   34.8860 C   0  0  0  0  0  0  0  0  0  0  0  0
   40.8440   23.5190   33.8940 H   0  0  0  0  0  0  0  0  0  0  0  0
   41.3390   22.4520   35.5560 C   0  0  0  0  0  3  0  0  0  0  0  0
   41.0570   22.0730   36.8490 C   0  0  0  0  0  0  0  0  0  0  0  0
   42.1200   20.9830   37.7100 Cl  0  0  0  0  0  0  0  0  0  0  0  0
   39.9150   22.5830   37.4290 C   0  0  0  0  0  0  0  0  0  0  0  0
   39.7150   22.2710   38.4430 H   0  0  0  0  0  0  0  0  0  0  0  0
  1  4  1  0  0  0  0
  1 25  1  0  0  0  0
  2  1  1  0  0  0  0
  3  1  1  0  0  0  0
  4  8  1  0  0  0  0
  5  4  2  0  0  0  0
  5  6  1  0  0  0  0
  6  7  1  0  0  0  0
  7  9  1  0  0  0  0
  8  7  2  0  0  0  0
  9 14  1  0  0  0  0
 10  9  1  0  0  0  0
 10 16  1  0  0  0  0
 10 11  1  0  0  0  0
 11 19  1  0  0  0  0
 11 12  1  0  0  0  0
 12 20  1  0  0  0  0
 13 22  1  0  0  0  0
 13 12  1  0  0  0  0
 14 13  1  0  0  0  0
 14 24  1  0  0  0  0
 15  5  1  0  0  0  0
 17 10  1  0  0  0  0
 18 11  1  0  0  0  0
 21 13  1  0  0  0  0
 23 14  1  0  0  0  0
 25 27  1  0  0  0  0
 25 26  1  0  0  0  0
 28 33  2  0  0  0  0
 28 29  1  0  0  0  0
 29 30  2  0  0  0  0
 30 31  1  0  0  0  0
 30 38  1  0  0  0  0
 32 25  1  0  0  0  0
 32 31  2  0  0  0  0
 33 32  1  0  0  0  0
 34 28  1  0  0  0  0
 35 29  1  0  0  0  0
 37 44  1  0  0  0  0
 37 36  1  0  0  0  0
 38 37  2  0  0  0  0
 39 38  1  0  0  0  0
 39 41  2  0  0  0  0
 40 39  1  0  0  0  0
 41 42  1  0  0  0  0
 42 44  2  0  0  0  0
 42 43  1  0  0  0  0
 44 45  1  0  0  0  0
M  END
>  <minimizedAffinity>
-6.1083703

$$$$

 OpenBabel03272506103D

 45 48  0  0  0  0  0  0  0  0999 V2000
   35.9070   23.1780   31.9440 C   0  0  0  0  0  0  0  0  0  0  0  0
   35.2890   22.2810   31.6130 H   0  0  0  0  0  0  0  0  0  0  0  0
   35.2660   23.6670   32.6870 H   0  0  0  0  0  0  0  0  0  0  0  0
   37.1730   22.6320   32.5440 C   0  0  0  0  0  0  0  0  0  0  0  0
   38.0220   21.7680   31.7710 C   0  0  0  0  0  0  0  0  0  0  0  0
   39.3230   21.4270   32.9190 S   0  0  0  0  0  0  0  0  0  0  0  0
   38.5910   22.4660   34.2890 C   0  0  0  0  0  0  0  0  0  0  0  0
   37.6110   22.8570   33.7440 N   0  0  0  0  0  0  0  0  0  0  0  0
   39.0510   22.7420   35.6400 N   0  0  0  0  0  0  0  0  0  0  0  0
   40.4610   22.7290   35.8400 C   0  0  0  0  0  0  0  0  0  0  0  0
   40.8640   22.6100   37.2770 C   0  0  0  0  0  0  0  0  0  0  0  0
   39.7570   22.3370   38.1820 N   0  0  0  0  0  0  0  0  0  0  0  0
   38.7830   23.3860   37.9340 C   0  0  0  0  0  0  0  0  0  0  0  0
   38.0650   23.0060   36.6700 C   0  0  0  0  0  0  0  0  0  0  0  0
   37.9560   21.3820   30.7580 H   0  0  0  0  0  0  0  0  0  0  0  0
   40.9120   21.8450   35.3190 H   0  0  0  0  0  0  0  0  0  0  0  0
   40.9050   23.6110   35.3340 H   0  0  0  0  0  0  0  0  0  0  0  0
   41.2640   23.6160   37.5790 H   0  0  0  0  0  0  0  0  0  0  0  0
   41.7060   21.9020   37.4410 H   0  0  0  0  0  0  0  0  0  0  0  0
   40.1450   22.4340   39.1480 H   0  0  0  0  0  0  0  0  0  0  0  0
   39.2680   24.3640   37.8960 H   0  0  0  0  0  0  0  0  0  0  0  0
   38.0500   23.3470   38.7570 H   0  0  0  0  0  0  0  0  0  0  0  0
   37.3000   23.7330   36.3610 H   0  0  0  0  0  0  0  0  0  0  0  0
   37.5500   22.0340   36.8660 H   0  0  0  0  0  0  0  0  0  0  0  0
   36.1700   24.0640   30.8080 C   0  0  0  0  0  0  0  0  0  0  0  0
   35.2000   24.2950   30.2780 H   0  0  0  0  0  0  0  0  0  0  0  0
   36.8300   23.6750   30.0140 H   0  0  0  0  0  0  0  0  0  0  0  0
   36.2750   27.5530   32.0390 C   0  0  0  0  0  0  0  0  0  0  0  0
   37.6390   27.8070   32.0990 C   0  0  0  0  0  0  0  0  0  0  0  0
   38.5340   26.7780   31.7160 C   0  0  0  0  0  0  0  0  0  0  0  0
   38.0310   25.5980   31.3130 N   0  0  0  0  0  0  0  0  0  0  0  0
   36.6780   25.4070   31.2750 C   0  0  0  0  0  0  0  0  0  0  0  0
   35.8070   26.3560   31.6280 N   0  0  0  0  0  0  0  0  0  0  0  0
   35.4510   28.2200   32.2920 H   0  0  0  0  0  0  0  0  0  0  0  0
   37.7530   28.7970   32.4420 H   0  0  0  0  0  0  0  0  0  0  0  0
   39.9450   26.6400   34.4760 Cl  0  0  0  0  0  0  0  0  0  0  0  0
   40.6590   27.1720   32.9750 C   0  0  0  0  0  0  0  0  0  0  0  0
   39.9200   27.1850   31.8170 C   0  0  0  0  0  0  0  0  0  0  0  0
   40.6570   27.6240   30.7500 C   0  0  0  0  0  0  0  0  0  0  0  0
   40.2480   27.7050   29.7640 H   0  0  0  0  0  0  0  0  0  0  0  0
   41.9720   28.0090   30.8030 C   0  0  0  0  0  3  0  0  0  0  0  0
   42.6590   27.9730   31.9950 C   0  0  0  0  0  0  0  0  0  0  0  0
   44.3370   28.4630   32.0720 Cl  0  0  0  0  0  0  0  0  0  0  0  0
   41.9780   27.5410   33.1130 C   0  0  0  0  0  0  0  0  0  0  0  0
   42.5380   27.5220   34.0350 H   0  0  0  0  0  0  0  0  0  0  0  0
  1  4  1  0  0  0  0
  1  3  1  0  0  0  0
  2  1  1  0  0  0  0
  4  8  1  0  0  0  0
  5  4  2  0  0  0  0
  5  6  1  0  0  0  0
  6  7  1  0  0  0  0
  7  9  1  0  0  0  0
  8  7  2  0  0  0  0
  9 10  1  0  0  0  0
  9 14  1  0  0  0  0
 10 11  1  0  0  0  0
 11 19  1  0  0  0  0
 11 18  1  0  0  0  0
 11 12  1  0  0  0  0
 12 20  1  0  0  0  0
 13 12  1  0  0  0  0
 13 22  1  0  0  0  0
 14 24  1  0  0  0  0
 14 13  1  0  0  0  0
 15  5  1  0  0  0  0
 16 10  1  0  0  0  0
 17 10  1  0  0  0  0
 21 13  1  0  0  0  0
 23 14  1  0  0  0  0
 25 32  1  0  0  0  0
 25  1  1  0  0  0  0
 26 25  1  0  0  0  0
 27 25  1  0  0  0  0
 28 29  1  0  0  0  0
 28 34  1  0  0  0  0
 29 35  1  0  0  0  0
 30 38  1  0  0  0  0
 30 29  2  0  0  0  0
 31 30  1  0  0  0  0
 32 31  2  0  0  0  0
 32 33  1  0  0  0  0
 33 28  2  0  0  0  0
 37 44  1  0  0  0  0
 37 36  1  0  0  0  0
 38 37  2  0  0  0  0
 39 41  2  0  0  0  0
 39 38  1  0  0  0  0
 40 39  1  0  0  0  0
 41 42  1  0  0  0  0
 42 43  1  0  0  0  0
 42 44  2  0  0  0  0
 44 45  1  0  0  0  0
M  END
>  <minimizedAffinity>
-5.94200134

$$$$

 OpenBabel03272506103D

 45 48  0  0  0  0  0  0  0  0999 V2000
   36.4280   28.6470   33.3750 C   0  0  0  0  0  0  0  0  0  0  0  0
   36.2780   27.9680   32.4730 H   0  0  0  0  0  0  0  0  0  0  0  0
   37.2460   29.3080   33.0620 H   0  0  0  0  0  0  0  0  0  0  0  0
   35.1340   29.3870   33.5790 C   0  0  0  0  0  0  0  0  0  0  0  0
   34.0270   29.1600   32.6920 C   0  0  0  0  0  0  0  0  0  0  0  0
   32.8060   30.2490   33.3600 S   0  0  0  0  0  0  0  0  0  0  0  0
   33.9040   30.8800   34.7360 C   0  0  0  0  0  0  0  0  0  0  0  0
   34.8890   30.2570   34.5100 N   0  0  0  0  0  0  0  0  0  0  0  0
   33.6630   31.8500   35.7920 N   0  0  0  0  0  0  0  0  0  0  0  0
   32.3210   31.9590   36.2530 C   0  0  0  0  0  0  0  0  0  0  0  0
   32.0480   33.2150   37.0210 C   0  0  0  0  0  0  0  0  0  0  0  0
   33.1420   34.1760   36.9920 N   0  0  0  0  0  0  0  0  0  0  0  0
   34.3110   33.4490   37.4560 C   0  0  0  0  0  0  0  0  0  0  0  0
   34.7830   32.6220   36.2950 C   0  0  0  0  0  0  0  0  0  0  0  0
   33.8950   28.5160   31.8270 H   0  0  0  0  0  0  0  0  0  0  0  0
   31.6170   31.9730   35.3790 H   0  0  0  0  0  0  0  0  0  0  0  0
   32.0550   31.0390   36.8130 H   0  0  0  0  0  0  0  0  0  0  0  0
   31.9380   32.9110   38.0970 H   0  0  0  0  0  0  0  0  0  0  0  0
   31.0810   33.6930   36.7530 H   0  0  0  0  0  0  0  0  0  0  0  0
   32.8890   34.9190   37.6820 H   0  0  0  0  0  0  0  0  0  0  0  0
   34.0770   32.8700   38.3530 H   0  0  0  0  0  0  0  0  0  0  0  0
   35.0920   34.1980   37.6700 H   0  0  0  0  0  0  0  0  0  0  0  0
   35.6670   32.0060   36.5210 H   0  0  0  0  0  0  0  0  0  0  0  0
   35.0640   33.3320   35.4790 H   0  0  0  0  0  0  0  0  0  0  0  0
   36.8060   27.8590   34.5500 C   0  0  0  0  0  0  0  0  0  0  0  0
   35.8970   27.6890   35.1970 H   0  0  0  0  0  0  0  0  0  0  0  0
   37.5500   28.3040   35.2320 H   0  0  0  0  0  0  0  0  0  0  0  0
   37.2280   24.7040   32.6590 C   0  0  0  0  0  0  0  0  0  0  0  0
   38.0760   23.9750   33.4820 C   0  0  0  0  0  0  0  0  0  0  0  0
   38.5110   24.5650   34.6940 C   0  0  0  0  0  0  0  0  0  0  0  0
   38.0890   25.8030   35.0010 N   0  0  0  0  0  0  0  0  0  0  0  0
   37.2530   26.4730   34.1500 C   0  0  0  0  0  0  0  0  0  0  0  0
   36.8240   25.9460   33.0010 N   0  0  0  0  0  0  0  0  0  0  0  0
   36.7980   24.4120   31.7010 H   0  0  0  0  0  0  0  0  0  0  0  0
   38.2430   23.0490   33.0080 H   0  0  0  0  0  0  0  0  0  0  0  0
   37.9230   24.1130   37.7070 Cl  0  0  0  0  0  0  0  0  0  0  0  0
   39.2290   23.4050   36.7910 C   0  0  0  0  0  0  0  0  0  0  0  0
   39.3780   23.6890   35.4550 C   0  0  0  0  0  0  0  0  0  0  0  0
   40.4510   23.0330   34.9130 C   0  0  0  0  0  0  0  0  0  0  0  0
   40.7260   23.1340   33.8840 H   0  0  0  0  0  0  0  0  0  0  0  0
   41.2890   22.1900   35.5980 C   0  0  0  0  0  3  0  0  0  0  0  0
   41.0870   21.9450   36.9370 C   0  0  0  0  0  0  0  0  0  0  0  0
   42.1510   20.8720   37.8180 Cl  0  0  0  0  0  0  0  0  0  0  0  0
   40.0230   22.5740   37.5480 C   0  0  0  0  0  0  0  0  0  0  0  0
   39.8850   22.3660   38.5980 H   0  0  0  0  0  0  0  0  0  0  0  0
  1  4  1  0  0  0  0
  1 25  1  0  0  0  0
  2  1  1  0  0  0  0
  3  1  1  0  0  0  0
  4  8  1  0  0  0  0
  5  6  1  0  0  0  0
  5  4  2  0  0  0  0
  6  7  1  0  0  0  0
  7  9  1  0  0  0  0
  8  7  2  0  0  0  0
  9 10  1  0  0  0  0
  9 14  1  0  0  0  0
 10 17  1  0  0  0  0
 10 11  1  0  0  0  0
 11 18  1  0  0  0  0
 12 11  1  0  0  0  0
 12 13  1  0  0  0  0
 12 20  1  0  0  0  0
 13 22  1  0  0  0  0
 13 21  1  0  0  0  0
 14 23  1  0  0  0  0
 14 13  1  0  0  0  0
 15  5  1  0  0  0  0
 16 10  1  0  0  0  0
 19 11  1  0  0  0  0
 24 14  1  0  0  0  0
 25 26  1  0  0  0  0
 25 27  1  0  0  0  0
 28 33  2  0  0  0  0
 28 29  1  0  0  0  0
 29 30  2  0  0  0  0
 30 31  1  0  0  0  0
 30 38  1  0  0  0  0
 32 25  1  0  0  0  0
 32 31  2  0  0  0  0
 33 32  1  0  0  0  0
 34 28  1  0  0  0  0
 35 29  1  0  0  0  0
 37 44  1  0  0  0  0
 37 36  1  0  0  0  0
 38 37  2  0  0  0  0
 39 38  1  0  0  0  0
 39 41  2  0  0  0  0
 40 39  1  0  0  0  0
 41 42  1  0  0  0  0
 42 44  2  0  0  0  0
 42 43  1  0  0  0  0
 44 45  1  0  0  0  0
M  END
>  <minimizedAffinity>
-5.86235905

$$$$

 OpenBabel03272506103D

 45 48  0  0  0  0  0  0  0  0999 V2000
   39.2400   25.8500   34.1510 C   0  0  0  0  0  0  0  0  0  0  0  0
   40.3630   25.8980   34.3370 H   0  0  0  0  0  0  0  0  0  0  0  0
   39.1490   26.0900   33.0860 H   0  0  0  0  0  0  0  0  0  0  0  0
   38.8100   24.4430   34.4660 C   0  0  0  0  0  0  0  0  0  0  0  0
   39.2790   23.7970   35.6610 C   0  0  0  0  0  0  0  0  0  0  0  0
   38.4990   22.2160   35.5400 S   0  0  0  0  0  0  0  0  0  0  0  0
   37.6430   22.5930   33.9210 C   0  0  0  0  0  0  0  0  0  0  0  0
   38.0260   23.7040   33.7450 N   0  0  0  0  0  0  0  0  0  0  0  0
   36.7610   21.7930   33.0880 N   0  0  0  0  0  0  0  0  0  0  0  0
   35.9580   20.8300   33.7640 C   0  0  0  0  0  0  0  0  0  0  0  0
   35.3910   19.7790   32.8610 C   0  0  0  0  0  0  0  0  0  0  0  0
   35.9140   19.8200   31.5030 N   0  0  0  0  0  0  0  0  0  0  0  0
   35.6830   21.1770   31.0370 C   0  0  0  0  0  0  0  0  0  0  0  0
   36.7570   22.0240   31.6570 C   0  0  0  0  0  0  0  0  0  0  0  0
   39.9340   24.1190   36.4660 H   0  0  0  0  0  0  0  0  0  0  0  0
   36.5770   20.2830   34.5230 H   0  0  0  0  0  0  0  0  0  0  0  0
   35.1850   21.3580   34.3590 H   0  0  0  0  0  0  0  0  0  0  0  0
   34.2920   19.9970   32.7720 H   0  0  0  0  0  0  0  0  0  0  0  0
   35.4500   18.7540   33.2880 H   0  0  0  0  0  0  0  0  0  0  0  0
   35.3310   19.1510   30.9510 H   0  0  0  0  0  0  0  0  0  0  0  0
   34.6660   21.5000   31.2730 H   0  0  0  0  0  0  0  0  0  0  0  0
   35.8470   21.1760   29.9470 H   0  0  0  0  0  0  0  0  0  0  0  0
   36.6880   23.0900   31.3910 H   0  0  0  0  0  0  0  0  0  0  0  0
   37.7360   21.6430   31.2760 H   0  0  0  0  0  0  0  0  0  0  0  0
   38.5440   26.8400   34.9770 C   0  0  0  0  0  0  0  0  0  0  0  0
   39.2790   27.6220   35.3270 H   0  0  0  0  0  0  0  0  0  0  0  0
   38.0720   26.4730   35.9030 H   0  0  0  0  0  0  0  0  0  0  0  0
   36.7050   28.2980   32.1140 C   0  0  0  0  0  0  0  0  0  0  0  0
   35.6930   29.0110   32.7430 C   0  0  0  0  0  0  0  0  0  0  0  0
   35.6350   28.9950   34.1580 C   0  0  0  0  0  0  0  0  0  0  0  0
   36.5570   28.2910   34.8370 N   0  0  0  0  0  0  0  0  0  0  0  0
   37.5310   27.6080   34.1620 C   0  0  0  0  0  0  0  0  0  0  0  0
   37.6150   27.6030   32.8290 N   0  0  0  0  0  0  0  0  0  0  0  0
   36.9010   28.2000   31.0470 H   0  0  0  0  0  0  0  0  0  0  0  0
   35.1200   29.4650   31.9840 H   0  0  0  0  0  0  0  0  0  0  0  0
   36.2740   31.5240   35.8380 Cl  0  0  0  0  0  0  0  0  0  0  0  0
   34.6850   30.9270   35.4300 C   0  0  0  0  0  0  0  0  0  0  0  0
   34.5400   29.7880   34.6750 C   0  0  0  0  0  0  0  0  0  0  0  0
   33.2210   29.4900   34.4560 C   0  0  0  0  0  0  0  0  0  0  0  0
   32.9130   28.6350   33.8910 H   0  0  0  0  0  0  0  0  0  0  0  0
   32.1590   30.2210   34.9210 C   0  0  0  0  0  3  0  0  0  0  0  0
   32.3700   31.3540   35.6740 C   0  0  0  0  0  0  0  0  0  0  0  0
   31.0190   32.2920   36.2710 Cl  0  0  0  0  0  0  0  0  0  0  0  0
   33.6750   31.7140   35.9340 C   0  0  0  0  0  0  0  0  0  0  0  0
   33.8140   32.6060   36.5250 H   0  0  0  0  0  0  0  0  0  0  0  0
  1  2  1  0  0  0  0
  1  4  1  0  0  0  0
  1 25  1  0  0  0  0
  3  1  1  0  0  0  0
  4  5  2  0  0  0  0
  5 15  1  0  0  0  0
  6  5  1  0  0  0  0
  7  6  1  0  0  0  0
  8  7  2  0  0  0  0
  8  4  1  0  0  0  0
  9 10  1  0  0  0  0
  9  7  1  0  0  0  0
 10 17  1  0  0  0  0
 10 16  1  0  0  0  0
 11 19  1  0  0  0  0
 11 10  1  0  0  0  0
 12 11  1  0  0  0  0
 13 21  1  0  0  0  0
 13 12  1  0  0  0  0
 13 14  1  0  0  0  0
 14  9  1  0  0  0  0
 18 11  1  0  0  0  0
 20 12  1  0  0  0  0
 22 13  1  0  0  0  0
 23 14  1  0  0  0  0
 24 14  1  0  0  0  0
 25 26  1  0  0  0  0
 25 27  1  0  0  0  0
 28 29  2  0  0  0  0
 28 33  1  0  0  0  0
 29 30  1  0  0  0  0
 30 38  1  0  0  0  0
 30 31  2  0  0  0  0
 32 31  1  0  0  0  0
 32 25  1  0  0  0  0
 33 32  2  0  0  0  0
 34 28  1  0  0  0  0
 35 29  1  0  0  0  0
 37 36  1  0  0  0  0
 37 44  1  0  0  0  0
 38 37  2  0  0  0  0
 39 38  1  0  0  0  0
 39 41  2  0  0  0  0
 40 39  1  0  0  0  0
 41 42  1  0  0  0  0
 42 44  2  0  0  0  0
 42 43  1  0  0  0  0
 44 45  1  0  0  0  0
M  END
>  <minimizedAffinity>
-5.85225439

$$$$

 OpenBabel03272506103D

 45 48  0  0  0  0  0  0  0  0999 V2000
   38.3290   27.3410   34.2490 C   0  0  0  0  0  0  0  0  0  0  0  0
   38.2130   27.4520   35.3760 H   0  0  0  0  0  0  0  0  0  0  0  0
   38.6770   28.3310   33.9300 H   0  0  0  0  0  0  0  0  0  0  0  0
   39.3600   26.2680   34.0250 C   0  0  0  0  0  0  0  0  0  0  0  0
   40.0260   26.1620   32.7570 C   0  0  0  0  0  0  0  0  0  0  0  0
   41.0930   24.7800   33.0290 S   0  0  0  0  0  0  0  0  0  0  0  0
   40.5330   24.5010   34.7900 C   0  0  0  0  0  0  0  0  0  0  0  0
   39.7350   25.3760   34.8880 N   0  0  0  0  0  0  0  0  0  0  0  0
   40.9290   23.5160   35.7830 N   0  0  0  0  0  0  0  0  0  0  0  0
   42.2670   23.0370   35.6950 C   0  0  0  0  0  0  0  0  0  0  0  0
   42.5010   21.7640   36.4490 C   0  0  0  0  0  0  0  0  0  0  0  0
   41.2860   21.1520   36.9680 N   0  0  0  0  0  0  0  0  0  0  0  0
   40.6350   22.1850   37.7550 C   0  0  0  0  0  0  0  0  0  0  0  0
   39.9570   23.0980   36.7740 C   0  0  0  0  0  0  0  0  0  0  0  0
   39.9510   26.7320   31.8340 H   0  0  0  0  0  0  0  0  0  0  0  0
   42.5230   22.8140   34.6260 H   0  0  0  0  0  0  0  0  0  0  0  0
   42.9620   23.8500   35.9880 H   0  0  0  0  0  0  0  0  0  0  0  0
   43.1140   22.0370   37.3490 H   0  0  0  0  0  0  0  0  0  0  0  0
   43.1180   21.0290   35.8880 H   0  0  0  0  0  0  0  0  0  0  0  0
   41.6010   20.3750   37.5920 H   0  0  0  0  0  0  0  0  0  0  0  0
   41.3540   22.6850   38.4090 H   0  0  0  0  0  0  0  0  0  0  0  0
   39.8480   21.6900   38.3480 H   0  0  0  0  0  0  0  0  0  0  0  0
   39.4300   23.9410   37.2470 H   0  0  0  0  0  0  0  0  0  0  0  0
   39.1970   22.4870   36.2290 H   0  0  0  0  0  0  0  0  0  0  0  0
   37.0420   27.0090   33.6340 C   0  0  0  0  0  0  0  0  0  0  0  0
   36.4230   26.4070   34.3600 H   0  0  0  0  0  0  0  0  0  0  0  0
   37.0700   26.3940   32.7200 H   0  0  0  0  0  0  0  0  0  0  0  0
   35.0430   29.6250   31.9400 C   0  0  0  0  0  0  0  0  0  0  0  0
   34.7730   30.5100   32.9750 C   0  0  0  0  0  0  0  0  0  0  0  0
   35.2760   30.2130   34.2650 C   0  0  0  0  0  0  0  0  0  0  0  0
   35.9920   29.0890   34.4400 N   0  0  0  0  0  0  0  0  0  0  0  0
   36.2260   28.2550   33.3810 C   0  0  0  0  0  0  0  0  0  0  0  0
   35.7680   28.5050   32.1520 N   0  0  0  0  0  0  0  0  0  0  0  0
   34.7410   29.6930   30.8950 H   0  0  0  0  0  0  0  0  0  0  0  0
   34.2020   31.2960   32.5660 H   0  0  0  0  0  0  0  0  0  0  0  0
   32.6530   29.8960   35.8920 Cl  0  0  0  0  0  0  0  0  0  0  0  0
   33.7990   31.2040   36.0250 C   0  0  0  0  0  0  0  0  0  0  0  0
   34.9280   31.2250   35.2410 C   0  0  0  0  0  0  0  0  0  0  0  0
   35.7030   32.3240   35.4970 C   0  0  0  0  0  0  0  0  0  0  0  0
   36.6210   32.5130   34.9800 H   0  0  0  0  0  0  0  0  0  0  0  0
   35.4130   33.2980   36.4180 C   0  0  0  0  0  3  0  0  0  0  0  0
   34.2650   33.2210   37.1740 C   0  0  0  0  0  0  0  0  0  0  0  0
   33.8870   34.4590   38.3500 Cl  0  0  0  0  0  0  0  0  0  0  0  0
   33.4360   32.1390   36.9670 C   0  0  0  0  0  0  0  0  0  0  0  0
   32.5430   32.1000   37.5720 H   0  0  0  0  0  0  0  0  0  0  0  0
  1  2  1  0  0  0  0
  3  1  1  0  0  0  0
  4  1  1  0  0  0  0
  4  8  1  0  0  0  0
  5  6  1  0  0  0  0
  5  4  2  0  0  0  0
  6  7  1  0  0  0  0
  7  8  2  0  0  0  0
  7  9  1  0  0  0  0
  9 14  1  0  0  0  0
 10  9  1  0  0  0  0
 10 17  1  0  0  0  0
 10 11  1  0  0  0  0
 11 12  1  0  0  0  0
 11 18  1  0  0  0  0
 12 20  1  0  0  0  0
 12 13  1  0  0  0  0
 13 22  1  0  0  0  0
 13 21  1  0  0  0  0
 14 23  1  0  0  0  0
 14 13  1  0  0  0  0
 15  5  1  0  0  0  0
 16 10  1  0  0  0  0
 19 11  1  0  0  0  0
 24 14  1  0  0  0  0
 25  1  1  0  0  0  0
 25 26  1  0  0  0  0
 27 25  1  0  0  0  0
 28 33  2  0  0  0  0
 28 29  1  0  0  0  0
 29 30  2  0  0  0  0
 30 31  1  0  0  0  0
 30 38  1  0  0  0  0
 32 25  1  0  0  0  0
 32 31  2  0  0  0  0
 33 32  1  0  0  0  0
 34 28  1  0  0  0  0
 35 29  1  0  0  0  0
 36 37  1  0  0  0  0
 37 44  1  0  0  0  0
 38 39  1  0  0  0  0
 38 37  2  0  0  0  0
 39 41  2  0  0  0  0
 40 39  1  0  0  0  0
 41 42  1  0  0  0  0
 42 43  1  0  0  0  0
 44 42  2  0  0  0  0
 44 45  1  0  0  0  0
M  END
>  <minimizedAffinity>
-5.80902624

$$$$
