
 OpenBabel03272506473D

 43 46  0  0  1  0  0  0  0  0999 V2000
   32.0160   28.3680   47.4880 C   0  0  2  0  0  0  0  0  0  0  0  0
   33.2750   28.1680   48.2800 C   0  0  1  0  0  0  0  0  0  0  0  0
   33.6410   26.8600   48.1660 O   0  0  0  0  0  0  0  0  0  0  0  0
   32.9020   26.2640   47.1490 C   0  0  0  0  0  0  0  0  0  0  0  0
   32.3010   27.3710   46.3210 C   0  0  1  0  0  0  0  0  0  0  0  0
   31.0980   28.0330   47.9560 H   0  0  0  0  0  0  0  0  0  0  0  0
   33.1620   28.4630   49.3400 H   0  0  0  0  0  0  0  0  0  0  0  0
   32.2110   25.5820   47.6200 H   0  0  0  0  0  0  0  0  0  0  0  0
   33.5620   25.6900   46.4490 H   0  0  0  0  0  0  0  0  0  0  0  0
   33.0300   27.8500   45.6660 H   0  0  0  0  0  0  0  0  0  0  0  0
   31.9590   29.6780   46.9670 O   0  0  0  0  0  0  0  0  0  0  0  0
   32.6530   30.2640   47.3640 H   0  0  0  0  0  0  0  0  0  0  0  0
   34.5870   29.1950   47.5010 S   0  0  0  0  0  0  0  0  0  0  0  0
   37.0040   29.2470   50.6410 C   0  0  0  0  0  0  0  0  0  0  0  0
   37.4180   30.5700   50.7640 C   0  0  0  0  0  0  0  0  0  0  0  0
   36.9250   31.4940   49.8280 C   0  0  0  0  0  0  0  0  0  0  0  0
   36.0760   31.0520   48.8580 N   0  0  0  0  0  0  0  0  0  0  0  0
   35.7050   29.7550   48.7830 C   0  0  0  0  0  0  0  0  0  0  0  0
   36.1610   28.8350   49.6720 N   0  0  0  0  0  0  0  0  0  0  0  0
   37.3230   28.4580   51.3080 H   0  0  0  0  0  0  0  0  0  0  0  0
   38.1000   30.8280   51.5730 H   0  0  0  0  0  0  0  0  0  0  0  0
   37.2350   32.5120   49.9100 H   0  0  0  0  0  0  0  0  0  0  0  0
   31.1320   26.9240   45.7580 O   0  0  0  0  0  0  0  0  0  0  0  0
   29.9450   29.1620   44.2580 Cl  0  0  0  0  0  0  0  0  0  0  0  0
   29.2460   28.2320   45.5630 C   0  0  0  0  0  0  0  0  0  0  0  0
   29.8990   27.1920   46.1840 C   0  0  0  0  0  0  0  0  0  0  0  0
   29.2270   26.5060   47.1980 C   0  0  0  0  0  0  0  0  0  0  0  0
   27.9470   26.8670   47.5610 C   0  0  0  0  0  0  0  0  0  0  0  0
   27.2810   27.9120   46.9430 C   0  0  0  0  0  0  0  0  0  0  0  0
   27.9420   28.5940   45.9380 C   0  0  0  0  0  0  0  0  0  0  0  0
   29.6580   25.6790   47.7330 H   0  0  0  0  0  0  0  0  0  0  0  0
   27.3680   26.3830   48.3330 H   0  0  0  0  0  0  0  0  0  0  0  0
   26.2720   28.2300   47.1960 H   0  0  0  0  0  0  0  0  0  0  0  0
   26.5550   28.1320   43.2590 Cl  0  0  0  0  0  0  0  0  0  0  0  0
   26.5890   29.6720   44.0860 C   0  0  0  0  0  0  0  0  0  0  0  0
   27.2550   29.6980   45.2750 C   0  0  0  0  0  0  0  0  0  0  0  0
   27.3470   30.8780   46.0240 C   0  0  0  0  0  0  0  0  0  0  0  0
   27.8520   31.0070   46.9790 H   0  0  0  0  0  0  0  0  0  0  0  0
   26.7460   32.0440   45.5410 C   0  0  0  0  0  3  0  0  0  0  0  0
   26.0760   31.9960   44.3350 C   0  0  0  0  0  0  0  0  0  0  0  0
   25.3130   33.4620   43.7160 Cl  0  0  0  0  0  0  0  0  0  0  0  0
   25.9870   30.8320   43.6000 C   0  0  0  0  0  0  0  0  0  0  0  0
   25.4670   30.7620   42.6450 H   0  0  0  0  0  0  0  0  0  0  0  0
  1  6  1  1  0  0  0
  1  2  1  0  0  0  0
  2  7  1  1  0  0  0
  3  2  1  0  0  0  0
  4  8  1  0  0  0  0
  4  3  1  0  0  0  0
  5 10  1  6  0  0  0
  5  4  1  0  0  0  0
  5  1  1  0  0  0  0
  9  4  1  0  0  0  0
 11 12  1  0  0  0  0
 11  1  1  0  0  0  0
 13  2  1  0  0  0  0
 13 18  1  0  0  0  0
 14 15  1  0  0  0  0
 14 20  1  0  0  0  0
 15 21  1  0  0  0  0
 16 22  1  0  0  0  0
 16 15  2  0  0  0  0
 17 16  1  0  0  0  0
 18 17  2  0  0  0  0
 18 19  1  0  0  0  0
 19 14  2  0  0  0  0
 23 26  1  0  0  0  0
 23  5  1  0  0  0  0
 24 25  1  0  0  0  0
 25 30  2  0  0  0  0
 25 26  1  0  0  0  0
 26 27  2  0  0  0  0
 27 28  1  0  0  0  0
 27 31  1  0  0  0  0
 28 32  1  0  0  0  0
 29 33  1  0  0  0  0
 29 28  2  0  0  0  0
 30 29  1  0  0  0  0
 34 35  1  0  0  0  0
 35 36  1  0  0  0  0
 36 30  1  0  0  0  0
 36 37  2  0  0  0  0
 37 38  1  0  0  0  0
 39 37  1  0  0  0  0
 40 39  2  0  0  0  0
 41 40  1  0  0  0  0
 42 35  2  0  0  0  0
 42 40  1  0  0  0  0
 43 42  1  0  0  0  0
M  END
>  <minimizedAffinity>
-5.79963446

>  <minimizedRMSD>
0.372568786

$$$$
