
 OpenBabel03262522103D

 30 32  0  0  0  0  0  0  0  0999 V2000
   37.5030   26.3520   33.4270 C   0  0  0  0  0  0  0  0  0  0  0  0
   37.2200   27.5100   34.1380 C   0  0  0  0  0  0  0  0  0  0  0  0
   37.7510   27.6670   35.4040 C   0  0  0  0  0  0  0  0  0  0  0  0
   38.5440   26.6260   35.8750 C   0  0  0  0  0  0  0  0  0  0  0  0
   38.8130   25.4900   35.1600 C   0  0  0  0  0  0  0  0  0  0  0  0
   38.2810   25.3450   33.9050 N   0  0  0  0  0  0  0  0  0  0  0  0
   36.5960   28.2890   33.7230 H   0  0  0  0  0  0  0  0  0  0  0  0
   37.5400   28.5520   35.9570 H   0  0  0  0  0  0  0  0  0  0  0  0
   38.9370   26.7900   36.8680 H   0  0  0  0  0  0  0  0  0  0  0  0
   37.4690   23.7320   37.1470 Cl  0  0  0  0  0  0  0  0  0  0  0  0
   39.1450   23.5360   36.6220 C   0  0  0  0  0  0  0  0  0  0  0  0
   39.6480   24.4250   35.6890 C   0  0  0  0  0  0  0  0  0  0  0  0
   40.9510   24.2130   35.3290 C   0  0  0  0  0  0  0  0  0  0  0  0
   41.4190   24.8470   34.6190 H   0  0  0  0  0  0  0  0  0  0  0  0
   41.7330   23.1890   35.8470 C   0  0  0  0  0  3  0  0  0  0  0  0
   41.1430   22.3510   36.7740 C   0  0  0  0  0  0  0  0  0  0  0  0
   42.1140   21.0500   37.4390 Cl  0  0  0  0  0  0  0  0  0  0  0  0
   39.8360   22.4890   37.1950 C   0  0  0  0  0  0  0  0  0  0  0  0
   39.3760   21.8370   37.9160 H   0  0  0  0  0  0  0  0  0  0  0  0
   36.9110   26.2410   32.1000 C   0  0  0  0  0  0  0  0  0  0  0  0
   35.9590   25.4900   31.8860 O   0  0  0  0  0  0  0  0  0  0  0  0
   36.6250   28.0750   30.4400 C   0  0  0  0  0  0  0  0  0  0  0  0
   37.4110   27.0120   30.9510 C   0  0  0  0  0  0  0  0  0  0  0  0
   38.6170   26.7400   30.3500 C   0  0  0  0  0  0  0  0  0  0  0  0
   39.0000   27.5150   29.2840 N   0  0  0  0  0  0  0  0  0  0  0  0
   38.2310   28.5220   28.8190 C   0  0  0  0  0  0  0  0  0  0  0  0
   37.0540   28.8030   29.3870 N   0  0  0  0  0  0  0  0  0  0  0  0
   35.6750   28.2860   30.9170 H   0  0  0  0  0  0  0  0  0  0  0  0
   39.2250   25.9410   30.7220 H   0  0  0  0  0  0  0  0  0  0  0  0
   38.6020   29.0880   27.9730 H   0  0  0  0  0  0  0  0  0  0  0  0
  1  6  2  0  0  0  0
  1  2  1  0  0  0  0
  2  3  2  0  0  0  0
  3  4  1  0  0  0  0
  3  8  1  0  0  0  0
  4  9  1  0  0  0  0
  5 12  1  0  0  0  0
  5  4  2  0  0  0  0
  6  5  1  0  0  0  0
  7  2  1  0  0  0  0
 11 10  1  0  0  0  0
 11 18  1  0  0  0  0
 12 11  2  0  0  0  0
 13 12  1  0  0  0  0
 13 15  2  0  0  0  0
 14 13  1  0  0  0  0
 15 16  1  0  0  0  0
 16 18  2  0  0  0  0
 16 17  1  0  0  0  0
 18 19  1  0  0  0  0
 20  1  1  0  0  0  0
 21 20  2  0  0  0  0
 22 28  1  0  0  0  0
 22 23  1  0  0  0  0
 23 20  1  0  0  0  0
 24 29  1  0  0  0  0
 24 23  2  0  0  0  0
 25 24  1  0  0  0  0
 26 25  2  0  0  0  0
 26 27  1  0  0  0  0
 27 22  2  0  0  0  0
 30 26  1  0  0  0  0
M  END
>  <minimizedAffinity>
-5.62818193

$$$$

 OpenBabel03262522103D

 30 32  0  0  0  0  0  0  0  0999 V2000
   37.4320   26.3370   33.4290 C   0  0  0  0  0  0  0  0  0  0  0  0
   37.1750   27.5110   34.1210 C   0  0  0  0  0  0  0  0  0  0  0  0
   37.6970   27.6710   35.3900 C   0  0  0  0  0  0  0  0  0  0  0  0
   38.4550   26.6150   35.8840 C   0  0  0  0  0  0  0  0  0  0  0  0
   38.7000   25.4620   35.1870 C   0  0  0  0  0  0  0  0  0  0  0  0
   38.1770   25.3150   33.9290 N   0  0  0  0  0  0  0  0  0  0  0  0
   36.5770   28.3020   33.6890 H   0  0  0  0  0  0  0  0  0  0  0  0
   37.5050   28.5690   35.9300 H   0  0  0  0  0  0  0  0  0  0  0  0
   38.8420   26.7810   36.8790 H   0  0  0  0  0  0  0  0  0  0  0  0
   41.4990   25.3550   34.1900 Cl  0  0  0  0  0  0  0  0  0  0  0  0
   40.8180   24.2180   35.3590 C   0  0  0  0  0  0  0  0  0  0  0  0
   39.4980   24.3820   35.7400 C   0  0  0  0  0  0  0  0  0  0  0  0
   39.0390   23.4670   36.6480 C   0  0  0  0  0  0  0  0  0  0  0  0
   38.0380   23.5150   36.9960 H   0  0  0  0  0  0  0  0  0  0  0  0
   39.8180   22.4400   37.1650 C   0  0  0  0  0  3  0  0  0  0  0  0
   41.1260   22.3580   36.7250 C   0  0  0  0  0  0  0  0  0  0  0  0
   42.1270   21.0690   37.3660 Cl  0  0  0  0  0  0  0  0  0  0  0  0
   41.6740   23.2360   35.8120 C   0  0  0  0  0  0  0  0  0  0  0  0
   42.6910   23.1730   35.4690 H   0  0  0  0  0  0  0  0  0  0  0  0
   36.8510   26.2240   32.0970 C   0  0  0  0  0  0  0  0  0  0  0  0
   35.9330   25.4380   31.8650 O   0  0  0  0  0  0  0  0  0  0  0  0
   38.5900   26.7540   30.3960 C   0  0  0  0  0  0  0  0  0  0  0  0
   37.3230   27.0360   30.9640 C   0  0  0  0  0  0  0  0  0  0  0  0
   36.5780   28.0620   30.4320 C   0  0  0  0  0  0  0  0  0  0  0  0
   37.1020   28.7620   29.3740 N   0  0  0  0  0  0  0  0  0  0  0  0
   38.3120   28.4700   28.8530 C   0  0  0  0  0  0  0  0  0  0  0  0
   39.0530   27.4780   29.3540 N   0  0  0  0  0  0  0  0  0  0  0  0
   39.1730   25.9440   30.8180 H   0  0  0  0  0  0  0  0  0  0  0  0
   35.6190   28.2900   30.8480 H   0  0  0  0  0  0  0  0  0  0  0  0
   38.6560   29.0700   28.0170 H   0  0  0  0  0  0  0  0  0  0  0  0
  1  6  2  0  0  0  0
  1  2  1  0  0  0  0
  2  3  2  0  0  0  0
  3  4  1  0  0  0  0
  3  8  1  0  0  0  0
  4  9  1  0  0  0  0
  5 12  1  0  0  0  0
  5  4  2  0  0  0  0
  6  5  1  0  0  0  0
  7  2  1  0  0  0  0
 10 11  1  0  0  0  0
 11 12  2  0  0  0  0
 11 18  1  0  0  0  0
 12 13  1  0  0  0  0
 13 14  1  0  0  0  0
 13 15  2  0  0  0  0
 16 15  1  0  0  0  0
 16 17  1  0  0  0  0
 18 16  2  0  0  0  0
 19 18  1  0  0  0  0
 20  1  1  0  0  0  0
 21 20  2  0  0  0  0
 22 28  1  0  0  0  0
 22 23  1  0  0  0  0
 23 20  1  0  0  0  0
 24 29  1  0  0  0  0
 24 23  2  0  0  0  0
 25 24  1  0  0  0  0
 26 27  1  0  0  0  0
 26 25  2  0  0  0  0
 27 22  2  0  0  0  0
 30 26  1  0  0  0  0
M  END
>  <minimizedAffinity>
-5.43879604

$$$$

 OpenBabel03262522103D

 30 32  0  0  0  0  0  0  0  0999 V2000
   34.8760   29.7560   32.1390 C   0  0  0  0  0  0  0  0  0  0  0  0
   35.5540   30.5060   31.1890 C   0  0  0  0  0  0  0  0  0  0  0  0
   36.4510   29.8740   30.3500 C   0  0  0  0  0  0  0  0  0  0  0  0
   36.6080   28.5040   30.5310 C   0  0  0  0  0  0  0  0  0  0  0  0
   35.9310   27.7790   31.4750 C   0  0  0  0  0  0  0  0  0  0  0  0
   35.0430   28.4170   32.3010 N   0  0  0  0  0  0  0  0  0  0  0  0
   35.3940   31.5710   31.0900 H   0  0  0  0  0  0  0  0  0  0  0  0
   36.9760   30.4410   29.6160 H   0  0  0  0  0  0  0  0  0  0  0  0
   37.3200   28.0520   29.8550 H   0  0  0  0  0  0  0  0  0  0  0  0
   38.1320   27.0200   33.3250 Cl  0  0  0  0  0  0  0  0  0  0  0  0
   37.1150   25.8590   32.4640 C   0  0  0  0  0  0  0  0  0  0  0  0
   36.1240   26.3480   31.6310 C   0  0  0  0  0  0  0  0  0  0  0  0
   35.3750   25.3930   30.9980 C   0  0  0  0  0  0  0  0  0  0  0  0
   34.5930   25.6770   30.3410 H   0  0  0  0  0  0  0  0  0  0  0  0
   35.5750   24.0280   31.1610 C   0  0  0  0  0  3  0  0  0  0  0  0
   36.5900   23.6360   32.0140 C   0  0  0  0  0  0  0  0  0  0  0  0
   36.8570   21.9170   32.2340 Cl  0  0  0  0  0  0  0  0  0  0  0  0
   37.3930   24.5280   32.6940 C   0  0  0  0  0  0  0  0  0  0  0  0
   38.1830   24.2240   33.3580 H   0  0  0  0  0  0  0  0  0  0  0  0
   33.9470   30.4790   32.9980 C   0  0  0  0  0  0  0  0  0  0  0  0
   32.7840   30.6860   32.6510 O   0  0  0  0  0  0  0  0  0  0  0  0
   33.3620   31.6190   35.1330 C   0  0  0  0  0  0  0  0  0  0  0  0
   34.3400   30.9980   34.3180 C   0  0  0  0  0  0  0  0  0  0  0  0
   35.6260   30.9020   34.7940 C   0  0  0  0  0  0  0  0  0  0  0  0
   35.8970   31.4150   36.0380 N   0  0  0  0  0  0  0  0  0  0  0  0
   34.9440   32.0010   36.7930 C   0  0  0  0  0  0  0  0  0  0  0  0
   33.6870   32.1050   36.3500 N   0  0  0  0  0  0  0  0  0  0  0  0
   32.3490   31.6920   34.7540 H   0  0  0  0  0  0  0  0  0  0  0  0
   36.3790   30.4360   34.1930 H   0  0  0  0  0  0  0  0  0  0  0  0
   35.2360   32.3810   37.7650 H   0  0  0  0  0  0  0  0  0  0  0  0
  1  6  1  0  0  0  0
  1 20  1  0  0  0  0
  2  1  2  0  0  0  0
  3  4  2  0  0  0  0
  3  2  1  0  0  0  0
  4  5  1  0  0  0  0
  5 12  1  0  0  0  0
  5  6  2  0  0  0  0
  7  2  1  0  0  0  0
  8  3  1  0  0  0  0
  9  4  1  0  0  0  0
 11 18  1  0  0  0  0
 11 10  1  0  0  0  0
 12 11  2  0  0  0  0
 13 15  2  0  0  0  0
 13 12  1  0  0  0  0
 14 13  1  0  0  0  0
 15 16  1  0  0  0  0
 16 17  1  0  0  0  0
 16 18  2  0  0  0  0
 18 19  1  0  0  0  0
 20 23  1  0  0  0  0
 21 20  2  0  0  0  0
 22 27  1  0  0  0  0
 23 24  1  0  0  0  0
 23 22  2  0  0  0  0
 24 25  2  0  0  0  0
 25 26  1  0  0  0  0
 26 30  1  0  0  0  0
 27 26  2  0  0  0  0
 28 22  1  0  0  0  0
 29 24  1  0  0  0  0
M  END
>  <minimizedAffinity>
-5.32400131

$$$$

 OpenBabel03262522103D

 30 32  0  0  0  0  0  0  0  0999 V2000
   35.8270   28.7150   32.9140 C   0  0  0  0  0  0  0  0  0  0  0  0
   36.4540   29.2210   31.7840 C   0  0  0  0  0  0  0  0  0  0  0  0
   37.5730   28.5760   31.2930 C   0  0  0  0  0  0  0  0  0  0  0  0
   37.9910   27.4460   31.9860 C   0  0  0  0  0  0  0  0  0  0  0  0
   37.3590   26.9600   33.1000 C   0  0  0  0  0  0  0  0  0  0  0  0
   36.2500   27.6070   33.5790 N   0  0  0  0  0  0  0  0  0  0  0  0
   36.0870   30.1050   31.2830 H   0  0  0  0  0  0  0  0  0  0  0  0
   38.0620   28.9570   30.4250 H   0  0  0  0  0  0  0  0  0  0  0  0
   38.8690   26.9750   31.5680 H   0  0  0  0  0  0  0  0  0  0  0  0
   38.6410   27.4920   35.7300 Cl  0  0  0  0  0  0  0  0  0  0  0  0
   38.4430   25.8820   35.0300 C   0  0  0  0  0  0  0  0  0  0  0  0
   37.8280   25.7740   33.7960 C   0  0  0  0  0  0  0  0  0  0  0  0
   37.7080   24.4980   33.3160 C   0  0  0  0  0  0  0  0  0  0  0  0
   37.2490   24.3210   32.3770 H   0  0  0  0  0  0  0  0  0  0  0  0
   38.1640   23.3760   33.9970 C   0  0  0  0  0  3  0  0  0  0  0  0
   38.7650   23.5840   35.2250 C   0  0  0  0  0  0  0  0  0  0  0  0
   39.3460   22.1800   36.1010 Cl  0  0  0  0  0  0  0  0  0  0  0  0
   38.9280   24.8340   35.7860 C   0  0  0  0  0  0  0  0  0  0  0  0
   39.3960   24.9970   36.7400 H   0  0  0  0  0  0  0  0  0  0  0  0
   34.6550   29.4400   33.3890 C   0  0  0  0  0  0  0  0  0  0  0  0
   33.5760   29.3660   32.8010 O   0  0  0  0  0  0  0  0  0  0  0  0
   33.4910   30.5450   35.2920 C   0  0  0  0  0  0  0  0  0  0  0  0
   34.6940   30.2940   34.5860 C   0  0  0  0  0  0  0  0  0  0  0  0
   35.8570   30.8610   35.0500 C   0  0  0  0  0  0  0  0  0  0  0  0
   35.7930   31.6430   36.1770 N   0  0  0  0  0  0  0  0  0  0  0  0
   34.6320   31.8630   36.8290 C   0  0  0  0  0  0  0  0  0  0  0  0
   33.4890   31.3230   36.3950 N   0  0  0  0  0  0  0  0  0  0  0  0
   32.5760   30.0960   34.9230 H   0  0  0  0  0  0  0  0  0  0  0  0
   36.7760   30.6830   34.5300 H   0  0  0  0  0  0  0  0  0  0  0  0
   34.6640   32.4930   37.7110 H   0  0  0  0  0  0  0  0  0  0  0  0
  1 20  1  0  0  0  0
  1  6  1  0  0  0  0
  2  1  2  0  0  0  0
  3  2  1  0  0  0  0
  3  4  2  0  0  0  0
  4  5  1  0  0  0  0
  5  6  2  0  0  0  0
  5 12  1  0  0  0  0
  7  2  1  0  0  0  0
  8  3  1  0  0  0  0
  9  4  1  0  0  0  0
 11 10  1  0  0  0  0
 11 18  1  0  0  0  0
 12 11  2  0  0  0  0
 13 12  1  0  0  0  0
 13 15  2  0  0  0  0
 14 13  1  0  0  0  0
 15 16  1  0  0  0  0
 16 18  2  0  0  0  0
 16 17  1  0  0  0  0
 18 19  1  0  0  0  0
 20 23  1  0  0  0  0
 21 20  2  0  0  0  0
 22 27  1  0  0  0  0
 23 24  1  0  0  0  0
 23 22  2  0  0  0  0
 24 25  2  0  0  0  0
 25 26  1  0  0  0  0
 26 30  1  0  0  0  0
 27 26  2  0  0  0  0
 28 22  1  0  0  0  0
 29 24  1  0  0  0  0
M  END
>  <minimizedAffinity>
-5.31323624

$$$$

 OpenBabel03262522103D

 30 32  0  0  0  0  0  0  0  0999 V2000
   37.1600   27.7980   32.0910 C   0  0  0  0  0  0  0  0  0  0  0  0
   37.2890   28.4100   30.8520 C   0  0  0  0  0  0  0  0  0  0  0  0
   36.7120   29.6490   30.6520 C   0  0  0  0  0  0  0  0  0  0  0  0
   36.0320   30.1970   31.7350 C   0  0  0  0  0  0  0  0  0  0  0  0
   35.9150   29.5800   32.9520 C   0  0  0  0  0  0  0  0  0  0  0  0
   36.4910   28.3500   33.1380 N   0  0  0  0  0  0  0  0  0  0  0  0
   37.8290   27.9390   30.0430 H   0  0  0  0  0  0  0  0  0  0  0  0
   36.8060   30.1280   29.7050 H   0  0  0  0  0  0  0  0  0  0  0  0
   35.5970   31.1660   31.5340 H   0  0  0  0  0  0  0  0  0  0  0  0
   32.9770   29.1230   32.9190 Cl  0  0  0  0  0  0  0  0  0  0  0  0
   33.8230   30.0500   34.1630 C   0  0  0  0  0  0  0  0  0  0  0  0
   35.1950   30.1870   34.0580 C   0  0  0  0  0  0  0  0  0  0  0  0
   35.7840   30.9170   35.0550 C   0  0  0  0  0  0  0  0  0  0  0  0
   36.8330   31.0730   35.0550 H   0  0  0  0  0  0  0  0  0  0  0  0
   35.0790   31.4900   36.1050 C   0  0  0  0  0  3  0  0  0  0  0  0
   33.7100   31.2990   36.1240 C   0  0  0  0  0  0  0  0  0  0  0  0
   32.8010   32.0140   37.4430 Cl  0  0  0  0  0  0  0  0  0  0  0  0
   33.0330   30.5770   35.1620 C   0  0  0  0  0  0  0  0  0  0  0  0
   31.9680   30.4290   35.1770 H   0  0  0  0  0  0  0  0  0  0  0  0
   37.7850   26.4900   32.2400 C   0  0  0  0  0  0  0  0  0  0  0  0
   38.9680   26.3800   32.5600 O   0  0  0  0  0  0  0  0  0  0  0  0
   37.5790   24.0250   32.5200 C   0  0  0  0  0  0  0  0  0  0  0  0
   37.0450   25.2380   32.0190 C   0  0  0  0  0  0  0  0  0  0  0  0
   35.8480   25.1990   31.3430 C   0  0  0  0  0  0  0  0  0  0  0  0
   35.2310   23.9820   31.1880 N   0  0  0  0  0  0  0  0  0  0  0  0
   35.7640   22.8430   31.6760 C   0  0  0  0  0  0  0  0  0  0  0  0
   36.9260   22.8570   32.3360 N   0  0  0  0  0  0  0  0  0  0  0  0
   38.5220   24.0610   33.0520 H   0  0  0  0  0  0  0  0  0  0  0  0
   35.4290   26.1050   30.9580 H   0  0  0  0  0  0  0  0  0  0  0  0
   35.2160   21.9220   31.5120 H   0  0  0  0  0  0  0  0  0  0  0  0
  1 20  1  0  0  0  0
  1  6  1  0  0  0  0
  2  1  2  0  0  0  0
  3  2  1  0  0  0  0
  3  4  2  0  0  0  0
  4  5  1  0  0  0  0
  5  6  2  0  0  0  0
  5 12  1  0  0  0  0
  7  2  1  0  0  0  0
  8  3  1  0  0  0  0
  9  4  1  0  0  0  0
 10 11  1  0  0  0  0
 11 18  1  0  0  0  0
 12 11  2  0  0  0  0
 12 13  1  0  0  0  0
 13 15  2  0  0  0  0
 14 13  1  0  0  0  0
 15 16  1  0  0  0  0
 16 17  1  0  0  0  0
 18 19  1  0  0  0  0
 18 16  2  0  0  0  0
 20 21  2  0  0  0  0
 22 28  1  0  0  0  0
 23 20  1  0  0  0  0
 23 22  2  0  0  0  0
 24 23  1  0  0  0  0
 25 24  2  0  0  0  0
 25 26  1  0  0  0  0
 26 27  2  0  0  0  0
 27 22  1  0  0  0  0
 29 24  1  0  0  0  0
 30 26  1  0  0  0  0
M  END
>  <minimizedAffinity>
-5.30784798

$$$$

 OpenBabel03262522103D

 30 32  0  0  0  0  0  0  0  0999 V2000
   40.7100   23.1500   36.6330 C   0  0  0  0  0  0  0  0  0  0  0  0
   40.0450   22.8400   37.8110 C   0  0  0  0  0  0  0  0  0  0  0  0
   38.7200   23.2060   37.9500 C   0  0  0  0  0  0  0  0  0  0  0  0
   38.1460   23.8720   36.8730 C   0  0  0  0  0  0  0  0  0  0  0  0
   38.8170   24.1710   35.7170 C   0  0  0  0  0  0  0  0  0  0  0  0
   40.1310   23.8030   35.5900 N   0  0  0  0  0  0  0  0  0  0  0  0
   40.5400   22.3190   38.6180 H   0  0  0  0  0  0  0  0  0  0  0  0
   38.2010   22.9720   38.8510 H   0  0  0  0  0  0  0  0  0  0  0  0
   37.1100   24.1400   37.0260 H   0  0  0  0  0  0  0  0  0  0  0  0
   38.5890   27.1130   36.0790 Cl  0  0  0  0  0  0  0  0  0  0  0  0
   38.0110   26.2410   34.6560 C   0  0  0  0  0  0  0  0  0  0  0  0
   38.1790   24.8690   34.6150 C   0  0  0  0  0  0  0  0  0  0  0  0
   37.7090   24.2600   33.4830 C   0  0  0  0  0  0  0  0  0  0  0  0
   37.7960   23.2090   33.3660 H   0  0  0  0  0  0  0  0  0  0  0  0
   37.1020   24.9450   32.4380 C   0  0  0  0  0  3  0  0  0  0  0  0
   36.9780   26.3160   32.5700 C   0  0  0  0  0  0  0  0  0  0  0  0
   36.2150   27.1990   31.2610 Cl  0  0  0  0  0  0  0  0  0  0  0  0
   37.4240   27.0130   33.6750 C   0  0  0  0  0  0  0  0  0  0  0  0
   37.3280   28.0790   33.7780 H   0  0  0  0  0  0  0  0  0  0  0  0
   42.1060   22.7430   36.5460 C   0  0  0  0  0  0  0  0  0  0  0  0
   43.0190   23.5500   36.7230 O   0  0  0  0  0  0  0  0  0  0  0  0
   42.6640   20.9660   34.8950 C   0  0  0  0  0  0  0  0  0  0  0  0
   42.5030   21.3590   36.2470 C   0  0  0  0  0  0  0  0  0  0  0  0
   42.7270   20.4260   37.2320 C   0  0  0  0  0  0  0  0  0  0  0  0
   43.0950   19.1590   36.8540 N   0  0  0  0  0  0  0  0  0  0  0  0
   43.2410   18.8130   35.5580 C   0  0  0  0  0  0  0  0  0  0  0  0
   43.0280   19.7030   34.5830 N   0  0  0  0  0  0  0  0  0  0  0  0
   42.4870   21.7040   34.1210 H   0  0  0  0  0  0  0  0  0  0  0  0
   42.6110   20.7040   38.2590 H   0  0  0  0  0  0  0  0  0  0  0  0
   43.5340   17.7930   35.3400 H   0  0  0  0  0  0  0  0  0  0  0  0
  1  2  1  0  0  0  0
  2  3  2  0  0  0  0
  2  7  1  0  0  0  0
  3  8  1  0  0  0  0
  4  9  1  0  0  0  0
  4  3  1  0  0  0  0
  5  4  2  0  0  0  0
  6  5  1  0  0  0  0
  6  1  2  0  0  0  0
 11 10  1  0  0  0  0
 12 11  1  0  0  0  0
 12  5  1  0  0  0  0
 13 12  2  0  0  0  0
 14 13  1  0  0  0  0
 15 16  2  0  0  0  0
 15 13  1  0  0  0  0
 16 18  1  0  0  0  0
 17 16  1  0  0  0  0
 18 19  1  0  0  0  0
 18 11  2  0  0  0  0
 20  1  1  0  0  0  0
 20 21  2  0  0  0  0
 22 23  1  0  0  0  0
 23 20  1  0  0  0  0
 23 24  2  0  0  0  0
 24 29  1  0  0  0  0
 25 24  1  0  0  0  0
 26 25  2  0  0  0  0
 27 22  2  0  0  0  0
 27 26  1  0  0  0  0
 28 22  1  0  0  0  0
 30 26  1  0  0  0  0
M  END
>  <minimizedAffinity>
-5.28174639

$$$$

 OpenBabel03262522103D

 30 32  0  0  0  0  0  0  0  0999 V2000
   38.3470   24.6220   35.4350 C   0  0  0  0  0  0  0  0  0  0  0  0
   38.3720   25.4080   36.5780 C   0  0  0  0  0  0  0  0  0  0  0  0
   38.2560   26.7790   36.4520 C   0  0  0  0  0  0  0  0  0  0  0  0
   38.1210   27.2730   35.1600 C   0  0  0  0  0  0  0  0  0  0  0  0
   38.0980   26.4820   34.0410 C   0  0  0  0  0  0  0  0  0  0  0  0
   38.2140   25.1230   34.1780 N   0  0  0  0  0  0  0  0  0  0  0  0
   38.4800   24.9720   37.5610 H   0  0  0  0  0  0  0  0  0  0  0  0
   38.2740   27.3910   37.3240 H   0  0  0  0  0  0  0  0  0  0  0  0
   38.0350   28.3490   35.1080 H   0  0  0  0  0  0  0  0  0  0  0  0
   40.6650   27.0450   32.6510 Cl  0  0  0  0  0  0  0  0  0  0  0  0
   39.0710   27.3460   31.9510 C   0  0  0  0  0  0  0  0  0  0  0  0
   37.9540   27.0380   32.7070 C   0  0  0  0  0  0  0  0  0  0  0  0
   36.7540   27.2960   32.1020 C   0  0  0  0  0  0  0  0  0  0  0  0
   35.8450   27.0910   32.6090 H   0  0  0  0  0  0  0  0  0  0  0  0
   36.6380   27.8290   30.8250 C   0  0  0  0  0  3  0  0  0  0  0  0
   37.8100   28.1040   30.1460 C   0  0  0  0  0  0  0  0  0  0  0  0
   37.6840   28.7760   28.5310 Cl  0  0  0  0  0  0  0  0  0  0  0  0
   39.0630   27.8750   30.6770 C   0  0  0  0  0  0  0  0  0  0  0  0
   39.9760   28.0890   30.1500 H   0  0  0  0  0  0  0  0  0  0  0  0
   38.4790   23.1840   35.6290 C   0  0  0  0  0  0  0  0  0  0  0  0
   37.5030   22.4370   35.5540 O   0  0  0  0  0  0  0  0  0  0  0  0
   40.6410   22.2230   34.8530 C   0  0  0  0  0  0  0  0  0  0  0  0
   39.7720   22.5470   35.9250 C   0  0  0  0  0  0  0  0  0  0  0  0
   40.1740   22.2540   37.2060 C   0  0  0  0  0  0  0  0  0  0  0  0
   41.3990   21.6610   37.3820 N   0  0  0  0  0  0  0  0  0  0  0  0
   42.2060   21.3640   36.3420 C   0  0  0  0  0  0  0  0  0  0  0  0
   41.8360   21.6400   35.0870 N   0  0  0  0  0  0  0  0  0  0  0  0
   40.3200   22.4570   33.8440 H   0  0  0  0  0  0  0  0  0  0  0  0
   39.5310   22.4910   38.0290 H   0  0  0  0  0  0  0  0  0  0  0  0
   43.1580   20.8960   36.5620 H   0  0  0  0  0  0  0  0  0  0  0  0
  1 20  1  0  0  0  0
  1  2  1  0  0  0  0
  2  7  1  0  0  0  0
  3  2  2  0  0  0  0
  3  8  1  0  0  0  0
  4  3  1  0  0  0  0
  5  6  1  0  0  0  0
  5  4  2  0  0  0  0
  6  1  2  0  0  0  0
  9  4  1  0  0  0  0
 11 10  1  0  0  0  0
 11 12  1  0  0  0  0
 12  5  1  0  0  0  0
 13 14  1  0  0  0  0
 13 12  2  0  0  0  0
 15 13  1  0  0  0  0
 16 18  1  0  0  0  0
 16 15  2  0  0  0  0
 17 16  1  0  0  0  0
 18 11  2  0  0  0  0
 19 18  1  0  0  0  0
 20 23  1  0  0  0  0
 21 20  2  0  0  0  0
 22 27  2  0  0  0  0
 22 23  1  0  0  0  0
 23 24  2  0  0  0  0
 24 25  1  0  0  0  0
 24 29  1  0  0  0  0
 26 30  1  0  0  0  0
 26 25  2  0  0  0  0
 27 26  1  0  0  0  0
 28 22  1  0  0  0  0
M  END
>  <minimizedAffinity>
-5.28095436

$$$$

 OpenBabel03262522103D

 30 32  0  0  0  0  0  0  0  0999 V2000
   40.0060   23.1330   37.0620 C   0  0  0  0  0  0  0  0  0  0  0  0
   39.3040   22.8920   38.2340 C   0  0  0  0  0  0  0  0  0  0  0  0
   38.1140   23.5590   38.4540 C   0  0  0  0  0  0  0  0  0  0  0  0
   37.7060   24.4390   37.4580 C   0  0  0  0  0  0  0  0  0  0  0  0
   38.4100   24.6660   36.3050 C   0  0  0  0  0  0  0  0  0  0  0  0
   39.5900   23.9990   36.0990 N   0  0  0  0  0  0  0  0  0  0  0  0
   39.6680   22.1960   38.9770 H   0  0  0  0  0  0  0  0  0  0  0  0
   37.5680   23.3800   39.3510 H   0  0  0  0  0  0  0  0  0  0  0  0
   36.7710   24.9390   37.6710 H   0  0  0  0  0  0  0  0  0  0  0  0
   37.8610   23.4310   33.6570 Cl  0  0  0  0  0  0  0  0  0  0  0  0
   37.6560   25.1500   34.0120 C   0  0  0  0  0  0  0  0  0  0  0  0
   37.9490   25.5940   35.2890 C   0  0  0  0  0  0  0  0  0  0  0  0
   37.7670   26.9350   35.4930 C   0  0  0  0  0  0  0  0  0  0  0  0
   37.9670   27.3640   36.4420 H   0  0  0  0  0  0  0  0  0  0  0  0
   37.3240   27.8080   34.5070 C   0  0  0  0  0  3  0  0  0  0  0  0
   37.0580   27.2710   33.2610 C   0  0  0  0  0  0  0  0  0  0  0  0
   36.4970   28.3570   32.0030 Cl  0  0  0  0  0  0  0  0  0  0  0  0
   37.2120   25.9320   32.9660 C   0  0  0  0  0  0  0  0  0  0  0  0
   37.0050   25.5130   31.9980 H   0  0  0  0  0  0  0  0  0  0  0  0
   41.2560   22.4060   36.8890 C   0  0  0  0  0  0  0  0  0  0  0  0
   41.5050   21.3970   37.5490 O   0  0  0  0  0  0  0  0  0  0  0  0
   42.3480   22.1930   34.6620 C   0  0  0  0  0  0  0  0  0  0  0  0
   42.2850   22.8300   35.9260 C   0  0  0  0  0  0  0  0  0  0  0  0
   43.1900   23.8250   36.2050 C   0  0  0  0  0  0  0  0  0  0  0  0
   44.1120   24.1520   35.2420 N   0  0  0  0  0  0  0  0  0  0  0  0
   44.1480   23.5290   34.0460 C   0  0  0  0  0  0  0  0  0  0  0  0
   43.2780   22.5580   33.7530 N   0  0  0  0  0  0  0  0  0  0  0  0
   41.6320   21.4090   34.4450 H   0  0  0  0  0  0  0  0  0  0  0  0
   43.1580   24.3180   37.1550 H   0  0  0  0  0  0  0  0  0  0  0  0
   44.9060   23.8440   33.3380 H   0  0  0  0  0  0  0  0  0  0  0  0
  1  2  1  0  0  0  0
  2  3  2  0  0  0  0
  2  7  1  0  0  0  0
  3  8  1  0  0  0  0
  4  9  1  0  0  0  0
  4  3  1  0  0  0  0
  5  4  2  0  0  0  0
  6  5  1  0  0  0  0
  6  1  2  0  0  0  0
 10 11  1  0  0  0  0
 11 12  1  0  0  0  0
 12 13  2  0  0  0  0
 12  5  1  0  0  0  0
 13 14  1  0  0  0  0
 15 13  1  0  0  0  0
 16 15  2  0  0  0  0
 17 16  1  0  0  0  0
 18 16  1  0  0  0  0
 18 11  2  0  0  0  0
 19 18  1  0  0  0  0
 20  1  1  0  0  0  0
 20 21  2  0  0  0  0
 22 23  1  0  0  0  0
 23 24  2  0  0  0  0
 23 20  1  0  0  0  0
 24 29  1  0  0  0  0
 25 24  1  0  0  0  0
 26 25  2  0  0  0  0
 27 26  1  0  0  0  0
 27 22  2  0  0  0  0
 28 22  1  0  0  0  0
 30 26  1  0  0  0  0
M  END
>  <minimizedAffinity>
-5.27521658

$$$$

 OpenBabel03262522103D

 30 32  0  0  0  0  0  0  0  0999 V2000
   37.8600   25.3310   33.6300 C   0  0  0  0  0  0  0  0  0  0  0  0
   37.1670   26.4000   33.0790 C   0  0  0  0  0  0  0  0  0  0  0  0
   36.3260   26.1740   32.0070 C   0  0  0  0  0  0  0  0  0  0  0  0
   36.2390   24.8620   31.5550 C   0  0  0  0  0  0  0  0  0  0  0  0
   36.9310   23.8180   32.1100 C   0  0  0  0  0  0  0  0  0  0  0  0
   37.7630   24.0540   33.1730 N   0  0  0  0  0  0  0  0  0  0  0  0
   37.2710   27.4020   33.4710 H   0  0  0  0  0  0  0  0  0  0  0  0
   35.7890   26.9880   31.5780 H   0  0  0  0  0  0  0  0  0  0  0  0
   35.5720   24.7310   30.7150 H   0  0  0  0  0  0  0  0  0  0  0  0
   39.1710   22.9450   30.3600 Cl  0  0  0  0  0  0  0  0  0  0  0  0
   37.7870   21.9300   30.7820 C   0  0  0  0  0  0  0  0  0  0  0  0
   36.8130   22.4600   31.6070 C   0  0  0  0  0  0  0  0  0  0  0  0
   35.7720   21.6190   31.8920 C   0  0  0  0  0  0  0  0  0  0  0  0
   34.9790   21.9420   32.5170 H   0  0  0  0  0  0  0  0  0  0  0  0
   35.6770   20.3230   31.4010 C   0  0  0  0  0  3  0  0  0  0  0  0
   36.7000   19.8810   30.5830 C   0  0  0  0  0  0  0  0  0  0  0  0
   36.5980   18.2470   29.9530 Cl  0  0  0  0  0  0  0  0  0  0  0  0
   37.7870   20.6600   30.2440 C   0  0  0  0  0  0  0  0  0  0  0  0
   38.5840   20.3170   29.6070 H   0  0  0  0  0  0  0  0  0  0  0  0
   38.7360   25.6320   34.7550 C   0  0  0  0  0  0  0  0  0  0  0  0
   39.3910   26.6740   34.7930 O   0  0  0  0  0  0  0  0  0  0  0  0
   37.9510   24.7850   36.9600 C   0  0  0  0  0  0  0  0  0  0  0  0
   38.8870   24.7190   35.8980 C   0  0  0  0  0  0  0  0  0  0  0  0
   39.9050   23.7990   35.9770 C   0  0  0  0  0  0  0  0  0  0  0  0
   39.9620   22.9890   37.0840 N   0  0  0  0  0  0  0  0  0  0  0  0
   39.0560   23.0730   38.0800 C   0  0  0  0  0  0  0  0  0  0  0  0
   38.0580   23.9610   38.0250 N   0  0  0  0  0  0  0  0  0  0  0  0
   37.1500   25.5120   36.8940 H   0  0  0  0  0  0  0  0  0  0  0  0
   40.6210   23.7340   35.1840 H   0  0  0  0  0  0  0  0  0  0  0  0
   39.1700   22.3990   38.9210 H   0  0  0  0  0  0  0  0  0  0  0  0
  1 20  1  0  0  0  0
  2  7  1  0  0  0  0
  2  1  2  0  0  0  0
  3  2  1  0  0  0  0
  4  3  2  0  0  0  0
  4  5  1  0  0  0  0
  5  6  2  0  0  0  0
  6  1  1  0  0  0  0
  8  3  1  0  0  0  0
  9  4  1  0  0  0  0
 10 11  1  0  0  0  0
 11 12  1  0  0  0  0
 12 13  2  0  0  0  0
 12  5  1  0  0  0  0
 13 14  1  0  0  0  0
 15 13  1  0  0  0  0
 16 15  2  0  0  0  0
 17 16  1  0  0  0  0
 18 16  1  0  0  0  0
 18 11  2  0  0  0  0
 19 18  1  0  0  0  0
 20 21  2  0  0  0  0
 20 23  1  0  0  0  0
 22 27  1  0  0  0  0
 23 24  1  0  0  0  0
 23 22  2  0  0  0  0
 24 25  2  0  0  0  0
 25 26  1  0  0  0  0
 26 30  1  0  0  0  0
 27 26  2  0  0  0  0
 28 22  1  0  0  0  0
 29 24  1  0  0  0  0
M  END
>  <minimizedAffinity>
-5.23501778

$$$$
