
 OpenBabel03272506483D

 43 46  0  0  1  0  0  0  0  0999 V2000
   32.0130   28.3710   47.4880 C   0  0  2  0  0  0  0  0  0  0  0  0
   33.2710   28.1710   48.2810 C   0  0  1  0  0  0  0  0  0  0  0  0
   33.6360   26.8620   48.1690 O   0  0  0  0  0  0  0  0  0  0  0  0
   32.8970   26.2650   47.1530 C   0  0  0  0  0  0  0  0  0  0  0  0
   32.2980   27.3720   46.3230 C   0  0  1  0  0  0  0  0  0  0  0  0
   31.0940   28.0370   47.9560 H   0  0  0  0  0  0  0  0  0  0  0  0
   33.1580   28.4670   49.3410 H   0  0  0  0  0  0  0  0  0  0  0  0
   32.2050   25.5850   47.6240 H   0  0  0  0  0  0  0  0  0  0  0  0
   33.5570   25.6900   46.4540 H   0  0  0  0  0  0  0  0  0  0  0  0
   33.0280   27.8490   45.6670 H   0  0  0  0  0  0  0  0  0  0  0  0
   31.9570   29.6800   46.9650 O   0  0  0  0  0  0  0  0  0  0  0  0
   32.6520   30.2660   47.3620 H   0  0  0  0  0  0  0  0  0  0  0  0
   34.5840   29.1950   47.5020 S   0  0  0  0  0  0  0  0  0  0  0  0
   37.0010   29.2460   50.6420 C   0  0  0  0  0  0  0  0  0  0  0  0
   37.4170   30.5700   50.7640 C   0  0  0  0  0  0  0  0  0  0  0  0
   36.9250   31.4930   49.8270 C   0  0  0  0  0  0  0  0  0  0  0  0
   36.0750   31.0520   48.8570 N   0  0  0  0  0  0  0  0  0  0  0  0
   35.7020   29.7550   48.7840 C   0  0  0  0  0  0  0  0  0  0  0  0
   36.1570   28.8350   49.6730 N   0  0  0  0  0  0  0  0  0  0  0  0
   37.3190   28.4580   51.3100 H   0  0  0  0  0  0  0  0  0  0  0  0
   38.0990   30.8270   51.5730 H   0  0  0  0  0  0  0  0  0  0  0  0
   37.2360   32.5110   49.9080 H   0  0  0  0  0  0  0  0  0  0  0  0
   31.1280   26.9250   45.7600 O   0  0  0  0  0  0  0  0  0  0  0  0
   29.9420   29.1640   44.2590 Cl  0  0  0  0  0  0  0  0  0  0  0  0
   29.2430   28.2340   45.5640 C   0  0  0  0  0  0  0  0  0  0  0  0
   29.8950   27.1940   46.1850 C   0  0  0  0  0  0  0  0  0  0  0  0
   29.2230   26.5080   47.1990 C   0  0  0  0  0  0  0  0  0  0  0  0
   27.9430   26.8700   47.5620 C   0  0  0  0  0  0  0  0  0  0  0  0
   27.2770   27.9150   46.9430 C   0  0  0  0  0  0  0  0  0  0  0  0
   27.9390   28.5970   45.9390 C   0  0  0  0  0  0  0  0  0  0  0  0
   29.6540   25.6810   47.7350 H   0  0  0  0  0  0  0  0  0  0  0  0
   27.3640   26.3860   48.3340 H   0  0  0  0  0  0  0  0  0  0  0  0
   26.2680   28.2330   47.1970 H   0  0  0  0  0  0  0  0  0  0  0  0
   26.5540   28.1350   43.2580 Cl  0  0  0  0  0  0  0  0  0  0  0  0
   26.5880   29.6750   44.0860 C   0  0  0  0  0  0  0  0  0  0  0  0
   27.2530   29.7010   45.2760 C   0  0  0  0  0  0  0  0  0  0  0  0
   27.3440   30.8800   46.0240 C   0  0  0  0  0  0  0  0  0  0  0  0
   27.8480   31.0080   46.9810 H   0  0  0  0  0  0  0  0  0  0  0  0
   26.7430   32.0470   45.5420 C   0  0  0  0  0  3  0  0  0  0  0  0
   26.0740   32.0000   44.3350 C   0  0  0  0  0  0  0  0  0  0  0  0
   25.3120   33.4650   43.7160 Cl  0  0  0  0  0  0  0  0  0  0  0  0
   25.9860   30.8360   43.6000 C   0  0  0  0  0  0  0  0  0  0  0  0
   25.4660   30.7660   42.6440 H   0  0  0  0  0  0  0  0  0  0  0  0
  1  6  1  1  0  0  0
  1  2  1  0  0  0  0
  2  7  1  1  0  0  0
  3  2  1  0  0  0  0
  4  8  1  0  0  0  0
  4  3  1  0  0  0  0
  5 10  1  6  0  0  0
  5  4  1  0  0  0  0
  5  1  1  0  0  0  0
  9  4  1  0  0  0  0
 11 12  1  0  0  0  0
 11  1  1  0  0  0  0
 13  2  1  0  0  0  0
 13 18  1  0  0  0  0
 14 15  1  0  0  0  0
 14 20  1  0  0  0  0
 15 21  1  0  0  0  0
 16 22  1  0  0  0  0
 16 15  2  0  0  0  0
 17 16  1  0  0  0  0
 18 17  2  0  0  0  0
 18 19  1  0  0  0  0
 19 14  2  0  0  0  0
 23 26  1  0  0  0  0
 23  5  1  0  0  0  0
 24 25  1  0  0  0  0
 25 30  2  0  0  0  0
 25 26  1  0  0  0  0
 26 27  2  0  0  0  0
 27 28  1  0  0  0  0
 27 31  1  0  0  0  0
 28 32  1  0  0  0  0
 29 33  1  0  0  0  0
 29 28  2  0  0  0  0
 30 29  1  0  0  0  0
 34 35  1  0  0  0  0
 35 36  1  0  0  0  0
 36 30  1  0  0  0  0
 36 37  2  0  0  0  0
 37 38  1  0  0  0  0
 39 37  1  0  0  0  0
 40 39  2  0  0  0  0
 41 40  1  0  0  0  0
 42 35  2  0  0  0  0
 42 40  1  0  0  0  0
 43 42  1  0  0  0  0
M  END
>  <minimizedAffinity>
-5.80202341

>  <minimizedRMSD>
0.433817655

$$$$
