
 OpenBabel03272506003D

 45 48  0  0  1  0  0  0  0  0999 V2000
   37.7030   24.5100   33.3790 C   0  0  2  0  0  0  0  0  0  0  0  0
   37.1010   25.7810   32.9200 C   0  0  0  0  0  0  0  0  0  0  0  0
   38.1120   26.6930   32.2010 C   0  0  2  0  0  0  0  0  0  0  0  0
   39.3040   27.0020   32.9870 C   0  0  0  0  0  0  0  0  0  0  0  0
   39.7970   25.8270   33.8340 C   0  0  0  0  0  0  0  0  0  0  0  0
   39.2160   24.5270   33.3510 C   0  0  0  0  0  0  0  0  0  0  0  0
   37.4510   24.2730   34.4560 H   0  0  0  0  0  0  0  0  0  0  0  0
   36.8620   26.3830   33.8580 H   0  0  0  0  0  0  0  0  0  0  0  0
   36.2510   25.8170   32.2850 H   0  0  0  0  0  0  0  0  0  0  0  0
   38.3470   26.2350   31.2270 H   0  0  0  0  0  0  0  0  0  0  0  0
   40.1410   27.3080   32.3290 H   0  0  0  0  0  0  0  0  0  0  0  0
   39.1690   27.8280   33.7070 H   0  0  0  0  0  0  0  0  0  0  0  0
   40.9000   25.7250   33.7440 H   0  0  0  0  0  0  0  0  0  0  0  0
   39.5190   25.9400   34.9000 H   0  0  0  0  0  0  0  0  0  0  0  0
   39.5770   23.7280   34.0270 H   0  0  0  0  0  0  0  0  0  0  0  0
   39.6020   24.2560   32.3300 H   0  0  0  0  0  0  0  0  0  0  0  0
   36.8230   27.8750   34.5730 Cl  0  0  0  0  0  0  0  0  0  0  0  0
   36.6560   28.5680   32.9670 C   0  0  0  0  0  0  0  0  0  0  0  0
   37.3300   27.9380   31.9360 C   0  0  0  0  0  0  0  0  0  0  0  0
   37.1450   28.5610   30.7130 C   0  0  0  0  0  0  0  0  0  0  0  0
   36.3650   29.6900   30.5600 C   0  0  0  0  0  0  0  0  0  0  0  0
   35.7230   30.2580   31.6560 C   0  0  0  0  0  0  0  0  0  0  0  0
   35.8810   29.6670   32.9040 C   0  0  0  0  0  0  0  0  0  0  0  0
   37.6500   28.1150   29.8670 H   0  0  0  0  0  0  0  0  0  0  0  0
   36.3040   30.0790   29.5420 H   0  0  0  0  0  0  0  0  0  0  0  0
   35.1300   31.1390   31.4710 H   0  0  0  0  0  0  0  0  0  0  0  0
   33.0530   28.8800   32.9500 Cl  0  0  0  0  0  0  0  0  0  0  0  0
   33.8650   29.9230   34.1220 C   0  0  0  0  0  0  0  0  0  0  0  0
   35.2060   30.2630   34.0520 C   0  0  0  0  0  0  0  0  0  0  0  0
   35.7630   31.0880   35.0140 C   0  0  0  0  0  0  0  0  0  0  0  0
   36.7980   31.3000   34.8870 H   0  0  0  0  0  0  0  0  0  0  0  0
   34.9230   31.5340   36.0150 C   0  0  0  0  0  3  0  0  0  0  0  0
   33.5890   31.2020   36.0930 C   0  0  0  0  0  0  0  0  0  0  0  0
   32.5960   31.8150   37.3970 Cl  0  0  0  0  0  0  0  0  0  0  0  0
   33.0600   30.3860   35.1320 C   0  0  0  0  0  0  0  0  0  0  0  0
   31.9970   30.1360   35.2160 H   0  0  0  0  0  0  0  0  0  0  0  0
   37.2600   23.3420   32.6060 C   0  0  0  0  0  0  0  0  0  0  0  0
   38.0860   22.2190   32.7010 C   0  0  0  0  0  0  0  0  0  0  0  0
   37.7020   21.0690   31.9990 C   0  0  0  0  0  0  0  0  0  0  0  0
   36.5320   21.1010   31.2490 N   0  0  0  0  0  0  0  0  0  0  0  0
   35.7690   22.2080   31.1870 C   0  0  0  0  0  0  0  0  0  0  0  0
   36.1510   23.2940   31.8640 N   0  0  0  0  0  0  0  0  0  0  0  0
   39.0030   21.9130   33.1700 H   0  0  0  0  0  0  0  0  0  0  0  0
   38.1370   20.1010   31.9010 H   0  0  0  0  0  0  0  0  0  0  0  0
   34.8590   22.2360   30.6050 H   0  0  0  0  0  0  0  0  0  0  0  0
  1  7  1  1  0  0  0
  2  1  1  0  0  0  0
  2  8  1  0  0  0  0
  3 10  1  6  0  0  0
  3  2  1  0  0  0  0
  3  4  1  0  0  0  0
  4 12  1  0  0  0  0
  4  5  1  0  0  0  0
  5 14  1  0  0  0  0
  6  1  1  0  0  0  0
  6  5  1  0  0  0  0
  6 15  1  0  0  0  0
  9  2  1  0  0  0  0
 11  4  1  0  0  0  0
 13  5  1  0  0  0  0
 16  6  1  0  0  0  0
 18 17  1  0  0  0  0
 19  3  1  0  0  0  0
 19 18  2  0  0  0  0
 20 19  1  0  0  0  0
 21 20  2  0  0  0  0
 21 22  1  0  0  0  0
 22 23  2  0  0  0  0
 23 18  1  0  0  0  0
 23 29  1  0  0  0  0
 24 20  1  0  0  0  0
 25 21  1  0  0  0  0
 26 22  1  0  0  0  0
 27 28  1  0  0  0  0
 28 35  1  0  0  0  0
 29 28  2  0  0  0  0
 29 30  1  0  0  0  0
 30 32  2  0  0  0  0
 31 30  1  0  0  0  0
 32 33  1  0  0  0  0
 33 34  1  0  0  0  0
 35 36  1  0  0  0  0
 35 33  2  0  0  0  0
 37 38  1  0  0  0  0
 37  1  1  0  0  0  0
 38 43  1  0  0  0  0
 39 38  2  0  0  0  0
 40 39  1  0  0  0  0
 41 40  2  0  0  0  0
 41 42  1  0  0  0  0
 42 37  2  0  0  0  0
 44 39  1  0  0  0  0
 45 41  1  0  0  0  0
M  END
>  <minimizedAffinity>
-6.29855776

$$$$

 OpenBabel03272506003D

 45 48  0  0  1  0  0  0  0  0999 V2000
   34.8120   30.2140   32.9520 C   0  0  2  0  0  0  0  0  0  0  0  0
   35.1550   28.7750   32.9150 C   0  0  0  0  0  0  0  0  0  0  0  0
   36.6200   28.5220   32.5160 C   0  0  2  0  0  0  0  0  0  0  0  0
   37.0060   29.1230   31.2410 C   0  0  0  0  0  0  0  0  0  0  0  0
   36.3680   30.4910   30.9950 C   0  0  0  0  0  0  0  0  0  0  0  0
   35.8460   31.0860   32.2750 C   0  0  0  0  0  0  0  0  0  0  0  0
   33.8520   30.4460   32.4000 H   0  0  0  0  0  0  0  0  0  0  0  0
   34.5860   28.3300   32.0320 H   0  0  0  0  0  0  0  0  0  0  0  0
   35.0180   28.1310   33.7480 H   0  0  0  0  0  0  0  0  0  0  0  0
   37.2590   28.8440   33.3530 H   0  0  0  0  0  0  0  0  0  0  0  0
   38.1040   29.2560   31.1860 H   0  0  0  0  0  0  0  0  0  0  0  0
   36.7290   28.5220   30.3560 H   0  0  0  0  0  0  0  0  0  0  0  0
   37.1280   31.2060   30.6100 H   0  0  0  0  0  0  0  0  0  0  0  0
   35.5200   30.4320   30.2850 H   0  0  0  0  0  0  0  0  0  0  0  0
   35.3640   32.0500   32.0220 H   0  0  0  0  0  0  0  0  0  0  0  0
   36.6820   31.3420   32.9820 H   0  0  0  0  0  0  0  0  0  0  0  0
   38.2320   27.2520   34.6320 Cl  0  0  0  0  0  0  0  0  0  0  0  0
   37.4580   26.3270   33.3550 C   0  0  0  0  0  0  0  0  0  0  0  0
   36.7050   27.0330   32.4330 C   0  0  0  0  0  0  0  0  0  0  0  0
   36.1300   26.2180   31.4720 C   0  0  0  0  0  0  0  0  0  0  0  0
   36.3010   24.8480   31.4530 C   0  0  0  0  0  0  0  0  0  0  0  0
   37.0760   24.2210   32.4230 C   0  0  0  0  0  0  0  0  0  0  0  0
   37.6730   24.9990   33.4080 C   0  0  0  0  0  0  0  0  0  0  0  0
   35.5250   26.7140   30.7230 H   0  0  0  0  0  0  0  0  0  0  0  0
   35.7920   24.3270   30.6410 H   0  0  0  0  0  0  0  0  0  0  0  0
   37.1700   23.1500   32.3550 H   0  0  0  0  0  0  0  0  0  0  0  0
   40.4530   24.7620   32.4970 Cl  0  0  0  0  0  0  0  0  0  0  0  0
   39.8120   24.2020   34.0440 C   0  0  0  0  0  0  0  0  0  0  0  0
   38.4860   24.3390   34.4250 C   0  0  0  0  0  0  0  0  0  0  0  0
   38.0670   23.8720   35.6580 C   0  0  0  0  0  0  0  0  0  0  0  0
   37.0350   24.0170   35.8720 H   0  0  0  0  0  0  0  0  0  0  0  0
   39.0230   23.2780   36.4580 C   0  0  0  0  0  3  0  0  0  0  0  0
   40.3420   23.1360   36.0890 C   0  0  0  0  0  0  0  0  0  0  0  0
   41.4890   22.3690   37.1670 Cl  0  0  0  0  0  0  0  0  0  0  0  0
   40.7350   23.6060   34.8660 C   0  0  0  0  0  0  0  0  0  0  0  0
   41.7890   23.4810   34.5960 H   0  0  0  0  0  0  0  0  0  0  0  0
   34.6190   30.7330   34.3130 C   0  0  0  0  0  0  0  0  0  0  0  0
   35.7610   31.2730   34.9090 C   0  0  0  0  0  0  0  0  0  0  0  0
   35.6310   31.8000   36.2010 C   0  0  0  0  0  0  0  0  0  0  0  0
   34.3860   31.7590   36.8190 N   0  0  0  0  0  0  0  0  0  0  0  0
   33.3150   31.2270   36.2040 C   0  0  0  0  0  0  0  0  0  0  0  0
   33.4580   30.7300   34.9720 N   0  0  0  0  0  0  0  0  0  0  0  0
   36.8020   31.4300   34.6950 H   0  0  0  0  0  0  0  0  0  0  0  0
   36.3220   32.2600   36.8690 H   0  0  0  0  0  0  0  0  0  0  0  0
   32.3450   31.1940   36.6810 H   0  0  0  0  0  0  0  0  0  0  0  0
  1  7  1  6  0  0  0
  1 37  1  0  0  0  0
  2  1  1  0  0  0  0
  2  9  1  0  0  0  0
  3  2  1  0  0  0  0
  3 10  1  1  0  0  0
  4  3  1  0  0  0  0
  5  4  1  0  0  0  0
  5  6  1  0  0  0  0
  6  1  1  0  0  0  0
  6 16  1  0  0  0  0
  8  2  1  0  0  0  0
 11  4  1  0  0  0  0
 12  4  1  0  0  0  0
 13  5  1  0  0  0  0
 14  5  1  0  0  0  0
 15  6  1  0  0  0  0
 18 23  1  0  0  0  0
 18 17  1  0  0  0  0
 19  3  1  0  0  0  0
 19 18  2  0  0  0  0
 20 19  1  0  0  0  0
 21 20  2  0  0  0  0
 21 22  1  0  0  0  0
 22 23  2  0  0  0  0
 23 29  1  0  0  0  0
 24 20  1  0  0  0  0
 25 21  1  0  0  0  0
 26 22  1  0  0  0  0
 27 28  1  0  0  0  0
 28 29  2  0  0  0  0
 28 35  1  0  0  0  0
 29 30  1  0  0  0  0
 30 31  1  0  0  0  0
 30 32  2  0  0  0  0
 33 32  1  0  0  0  0
 33 34  1  0  0  0  0
 35 33  2  0  0  0  0
 36 35  1  0  0  0  0
 37 38  2  0  0  0  0
 37 42  1  0  0  0  0
 38 39  1  0  0  0  0
 39 40  2  0  0  0  0
 39 44  1  0  0  0  0
 41 45  1  0  0  0  0
 41 40  1  0  0  0  0
 42 41  2  0  0  0  0
 43 38  1  0  0  0  0
M  END
>  <minimizedAffinity>
-6.24457455

$$$$

 OpenBabel03272506003D

 45 48  0  0  1  0  0  0  0  0999 V2000
   32.6880   30.5930   35.5010 C   0  0  2  0  0  0  0  0  0  0  0  0
   33.4530   30.2000   34.2970 C   0  0  0  0  0  0  0  0  0  0  0  0
   34.9720   30.1600   34.5450 C   0  0  2  0  0  0  0  0  0  0  0  0
   35.5280   31.4090   35.0600 C   0  0  0  0  0  0  0  0  0  0  0  0
   34.6080   32.1230   36.0510 C   0  0  0  0  0  0  0  0  0  0  0  0
   33.5570   31.1890   36.5870 C   0  0  0  0  0  0  0  0  0  0  0  0
   31.9250   31.4010   35.2870 H   0  0  0  0  0  0  0  0  0  0  0  0
   33.3540   31.0610   33.5560 H   0  0  0  0  0  0  0  0  0  0  0  0
   33.2710   29.2960   33.7730 H   0  0  0  0  0  0  0  0  0  0  0  0
   35.1860   29.2960   35.1930 H   0  0  0  0  0  0  0  0  0  0  0  0
   36.4910   31.2270   35.5760 H   0  0  0  0  0  0  0  0  0  0  0  0
   35.7400   32.1640   34.2820 H   0  0  0  0  0  0  0  0  0  0  0  0
   35.1890   32.4720   36.9320 H   0  0  0  0  0  0  0  0  0  0  0  0
   34.0840   32.9810   35.5860 H   0  0  0  0  0  0  0  0  0  0  0  0
   32.9030   31.7740   37.2620 H   0  0  0  0  0  0  0  0  0  0  0  0
   34.0090   30.3830   37.2280 H   0  0  0  0  0  0  0  0  0  0  0  0
   36.6490   27.7390   34.4100 Cl  0  0  0  0  0  0  0  0  0  0  0  0
   36.3630   28.7660   33.0140 C   0  0  0  0  0  0  0  0  0  0  0  0
   35.5360   29.8600   33.1940 C   0  0  0  0  0  0  0  0  0  0  0  0
   35.3650   30.6020   32.0380 C   0  0  0  0  0  0  0  0  0  0  0  0
   35.9650   30.2680   30.8400 C   0  0  0  0  0  0  0  0  0  0  0  0
   36.7820   29.1450   30.7490 C   0  0  0  0  0  0  0  0  0  0  0  0
   36.9820   28.3700   31.8850 C   0  0  0  0  0  0  0  0  0  0  0  0
   34.7250   31.4720   32.1160 H   0  0  0  0  0  0  0  0  0  0  0  0
   35.7460   30.9370   30.0060 H   0  0  0  0  0  0  0  0  0  0  0  0
   37.2200   28.9370   29.7860 H   0  0  0  0  0  0  0  0  0  0  0  0
   35.3990   26.0110   31.1480 Cl  0  0  0  0  0  0  0  0  0  0  0  0
   37.1400   26.0480   31.4410 C   0  0  0  0  0  0  0  0  0  0  0  0
   37.8400   27.1940   31.7880 C   0  0  0  0  0  0  0  0  0  0  0  0
   39.2060   27.1340   32.0010 C   0  0  0  0  0  0  0  0  0  0  0  0
   39.6650   28.0570   32.2630 H   0  0  0  0  0  0  0  0  0  0  0  0
   39.8070   25.9000   31.8510 C   0  0  0  0  0  3  0  0  0  0  0  0
   39.1220   24.7570   31.5070 C   0  0  0  0  0  0  0  0  0  0  0  0
   39.9650   23.2320   31.3380 Cl  0  0  0  0  0  0  0  0  0  0  0  0
   37.7730   24.8380   31.3010 C   0  0  0  0  0  0  0  0  0  0  0  0
   37.2500   23.9150   31.0280 H   0  0  0  0  0  0  0  0  0  0  0  0
   31.9310   29.4850   36.0990 C   0  0  0  0  0  0  0  0  0  0  0  0
   31.3670   28.5910   35.1850 C   0  0  0  0  0  0  0  0  0  0  0  0
   30.6490   27.5040   35.7010 C   0  0  0  0  0  0  0  0  0  0  0  0
   30.5320   27.3700   37.0800 N   0  0  0  0  0  0  0  0  0  0  0  0
   31.0920   28.2590   37.9200 C   0  0  0  0  0  0  0  0  0  0  0  0
   31.7740   29.2890   37.4110 N   0  0  0  0  0  0  0  0  0  0  0  0
   31.2860   28.4450   34.1240 H   0  0  0  0  0  0  0  0  0  0  0  0
   30.1310   26.6940   35.2400 H   0  0  0  0  0  0  0  0  0  0  0  0
   31.0030   28.1590   38.9930 H   0  0  0  0  0  0  0  0  0  0  0  0
  1  7  1  6  0  0  0
  1 37  1  0  0  0  0
  1  6  1  0  0  0  0
  2  3  1  0  0  0  0
  2  1  1  0  0  0  0
  3  4  1  0  0  0  0
  3 10  1  1  0  0  0
  4 11  1  0  0  0  0
  4  5  1  0  0  0  0
  5  6  1  0  0  0  0
  5 13  1  0  0  0  0
  6 16  1  0  0  0  0
  6 15  1  0  0  0  0
  8  2  1  0  0  0  0
  9  2  1  0  0  0  0
 12  4  1  0  0  0  0
 14  5  1  0  0  0  0
 18 19  1  0  0  0  0
 18 17  1  0  0  0  0
 19  3  1  0  0  0  0
 20 24  1  0  0  0  0
 20 19  2  0  0  0  0
 21 20  1  0  0  0  0
 22 21  2  0  0  0  0
 22 23  1  0  0  0  0
 23 18  2  0  0  0  0
 25 21  1  0  0  0  0
 26 22  1  0  0  0  0
 27 28  1  0  0  0  0
 28 29  1  0  0  0  0
 29 23  1  0  0  0  0
 29 30  2  0  0  0  0
 30 31  1  0  0  0  0
 32 30  1  0  0  0  0
 33 32  2  0  0  0  0
 34 33  1  0  0  0  0
 35 28  2  0  0  0  0
 35 33  1  0  0  0  0
 36 35  1  0  0  0  0
 37 42  1  0  0  0  0
 38 39  1  0  0  0  0
 38 37  2  0  0  0  0
 39 40  2  0  0  0  0
 40 41  1  0  0  0  0
 41 45  1  0  0  0  0
 42 41  2  0  0  0  0
 43 38  1  0  0  0  0
 44 39  1  0  0  0  0
M  END
>  <minimizedAffinity>
-6.21988249

$$$$

 OpenBabel03272506003D

 45 48  0  0  1  0  0  0  0  0999 V2000
   35.1080   31.4400   35.8330 C   0  0  2  0  0  0  0  0  0  0  0  0
   35.7660   30.8570   34.6430 C   0  0  0  0  0  0  0  0  0  0  0  0
   34.7710   30.5200   33.5180 C   0  0  2  0  0  0  0  0  0  0  0  0
   33.6830   29.6350   33.9260 C   0  0  0  0  0  0  0  0  0  0  0  0
   33.1750   29.9060   35.3440 C   0  0  0  0  0  0  0  0  0  0  0  0
   33.6050   31.2650   35.8240 C   0  0  0  0  0  0  0  0  0  0  0  0
   35.4360   30.9460   36.7970 H   0  0  0  0  0  0  0  0  0  0  0  0
   36.1360   29.8230   34.9530 H   0  0  0  0  0  0  0  0  0  0  0  0
   36.5550   31.3450   34.1280 H   0  0  0  0  0  0  0  0  0  0  0  0
   34.4140   31.4690   33.0880 H   0  0  0  0  0  0  0  0  0  0  0  0
   32.8170   29.7340   33.2420 H   0  0  0  0  0  0  0  0  0  0  0  0
   33.9480   28.5620   33.9250 H   0  0  0  0  0  0  0  0  0  0  0  0
   32.0640   29.9100   35.3600 H   0  0  0  0  0  0  0  0  0  0  0  0
   33.5560   29.1600   36.0690 H   0  0  0  0  0  0  0  0  0  0  0  0
   33.2440   31.3810   36.8640 H   0  0  0  0  0  0  0  0  0  0  0  0
   33.1080   32.0860   35.2380 H   0  0  0  0  0  0  0  0  0  0  0  0
   36.2890   28.1880   34.4900 Cl  0  0  0  0  0  0  0  0  0  0  0  0
   36.4040   28.7630   32.8340 C   0  0  0  0  0  0  0  0  0  0  0  0
   35.6230   29.8520   32.4890 C   0  0  0  0  0  0  0  0  0  0  0  0
   35.7760   30.2250   31.1640 C   0  0  0  0  0  0  0  0  0  0  0  0
   36.6240   29.5670   30.2960 C   0  0  0  0  0  0  0  0  0  0  0  0
   37.3740   28.4790   30.7300 C   0  0  0  0  0  0  0  0  0  0  0  0
   37.2510   28.0680   32.0520 C   0  0  0  0  0  0  0  0  0  0  0  0
   35.1870   31.0710   30.8340 H   0  0  0  0  0  0  0  0  0  0  0  0
   36.6490   29.9650   29.2800 H   0  0  0  0  0  0  0  0  0  0  0  0
   38.0160   28.0080   30.0040 H   0  0  0  0  0  0  0  0  0  0  0  0
   35.8050   25.5640   31.5440 Cl  0  0  0  0  0  0  0  0  0  0  0  0
   37.3990   25.7150   32.2890 C   0  0  0  0  0  0  0  0  0  0  0  0
   38.0380   26.9260   32.5060 C   0  0  0  0  0  0  0  0  0  0  0  0
   39.2890   26.9540   33.0970 C   0  0  0  0  0  0  0  0  0  0  0  0
   39.7090   27.9230   33.2280 H   0  0  0  0  0  0  0  0  0  0  0  0
   39.8410   25.7370   33.4460 C   0  0  0  0  0  3  0  0  0  0  0  0
   39.2150   24.5290   33.2350 C   0  0  0  0  0  0  0  0  0  0  0  0
   39.9900   23.0330   33.7090 Cl  0  0  0  0  0  0  0  0  0  0  0  0
   37.9800   24.5250   32.6490 C   0  0  0  0  0  0  0  0  0  0  0  0
   37.5030   23.5510   32.4910 H   0  0  0  0  0  0  0  0  0  0  0  0
   35.3850   32.8720   36.0110 C   0  0  0  0  0  0  0  0  0  0  0  0
   36.5610   33.3270   35.4080 C   0  0  0  0  0  0  0  0  0  0  0  0
   36.8660   34.6890   35.5300 C   0  0  0  0  0  0  0  0  0  0  0  0
   35.9960   35.5110   36.2370 N   0  0  0  0  0  0  0  0  0  0  0  0
   34.8750   35.0250   36.8010 C   0  0  0  0  0  0  0  0  0  0  0  0
   34.6000   33.7250   36.6740 N   0  0  0  0  0  0  0  0  0  0  0  0
   37.3880   32.9510   34.8360 H   0  0  0  0  0  0  0  0  0  0  0  0
   37.6770   35.2840   35.1770 H   0  0  0  0  0  0  0  0  0  0  0  0
   34.1960   35.6610   37.3510 H   0  0  0  0  0  0  0  0  0  0  0  0
  1 37  1  0  0  0  0
  1  7  1  1  0  0  0
  2  8  1  0  0  0  0
  2  1  1  0  0  0  0
  3 10  1  6  0  0  0
  3  4  1  0  0  0  0
  3  2  1  0  0  0  0
  4  5  1  0  0  0  0
  5 13  1  0  0  0  0
  5  6  1  0  0  0  0
  5 14  1  0  0  0  0
  6  1  1  0  0  0  0
  6 15  1  0  0  0  0
  9  2  1  0  0  0  0
 11  4  1  0  0  0  0
 12  4  1  0  0  0  0
 16  6  1  0  0  0  0
 18 17  1  0  0  0  0
 19 18  1  0  0  0  0
 19  3  1  0  0  0  0
 20 19  2  0  0  0  0
 21 22  2  0  0  0  0
 21 20  1  0  0  0  0
 22 23  1  0  0  0  0
 23 29  1  0  0  0  0
 23 18  2  0  0  0  0
 24 20  1  0  0  0  0
 25 21  1  0  0  0  0
 26 22  1  0  0  0  0
 27 28  1  0  0  0  0
 28 29  2  0  0  0  0
 28 35  1  0  0  0  0
 29 30  1  0  0  0  0
 30 31  1  0  0  0  0
 30 32  2  0  0  0  0
 33 32  1  0  0  0  0
 33 34  1  0  0  0  0
 35 33  2  0  0  0  0
 36 35  1  0  0  0  0
 37 42  1  0  0  0  0
 38 39  1  0  0  0  0
 38 37  2  0  0  0  0
 39 40  2  0  0  0  0
 40 41  1  0  0  0  0
 41 45  1  0  0  0  0
 42 41  2  0  0  0  0
 43 38  1  0  0  0  0
 44 39  1  0  0  0  0
M  END
>  <minimizedAffinity>
-6.17490101

$$$$

 OpenBabel03272506003D

 45 48  0  0  1  0  0  0  0  0999 V2000
   32.9860   30.0720   34.6260 C   0  0  2  0  0  0  0  0  0  0  0  0
   33.9970   29.3490   33.8220 C   0  0  0  0  0  0  0  0  0  0  0  0
   35.3970   29.3780   34.4620 C   0  0  2  0  0  0  0  0  0  0  0  0
   35.9000   30.7210   34.7400 C   0  0  0  0  0  0  0  0  0  0  0  0
   34.8180   31.6900   35.2180 C   0  0  0  0  0  0  0  0  0  0  0  0
   33.5970   30.9510   35.6940 C   0  0  0  0  0  0  0  0  0  0  0  0
   32.3660   30.7860   34.0040 H   0  0  0  0  0  0  0  0  0  0  0  0
   34.1540   29.9620   32.8740 H   0  0  0  0  0  0  0  0  0  0  0  0
   33.8830   28.3330   33.5380 H   0  0  0  0  0  0  0  0  0  0  0  0
   35.3740   28.7350   35.3550 H   0  0  0  0  0  0  0  0  0  0  0  0
   36.6860   30.6920   35.5210 H   0  0  0  0  0  0  0  0  0  0  0  0
   36.3590   31.2220   33.8690 H   0  0  0  0  0  0  0  0  0  0  0  0
   35.1840   32.2760   36.0900 H   0  0  0  0  0  0  0  0  0  0  0  0
   34.4960   32.3820   34.4140 H   0  0  0  0  0  0  0  0  0  0  0  0
   32.8430   31.7060   35.9850 H   0  0  0  0  0  0  0  0  0  0  0  0
   33.8100   30.3610   36.6270 H   0  0  0  0  0  0  0  0  0  0  0  0
   37.6330   27.8100   35.5710 Cl  0  0  0  0  0  0  0  0  0  0  0  0
   37.3560   27.9630   33.8430 C   0  0  0  0  0  0  0  0  0  0  0  0
   36.2580   28.7040   33.4440 C   0  0  0  0  0  0  0  0  0  0  0  0
   36.1180   28.7590   32.0670 C   0  0  0  0  0  0  0  0  0  0  0  0
   36.9940   28.1340   31.2010 C   0  0  0  0  0  0  0  0  0  0  0  0
   38.0730   27.4070   31.6920 C   0  0  0  0  0  0  0  0  0  0  0  0
   38.2530   27.3240   33.0680 C   0  0  0  0  0  0  0  0  0  0  0  0
   35.2740   29.3240   31.6930 H   0  0  0  0  0  0  0  0  0  0  0  0
   36.7670   28.2580   30.1410 H   0  0  0  0  0  0  0  0  0  0  0  0
   38.7190   26.9420   30.9660 H   0  0  0  0  0  0  0  0  0  0  0  0
   37.5680   24.4750   33.2510 Cl  0  0  0  0  0  0  0  0  0  0  0  0
   39.1150   25.2060   33.6880 C   0  0  0  0  0  0  0  0  0  0  0  0
   39.3860   26.5610   33.5820 C   0  0  0  0  0  0  0  0  0  0  0  0
   40.6270   27.0510   33.9470 C   0  0  0  0  0  0  0  0  0  0  0  0
   40.7520   28.1020   33.8350 H   0  0  0  0  0  0  0  0  0  0  0  0
   41.5490   26.1330   34.4090 C   0  0  0  0  0  3  0  0  0  0  0  0
   41.2910   24.7850   34.5190 C   0  0  0  0  0  0  0  0  0  0  0  0
   42.5190   23.6900   35.1160 Cl  0  0  0  0  0  0  0  0  0  0  0  0
   40.0570   24.3220   34.1520 C   0  0  0  0  0  0  0  0  0  0  0  0
   39.8760   23.2460   34.2480 H   0  0  0  0  0  0  0  0  0  0  0  0
   32.0200   29.1830   35.2850 C   0  0  0  0  0  0  0  0  0  0  0  0
   31.9960   29.2620   36.6790 C   0  0  0  0  0  0  0  0  0  0  0  0
   31.0800   28.4490   37.3600 C   0  0  0  0  0  0  0  0  0  0  0  0
   30.2500   27.6120   36.6230 N   0  0  0  0  0  0  0  0  0  0  0  0
   30.3110   27.5700   35.2790 C   0  0  0  0  0  0  0  0  0  0  0  0
   31.1900   28.3530   34.6480 N   0  0  0  0  0  0  0  0  0  0  0  0
   32.4920   29.7790   37.4800 H   0  0  0  0  0  0  0  0  0  0  0  0
   30.8580   28.3160   38.3940 H   0  0  0  0  0  0  0  0  0  0  0  0
   29.6670   26.9210   34.7030 H   0  0  0  0  0  0  0  0  0  0  0  0
  1  7  1  6  0  0  0
  1 37  1  0  0  0  0
  1  6  1  0  0  0  0
  2  3  1  0  0  0  0
  2  1  1  0  0  0  0
  3  4  1  0  0  0  0
  3 10  1  1  0  0  0
  4  5  1  0  0  0  0
  4 11  1  0  0  0  0
  5  6  1  0  0  0  0
  5 13  1  0  0  0  0
  6 15  1  0  0  0  0
  6 16  1  0  0  0  0
  8  2  1  0  0  0  0
  9  2  1  0  0  0  0
 12  4  1  0  0  0  0
 14  5  1  0  0  0  0
 18 17  1  0  0  0  0
 19 18  1  0  0  0  0
 19  3  1  0  0  0  0
 20 19  2  0  0  0  0
 21 22  2  0  0  0  0
 21 20  1  0  0  0  0
 22 23  1  0  0  0  0
 23 29  1  0  0  0  0
 23 18  2  0  0  0  0
 24 20  1  0  0  0  0
 25 21  1  0  0  0  0
 26 22  1  0  0  0  0
 27 28  1  0  0  0  0
 28 35  1  0  0  0  0
 29 28  2  0  0  0  0
 29 30  1  0  0  0  0
 30 32  2  0  0  0  0
 31 30  1  0  0  0  0
 32 33  1  0  0  0  0
 33 34  1  0  0  0  0
 35 36  1  0  0  0  0
 35 33  2  0  0  0  0
 37 38  1  0  0  0  0
 38 39  2  0  0  0  0
 38 43  1  0  0  0  0
 39 44  1  0  0  0  0
 40 39  1  0  0  0  0
 41 40  2  0  0  0  0
 42 41  1  0  0  0  0
 42 37  2  0  0  0  0
 45 41  1  0  0  0  0
M  END
>  <minimizedAffinity>
-6.13178301

$$$$

 OpenBabel03272506003D

 45 48  0  0  1  0  0  0  0  0999 V2000
   37.9450   25.3910   32.8100 C   0  0  2  0  0  0  0  0  0  0  0  0
   37.6750   26.8400   32.6760 C   0  0  0  0  0  0  0  0  0  0  0  0
   36.2230   27.1380   32.2590 C   0  0  2  0  0  0  0  0  0  0  0  0
   35.8050   26.4740   31.0270 C   0  0  0  0  0  0  0  0  0  0  0  0
   36.3720   25.0610   30.8740 C   0  0  0  0  0  0  0  0  0  0  0  0
   36.8670   24.5280   32.1910 C   0  0  0  0  0  0  0  0  0  0  0  0
   38.8910   25.0730   32.2760 H   0  0  0  0  0  0  0  0  0  0  0  0
   38.2630   27.1950   31.7660 H   0  0  0  0  0  0  0  0  0  0  0  0
   37.8460   27.5300   33.4640 H   0  0  0  0  0  0  0  0  0  0  0  0
   35.5710   26.9060   33.1150 H   0  0  0  0  0  0  0  0  0  0  0  0
   34.7020   26.3930   30.9790 H   0  0  0  0  0  0  0  0  0  0  0  0
   36.1110   26.9980   30.1040 H   0  0  0  0  0  0  0  0  0  0  0  0
   35.5770   24.3620   30.5370 H   0  0  0  0  0  0  0  0  0  0  0  0
   37.2210   25.0300   30.1630 H   0  0  0  0  0  0  0  0  0  0  0  0
   37.2990   23.5270   32.0050 H   0  0  0  0  0  0  0  0  0  0  0  0
   36.0210   24.3630   32.9130 H   0  0  0  0  0  0  0  0  0  0  0  0
   35.4370   28.6780   34.6460 Cl  0  0  0  0  0  0  0  0  0  0  0  0
   35.8330   29.4480   33.1180 C   0  0  0  0  0  0  0  0  0  0  0  0
   36.2130   28.6210   32.0750 C   0  0  0  0  0  0  0  0  0  0  0  0
   36.5120   29.3190   30.9170 C   0  0  0  0  0  0  0  0  0  0  0  0
   36.4330   30.6950   30.8320 C   0  0  0  0  0  0  0  0  0  0  0  0
   36.0410   31.4490   31.9340 C   0  0  0  0  0  0  0  0  0  0  0  0
   35.7320   30.7910   33.1180 C   0  0  0  0  0  0  0  0  0  0  0  0
   36.8200   28.7250   30.0660 H   0  0  0  0  0  0  0  0  0  0  0  0
   36.6960   31.1170   29.8610 H   0  0  0  0  0  0  0  0  0  0  0  0
   36.0000   32.5180   31.8030 H   0  0  0  0  0  0  0  0  0  0  0  0
   32.8230   31.1880   33.1000 Cl  0  0  0  0  0  0  0  0  0  0  0  0
   33.9520   31.8000   34.3130 C   0  0  0  0  0  0  0  0  0  0  0  0
   35.3200   31.5820   34.2730 C   0  0  0  0  0  0  0  0  0  0  0  0
   36.1340   32.0990   35.2650 C   0  0  0  0  0  0  0  0  0  0  0  0
   37.1710   31.8860   35.1600 H   0  0  0  0  0  0  0  0  0  0  0  0
   35.5150   32.8220   36.2660 C   0  0  0  0  0  3  0  0  0  0  0  0
   34.1570   33.0440   36.3150 C   0  0  0  0  0  0  0  0  0  0  0  0
   33.4560   33.9740   37.6210 Cl  0  0  0  0  0  0  0  0  0  0  0  0
   33.3720   32.5240   35.3240 C   0  0  0  0  0  0  0  0  0  0  0  0
   32.2950   32.7140   35.3850 H   0  0  0  0  0  0  0  0  0  0  0  0
   38.1150   24.9550   34.2020 C   0  0  0  0  0  0  0  0  0  0  0  0
   38.0520   25.9760   35.1550 C   0  0  0  0  0  0  0  0  0  0  0  0
   38.1900   25.6150   36.5020 C   0  0  0  0  0  0  0  0  0  0  0  0
   38.3810   24.2750   36.8210 N   0  0  0  0  0  0  0  0  0  0  0  0
   38.4350   23.3280   35.8670 C   0  0  0  0  0  0  0  0  0  0  0  0
   38.3020   23.6910   34.5890 N   0  0  0  0  0  0  0  0  0  0  0  0
   37.9280   27.0410   35.2080 H   0  0  0  0  0  0  0  0  0  0  0  0
   38.1810   26.1780   37.4070 H   0  0  0  0  0  0  0  0  0  0  0  0
   38.5840   22.2860   36.1120 H   0  0  0  0  0  0  0  0  0  0  0  0
  1  7  1  6  0  0  0
  1 37  1  0  0  0  0
  2  1  1  0  0  0  0
  2  9  1  0  0  0  0
  3  2  1  0  0  0  0
  3 10  1  1  0  0  0
  4  3  1  0  0  0  0
  5  4  1  0  0  0  0
  5  6  1  0  0  0  0
  6  1  1  0  0  0  0
  6 16  1  0  0  0  0
  8  2  1  0  0  0  0
 11  4  1  0  0  0  0
 12  4  1  0  0  0  0
 13  5  1  0  0  0  0
 14  5  1  0  0  0  0
 15  6  1  0  0  0  0
 18 17  1  0  0  0  0
 19  3  1  0  0  0  0
 19 18  2  0  0  0  0
 20 19  1  0  0  0  0
 21 20  2  0  0  0  0
 21 22  1  0  0  0  0
 22 23  2  0  0  0  0
 23 18  1  0  0  0  0
 23 29  1  0  0  0  0
 24 20  1  0  0  0  0
 25 21  1  0  0  0  0
 26 22  1  0  0  0  0
 27 28  1  0  0  0  0
 28 35  1  0  0  0  0
 29 28  2  0  0  0  0
 29 30  1  0  0  0  0
 30 32  2  0  0  0  0
 31 30  1  0  0  0  0
 32 33  1  0  0  0  0
 33 34  1  0  0  0  0
 35 36  1  0  0  0  0
 35 33  2  0  0  0  0
 37 42  2  0  0  0  0
 37 38  1  0  0  0  0
 38 43  1  0  0  0  0
 38 39  2  0  0  0  0
 39 40  1  0  0  0  0
 39 44  1  0  0  0  0
 41 45  1  0  0  0  0
 41 40  2  0  0  0  0
 42 41  1  0  0  0  0
M  END
>  <minimizedAffinity>
-6.12031651

$$$$

 OpenBabel03272506003D

 45 48  0  0  1  0  0  0  0  0999 V2000
   35.5970   30.5420   32.2350 C   0  0  2  0  0  0  0  0  0  0  0  0
   35.7260   29.0770   32.4010 C   0  0  0  0  0  0  0  0  0  0  0  0
   37.0150   28.5190   31.7700 C   0  0  2  0  0  0  0  0  0  0  0  0
   37.1760   28.8400   30.3540 C   0  0  0  0  0  0  0  0  0  0  0  0
   36.6890   30.2430   29.9880 C   0  0  0  0  0  0  0  0  0  0  0  0
   36.5560   31.1090   31.2110 C   0  0  0  0  0  0  0  0  0  0  0  0
   34.5760   30.8470   31.8530 H   0  0  0  0  0  0  0  0  0  0  0  0
   34.9170   28.6050   31.7500 H   0  0  0  0  0  0  0  0  0  0  0  0
   35.6980   28.6030   33.3500 H   0  0  0  0  0  0  0  0  0  0  0  0
   37.8640   28.8520   32.3860 H   0  0  0  0  0  0  0  0  0  0  0  0
   38.2410   28.7730   30.0550 H   0  0  0  0  0  0  0  0  0  0  0  0
   36.6270   28.1670   29.6720 H   0  0  0  0  0  0  0  0  0  0  0  0
   37.4290   30.7490   29.3310 H   0  0  0  0  0  0  0  0  0  0  0  0
   35.7010   30.2210   29.4870 H   0  0  0  0  0  0  0  0  0  0  0  0
   36.1620   32.0900   30.8840 H   0  0  0  0  0  0  0  0  0  0  0  0
   37.5570   31.3240   31.6760 H   0  0  0  0  0  0  0  0  0  0  0  0
   38.5700   27.3970   34.0090 Cl  0  0  0  0  0  0  0  0  0  0  0  0
   37.5850   26.3980   32.9530 C   0  0  0  0  0  0  0  0  0  0  0  0
   36.8790   27.0420   31.9520 C   0  0  0  0  0  0  0  0  0  0  0  0
   36.1270   26.1730   31.1800 C   0  0  0  0  0  0  0  0  0  0  0  0
   36.0970   24.8110   31.4000 C   0  0  0  0  0  0  0  0  0  0  0  0
   36.8400   24.2470   32.4330 C   0  0  0  0  0  0  0  0  0  0  0  0
   37.6100   25.0810   33.2360 C   0  0  0  0  0  0  0  0  0  0  0  0
   35.5490   26.6200   30.3800 H   0  0  0  0  0  0  0  0  0  0  0  0
   35.4630   24.2420   30.7180 H   0  0  0  0  0  0  0  0  0  0  0  0
   36.7740   23.1780   32.5550 H   0  0  0  0  0  0  0  0  0  0  0  0
   40.1980   24.1310   32.2300 Cl  0  0  0  0  0  0  0  0  0  0  0  0
   39.6230   24.0230   33.8970 C   0  0  0  0  0  0  0  0  0  0  0  0
   38.3880   24.4890   34.3180 C   0  0  0  0  0  0  0  0  0  0  0  0
   38.0160   24.3640   35.6450 C   0  0  0  0  0  0  0  0  0  0  0  0
   37.0530   24.7470   35.8850 H   0  0  0  0  0  0  0  0  0  0  0  0
   38.9250   23.7640   36.4940 C   0  0  0  0  0  3  0  0  0  0  0  0
   40.1540   23.2980   36.0850 C   0  0  0  0  0  0  0  0  0  0  0  0
   41.2460   22.5490   37.2310 Cl  0  0  0  0  0  0  0  0  0  0  0  0
   40.5020   23.4310   34.7700 C   0  0  0  0  0  0  0  0  0  0  0  0
   41.4850   23.0530   34.4700 H   0  0  0  0  0  0  0  0  0  0  0  0
   35.7890   31.2900   33.4840 C   0  0  0  0  0  0  0  0  0  0  0  0
   35.6260   30.5430   34.6530 C   0  0  0  0  0  0  0  0  0  0  0  0
   35.8160   31.2020   35.8750 C   0  0  0  0  0  0  0  0  0  0  0  0
   36.1530   32.5510   35.8650 N   0  0  0  0  0  0  0  0  0  0  0  0
   36.2980   33.2280   34.7110 C   0  0  0  0  0  0  0  0  0  0  0  0
   36.1140   32.5830   33.5560 N   0  0  0  0  0  0  0  0  0  0  0  0
   35.3750   29.5450   34.9610 H   0  0  0  0  0  0  0  0  0  0  0  0
   35.7560   30.8790   36.8890 H   0  0  0  0  0  0  0  0  0  0  0  0
   36.5600   34.2770   34.6990 H   0  0  0  0  0  0  0  0  0  0  0  0
  1  7  1  6  0  0  0
  1  2  1  0  0  0  0
  1 37  1  0  0  0  0
  2  9  1  0  0  0  0
  3 19  1  0  0  0  0
  3 10  1  1  0  0  0
  3  2  1  0  0  0  0
  4  3  1  0  0  0  0
  5  4  1  0  0  0  0
  5  6  1  0  0  0  0
  6 16  1  0  0  0  0
  6  1  1  0  0  0  0
  8  2  1  0  0  0  0
 11  4  1  0  0  0  0
 12  4  1  0  0  0  0
 13  5  1  0  0  0  0
 14  5  1  0  0  0  0
 15  6  1  0  0  0  0
 18 23  1  0  0  0  0
 18 17  1  0  0  0  0
 19 18  2  0  0  0  0
 20 21  2  0  0  0  0
 20 19  1  0  0  0  0
 21 22  1  0  0  0  0
 22 26  1  0  0  0  0
 22 23  2  0  0  0  0
 23 29  1  0  0  0  0
 24 20  1  0  0  0  0
 25 21  1  0  0  0  0
 27 28  1  0  0  0  0
 28 29  2  0  0  0  0
 28 35  1  0  0  0  0
 29 30  1  0  0  0  0
 30 31  1  0  0  0  0
 30 32  2  0  0  0  0
 33 32  1  0  0  0  0
 33 34  1  0  0  0  0
 35 33  2  0  0  0  0
 36 35  1  0  0  0  0
 37 42  2  0  0  0  0
 37 38  1  0  0  0  0
 38 43  1  0  0  0  0
 38 39  2  0  0  0  0
 39 44  1  0  0  0  0
 40 39  1  0  0  0  0
 41 40  2  0  0  0  0
 42 41  1  0  0  0  0
 45 41  1  0  0  0  0
M  END
>  <minimizedAffinity>
-6.11609745

$$$$

 OpenBabel03272506003D

 45 48  0  0  1  0  0  0  0  0999 V2000
   39.9750   22.1430   36.6430 C   0  0  2  0  0  0  0  0  0  0  0  0
   39.3050   22.5400   35.3850 C   0  0  0  0  0  0  0  0  0  0  0  0
   38.7400   23.9720   35.4400 C   0  0  2  0  0  0  0  0  0  0  0  0
   37.8210   24.2110   36.5510 C   0  0  0  0  0  0  0  0  0  0  0  0
   38.2260   23.4970   37.8410 C   0  0  0  0  0  0  0  0  0  0  0  0
   39.6690   23.0710   37.7970 C   0  0  0  0  0  0  0  0  0  0  0  0
   39.6410   21.1260   37.0120 H   0  0  0  0  0  0  0  0  0  0  0  0
   38.3560   21.9110   35.3120 H   0  0  0  0  0  0  0  0  0  0  0  0
   39.7900   22.5090   34.4420 H   0  0  0  0  0  0  0  0  0  0  0  0
   39.5900   24.6710   35.4270 H   0  0  0  0  0  0  0  0  0  0  0  0
   37.7550   25.2930   36.7800 H   0  0  0  0  0  0  0  0  0  0  0  0
   36.7850   23.8780   36.3610 H   0  0  0  0  0  0  0  0  0  0  0  0
   38.1340   24.1870   38.7080 H   0  0  0  0  0  0  0  0  0  0  0  0
   37.6170   22.5890   38.0210 H   0  0  0  0  0  0  0  0  0  0  0  0
   39.8850   22.5280   38.7370 H   0  0  0  0  0  0  0  0  0  0  0  0
   40.3610   23.9580   37.7950 H   0  0  0  0  0  0  0  0  0  0  0  0
   38.5050   26.7360   34.4430 Cl  0  0  0  0  0  0  0  0  0  0  0  0
   37.8250   25.3640   33.5830 C   0  0  0  0  0  0  0  0  0  0  0  0
   38.0220   24.1110   34.1370 C   0  0  0  0  0  0  0  0  0  0  0  0
   37.4580   23.0950   33.3840 C   0  0  0  0  0  0  0  0  0  0  0  0
   36.7740   23.3280   32.2070 C   0  0  0  0  0  0  0  0  0  0  0  0
   36.6240   24.6240   31.7220 C   0  0  0  0  0  0  0  0  0  0  0  0
   37.1750   25.6760   32.4450 C   0  0  0  0  0  0  0  0  0  0  0  0
   37.5820   22.0900   33.7660 H   0  0  0  0  0  0  0  0  0  0  0  0
   36.3800   22.4380   31.7140 H   0  0  0  0  0  0  0  0  0  0  0  0
   36.0810   24.7390   30.7990 H   0  0  0  0  0  0  0  0  0  0  0  0
   39.3350   26.3190   30.5640 Cl  0  0  0  0  0  0  0  0  0  0  0  0
   38.0130   27.3890   31.0410 C   0  0  0  0  0  0  0  0  0  0  0  0
   37.0170   27.0340   31.9360 C   0  0  0  0  0  0  0  0  0  0  0  0
   36.0170   27.9360   32.2550 C   0  0  0  0  0  0  0  0  0  0  0  0
   35.2920   27.5840   32.9490 H   0  0  0  0  0  0  0  0  0  0  0  0
   36.0750   29.1720   31.6440 C   0  0  0  0  0  3  0  0  0  0  0  0
   37.0600   29.5360   30.7530 C   0  0  0  0  0  0  0  0  0  0  0  0
   37.0560   31.1270   30.0240 Cl  0  0  0  0  0  0  0  0  0  0  0  0
   38.0380   28.6290   30.4520 C   0  0  0  0  0  0  0  0  0  0  0  0
   38.8100   28.9420   29.7410 H   0  0  0  0  0  0  0  0  0  0  0  0
   41.4370   22.0550   36.5230 C   0  0  0  0  0  0  0  0  0  0  0  0
   42.1000   23.2830   36.4520 C   0  0  0  0  0  0  0  0  0  0  0  0
   43.4980   23.2600   36.3540 C   0  0  0  0  0  0  0  0  0  0  0  0
   44.1490   22.0310   36.3310 N   0  0  0  0  0  0  0  0  0  0  0  0
   43.4650   20.8740   36.4010 C   0  0  0  0  0  0  0  0  0  0  0  0
   42.1330   20.9160   36.4940 N   0  0  0  0  0  0  0  0  0  0  0  0
   41.8810   24.3340   36.4400 H   0  0  0  0  0  0  0  0  0  0  0  0
   44.2320   24.0290   36.2880 H   0  0  0  0  0  0  0  0  0  0  0  0
   43.9670   19.9180   36.3840 H   0  0  0  0  0  0  0  0  0  0  0  0
  1  7  1  1  0  0  0
  1  6  1  0  0  0  0
  2  3  1  0  0  0  0
  2  1  1  0  0  0  0
  3 10  1  1  0  0  0
  3  4  1  0  0  0  0
  4 11  1  0  0  0  0
  4  5  1  0  0  0  0
  5 14  1  0  0  0  0
  5 13  1  0  0  0  0
  6  5  1  0  0  0  0
  6 15  1  0  0  0  0
  8  2  1  0  0  0  0
  9  2  1  0  0  0  0
 12  4  1  0  0  0  0
 16  6  1  0  0  0  0
 18 19  1  0  0  0  0
 18 17  1  0  0  0  0
 19  3  1  0  0  0  0
 20 24  1  0  0  0  0
 20 19  2  0  0  0  0
 21 20  1  0  0  0  0
 22 21  2  0  0  0  0
 22 23  1  0  0  0  0
 23 18  2  0  0  0  0
 25 21  1  0  0  0  0
 26 22  1  0  0  0  0
 27 28  1  0  0  0  0
 28 29  1  0  0  0  0
 29 30  2  0  0  0  0
 29 23  1  0  0  0  0
 30 31  1  0  0  0  0
 32 30  1  0  0  0  0
 33 32  2  0  0  0  0
 34 33  1  0  0  0  0
 35 33  1  0  0  0  0
 35 28  2  0  0  0  0
 36 35  1  0  0  0  0
 37  1  1  0  0  0  0
 38 37  2  0  0  0  0
 39 38  1  0  0  0  0
 40 39  2  0  0  0  0
 40 41  1  0  0  0  0
 41 42  2  0  0  0  0
 42 37  1  0  0  0  0
 43 38  1  0  0  0  0
 44 39  1  0  0  0  0
 45 41  1  0  0  0  0
M  END
>  <minimizedAffinity>
-6.05831766

$$$$

 OpenBabel03272506003D

 45 48  0  0  1  0  0  0  0  0999 V2000
   39.1610   22.6670   36.4910 C   0  0  2  0  0  0  0  0  0  0  0  0
   38.7960   23.6700   35.4670 C   0  0  0  0  0  0  0  0  0  0  0  0
   38.8560   25.1130   36.0000 C   0  0  2  0  0  0  0  0  0  0  0  0
   38.0400   25.3470   37.1890 C   0  0  0  0  0  0  0  0  0  0  0  0
   38.0330   24.1690   38.1640 C   0  0  0  0  0  0  0  0  0  0  0  0
   39.1780   23.2320   37.8940 C   0  0  0  0  0  0  0  0  0  0  0  0
   38.4190   21.8140   36.5480 H   0  0  0  0  0  0  0  0  0  0  0  0
   37.6810   23.5360   35.2660 H   0  0  0  0  0  0  0  0  0  0  0  0
   39.2900   23.7390   34.5300 H   0  0  0  0  0  0  0  0  0  0  0  0
   39.9150   25.3750   36.1480 H   0  0  0  0  0  0  0  0  0  0  0  0
   38.4020   26.2330   37.7460 H   0  0  0  0  0  0  0  0  0  0  0  0
   36.9730   25.5390   36.9750 H   0  0  0  0  0  0  0  0  0  0  0  0
   38.1690   24.5310   39.2060 H   0  0  0  0  0  0  0  0  0  0  0  0
   37.0970   23.5790   38.0940 H   0  0  0  0  0  0  0  0  0  0  0  0
   39.0920   22.3860   38.6030 H   0  0  0  0  0  0  0  0  0  0  0  0
   40.1680   23.7150   38.1210 H   0  0  0  0  0  0  0  0  0  0  0  0
   40.5900   25.1220   33.6160 Cl  0  0  0  0  0  0  0  0  0  0  0  0
   39.0890   26.0310   33.6920 C   0  0  0  0  0  0  0  0  0  0  0  0
   38.3470   25.9280   34.8550 C   0  0  0  0  0  0  0  0  0  0  0  0
   37.1800   26.6720   34.8170 C   0  0  0  0  0  0  0  0  0  0  0  0
   36.8130   27.4310   33.7230 C   0  0  0  0  0  0  0  0  0  0  0  0
   37.6220   27.4760   32.5920 C   0  0  0  0  0  0  0  0  0  0  0  0
   38.8030   26.7440   32.5860 C   0  0  0  0  0  0  0  0  0  0  0  0
   36.5550   26.6280   35.6990 H   0  0  0  0  0  0  0  0  0  0  0  0
   35.8680   27.9680   33.8250 H   0  0  0  0  0  0  0  0  0  0  0  0
   37.2800   28.0850   31.7720 H   0  0  0  0  0  0  0  0  0  0  0  0
   37.9610   24.7090   30.6450 Cl  0  0  0  0  0  0  0  0  0  0  0  0
   39.2950   25.8490   30.4480 C   0  0  0  0  0  0  0  0  0  0  0  0
   39.6510   26.7920   31.3990 C   0  0  0  0  0  0  0  0  0  0  0  0
   40.7120   27.6490   31.1630 C   0  0  0  0  0  0  0  0  0  0  0  0
   40.9190   28.3420   31.9430 H   0  0  0  0  0  0  0  0  0  0  0  0
   41.3720   27.5080   29.9580 C   0  0  0  0  0  3  0  0  0  0  0  0
   41.0260   26.5740   29.0070 C   0  0  0  0  0  0  0  0  0  0  0  0
   41.9190   26.4640   27.5050 Cl  0  0  0  0  0  0  0  0  0  0  0  0
   39.9750   25.7380   29.2610 C   0  0  0  0  0  0  0  0  0  0  0  0
   39.7200   25.0040   28.4880 H   0  0  0  0  0  0  0  0  0  0  0  0
   40.4660   22.0370   36.2520 C   0  0  0  0  0  0  0  0  0  0  0  0
   41.1240   21.5820   37.3980 C   0  0  0  0  0  0  0  0  0  0  0  0
   42.3660   20.9570   37.2270 C   0  0  0  0  0  0  0  0  0  0  0  0
   42.8780   20.8210   35.9410 N   0  0  0  0  0  0  0  0  0  0  0  0
   42.2070   21.2770   34.8680 C   0  0  0  0  0  0  0  0  0  0  0  0
   41.0240   21.8700   35.0500 N   0  0  0  0  0  0  0  0  0  0  0  0
   40.9900   21.5520   38.4630 H   0  0  0  0  0  0  0  0  0  0  0  0
   43.0620   20.5280   37.9120 H   0  0  0  0  0  0  0  0  0  0  0  0
   42.6010   21.1740   33.8670 H   0  0  0  0  0  0  0  0  0  0  0  0
  1  7  1  6  0  0  0
  1  6  1  0  0  0  0
  2  3  1  0  0  0  0
  2  1  1  0  0  0  0
  3 10  1  1  0  0  0
  3  4  1  0  0  0  0
  4 11  1  0  0  0  0
  4  5  1  0  0  0  0
  5 13  1  0  0  0  0
  6 16  1  0  0  0  0
  6  5  1  0  0  0  0
  6 15  1  0  0  0  0
  8  2  1  0  0  0  0
  9  2  1  0  0  0  0
 12  4  1  0  0  0  0
 14  5  1  0  0  0  0
 17 18  1  0  0  0  0
 18 19  1  0  0  0  0
 19  3  1  0  0  0  0
 20 19  2  0  0  0  0
 20 24  1  0  0  0  0
 21 25  1  0  0  0  0
 21 20  1  0  0  0  0
 22 21  2  0  0  0  0
 23 22  1  0  0  0  0
 23 18  2  0  0  0  0
 26 22  1  0  0  0  0
 28 27  1  0  0  0  0
 28 29  1  0  0  0  0
 29 23  1  0  0  0  0
 30 29  2  0  0  0  0
 30 31  1  0  0  0  0
 32 30  1  0  0  0  0
 33 35  1  0  0  0  0
 33 32  2  0  0  0  0
 34 33  1  0  0  0  0
 35 28  2  0  0  0  0
 36 35  1  0  0  0  0
 37  1  1  0  0  0  0
 37 38  1  0  0  0  0
 38 43  1  0  0  0  0
 39 38  2  0  0  0  0
 39 44  1  0  0  0  0
 40 39  1  0  0  0  0
 41 42  1  0  0  0  0
 41 40  2  0  0  0  0
 42 37  2  0  0  0  0
 45 41  1  0  0  0  0
M  END
>  <minimizedAffinity>
-5.93713999

$$$$
