
 OpenBabel03272508373D

 45 48  0  0  1  0  0  0  0  0999 V2000
   39.8400   32.1070   42.9810 N   0  0  0  0  0  0  0  0  0  0  0  0
   39.0170   33.2210   42.7000 C   0  0  0  0  0  0  0  0  0  0  0  0
   37.6260   32.9390   42.2840 C   0  0  0  0  0  0  0  0  0  0  0  0
   37.5320   31.8240   41.4540 O   0  0  0  0  0  0  0  0  0  0  0  0
   38.0730   30.7250   42.0280 C   0  0  0  0  0  0  0  0  0  0  0  0
   39.5380   30.9300   42.3030 C   0  0  1  0  0  0  0  0  0  0  0  0
   39.5240   33.5870   41.7700 H   0  0  0  0  0  0  0  0  0  0  0  0
   39.1290   34.1310   43.2990 H   0  0  0  0  0  0  0  0  0  0  0  0
   37.3750   33.7460   41.4870 H   0  0  0  0  0  0  0  0  0  0  0  0
   36.7990   33.1670   42.9300 H   0  0  0  0  0  0  0  0  0  0  0  0
   37.4970   30.2000   42.7810 H   0  0  0  0  0  0  0  0  0  0  0  0
   38.0310   29.9840   41.1900 H   0  0  0  0  0  0  0  0  0  0  0  0
   39.6670   30.1430   43.1610 H   0  0  0  0  0  0  0  0  0  0  0  0
   39.7240   32.2020   39.4610 Cl  0  0  0  0  0  0  0  0  0  0  0  0
   40.5900   30.8190   40.0100 C   0  0  0  0  0  0  0  0  0  0  0  0
   40.3970   30.3390   41.2900 C   0  0  0  0  0  0  0  0  0  0  0  0
   41.1890   29.1880   41.4920 C   0  0  0  0  0  0  0  0  0  0  0  0
   41.1280   28.7010   42.4810 H   0  0  0  0  0  0  0  0  0  0  0  0
   42.0460   28.5790   40.6020 C   0  0  0  0  0  3  0  0  0  0  0  0
   42.1580   29.1480   39.3520 C   0  0  0  0  0  0  0  0  0  0  0  0
   43.2370   28.3870   38.2210 Cl  0  0  0  0  0  0  0  0  0  0  0  0
   41.4290   30.2640   39.0670 C   0  0  0  0  0  0  0  0  0  0  0  0
   41.5690   30.6530   38.0680 H   0  0  0  0  0  0  0  0  0  0  0  0
   40.2980   32.0090   44.3220 C   0  0  0  0  0  0  0  0  0  0  0  0
   41.4150   32.0950   44.4180 H   0  0  0  0  0  0  0  0  0  0  0  0
   40.1560   30.9130   44.5770 H   0  0  0  0  0  0  0  0  0  0  0  0
   39.6640   32.8040   45.3580 C   0  0  0  0  0  0  0  0  0  0  0  0
   40.4390   33.1470   46.1220 H   0  0  0  0  0  0  0  0  0  0  0  0
   39.1140   33.7150   45.1740 H   0  0  0  0  0  0  0  0  0  0  0  0
   37.7280   31.0130   47.7880 C   0  0  0  0  0  0  0  0  0  0  0  0
   37.0040   30.7500   46.6410 C   0  0  0  0  0  0  0  0  0  0  0  0
   37.6620   31.3970   45.5870 C   0  0  0  0  0  0  0  0  0  0  0  0
   38.7160   32.0010   46.1260 N   0  0  0  0  0  0  0  0  0  0  0  0
   38.7530   31.7680   47.4380 N   0  0  0  0  0  0  0  0  0  0  0  0
   36.0800   30.1420   46.5820 H   0  0  0  0  0  0  0  0  0  0  0  0
   37.2370   31.2910   44.6610 H   0  0  0  0  0  0  0  0  0  0  0  0
   37.5140   30.2410   51.4620 C   0  0  0  0  0  0  0  0  0  0  0  0
   37.9920   30.7930   50.2670 C   0  0  0  0  0  0  0  0  0  0  0  0
   37.3420   30.5040   49.0800 C   0  0  0  0  0  0  0  0  0  0  0  0
   36.2630   29.6800   49.1890 N   0  0  0  0  0  0  0  0  0  0  0  0
   35.8180   29.1580   50.3480 C   0  0  0  0  0  0  0  0  0  0  0  0
   36.4550   29.4480   51.4780 N   0  0  0  0  0  0  0  0  0  0  0  0
   38.1400   30.5700   52.3030 H   0  0  0  0  0  0  0  0  0  0  0  0
   38.8470   31.4470   50.1660 H   0  0  0  0  0  0  0  0  0  0  0  0
   34.9510   28.5140   50.3300 H   0  0  0  0  0  0  0  0  0  0  0  0
  1 24  1  0  0  0  0
  2  1  1  0  0  0  0
  2  8  1  0  0  0  0
  3  2  1  0  0  0  0
  3 10  1  0  0  0  0
  4  5  1  0  0  0  0
  4  3  1  0  0  0  0
  5  6  1  0  0  0  0
  5 11  1  0  0  0  0
  6  1  1  0  0  0  0
  6 13  1  1  0  0  0
  7  2  1  0  0  0  0
  9  3  1  0  0  0  0
 12  5  1  0  0  0  0
 14 15  1  0  0  0  0
 15 16  1  0  0  0  0
 16 17  2  0  0  0  0
 16  6  1  0  0  0  0
 17 18  1  0  0  0  0
 19 17  1  0  0  0  0
 20 19  2  0  0  0  0
 21 20  1  0  0  0  0
 22 20  1  0  0  0  0
 22 15  2  0  0  0  0
 23 22  1  0  0  0  0
 24 25  1  0  0  0  0
 24 26  1  0  0  0  0
 24 27  1  0  0  0  0
 27 28  1  0  0  0  0
 27 33  1  0  0  0  0
 29 27  1  0  0  0  0
 30 39  1  0  0  0  0
 31 30  1  0  0  0  0
 32 33  1  0  0  0  0
 32 31  2  0  0  0  0
 33 34  1  0  0  0  0
 34 30  2  0  0  0  0
 35 31  1  0  0  0  0
 36 32  1  0  0  0  0
 37 42  1  0  0  0  0
 37 43  1  0  0  0  0
 38 37  2  0  0  0  0
 39 40  2  0  0  0  0
 39 38  1  0  0  0  0
 40 41  1  0  0  0  0
 41 42  2  0  0  0  0
 44 38  1  0  0  0  0
 45 41  1  0  0  0  0
M  END
>  <minimizedAffinity>
-5.71693754

>  <minimizedRMSD>
1.21634507

$$$$
