
 OpenBabel03262520203D

 22 23  0  0  0  0  0  0  0  0999 V2000
   40.0780   22.7740   35.5560 C   0  0  0  0  0  0  0  0  0  0  0  0
   39.6640   22.7980   36.9050 C   0  0  0  0  0  0  0  0  0  0  0  0
   38.6610   23.7170   37.2610 C   0  0  0  0  0  0  0  0  0  0  0  0
   38.1620   24.5170   36.2840 N   0  0  0  0  0  0  0  0  0  0  0  0
   38.5810   24.4660   35.0100 C   0  0  0  0  0  0  0  0  0  0  0  0
   39.5350   23.5940   34.6600 N   0  0  0  0  0  0  0  0  0  0  0  0
   40.8370   22.1010   35.2060 H   0  0  0  0  0  0  0  0  0  0  0  0
   40.1200   22.1210   37.6130 H   0  0  0  0  0  0  0  0  0  0  0  0
   38.8000   27.4720   35.4880 Cl  0  0  0  0  0  0  0  0  0  0  0  0
   38.0500   26.7130   34.1020 C   0  0  0  0  0  0  0  0  0  0  0  0
   38.0120   25.3480   33.9950 C   0  0  0  0  0  0  0  0  0  0  0  0
   37.4020   24.8290   32.8700 C   0  0  0  0  0  0  0  0  0  0  0  0
   37.3730   23.7320   32.7880 H   0  0  0  0  0  0  0  0  0  0  0  0
   36.8370   25.5750   31.8570 C   0  0  0  0  0  3  0  0  0  0  0  0
   36.9060   26.9530   32.0170 C   0  0  0  0  0  0  0  0  0  0  0  0
   36.1980   27.9440   30.7510 Cl  0  0  0  0  0  0  0  0  0  0  0  0
   37.5040   27.5520   33.1250 C   0  0  0  0  0  0  0  0  0  0  0  0
   37.5320   28.6400   33.2030 H   0  0  0  0  0  0  0  0  0  0  0  0
   38.2040   23.7680   38.6690 C   0  0  0  0  0  0  0  0  0  0  0  0
   39.3370   23.6310   39.4430 F   0  0  0  0  0  0  0  0  0  0  0  0
   37.5920   24.9560   39.0020 F   0  0  0  0  0  0  0  0  0  0  0  0
   37.3450   22.7080   38.9710 F   0  0  0  0  0  0  0  0  0  0  0  0
  1  2  1  0  0  0  0
  2  3  2  0  0  0  0
  2  8  1  0  0  0  0
  3 19  1  0  0  0  0
  4  3  1  0  0  0  0
  5  4  2  0  0  0  0
  6  5  1  0  0  0  0
  6  1  2  0  0  0  0
  7  1  1  0  0  0  0
 10  9  1  0  0  0  0
 11 10  1  0  0  0  0
 11  5  1  0  0  0  0
 12 11  2  0  0  0  0
 13 12  1  0  0  0  0
 14 15  2  0  0  0  0
 14 12  1  0  0  0  0
 15 17  1  0  0  0  0
 16 15  1  0  0  0  0
 17 18  1  0  0  0  0
 17 10  2  0  0  0  0
 19 22  1  0  0  0  0
 19 21  1  0  0  0  0
 19 20  1  0  0  0  0
M  END
>  <minimizedAffinity>
-5.40969658

$$$$

 OpenBabel03262520203D

 22 23  0  0  0  0  0  0  0  0999 V2000
   40.0200   23.8030   35.0840 C   0  0  0  0  0  0  0  0  0  0  0  0
   39.7040   23.4710   36.4190 C   0  0  0  0  0  0  0  0  0  0  0  0
   38.6020   24.1170   37.0050 C   0  0  0  0  0  0  0  0  0  0  0  0
   37.9200   25.0150   36.2490 N   0  0  0  0  0  0  0  0  0  0  0  0
   38.2500   25.3060   34.9820 C   0  0  0  0  0  0  0  0  0  0  0  0
   39.2980   24.6960   34.4130 N   0  0  0  0  0  0  0  0  0  0  0  0
   40.8460   23.3530   34.5670 H   0  0  0  0  0  0  0  0  0  0  0  0
   40.3060   22.7420   36.9420 H   0  0  0  0  0  0  0  0  0  0  0  0
   37.3600   24.4780   32.1830 Cl  0  0  0  0  0  0  0  0  0  0  0  0
   37.0320   26.0200   32.9420 C   0  0  0  0  0  0  0  0  0  0  0  0
   37.4850   26.2790   34.2090 C   0  0  0  0  0  0  0  0  0  0  0  0
   37.1830   27.5200   34.7350 C   0  0  0  0  0  0  0  0  0  0  0  0
   37.5480   27.7250   35.7520 H   0  0  0  0  0  0  0  0  0  0  0  0
   36.4670   28.5050   34.0870 C   0  0  0  0  0  3  0  0  0  0  0  0
   36.0330   28.1860   32.8060 C   0  0  0  0  0  0  0  0  0  0  0  0
   35.1180   29.4110   31.9420 Cl  0  0  0  0  0  0  0  0  0  0  0  0
   36.2980   26.9560   32.2070 C   0  0  0  0  0  0  0  0  0  0  0  0
   35.9340   26.7560   31.1980 H   0  0  0  0  0  0  0  0  0  0  0  0
   38.2420   23.7910   38.4060 C   0  0  0  0  0  0  0  0  0  0  0  0
   37.7420   24.9550   38.9510 F   0  0  0  0  0  0  0  0  0  0  0  0
   37.2780   22.8130   38.5100 F   0  0  0  0  0  0  0  0  0  0  0  0
   39.3620   23.4130   39.1500 F   0  0  0  0  0  0  0  0  0  0  0  0
  1  2  1  0  0  0  0
  2  8  1  0  0  0  0
  2  3  2  0  0  0  0
  3 19  1  0  0  0  0
  4  3  1  0  0  0  0
  5  4  2  0  0  0  0
  6  5  1  0  0  0  0
  6  1  2  0  0  0  0
  7  1  1  0  0  0  0
  9 10  1  0  0  0  0
 10 11  1  0  0  0  0
 11 12  2  0  0  0  0
 11  5  1  0  0  0  0
 12 13  1  0  0  0  0
 14 12  1  0  0  0  0
 15 14  2  0  0  0  0
 16 15  1  0  0  0  0
 17 15  1  0  0  0  0
 17 10  2  0  0  0  0
 18 17  1  0  0  0  0
 19 21  1  0  0  0  0
 19 20  1  0  0  0  0
 19 22  1  0  0  0  0
M  END
>  <minimizedAffinity>
-5.34762287

$$$$

 OpenBabel03262520203D

 22 23  0  0  0  0  0  0  0  0999 V2000
   38.0310   23.6840   38.3440 C   0  0  0  0  0  0  0  0  0  0  0  0
   39.2150   22.9240   38.2340 C   0  0  0  0  0  0  0  0  0  0  0  0
   39.9750   23.0710   37.0610 C   0  0  0  0  0  0  0  0  0  0  0  0
   39.5180   23.9320   36.1160 N   0  0  0  0  0  0  0  0  0  0  0  0
   38.3860   24.6390   36.2550 C   0  0  0  0  0  0  0  0  0  0  0  0
   37.6540   24.5070   37.3680 N   0  0  0  0  0  0  0  0  0  0  0  0
   37.3980   23.6280   39.2080 H   0  0  0  0  0  0  0  0  0  0  0  0
   39.4990   22.2630   39.0400 H   0  0  0  0  0  0  0  0  0  0  0  0
   37.9160   23.4640   33.4780 Cl  0  0  0  0  0  0  0  0  0  0  0  0
   37.6930   25.1410   33.9260 C   0  0  0  0  0  0  0  0  0  0  0  0
   37.9360   25.5530   35.2090 C   0  0  0  0  0  0  0  0  0  0  0  0
   37.7360   26.8930   35.4810 C   0  0  0  0  0  0  0  0  0  0  0  0
   37.9330   27.2200   36.5120 H   0  0  0  0  0  0  0  0  0  0  0  0
   37.3130   27.8340   34.5650 C   0  0  0  0  0  3  0  0  0  0  0  0
   37.0820   27.3590   33.2800 C   0  0  0  0  0  0  0  0  0  0  0  0
   36.5420   28.5230   32.0810 Cl  0  0  0  0  0  0  0  0  0  0  0  0
   37.2610   26.0220   32.9300 C   0  0  0  0  0  0  0  0  0  0  0  0
   37.0640   25.7000   31.9050 H   0  0  0  0  0  0  0  0  0  0  0  0
   41.2240   22.2880   36.9130 C   0  0  0  0  0  0  0  0  0  0  0  0
   42.2560   23.2010   36.9680 F   0  0  0  0  0  0  0  0  0  0  0  0
   41.4110   21.3620   37.9160 F   0  0  0  0  0  0  0  0  0  0  0  0
   41.2840   21.6430   35.6750 F   0  0  0  0  0  0  0  0  0  0  0  0
  1  7  1  0  0  0  0
  2  1  1  0  0  0  0
  2  8  1  0  0  0  0
  3  2  2  0  0  0  0
  4  5  2  0  0  0  0
  4  3  1  0  0  0  0
  5  6  1  0  0  0  0
  6  1  2  0  0  0  0
  9 10  1  0  0  0  0
 10 11  1  0  0  0  0
 11 12  2  0  0  0  0
 11  5  1  0  0  0  0
 12 13  1  0  0  0  0
 14 12  1  0  0  0  0
 15 14  2  0  0  0  0
 16 15  1  0  0  0  0
 17 15  1  0  0  0  0
 17 10  2  0  0  0  0
 18 17  1  0  0  0  0
 19 20  1  0  0  0  0
 19  3  1  0  0  0  0
 19 21  1  0  0  0  0
 22 19  1  0  0  0  0
M  END
>  <minimizedAffinity>
-5.18713999

$$$$

 OpenBabel03262520203D

 22 23  0  0  0  0  0  0  0  0999 V2000
   38.0400   23.7650   37.9250 C   0  0  0  0  0  0  0  0  0  0  0  0
   39.2420   23.0280   37.9840 C   0  0  0  0  0  0  0  0  0  0  0  0
   40.0560   23.0200   36.8380 C   0  0  0  0  0  0  0  0  0  0  0  0
   39.6300   23.7200   35.7550 N   0  0  0  0  0  0  0  0  0  0  0  0
   38.4790   24.4100   35.7350 C   0  0  0  0  0  0  0  0  0  0  0  0
   37.6960   24.4250   36.8210 N   0  0  0  0  0  0  0  0  0  0  0  0
   37.3660   23.8200   38.7570 H   0  0  0  0  0  0  0  0  0  0  0  0
   39.4980   22.5010   38.8910 H   0  0  0  0  0  0  0  0  0  0  0  0
   38.7060   27.4520   35.8300 Cl  0  0  0  0  0  0  0  0  0  0  0  0
   38.1210   26.5150   34.4730 C   0  0  0  0  0  0  0  0  0  0  0  0
   38.0650   25.1480   34.5460 C   0  0  0  0  0  0  0  0  0  0  0  0
   37.5910   24.4850   33.4320 C   0  0  0  0  0  0  0  0  0  0  0  0
   37.5470   23.3870   33.4950 H   0  0  0  0  0  0  0  0  0  0  0  0
   37.1760   25.0900   32.2630 C   0  0  0  0  0  3  0  0  0  0  0  0
   37.2560   26.4760   32.2450 C   0  0  0  0  0  0  0  0  0  0  0  0
   36.7390   27.2900   30.7770 Cl  0  0  0  0  0  0  0  0  0  0  0  0
   37.7230   27.2170   33.3300 C   0  0  0  0  0  0  0  0  0  0  0  0
   37.7670   28.3050   33.2640 H   0  0  0  0  0  0  0  0  0  0  0  0
   41.3250   22.2560   36.8660 C   0  0  0  0  0  0  0  0  0  0  0  0
   41.2650   21.4590   37.9900 F   0  0  0  0  0  0  0  0  0  0  0  0
   41.5000   21.4440   35.7670 F   0  0  0  0  0  0  0  0  0  0  0  0
   42.4320   23.1000   36.9940 F   0  0  0  0  0  0  0  0  0  0  0  0
  1  2  1  0  0  0  0
  1  7  1  0  0  0  0
  2  8  1  0  0  0  0
  3 19  1  0  0  0  0
  3  2  2  0  0  0  0
  4  3  1  0  0  0  0
  5  4  2  0  0  0  0
  5  6  1  0  0  0  0
  6  1  2  0  0  0  0
 10 11  1  0  0  0  0
 10  9  1  0  0  0  0
 11  5  1  0  0  0  0
 12 13  1  0  0  0  0
 12 11  2  0  0  0  0
 14 12  1  0  0  0  0
 15 14  2  0  0  0  0
 15 17  1  0  0  0  0
 16 15  1  0  0  0  0
 17 10  2  0  0  0  0
 18 17  1  0  0  0  0
 19 22  1  0  0  0  0
 19 20  1  0  0  0  0
 21 19  1  0  0  0  0
M  END
>  <minimizedAffinity>
-5.16360903

$$$$

 OpenBabel03262520203D

 22 23  0  0  0  0  0  0  0  0999 V2000
   38.2410   25.2150   34.7760 C   0  0  0  0  0  0  0  0  0  0  0  0
   38.3550   25.1160   36.1790 C   0  0  0  0  0  0  0  0  0  0  0  0
   38.1840   23.8470   36.7580 C   0  0  0  0  0  0  0  0  0  0  0  0
   37.9200   22.8050   35.9280 N   0  0  0  0  0  0  0  0  0  0  0  0
   37.8180   22.9360   34.5970 C   0  0  0  0  0  0  0  0  0  0  0  0
   37.9800   24.1410   34.0350 N   0  0  0  0  0  0  0  0  0  0  0  0
   38.3590   26.1480   34.2610 H   0  0  0  0  0  0  0  0  0  0  0  0
   38.5690   26.0030   36.7580 H   0  0  0  0  0  0  0  0  0  0  0  0
   40.0850   21.9070   32.8330 Cl  0  0  0  0  0  0  0  0  0  0  0  0
   38.4710   21.2360   32.9130 C   0  0  0  0  0  0  0  0  0  0  0  0
   37.5330   21.7840   33.7460 C   0  0  0  0  0  0  0  0  0  0  0  0
   36.2840   21.1950   33.7500 C   0  0  0  0  0  0  0  0  0  0  0  0
   35.5330   21.6390   34.4210 H   0  0  0  0  0  0  0  0  0  0  0  0
   35.9170   20.1070   32.9860 C   0  0  0  0  0  3  0  0  0  0  0  0
   36.9080   19.5920   32.1610 C   0  0  0  0  0  0  0  0  0  0  0  0
   36.4850   18.2050   31.1690 Cl  0  0  0  0  0  0  0  0  0  0  0  0
   38.1920   20.1320   32.1010 C   0  0  0  0  0  0  0  0  0  0  0  0
   38.9350   19.6890   31.4360 H   0  0  0  0  0  0  0  0  0  0  0  0
   38.2980   23.7080   38.2290 C   0  0  0  0  0  0  0  0  0  0  0  0
   37.3200   22.8100   38.6040 F   0  0  0  0  0  0  0  0  0  0  0  0
   39.5180   23.2180   38.6390 F   0  0  0  0  0  0  0  0  0  0  0  0
   38.0460   24.9180   38.8810 F   0  0  0  0  0  0  0  0  0  0  0  0
  1  2  1  0  0  0  0
  2  8  1  0  0  0  0
  2  3  2  0  0  0  0
  3 19  1  0  0  0  0
  4  3  1  0  0  0  0
  5  4  2  0  0  0  0
  6  5  1  0  0  0  0
  6  1  2  0  0  0  0
  7  1  1  0  0  0  0
  9 10  1  0  0  0  0
 10 11  1  0  0  0  0
 11 12  2  0  0  0  0
 11  5  1  0  0  0  0
 12 13  1  0  0  0  0
 14 12  1  0  0  0  0
 15 14  2  0  0  0  0
 16 15  1  0  0  0  0
 17 15  1  0  0  0  0
 17 10  2  0  0  0  0
 18 17  1  0  0  0  0
 19 20  1  0  0  0  0
 19 21  1  0  0  0  0
 19 22  1  0  0  0  0
M  END
>  <minimizedAffinity>
-5.07491446

$$$$

 OpenBabel03262520203D

 22 23  0  0  0  0  0  0  0  0999 V2000
   37.8550   27.5400   35.4140 C   0  0  0  0  0  0  0  0  0  0  0  0
   37.1880   27.4140   34.1770 C   0  0  0  0  0  0  0  0  0  0  0  0
   37.3290   26.1990   33.4830 C   0  0  0  0  0  0  0  0  0  0  0  0
   38.0960   25.2330   34.0510 N   0  0  0  0  0  0  0  0  0  0  0  0
   38.7160   25.3890   35.2300 C   0  0  0  0  0  0  0  0  0  0  0  0
   38.5880   26.5410   35.9000 N   0  0  0  0  0  0  0  0  0  0  0  0
   37.7960   28.4350   36.0030 H   0  0  0  0  0  0  0  0  0  0  0  0
   36.5980   28.2390   33.8050 H   0  0  0  0  0  0  0  0  0  0  0  0
   37.5250   23.8140   37.5560 Cl  0  0  0  0  0  0  0  0  0  0  0  0
   39.1010   23.5460   36.8460 C   0  0  0  0  0  0  0  0  0  0  0  0
   39.5300   24.3190   35.8000 C   0  0  0  0  0  0  0  0  0  0  0  0
   40.7860   24.0430   35.2960 C   0  0  0  0  0  0  0  0  0  0  0  0
   41.1280   24.6660   34.4560 H   0  0  0  0  0  0  0  0  0  0  0  0
   41.6300   23.0560   35.7630 C   0  0  0  0  0  3  0  0  0  0  0  0
   41.1420   22.3030   36.8240 C   0  0  0  0  0  0  0  0  0  0  0  0
   42.1830   21.0350   37.4510 Cl  0  0  0  0  0  0  0  0  0  0  0  0
   39.8850   22.5220   37.3860 C   0  0  0  0  0  0  0  0  0  0  0  0
   39.5490   21.9010   38.2180 H   0  0  0  0  0  0  0  0  0  0  0  0
   36.6420   26.0340   32.1810 C   0  0  0  0  0  0  0  0  0  0  0  0
   35.7470   27.0790   32.0870 F   0  0  0  0  0  0  0  0  0  0  0  0
   37.4950   26.0950   31.1010 F   0  0  0  0  0  0  0  0  0  0  0  0
   35.9180   24.8400   32.1280 F   0  0  0  0  0  0  0  0  0  0  0  0
  1  6  1  0  0  0  0
  1  7  1  0  0  0  0
  2  1  2  0  0  0  0
  3  4  2  0  0  0  0
  3  2  1  0  0  0  0
  4  5  1  0  0  0  0
  5 11  1  0  0  0  0
  5  6  2  0  0  0  0
  8  2  1  0  0  0  0
 10 17  1  0  0  0  0
 10  9  1  0  0  0  0
 11 10  2  0  0  0  0
 12 14  2  0  0  0  0
 12 11  1  0  0  0  0
 13 12  1  0  0  0  0
 14 15  1  0  0  0  0
 15 17  2  0  0  0  0
 15 16  1  0  0  0  0
 17 18  1  0  0  0  0
 19  3  1  0  0  0  0
 20 19  1  0  0  0  0
 21 19  1  0  0  0  0
 22 19  1  0  0  0  0
M  END
>  <minimizedAffinity>
-4.94916916

$$$$

 OpenBabel03262520203D

 22 23  0  0  0  0  0  0  0  0999 V2000
   35.7570   29.0130   31.8400 C   0  0  0  0  0  0  0  0  0  0  0  0
   36.4430   27.8470   32.2420 C   0  0  0  0  0  0  0  0  0  0  0  0
   36.6690   27.6680   33.6180 C   0  0  0  0  0  0  0  0  0  0  0  0
   36.2140   28.6280   34.4630 N   0  0  0  0  0  0  0  0  0  0  0  0
   35.5660   29.7250   34.0440 C   0  0  0  0  0  0  0  0  0  0  0  0
   35.3440   29.9060   32.7360 N   0  0  0  0  0  0  0  0  0  0  0  0
   35.5460   29.2210   30.8090 H   0  0  0  0  0  0  0  0  0  0  0  0
   36.7670   27.1370   31.4950 H   0  0  0  0  0  0  0  0  0  0  0  0
   32.7100   29.4400   35.0810 Cl  0  0  0  0  0  0  0  0  0  0  0  0
   33.8340   30.7050   35.5260 C   0  0  0  0  0  0  0  0  0  0  0  0
   35.0960   30.7300   34.9940 C   0  0  0  0  0  0  0  0  0  0  0  0
   35.9200   31.7620   35.3970 C   0  0  0  0  0  0  0  0  0  0  0  0
   36.9330   31.7790   34.9670 H   0  0  0  0  0  0  0  0  0  0  0  0
   35.5710   32.7570   36.2870 C   0  0  0  0  0  3  0  0  0  0  0  0
   34.2800   32.6800   36.7940 C   0  0  0  0  0  0  0  0  0  0  0  0
   33.7910   33.9270   37.9310 Cl  0  0  0  0  0  0  0  0  0  0  0  0
   33.3900   31.6690   36.4350 C   0  0  0  0  0  0  0  0  0  0  0  0
   32.3860   31.6550   36.8640 H   0  0  0  0  0  0  0  0  0  0  0  0
   37.3860   26.4540   34.0740 C   0  0  0  0  0  0  0  0  0  0  0  0
   36.9740   25.4330   33.2410 F   0  0  0  0  0  0  0  0  0  0  0  0
   38.7560   26.5610   33.9840 F   0  0  0  0  0  0  0  0  0  0  0  0
   37.0370   26.1100   35.3820 F   0  0  0  0  0  0  0  0  0  0  0  0
  1  2  2  0  0  0  0
  1  6  1  0  0  0  0
  2  3  1  0  0  0  0
  3 19  1  0  0  0  0
  3  4  2  0  0  0  0
  5  4  1  0  0  0  0
  5 11  1  0  0  0  0
  6  5  2  0  0  0  0
  7  1  1  0  0  0  0
  8  2  1  0  0  0  0
  9 10  1  0  0  0  0
 10 17  1  0  0  0  0
 11 12  1  0  0  0  0
 11 10  2  0  0  0  0
 12 14  2  0  0  0  0
 13 12  1  0  0  0  0
 14 15  1  0  0  0  0
 15 16  1  0  0  0  0
 17 15  2  0  0  0  0
 17 18  1  0  0  0  0
 19 22  1  0  0  0  0
 20 19  1  0  0  0  0
 21 19  1  0  0  0  0
M  END
>  <minimizedAffinity>
-4.81951666

$$$$

 OpenBabel03262520203D

 22 23  0  0  0  0  0  0  0  0999 V2000
   36.1550   27.2770   31.4360 C   0  0  0  0  0  0  0  0  0  0  0  0
   36.6590   27.7330   32.6730 C   0  0  0  0  0  0  0  0  0  0  0  0
   37.1890   26.7730   33.5520 C   0  0  0  0  0  0  0  0  0  0  0  0
   37.1790   25.4750   33.1510 N   0  0  0  0  0  0  0  0  0  0  0  0
   36.6900   25.0780   31.9670 C   0  0  0  0  0  0  0  0  0  0  0  0
   36.1830   25.9840   31.1210 N   0  0  0  0  0  0  0  0  0  0  0  0
   35.7350   27.9480   30.7120 H   0  0  0  0  0  0  0  0  0  0  0  0
   36.6250   28.7880   32.9040 H   0  0  0  0  0  0  0  0  0  0  0  0
   39.3090   23.9480   30.8820 Cl  0  0  0  0  0  0  0  0  0  0  0  0
   37.8190   23.0540   31.0820 C   0  0  0  0  0  0  0  0  0  0  0  0
   36.7020   23.6700   31.5810 C   0  0  0  0  0  0  0  0  0  0  0  0
   35.5670   22.8930   31.7070 C   0  0  0  0  0  0  0  0  0  0  0  0
   34.6720   23.3920   32.1080 H   0  0  0  0  0  0  0  0  0  0  0  0
   35.4760   21.5580   31.3720 C   0  0  0  0  0  3  0  0  0  0  0  0
   36.6390   20.9860   30.8720 C   0  0  0  0  0  0  0  0  0  0  0  0
   36.5710   19.2870   30.4310 Cl  0  0  0  0  0  0  0  0  0  0  0  0
   37.8230   21.7050   30.7150 C   0  0  0  0  0  0  0  0  0  0  0  0
   38.7100   21.2070   30.3180 H   0  0  0  0  0  0  0  0  0  0  0  0
   37.7270   27.2170   34.8590 C   0  0  0  0  0  0  0  0  0  0  0  0
   39.0800   27.4080   34.6690 F   0  0  0  0  0  0  0  0  0  0  0  0
   37.1800   28.4020   35.3010 F   0  0  0  0  0  0  0  0  0  0  0  0
   37.5630   26.2400   35.8430 F   0  0  0  0  0  0  0  0  0  0  0  0
  1  2  1  0  0  0  0
  2  8  1  0  0  0  0
  2  3  2  0  0  0  0
  3 19  1  0  0  0  0
  4  3  1  0  0  0  0
  5  4  2  0  0  0  0
  6  1  2  0  0  0  0
  6  5  1  0  0  0  0
  7  1  1  0  0  0  0
  9 10  1  0  0  0  0
 10 11  1  0  0  0  0
 11 12  2  0  0  0  0
 11  5  1  0  0  0  0
 12 13  1  0  0  0  0
 14 12  1  0  0  0  0
 15 14  2  0  0  0  0
 16 15  1  0  0  0  0
 17 15  1  0  0  0  0
 17 10  2  0  0  0  0
 18 17  1  0  0  0  0
 19 21  1  0  0  0  0
 19 22  1  0  0  0  0
 20 19  1  0  0  0  0
M  END
>  <minimizedAffinity>
-4.81502676

$$$$

 OpenBabel03262520203D

 22 23  0  0  0  0  0  0  0  0999 V2000
   37.0100   27.4500   33.9490 C   0  0  0  0  0  0  0  0  0  0  0  0
   37.1630   27.6230   32.5570 C   0  0  0  0  0  0  0  0  0  0  0  0
   36.6410   28.7970   31.9870 C   0  0  0  0  0  0  0  0  0  0  0  0
   36.0260   29.6810   32.8130 N   0  0  0  0  0  0  0  0  0  0  0  0
   35.8980   29.4820   34.1340 C   0  0  0  0  0  0  0  0  0  0  0  0
   36.3920   28.3680   34.6880 N   0  0  0  0  0  0  0  0  0  0  0  0
   37.3810   26.5810   34.4570 H   0  0  0  0  0  0  0  0  0  0  0  0
   37.6690   26.8630   31.9790 H   0  0  0  0  0  0  0  0  0  0  0  0
   32.8580   29.3070   34.3410 Cl  0  0  0  0  0  0  0  0  0  0  0  0
   33.8680   30.4840   35.1510 C   0  0  0  0  0  0  0  0  0  0  0  0
   35.2280   30.4640   34.9820 C   0  0  0  0  0  0  0  0  0  0  0  0
   35.9530   31.4270   35.6570 C   0  0  0  0  0  0  0  0  0  0  0  0
   37.0440   31.4080   35.5180 H   0  0  0  0  0  0  0  0  0  0  0  0
   35.4150   32.3950   36.4790 C   0  0  0  0  0  3  0  0  0  0  0  0
   34.0320   32.3660   36.6140 C   0  0  0  0  0  0  0  0  0  0  0  0
   33.3030   33.5810   37.6530 Cl  0  0  0  0  0  0  0  0  0  0  0  0
   33.2330   31.4260   35.9650 C   0  0  0  0  0  0  0  0  0  0  0  0
   32.1510   31.4470   36.1060 H   0  0  0  0  0  0  0  0  0  0  0  0
   36.7850   29.0110   30.5280 C   0  0  0  0  0  0  0  0  0  0  0  0
   38.1080   29.3420   30.3190 F   0  0  0  0  0  0  0  0  0  0  0  0
   36.4950   27.8910   29.7800 F   0  0  0  0  0  0  0  0  0  0  0  0
   35.9990   30.0770   30.0830 F   0  0  0  0  0  0  0  0  0  0  0  0
  1  7  1  0  0  0  0
  1  6  1  0  0  0  0
  2  1  2  0  0  0  0
  3  2  1  0  0  0  0
  3  4  2  0  0  0  0
  4  5  1  0  0  0  0
  5  6  2  0  0  0  0
  5 11  1  0  0  0  0
  8  2  1  0  0  0  0
  9 10  1  0  0  0  0
 10 17  1  0  0  0  0
 11 10  2  0  0  0  0
 11 12  1  0  0  0  0
 12 14  2  0  0  0  0
 13 12  1  0  0  0  0
 14 15  1  0  0  0  0
 15 16  1  0  0  0  0
 17 18  1  0  0  0  0
 17 15  2  0  0  0  0
 19  3  1  0  0  0  0
 20 19  1  0  0  0  0
 21 19  1  0  0  0  0
 22 19  1  0  0  0  0
M  END
>  <minimizedAffinity>
-4.74468422

$$$$
