
 OpenBabel03272506123D

 45 48  0  0  1  0  0  0  0  0999 V2000
   37.3120   30.5360   48.6520 C   0  0  1  0  0  0  0  0  0  0  0  0
   37.7850   29.0690   48.9990 C   0  0  0  0  0  0  0  0  0  0  0  0
   37.2510   28.6140   50.3320 C   0  0  0  0  0  0  0  0  0  0  0  0
   37.3310   29.7390   51.3600 C   0  0  0  0  0  0  0  0  0  0  0  0
   38.3740   30.6730   50.8820 C   0  0  0  0  0  0  0  0  0  0  0  0
   37.8670   31.4510   49.7080 C   0  0  2  0  0  0  0  0  0  0  0  0
   36.3390   30.3820   48.9690 H   0  0  0  0  0  0  0  0  0  0  0  0
   38.8230   28.9150   48.7880 H   0  0  0  0  0  0  0  0  0  0  0  0
   37.2370   28.4790   48.2340 H   0  0  0  0  0  0  0  0  0  0  0  0
   36.2320   28.1850   50.2600 H   0  0  0  0  0  0  0  0  0  0  0  0
   37.9040   27.7690   50.6480 H   0  0  0  0  0  0  0  0  0  0  0  0
   37.5910   29.2950   52.3220 H   0  0  0  0  0  0  0  0  0  0  0  0
   36.2720   30.1390   51.3370 H   0  0  0  0  0  0  0  0  0  0  0  0
   38.9840   31.2120   51.5850 H   0  0  0  0  0  0  0  0  0  0  0  0
   39.1840   30.0240   50.4090 H   0  0  0  0  0  0  0  0  0  0  0  0
   38.7610   32.0200   49.3780 H   0  0  0  0  0  0  0  0  0  0  0  0
   36.9510   30.6230   46.2100 C   0  0  0  0  0  0  0  0  0  0  0  0
   37.4680   30.9450   44.9720 C   0  0  0  0  0  0  0  0  0  0  0  0
   38.7370   31.3990   44.7360 C   0  0  0  0  0  0  0  0  0  0  0  0
   39.6020   31.5570   45.8220 C   0  0  0  0  0  0  0  0  0  0  0  0
   39.0880   31.2320   47.0720 C   0  0  0  0  0  0  0  0  0  0  0  0
   37.7970   30.7730   47.3110 C   0  0  0  0  0  0  0  0  0  0  0  0
   36.8510   30.8540   44.0570 H   0  0  0  0  0  0  0  0  0  0  0  0
   39.0580   31.6320   43.7300 H   0  0  0  0  0  0  0  0  0  0  0  0
   40.5740   31.9110   45.5990 H   0  0  0  0  0  0  0  0  0  0  0  0
   39.8760   31.3890   47.7960 H   0  0  0  0  0  0  0  0  0  0  0  0
   35.1420   29.5050   45.0210 C   0  0  0  0  0  0  0  0  0  0  0  0
   35.6150   30.1400   46.2270 C   0  0  0  0  0  0  0  0  0  0  0  0
   34.7410   30.2010   47.2950 C   0  0  0  0  0  0  0  0  0  0  0  0
   33.4990   29.6710   47.1880 N   0  0  0  0  0  0  0  0  0  0  0  0
   33.0670   29.0700   46.0340 C   0  0  0  0  0  0  0  0  0  0  0  0
   33.8970   28.9930   44.9570 N   0  0  0  0  0  0  0  0  0  0  0  0
   35.6990   29.3790   44.1100 H   0  0  0  0  0  0  0  0  0  0  0  0
   34.8190   30.6660   48.2280 H   0  0  0  0  0  0  0  0  0  0  0  0
   32.0750   28.6400   45.9270 H   0  0  0  0  0  0  0  0  0  0  0  0
   34.7580   31.0260   50.1890 Cl  0  0  0  0  0  0  0  0  0  0  0  0
   35.5440   32.5840   50.1660 C   0  0  0  0  0  0  0  0  0  0  0  0
   36.8990   32.5400   49.9810 C   0  0  0  0  0  0  0  0  0  0  0  0
   37.5430   33.7890   50.0090 C   0  0  0  0  0  0  0  0  0  0  0  0
   38.5850   34.0940   49.8990 H   0  0  0  0  0  0  0  0  0  0  0  0
   36.8110   34.9390   50.2100 C   0  0  0  0  0  3  0  0  0  0  0  0
   35.4320   34.9250   50.3920 C   0  0  0  0  0  0  0  0  0  0  0  0
   34.4440   36.3470   50.6500 Cl  0  0  0  0  0  0  0  0  0  0  0  0
   34.7990   33.7130   50.3670 C   0  0  0  0  0  0  0  0  0  0  0  0
   33.7330   33.5920   50.4980 H   0  0  0  0  0  0  0  0  0  0  0  0
  1  7  1  1  0  0  0
  1  2  1  0  0  0  0
  1  6  1  0  0  0  0
  2  3  1  0  0  0  0
  3 11  1  0  0  0  0
  3  4  1  0  0  0  0
  4 12  1  0  0  0  0
  5  4  1  0  0  0  0
  5 14  1  0  0  0  0
  6 16  1  6  0  0  0
  6 38  1  0  0  0  0
  6  5  1  0  0  0  0
  8  2  1  0  0  0  0
  9  2  1  0  0  0  0
 10  3  1  0  0  0  0
 13  4  1  0  0  0  0
 15  5  1  0  0  0  0
 17 28  1  0  0  0  0
 17 22  1  0  0  0  0
 18 17  2  0  0  0  0
 19 18  1  0  0  0  0
 19 20  2  0  0  0  0
 20 21  1  0  0  0  0
 21 22  2  0  0  0  0
 21 26  1  0  0  0  0
 22  1  1  0  0  0  0
 23 18  1  0  0  0  0
 24 19  1  0  0  0  0
 25 20  1  0  0  0  0
 27 28  1  0  0  0  0
 28 29  2  0  0  0  0
 29 34  1  0  0  0  0
 30 29  1  0  0  0  0
 31 30  2  0  0  0  0
 32 27  2  0  0  0  0
 32 31  1  0  0  0  0
 33 27  1  0  0  0  0
 35 31  1  0  0  0  0
 37 36  1  0  0  0  0
 37 44  1  0  0  0  0
 38 39  1  0  0  0  0
 38 37  2  0  0  0  0
 39 41  2  0  0  0  0
 40 39  1  0  0  0  0
 41 42  1  0  0  0  0
 42 43  1  0  0  0  0
 44 42  2  0  0  0  0
 44 45  1  0  0  0  0
M  END
>  <minimizedAffinity>
4.1123538

>  <minimizedRMSD>
1.5415591

$$$$
