
 OpenBabel03272508113D

 35 37  0  0  0  0  0  0  0  0999 V2000
   36.6300   29.4840   44.0890 Cl  0  0  0  0  0  0  0  0  0  0  0  0
   38.2890   29.8340   43.5450 C   0  0  0  0  0  0  0  0  0  0  0  0
   39.2930   30.3030   44.3730 C   0  0  0  0  0  0  0  0  0  0  0  0
   40.5300   30.5270   43.8040 C   0  0  0  0  0  0  0  0  0  0  0  0
   40.7570   30.2960   42.4710 C   0  0  0  0  0  0  0  0  0  0  0  0
   39.7740   29.8320   41.6370 C   0  0  0  0  0  0  0  0  0  0  0  0
   38.5440   29.6030   42.1810 C   0  0  0  0  0  0  0  0  0  0  0  0
   41.2750   30.8960   44.5130 H   0  0  0  0  0  0  0  0  0  0  0  0
   41.7800   30.5170   42.1620 H   0  0  0  0  0  0  0  0  0  0  0  0
   40.0140   29.6690   40.5960 H   0  0  0  0  0  0  0  0  0  0  0  0
   37.9290   26.6160   42.0420 Cl  0  0  0  0  0  0  0  0  0  0  0  0
   37.0590   27.8080   41.1060 C   0  0  0  0  0  0  0  0  0  0  0  0
   37.4800   29.1070   41.3020 C   0  0  0  0  0  0  0  0  0  0  0  0
   36.8790   30.1560   40.6250 C   0  0  0  0  0  0  0  0  0  0  0  0
   37.1190   31.2090   40.6940 H   0  0  0  0  0  0  0  0  0  0  0  0
   35.8380   29.9210   39.7300 C   0  0  0  0  0  3  0  0  0  0  0  0
   35.4200   28.6010   39.5390 C   0  0  0  0  0  0  0  0  0  0  0  0
   34.1170   28.2330   38.4320 Cl  0  0  0  0  0  0  0  0  0  0  0  0
   36.0290   27.5680   40.2230 C   0  0  0  0  0  0  0  0  0  0  0  0
   35.7480   26.5180   40.1170 H   0  0  0  0  0  0  0  0  0  0  0  0
   38.8840   30.4740   45.6620 O   0  0  0  0  0  0  0  0  0  0  0  0
   39.4540   32.5260   47.1160 O   0  0  0  0  0  0  0  0  0  0  0  0
   38.3150   31.8570   46.4330 P   0  0  1  0  0  0  0  0  0  0  0  0
   37.7370   32.8550   45.1750 O   0  0  0  0  0  0  0  0  0  0  0  0
   37.1420   32.3610   44.5740 H   0  0  0  0  0  0  0  0  0  0  0  0
   37.0420   31.4540   47.4650 O   0  0  0  0  0  0  0  0  0  0  0  0
   37.6100   30.5140   50.9980 C   0  0  0  0  0  0  0  0  0  0  0  0
   37.7110   31.3100   49.8430 C   0  0  0  0  0  0  0  0  0  0  0  0
   37.0820   30.8650   48.6770 C   0  0  0  0  0  0  0  0  0  0  0  0
   36.4050   29.6820   48.7280 N   0  0  0  0  0  0  0  0  0  0  0  0
   36.3310   28.9440   49.8590 C   0  0  0  0  0  0  0  0  0  0  0  0
   36.9400   29.3740   50.9890 N   0  0  0  0  0  0  0  0  0  0  0  0
   38.1260   30.9340   51.8500 H   0  0  0  0  0  0  0  0  0  0  0  0
   38.2210   32.2440   49.7240 H   0  0  0  0  0  0  0  0  0  0  0  0
   35.7850   28.0040   49.8750 H   0  0  0  0  0  0  0  0  0  0  0  0
  2  1  1  0  0  0  0
  2  3  1  0  0  0  0
  3 21  1  0  0  0  0
  4  3  2  0  0  0  0
  4  8  1  0  0  0  0
  5  4  1  0  0  0  0
  6  7  1  0  0  0  0
  6  5  2  0  0  0  0
  7  2  2  0  0  0  0
  9  5  1  0  0  0  0
 10  6  1  0  0  0  0
 12 13  1  0  0  0  0
 12 11  1  0  0  0  0
 13  7  1  0  0  0  0
 14 15  1  0  0  0  0
 14 13  2  0  0  0  0
 16 14  1  0  0  0  0
 17 16  2  0  0  0  0
 17 19  1  0  0  0  0
 18 17  1  0  0  0  0
 19 12  2  0  0  0  0
 20 19  1  0  0  0  0
 21 23  1  0  0  0  0
 23 22  2  1  0  0  0
 23 26  1  0  0  0  0
 24 23  1  0  0  0  0
 25 24  1  0  0  0  0
 26 29  1  0  0  0  0
 27 33  1  0  0  0  0
 28 27  2  0  0  0  0
 29 30  2  0  0  0  0
 29 28  1  0  0  0  0
 30 31  1  0  0  0  0
 31 35  1  0  0  0  0
 31 32  2  0  0  0  0
 32 27  1  0  0  0  0
 34 28  1  0  0  0  0
M  END
>  <minimizedAffinity>
-4.88852024

>  <minimizedRMSD>
0.104386561

$$$$
