
 OpenBabel03272500563D

 36 38  0  0  0  0  0  0  0  0999 V2000
   38.0930   31.9280   47.4460 C   0  0  0  0  0  0  0  0  0  0  0  0
   38.5360   32.8750   48.3260 C   0  0  0  0  0  0  0  0  0  0  0  0
   38.0390   32.9790   49.6290 C   0  0  0  0  0  0  0  0  0  0  0  0
   37.0180   32.0300   50.0260 C   0  0  0  0  0  0  0  0  0  0  0  0
   36.6230   31.1170   49.1070 C   0  0  0  0  0  0  0  0  0  0  0  0
   37.1070   31.0280   47.8540 C   0  0  0  0  0  0  0  0  0  0  0  0
   39.3130   33.6070   48.0480 H   0  0  0  0  0  0  0  0  0  0  0  0
   38.4400   33.7610   50.2750 H   0  0  0  0  0  0  0  0  0  0  0  0
   36.7400   32.2300   51.0340 H   0  0  0  0  0  0  0  0  0  0  0  0
   35.8930   30.5120   49.6230 H   0  0  0  0  0  0  0  0  0  0  0  0
   39.9820   31.2960   46.0260 C   0  0  0  0  0  0  0  0  0  0  0  0
   38.7240   31.9330   46.1420 C   0  0  0  0  0  0  0  0  0  0  0  0
   38.2480   32.4770   44.9760 C   0  0  0  0  0  0  0  0  0  0  0  0
   38.9550   32.3890   43.8360 N   0  0  0  0  0  0  0  0  0  0  0  0
   40.1220   31.7940   43.7470 C   0  0  0  0  0  0  0  0  0  0  0  0
   40.6270   31.2510   44.8430 N   0  0  0  0  0  0  0  0  0  0  0  0
   40.4410   30.8380   46.8830 H   0  0  0  0  0  0  0  0  0  0  0  0
   37.2850   32.9650   45.0650 H   0  0  0  0  0  0  0  0  0  0  0  0
   40.5930   31.7870   42.7800 H   0  0  0  0  0  0  0  0  0  0  0  0
   35.1930   29.9560   47.0010 C   0  0  0  0  0  0  0  0  0  0  0  0
   34.5300   30.6660   47.8600 O   0  0  0  0  0  0  0  0  0  0  0  0
   36.6360   30.0910   46.9680 N   0  0  0  0  0  0  0  0  0  0  0  0
   37.2300   29.5370   46.3460 H   0  0  0  0  0  0  0  0  0  0  0  0
   34.5080   29.1130   46.1700 O   0  0  0  0  0  0  0  0  0  0  0  0
   33.2290   29.3490   45.6780 C   0  0  0  0  0  0  0  0  0  0  0  0
   33.0250   29.9510   44.5260 O   0  0  0  0  0  0  0  0  0  0  0  0
   30.7280   30.8320   45.0720 Cl  0  0  0  0  0  0  0  0  0  0  0  0
   30.7850   29.5070   46.2380 C   0  0  0  0  0  0  0  0  0  0  0  0
   32.0200   28.9130   46.4130 C   0  0  0  0  0  0  0  0  0  0  0  0
   32.0770   27.8850   47.3150 C   0  0  0  0  0  0  0  0  0  0  0  0
   33.0150   27.3820   47.4950 H   0  0  0  0  0  0  0  0  0  0  0  0
   30.9840   27.4380   48.0270 C   0  0  0  0  0  3  0  0  0  0  0  0
   29.7620   28.0470   47.8350 C   0  0  0  0  0  0  0  0  0  0  0  0
   28.3130   27.5570   48.6890 Cl  0  0  0  0  0  0  0  0  0  0  0  0
   29.6680   29.0880   46.9330 C   0  0  0  0  0  0  0  0  0  0  0  0
   28.7320   29.6030   46.7410 H   0  0  0  0  0  0  0  0  0  0  0  0
  1  6  2  0  0  0  0
  1  2  1  0  0  0  0
  2  3  2  0  0  0  0
  3  4  1  0  0  0  0
  3  8  1  0  0  0  0
  4  9  1  0  0  0  0
  5 10  1  0  0  0  0
  5  4  2  0  0  0  0
  6  5  1  0  0  0  0
  7  2  1  0  0  0  0
 11 12  1  0  0  0  0
 11 17  1  0  0  0  0
 12  1  1  0  0  0  0
 13 18  1  0  0  0  0
 13 12  2  0  0  0  0
 14 13  1  0  0  0  0
 15 14  2  0  0  0  0
 15 16  1  0  0  0  0
 16 11  2  0  0  0  0
 19 15  1  0  0  0  0
 20 21  2  0  0  0  0
 22 20  1  0  0  0  0
 22  6  1  0  0  0  0
 23 22  1  0  0  0  0
 24 20  1  0  0  0  0
 25 24  1  0  0  0  0
 25 29  1  0  0  0  0
 26 25  2  0  0  0  0
 27 28  1  0  0  0  0
 28 29  2  0  0  0  0
 28 35  1  0  0  0  0
 29 30  1  0  0  0  0
 30 31  1  0  0  0  0
 30 32  2  0  0  0  0
 33 32  1  0  0  0  0
 33 34  1  0  0  0  0
 35 33  2  0  0  0  0
 36 35  1  0  0  0  0
M  END
>  <minimizedAffinity>
-6.02558422

>  <minimizedRMSD>
1.38528299

$$$$
