
 OpenBabel03272500563D

 36 38  0  0  0  0  0  0  0  0999 V2000
   38.0810   31.9400   47.4570 C   0  0  0  0  0  0  0  0  0  0  0  0
   38.4690   32.9370   48.3070 C   0  0  0  0  0  0  0  0  0  0  0  0
   37.9600   33.0580   49.6050 C   0  0  0  0  0  0  0  0  0  0  0  0
   36.9870   32.0700   50.0280 C   0  0  0  0  0  0  0  0  0  0  0  0
   36.6450   31.1090   49.1390 C   0  0  0  0  0  0  0  0  0  0  0  0
   37.1400   31.0040   47.8910 C   0  0  0  0  0  0  0  0  0  0  0  0
   39.2080   33.6990   48.0080 H   0  0  0  0  0  0  0  0  0  0  0  0
   38.3160   33.8800   50.2270 H   0  0  0  0  0  0  0  0  0  0  0  0
   36.6930   32.2890   51.0280 H   0  0  0  0  0  0  0  0  0  0  0  0
   35.9450   30.4840   49.6710 H   0  0  0  0  0  0  0  0  0  0  0  0
   39.9830   31.3110   46.0550 C   0  0  0  0  0  0  0  0  0  0  0  0
   38.7170   31.9350   46.1570 C   0  0  0  0  0  0  0  0  0  0  0  0
   38.2410   32.4590   44.9810 C   0  0  0  0  0  0  0  0  0  0  0  0
   38.9550   32.3640   43.8460 N   0  0  0  0  0  0  0  0  0  0  0  0
   40.1290   31.7810   43.7700 C   0  0  0  0  0  0  0  0  0  0  0  0
   40.6340   31.2580   44.8760 N   0  0  0  0  0  0  0  0  0  0  0  0
   40.4430   30.8690   46.9200 H   0  0  0  0  0  0  0  0  0  0  0  0
   37.2720   32.9380   45.0590 H   0  0  0  0  0  0  0  0  0  0  0  0
   40.6050   31.7670   42.8060 H   0  0  0  0  0  0  0  0  0  0  0  0
   35.2800   29.8750   46.9920 C   0  0  0  0  0  0  0  0  0  0  0  0
   34.5680   30.6290   47.7690 O   0  0  0  0  0  0  0  0  0  0  0  0
   36.7230   30.0160   47.0340 N   0  0  0  0  0  0  0  0  0  0  0  0
   37.3530   29.4310   46.4800 H   0  0  0  0  0  0  0  0  0  0  0  0
   34.6460   28.9820   46.1720 O   0  0  0  0  0  0  0  0  0  0  0  0
   33.6520   29.3110   45.2580 C   0  0  0  0  0  0  0  0  0  0  0  0
   33.9270   29.8710   44.0990 O   0  0  0  0  0  0  0  0  0  0  0  0
   31.9070   31.6790   45.6730 Cl  0  0  0  0  0  0  0  0  0  0  0  0
   31.2920   30.0240   45.7410 C   0  0  0  0  0  0  0  0  0  0  0  0
   32.2230   29.0270   45.5270 C   0  0  0  0  0  0  0  0  0  0  0  0
   31.7590   27.7410   45.5760 C   0  0  0  0  0  0  0  0  0  0  0  0
   32.4400   26.9180   45.4170 H   0  0  0  0  0  0  0  0  0  0  0  0
   30.4410   27.4190   45.8230 C   0  0  0  0  0  3  0  0  0  0  0  0
   29.5290   28.4330   46.0330 C   0  0  0  0  0  0  0  0  0  0  0  0
   27.8340   28.1320   46.3530 Cl  0  0  0  0  0  0  0  0  0  0  0  0
   29.9650   29.7420   45.9900 C   0  0  0  0  0  0  0  0  0  0  0  0
   29.2900   30.5790   46.1480 H   0  0  0  0  0  0  0  0  0  0  0  0
  1  6  2  0  0  0  0
  1  2  1  0  0  0  0
  2  3  2  0  0  0  0
  3  4  1  0  0  0  0
  3  8  1  0  0  0  0
  4  9  1  0  0  0  0
  5 10  1  0  0  0  0
  5  4  2  0  0  0  0
  6  5  1  0  0  0  0
  7  2  1  0  0  0  0
 11 12  1  0  0  0  0
 11 17  1  0  0  0  0
 12  1  1  0  0  0  0
 13 18  1  0  0  0  0
 13 12  2  0  0  0  0
 14 13  1  0  0  0  0
 15 14  2  0  0  0  0
 15 16  1  0  0  0  0
 16 11  2  0  0  0  0
 19 15  1  0  0  0  0
 20 22  1  0  0  0  0
 20 21  2  0  0  0  0
 22  6  1  0  0  0  0
 23 22  1  0  0  0  0
 24 20  1  0  0  0  0
 25 29  1  0  0  0  0
 25 24  1  0  0  0  0
 26 25  2  0  0  0  0
 27 28  1  0  0  0  0
 28 35  1  0  0  0  0
 29 30  1  0  0  0  0
 29 28  2  0  0  0  0
 30 32  2  0  0  0  0
 31 30  1  0  0  0  0
 32 33  1  0  0  0  0
 33 34  1  0  0  0  0
 35 33  2  0  0  0  0
 35 36  1  0  0  0  0
M  END
>  <minimizedAffinity>
-5.5301981

>  <minimizedRMSD>
0.887332678

$$$$
