
 OpenBabel03272500573D

 36 38  0  0  0  0  0  0  0  0999 V2000
   38.0840   31.9590   47.4800 C   0  0  0  0  0  0  0  0  0  0  0  0
   38.5120   32.9430   48.3270 C   0  0  0  0  0  0  0  0  0  0  0  0
   38.0210   33.0760   49.6300 C   0  0  0  0  0  0  0  0  0  0  0  0
   37.0250   32.1170   50.0640 C   0  0  0  0  0  0  0  0  0  0  0  0
   36.6450   31.1670   49.1780 C   0  0  0  0  0  0  0  0  0  0  0  0
   37.1210   31.0500   47.9230 C   0  0  0  0  0  0  0  0  0  0  0  0
   39.2690   33.6840   48.0200 H   0  0  0  0  0  0  0  0  0  0  0  0
   38.4090   33.8870   50.2490 H   0  0  0  0  0  0  0  0  0  0  0  0
   36.7500   32.3420   51.0680 H   0  0  0  0  0  0  0  0  0  0  0  0
   35.9330   30.5620   49.7180 H   0  0  0  0  0  0  0  0  0  0  0  0
   39.9660   31.3050   46.0610 C   0  0  0  0  0  0  0  0  0  0  0  0
   38.7050   31.9380   46.1720 C   0  0  0  0  0  0  0  0  0  0  0  0
   38.2170   32.4530   44.9970 C   0  0  0  0  0  0  0  0  0  0  0  0
   38.9160   32.3430   43.8550 N   0  0  0  0  0  0  0  0  0  0  0  0
   40.0860   31.7520   43.7700 C   0  0  0  0  0  0  0  0  0  0  0  0
   40.6020   31.2370   44.8750 N   0  0  0  0  0  0  0  0  0  0  0  0
   40.4340   30.8700   46.9250 H   0  0  0  0  0  0  0  0  0  0  0  0
   37.2520   32.9380   45.0820 H   0  0  0  0  0  0  0  0  0  0  0  0
   40.5500   31.7260   42.8000 H   0  0  0  0  0  0  0  0  0  0  0  0
   35.2240   29.9270   47.1010 C   0  0  0  0  0  0  0  0  0  0  0  0
   34.5490   30.6610   47.9280 O   0  0  0  0  0  0  0  0  0  0  0  0
   36.6660   30.0760   47.0710 N   0  0  0  0  0  0  0  0  0  0  0  0
   37.2690   29.5050   46.4730 H   0  0  0  0  0  0  0  0  0  0  0  0
   34.5530   29.0460   46.2980 O   0  0  0  0  0  0  0  0  0  0  0  0
   33.2910   29.2660   45.7580 C   0  0  0  0  0  0  0  0  0  0  0  0
   33.1220   29.8590   44.5960 O   0  0  0  0  0  0  0  0  0  0  0  0
   33.5780   26.9130   47.5490 Cl  0  0  0  0  0  0  0  0  0  0  0  0
   32.0360   27.7440   47.3160 C   0  0  0  0  0  0  0  0  0  0  0  0
   32.0600   28.8220   46.4520 C   0  0  0  0  0  0  0  0  0  0  0  0
   30.8720   29.4760   46.2630 C   0  0  0  0  0  0  0  0  0  0  0  0
   30.8260   30.3250   45.6000 H   0  0  0  0  0  0  0  0  0  0  0  0
   29.6970   29.1070   46.8830 C   0  0  0  0  0  3  0  0  0  0  0  0
   29.6990   28.0270   47.7410 C   0  0  0  0  0  0  0  0  0  0  0  0
   28.2620   27.4760   48.5790 Cl  0  0  0  0  0  0  0  0  0  0  0  0
   30.8810   27.3450   47.9550 C   0  0  0  0  0  0  0  0  0  0  0  0
   30.9410   26.4890   48.6190 H   0  0  0  0  0  0  0  0  0  0  0  0
  1  6  2  0  0  0  0
  1  2  1  0  0  0  0
  2  3  2  0  0  0  0
  3  4  1  0  0  0  0
  3  8  1  0  0  0  0
  4  9  1  0  0  0  0
  5 10  1  0  0  0  0
  5  4  2  0  0  0  0
  6  5  1  0  0  0  0
  7  2  1  0  0  0  0
 11 12  1  0  0  0  0
 11 17  1  0  0  0  0
 12  1  1  0  0  0  0
 13 18  1  0  0  0  0
 13 12  2  0  0  0  0
 14 13  1  0  0  0  0
 15 14  2  0  0  0  0
 15 16  1  0  0  0  0
 16 11  2  0  0  0  0
 19 15  1  0  0  0  0
 20 21  2  0  0  0  0
 22 20  1  0  0  0  0
 22  6  1  0  0  0  0
 23 22  1  0  0  0  0
 24 20  1  0  0  0  0
 25 24  1  0  0  0  0
 25 29  1  0  0  0  0
 26 25  2  0  0  0  0
 28 27  1  0  0  0  0
 28 35  1  0  0  0  0
 29 28  2  0  0  0  0
 30 29  1  0  0  0  0
 30 32  2  0  0  0  0
 31 30  1  0  0  0  0
 32 33  1  0  0  0  0
 33 35  2  0  0  0  0
 33 34  1  0  0  0  0
 35 36  1  0  0  0  0
M  END
>  <minimizedAffinity>
-6.06778955

>  <minimizedRMSD>
1.3777076

$$$$
