
 OpenBabel03272500563D

 36 38  0  0  0  0  0  0  0  0999 V2000
   38.2310   31.9260   47.3170 C   0  0  0  0  0  0  0  0  0  0  0  0
   38.8670   32.7570   48.1950 C   0  0  0  0  0  0  0  0  0  0  0  0
   38.4970   32.8490   49.5410 C   0  0  0  0  0  0  0  0  0  0  0  0
   37.3970   32.0170   49.9840 C   0  0  0  0  0  0  0  0  0  0  0  0
   36.8100   31.2150   49.0650 C   0  0  0  0  0  0  0  0  0  0  0  0
   37.1720   31.1360   47.7700 C   0  0  0  0  0  0  0  0  0  0  0  0
   39.7060   33.3990   47.8820 H   0  0  0  0  0  0  0  0  0  0  0  0
   39.0500   33.5360   50.1840 H   0  0  0  0  0  0  0  0  0  0  0  0
   37.2330   32.1930   51.0220 H   0  0  0  0  0  0  0  0  0  0  0  0
   36.0530   30.6800   49.6160 H   0  0  0  0  0  0  0  0  0  0  0  0
   39.9550   31.2290   45.7280 C   0  0  0  0  0  0  0  0  0  0  0  0
   38.7450   31.9240   45.9630 C   0  0  0  0  0  0  0  0  0  0  0  0
   38.1980   32.5130   44.8510 C   0  0  0  0  0  0  0  0  0  0  0  0
   38.7980   32.4120   43.6520 N   0  0  0  0  0  0  0  0  0  0  0  0
   39.9220   31.7630   43.4530 C   0  0  0  0  0  0  0  0  0  0  0  0
   40.4920   31.1750   44.4930 N   0  0  0  0  0  0  0  0  0  0  0  0
   40.4640   30.7340   46.5350 H   0  0  0  0  0  0  0  0  0  0  0  0
   37.2720   33.0450   45.0300 H   0  0  0  0  0  0  0  0  0  0  0  0
   40.3070   31.7510   42.4480 H   0  0  0  0  0  0  0  0  0  0  0  0
   35.1280   30.0870   47.2610 C   0  0  0  0  0  0  0  0  0  0  0  0
   34.6930   30.6120   48.3630 O   0  0  0  0  0  0  0  0  0  0  0  0
   36.5100   30.3190   46.8880 N   0  0  0  0  0  0  0  0  0  0  0  0
   36.9350   29.9070   46.0540 H   0  0  0  0  0  0  0  0  0  0  0  0
   34.2700   29.3400   46.5000 O   0  0  0  0  0  0  0  0  0  0  0  0
   32.9210   29.6210   46.3160 C   0  0  0  0  0  0  0  0  0  0  0  0
   32.4800   30.8500   46.1570 O   0  0  0  0  0  0  0  0  0  0  0  0
   32.5600   28.0430   48.8070 Cl  0  0  0  0  0  0  0  0  0  0  0  0
   31.6230   27.7310   47.3420 C   0  0  0  0  0  0  0  0  0  0  0  0
   31.9030   28.5470   46.2640 C   0  0  0  0  0  0  0  0  0  0  0  0
   31.1830   28.3150   45.1230 C   0  0  0  0  0  0  0  0  0  0  0  0
   31.3570   28.9200   44.2470 H   0  0  0  0  0  0  0  0  0  0  0  0
   30.2240   27.3290   45.0180 C   0  0  0  0  0  3  0  0  0  0  0  0
   29.9620   26.5270   46.1100 C   0  0  0  0  0  0  0  0  0  0  0  0
   28.7650   25.2490   46.0820 Cl  0  0  0  0  0  0  0  0  0  0  0  0
   30.6710   26.7350   47.2760 C   0  0  0  0  0  0  0  0  0  0  0  0
   30.5060   26.1330   48.1650 H   0  0  0  0  0  0  0  0  0  0  0  0
  1  6  2  0  0  0  0
  1  2  1  0  0  0  0
  2  3  2  0  0  0  0
  3  4  1  0  0  0  0
  3  8  1  0  0  0  0
  4  9  1  0  0  0  0
  5 10  1  0  0  0  0
  5  4  2  0  0  0  0
  6  5  1  0  0  0  0
  7  2  1  0  0  0  0
 11 12  1  0  0  0  0
 11 17  1  0  0  0  0
 12  1  1  0  0  0  0
 13 18  1  0  0  0  0
 13 12  2  0  0  0  0
 14 13  1  0  0  0  0
 15 14  2  0  0  0  0
 15 16  1  0  0  0  0
 16 11  2  0  0  0  0
 19 15  1  0  0  0  0
 20 21  2  0  0  0  0
 22 20  1  0  0  0  0
 22  6  1  0  0  0  0
 23 22  1  0  0  0  0
 24 20  1  0  0  0  0
 25 24  1  0  0  0  0
 26 25  2  0  0  0  0
 28 27  1  0  0  0  0
 29 25  1  0  0  0  0
 29 28  2  0  0  0  0
 30 29  1  0  0  0  0
 31 30  1  0  0  0  0
 32 30  2  0  0  0  0
 32 33  1  0  0  0  0
 33 35  2  0  0  0  0
 34 33  1  0  0  0  0
 35 28  1  0  0  0  0
 35 36  1  0  0  0  0
M  END
>  <minimizedAffinity>
-6.11088943

>  <minimizedRMSD>
0.920454264

$$$$
