
 OpenBabel03272508563D

 41 44  0  0  1  0  0  0  0  0999 V2000
   39.1360   31.4890   43.3280 C   0  0  0  0  0  0  0  0  0  0  0  0
   40.1270   30.5590   43.4730 C   0  0  0  0  0  0  0  0  0  0  0  0
   40.8490   30.2000   42.3540 C   0  0  0  0  0  0  0  0  0  0  0  0
   40.5210   30.8050   41.1530 C   0  0  0  0  0  0  0  0  0  0  0  0
   39.5190   31.7440   41.0030 C   0  0  0  0  0  0  0  0  0  0  0  0
   38.8570   32.0480   42.1300 N   0  0  0  0  0  0  0  0  0  0  0  0
   40.3620   30.1030   44.4290 H   0  0  0  0  0  0  0  0  0  0  0  0
   41.6380   29.4690   42.4440 H   0  0  0  0  0  0  0  0  0  0  0  0
   41.1200   30.4830   40.3150 H   0  0  0  0  0  0  0  0  0  0  0  0
   38.3550   31.8850   44.5190 C   0  0  0  0  0  0  0  0  0  0  0  0
   37.2190   32.4030   44.4100 O   0  0  0  0  0  0  0  0  0  0  0  0
   38.9540   31.6530   45.8250 N   0  0  0  0  0  0  0  0  0  0  0  0
   39.9370   31.4130   45.9630 H   0  0  0  0  0  0  0  0  0  0  0  0
   38.4450   31.1210   48.1910 C   0  0  2  0  0  0  0  0  0  0  0  0
   38.6960   32.5840   48.1280 C   0  0  0  0  0  0  0  0  0  0  0  0
   38.0860   31.7730   46.9740 C   0  0  1  0  0  0  0  0  0  0  0  0
   39.3530   30.4900   48.2640 H   0  0  0  0  0  0  0  0  0  0  0  0
   39.7340   32.9140   48.0290 H   0  0  0  0  0  0  0  0  0  0  0  0
   38.0590   33.2950   48.6810 H   0  0  0  0  0  0  0  0  0  0  0  0
   37.0290   32.0610   46.7830 H   0  0  0  0  0  0  0  0  0  0  0  0
   35.0750   30.2440   49.5000 C   0  0  0  0  0  0  0  0  0  0  0  0
   35.4110   29.5600   50.7180 C   0  0  0  0  0  0  0  0  0  0  0  0
   36.8080   29.4260   51.0660 C   0  0  0  0  0  0  0  0  0  0  0  0
   37.7530   29.9510   50.2270 N   0  0  0  0  0  0  0  0  0  0  0  0
   37.3590   30.5820   49.0950 C   0  0  0  0  0  0  0  0  0  0  0  0
   36.0370   30.7480   48.6990 N   0  0  0  0  0  0  0  0  0  0  0  0
   34.0220   30.3220   49.2780 H   0  0  0  0  0  0  0  0  0  0  0  0
   34.6400   29.1700   51.3360 H   0  0  0  0  0  0  0  0  0  0  0  0
   37.0480   28.9180   51.9710 H   0  0  0  0  0  0  0  0  0  0  0  0
   39.2210   32.3400   39.7050 C   0  0  0  0  0  0  0  0  0  0  0  0
   38.6790   33.4700   39.6640 O   0  0  0  0  0  0  0  0  0  0  0  0
   37.4060   30.1140   38.6720 Cl  0  0  0  0  0  0  0  0  0  0  0  0
   38.8140   30.6810   37.8170 C   0  0  0  0  0  0  0  0  0  0  0  0
   39.5180   31.6950   38.4330 C   0  0  0  0  0  0  0  0  0  0  0  0
   40.6550   32.1680   37.7660 C   0  0  0  0  0  0  0  0  0  0  0  0
   41.2590   32.9770   38.2060 H   0  0  0  0  0  0  0  0  0  0  0  0
   41.1150   31.6910   36.5420 C   0  0  0  0  0  3  0  0  0  0  0  0
   40.3610   30.6790   35.9880 C   0  0  0  0  0  0  0  0  0  0  0  0
   40.9160   30.0580   34.4450 Cl  0  0  0  0  0  0  0  0  0  0  0  0
   39.2320   30.1760   36.6030 C   0  0  0  0  0  0  0  0  0  0  0  0
   38.6540   29.3770   36.1450 H   0  0  0  0  0  0  0  0  0  0  0  0
  1  2  1  0  0  0  0
  1 10  1  0  0  0  0
  2  7  1  0  0  0  0
  3  8  1  0  0  0  0
  3  2  2  0  0  0  0
  4  3  1  0  0  0  0
  5  4  2  0  0  0  0
  5  6  1  0  0  0  0
  6  1  2  0  0  0  0
  9  4  1  0  0  0  0
 10 12  1  0  0  0  0
 11 10  2  0  0  0  0
 12 13  1  0  0  0  0
 12 16  1  0  0  0  0
 14 17  1  6  0  0  0
 14 25  1  0  0  0  0
 15 14  1  0  0  0  0
 15 19  1  0  0  0  0
 16 20  1  6  0  0  0
 16 15  1  0  0  0  0
 16 14  1  0  0  0  0
 18 15  1  0  0  0  0
 21 22  1  0  0  0  0
 22 23  2  0  0  0  0
 22 28  1  0  0  0  0
 23 29  1  0  0  0  0
 24 23  1  0  0  0  0
 25 24  2  0  0  0  0
 26 25  1  0  0  0  0
 26 21  2  0  0  0  0
 27 21  1  0  0  0  0
 30  5  1  0  0  0  0
 31 30  2  0  0  0  0
 33 34  1  0  0  0  0
 33 32  1  0  0  0  0
 34 30  1  0  0  0  0
 35 36  1  0  0  0  0
 35 34  2  0  0  0  0
 37 35  1  0  0  0  0
 38 37  2  0  0  0  0
 38 40  1  0  0  0  0
 39 38  1  0  0  0  0
 40 33  2  0  0  0  0
 41 40  1  0  0  0  0
M  END
>  <minimizedAffinity>
-4.97769451

>  <minimizedRMSD>
0.289502531

$$$$
