
 OpenBabel03272508563D

 41 44  0  0  1  0  0  0  0  0999 V2000
   39.2190   31.3820   43.4060 C   0  0  0  0  0  0  0  0  0  0  0  0
   40.2180   30.4670   43.5890 C   0  0  0  0  0  0  0  0  0  0  0  0
   40.9460   30.0730   42.4850 C   0  0  0  0  0  0  0  0  0  0  0  0
   40.6160   30.6290   41.2620 C   0  0  0  0  0  0  0  0  0  0  0  0
   39.6060   31.5530   41.0750 C   0  0  0  0  0  0  0  0  0  0  0  0
   38.9390   31.8940   42.1880 N   0  0  0  0  0  0  0  0  0  0  0  0
   40.4540   30.0490   44.5610 H   0  0  0  0  0  0  0  0  0  0  0  0
   41.7400   29.3520   42.6050 H   0  0  0  0  0  0  0  0  0  0  0  0
   41.2200   30.2820   40.4380 H   0  0  0  0  0  0  0  0  0  0  0  0
   38.4330   31.8160   44.5810 C   0  0  0  0  0  0  0  0  0  0  0  0
   37.3680   32.4650   44.4470 O   0  0  0  0  0  0  0  0  0  0  0  0
   38.9380   31.4630   45.8990 N   0  0  0  0  0  0  0  0  0  0  0  0
   39.8800   31.1080   46.0680 H   0  0  0  0  0  0  0  0  0  0  0  0
   38.2850   30.9290   48.2270 C   0  0  2  0  0  0  0  0  0  0  0  0
   38.6640   32.3650   48.2110 C   0  0  0  0  0  0  0  0  0  0  0  0
   38.0360   31.6350   47.0140 C   0  0  1  0  0  0  0  0  0  0  0  0
   39.1300   30.2190   48.3220 H   0  0  0  0  0  0  0  0  0  0  0  0
   39.7300   32.6050   48.1640 H   0  0  0  0  0  0  0  0  0  0  0  0
   38.0690   33.1170   48.7550 H   0  0  0  0  0  0  0  0  0  0  0  0
   37.0170   32.0180   46.7870 H   0  0  0  0  0  0  0  0  0  0  0  0
   34.8050   30.1610   49.2960 C   0  0  0  0  0  0  0  0  0  0  0  0
   35.0250   29.5870   50.5950 C   0  0  0  0  0  0  0  0  0  0  0  0
   36.3840   29.4880   51.0800 C   0  0  0  0  0  0  0  0  0  0  0  0
   37.4050   29.9400   50.2880 N   0  0  0  0  0  0  0  0  0  0  0  0
   37.1180   30.4680   49.0730 C   0  0  0  0  0  0  0  0  0  0  0  0
   35.8380   30.5950   48.5460 N   0  0  0  0  0  0  0  0  0  0  0  0
   33.7770   30.2160   48.9740 H   0  0  0  0  0  0  0  0  0  0  0  0
   34.1990   29.2510   51.1730 H   0  0  0  0  0  0  0  0  0  0  0  0
   36.5390   29.0620   52.0440 H   0  0  0  0  0  0  0  0  0  0  0  0
   39.3070   32.0990   39.7550 C   0  0  0  0  0  0  0  0  0  0  0  0
   38.6590   33.1680   39.6700 O   0  0  0  0  0  0  0  0  0  0  0  0
   37.7470   29.7070   38.6770 Cl  0  0  0  0  0  0  0  0  0  0  0  0
   39.1390   30.3860   37.8770 C   0  0  0  0  0  0  0  0  0  0  0  0
   39.7200   31.4670   38.5080 C   0  0  0  0  0  0  0  0  0  0  0  0
   40.8390   32.0320   37.8860 C   0  0  0  0  0  0  0  0  0  0  0  0
   41.3490   32.8960   38.3400 H   0  0  0  0  0  0  0  0  0  0  0  0
   41.3970   31.5830   36.6920 C   0  0  0  0  0  3  0  0  0  0  0  0
   40.7630   30.5000   36.1210 C   0  0  0  0  0  0  0  0  0  0  0  0
   41.4440   29.9110   34.6160 Cl  0  0  0  0  0  0  0  0  0  0  0  0
   39.6570   29.9060   36.6930 C   0  0  0  0  0  0  0  0  0  0  0  0
   39.1740   29.0510   36.2220 H   0  0  0  0  0  0  0  0  0  0  0  0
  1  2  1  0  0  0  0
  1 10  1  0  0  0  0
  2  7  1  0  0  0  0
  3  8  1  0  0  0  0
  3  2  2  0  0  0  0
  4  3  1  0  0  0  0
  5  4  2  0  0  0  0
  5  6  1  0  0  0  0
  6  1  2  0  0  0  0
  9  4  1  0  0  0  0
 10 12  1  0  0  0  0
 11 10  2  0  0  0  0
 12 13  1  0  0  0  0
 12 16  1  0  0  0  0
 14 17  1  6  0  0  0
 14 25  1  0  0  0  0
 15 14  1  0  0  0  0
 15 19  1  0  0  0  0
 16 20  1  6  0  0  0
 16 15  1  0  0  0  0
 16 14  1  0  0  0  0
 18 15  1  0  0  0  0
 21 22  1  0  0  0  0
 22 23  2  0  0  0  0
 22 28  1  0  0  0  0
 23 29  1  0  0  0  0
 24 23  1  0  0  0  0
 25 24  2  0  0  0  0
 26 25  1  0  0  0  0
 26 21  2  0  0  0  0
 27 21  1  0  0  0  0
 30  5  1  0  0  0  0
 31 30  2  0  0  0  0
 33 34  1  0  0  0  0
 33 32  1  0  0  0  0
 34 30  1  0  0  0  0
 35 36  1  0  0  0  0
 35 34  2  0  0  0  0
 37 35  1  0  0  0  0
 38 37  2  0  0  0  0
 38 40  1  0  0  0  0
 39 38  1  0  0  0  0
 40 33  2  0  0  0  0
 41 40  1  0  0  0  0
M  END
>  <minimizedAffinity>
-4.98471022

>  <minimizedRMSD>
0.950722516

$$$$
