
 OpenBabel03272508563D

 41 44  0  0  1  0  0  0  0  0999 V2000
   39.1170   31.4910   43.3500 C   0  0  0  0  0  0  0  0  0  0  0  0
   40.1130   30.5660   43.4980 C   0  0  0  0  0  0  0  0  0  0  0  0
   40.8410   30.2120   42.3800 C   0  0  0  0  0  0  0  0  0  0  0  0
   40.5140   30.8180   41.1790 C   0  0  0  0  0  0  0  0  0  0  0  0
   39.5070   31.7510   41.0270 C   0  0  0  0  0  0  0  0  0  0  0  0
   38.8400   32.0500   42.1530 N   0  0  0  0  0  0  0  0  0  0  0  0
   40.3470   30.1090   44.4530 H   0  0  0  0  0  0  0  0  0  0  0  0
   41.6330   29.4840   42.4720 H   0  0  0  0  0  0  0  0  0  0  0  0
   41.1180   30.5000   40.3430 H   0  0  0  0  0  0  0  0  0  0  0  0
   38.3310   31.8810   44.5400 C   0  0  0  0  0  0  0  0  0  0  0  0
   37.1680   32.3370   44.4290 O   0  0  0  0  0  0  0  0  0  0  0  0
   38.9540   31.7160   45.8440 N   0  0  0  0  0  0  0  0  0  0  0  0
   39.9490   31.5310   45.9770 H   0  0  0  0  0  0  0  0  0  0  0  0
   38.4540   31.1520   48.2030 C   0  0  2  0  0  0  0  0  0  0  0  0
   38.7170   32.6130   48.1630 C   0  0  0  0  0  0  0  0  0  0  0  0
   38.0930   31.8260   47.0000 C   0  0  1  0  0  0  0  0  0  0  0  0
   39.3570   30.5120   48.2620 H   0  0  0  0  0  0  0  0  0  0  0  0
   39.7570   32.9360   48.0640 H   0  0  0  0  0  0  0  0  0  0  0  0
   38.0890   33.3200   48.7310 H   0  0  0  0  0  0  0  0  0  0  0  0
   37.0380   32.1250   46.8190 H   0  0  0  0  0  0  0  0  0  0  0  0
   35.0850   30.2520   49.5010 C   0  0  0  0  0  0  0  0  0  0  0  0
   35.4210   29.5760   50.7230 C   0  0  0  0  0  0  0  0  0  0  0  0
   36.8170   29.4540   51.0780 C   0  0  0  0  0  0  0  0  0  0  0  0
   37.7620   29.9840   50.2420 N   0  0  0  0  0  0  0  0  0  0  0  0
   37.3680   30.6070   49.1050 C   0  0  0  0  0  0  0  0  0  0  0  0
   36.0460   30.7610   48.7030 N   0  0  0  0  0  0  0  0  0  0  0  0
   34.0320   30.3210   49.2740 H   0  0  0  0  0  0  0  0  0  0  0  0
   34.6500   29.1820   51.3390 H   0  0  0  0  0  0  0  0  0  0  0  0
   37.0580   28.9520   51.9860 H   0  0  0  0  0  0  0  0  0  0  0  0
   39.2120   32.3490   39.7300 C   0  0  0  0  0  0  0  0  0  0  0  0
   38.6880   33.4860   39.6870 O   0  0  0  0  0  0  0  0  0  0  0  0
   37.3580   30.1450   38.7180 Cl  0  0  0  0  0  0  0  0  0  0  0  0
   38.7680   30.6890   37.8500 C   0  0  0  0  0  0  0  0  0  0  0  0
   39.4910   31.6950   38.4570 C   0  0  0  0  0  0  0  0  0  0  0  0
   40.6280   32.1500   37.7790 C   0  0  0  0  0  0  0  0  0  0  0  0
   41.2460   32.9520   38.2120 H   0  0  0  0  0  0  0  0  0  0  0  0
   41.0720   31.6630   36.5540 C   0  0  0  0  0  3  0  0  0  0  0  0
   40.2990   30.6600   36.0100 C   0  0  0  0  0  0  0  0  0  0  0  0
   40.8340   30.0250   34.4630 Cl  0  0  0  0  0  0  0  0  0  0  0  0
   39.1700   30.1740   36.6340 C   0  0  0  0  0  0  0  0  0  0  0  0
   38.5760   29.3810   36.1830 H   0  0  0  0  0  0  0  0  0  0  0  0
  1  2  1  0  0  0  0
  1 10  1  0  0  0  0
  2  7  1  0  0  0  0
  3  8  1  0  0  0  0
  3  2  2  0  0  0  0
  4  3  1  0  0  0  0
  5  4  2  0  0  0  0
  5  6  1  0  0  0  0
  6  1  2  0  0  0  0
  9  4  1  0  0  0  0
 10 12  1  0  0  0  0
 11 10  2  0  0  0  0
 12 13  1  0  0  0  0
 12 16  1  0  0  0  0
 14 17  1  6  0  0  0
 14 25  1  0  0  0  0
 15 14  1  0  0  0  0
 15 19  1  0  0  0  0
 16 20  1  6  0  0  0
 16 15  1  0  0  0  0
 16 14  1  0  0  0  0
 18 15  1  0  0  0  0
 21 22  1  0  0  0  0
 22 23  2  0  0  0  0
 22 28  1  0  0  0  0
 23 29  1  0  0  0  0
 24 23  1  0  0  0  0
 25 24  2  0  0  0  0
 26 25  1  0  0  0  0
 26 21  2  0  0  0  0
 27 21  1  0  0  0  0
 30  5  1  0  0  0  0
 31 30  2  0  0  0  0
 33 34  1  0  0  0  0
 33 32  1  0  0  0  0
 34 30  1  0  0  0  0
 35 36  1  0  0  0  0
 35 34  2  0  0  0  0
 37 35  1  0  0  0  0
 38 37  2  0  0  0  0
 38 40  1  0  0  0  0
 39 38  1  0  0  0  0
 40 33  2  0  0  0  0
 41 40  1  0  0  0  0
M  END
>  <minimizedAffinity>
-4.97697353

>  <minimizedRMSD>
0.904573917

$$$$
