
 OpenBabel03272508593D

 41 44  0  0  1  0  0  0  0  0999 V2000
   36.0970   28.7140   33.4430 C   0  0  0  0  0  0  0  0  0  0  0  0
   36.3190   29.0190   32.1290 C   0  0  0  0  0  0  0  0  0  0  0  0
   35.3750   29.7810   31.4710 C   0  0  0  0  0  0  0  0  0  0  0  0
   34.2610   30.1860   32.1850 C   0  0  0  0  0  0  0  0  0  0  0  0
   34.0330   29.8780   33.5120 C   0  0  0  0  0  0  0  0  0  0  0  0
   34.9900   29.1360   34.0920 N   0  0  0  0  0  0  0  0  0  0  0  0
   37.2040   28.6880   31.5960 H   0  0  0  0  0  0  0  0  0  0  0  0
   35.5300   30.0350   30.4330 H   0  0  0  0  0  0  0  0  0  0  0  0
   33.5600   30.7770   31.6170 H   0  0  0  0  0  0  0  0  0  0  0  0
   37.1010   27.9010   34.1610 C   0  0  0  0  0  0  0  0  0  0  0  0
   37.3080   28.0580   35.3870 O   0  0  0  0  0  0  0  0  0  0  0  0
   37.8420   26.9120   33.3930 N   0  0  0  0  0  0  0  0  0  0  0  0
   37.8470   26.8740   32.3730 H   0  0  0  0  0  0  0  0  0  0  0  0
   37.9510   24.7680   34.6290 C   0  0  2  0  0  0  0  0  0  0  0  0
   38.7830   24.5990   33.4110 C   0  0  0  0  0  0  0  0  0  0  0  0
   38.6040   25.9380   34.1420 C   0  0  1  0  0  0  0  0  0  0  0  0
   36.8640   24.6060   34.4840 H   0  0  0  0  0  0  0  0  0  0  0  0
   38.2630   24.4600   32.4590 H   0  0  0  0  0  0  0  0  0  0  0  0
   39.7600   24.0890   33.4550 H   0  0  0  0  0  0  0  0  0  0  0  0
   39.5530   26.2850   34.6050 H   0  0  0  0  0  0  0  0  0  0  0  0
   39.9780   22.8860   37.1180 C   0  0  0  0  0  0  0  0  0  0  0  0
   39.2200   23.0970   38.3210 C   0  0  0  0  0  0  0  0  0  0  0  0
   38.0100   23.8830   38.2400 C   0  0  0  0  0  0  0  0  0  0  0  0
   37.6320   24.3960   37.0290 N   0  0  0  0  0  0  0  0  0  0  0  0
   38.4000   24.1560   35.9380 C   0  0  0  0  0  0  0  0  0  0  0  0
   39.5730   23.4090   35.9430 N   0  0  0  0  0  0  0  0  0  0  0  0
   40.8740   22.2940   37.2230 H   0  0  0  0  0  0  0  0  0  0  0  0
   39.5550   22.6760   39.2380 H   0  0  0  0  0  0  0  0  0  0  0  0
   37.4540   24.0340   39.1360 H   0  0  0  0  0  0  0  0  0  0  0  0
   32.8340   30.3340   34.2060 C   0  0  0  0  0  0  0  0  0  0  0  0
   32.2810   31.3950   33.8330 O   0  0  0  0  0  0  0  0  0  0  0  0
   33.2640   31.3400   37.0550 Cl  0  0  0  0  0  0  0  0  0  0  0  0
   32.3140   29.9320   36.6660 C   0  0  0  0  0  0  0  0  0  0  0  0
   32.2280   29.6220   35.3240 C   0  0  0  0  0  0  0  0  0  0  0  0
   31.4690   28.4950   34.9850 C   0  0  0  0  0  0  0  0  0  0  0  0
   31.3620   28.1970   33.9310 H   0  0  0  0  0  0  0  0  0  0  0  0
   30.8080   27.6770   35.8980 C   0  0  0  0  0  3  0  0  0  0  0  0
   30.9410   28.0490   37.2180 C   0  0  0  0  0  0  0  0  0  0  0  0
   30.1180   27.0370   38.3910 Cl  0  0  0  0  0  0  0  0  0  0  0  0
   31.6760   29.1500   37.6060 C   0  0  0  0  0  0  0  0  0  0  0  0
   31.7640   29.4230   38.6570 H   0  0  0  0  0  0  0  0  0  0  0  0
  1  6  1  0  0  0  0
  1 10  1  0  0  0  0
  2  1  2  0  0  0  0
  3  2  1  0  0  0  0
  3  4  2  0  0  0  0
  4  5  1  0  0  0  0
  5  6  2  0  0  0  0
  5 30  1  0  0  0  0
  7  2  1  0  0  0  0
  8  3  1  0  0  0  0
  9  4  1  0  0  0  0
 10 11  2  0  0  0  0
 12 16  1  0  0  0  0
 12 10  1  0  0  0  0
 13 12  1  0  0  0  0
 14 17  1  6  0  0  0
 14 25  1  0  0  0  0
 15 19  1  0  0  0  0
 15 16  1  0  0  0  0
 15 14  1  0  0  0  0
 16 20  1  1  0  0  0
 16 14  1  0  0  0  0
 18 15  1  0  0  0  0
 21 27  1  0  0  0  0
 21 22  1  0  0  0  0
 22 28  1  0  0  0  0
 23 22  2  0  0  0  0
 23 29  1  0  0  0  0
 24 23  1  0  0  0  0
 25 26  1  0  0  0  0
 25 24  2  0  0  0  0
 26 21  2  0  0  0  0
 30 34  1  0  0  0  0
 31 30  2  0  0  0  0
 33 32  1  0  0  0  0
 33 40  1  0  0  0  0
 34 33  2  0  0  0  0
 35 34  1  0  0  0  0
 35 37  2  0  0  0  0
 36 35  1  0  0  0  0
 37 38  1  0  0  0  0
 38 40  2  0  0  0  0
 38 39  1  0  0  0  0
 40 41  1  0  0  0  0
M  END
>  <minimizedAffinity>
-5.96738482

$$$$

 OpenBabel03272508593D

 41 44  0  0  1  0  0  0  0  0999 V2000
   37.1150   27.4520   34.2630 C   0  0  0  0  0  0  0  0  0  0  0  0
   37.7630   27.6930   35.4420 C   0  0  0  0  0  0  0  0  0  0  0  0
   38.6780   26.7580   35.8820 C   0  0  0  0  0  0  0  0  0  0  0  0
   38.8800   25.6350   35.1000 C   0  0  0  0  0  0  0  0  0  0  0  0
   38.2250   25.3880   33.9090 C   0  0  0  0  0  0  0  0  0  0  0  0
   37.3500   26.3360   33.5390 N   0  0  0  0  0  0  0  0  0  0  0  0
   37.5840   28.5840   36.0330 H   0  0  0  0  0  0  0  0  0  0  0  0
   39.2030   26.9270   36.8100 H   0  0  0  0  0  0  0  0  0  0  0  0
   39.6060   24.9420   35.4960 H   0  0  0  0  0  0  0  0  0  0  0  0
   36.1330   28.4450   33.7790 C   0  0  0  0  0  0  0  0  0  0  0  0
   35.5880   28.3270   32.6560 O   0  0  0  0  0  0  0  0  0  0  0  0
   35.8220   29.5670   34.6510 N   0  0  0  0  0  0  0  0  0  0  0  0
   36.3680   29.8090   35.4790 H   0  0  0  0  0  0  0  0  0  0  0  0
   33.4520   30.1850   35.0230 C   0  0  2  0  0  0  0  0  0  0  0  0
   34.2640   31.3720   35.3930 C   0  0  0  0  0  0  0  0  0  0  0  0
   34.6700   30.3680   34.3040 C   0  0  1  0  0  0  0  0  0  0  0  0
   33.3560   29.4150   35.8140 H   0  0  0  0  0  0  0  0  0  0  0  0
   34.8000   31.3400   36.3460 H   0  0  0  0  0  0  0  0  0  0  0  0
   33.9530   32.3880   35.0980 H   0  0  0  0  0  0  0  0  0  0  0  0
   34.6610   30.8300   33.2930 H   0  0  0  0  0  0  0  0  0  0  0  0
   29.7980   30.1410   34.3240 C   0  0  0  0  0  0  0  0  0  0  0  0
   29.7490   30.7500   33.0240 C   0  0  0  0  0  0  0  0  0  0  0  0
   30.9930   31.1570   32.4090 C   0  0  0  0  0  0  0  0  0  0  0  0
   32.1650   30.9480   33.0850 N   0  0  0  0  0  0  0  0  0  0  0  0
   32.1310   30.3690   34.3090 C   0  0  0  0  0  0  0  0  0  0  0  0
   30.9740   29.9530   34.9580 N   0  0  0  0  0  0  0  0  0  0  0  0
   28.8480   29.8520   34.7460 H   0  0  0  0  0  0  0  0  0  0  0  0
   28.8130   30.8900   32.5400 H   0  0  0  0  0  0  0  0  0  0  0  0
   30.9480   31.6070   31.4450 H   0  0  0  0  0  0  0  0  0  0  0  0
   38.4820   24.1790   33.1340 C   0  0  0  0  0  0  0  0  0  0  0  0
   39.5850   24.0490   32.5550 O   0  0  0  0  0  0  0  0  0  0  0  0
   38.3490   21.9730   35.2400 Cl  0  0  0  0  0  0  0  0  0  0  0  0
   37.3210   22.0230   33.8340 C   0  0  0  0  0  0  0  0  0  0  0  0
   37.5190   23.0940   32.9870 C   0  0  0  0  0  0  0  0  0  0  0  0
   36.7040   23.1580   31.8510 C   0  0  0  0  0  0  0  0  0  0  0  0
   36.8140   23.9890   31.1370 H   0  0  0  0  0  0  0  0  0  0  0  0
   35.7230   22.2260   31.5220 C   0  0  0  0  0  3  0  0  0  0  0  0
   35.5840   21.1860   32.4140 C   0  0  0  0  0  0  0  0  0  0  0  0
   34.3540   19.9960   32.0260 Cl  0  0  0  0  0  0  0  0  0  0  0  0
   36.3600   21.0750   33.5490 C   0  0  0  0  0  0  0  0  0  0  0  0
   36.2290   20.2430   34.2390 H   0  0  0  0  0  0  0  0  0  0  0  0
  1  2  1  0  0  0  0
  2  3  2  0  0  0  0
  2  7  1  0  0  0  0
  3  8  1  0  0  0  0
  4  9  1  0  0  0  0
  4  3  1  0  0  0  0
  5  4  2  0  0  0  0
  6  5  1  0  0  0  0
  6  1  2  0  0  0  0
 10  1  1  0  0  0  0
 10 12  1  0  0  0  0
 11 10  2  0  0  0  0
 12 13  1  0  0  0  0
 14 15  1  0  0  0  0
 14 17  1  1  0  0  0
 15 18  1  0  0  0  0
 16 20  1  6  0  0  0
 16 12  1  0  0  0  0
 16 14  1  0  0  0  0
 16 15  1  0  0  0  0
 19 15  1  0  0  0  0
 21 27  1  0  0  0  0
 21 26  1  0  0  0  0
 22 21  2  0  0  0  0
 23 22  1  0  0  0  0
 23 24  2  0  0  0  0
 24 25  1  0  0  0  0
 25 26  2  0  0  0  0
 25 14  1  0  0  0  0
 28 22  1  0  0  0  0
 29 23  1  0  0  0  0
 30  5  1  0  0  0  0
 31 30  2  0  0  0  0
 33 32  1  0  0  0  0
 34 30  1  0  0  0  0
 34 33  2  0  0  0  0
 35 34  1  0  0  0  0
 36 35  1  0  0  0  0
 37 35  2  0  0  0  0
 37 38  1  0  0  0  0
 38 40  2  0  0  0  0
 39 38  1  0  0  0  0
 40 33  1  0  0  0  0
 40 41  1  0  0  0  0
M  END
>  <minimizedAffinity>
-5.96454573

$$$$

 OpenBabel03272508593D

 41 44  0  0  1  0  0  0  0  0999 V2000
   36.7980   27.9690   34.3630 C   0  0  0  0  0  0  0  0  0  0  0  0
   37.5910   27.9230   35.4750 C   0  0  0  0  0  0  0  0  0  0  0  0
   38.4960   26.8860   35.5830 C   0  0  0  0  0  0  0  0  0  0  0  0
   38.5410   25.9590   34.5580 C   0  0  0  0  0  0  0  0  0  0  0  0
   37.7390   26.0030   33.4340 C   0  0  0  0  0  0  0  0  0  0  0  0
   36.8830   27.0350   33.3910 N   0  0  0  0  0  0  0  0  0  0  0  0
   37.5340   28.6660   36.2630 H   0  0  0  0  0  0  0  0  0  0  0  0
   39.1340   26.8290   36.4530 H   0  0  0  0  0  0  0  0  0  0  0  0
   39.2670   25.1740   34.7000 H   0  0  0  0  0  0  0  0  0  0  0  0
   35.8250   29.0750   34.2320 C   0  0  0  0  0  0  0  0  0  0  0  0
   34.8930   29.0250   33.3960 O   0  0  0  0  0  0  0  0  0  0  0  0
   35.9890   30.2240   35.1090 N   0  0  0  0  0  0  0  0  0  0  0  0
   36.8280   30.3970   35.6660 H   0  0  0  0  0  0  0  0  0  0  0  0
   34.2790   31.4260   36.4380 C   0  0  2  0  0  0  0  0  0  0  0  0
   35.2240   32.4540   35.9320 C   0  0  0  0  0  0  0  0  0  0  0  0
   34.8890   31.1590   35.1770 C   0  0  1  0  0  0  0  0  0  0  0  0
   34.6010   30.9040   37.3610 H   0  0  0  0  0  0  0  0  0  0  0  0
   36.2000   32.5260   36.4190 H   0  0  0  0  0  0  0  0  0  0  0  0
   34.8580   33.4160   35.5350 H   0  0  0  0  0  0  0  0  0  0  0  0
   34.3380   31.3620   34.2330 H   0  0  0  0  0  0  0  0  0  0  0  0
   31.0870   33.3150   36.7210 C   0  0  0  0  0  0  0  0  0  0  0  0
   30.1180   32.2660   36.5610 C   0  0  0  0  0  0  0  0  0  0  0  0
   30.5970   30.9150   36.3670 C   0  0  0  0  0  0  0  0  0  0  0  0
   31.9460   30.6870   36.3420 N   0  0  0  0  0  0  0  0  0  0  0  0
   32.7980   31.7290   36.4990 C   0  0  0  0  0  0  0  0  0  0  0  0
   32.4090   33.0500   36.6910 N   0  0  0  0  0  0  0  0  0  0  0  0
   30.6870   34.3080   36.8640 H   0  0  0  0  0  0  0  0  0  0  0  0
   29.0810   32.4940   36.5880 H   0  0  0  0  0  0  0  0  0  0  0  0
   29.8730   30.1430   36.2490 H   0  0  0  0  0  0  0  0  0  0  0  0
   37.8350   24.9880   32.3890 C   0  0  0  0  0  0  0  0  0  0  0  0
   38.5570   25.2090   31.3890 O   0  0  0  0  0  0  0  0  0  0  0  0
   35.1830   24.6670   30.9120 Cl  0  0  0  0  0  0  0  0  0  0  0  0
   35.9310   23.3910   31.8320 C   0  0  0  0  0  0  0  0  0  0  0  0
   37.1300   23.7130   32.4350 C   0  0  0  0  0  0  0  0  0  0  0  0
   37.7520   22.7040   33.1800 C   0  0  0  0  0  0  0  0  0  0  0  0
   38.7110   22.9000   33.6850 H   0  0  0  0  0  0  0  0  0  0  0  0
   37.2490   21.4170   33.3520 C   0  0  0  0  0  3  0  0  0  0  0  0
   36.0500   21.1700   32.7210 C   0  0  0  0  0  0  0  0  0  0  0  0
   35.3920   19.5560   32.9190 Cl  0  0  0  0  0  0  0  0  0  0  0  0
   35.3950   22.1280   31.9750 C   0  0  0  0  0  0  0  0  0  0  0  0
   34.4480   21.9060   31.4850 H   0  0  0  0  0  0  0  0  0  0  0  0
  1  2  1  0  0  0  0
  2  3  2  0  0  0  0
  2  7  1  0  0  0  0
  3  8  1  0  0  0  0
  4  9  1  0  0  0  0
  4  3  1  0  0  0  0
  5  4  2  0  0  0  0
  6  5  1  0  0  0  0
  6  1  2  0  0  0  0
 10  1  1  0  0  0  0
 10 12  1  0  0  0  0
 11 10  2  0  0  0  0
 12 16  1  0  0  0  0
 12 13  1  0  0  0  0
 14 25  1  0  0  0  0
 14 17  1  1  0  0  0
 15 18  1  0  0  0  0
 15 14  1  0  0  0  0
 16 20  1  6  0  0  0
 16 15  1  0  0  0  0
 16 14  1  0  0  0  0
 19 15  1  0  0  0  0
 21 27  1  0  0  0  0
 22 28  1  0  0  0  0
 22 21  2  0  0  0  0
 23 22  1  0  0  0  0
 24 23  2  0  0  0  0
 24 25  1  0  0  0  0
 25 26  2  0  0  0  0
 26 21  1  0  0  0  0
 29 23  1  0  0  0  0
 30 34  1  0  0  0  0
 30  5  1  0  0  0  0
 31 30  2  0  0  0  0
 32 33  1  0  0  0  0
 33 40  2  0  0  0  0
 33 34  1  0  0  0  0
 34 35  2  0  0  0  0
 35 37  1  0  0  0  0
 35 36  1  0  0  0  0
 38 39  1  0  0  0  0
 38 37  2  0  0  0  0
 40 38  1  0  0  0  0
 41 40  1  0  0  0  0
M  END
>  <minimizedAffinity>
-5.95155382

$$$$

 OpenBabel03272508593D

 41 44  0  0  1  0  0  0  0  0999 V2000
   37.6250   27.8200   32.1800 C   0  0  0  0  0  0  0  0  0  0  0  0
   37.9630   27.7650   30.8560 C   0  0  0  0  0  0  0  0  0  0  0  0
   37.2670   28.5680   29.9760 C   0  0  0  0  0  0  0  0  0  0  0  0
   36.2700   29.3780   30.4900 C   0  0  0  0  0  0  0  0  0  0  0  0
   35.9260   29.4340   31.8270 C   0  0  0  0  0  0  0  0  0  0  0  0
   36.6410   28.6290   32.6290 N   0  0  0  0  0  0  0  0  0  0  0  0
   38.7500   27.1200   30.4830 H   0  0  0  0  0  0  0  0  0  0  0  0
   37.5170   28.5420   28.9260 H   0  0  0  0  0  0  0  0  0  0  0  0
   35.7630   29.9810   29.7540 H   0  0  0  0  0  0  0  0  0  0  0  0
   38.3630   26.9670   33.1350 C   0  0  0  0  0  0  0  0  0  0  0  0
   38.7790   27.4220   34.2270 O   0  0  0  0  0  0  0  0  0  0  0  0
   38.5910   25.5790   32.7630 N   0  0  0  0  0  0  0  0  0  0  0  0
   38.4430   25.2130   31.8210 H   0  0  0  0  0  0  0  0  0  0  0  0
   38.0980   24.0570   34.6540 C   0  0  2  0  0  0  0  0  0  0  0  0
   38.6750   23.2180   33.5720 C   0  0  0  0  0  0  0  0  0  0  0  0
   39.0530   24.6890   33.8040 C   0  0  1  0  0  0  0  0  0  0  0  0
   37.0130   24.2630   34.5620 H   0  0  0  0  0  0  0  0  0  0  0  0
   38.0320   22.9820   32.7200 H   0  0  0  0  0  0  0  0  0  0  0  0
   39.4150   22.4310   33.7960 H   0  0  0  0  0  0  0  0  0  0  0  0
   40.1100   24.7960   34.1300 H   0  0  0  0  0  0  0  0  0  0  0  0
   37.9240   23.9890   38.3700 C   0  0  0  0  0  0  0  0  0  0  0  0
   39.0940   23.2200   38.6960 C   0  0  0  0  0  0  0  0  0  0  0  0
   39.9280   22.7480   37.6140 C   0  0  0  0  0  0  0  0  0  0  0  0
   39.5750   23.0470   36.3260 N   0  0  0  0  0  0  0  0  0  0  0  0
   38.4560   23.7760   36.0970 C   0  0  0  0  0  0  0  0  0  0  0  0
   37.6100   24.2620   37.0870 N   0  0  0  0  0  0  0  0  0  0  0  0
   37.3300   24.3210   39.2070 H   0  0  0  0  0  0  0  0  0  0  0  0
   39.3250   23.0150   39.7130 H   0  0  0  0  0  0  0  0  0  0  0  0
   40.7940   22.1800   37.8650 H   0  0  0  0  0  0  0  0  0  0  0  0
   34.8600   30.3090   32.3040 C   0  0  0  0  0  0  0  0  0  0  0  0
   34.8100   31.4900   31.8880 O   0  0  0  0  0  0  0  0  0  0  0  0
   35.2760   30.7610   35.2940 Cl  0  0  0  0  0  0  0  0  0  0  0  0
   33.8520   30.0140   34.6240 C   0  0  0  0  0  0  0  0  0  0  0  0
   33.8340   29.8890   33.2490 C   0  0  0  0  0  0  0  0  0  0  0  0
   32.6990   29.2920   32.6860 C   0  0  0  0  0  0  0  0  0  0  0  0
   32.6260   29.1650   31.5950 H   0  0  0  0  0  0  0  0  0  0  0  0
   31.6060   28.8210   33.4080 C   0  0  0  0  0  3  0  0  0  0  0  0
   31.6970   28.9800   34.7740 C   0  0  0  0  0  0  0  0  0  0  0  0
   30.3330   28.3960   35.7100 Cl  0  0  0  0  0  0  0  0  0  0  0  0
   32.7910   29.5620   35.3800 C   0  0  0  0  0  0  0  0  0  0  0  0
   32.8370   29.6760   36.4620 H   0  0  0  0  0  0  0  0  0  0  0  0
  1  6  1  0  0  0  0
  1 10  1  0  0  0  0
  2  1  2  0  0  0  0
  3  4  2  0  0  0  0
  3  2  1  0  0  0  0
  4  5  1  0  0  0  0
  5 30  1  0  0  0  0
  5  6  2  0  0  0  0
  7  2  1  0  0  0  0
  8  3  1  0  0  0  0
  9  4  1  0  0  0  0
 10 11  2  0  0  0  0
 12 10  1  0  0  0  0
 12 16  1  0  0  0  0
 13 12  1  0  0  0  0
 14 17  1  6  0  0  0
 14 25  1  0  0  0  0
 15 19  1  0  0  0  0
 15 16  1  0  0  0  0
 15 14  1  0  0  0  0
 16 20  1  1  0  0  0
 16 14  1  0  0  0  0
 18 15  1  0  0  0  0
 21 22  1  0  0  0  0
 21 27  1  0  0  0  0
 22 28  1  0  0  0  0
 23 29  1  0  0  0  0
 23 22  2  0  0  0  0
 24 23  1  0  0  0  0
 25 24  2  0  0  0  0
 25 26  1  0  0  0  0
 26 21  2  0  0  0  0
 30 34  1  0  0  0  0
 31 30  2  0  0  0  0
 33 32  1  0  0  0  0
 33 40  1  0  0  0  0
 34 33  2  0  0  0  0
 35 34  1  0  0  0  0
 35 37  2  0  0  0  0
 36 35  1  0  0  0  0
 37 38  1  0  0  0  0
 38 40  2  0  0  0  0
 38 39  1  0  0  0  0
 40 41  1  0  0  0  0
M  END
>  <minimizedAffinity>
-5.94098711

$$$$

 OpenBabel03272508593D

 41 44  0  0  1  0  0  0  0  0999 V2000
   35.8200   28.7830   32.4230 C   0  0  0  0  0  0  0  0  0  0  0  0
   36.2740   29.6080   31.4330 C   0  0  0  0  0  0  0  0  0  0  0  0
   35.4440   30.6220   31.0010 C   0  0  0  0  0  0  0  0  0  0  0  0
   34.2010   30.7370   31.5990 C   0  0  0  0  0  0  0  0  0  0  0  0
   33.7390   29.9030   32.6000 C   0  0  0  0  0  0  0  0  0  0  0  0
   34.5960   28.9400   32.9730 N   0  0  0  0  0  0  0  0  0  0  0  0
   37.2550   29.4930   30.9830 H   0  0  0  0  0  0  0  0  0  0  0  0
   35.7810   31.2860   30.2200 H   0  0  0  0  0  0  0  0  0  0  0  0
   33.5990   31.5470   31.2190 H   0  0  0  0  0  0  0  0  0  0  0  0
   36.7000   27.6940   32.8970 C   0  0  0  0  0  0  0  0  0  0  0  0
   37.3320   26.9700   32.0910 O   0  0  0  0  0  0  0  0  0  0  0  0
   36.8080   27.4910   34.3340 N   0  0  0  0  0  0  0  0  0  0  0  0
   36.1810   27.9200   35.0160 H   0  0  0  0  0  0  0  0  0  0  0  0
   39.1660   27.1810   35.0280 C   0  0  2  0  0  0  0  0  0  0  0  0
   38.3320   26.9280   36.2310 C   0  0  0  0  0  0  0  0  0  0  0  0
   37.8720   26.6280   34.7960 C   0  0  1  0  0  0  0  0  0  0  0  0
   39.3860   28.2480   34.8230 H   0  0  0  0  0  0  0  0  0  0  0  0
   37.9000   27.7960   36.7370 H   0  0  0  0  0  0  0  0  0  0  0  0
   38.5540   26.0880   36.9100 H   0  0  0  0  0  0  0  0  0  0  0  0
   37.7510   25.5370   34.6210 H   0  0  0  0  0  0  0  0  0  0  0  0
   41.4210   24.2290   34.8270 C   0  0  0  0  0  0  0  0  0  0  0  0
   42.6050   24.8120   34.2580 C   0  0  0  0  0  0  0  0  0  0  0  0
   42.5990   26.2280   33.9630 C   0  0  0  0  0  0  0  0  0  0  0  0
   41.4720   26.9560   34.2350 N   0  0  0  0  0  0  0  0  0  0  0  0
   40.3940   26.3350   34.7710 C   0  0  0  0  0  0  0  0  0  0  0  0
   40.3300   24.9810   35.0800 N   0  0  0  0  0  0  0  0  0  0  0  0
   41.4690   23.1700   35.0310 H   0  0  0  0  0  0  0  0  0  0  0  0
   43.4550   24.2040   34.0650 H   0  0  0  0  0  0  0  0  0  0  0  0
   43.4800   26.6530   33.5420 H   0  0  0  0  0  0  0  0  0  0  0  0
   32.4150   30.0770   33.1860 C   0  0  0  0  0  0  0  0  0  0  0  0
   31.5790   30.8040   32.5990 O   0  0  0  0  0  0  0  0  0  0  0  0
   33.4140   31.1810   35.8500 Cl  0  0  0  0  0  0  0  0  0  0  0  0
   32.3440   29.8130   35.7180 C   0  0  0  0  0  0  0  0  0  0  0  0
   31.9950   29.4500   34.4330 C   0  0  0  0  0  0  0  0  0  0  0  0
   31.1350   28.3530   34.3000 C   0  0  0  0  0  0  0  0  0  0  0  0
   30.8200   28.0160   33.3000 H   0  0  0  0  0  0  0  0  0  0  0  0
   30.6180   27.6140   35.3600 C   0  0  0  0  0  3  0  0  0  0  0  0
   31.0110   28.0350   36.6120 C   0  0  0  0  0  0  0  0  0  0  0  0
   30.3740   27.1220   37.9680 Cl  0  0  0  0  0  0  0  0  0  0  0  0
   31.8560   29.1100   36.7990 C   0  0  0  0  0  0  0  0  0  0  0  0
   32.1510   29.4220   37.8000 H   0  0  0  0  0  0  0  0  0  0  0  0
  1 10  1  0  0  0  0
  1  6  1  0  0  0  0
  2  1  2  0  0  0  0
  3  2  1  0  0  0  0
  3  4  2  0  0  0  0
  4  5  1  0  0  0  0
  5  6  2  0  0  0  0
  5 30  1  0  0  0  0
  7  2  1  0  0  0  0
  8  3  1  0  0  0  0
  9  4  1  0  0  0  0
 10 12  1  0  0  0  0
 11 10  2  0  0  0  0
 12 16  1  0  0  0  0
 12 13  1  0  0  0  0
 14 17  1  6  0  0  0
 14 15  1  0  0  0  0
 15 18  1  0  0  0  0
 15 19  1  0  0  0  0
 16 20  1  6  0  0  0
 16 14  1  0  0  0  0
 16 15  1  0  0  0  0
 21 27  1  0  0  0  0
 21 26  1  0  0  0  0
 22 21  2  0  0  0  0
 23 24  2  0  0  0  0
 23 22  1  0  0  0  0
 24 25  1  0  0  0  0
 25 14  1  0  0  0  0
 25 26  2  0  0  0  0
 28 22  1  0  0  0  0
 29 23  1  0  0  0  0
 30 34  1  0  0  0  0
 31 30  2  0  0  0  0
 33 32  1  0  0  0  0
 33 40  1  0  0  0  0
 34 33  2  0  0  0  0
 35 34  1  0  0  0  0
 35 37  2  0  0  0  0
 36 35  1  0  0  0  0
 37 38  1  0  0  0  0
 38 40  2  0  0  0  0
 38 39  1  0  0  0  0
 40 41  1  0  0  0  0
M  END
>  <minimizedAffinity>
-5.90851641

$$$$

 OpenBabel03272508593D

 41 44  0  0  1  0  0  0  0  0999 V2000
   36.1060   28.8230   32.7250 C   0  0  0  0  0  0  0  0  0  0  0  0
   35.8650   29.5100   31.5680 C   0  0  0  0  0  0  0  0  0  0  0  0
   34.8270   30.4200   31.5590 C   0  0  0  0  0  0  0  0  0  0  0  0
   34.0950   30.5760   32.7230 C   0  0  0  0  0  0  0  0  0  0  0  0
   34.3360   29.8820   33.8920 C   0  0  0  0  0  0  0  0  0  0  0  0
   35.3590   29.0150   33.8340 N   0  0  0  0  0  0  0  0  0  0  0  0
   36.4570   29.3670   30.6720 H   0  0  0  0  0  0  0  0  0  0  0  0
   34.6180   30.9750   30.6570 H   0  0  0  0  0  0  0  0  0  0  0  0
   33.2980   31.3000   32.6520 H   0  0  0  0  0  0  0  0  0  0  0  0
   37.2170   27.8470   32.7510 C   0  0  0  0  0  0  0  0  0  0  0  0
   38.0130   27.7430   31.7890 O   0  0  0  0  0  0  0  0  0  0  0  0
   37.3520   27.0110   33.9340 N   0  0  0  0  0  0  0  0  0  0  0  0
   36.6320   26.9240   34.6520 H   0  0  0  0  0  0  0  0  0  0  0  0
   39.6510   26.8360   34.8390 C   0  0  2  0  0  0  0  0  0  0  0  0
   38.8500   25.7790   35.5070 C   0  0  0  0  0  0  0  0  0  0  0  0
   38.5870   26.2730   34.0760 C   0  0  1  0  0  0  0  0  0  0  0  0
   39.5710   27.8450   35.2910 H   0  0  0  0  0  0  0  0  0  0  0  0
   38.1570   26.0910   36.2930 H   0  0  0  0  0  0  0  0  0  0  0  0
   39.2590   24.7660   35.6590 H   0  0  0  0  0  0  0  0  0  0  0  0
   38.7930   25.4820   33.3220 H   0  0  0  0  0  0  0  0  0  0  0  0
   42.9830   27.1920   33.2210 C   0  0  0  0  0  0  0  0  0  0  0  0
   43.6850   26.0610   33.7620 C   0  0  0  0  0  0  0  0  0  0  0  0
   42.9810   25.1880   34.6740 C   0  0  0  0  0  0  0  0  0  0  0  0
   41.6780   25.4700   34.9880 N   0  0  0  0  0  0  0  0  0  0  0  0
   41.0830   26.5560   34.4380 C   0  0  0  0  0  0  0  0  0  0  0  0
   41.6990   27.4360   33.5550 N   0  0  0  0  0  0  0  0  0  0  0  0
   43.5450   27.8170   32.5440 H   0  0  0  0  0  0  0  0  0  0  0  0
   44.6960   25.8850   33.4860 H   0  0  0  0  0  0  0  0  0  0  0  0
   43.5080   24.3520   35.0700 H   0  0  0  0  0  0  0  0  0  0  0  0
   33.5230   30.0920   35.0850 C   0  0  0  0  0  0  0  0  0  0  0  0
   32.7380   29.1870   35.4540 O   0  0  0  0  0  0  0  0  0  0  0  0
   36.2120   31.2340   35.9680 Cl  0  0  0  0  0  0  0  0  0  0  0  0
   34.6800   31.9610   36.3700 C   0  0  0  0  0  0  0  0  0  0  0  0
   33.5650   31.3080   35.8870 C   0  0  0  0  0  0  0  0  0  0  0  0
   32.3210   31.8730   36.1960 C   0  0  0  0  0  0  0  0  0  0  0  0
   31.3940   31.3980   35.8390 H   0  0  0  0  0  0  0  0  0  0  0  0
   32.1380   33.0300   36.9480 C   0  0  0  0  0  3  0  0  0  0  0  0
   33.2970   33.6250   37.3950 C   0  0  0  0  0  0  0  0  0  0  0  0
   33.0960   35.0870   38.3460 Cl  0  0  0  0  0  0  0  0  0  0  0  0
   34.5470   33.1110   37.1190 C   0  0  0  0  0  0  0  0  0  0  0  0
   35.4480   33.6020   37.4850 H   0  0  0  0  0  0  0  0  0  0  0  0
  1 10  1  0  0  0  0
  1  6  1  0  0  0  0
  2  1  2  0  0  0  0
  3  2  1  0  0  0  0
  3  4  2  0  0  0  0
  4  5  1  0  0  0  0
  5 30  1  0  0  0  0
  6  5  2  0  0  0  0
  7  2  1  0  0  0  0
  8  3  1  0  0  0  0
  9  4  1  0  0  0  0
 10 12  1  0  0  0  0
 11 10  2  0  0  0  0
 12 16  1  0  0  0  0
 12 13  1  0  0  0  0
 14 17  1  1  0  0  0
 14 15  1  0  0  0  0
 15 19  1  0  0  0  0
 15 18  1  0  0  0  0
 16 20  1  6  0  0  0
 16 14  1  0  0  0  0
 16 15  1  0  0  0  0
 21 26  2  0  0  0  0
 21 22  1  0  0  0  0
 22 23  2  0  0  0  0
 23 24  1  0  0  0  0
 23 29  1  0  0  0  0
 25 14  1  0  0  0  0
 25 24  2  0  0  0  0
 26 25  1  0  0  0  0
 27 21  1  0  0  0  0
 28 22  1  0  0  0  0
 30 31  2  0  0  0  0
 30 34  1  0  0  0  0
 32 33  1  0  0  0  0
 33 40  1  0  0  0  0
 34 35  1  0  0  0  0
 34 33  2  0  0  0  0
 35 37  2  0  0  0  0
 36 35  1  0  0  0  0
 37 38  1  0  0  0  0
 38 39  1  0  0  0  0
 40 38  2  0  0  0  0
 40 41  1  0  0  0  0
M  END
>  <minimizedAffinity>
-5.87635088

$$$$

 OpenBabel03272508593D

 41 44  0  0  1  0  0  0  0  0999 V2000
   36.4710   28.4450   33.2180 C   0  0  0  0  0  0  0  0  0  0  0  0
   36.7460   28.6360   31.8930 C   0  0  0  0  0  0  0  0  0  0  0  0
   35.8820   29.4230   31.1580 C   0  0  0  0  0  0  0  0  0  0  0  0
   34.7910   29.9680   31.8120 C   0  0  0  0  0  0  0  0  0  0  0  0
   34.5110   29.7750   33.1510 C   0  0  0  0  0  0  0  0  0  0  0  0
   35.3900   29.0010   33.8060 N   0  0  0  0  0  0  0  0  0  0  0  0
   37.6100   28.1960   31.4080 H   0  0  0  0  0  0  0  0  0  0  0  0
   36.0790   29.5880   30.1100 H   0  0  0  0  0  0  0  0  0  0  0  0
   34.1540   30.5720   31.1850 H   0  0  0  0  0  0  0  0  0  0  0  0
   37.3880   27.6060   34.0180 C   0  0  0  0  0  0  0  0  0  0  0  0
   37.5040   27.7670   35.2560 O   0  0  0  0  0  0  0  0  0  0  0  0
   38.1540   26.5860   33.3180 N   0  0  0  0  0  0  0  0  0  0  0  0
   38.2380   26.5390   32.3010 H   0  0  0  0  0  0  0  0  0  0  0  0
   38.0540   24.5580   34.7360 C   0  0  2  0  0  0  0  0  0  0  0  0
   38.8160   24.1870   33.5160 C   0  0  0  0  0  0  0  0  0  0  0  0
   38.8220   25.5950   34.1300 C   0  0  1  0  0  0  0  0  0  0  0  0
   36.9520   24.5170   34.6340 H   0  0  0  0  0  0  0  0  0  0  0  0
   38.2490   24.0310   32.5940 H   0  0  0  0  0  0  0  0  0  0  0  0
   39.7270   23.5680   33.5810 H   0  0  0  0  0  0  0  0  0  0  0  0
   39.8220   25.8640   34.5360 H   0  0  0  0  0  0  0  0  0  0  0  0
   40.0140   22.7790   37.3510 C   0  0  0  0  0  0  0  0  0  0  0  0
   39.2450   23.0680   38.5300 C   0  0  0  0  0  0  0  0  0  0  0  0
   38.0510   23.8700   38.3900 C   0  0  0  0  0  0  0  0  0  0  0  0
   37.6980   24.3230   37.1470 N   0  0  0  0  0  0  0  0  0  0  0  0
   38.4750   24.0100   36.0820 C   0  0  0  0  0  0  0  0  0  0  0  0
   39.6330   23.2440   36.1430 N   0  0  0  0  0  0  0  0  0  0  0  0
   40.8970   22.1770   37.4990 H   0  0  0  0  0  0  0  0  0  0  0  0
   39.5600   22.6920   39.4730 H   0  0  0  0  0  0  0  0  0  0  0  0
   37.4860   24.0790   39.2690 H   0  0  0  0  0  0  0  0  0  0  0  0
   33.3390   30.3760   33.7780 C   0  0  0  0  0  0  0  0  0  0  0  0
   32.2050   30.1490   33.2950 O   0  0  0  0  0  0  0  0  0  0  0  0
   32.1820   29.4160   36.4350 Cl  0  0  0  0  0  0  0  0  0  0  0  0
   32.9370   30.9710   36.2220 C   0  0  0  0  0  0  0  0  0  0  0  0
   33.4040   31.2390   34.9510 C   0  0  0  0  0  0  0  0  0  0  0  0
   34.0160   32.4830   34.7540 C   0  0  0  0  0  0  0  0  0  0  0  0
   34.4090   32.7550   33.7620 H   0  0  0  0  0  0  0  0  0  0  0  0
   34.1810   33.4530   35.7390 C   0  0  0  0  0  3  0  0  0  0  0  0
   33.6900   33.1140   36.9810 C   0  0  0  0  0  0  0  0  0  0  0  0
   33.8840   34.3180   38.2420 Cl  0  0  0  0  0  0  0  0  0  0  0  0
   33.0790   31.9030   37.2290 C   0  0  0  0  0  0  0  0  0  0  0  0
   32.7000   31.6590   38.2210 H   0  0  0  0  0  0  0  0  0  0  0  0
  1  6  1  0  0  0  0
  1 10  1  0  0  0  0
  2  1  2  0  0  0  0
  3  4  2  0  0  0  0
  3  2  1  0  0  0  0
  4  5  1  0  0  0  0
  5 30  1  0  0  0  0
  5  6  2  0  0  0  0
  7  2  1  0  0  0  0
  8  3  1  0  0  0  0
  9  4  1  0  0  0  0
 10 11  2  0  0  0  0
 12 10  1  0  0  0  0
 12 16  1  0  0  0  0
 13 12  1  0  0  0  0
 14 17  1  6  0  0  0
 14 25  1  0  0  0  0
 15 19  1  0  0  0  0
 15 16  1  0  0  0  0
 15 14  1  0  0  0  0
 16 20  1  1  0  0  0
 16 14  1  0  0  0  0
 18 15  1  0  0  0  0
 21 27  1  0  0  0  0
 21 22  1  0  0  0  0
 22 28  1  0  0  0  0
 23 22  2  0  0  0  0
 23 29  1  0  0  0  0
 24 23  1  0  0  0  0
 25 26  1  0  0  0  0
 25 24  2  0  0  0  0
 26 21  2  0  0  0  0
 30 34  1  0  0  0  0
 31 30  2  0  0  0  0
 33 32  1  0  0  0  0
 33 40  1  0  0  0  0
 34 33  2  0  0  0  0
 35 34  1  0  0  0  0
 35 37  2  0  0  0  0
 36 35  1  0  0  0  0
 37 38  1  0  0  0  0
 38 40  2  0  0  0  0
 38 39  1  0  0  0  0
 40 41  1  0  0  0  0
M  END
>  <minimizedAffinity>
-5.86943483

$$$$

 OpenBabel03272508593D

 41 44  0  0  1  0  0  0  0  0999 V2000
   37.9090   27.8280   31.9010 C   0  0  0  0  0  0  0  0  0  0  0  0
   38.3960   27.8660   30.6240 C   0  0  0  0  0  0  0  0  0  0  0  0
   37.7950   28.7230   29.7260 C   0  0  0  0  0  0  0  0  0  0  0  0
   36.7340   29.4900   30.1750 C   0  0  0  0  0  0  0  0  0  0  0  0
   36.2390   29.4530   31.4650 C   0  0  0  0  0  0  0  0  0  0  0  0
   36.8690   28.5990   32.2870 N   0  0  0  0  0  0  0  0  0  0  0  0
   39.2300   27.2530   30.3010 H   0  0  0  0  0  0  0  0  0  0  0  0
   38.1630   28.7700   28.7120 H   0  0  0  0  0  0  0  0  0  0  0  0
   36.3070   30.1390   29.4270 H   0  0  0  0  0  0  0  0  0  0  0  0
   38.5440   26.9160   32.8750 C   0  0  0  0  0  0  0  0  0  0  0  0
   38.9430   27.3300   33.9890 O   0  0  0  0  0  0  0  0  0  0  0  0
   38.6920   25.5190   32.4950 N   0  0  0  0  0  0  0  0  0  0  0  0
   38.5590   25.1740   31.5430 H   0  0  0  0  0  0  0  0  0  0  0  0
   38.0300   24.1130   34.4240 C   0  0  2  0  0  0  0  0  0  0  0  0
   38.4560   23.1840   33.3470 C   0  0  0  0  0  0  0  0  0  0  0  0
   39.0460   24.5890   33.5430 C   0  0  1  0  0  0  0  0  0  0  0  0
   36.9840   24.4720   34.3510 H   0  0  0  0  0  0  0  0  0  0  0  0
   37.7660   23.0290   32.5120 H   0  0  0  0  0  0  0  0  0  0  0  0
   39.0810   22.3030   33.5690 H   0  0  0  0  0  0  0  0  0  0  0  0
   40.1150   24.5490   33.8440 H   0  0  0  0  0  0  0  0  0  0  0  0
   39.8390   22.8080   37.4020 C   0  0  0  0  0  0  0  0  0  0  0  0
   39.0190   23.3020   38.4730 C   0  0  0  0  0  0  0  0  0  0  0  0
   37.8430   24.0730   38.1370 C   0  0  0  0  0  0  0  0  0  0  0  0
   37.5560   24.3040   36.8190 N   0  0  0  0  0  0  0  0  0  0  0  0
   38.3790   23.8070   35.8640 C   0  0  0  0  0  0  0  0  0  0  0  0
   39.5230   23.0580   36.1140 N   0  0  0  0  0  0  0  0  0  0  0  0
   40.7070   22.2380   37.6960 H   0  0  0  0  0  0  0  0  0  0  0  0
   39.2840   23.0950   39.4810 H   0  0  0  0  0  0  0  0  0  0  0  0
   37.2400   24.4350   38.9380 H   0  0  0  0  0  0  0  0  0  0  0  0
   35.1140   30.2860   31.8730 C   0  0  0  0  0  0  0  0  0  0  0  0
   34.2740   30.6410   31.0130 O   0  0  0  0  0  0  0  0  0  0  0  0
   32.8060   29.1410   33.5100 Cl  0  0  0  0  0  0  0  0  0  0  0  0
   33.9170   30.3360   34.1210 C   0  0  0  0  0  0  0  0  0  0  0  0
   34.9010   30.7410   33.2410 C   0  0  0  0  0  0  0  0  0  0  0  0
   35.8070   31.7000   33.7090 C   0  0  0  0  0  0  0  0  0  0  0  0
   36.6140   32.0640   33.0540 H   0  0  0  0  0  0  0  0  0  0  0  0
   35.7820   32.2660   34.9810 C   0  0  0  0  0  3  0  0  0  0  0  0
   34.7720   31.8120   35.8010 C   0  0  0  0  0  0  0  0  0  0  0  0
   34.7160   32.5070   37.4110 Cl  0  0  0  0  0  0  0  0  0  0  0  0
   33.8540   30.8680   35.3920 C   0  0  0  0  0  0  0  0  0  0  0  0
   33.0650   30.5260   36.0600 H   0  0  0  0  0  0  0  0  0  0  0  0
  1  6  1  0  0  0  0
  1 10  1  0  0  0  0
  2  1  2  0  0  0  0
  3  4  2  0  0  0  0
  3  2  1  0  0  0  0
  4  5  1  0  0  0  0
  5 30  1  0  0  0  0
  5  6  2  0  0  0  0
  7  2  1  0  0  0  0
  8  3  1  0  0  0  0
  9  4  1  0  0  0  0
 10 11  2  0  0  0  0
 12 10  1  0  0  0  0
 12 16  1  0  0  0  0
 13 12  1  0  0  0  0
 14 17  1  6  0  0  0
 14 25  1  0  0  0  0
 15 16  1  0  0  0  0
 15 19  1  0  0  0  0
 15 14  1  0  0  0  0
 16 20  1  1  0  0  0
 16 14  1  0  0  0  0
 18 15  1  0  0  0  0
 21 27  1  0  0  0  0
 21 22  1  0  0  0  0
 22 28  1  0  0  0  0
 23 22  2  0  0  0  0
 23 29  1  0  0  0  0
 24 23  1  0  0  0  0
 25 26  1  0  0  0  0
 25 24  2  0  0  0  0
 26 21  2  0  0  0  0
 30 34  1  0  0  0  0
 31 30  2  0  0  0  0
 32 33  1  0  0  0  0
 33 40  1  0  0  0  0
 34 35  1  0  0  0  0
 34 33  2  0  0  0  0
 35 37  2  0  0  0  0
 36 35  1  0  0  0  0
 37 38  1  0  0  0  0
 38 39  1  0  0  0  0
 40 38  2  0  0  0  0
 40 41  1  0  0  0  0
M  END
>  <minimizedAffinity>
-5.81993246

$$$$

 OpenBabel03272508593D

 41 44  0  0  1  0  0  0  0  0999 V2000
   36.4390   28.1270   33.7250 C   0  0  0  0  0  0  0  0  0  0  0  0
   37.2250   27.6370   34.7300 C   0  0  0  0  0  0  0  0  0  0  0  0
   37.6600   26.3310   34.6360 C   0  0  0  0  0  0  0  0  0  0  0  0
   37.2700   25.5990   33.5280 C   0  0  0  0  0  0  0  0  0  0  0  0
   36.4750   26.0920   32.5120 C   0  0  0  0  0  0  0  0  0  0  0  0
   36.0870   27.3670   32.6650 N   0  0  0  0  0  0  0  0  0  0  0  0
   37.5150   28.2360   35.5870 H   0  0  0  0  0  0  0  0  0  0  0  0
   38.2830   25.9230   35.4180 H   0  0  0  0  0  0  0  0  0  0  0  0
   37.6410   24.5870   33.5120 H   0  0  0  0  0  0  0  0  0  0  0  0
   35.9670   29.5250   33.8120 C   0  0  0  0  0  0  0  0  0  0  0  0
   35.5890   30.1480   32.7920 O   0  0  0  0  0  0  0  0  0  0  0  0
   35.9570   30.1540   35.1240 N   0  0  0  0  0  0  0  0  0  0  0  0
   36.4240   29.7620   35.9430 H   0  0  0  0  0  0  0  0  0  0  0  0
   34.9610   31.9200   36.5470 C   0  0  2  0  0  0  0  0  0  0  0  0
   36.0870   32.5510   35.8110 C   0  0  0  0  0  0  0  0  0  0  0  0
   35.2380   31.4010   35.2480 C   0  0  1  0  0  0  0  0  0  0  0  0
   35.2470   31.3690   37.4640 H   0  0  0  0  0  0  0  0  0  0  0  0
   37.1020   32.3210   36.1490 H   0  0  0  0  0  0  0  0  0  0  0  0
   35.9870   33.5580   35.3730 H   0  0  0  0  0  0  0  0  0  0  0  0
   34.6330   31.7260   34.3730 H   0  0  0  0  0  0  0  0  0  0  0  0
   31.3470   32.7980   36.6400 C   0  0  0  0  0  0  0  0  0  0  0  0
   31.3840   34.0970   37.2530 C   0  0  0  0  0  0  0  0  0  0  0  0
   32.6710   34.6480   37.6140 C   0  0  0  0  0  0  0  0  0  0  0  0
   33.8000   33.9170   37.3610 N   0  0  0  0  0  0  0  0  0  0  0  0
   33.6840   32.6980   36.7810 C   0  0  0  0  0  0  0  0  0  0  0  0
   32.4820   32.1080   36.4070 N   0  0  0  0  0  0  0  0  0  0  0  0
   30.3660   32.4250   36.3870 H   0  0  0  0  0  0  0  0  0  0  0  0
   30.4800   34.6270   37.4280 H   0  0  0  0  0  0  0  0  0  0  0  0
   32.6910   35.6120   38.0670 H   0  0  0  0  0  0  0  0  0  0  0  0
   36.0960   25.2640   31.3710 C   0  0  0  0  0  0  0  0  0  0  0  0
   35.2990   25.7250   30.5210 O   0  0  0  0  0  0  0  0  0  0  0  0
   38.8920   24.8440   30.2200 Cl  0  0  0  0  0  0  0  0  0  0  0  0
   37.8220   23.5370   30.6480 C   0  0  0  0  0  0  0  0  0  0  0  0
   36.5950   23.9110   31.1550 C   0  0  0  0  0  0  0  0  0  0  0  0
   35.7170   22.8790   31.5070 C   0  0  0  0  0  0  0  0  0  0  0  0
   34.7230   23.1150   31.9170 H   0  0  0  0  0  0  0  0  0  0  0  0
   35.9950   21.5210   31.3810 C   0  0  0  0  0  3  0  0  0  0  0  0
   37.2390   21.2240   30.8680 C   0  0  0  0  0  0  0  0  0  0  0  0
   37.6170   19.5200   30.6990 Cl  0  0  0  0  0  0  0  0  0  0  0  0
   38.1420   22.2020   30.5060 C   0  0  0  0  0  0  0  0  0  0  0  0
   39.1200   21.9410   30.1030 H   0  0  0  0  0  0  0  0  0  0  0  0
  1 10  1  0  0  0  0
  1  2  1  0  0  0  0
  2  7  1  0  0  0  0
  3  2  2  0  0  0  0
  3  8  1  0  0  0  0
  4  3  1  0  0  0  0
  5  6  1  0  0  0  0
  5  4  2  0  0  0  0
  6  1  2  0  0  0  0
  9  4  1  0  0  0  0
 10 12  1  0  0  0  0
 11 10  2  0  0  0  0
 12 16  1  0  0  0  0
 12 13  1  0  0  0  0
 14 25  1  0  0  0  0
 14 17  1  1  0  0  0
 15 18  1  0  0  0  0
 15 14  1  0  0  0  0
 16 20  1  6  0  0  0
 16 15  1  0  0  0  0
 16 14  1  0  0  0  0
 19 15  1  0  0  0  0
 21 22  1  0  0  0  0
 22 28  1  0  0  0  0
 22 23  2  0  0  0  0
 23 29  1  0  0  0  0
 24 23  1  0  0  0  0
 25 24  2  0  0  0  0
 26 21  2  0  0  0  0
 26 25  1  0  0  0  0
 27 21  1  0  0  0  0
 30  5  1  0  0  0  0
 31 30  2  0  0  0  0
 32 33  1  0  0  0  0
 33 34  1  0  0  0  0
 34 30  1  0  0  0  0
 34 35  2  0  0  0  0
 35 36  1  0  0  0  0
 37 35  1  0  0  0  0
 38 37  2  0  0  0  0
 39 38  1  0  0  0  0
 40 33  2  0  0  0  0
 40 38  1  0  0  0  0
 41 40  1  0  0  0  0
M  END
>  <minimizedAffinity>
-5.75878096

$$$$
