
 OpenBabel03272508563D

 41 44  0  0  1  0  0  0  0  0999 V2000
   39.1710   31.4480   43.3130 C   0  0  0  0  0  0  0  0  0  0  0  0
   40.1950   30.5560   43.4720 C   0  0  0  0  0  0  0  0  0  0  0  0
   40.9090   30.1830   42.3520 C   0  0  0  0  0  0  0  0  0  0  0  0
   40.5400   30.7350   41.1370 C   0  0  0  0  0  0  0  0  0  0  0  0
   39.5050   31.6350   40.9750 C   0  0  0  0  0  0  0  0  0  0  0  0
   38.8530   31.9560   42.1030 N   0  0  0  0  0  0  0  0  0  0  0  0
   40.4610   30.1410   44.4380 H   0  0  0  0  0  0  0  0  0  0  0  0
   41.7220   29.4800   42.4520 H   0  0  0  0  0  0  0  0  0  0  0  0
   41.1350   30.4040   40.3000 H   0  0  0  0  0  0  0  0  0  0  0  0
   38.3990   31.8590   44.5050 C   0  0  0  0  0  0  0  0  0  0  0  0
   37.3020   32.4550   44.3950 O   0  0  0  0  0  0  0  0  0  0  0  0
   38.9590   31.5480   45.8120 N   0  0  0  0  0  0  0  0  0  0  0  0
   39.9210   31.2390   45.9570 H   0  0  0  0  0  0  0  0  0  0  0  0
   38.4360   31.0730   48.1860 C   0  0  2  0  0  0  0  0  0  0  0  0
   38.6790   32.5350   48.0880 C   0  0  0  0  0  0  0  0  0  0  0  0
   38.0810   31.6920   46.9510 C   0  0  1  0  0  0  0  0  0  0  0  0
   39.3470   30.4490   48.2820 H   0  0  0  0  0  0  0  0  0  0  0  0
   39.7150   32.8690   47.9890 H   0  0  0  0  0  0  0  0  0  0  0  0
   38.0330   33.2550   48.6190 H   0  0  0  0  0  0  0  0  0  0  0  0
   37.0250   31.9670   46.7450 H   0  0  0  0  0  0  0  0  0  0  0  0
   35.0600   30.2410   49.5100 C   0  0  0  0  0  0  0  0  0  0  0  0
   35.3920   29.5560   50.7280 C   0  0  0  0  0  0  0  0  0  0  0  0
   36.7880   29.4050   51.0720 C   0  0  0  0  0  0  0  0  0  0  0  0
   37.7370   29.9170   50.2280 N   0  0  0  0  0  0  0  0  0  0  0  0
   37.3470   30.5490   49.0960 C   0  0  0  0  0  0  0  0  0  0  0  0
   36.0250   30.7310   48.7040 N   0  0  0  0  0  0  0  0  0  0  0  0
   34.0070   30.3320   49.2910 H   0  0  0  0  0  0  0  0  0  0  0  0
   34.6180   29.1770   51.3500 H   0  0  0  0  0  0  0  0  0  0  0  0
   37.0260   28.8970   51.9770 H   0  0  0  0  0  0  0  0  0  0  0  0
   39.1650   32.1770   39.6630 C   0  0  0  0  0  0  0  0  0  0  0  0
   38.9760   33.4100   39.5440 O   0  0  0  0  0  0  0  0  0  0  0  0
   41.5180   31.9120   37.7370 Cl  0  0  0  0  0  0  0  0  0  0  0  0
   39.9800   31.1300   37.4890 C   0  0  0  0  0  0  0  0  0  0  0  0
   39.0300   31.3610   38.4630 C   0  0  0  0  0  0  0  0  0  0  0  0
   37.7860   30.7450   38.2870 C   0  0  0  0  0  0  0  0  0  0  0  0
   36.9860   30.8910   39.0290 H   0  0  0  0  0  0  0  0  0  0  0  0
   37.4480   29.9260   37.2120 C   0  0  0  0  0  3  0  0  0  0  0  0
   38.4470   29.7430   36.2810 C   0  0  0  0  0  0  0  0  0  0  0  0
   38.0500   28.7170   34.9150 Cl  0  0  0  0  0  0  0  0  0  0  0  0
   39.6910   30.3270   36.4060 C   0  0  0  0  0  0  0  0  0  0  0  0
   40.4630   30.1660   35.6570 H   0  0  0  0  0  0  0  0  0  0  0  0
  1  2  1  0  0  0  0
  1 10  1  0  0  0  0
  2  7  1  0  0  0  0
  3  8  1  0  0  0  0
  3  2  2  0  0  0  0
  4  3  1  0  0  0  0
  5  4  2  0  0  0  0
  5  6  1  0  0  0  0
  6  1  2  0  0  0  0
  9  4  1  0  0  0  0
 10 12  1  0  0  0  0
 11 10  2  0  0  0  0
 12 13  1  0  0  0  0
 12 16  1  0  0  0  0
 14 17  1  6  0  0  0
 14 25  1  0  0  0  0
 15 14  1  0  0  0  0
 15 19  1  0  0  0  0
 16 20  1  6  0  0  0
 16 15  1  0  0  0  0
 16 14  1  0  0  0  0
 18 15  1  0  0  0  0
 21 22  1  0  0  0  0
 22 23  2  0  0  0  0
 22 28  1  0  0  0  0
 23 29  1  0  0  0  0
 24 23  1  0  0  0  0
 25 24  2  0  0  0  0
 26 25  1  0  0  0  0
 26 21  2  0  0  0  0
 27 21  1  0  0  0  0
 30  5  1  0  0  0  0
 31 30  2  0  0  0  0
 33 32  1  0  0  0  0
 33 34  1  0  0  0  0
 34 30  1  0  0  0  0
 35 34  2  0  0  0  0
 35 36  1  0  0  0  0
 37 35  1  0  0  0  0
 38 40  1  0  0  0  0
 38 37  2  0  0  0  0
 39 38  1  0  0  0  0
 40 33  2  0  0  0  0
 41 40  1  0  0  0  0
M  END
>  <minimizedAffinity>
-4.95388412

>  <minimizedRMSD>
0.45792076

$$$$
