
 OpenBabel03272508503D

 30 32  0  0  1  0  0  0  0  0999 V2000
   38.1170   30.6620   46.6810 C   0  0  2  0  0  0  0  0  0  0  0  0
   36.7670   30.6260   47.2290 C   0  0  0  0  0  0  0  0  0  0  0  0
   37.9910   31.0080   48.0880 C   0  0  1  0  0  0  0  0  0  0  0  0
   38.6120   29.6430   46.5160 H   0  0  0  0  0  0  0  0  0  0  0  0
   36.2950   29.6860   47.5130 H   0  0  0  0  0  0  0  0  0  0  0  0
   36.0790   31.4820   47.0660 H   0  0  0  0  0  0  0  0  0  0  0  0
   37.9570   32.0250   48.4760 H   0  0  0  0  0  0  0  0  0  0  0  0
   40.0410   33.4160   45.1260 C   0  0  0  0  0  0  0  0  0  0  0  0
   39.3770   33.5650   43.8770 C   0  0  0  0  0  0  0  0  0  0  0  0
   38.2650   32.7000   43.5970 C   0  0  0  0  0  0  0  0  0  0  0  0
   37.9140   31.7960   44.5320 N   0  0  0  0  0  0  0  0  0  0  0  0
   38.5790   31.6930   45.7050 C   0  0  0  0  0  0  0  0  0  0  0  0
   39.6360   32.4780   46.0320 N   0  0  0  0  0  0  0  0  0  0  0  0
   40.8640   34.1070   45.2540 H   0  0  0  0  0  0  0  0  0  0  0  0
   39.6960   34.2980   43.1700 H   0  0  0  0  0  0  0  0  0  0  0  0
   37.7850   32.8370   42.6450 H   0  0  0  0  0  0  0  0  0  0  0  0
   37.6210   29.9580   50.2910 C   0  0  0  0  0  0  0  0  0  0  0  0
   36.6620   30.7500   50.4830 O   0  0  0  0  0  0  0  0  0  0  0  0
   38.3720   29.9930   49.0640 N   0  0  0  0  0  0  0  0  0  0  0  0
   39.1560   29.3430   48.8450 H   0  0  0  0  0  0  0  0  0  0  0  0
   37.2710   30.2340   53.3410 Cl  0  0  0  0  0  0  0  0  0  0  0  0
   38.0340   28.8340   52.6340 C   0  0  0  0  0  0  0  0  0  0  0  0
   38.0700   28.9340   51.2630 C   0  0  0  0  0  0  0  0  0  0  0  0
   38.6460   27.9040   50.5050 C   0  0  0  0  0  0  0  0  0  0  0  0
   38.7670   27.7980   49.4290 H   0  0  0  0  0  0  0  0  0  0  0  0
   39.1810   26.7790   51.1430 C   0  0  0  0  0  3  0  0  0  0  0  0
   39.1260   26.7140   52.5250 C   0  0  0  0  0  0  0  0  0  0  0  0
   39.7830   25.3310   53.4090 Cl  0  0  0  0  0  0  0  0  0  0  0  0
   38.5610   27.7240   53.2590 C   0  0  0  0  0  0  0  0  0  0  0  0
   38.4700   27.7660   54.3300 H   0  0  0  0  0  0  0  0  0  0  0  0
  1  4  1  6  0  0  0
  1  2  1  0  0  0  0
  1  3  1  0  0  0  0
  2  5  1  0  0  0  0
  2  3  1  0  0  0  0
  3  7  1  1  0  0  0
  3 19  1  0  0  0  0
  6  2  1  0  0  0  0
  8 14  1  0  0  0  0
  8 13  1  0  0  0  0
  9  8  2  0  0  0  0
 10  9  1  0  0  0  0
 10 11  2  0  0  0  0
 11 12  1  0  0  0  0
 12 13  2  0  0  0  0
 12  1  1  0  0  0  0
 15  9  1  0  0  0  0
 16 10  1  0  0  0  0
 17 18  2  0  0  0  0
 17 23  1  0  0  0  0
 19 17  1  0  0  0  0
 20 19  1  0  0  0  0
 22 29  1  0  0  0  0
 22 21  1  0  0  0  0
 23 22  2  0  0  0  0
 24 26  2  0  0  0  0
 24 23  1  0  0  0  0
 25 24  1  0  0  0  0
 26 27  1  0  0  0  0
 27 29  2  0  0  0  0
 27 28  1  0  0  0  0
 29 30  1  0  0  0  0
M  END
>  <minimizedAffinity>
1.80677319

>  <minimizedRMSD>
1.02220869

$$$$
