
 OpenBabel03272508423D

 21 22  0  0  0  0  0  0  0  0999 V2000
   34.4600   29.2670   49.4980 C   0  0  0  0  0  0  0  0  0  0  0  0
   33.4650   29.4430   50.2650 O   0  0  0  0  0  0  0  0  0  0  0  0
   33.6600   30.6430   47.0330 Cl  0  0  0  0  0  0  0  0  0  0  0  0
   33.6980   28.8820   47.1900 C   0  0  0  0  0  0  0  0  0  0  0  0
   34.0960   28.3460   48.4170 C   0  0  0  0  0  0  0  0  0  0  0  0
   34.1140   26.9690   48.5030 C   0  0  0  0  0  0  0  0  0  0  0  0
   34.4210   26.5380   49.4470 H   0  0  0  0  0  0  0  0  0  0  0  0
   33.7540   26.1830   47.4290 C   0  0  0  0  0  3  0  0  0  0  0  0
   33.3680   26.7610   46.2400 C   0  0  0  0  0  0  0  0  0  0  0  0
   32.8900   25.8390   44.8090 Cl  0  0  0  0  0  0  0  0  0  0  0  0
   33.3240   28.1310   46.0730 C   0  0  0  0  0  0  0  0  0  0  0  0
   33.0320   28.6520   45.1730 H   0  0  0  0  0  0  0  0  0  0  0  0
   37.9870   29.6940   50.2790 C   0  0  0  0  0  0  0  0  0  0  0  0
   38.1950   31.0750   50.1630 C   0  0  0  0  0  0  0  0  0  0  0  0
   37.0960   31.8610   49.8100 C   0  0  0  0  0  0  0  0  0  0  0  0
   35.9120   31.2360   49.6050 N   0  0  0  0  0  0  0  0  0  0  0  0
   35.7390   29.9170   49.7220 C   0  0  0  0  0  0  0  0  0  0  0  0
   36.7830   29.1660   50.0590 N   0  0  0  0  0  0  0  0  0  0  0  0
   38.8630   29.1390   50.5540 H   0  0  0  0  0  0  0  0  0  0  0  0
   39.1150   31.6230   50.3150 H   0  0  0  0  0  0  0  0  0  0  0  0
   37.0480   32.9130   49.6730 H   0  0  0  0  0  0  0  0  0  0  0  0
  1 17  1  0  0  0  0
  1  2  2  0  0  0  0
  3  4  1  0  0  0  0
  4  5  1  0  0  0  0
  5  6  2  0  0  0  0
  5  1  1  0  0  0  0
  6  7  1  0  0  0  0
  8  6  1  0  0  0  0
  9  8  2  0  0  0  0
 10  9  1  0  0  0  0
 11  9  1  0  0  0  0
 11  4  2  0  0  0  0
 12 11  1  0  0  0  0
 13 19  1  0  0  0  0
 14 13  1  0  0  0  0
 14 20  1  0  0  0  0
 15 14  2  0  0  0  0
 16 17  2  0  0  0  0
 16 15  1  0  0  0  0
 17 18  1  0  0  0  0
 18 13  2  0  0  0  0
 21 15  1  0  0  0  0
M  END
>  <minimizedAffinity>
-4.14908838

>  <minimizedRMSD>
2.27321458

$$$$
