
 OpenBabel03272508423D

 21 22  0  0  0  0  0  0  0  0999 V2000
   33.8880   28.8700   48.3930 C   0  0  0  0  0  0  0  0  0  0  0  0
   33.3190   28.5430   49.4780 O   0  0  0  0  0  0  0  0  0  0  0  0
   33.9400   26.0540   47.5720 Cl  0  0  0  0  0  0  0  0  0  0  0  0
   32.9390   27.2760   46.7770 C   0  0  0  0  0  0  0  0  0  0  0  0
   33.0010   28.5840   47.2610 C   0  0  0  0  0  0  0  0  0  0  0  0
   32.2070   29.5110   46.6170 C   0  0  0  0  0  0  0  0  0  0  0  0
   32.2440   30.5280   46.9790 H   0  0  0  0  0  0  0  0  0  0  0  0
   31.4030   29.1460   45.5580 C   0  0  0  0  0  3  0  0  0  0  0  0
   31.3770   27.8410   45.1180 C   0  0  0  0  0  0  0  0  0  0  0  0
   30.3810   27.2770   43.7710 Cl  0  0  0  0  0  0  0  0  0  0  0  0
   32.1420   26.8540   45.7090 C   0  0  0  0  0  0  0  0  0  0  0  0
   32.1730   25.8150   45.4190 H   0  0  0  0  0  0  0  0  0  0  0  0
   37.2930   29.6690   49.3950 C   0  0  0  0  0  0  0  0  0  0  0  0
   37.7680   30.4830   48.3580 C   0  0  0  0  0  0  0  0  0  0  0  0
   36.8940   30.7550   47.3030 C   0  0  0  0  0  0  0  0  0  0  0  0
   35.6530   30.2140   47.3570 N   0  0  0  0  0  0  0  0  0  0  0  0
   35.2230   29.4400   48.3570 C   0  0  0  0  0  0  0  0  0  0  0  0
   36.0530   29.1800   49.3620 N   0  0  0  0  0  0  0  0  0  0  0  0
   38.0050   29.4940   50.1780 H   0  0  0  0  0  0  0  0  0  0  0  0
   38.7450   30.9390   48.2670 H   0  0  0  0  0  0  0  0  0  0  0  0
   37.0630   31.3430   46.4350 H   0  0  0  0  0  0  0  0  0  0  0  0
  1  2  2  0  0  0  0
  4  5  1  0  0  0  0
  4  3  1  0  0  0  0
  5  1  1  0  0  0  0
  6  7  1  0  0  0  0
  6  5  2  0  0  0  0
  8  6  1  0  0  0  0
  9  8  2  0  0  0  0
  9 11  1  0  0  0  0
 10  9  1  0  0  0  0
 11  4  2  0  0  0  0
 12 11  1  0  0  0  0
 13 19  1  0  0  0  0
 14 13  2  0  0  0  0
 15 16  2  0  0  0  0
 15 14  1  0  0  0  0
 16 17  1  0  0  0  0
 17  1  1  0  0  0  0
 17 18  2  0  0  0  0
 18 13  1  0  0  0  0
 20 14  1  0  0  0  0
 21 15  1  0  0  0  0
M  END
>  <minimizedAffinity>
-3.46790957

>  <minimizedRMSD>
3.93125916

$$$$
