
 OpenBabel03272508423D

 21 22  0  0  0  0  0  0  0  0999 V2000
   34.3770   28.7870   49.2260 C   0  0  0  0  0  0  0  0  0  0  0  0
   33.3520   28.8920   49.9650 O   0  0  0  0  0  0  0  0  0  0  0  0
   33.6200   30.4690   46.9440 Cl  0  0  0  0  0  0  0  0  0  0  0  0
   33.6710   28.7020   46.8700 C   0  0  0  0  0  0  0  0  0  0  0  0
   34.0470   28.0130   48.0250 C   0  0  0  0  0  0  0  0  0  0  0  0
   34.0760   26.6380   47.9310 C   0  0  0  0  0  0  0  0  0  0  0  0
   34.3660   26.0890   48.8170 H   0  0  0  0  0  0  0  0  0  0  0  0
   33.7490   25.9960   46.7550 C   0  0  0  0  0  0  0  0  0  0  0  0
   33.3840   26.7220   45.6430 C   0  0  0  0  0  0  0  0  0  0  0  0
   32.9470   25.9920   44.0930 Cl  0  0  0  0  0  0  0  0  0  0  0  0
   33.3300   28.1020   45.6550 C   0  0  0  0  0  0  0  0  0  0  0  0
   33.0530   28.7350   44.8250 H   0  0  0  0  0  0  0  0  0  0  0  0
   37.1240   30.0140   51.2720 C   0  0  0  0  0  0  0  0  0  0  0  0
   38.0600   30.4770   50.3380 C   0  0  0  0  0  0  0  0  0  0  0  0
   37.7310   30.3600   48.9870 C   0  0  0  0  0  0  0  0  0  0  0  0
   36.5330   29.8090   48.6740 N   0  0  0  0  0  0  0  0  0  0  0  0
   35.6560   29.3750   49.5840 C   0  0  0  0  0  0  0  0  0  0  0  0
   35.9670   29.4860   50.8710 N   0  0  0  0  0  0  0  0  0  0  0  0
   37.4280   30.1300   52.2940 H   0  0  0  0  0  0  0  0  0  0  0  0
   39.0260   30.9240   50.5330 H   0  0  0  0  0  0  0  0  0  0  0  0
   38.2980   30.6480   48.1370 H   0  0  0  0  0  0  0  0  0  0  0  0
  1 17  1  0  0  0  0
  1  2  2  0  0  0  0
  4  3  1  0  0  0  0
  4  5  1  0  0  0  0
  5  1  1  0  0  0  0
  6  5  2  0  0  0  0
  6  7  1  0  0  0  0
  8  6  1  0  0  0  0
  9 11  1  0  0  0  0
  9  8  2  0  0  0  0
 10  9  1  0  0  0  0
 11  4  2  0  0  0  0
 12 11  1  0  0  0  0
 13 19  1  0  0  0  0
 14 20  1  0  0  0  0
 14 13  2  0  0  0  0
 15 14  1  0  0  0  0
 16 15  2  0  0  0  0
 16 17  1  0  0  0  0
 17 18  2  0  0  0  0
 18 13  1  0  0  0  0
 21 15  1  0  0  0  0
M  END
>  <minimizedAffinity>
-4.30305767

>  <minimizedRMSD>
2.34644508

$$$$
