
 OpenBabel03272502423D

 21 22  0  0  0  0  0  0  0  0999 V2000
   37.2590   29.1160   50.5110 Cl  0  0  0  0  0  0  0  0  0  0  0  0
   35.9720   29.2020   49.3510 C   0  0  0  0  0  0  0  0  0  0  0  0
   35.9230   30.2470   48.4470 C   0  0  0  0  0  0  0  0  0  0  0  0
   34.9210   30.3450   47.5190 C   0  0  0  0  0  0  0  0  0  0  0  0
   33.9140   29.3830   47.4600 C   0  0  0  0  0  0  0  0  0  0  0  0
   33.9310   28.3320   48.3410 C   0  0  0  0  0  0  0  0  0  0  0  0
   32.7290   27.0610   48.3700 Cl  0  0  0  0  0  0  0  0  0  0  0  0
   34.9670   28.2710   49.2670 C   0  0  0  0  0  0  0  0  0  0  0  0
   34.9340   31.1900   46.8330 H   0  0  0  0  0  0  0  0  0  0  0  0
   33.1270   29.4440   46.7440 H   0  0  0  0  0  0  0  0  0  0  0  0
   34.9960   27.4360   49.9800 H   0  0  0  0  0  0  0  0  0  0  0  0
   38.0360   33.0400   49.5220 C   0  0  0  0  0  0  0  0  0  0  0  0
   38.9710   33.1440   48.4840 C   0  0  0  0  0  0  0  0  0  0  0  0
   38.8590   32.2330   47.4090 C   0  0  0  0  0  0  0  0  0  0  0  0
   37.8550   31.3240   47.4570 N   0  0  0  0  0  0  0  0  0  0  0  0
   36.9630   31.2600   48.4920 C   0  0  0  0  0  0  0  0  0  0  0  0
   37.0700   32.1190   49.5060 N   0  0  0  0  0  0  0  0  0  0  0  0
   38.1530   33.7640   50.3410 H   0  0  0  0  0  0  0  0  0  0  0  0
   39.7780   33.8530   48.4180 H   0  0  0  0  0  0  0  0  0  0  0  0
   39.8030   32.2700   46.2740 C   0  0  0  0  0  0  0  0  0  0  0  0
   39.1930   32.2570   45.3250 H   0  0  0  0  0  0  0  0  0  0  0  0
  2  1  1  0  0  0  0
  3 16  1  0  0  0  0
  3  2  2  0  0  0  0
  4  3  1  0  0  0  0
  5  4  2  0  0  0  0
  5  6  1  0  0  0  0
  6  7  1  0  0  0  0
  6  8  2  0  0  0  0
  8  2  1  0  0  0  0
  8 11  1  0  0  0  0
  9  4  1  0  0  0  0
 10  5  1  0  0  0  0
 12 18  1  0  0  0  0
 13 12  2  0  0  0  0
 14 15  2  0  0  0  0
 14 13  1  0  0  0  0
 15 16  1  0  0  0  0
 16 17  2  0  0  0  0
 17 12  1  0  0  0  0
 19 13  1  0  0  0  0
 20 14  1  0  0  0  0
 21 20  1  0  0  0  0
M  END
>  <minimizedAffinity>
-5.74156427

>  <minimizedRMSD>
0.142585814

$$$$
