
 OpenBabel03272505183D

 26 27  0  0  0  0  0  0  0  0999 V2000
   38.8680   32.3840   47.5970 C   0  0  0  0  0  0  0  0  0  0  0  0
   38.4030   31.1060   47.5190 C   0  0  0  0  0  0  0  0  0  0  0  0
   38.7880   30.3660   46.4220 C   0  0  0  0  0  0  0  0  0  0  0  0
   39.5870   30.8590   45.4570 C   0  0  0  0  0  0  0  0  0  0  0  0
   40.0750   32.1550   45.5100 C   0  0  0  0  0  0  0  0  0  0  0  0
   39.6950   32.8980   46.6000 C   0  0  0  0  0  0  0  0  0  0  0  0
   38.4160   29.3470   46.3630 H   0  0  0  0  0  0  0  0  0  0  0  0
   39.8390   30.2040   44.6300 H   0  0  0  0  0  0  0  0  0  0  0  0
   40.7130   32.5130   44.7130 H   0  0  0  0  0  0  0  0  0  0  0  0
   40.1120   33.8980   46.5740 H   0  0  0  0  0  0  0  0  0  0  0  0
   37.3750   29.3950   50.6660 C   0  0  0  0  0  0  0  0  0  0  0  0
   38.1390   29.9250   49.6060 C   0  0  0  0  0  0  0  0  0  0  0  0
   37.5440   30.5990   48.5590 C   0  0  0  0  0  0  0  0  0  0  0  0
   36.1980   30.6850   48.6710 N   0  0  0  0  0  0  0  0  0  0  0  0
   35.4560   30.1950   49.6600 C   0  0  0  0  0  0  0  0  0  0  0  0
   36.0530   29.5410   50.6700 N   0  0  0  0  0  0  0  0  0  0  0  0
   37.8430   28.8710   51.4790 H   0  0  0  0  0  0  0  0  0  0  0  0
   39.2150   29.7500   49.6980 H   0  0  0  0  0  0  0  0  0  0  0  0
   34.0000   30.4230   49.5490 C   0  0  0  0  0  0  0  0  0  0  0  0
   33.8140   31.3810   49.0090 H   0  0  0  0  0  0  0  0  0  0  0  0
   39.4230   34.3650   48.8250 N   0  0  0  0  0  0  0  0  0  0  0  0
   38.6180   33.3410   48.6340 C   0  0  0  0  0  0  0  0  0  0  0  0
   37.7320   33.6720   49.6800 N   0  0  0  0  0  0  0  0  0  0  0  0
   39.2500   35.0350   49.6040 H   0  0  0  0  0  0  0  0  0  0  0  0
   37.9310   33.2000   50.6100 H   0  0  0  0  0  0  0  0  0  0  0  0
   36.9180   34.3450   49.5570 H   0  0  0  0  0  0  0  0  0  0  0  0
  1 22  1  0  0  0  0
  2  1  1  0  0  0  0
  2 13  1  0  0  0  0
  3  2  2  0  0  0  0
  4  5  2  0  0  0  0
  4  3  1  0  0  0  0
  5  6  1  0  0  0  0
  6  1  2  0  0  0  0
  7  3  1  0  0  0  0
  8  4  1  0  0  0  0
  9  5  1  0  0  0  0
 10  6  1  0  0  0  0
 11 16  1  0  0  0  0
 11 17  1  0  0  0  0
 12 18  1  0  0  0  0
 12 11  2  0  0  0  0
 13 14  2  0  0  0  0
 13 12  1  0  0  0  0
 14 15  1  0  0  0  0
 15 16  2  0  0  0  0
 19 15  1  0  0  0  0
 20 19  1  0  0  0  0
 21 24  1  0  0  0  0
 22 21  2  0  0  0  0
 22 23  1  0  0  0  0
 23 25  1  0  0  0  0
 26 23  1  0  0  0  0
M  END
>  <minimizedAffinity>
-5.34864807

>  <minimizedRMSD>
0.430889696

$$$$
