
 OpenBabel03272510223D

 24 26  0  0  0  0  0  0  0  0999 V2000
   36.6710   30.4810   46.9840 C   0  0  0  0  0  0  0  0  0  0  0  0
   37.3600   30.9490   48.0950 C   0  0  0  0  0  0  0  0  0  0  0  0
   38.3640   31.8660   47.9450 C   0  0  0  0  0  0  0  0  0  0  0  0
   38.6700   32.3080   46.6700 C   0  0  0  0  0  0  0  0  0  0  0  0
   39.6170   33.2040   46.2940 N   0  0  0  0  0  0  0  0  0  0  0  0
   39.5400   33.3140   44.9490 C   0  0  0  0  0  0  0  0  0  0  0  0
   38.5740   32.5150   44.4730 N   0  0  0  0  0  0  0  0  0  0  0  0
   38.0040   31.8670   45.5190 C   0  0  0  0  0  0  0  0  0  0  0  0
   36.9950   30.9400   45.7060 C   0  0  0  0  0  0  0  0  0  0  0  0
   35.8690   29.7560   47.0530 H   0  0  0  0  0  0  0  0  0  0  0  0
   38.9070   32.2350   48.8060 H   0  0  0  0  0  0  0  0  0  0  0  0
   40.3030   33.7400   46.8700 H   0  0  0  0  0  0  0  0  0  0  0  0
   36.4730   30.5920   44.8260 H   0  0  0  0  0  0  0  0  0  0  0  0
   37.2630   29.9840   51.7350 C   0  0  0  0  0  0  0  0  0  0  0  0
   37.7320   30.5230   50.5420 C   0  0  0  0  0  0  0  0  0  0  0  0
   36.9580   30.4170   49.3920 C   0  0  0  0  0  0  0  0  0  0  0  0
   35.7560   29.7810   49.4740 N   0  0  0  0  0  0  0  0  0  0  0  0
   35.3190   29.2630   50.6490 C   0  0  0  0  0  0  0  0  0  0  0  0
   36.0700   29.3670   51.7590 N   0  0  0  0  0  0  0  0  0  0  0  0
   37.9040   30.0950   52.5950 H   0  0  0  0  0  0  0  0  0  0  0  0
   38.6710   31.0180   50.4870 H   0  0  0  0  0  0  0  0  0  0  0  0
   34.3760   28.7560   50.7440 H   0  0  0  0  0  0  0  0  0  0  0  0
   40.3020   34.1240   43.9820 C   0  0  0  0  0  2  0  0  0  0  0  0
   40.6820   35.0690   44.4340 H   0  0  0  0  0  0  0  0  0  0  0  0
  1 10  1  0  0  0  0
  1  2  1  0  0  0  0
  2 16  1  0  0  0  0
  3  2  2  0  0  0  0
  3 11  1  0  0  0  0
  4  3  1  0  0  0  0
  5  4  1  0  0  0  0
  5 12  1  0  0  0  0
  6  5  1  0  0  0  0
  7  6  2  0  0  0  0
  7  8  1  0  0  0  0
  8  9  1  0  0  0  0
  8  4  2  0  0  0  0
  9  1  2  0  0  0  0
 13  9  1  0  0  0  0
 14 19  1  0  0  0  0
 14 20  1  0  0  0  0
 15 14  2  0  0  0  0
 16 17  2  0  0  0  0
 16 15  1  0  0  0  0
 17 18  1  0  0  0  0
 18 22  1  0  0  0  0
 18 19  2  0  0  0  0
 21 15  1  0  0  0  0
 23 24  1  0  0  0  0
 23  6  1  0  0  0  0
M  END
>  <minimizedAffinity>
-5.56521893

>  <minimizedRMSD>
0.462711781

$$$$
