
 OpenBabel03272504143D

 24 25  0  0  0  0  0  0  0  0999 V2000
   38.7970   23.0880   37.2390 C   0  0  0  0  0  0  0  0  0  0  0  0
   37.9020   22.9560   36.1780 C   0  0  0  0  0  0  0  0  0  0  0  0
   38.3230   22.4280   34.9670 C   0  0  0  0  0  0  0  0  0  0  0  0
   39.6430   22.0570   34.8980 N   0  0  0  0  0  0  0  0  0  0  0  0
   40.4920   22.1880   35.9230 C   0  0  0  0  0  0  0  0  0  0  0  0
   40.0670   22.7010   37.0820 N   0  0  0  0  0  0  0  0  0  0  0  0
   36.8630   23.2490   36.2370 H   0  0  0  0  0  0  0  0  0  0  0  0
   41.5280   21.8870   35.8390 H   0  0  0  0  0  0  0  0  0  0  0  0
   38.3670   24.7670   33.0500 Cl  0  0  0  0  0  0  0  0  0  0  0  0
   37.3880   23.3090   32.9090 C   0  0  0  0  0  0  0  0  0  0  0  0
   37.4290   22.2740   33.8450 C   0  0  0  0  0  0  0  0  0  0  0  0
   36.6170   21.2190   33.6050 C   0  0  0  0  0  0  0  0  0  0  0  0
   35.7990   21.1580   32.5120 C   0  0  0  0  0  0  0  0  0  0  0  0
   35.7380   22.1560   31.5790 C   0  0  0  0  0  0  0  0  0  0  0  0
   36.5710   23.2580   31.8100 C   0  0  0  0  0  0  0  0  0  0  0  0
   36.6370   20.4030   34.3260 H   0  0  0  0  0  0  0  0  0  0  0  0
   35.1710   20.2720   32.3850 H   0  0  0  0  0  0  0  0  0  0  0  0
   35.1040   22.1380   30.7090 H   0  0  0  0  0  0  0  0  0  0  0  0
   36.5170   24.3640   30.7940 C   0  0  0  0  0  2  0  0  0  0  0  0
   36.7250   23.9230   29.7890 H   0  0  0  0  0  0  0  0  0  0  0  0
   38.2990   23.6670   38.5340 C   0  0  0  0  0  0  0  0  0  0  0  0
   37.9210   24.9810   38.3310 F   0  0  0  0  0  0  0  0  0  0  0  0
   37.3170   22.8540   38.9890 F   0  0  0  0  0  0  0  0  0  0  0  0
   39.3820   23.6770   39.4160 F   0  0  0  0  0  0  0  0  0  0  0  0
  1 21  1  0  0  0  0
  2  7  1  0  0  0  0
  2  1  2  0  0  0  0
  3  2  1  0  0  0  0
  4  3  2  0  0  0  0
  4  5  1  0  0  0  0
  5  6  2  0  0  0  0
  6  1  1  0  0  0  0
  8  5  1  0  0  0  0
 10  9  1  0  0  0  0
 10 11  1  0  0  0  0
 11  3  1  0  0  0  0
 12 11  2  0  0  0  0
 12 16  1  0  0  0  0
 13 12  1  0  0  0  0
 14 15  1  0  0  0  0
 14 13  2  0  0  0  0
 15 10  2  0  0  0  0
 17 13  1  0  0  0  0
 18 14  1  0  0  0  0
 19 15  1  0  0  0  0
 20 19  1  0  0  0  0
 21 23  1  0  0  0  0
 21 24  1  0  0  0  0
 22 21  1  0  0  0  0
M  END
>  <minimizedAffinity>
-5.3961134

$$$$

 OpenBabel03272504143D

 24 25  0  0  0  0  0  0  0  0999 V2000
   38.7680   24.0660   36.7530 C   0  0  0  0  0  0  0  0  0  0  0  0
   37.9820   24.9060   35.9650 C   0  0  0  0  0  0  0  0  0  0  0  0
   38.3530   25.1900   34.6590 C   0  0  0  0  0  0  0  0  0  0  0  0
   39.5130   24.6000   34.2190 N   0  0  0  0  0  0  0  0  0  0  0  0
   40.2580   23.7960   34.9860 C   0  0  0  0  0  0  0  0  0  0  0  0
   39.8840   23.5350   36.2420 N   0  0  0  0  0  0  0  0  0  0  0  0
   37.0710   25.3680   36.3140 H   0  0  0  0  0  0  0  0  0  0  0  0
   41.1680   23.3450   34.6120 H   0  0  0  0  0  0  0  0  0  0  0  0
   36.9600   23.7340   32.4040 Cl  0  0  0  0  0  0  0  0  0  0  0  0
   36.8910   25.4600   32.7420 C   0  0  0  0  0  0  0  0  0  0  0  0
   37.5690   26.0530   33.8090 C   0  0  0  0  0  0  0  0  0  0  0  0
   37.4230   27.3910   33.9400 C   0  0  0  0  0  0  0  0  0  0  0  0
   36.6580   28.1330   33.0840 C   0  0  0  0  0  0  0  0  0  0  0  0
   35.9830   27.5800   32.0310 C   0  0  0  0  0  0  0  0  0  0  0  0
   36.1210   26.1940   31.8780 C   0  0  0  0  0  0  0  0  0  0  0  0
   37.9460   27.8690   34.7680 H   0  0  0  0  0  0  0  0  0  0  0  0
   36.5870   29.2100   33.2550 H   0  0  0  0  0  0  0  0  0  0  0  0
   35.3730   28.1360   31.3400 H   0  0  0  0  0  0  0  0  0  0  0  0
   35.3850   25.5710   30.7260 C   0  0  0  0  0  2  0  0  0  0  0  0
   34.3060   25.8470   30.8130 H   0  0  0  0  0  0  0  0  0  0  0  0
   38.3300   23.7850   38.1630 C   0  0  0  0  0  0  0  0  0  0  0  0
   37.2390   22.9360   38.1410 F   0  0  0  0  0  0  0  0  0  0  0  0
   39.4080   23.3120   38.8340 F   0  0  0  0  0  0  0  0  0  0  0  0
   37.9030   24.9990   38.7060 F   0  0  0  0  0  0  0  0  0  0  0  0
  1 21  1  0  0  0  0
  2  7  1  0  0  0  0
  2  1  2  0  0  0  0
  3  2  1  0  0  0  0
  4  3  2  0  0  0  0
  4  5  1  0  0  0  0
  5  6  2  0  0  0  0
  6  1  1  0  0  0  0
  8  5  1  0  0  0  0
  9 10  1  0  0  0  0
 10 11  1  0  0  0  0
 11 12  2  0  0  0  0
 11  3  1  0  0  0  0
 12 16  1  0  0  0  0
 13 17  1  0  0  0  0
 13 12  1  0  0  0  0
 14 13  2  0  0  0  0
 15 14  1  0  0  0  0
 15 10  2  0  0  0  0
 18 14  1  0  0  0  0
 19 20  1  0  0  0  0
 19 15  1  0  0  0  0
 21 24  1  0  0  0  0
 21 23  1  0  0  0  0
 22 21  1  0  0  0  0
M  END
>  <minimizedAffinity>
-5.35347891

$$$$

 OpenBabel03272504143D

 24 25  0  0  0  0  0  0  0  0999 V2000
   38.8340   23.3200   37.1640 C   0  0  0  0  0  0  0  0  0  0  0  0
   38.1840   23.6850   35.9860 C   0  0  0  0  0  0  0  0  0  0  0  0
   38.6910   23.2950   34.7560 C   0  0  0  0  0  0  0  0  0  0  0  0
   39.8420   22.5460   34.7880 N   0  0  0  0  0  0  0  0  0  0  0  0
   40.4560   22.2010   35.9250 C   0  0  0  0  0  0  0  0  0  0  0  0
   39.9520   22.5890   37.1010 N   0  0  0  0  0  0  0  0  0  0  0  0
   37.2790   24.2750   35.9650 H   0  0  0  0  0  0  0  0  0  0  0  0
   41.3620   21.6100   35.9200 H   0  0  0  0  0  0  0  0  0  0  0  0
   36.8520   21.1480   33.6800 Cl  0  0  0  0  0  0  0  0  0  0  0  0
   37.1810   22.7150   32.9470 C   0  0  0  0  0  0  0  0  0  0  0  0
   38.0500   23.6500   33.5130 C   0  0  0  0  0  0  0  0  0  0  0  0
   38.2060   24.8090   32.8330 C   0  0  0  0  0  0  0  0  0  0  0  0
   37.5560   25.0610   31.6570 C   0  0  0  0  0  0  0  0  0  0  0  0
   36.7000   24.1650   31.0790 C   0  0  0  0  0  0  0  0  0  0  0  0
   36.5250   22.9580   31.7690 C   0  0  0  0  0  0  0  0  0  0  0  0
   38.8800   25.5500   33.2610 H   0  0  0  0  0  0  0  0  0  0  0  0
   37.7320   26.0210   31.1650 H   0  0  0  0  0  0  0  0  0  0  0  0
   36.1750   24.3330   30.1560 H   0  0  0  0  0  0  0  0  0  0  0  0
   35.5870   21.9610   31.1480 C   0  0  0  0  0  2  0  0  0  0  0  0
   34.6030   22.4640   30.9870 H   0  0  0  0  0  0  0  0  0  0  0  0
   38.2510   23.7650   38.4760 C   0  0  0  0  0  0  0  0  0  0  0  0
   37.8440   25.0830   38.3710 F   0  0  0  0  0  0  0  0  0  0  0  0
   37.2710   22.8890   38.8010 F   0  0  0  0  0  0  0  0  0  0  0  0
   39.2850   23.7230   39.4140 F   0  0  0  0  0  0  0  0  0  0  0  0
  1 21  1  0  0  0  0
  2  1  2  0  0  0  0
  3  4  2  0  0  0  0
  3  2  1  0  0  0  0
  4  5  1  0  0  0  0
  5  6  2  0  0  0  0
  6  1  1  0  0  0  0
  7  2  1  0  0  0  0
  8  5  1  0  0  0  0
 10 11  1  0  0  0  0
 10  9  1  0  0  0  0
 11  3  1  0  0  0  0
 12 16  1  0  0  0  0
 12 11  2  0  0  0  0
 13 12  1  0  0  0  0
 14 13  2  0  0  0  0
 14 15  1  0  0  0  0
 15 10  2  0  0  0  0
 17 13  1  0  0  0  0
 18 14  1  0  0  0  0
 19 15  1  0  0  0  0
 20 19  1  0  0  0  0
 21 23  1  0  0  0  0
 21 24  1  0  0  0  0
 22 21  1  0  0  0  0
M  END
>  <minimizedAffinity>
-5.27013779

$$$$

 OpenBabel03272504143D

 24 25  0  0  0  0  0  0  0  0999 V2000
   40.0840   22.3420   36.9650 C   0  0  0  0  0  0  0  0  0  0  0  0
   39.3290   21.9470   35.8620 C   0  0  0  0  0  0  0  0  0  0  0  0
   37.9860   22.2850   35.7750 C   0  0  0  0  0  0  0  0  0  0  0  0
   37.4780   23.0130   36.8220 N   0  0  0  0  0  0  0  0  0  0  0  0
   38.2140   23.3860   37.8750 C   0  0  0  0  0  0  0  0  0  0  0  0
   39.5050   23.0510   37.9410 N   0  0  0  0  0  0  0  0  0  0  0  0
   39.7320   21.3740   35.0400 H   0  0  0  0  0  0  0  0  0  0  0  0
   37.7860   23.9600   38.6860 H   0  0  0  0  0  0  0  0  0  0  0  0
   38.4560   23.9560   33.2980 Cl  0  0  0  0  0  0  0  0  0  0  0  0
   37.3240   22.6170   33.4640 C   0  0  0  0  0  0  0  0  0  0  0  0
   37.1700   21.8970   34.6510 C   0  0  0  0  0  0  0  0  0  0  0  0
   36.2590   20.8970   34.6280 C   0  0  0  0  0  0  0  0  0  0  0  0
   35.5250   20.5990   33.5140 C   0  0  0  0  0  0  0  0  0  0  0  0
   35.6550   21.2870   32.3390 C   0  0  0  0  0  0  0  0  0  0  0  0
   36.5940   22.3260   32.3420 C   0  0  0  0  0  0  0  0  0  0  0  0
   36.1250   20.3250   35.5450 H   0  0  0  0  0  0  0  0  0  0  0  0
   34.8080   19.7760   33.5720 H   0  0  0  0  0  0  0  0  0  0  0  0
   35.0930   21.0770   31.4460 H   0  0  0  0  0  0  0  0  0  0  0  0
   36.7500   23.0920   31.0580 C   0  0  0  0  0  2  0  0  0  0  0  0
   36.9800   22.3620   30.2450 H   0  0  0  0  0  0  0  0  0  0  0  0
   41.5350   21.9550   37.0210 C   0  0  0  0  0  0  0  0  0  0  0  0
   42.3120   23.0990   37.0540 F   0  0  0  0  0  0  0  0  0  0  0  0
   41.6920   21.1270   38.0810 F   0  0  0  0  0  0  0  0  0  0  0  0
   41.8250   21.2900   35.8270 F   0  0  0  0  0  0  0  0  0  0  0  0
  1 21  1  0  0  0  0
  1  6  1  0  0  0  0
  2  1  2  0  0  0  0
  3  2  1  0  0  0  0
  3  4  2  0  0  0  0
  4  5  1  0  0  0  0
  5  6  2  0  0  0  0
  5  8  1  0  0  0  0
  7  2  1  0  0  0  0
  9 10  1  0  0  0  0
 10 11  1  0  0  0  0
 11  3  1  0  0  0  0
 12 11  2  0  0  0  0
 12 16  1  0  0  0  0
 13 17  1  0  0  0  0
 13 12  1  0  0  0  0
 14 15  1  0  0  0  0
 14 13  2  0  0  0  0
 15 10  2  0  0  0  0
 18 14  1  0  0  0  0
 19 15  1  0  0  0  0
 20 19  1  0  0  0  0
 21 22  1  0  0  0  0
 21 23  1  0  0  0  0
 24 21  1  0  0  0  0
M  END
>  <minimizedAffinity>
-5.11795187

$$$$

 OpenBabel03272504143D

 24 25  0  0  0  0  0  0  0  0999 V2000
   38.2090   23.4950   36.7790 C   0  0  0  0  0  0  0  0  0  0  0  0
   38.1710   24.6080   35.9420 C   0  0  0  0  0  0  0  0  0  0  0  0
   38.1560   24.4490   34.5640 C   0  0  0  0  0  0  0  0  0  0  0  0
   38.1790   23.1540   34.1060 N   0  0  0  0  0  0  0  0  0  0  0  0
   38.2150   22.0940   34.9210 C   0  0  0  0  0  0  0  0  0  0  0  0
   38.2300   22.2680   36.2450 N   0  0  0  0  0  0  0  0  0  0  0  0
   38.1540   25.6250   36.3060 H   0  0  0  0  0  0  0  0  0  0  0  0
   38.2320   21.0850   34.5310 H   0  0  0  0  0  0  0  0  0  0  0  0
   40.8230   25.0690   33.2790 Cl  0  0  0  0  0  0  0  0  0  0  0  0
   39.3080   25.9290   33.0240 C   0  0  0  0  0  0  0  0  0  0  0  0
   38.1170   25.5740   33.6620 C   0  0  0  0  0  0  0  0  0  0  0  0
   37.0350   26.3310   33.3690 C   0  0  0  0  0  0  0  0  0  0  0  0
   37.0900   27.3840   32.5000 C   0  0  0  0  0  0  0  0  0  0  0  0
   38.2410   27.7540   31.8610 C   0  0  0  0  0  0  0  0  0  0  0  0
   39.3740   26.9830   32.1510 C   0  0  0  0  0  0  0  0  0  0  0  0
   36.0980   26.0680   33.8590 H   0  0  0  0  0  0  0  0  0  0  0  0
   36.1730   27.9480   32.3120 H   0  0  0  0  0  0  0  0  0  0  0  0
   38.3170   28.5770   31.1720 H   0  0  0  0  0  0  0  0  0  0  0  0
   40.6470   27.3750   31.4560 C   0  0  0  0  0  2  0  0  0  0  0  0
   40.4540   27.3840   30.3560 H   0  0  0  0  0  0  0  0  0  0  0  0
   38.2260   23.7120   38.2660 C   0  0  0  0  0  0  0  0  0  0  0  0
   38.0260   25.0540   38.5340 F   0  0  0  0  0  0  0  0  0  0  0  0
   37.3050   22.8780   38.8070 F   0  0  0  0  0  0  0  0  0  0  0  0
   39.5090   23.3850   38.7100 F   0  0  0  0  0  0  0  0  0  0  0  0
  1 21  1  0  0  0  0
  2  7  1  0  0  0  0
  2  1  2  0  0  0  0
  3  2  1  0  0  0  0
  4  3  2  0  0  0  0
  4  5  1  0  0  0  0
  5  6  2  0  0  0  0
  6  1  1  0  0  0  0
  8  5  1  0  0  0  0
 10  9  1  0  0  0  0
 10 11  1  0  0  0  0
 11  3  1  0  0  0  0
 12 11  2  0  0  0  0
 12 16  1  0  0  0  0
 13 12  1  0  0  0  0
 14 15  1  0  0  0  0
 14 13  2  0  0  0  0
 15 10  2  0  0  0  0
 17 13  1  0  0  0  0
 18 14  1  0  0  0  0
 19 15  1  0  0  0  0
 20 19  1  0  0  0  0
 21 22  1  0  0  0  0
 21 24  1  0  0  0  0
 21 23  1  0  0  0  0
M  END
>  <minimizedAffinity>
-5.11007929

$$$$

 OpenBabel03272504143D

 24 25  0  0  0  0  0  0  0  0999 V2000
   37.5540   24.9890   32.2450 C   0  0  0  0  0  0  0  0  0  0  0  0
   37.6570   24.4210   33.5140 C   0  0  0  0  0  0  0  0  0  0  0  0
   38.4510   25.0140   34.4840 C   0  0  0  0  0  0  0  0  0  0  0  0
   39.1030   26.1640   34.1110 N   0  0  0  0  0  0  0  0  0  0  0  0
   38.9950   26.6990   32.8900 C   0  0  0  0  0  0  0  0  0  0  0  0
   38.2260   26.1130   31.9680 N   0  0  0  0  0  0  0  0  0  0  0  0
   37.1430   23.5160   33.8030 H   0  0  0  0  0  0  0  0  0  0  0  0
   39.5210   27.6070   32.6240 H   0  0  0  0  0  0  0  0  0  0  0  0
   40.6940   23.0000   34.7370 Cl  0  0  0  0  0  0  0  0  0  0  0  0
   39.5980   23.5200   36.0140 C   0  0  0  0  0  0  0  0  0  0  0  0
   38.5850   24.4590   35.8090 C   0  0  0  0  0  0  0  0  0  0  0  0
   37.8200   24.7560   36.8850 C   0  0  0  0  0  0  0  0  0  0  0  0
   38.0190   24.1780   38.1080 C   0  0  0  0  0  0  0  0  0  0  0  0
   39.0030   23.2570   38.3370 C   0  0  0  0  0  0  0  0  0  0  0  0
   39.8060   22.9350   37.2350 C   0  0  0  0  0  0  0  0  0  0  0  0
   37.0250   25.4860   36.7420 H   0  0  0  0  0  0  0  0  0  0  0  0
   37.3610   24.4700   38.9300 H   0  0  0  0  0  0  0  0  0  0  0  0
   39.1840   22.7850   39.2870 H   0  0  0  0  0  0  0  0  0  0  0  0
   40.8930   21.9240   37.4710 C   0  0  0  0  0  2  0  0  0  0  0  0
   41.5230   22.2840   38.3200 H   0  0  0  0  0  0  0  0  0  0  0  0
   36.6840   24.3140   31.2210 C   0  0  0  0  0  0  0  0  0  0  0  0
   37.4700   23.8810   30.1690 F   0  0  0  0  0  0  0  0  0  0  0  0
   35.9940   23.3390   31.8580 F   0  0  0  0  0  0  0  0  0  0  0  0
   35.8170   25.2880   30.7200 F   0  0  0  0  0  0  0  0  0  0  0  0
  1  2  1  0  0  0  0
  2  7  1  0  0  0  0
  2  3  2  0  0  0  0
  3 11  1  0  0  0  0
  4  3  1  0  0  0  0
  5  4  2  0  0  0  0
  6  1  2  0  0  0  0
  6  5  1  0  0  0  0
  8  5  1  0  0  0  0
  9 10  1  0  0  0  0
 10 15  1  0  0  0  0
 11 10  2  0  0  0  0
 11 12  1  0  0  0  0
 12 13  2  0  0  0  0
 13 14  1  0  0  0  0
 13 17  1  0  0  0  0
 14 18  1  0  0  0  0
 15 19  1  0  0  0  0
 15 14  2  0  0  0  0
 16 12  1  0  0  0  0
 19 20  1  0  0  0  0
 21 23  1  0  0  0  0
 21  1  1  0  0  0  0
 22 21  1  0  0  0  0
 24 21  1  0  0  0  0
M  END
>  <minimizedAffinity>
-5.09450293

$$$$

 OpenBabel03272504143D

 24 25  0  0  0  0  0  0  0  0999 V2000
   38.9790   23.7750   36.3980 C   0  0  0  0  0  0  0  0  0  0  0  0
   38.0310   24.0110   35.4040 C   0  0  0  0  0  0  0  0  0  0  0  0
   38.4200   24.1360   34.0790 C   0  0  0  0  0  0  0  0  0  0  0  0
   39.7650   24.0110   33.8310 N   0  0  0  0  0  0  0  0  0  0  0  0
   40.6650   23.7840   34.7930 C   0  0  0  0  0  0  0  0  0  0  0  0
   40.2710   23.6680   36.0650 N   0  0  0  0  0  0  0  0  0  0  0  0
   36.9730   24.1090   35.6040 H   0  0  0  0  0  0  0  0  0  0  0  0
   41.7190   23.6900   34.5680 H   0  0  0  0  0  0  0  0  0  0  0  0
   37.8800   27.0710   33.5860 Cl  0  0  0  0  0  0  0  0  0  0  0  0
   37.1640   25.7110   32.7260 C   0  0  0  0  0  0  0  0  0  0  0  0
   37.4700   24.3810   33.0210 C   0  0  0  0  0  0  0  0  0  0  0  0
   36.8380   23.4440   32.2770 C   0  0  0  0  0  0  0  0  0  0  0  0
   35.9490   23.7680   31.2910 C   0  0  0  0  0  0  0  0  0  0  0  0
   35.6300   25.0610   30.9810 C   0  0  0  0  0  0  0  0  0  0  0  0
   36.2740   26.0470   31.7400 C   0  0  0  0  0  0  0  0  0  0  0  0
   37.0660   22.4010   32.4940 H   0  0  0  0  0  0  0  0  0  0  0  0
   35.4780   22.9550   30.7320 H   0  0  0  0  0  0  0  0  0  0  0  0
   34.9340   25.3480   30.2120 H   0  0  0  0  0  0  0  0  0  0  0  0
   35.9350   27.4740   31.4110 C   0  0  0  0  0  2  0  0  0  0  0  0
   36.1260   27.6340   30.3230 H   0  0  0  0  0  0  0  0  0  0  0  0
   38.5160   23.6470   37.8220 C   0  0  0  0  0  0  0  0  0  0  0  0
   37.3790   22.8600   37.8630 F   0  0  0  0  0  0  0  0  0  0  0  0
   39.5600   23.1800   38.5470 F   0  0  0  0  0  0  0  0  0  0  0  0
   38.1510   24.9270   38.2460 F   0  0  0  0  0  0  0  0  0  0  0  0
  1 21  1  0  0  0  0
  2  7  1  0  0  0  0
  2  1  2  0  0  0  0
  3  2  1  0  0  0  0
  4  3  2  0  0  0  0
  4  5  1  0  0  0  0
  5  6  2  0  0  0  0
  6  1  1  0  0  0  0
  8  5  1  0  0  0  0
 10 11  1  0  0  0  0
 10  9  1  0  0  0  0
 11  3  1  0  0  0  0
 12 16  1  0  0  0  0
 12 11  2  0  0  0  0
 13 12  1  0  0  0  0
 14 13  2  0  0  0  0
 14 15  1  0  0  0  0
 15 10  2  0  0  0  0
 17 13  1  0  0  0  0
 18 14  1  0  0  0  0
 19 15  1  0  0  0  0
 20 19  1  0  0  0  0
 21 22  1  0  0  0  0
 21 24  1  0  0  0  0
 21 23  1  0  0  0  0
M  END
>  <minimizedAffinity>
-5.09096956

$$$$

 OpenBabel03272504143D

 24 25  0  0  0  0  0  0  0  0999 V2000
   36.2810   21.3910   32.7240 C   0  0  0  0  0  0  0  0  0  0  0  0
   36.9140   21.4770   33.9630 C   0  0  0  0  0  0  0  0  0  0  0  0
   37.6930   22.5800   34.2770 C   0  0  0  0  0  0  0  0  0  0  0  0
   37.7870   23.5480   33.3070 N   0  0  0  0  0  0  0  0  0  0  0  0
   37.1750   23.4540   32.1220 C   0  0  0  0  0  0  0  0  0  0  0  0
   36.4290   22.3820   31.8380 N   0  0  0  0  0  0  0  0  0  0  0  0
   36.8370   20.7130   34.7240 H   0  0  0  0  0  0  0  0  0  0  0  0
   37.2680   24.2320   31.3760 H   0  0  0  0  0  0  0  0  0  0  0  0
   40.5810   21.6840   34.2200 Cl  0  0  0  0  0  0  0  0  0  0  0  0
   39.7030   22.3170   35.6100 C   0  0  0  0  0  0  0  0  0  0  0  0
   38.3640   22.7080   35.5480 C   0  0  0  0  0  0  0  0  0  0  0  0
   37.8240   23.1710   36.6980 C   0  0  0  0  0  0  0  0  0  0  0  0
   38.5370   23.2570   37.8610 C   0  0  0  0  0  0  0  0  0  0  0  0
   39.8490   22.8820   37.9510 C   0  0  0  0  0  0  0  0  0  0  0  0
   40.4270   22.3990   36.7700 C   0  0  0  0  0  0  0  0  0  0  0  0
   36.7800   23.4800   36.6670 H   0  0  0  0  0  0  0  0  0  0  0  0
   38.0320   23.6430   38.7500 H   0  0  0  0  0  0  0  0  0  0  0  0
   40.4370   22.9370   38.8500 H   0  0  0  0  0  0  0  0  0  0  0  0
   41.8690   21.9830   36.8520 C   0  0  0  0  0  2  0  0  0  0  0  0
   42.4570   22.8460   37.2490 H   0  0  0  0  0  0  0  0  0  0  0  0
   35.4460   20.1770   32.4230 C   0  0  0  0  0  0  0  0  0  0  0  0
   35.8870   19.6020   31.2450 F   0  0  0  0  0  0  0  0  0  0  0  0
   35.5010   19.3700   33.5080 F   0  0  0  0  0  0  0  0  0  0  0  0
   34.1420   20.6250   32.2060 F   0  0  0  0  0  0  0  0  0  0  0  0
  1  2  1  0  0  0  0
  2  3  2  0  0  0  0
  2  7  1  0  0  0  0
  3 11  1  0  0  0  0
  4  3  1  0  0  0  0
  5  4  2  0  0  0  0
  6  5  1  0  0  0  0
  6  1  2  0  0  0  0
  8  5  1  0  0  0  0
  9 10  1  0  0  0  0
 10 15  1  0  0  0  0
 11 10  2  0  0  0  0
 11 12  1  0  0  0  0
 12 13  2  0  0  0  0
 13 14  1  0  0  0  0
 13 17  1  0  0  0  0
 14 18  1  0  0  0  0
 15 19  1  0  0  0  0
 15 14  2  0  0  0  0
 16 12  1  0  0  0  0
 19 20  1  0  0  0  0
 21  1  1  0  0  0  0
 21 23  1  0  0  0  0
 22 21  1  0  0  0  0
 24 21  1  0  0  0  0
M  END
>  <minimizedAffinity>
-5.07798338

$$$$

 OpenBabel03272504143D

 24 25  0  0  0  0  0  0  0  0999 V2000
   37.4440   26.1100   32.9190 C   0  0  0  0  0  0  0  0  0  0  0  0
   37.8010   25.7640   34.2210 C   0  0  0  0  0  0  0  0  0  0  0  0
   37.9610   24.4320   34.5730 C   0  0  0  0  0  0  0  0  0  0  0  0
   37.7490   23.5140   33.5730 N   0  0  0  0  0  0  0  0  0  0  0  0
   37.4060   23.8600   32.3270 C   0  0  0  0  0  0  0  0  0  0  0  0
   37.2550   25.1480   32.0080 N   0  0  0  0  0  0  0  0  0  0  0  0
   37.9680   26.4880   35.0040 H   0  0  0  0  0  0  0  0  0  0  0  0
   37.2440   23.1140   31.5600 H   0  0  0  0  0  0  0  0  0  0  0  0
   40.4680   22.7420   34.6820 Cl  0  0  0  0  0  0  0  0  0  0  0  0
   39.4790   23.2470   36.0490 C   0  0  0  0  0  0  0  0  0  0  0  0
   38.3310   24.0300   35.9080 C   0  0  0  0  0  0  0  0  0  0  0  0
   37.6730   24.3360   37.0500 C   0  0  0  0  0  0  0  0  0  0  0  0
   38.0970   23.9090   38.2770 C   0  0  0  0  0  0  0  0  0  0  0  0
   39.2160   23.1420   38.4460 C   0  0  0  0  0  0  0  0  0  0  0  0
   39.9120   22.8140   37.2750 C   0  0  0  0  0  0  0  0  0  0  0  0
   36.7750   24.9460   36.9570 H   0  0  0  0  0  0  0  0  0  0  0  0
   37.5130   24.1980   39.1540 H   0  0  0  0  0  0  0  0  0  0  0  0
   39.5750   22.7910   39.3970 H   0  0  0  0  0  0  0  0  0  0  0  0
   41.1460   21.9720   37.4430 C   0  0  0  0  0  2  0  0  0  0  0  0
   41.8230   22.4880   38.1670 H   0  0  0  0  0  0  0  0  0  0  0  0
   37.2790   27.5650   32.5800 C   0  0  0  0  0  0  0  0  0  0  0  0
   36.9380   28.2640   33.7230 F   0  0  0  0  0  0  0  0  0  0  0  0
   38.4230   27.9730   31.9810 F   0  0  0  0  0  0  0  0  0  0  0  0
   36.2000   27.6570   31.6980 F   0  0  0  0  0  0  0  0  0  0  0  0
  1  2  1  0  0  0  0
  2  3  2  0  0  0  0
  2  7  1  0  0  0  0
  3 11  1  0  0  0  0
  4  3  1  0  0  0  0
  5  4  2  0  0  0  0
  6  5  1  0  0  0  0
  6  1  2  0  0  0  0
  8  5  1  0  0  0  0
  9 10  1  0  0  0  0
 10 15  1  0  0  0  0
 11 10  2  0  0  0  0
 11 12  1  0  0  0  0
 12 13  2  0  0  0  0
 13 14  1  0  0  0  0
 13 17  1  0  0  0  0
 14 18  1  0  0  0  0
 15 19  1  0  0  0  0
 15 14  2  0  0  0  0
 16 12  1  0  0  0  0
 19 20  1  0  0  0  0
 21  1  1  0  0  0  0
 21 22  1  0  0  0  0
 23 21  1  0  0  0  0
 24 21  1  0  0  0  0
M  END
>  <minimizedAffinity>
-5.07349348

$$$$
