
 OpenBabel03272506573D

 21 22  0  0  0  0  0  0  0  0999 V2000
   35.7520   30.0930   48.0820 C   0  0  0  0  0  0  0  0  0  0  0  0
   36.2390   29.8960   49.3670 C   0  0  0  0  0  0  0  0  0  0  0  0
   37.5830   30.2450   49.5490 C   0  0  0  0  0  0  0  0  0  0  0  0
   38.3120   30.7350   48.5160 N   0  0  0  0  0  0  0  0  0  0  0  0
   37.7720   30.8990   47.2980 C   0  0  0  0  0  0  0  0  0  0  0  0
   36.4800   30.5820   47.0530 N   0  0  0  0  0  0  0  0  0  0  0  0
   34.6950   29.8140   47.9580 H   0  0  0  0  0  0  0  0  0  0  0  0
   38.0360   30.1190   50.5250 H   0  0  0  0  0  0  0  0  0  0  0  0
   38.5370   31.4230   46.1720 C   0  0  0  0  0  0  0  0  0  0  0  0
   39.9020   31.4840   46.1920 C   0  0  0  0  0  0  0  0  0  0  0  0
   40.7240   31.9610   45.1870 C   0  0  0  0  0  0  0  0  0  0  0  0
   40.0800   32.4060   44.0790 N   0  0  0  0  0  0  0  0  0  0  0  0
   38.7200   32.3610   44.0210 C   0  0  0  0  0  0  0  0  0  0  0  0
   37.9460   31.8830   45.0370 N   0  0  0  0  0  0  0  0  0  0  0  0
   40.4210   31.1300   47.0780 H   0  0  0  0  0  0  0  0  0  0  0  0
   41.8010   31.9760   45.2800 H   0  0  0  0  0  0  0  0  0  0  0  0
   38.0120   32.8500   42.8040 C   0  0  0  0  0  0  0  0  0  0  0  0
   38.5300   33.7710   42.4460 H   0  0  0  0  0  0  0  0  0  0  0  0
   35.4510   29.3850   50.4160 N   0  0  0  0  0  0  0  0  0  0  0  0
   34.8420   29.9560   51.0450 H   0  0  0  0  0  0  0  0  0  0  0  0
   35.5540   28.3370   50.4870 H   0  0  0  0  0  0  0  0  0  0  0  0
  1  2  1  0  0  0  0
  2  3  2  0  0  0  0
  2 19  1  0  0  0  0
  3  8  1  0  0  0  0
  4  3  1  0  0  0  0
  5  4  2  0  0  0  0
  6  5  1  0  0  0  0
  6  1  2  0  0  0  0
  7  1  1  0  0  0  0
  9 10  1  0  0  0  0
  9  5  1  0  0  0  0
 10 15  1  0  0  0  0
 11 16  1  0  0  0  0
 11 10  2  0  0  0  0
 12 11  1  0  0  0  0
 13 12  2  0  0  0  0
 13 14  1  0  0  0  0
 14  9  2  0  0  0  0
 17 13  1  0  0  0  0
 18 17  1  0  0  0  0
 19 21  1  0  0  0  0
 19 20  1  0  0  0  0
M  END
>  <minimizedAffinity>
-4.23830605

>  <minimizedRMSD>
0.406040341

$$$$
