
 OpenBabel03272510323D

 21 22  0  0  0  0  0  0  0  0999 V2000
   36.0420   30.1920   48.6520 C   0  0  0  0  0  0  0  0  0  0  0  0
   35.0430   30.2280   47.6970 C   0  0  0  0  0  0  0  0  0  0  0  0
   34.0100   29.3150   47.7290 C   0  0  0  0  0  0  0  0  0  0  0  0
   34.0000   28.3630   48.7400 C   0  0  0  0  0  0  0  0  0  0  0  0
   34.9930   28.3120   49.7040 C   0  0  0  0  0  0  0  0  0  0  0  0
   36.0180   29.2380   49.6530 C   0  0  0  0  0  0  0  0  0  0  0  0
   35.0490   30.9690   46.9090 H   0  0  0  0  0  0  0  0  0  0  0  0
   33.2230   29.3560   46.9630 H   0  0  0  0  0  0  0  0  0  0  0  0
   33.1760   27.6550   48.7420 H   0  0  0  0  0  0  0  0  0  0  0  0
   34.9550   27.5550   50.4810 H   0  0  0  0  0  0  0  0  0  0  0  0
   38.0050   33.1650   49.4100 C   0  0  0  0  0  0  0  0  0  0  0  0
   39.0190   33.1650   48.4390 C   0  0  0  0  0  0  0  0  0  0  0  0
   39.0160   32.1120   47.5090 C   0  0  0  0  0  0  0  0  0  0  0  0
   38.0460   31.1670   47.5980 N   0  0  0  0  0  0  0  0  0  0  0  0
   37.0940   31.1990   48.5380 C   0  0  0  0  0  0  0  0  0  0  0  0
   37.0780   32.2090   49.4500 N   0  0  0  0  0  0  0  0  0  0  0  0
   37.9990   33.9800   50.1380 H   0  0  0  0  0  0  0  0  0  0  0  0
   39.7580   33.9550   48.4340 H   0  0  0  0  0  0  0  0  0  0  0  0
   39.7810   32.0890   46.7570 H   0  0  0  0  0  0  0  0  0  0  0  0
   37.0940   29.2140   50.6660 C   0  0  0  0  0  2  0  0  0  0  0  0
   36.8060   29.7450   51.5740 H   0  0  0  0  0  0  0  0  0  0  0  0
  1  6  1  0  0  0  0
  2  3  1  0  0  0  0
  2  1  2  0  0  0  0
  3  4  2  0  0  0  0
  4  9  1  0  0  0  0
  4  5  1  0  0  0  0
  5 10  1  0  0  0  0
  6  5  2  0  0  0  0
  6 20  1  0  0  0  0
  7  2  1  0  0  0  0
  8  3  1  0  0  0  0
 11 16  1  0  0  0  0
 11 17  1  0  0  0  0
 12 11  2  0  0  0  0
 13 14  2  0  0  0  0
 13 12  1  0  0  0  0
 14 15  1  0  0  0  0
 15  1  1  0  0  0  0
 15 16  2  0  0  0  0
 18 12  1  0  0  0  0
 19 13  1  0  0  0  0
 20 21  1  0  0  0  0
M  END
>  <minimizedAffinity>
-5.50137091

>  <minimizedRMSD>
0.244484991

$$$$
