
 OpenBabel03262522263D

 38 40  0  0  0  0  0  0  0  0999 V2000
   38.6940   32.8240   48.3480 C   0  0  0  0  0  0  0  0  0  0  0  0
   39.0100   32.1700   47.1550 C   0  0  0  0  0  0  0  0  0  0  0  0
   38.5280   30.8980   46.9880 C   0  0  0  0  0  0  0  0  0  0  0  0
   37.7780   30.3560   47.9890 N   0  0  0  0  0  0  0  0  0  0  0  0
   37.5060   31.0020   49.0920 C   0  0  0  0  0  0  0  0  0  0  0  0
   37.9620   32.2850   49.3170 N   0  0  0  0  0  0  0  0  0  0  0  0
   39.0460   33.8470   48.5510 H   0  0  0  0  0  0  0  0  0  0  0  0
   38.7340   30.3450   46.0810 H   0  0  0  0  0  0  0  0  0  0  0  0
   39.7680   32.8360   46.2490 O   0  0  0  0  0  0  0  0  0  0  0  0
   39.9350   32.3000   44.9760 C   0  0  0  0  0  0  0  0  0  0  0  0
   40.6570   31.1680   44.6220 C   0  0  0  0  0  0  0  0  0  0  0  0
   40.7030   30.7990   43.3270 C   0  0  0  0  0  0  0  0  0  0  0  0
   40.0360   31.5560   42.3960 C   0  0  0  0  0  0  0  0  0  0  0  0
   39.3110   32.6960   42.7610 C   0  0  0  0  0  0  0  0  0  0  0  0
   39.2820   33.0420   44.0740 N   0  0  0  0  0  0  0  0  0  0  0  0
   41.1470   30.6540   45.4370 H   0  0  0  0  0  0  0  0  0  0  0  0
   41.2610   29.9200   43.0370 H   0  0  0  0  0  0  0  0  0  0  0  0
   40.0350   31.3120   41.3400 H   0  0  0  0  0  0  0  0  0  0  0  0
   38.5920   33.5030   41.7170 C   0  0  0  0  0  0  0  0  0  0  0  0
   38.6310   32.9540   40.7810 H   0  0  0  0  0  0  0  0  0  0  0  0
   37.5130   33.4550   42.0490 H   0  0  0  0  0  0  0  0  0  0  0  0
   38.9540   34.5460   41.6770 H   0  0  0  0  0  0  0  0  0  0  0  0
   36.4950   30.0250   50.2320 S   0  0  0  0  0  0  0  0  0  0  0  0
   34.7740   30.4940   49.8080 C   0  0  0  0  0  0  0  0  0  0  0  0
   34.6550   31.5630   49.6340 H   0  0  0  0  0  0  0  0  0  0  0  0
   34.0880   30.1790   50.6150 H   0  0  0  0  0  0  0  0  0  0  0  0
   34.3750   27.7650   49.8400 F   0  0  0  0  0  0  0  0  0  0  0  0
   34.2780   28.4280   48.6490 C   0  0  0  0  0  0  0  0  0  0  0  0
   34.4610   29.8040   48.5180 C   0  0  0  0  0  0  0  0  0  0  0  0
   34.3520   30.4130   47.3020 C   0  0  0  0  0  0  0  0  0  0  0  0
   34.0530   29.6670   46.1490 C   0  0  0  0  0  0  0  0  0  0  0  0
   33.8710   28.3030   46.2670 C   0  0  0  0  0  0  0  0  0  0  0  0
   33.9840   27.6980   47.5110 C   0  0  0  0  0  0  0  0  0  0  0  0
   34.5090   31.4800   47.2980 H   0  0  0  0  0  0  0  0  0  0  0  0
   33.9750   30.1830   45.2060 H   0  0  0  0  0  0  0  0  0  0  0  0
   33.6390   27.6970   45.4010 H   0  0  0  0  0  0  0  0  0  0  0  0
   33.7880   26.2310   47.6400 C   0  0  0  0  0  0  0  0  0  0  0  0
   32.9120   26.0370   48.3230 H   0  0  0  0  0  0  0  0  0  0  0  0
  1  7  1  0  0  0  0
  1  6  1  0  0  0  0
  2  1  2  0  0  0  0
  3  2  1  0  0  0  0
  3  4  2  0  0  0  0
  4  5  1  0  0  0  0
  5  6  2  0  0  0  0
  5 23  1  0  0  0  0
  8  3  1  0  0  0  0
  9  2  1  0  0  0  0
 10  9  1  0  0  0  0
 11 10  1  0  0  0  0
 11 16  1  0  0  0  0
 12 11  2  0  0  0  0
 13 14  2  0  0  0  0
 13 12  1  0  0  0  0
 14 15  1  0  0  0  0
 15 10  2  0  0  0  0
 17 12  1  0  0  0  0
 18 13  1  0  0  0  0
 19 21  1  0  0  0  0
 19 14  1  0  0  0  0
 20 19  1  0  0  0  0
 22 19  1  0  0  0  0
 24 23  1  0  0  0  0
 24 26  1  0  0  0  0
 25 24  1  0  0  0  0
 28 27  1  0  0  0  0
 29 28  1  0  0  0  0
 29 24  1  0  0  0  0
 30 29  2  0  0  0  0
 31 32  2  0  0  0  0
 31 30  1  0  0  0  0
 32 33  1  0  0  0  0
 33 37  1  0  0  0  0
 33 28  2  0  0  0  0
 34 30  1  0  0  0  0
 35 31  1  0  0  0  0
 36 32  1  0  0  0  0
 37 38  1  0  0  0  0
M  END
>  <minimizedAffinity>
-6.18293047

>  <minimizedRMSD>
1.68107939

$$$$
