
 OpenBabel03272509513D

 26 27  0  0  0  0  0  0  0  0999 V2000
   38.6460   25.2840   33.9310 C   0  0  0  0  0  0  0  0  0  0  0  0
   39.7330   25.1810   34.2040 H   0  0  0  0  0  0  0  0  0  0  0  0
   38.5730   25.2570   32.8260 H   0  0  0  0  0  0  0  0  0  0  0  0
   38.1840   26.5940   34.5260 C   0  0  0  0  0  0  0  0  0  0  0  0
   39.0040   27.2930   34.7230 H   0  0  0  0  0  0  0  0  0  0  0  0
   37.7270   26.3510   35.5250 H   0  0  0  0  0  0  0  0  0  0  0  0
   37.1300   27.2370   33.7040 C   0  0  0  0  0  0  0  0  0  0  0  0
   36.4430   28.3020   34.2740 C   0  0  0  0  0  0  0  0  0  0  0  0
   35.4490   28.9550   33.5820 C   0  0  0  0  0  0  0  0  0  0  0  0
   35.1210   28.5830   32.3490 N   0  0  0  0  0  0  0  0  0  0  0  0
   35.8040   27.5360   31.8020 C   0  0  0  0  0  0  0  0  0  0  0  0
   36.7730   26.8840   32.4500 N   0  0  0  0  0  0  0  0  0  0  0  0
   36.6170   28.6960   35.2690 H   0  0  0  0  0  0  0  0  0  0  0  0
   34.8910   29.7890   33.9950 H   0  0  0  0  0  0  0  0  0  0  0  0
   35.6510   27.1170   30.8090 H   0  0  0  0  0  0  0  0  0  0  0  0
   37.9530   24.2070   34.5430 O   0  0  0  0  0  0  0  0  0  0  0  0
   37.9040   23.9550   38.1550 C   0  0  0  0  0  0  0  0  0  0  0  0
   39.0580   23.1780   38.3650 C   0  0  0  0  0  0  0  0  0  0  0  0
   39.7710   22.7960   37.2450 C   0  0  0  0  0  0  0  0  0  0  0  0
   39.2990   23.2030   36.0290 N   0  0  0  0  0  0  0  0  0  0  0  0
   38.2050   23.9370   35.8610 C   0  0  0  0  0  0  0  0  0  0  0  0
   37.4870   24.3230   36.9510 N   0  0  0  0  0  0  0  0  0  0  0  0
   37.3520   24.2470   39.0470 H   0  0  0  0  0  0  0  0  0  0  0  0
   39.3990   22.8760   39.3460 H   0  0  0  0  0  0  0  0  0  0  0  0
   40.9860   21.9820   37.4340 C   0  0  0  0  0  2  0  0  0  0  0  0
   41.5910   21.8950   36.5110 H   0  0  0  0  0  0  0  0  0  0  0  0
  1  2  1  0  0  0  0
  1  4  1  0  0  0  0
  1 16  1  0  0  0  0
  3  1  1  0  0  0  0
  4  5  1  0  0  0  0
  4  6  1  0  0  0  0
  7  8  1  0  0  0  0
  7  4  1  0  0  0  0
  8 13  1  0  0  0  0
  9 14  1  0  0  0  0
  9  8  2  0  0  0  0
 10  9  1  0  0  0  0
 11 10  2  0  0  0  0
 11 12  1  0  0  0  0
 12  7  2  0  0  0  0
 15 11  1  0  0  0  0
 16 21  1  0  0  0  0
 17 18  1  0  0  0  0
 17 23  1  0  0  0  0
 18 24  1  0  0  0  0
 19 25  1  0  0  0  0
 19 18  2  0  0  0  0
 20 19  1  0  0  0  0
 21 20  2  0  0  0  0
 21 22  1  0  0  0  0
 22 17  2  0  0  0  0
 26 25  1  0  0  0  0
M  END
>  <minimizedAffinity>
-4.33453465

$$$$

 OpenBabel03272509513D

 26 27  0  0  0  0  0  0  0  0999 V2000
   38.7420   23.2430   33.5900 C   0  0  0  0  0  0  0  0  0  0  0  0
   38.8700   22.6960   32.6150 H   0  0  0  0  0  0  0  0  0  0  0  0
   39.7460   23.5730   33.9240 H   0  0  0  0  0  0  0  0  0  0  0  0
   38.0900   22.2660   34.5420 C   0  0  0  0  0  0  0  0  0  0  0  0
   38.3550   21.2230   34.3390 H   0  0  0  0  0  0  0  0  0  0  0  0
   36.9810   22.3500   34.3780 H   0  0  0  0  0  0  0  0  0  0  0  0
   38.3540   22.6120   35.9600 C   0  0  0  0  0  0  0  0  0  0  0  0
   39.6490   22.4250   36.4270 C   0  0  0  0  0  0  0  0  0  0  0  0
   39.9820   22.7180   37.7290 C   0  0  0  0  0  0  0  0  0  0  0  0
   39.0700   23.1890   38.5750 N   0  0  0  0  0  0  0  0  0  0  0  0
   37.8020   23.3670   38.1020 C   0  0  0  0  0  0  0  0  0  0  0  0
   37.4510   23.0910   36.8430 N   0  0  0  0  0  0  0  0  0  0  0  0
   40.4780   22.0480   35.8370 H   0  0  0  0  0  0  0  0  0  0  0  0
   40.9820   22.5850   38.1290 H   0  0  0  0  0  0  0  0  0  0  0  0
   36.9520   23.7410   38.6690 H   0  0  0  0  0  0  0  0  0  0  0  0
   37.8690   24.3360   33.3500 O   0  0  0  0  0  0  0  0  0  0  0  0
   38.9690   26.9160   35.6400 C   0  0  0  0  0  0  0  0  0  0  0  0
   37.9740   27.8860   35.4180 C   0  0  0  0  0  0  0  0  0  0  0  0
   36.9950   27.5800   34.4930 C   0  0  0  0  0  0  0  0  0  0  0  0
   37.0710   26.3660   33.8730 N   0  0  0  0  0  0  0  0  0  0  0  0
   38.0240   25.4690   34.1030 C   0  0  0  0  0  0  0  0  0  0  0  0
   38.9990   25.7510   35.0100 N   0  0  0  0  0  0  0  0  0  0  0  0
   39.7350   27.1720   36.3720 H   0  0  0  0  0  0  0  0  0  0  0  0
   37.9490   28.8380   35.9320 H   0  0  0  0  0  0  0  0  0  0  0  0
   35.9380   28.5780   34.2400 C   0  0  0  0  0  2  0  0  0  0  0  0
   35.0990   28.1700   33.6420 H   0  0  0  0  0  0  0  0  0  0  0  0
  1  3  1  0  0  0  0
  1  4  1  0  0  0  0
  2  1  1  0  0  0  0
  4  7  1  0  0  0  0
  5  4  1  0  0  0  0
  6  4  1  0  0  0  0
  7  8  2  0  0  0  0
  7 12  1  0  0  0  0
  8  9  1  0  0  0  0
  9 14  1  0  0  0  0
  9 10  2  0  0  0  0
 11 10  1  0  0  0  0
 11 15  1  0  0  0  0
 12 11  2  0  0  0  0
 13  8  1  0  0  0  0
 16  1  1  0  0  0  0
 16 21  1  0  0  0  0
 17 23  1  0  0  0  0
 18 17  1  0  0  0  0
 18 24  1  0  0  0  0
 19 18  2  0  0  0  0
 20 21  2  0  0  0  0
 20 19  1  0  0  0  0
 21 22  1  0  0  0  0
 22 17  2  0  0  0  0
 25 19  1  0  0  0  0
 26 25  1  0  0  0  0
M  END
>  <minimizedAffinity>
-4.25039959

$$$$

 OpenBabel03272509513D

 26 27  0  0  0  0  0  0  0  0999 V2000
   38.8110   23.6860   33.6350 C   0  0  0  0  0  0  0  0  0  0  0  0
   39.8700   23.6510   34.0140 H   0  0  0  0  0  0  0  0  0  0  0  0
   38.4860   22.6430   33.4510 H   0  0  0  0  0  0  0  0  0  0  0  0
   38.8390   24.5310   32.3820 C   0  0  0  0  0  0  0  0  0  0  0  0
   39.4880   24.1250   31.6000 H   0  0  0  0  0  0  0  0  0  0  0  0
   39.2770   25.5250   32.6740 H   0  0  0  0  0  0  0  0  0  0  0  0
   37.4760   24.7870   31.8550 C   0  0  0  0  0  0  0  0  0  0  0  0
   37.1360   26.1090   31.5950 C   0  0  0  0  0  0  0  0  0  0  0  0
   35.8920   26.4370   31.1060 C   0  0  0  0  0  0  0  0  0  0  0  0
   34.9850   25.4950   30.8680 N   0  0  0  0  0  0  0  0  0  0  0  0
   35.3330   24.2020   31.1280 C   0  0  0  0  0  0  0  0  0  0  0  0
   36.5320   23.8550   31.6030 N   0  0  0  0  0  0  0  0  0  0  0  0
   37.7860   26.9630   31.7480 H   0  0  0  0  0  0  0  0  0  0  0  0
   35.5910   27.4570   30.8920 H   0  0  0  0  0  0  0  0  0  0  0  0
   34.7030   23.3250   30.9860 H   0  0  0  0  0  0  0  0  0  0  0  0
   38.0270   24.3270   34.6300 O   0  0  0  0  0  0  0  0  0  0  0  0
   38.0190   24.0710   38.2410 C   0  0  0  0  0  0  0  0  0  0  0  0
   39.1250   23.2230   38.4330 C   0  0  0  0  0  0  0  0  0  0  0  0
   39.7950   22.8000   37.3020 C   0  0  0  0  0  0  0  0  0  0  0  0
   39.3320   23.2380   36.0940 N   0  0  0  0  0  0  0  0  0  0  0  0
   38.2820   24.0390   35.9430 C   0  0  0  0  0  0  0  0  0  0  0  0
   37.6070   24.4670   37.0450 N   0  0  0  0  0  0  0  0  0  0  0  0
   37.5000   24.3950   39.1430 H   0  0  0  0  0  0  0  0  0  0  0  0
   39.4620   22.8990   39.4090 H   0  0  0  0  0  0  0  0  0  0  0  0
   40.9600   21.9110   37.4720 C   0  0  0  0  0  2  0  0  0  0  0  0
   41.5450   21.7890   36.5390 H   0  0  0  0  0  0  0  0  0  0  0  0
  1  2  1  0  0  0  0
  1 16  1  0  0  0  0
  3  1  1  0  0  0  0
  4  6  1  0  0  0  0
  4  1  1  0  0  0  0
  5  4  1  0  0  0  0
  7  4  1  0  0  0  0
  8 13  1  0  0  0  0
  8  7  2  0  0  0  0
  9  8  1  0  0  0  0
 10  9  2  0  0  0  0
 10 11  1  0  0  0  0
 11 12  2  0  0  0  0
 12  7  1  0  0  0  0
 14  9  1  0  0  0  0
 15 11  1  0  0  0  0
 16 21  1  0  0  0  0
 17 18  1  0  0  0  0
 17 23  1  0  0  0  0
 18 24  1  0  0  0  0
 19 25  1  0  0  0  0
 19 18  2  0  0  0  0
 20 19  1  0  0  0  0
 21 20  2  0  0  0  0
 21 22  1  0  0  0  0
 22 17  2  0  0  0  0
 26 25  1  0  0  0  0
M  END
>  <minimizedAffinity>
-4.2461524

$$$$

 OpenBabel03272509513D

 26 27  0  0  0  0  0  0  0  0999 V2000
   37.1370   27.2550   34.6660 C   0  0  0  0  0  0  0  0  0  0  0  0
   36.8180   28.3330   34.7120 H   0  0  0  0  0  0  0  0  0  0  0  0
   36.2600   26.6340   34.9350 H   0  0  0  0  0  0  0  0  0  0  0  0
   38.2870   27.1120   35.6370 C   0  0  0  0  0  0  0  0  0  0  0  0
   38.0880   27.5670   36.6130 H   0  0  0  0  0  0  0  0  0  0  0  0
   39.1530   27.6770   35.1940 H   0  0  0  0  0  0  0  0  0  0  0  0
   38.7130   25.7000   35.7900 C   0  0  0  0  0  0  0  0  0  0  0  0
   37.9320   24.8870   36.6020 C   0  0  0  0  0  0  0  0  0  0  0  0
   38.2550   23.5640   36.8000 C   0  0  0  0  0  0  0  0  0  0  0  0
   39.3240   23.0300   36.2180 N   0  0  0  0  0  0  0  0  0  0  0  0
   40.0820   23.8410   35.4230 C   0  0  0  0  0  0  0  0  0  0  0  0
   39.7920   25.1270   35.2130 N   0  0  0  0  0  0  0  0  0  0  0  0
   37.0400   25.2050   37.1300 H   0  0  0  0  0  0  0  0  0  0  0  0
   37.6700   22.8990   37.4270 H   0  0  0  0  0  0  0  0  0  0  0  0
   40.9810   23.5520   34.8820 H   0  0  0  0  0  0  0  0  0  0  0  0
   37.5900   27.0050   33.3440 O   0  0  0  0  0  0  0  0  0  0  0  0
   35.2200   25.6390   30.9720 C   0  0  0  0  0  0  0  0  0  0  0  0
   35.5190   24.2690   31.0830 C   0  0  0  0  0  0  0  0  0  0  0  0
   36.5170   23.9140   31.9690 C   0  0  0  0  0  0  0  0  0  0  0  0
   37.1310   24.9180   32.6630 N   0  0  0  0  0  0  0  0  0  0  0  0
   36.8270   26.2050   32.5370 C   0  0  0  0  0  0  0  0  0  0  0  0
   35.8470   26.5770   31.6690 N   0  0  0  0  0  0  0  0  0  0  0  0
   34.4310   25.9040   30.2690 H   0  0  0  0  0  0  0  0  0  0  0  0
   35.0080   23.5020   30.5150 H   0  0  0  0  0  0  0  0  0  0  0  0
   36.8520   22.4840   32.1070 C   0  0  0  0  0  2  0  0  0  0  0  0
   37.5140   22.2810   32.9720 H   0  0  0  0  0  0  0  0  0  0  0  0
  1  2  1  0  0  0  0
  1  3  1  0  0  0  0
  1  4  1  0  0  0  0
  4  7  1  0  0  0  0
  4  5  1  0  0  0  0
  6  4  1  0  0  0  0
  7  8  1  0  0  0  0
  8  9  2  0  0  0  0
  8 13  1  0  0  0  0
  9 14  1  0  0  0  0
 10  9  1  0  0  0  0
 11 10  2  0  0  0  0
 12 11  1  0  0  0  0
 12  7  2  0  0  0  0
 15 11  1  0  0  0  0
 16  1  1  0  0  0  0
 17 18  2  0  0  0  0
 17 22  1  0  0  0  0
 18 19  1  0  0  0  0
 19 25  1  0  0  0  0
 19 20  2  0  0  0  0
 21 20  1  0  0  0  0
 21 16  1  0  0  0  0
 22 21  2  0  0  0  0
 23 17  1  0  0  0  0
 24 18  1  0  0  0  0
 25 26  1  0  0  0  0
M  END
>  <minimizedAffinity>
-4.1859889

$$$$

 OpenBabel03272509513D

 26 27  0  0  0  0  0  0  0  0999 V2000
   37.7510   24.4360   33.3730 C   0  0  0  0  0  0  0  0  0  0  0  0
   36.8910   24.1420   34.0370 H   0  0  0  0  0  0  0  0  0  0  0  0
   37.4640   25.3650   32.8430 H   0  0  0  0  0  0  0  0  0  0  0  0
   37.9830   23.2680   32.4420 C   0  0  0  0  0  0  0  0  0  0  0  0
   38.9870   22.8390   32.5290 H   0  0  0  0  0  0  0  0  0  0  0  0
   37.9000   23.6700   31.3950 H   0  0  0  0  0  0  0  0  0  0  0  0
   36.9460   22.2190   32.5960 C   0  0  0  0  0  0  0  0  0  0  0  0
   36.1710   21.9270   31.4810 C   0  0  0  0  0  0  0  0  0  0  0  0
   35.1850   20.9680   31.5360 C   0  0  0  0  0  0  0  0  0  0  0  0
   34.9510   20.2970   32.6590 N   0  0  0  0  0  0  0  0  0  0  0  0
   35.7200   20.5950   33.7450 C   0  0  0  0  0  0  0  0  0  0  0  0
   36.6830   21.5200   33.7210 N   0  0  0  0  0  0  0  0  0  0  0  0
   36.2650   22.4040   30.5120 H   0  0  0  0  0  0  0  0  0  0  0  0
   34.5600   20.7130   30.6860 H   0  0  0  0  0  0  0  0  0  0  0  0
   35.6490   20.1350   34.7300 H   0  0  0  0  0  0  0  0  0  0  0  0
   38.8850   24.6190   34.2070 O   0  0  0  0  0  0  0  0  0  0  0  0
   37.9630   24.1680   37.6790 C   0  0  0  0  0  0  0  0  0  0  0  0
   38.9560   23.2570   38.0830 C   0  0  0  0  0  0  0  0  0  0  0  0
   39.8730   22.8640   37.1280 C   0  0  0  0  0  0  0  0  0  0  0  0
   39.7420   23.3890   35.8740 N   0  0  0  0  0  0  0  0  0  0  0  0
   38.7920   24.2480   35.5210 C   0  0  0  0  0  0  0  0  0  0  0  0
   37.8780   24.6480   36.4460 N   0  0  0  0  0  0  0  0  0  0  0  0
   37.2460   24.4690   38.4420 H   0  0  0  0  0  0  0  0  0  0  0  0
   39.0260   22.8640   39.0890 H   0  0  0  0  0  0  0  0  0  0  0  0
   40.9260   21.9100   37.5240 C   0  0  0  0  0  2  0  0  0  0  0  0
   41.7220   21.8090   36.7590 H   0  0  0  0  0  0  0  0  0  0  0  0
  1  2  1  0  0  0  0
  1 16  1  0  0  0  0
  3  1  1  0  0  0  0
  4  5  1  0  0  0  0
  4  7  1  0  0  0  0
  4  1  1  0  0  0  0
  6  4  1  0  0  0  0
  7 12  1  0  0  0  0
  8  9  1  0  0  0  0
  8  7  2  0  0  0  0
  9 10  2  0  0  0  0
 10 11  1  0  0  0  0
 11 15  1  0  0  0  0
 12 11  2  0  0  0  0
 13  8  1  0  0  0  0
 14  9  1  0  0  0  0
 16 21  1  0  0  0  0
 17 18  1  0  0  0  0
 17 23  1  0  0  0  0
 18 24  1  0  0  0  0
 19 25  1  0  0  0  0
 19 18  2  0  0  0  0
 20 19  1  0  0  0  0
 21 20  2  0  0  0  0
 21 22  1  0  0  0  0
 22 17  2  0  0  0  0
 26 25  1  0  0  0  0
M  END
>  <minimizedAffinity>
-4.14731789

$$$$

 OpenBabel03272509513D

 26 27  0  0  0  0  0  0  0  0999 V2000
   37.0290   27.4910   34.5440 C   0  0  0  0  0  0  0  0  0  0  0  0
   36.4390   26.5590   34.7650 H   0  0  0  0  0  0  0  0  0  0  0  0
   36.4170   28.3590   34.8610 H   0  0  0  0  0  0  0  0  0  0  0  0
   37.3110   27.4710   33.0600 C   0  0  0  0  0  0  0  0  0  0  0  0
   38.3750   27.5610   32.8200 H   0  0  0  0  0  0  0  0  0  0  0  0
   36.8100   28.3800   32.6250 H   0  0  0  0  0  0  0  0  0  0  0  0
   36.7190   26.2830   32.3980 C   0  0  0  0  0  0  0  0  0  0  0  0
   35.6910   26.5090   31.4920 C   0  0  0  0  0  0  0  0  0  0  0  0
   35.0850   25.4630   30.8330 C   0  0  0  0  0  0  0  0  0  0  0  0
   35.4700   24.2090   31.0480 N   0  0  0  0  0  0  0  0  0  0  0  0
   36.4810   24.0030   31.9410 C   0  0  0  0  0  0  0  0  0  0  0  0
   37.0870   24.9980   32.5940 N   0  0  0  0  0  0  0  0  0  0  0  0
   35.2890   27.4820   31.2330 H   0  0  0  0  0  0  0  0  0  0  0  0
   34.2790   25.6010   30.1200 H   0  0  0  0  0  0  0  0  0  0  0  0
   36.9040   23.0400   32.2220 H   0  0  0  0  0  0  0  0  0  0  0  0
   38.2490   27.4010   35.2660 O   0  0  0  0  0  0  0  0  0  0  0  0
   40.1920   24.3460   35.2330 C   0  0  0  0  0  0  0  0  0  0  0  0
   39.5390   23.6250   36.2500 C   0  0  0  0  0  0  0  0  0  0  0  0
   38.4750   24.2450   36.8750 C   0  0  0  0  0  0  0  0  0  0  0  0
   38.1430   25.5020   36.4560 N   0  0  0  0  0  0  0  0  0  0  0  0
   38.7790   26.1600   35.4920 C   0  0  0  0  0  0  0  0  0  0  0  0
   39.8320   25.5670   34.8640 N   0  0  0  0  0  0  0  0  0  0  0  0
   41.0300   23.8440   34.7510 H   0  0  0  0  0  0  0  0  0  0  0  0
   39.8330   22.6290   36.5530 H   0  0  0  0  0  0  0  0  0  0  0  0
   37.7710   23.5130   37.9440 C   0  0  0  0  0  2  0  0  0  0  0  0
   36.8220   24.0010   38.2430 H   0  0  0  0  0  0  0  0  0  0  0  0
  1  2  1  0  0  0  0
  1  3  1  0  0  0  0
  1 16  1  0  0  0  0
  4  1  1  0  0  0  0
  5  4  1  0  0  0  0
  6  4  1  0  0  0  0
  7 12  1  0  0  0  0
  7  4  1  0  0  0  0
  8  7  2  0  0  0  0
  9 10  2  0  0  0  0
  9  8  1  0  0  0  0
 10 11  1  0  0  0  0
 11 15  1  0  0  0  0
 11 12  2  0  0  0  0
 13  8  1  0  0  0  0
 14  9  1  0  0  0  0
 16 21  1  0  0  0  0
 17 18  1  0  0  0  0
 18 24  1  0  0  0  0
 18 19  2  0  0  0  0
 19 25  1  0  0  0  0
 20 19  1  0  0  0  0
 21 20  2  0  0  0  0
 22 17  2  0  0  0  0
 22 21  1  0  0  0  0
 23 17  1  0  0  0  0
 25 26  1  0  0  0  0
M  END
>  <minimizedAffinity>
-4.14273882

$$$$

 OpenBabel03272509513D

 26 27  0  0  0  0  0  0  0  0999 V2000
   37.1230   22.1260   32.9180 C   0  0  0  0  0  0  0  0  0  0  0  0
   37.1190   21.0000   32.9100 H   0  0  0  0  0  0  0  0  0  0  0  0
   36.1960   22.4610   33.4240 H   0  0  0  0  0  0  0  0  0  0  0  0
   37.2000   22.5580   31.4710 C   0  0  0  0  0  0  0  0  0  0  0  0
   36.6380   21.9060   30.7950 H   0  0  0  0  0  0  0  0  0  0  0  0
   38.2800   22.4740   31.1680 H   0  0  0  0  0  0  0  0  0  0  0  0
   36.8000   23.9750   31.2920 C   0  0  0  0  0  0  0  0  0  0  0  0
   35.4440   24.2350   31.1340 C   0  0  0  0  0  0  0  0  0  0  0  0
   34.9850   25.5200   30.9610 C   0  0  0  0  0  0  0  0  0  0  0  0
   35.8290   26.5470   30.9420 N   0  0  0  0  0  0  0  0  0  0  0  0
   37.1580   26.2760   31.0990 C   0  0  0  0  0  0  0  0  0  0  0  0
   37.6310   25.0390   31.2680 N   0  0  0  0  0  0  0  0  0  0  0  0
   34.6600   23.4850   31.1300 H   0  0  0  0  0  0  0  0  0  0  0  0
   33.9350   25.7620   30.8330 H   0  0  0  0  0  0  0  0  0  0  0  0
   37.9660   27.0060   31.1050 H   0  0  0  0  0  0  0  0  0  0  0  0
   38.2930   22.5400   33.6060 O   0  0  0  0  0  0  0  0  0  0  0  0
   37.7900   23.1970   37.1310 C   0  0  0  0  0  0  0  0  0  0  0  0
   37.9460   24.5960   37.1480 C   0  0  0  0  0  0  0  0  0  0  0  0
   38.2130   25.2120   35.9410 C   0  0  0  0  0  0  0  0  0  0  0  0
   38.3040   24.4170   34.8340 N   0  0  0  0  0  0  0  0  0  0  0  0
   38.1530   23.0970   34.8480 C   0  0  0  0  0  0  0  0  0  0  0  0
   37.8890   22.4690   36.0280 N   0  0  0  0  0  0  0  0  0  0  0  0
   37.5800   22.7250   38.0900 H   0  0  0  0  0  0  0  0  0  0  0  0
   37.8660   25.1900   38.0480 H   0  0  0  0  0  0  0  0  0  0  0  0
   38.3810   26.6770   35.9280 C   0  0  0  0  0  2  0  0  0  0  0  0
   38.3930   27.0970   34.9030 H   0  0  0  0  0  0  0  0  0  0  0  0
  1  3  1  0  0  0  0
  1 16  1  0  0  0  0
  2  1  1  0  0  0  0
  4  1  1  0  0  0  0
  5  4  1  0  0  0  0
  6  4  1  0  0  0  0
  7  4  1  0  0  0  0
  8  7  2  0  0  0  0
  9  8  1  0  0  0  0
 10  9  2  0  0  0  0
 10 11  1  0  0  0  0
 11 15  1  0  0  0  0
 11 12  2  0  0  0  0
 12  7  1  0  0  0  0
 13  8  1  0  0  0  0
 14  9  1  0  0  0  0
 16 21  1  0  0  0  0
 17 18  1  0  0  0  0
 17 23  1  0  0  0  0
 18 24  1  0  0  0  0
 19 18  2  0  0  0  0
 20 21  2  0  0  0  0
 20 19  1  0  0  0  0
 21 22  1  0  0  0  0
 22 17  2  0  0  0  0
 25 19  1  0  0  0  0
 26 25  1  0  0  0  0
M  END
>  <minimizedAffinity>
-4.11350727

$$$$

 OpenBabel03272509513D

 26 27  0  0  0  0  0  0  0  0999 V2000
   38.4160   23.5290   33.6020 C   0  0  0  0  0  0  0  0  0  0  0  0
   37.7840   23.4560   32.6730 H   0  0  0  0  0  0  0  0  0  0  0  0
   39.4550   23.2660   33.3220 H   0  0  0  0  0  0  0  0  0  0  0  0
   37.8090   22.5730   34.6030 C   0  0  0  0  0  0  0  0  0  0  0  0
   37.8710   21.5250   34.2930 H   0  0  0  0  0  0  0  0  0  0  0  0
   36.7140   22.8230   34.6620 H   0  0  0  0  0  0  0  0  0  0  0  0
   38.3760   22.7560   35.9610 C   0  0  0  0  0  0  0  0  0  0  0  0
   37.5210   23.2320   36.9460 C   0  0  0  0  0  0  0  0  0  0  0  0
   37.9650   23.4320   38.2330 C   0  0  0  0  0  0  0  0  0  0  0  0
   39.2250   23.1730   38.5660 N   0  0  0  0  0  0  0  0  0  0  0  0
   40.0540   22.7060   37.5880 C   0  0  0  0  0  0  0  0  0  0  0  0
   39.6510   22.5030   36.3310 N   0  0  0  0  0  0  0  0  0  0  0  0
   36.4750   23.4800   36.7990 H   0  0  0  0  0  0  0  0  0  0  0  0
   37.3260   23.8030   39.0290 H   0  0  0  0  0  0  0  0  0  0  0  0
   41.1060   22.4510   37.7040 H   0  0  0  0  0  0  0  0  0  0  0  0
   38.3090   24.8610   34.0830 O   0  0  0  0  0  0  0  0  0  0  0  0
   36.9280   27.8300   32.5370 C   0  0  0  0  0  0  0  0  0  0  0  0
   35.9990   27.2430   31.6590 C   0  0  0  0  0  0  0  0  0  0  0  0
   35.9150   25.8650   31.6630 C   0  0  0  0  0  0  0  0  0  0  0  0
   36.7370   25.1850   32.5150 N   0  0  0  0  0  0  0  0  0  0  0  0
   37.6070   25.7670   33.3350 C   0  0  0  0  0  0  0  0  0  0  0  0
   37.7070   27.1250   33.3460 N   0  0  0  0  0  0  0  0  0  0  0  0
   36.9840   28.9180   32.5230 H   0  0  0  0  0  0  0  0  0  0  0  0
   35.3630   27.8180   30.9980 H   0  0  0  0  0  0  0  0  0  0  0  0
   34.9480   25.2220   30.7520 C   0  0  0  0  0  2  0  0  0  0  0  0
   34.8120   24.1440   30.9660 H   0  0  0  0  0  0  0  0  0  0  0  0
  1 16  1  0  0  0  0
  1  4  1  0  0  0  0
  2  1  1  0  0  0  0
  3  1  1  0  0  0  0
  4  6  1  0  0  0  0
  4  7  1  0  0  0  0
  5  4  1  0  0  0  0
  7 12  2  0  0  0  0
  7  8  1  0  0  0  0
  8  9  2  0  0  0  0
  9 10  1  0  0  0  0
  9 14  1  0  0  0  0
 11 15  1  0  0  0  0
 11 10  2  0  0  0  0
 12 11  1  0  0  0  0
 13  8  1  0  0  0  0
 17 22  1  0  0  0  0
 18 19  1  0  0  0  0
 18 17  2  0  0  0  0
 19 20  2  0  0  0  0
 20 21  1  0  0  0  0
 21 22  2  0  0  0  0
 21 16  1  0  0  0  0
 23 17  1  0  0  0  0
 24 18  1  0  0  0  0
 25 26  1  0  0  0  0
 25 19  1  0  0  0  0
M  END
>  <minimizedAffinity>
-4.10887766

$$$$

 OpenBabel03272509513D

 26 27  0  0  0  0  0  0  0  0999 V2000
   38.6420   22.2220   35.6780 C   0  0  0  0  0  0  0  0  0  0  0  0
   39.1900   21.4530   36.2910 H   0  0  0  0  0  0  0  0  0  0  0  0
   39.2780   22.4730   34.8070 H   0  0  0  0  0  0  0  0  0  0  0  0
   38.3990   23.3980   36.5960 C   0  0  0  0  0  0  0  0  0  0  0  0
   38.8100   23.2550   37.6010 H   0  0  0  0  0  0  0  0  0  0  0  0
   37.2840   23.4850   36.7180 H   0  0  0  0  0  0  0  0  0  0  0  0
   38.8790   24.6720   36.0060 C   0  0  0  0  0  0  0  0  0  0  0  0
   38.1900   25.8280   36.3500 C   0  0  0  0  0  0  0  0  0  0  0  0
   38.5670   27.0530   35.8480 C   0  0  0  0  0  0  0  0  0  0  0  0
   39.6010   27.1590   35.0200 N   0  0  0  0  0  0  0  0  0  0  0  0
   40.2670   26.0150   34.6900 C   0  0  0  0  0  0  0  0  0  0  0  0
   39.9240   24.8140   35.1620 N   0  0  0  0  0  0  0  0  0  0  0  0
   37.3330   25.8710   37.0140 H   0  0  0  0  0  0  0  0  0  0  0  0
   38.0530   27.9770   36.0940 H   0  0  0  0  0  0  0  0  0  0  0  0
   41.1280   25.9400   34.0280 H   0  0  0  0  0  0  0  0  0  0  0  0
   37.4020   21.6500   35.2920 O   0  0  0  0  0  0  0  0  0  0  0  0
   36.9120   22.6390   31.8440 C   0  0  0  0  0  0  0  0  0  0  0  0
   35.9520   21.6910   31.4470 C   0  0  0  0  0  0  0  0  0  0  0  0
   35.5410   20.7770   32.3980 C   0  0  0  0  0  0  0  0  0  0  0  0
   36.0990   20.8680   33.6420 N   0  0  0  0  0  0  0  0  0  0  0  0
   37.0060   21.7760   33.9880 C   0  0  0  0  0  0  0  0  0  0  0  0
   37.4250   22.6850   33.0650 N   0  0  0  0  0  0  0  0  0  0  0  0
   37.2260   23.3530   31.0830 H   0  0  0  0  0  0  0  0  0  0  0  0
   35.5330   21.6520   30.4500 H   0  0  0  0  0  0  0  0  0  0  0  0
   34.5350   19.7710   32.0110 C   0  0  0  0  0  2  0  0  0  0  0  0
   34.1260   19.2180   32.8800 H   0  0  0  0  0  0  0  0  0  0  0  0
  1  2  1  0  0  0  0
  1  4  1  0  0  0  0
  3  1  1  0  0  0  0
  4  6  1  0  0  0  0
  4  5  1  0  0  0  0
  7  8  1  0  0  0  0
  7  4  1  0  0  0  0
  8 13  1  0  0  0  0
  9 14  1  0  0  0  0
  9  8  2  0  0  0  0
 10  9  1  0  0  0  0
 11 10  2  0  0  0  0
 11 12  1  0  0  0  0
 12  7  2  0  0  0  0
 15 11  1  0  0  0  0
 16  1  1  0  0  0  0
 17 22  1  0  0  0  0
 18 17  2  0  0  0  0
 18 19  1  0  0  0  0
 19 20  2  0  0  0  0
 20 21  1  0  0  0  0
 21 16  1  0  0  0  0
 22 21  2  0  0  0  0
 23 17  1  0  0  0  0
 24 18  1  0  0  0  0
 25 19  1  0  0  0  0
 25 26  1  0  0  0  0
M  END
>  <minimizedAffinity>
-4.08851719

$$$$
