
 OpenBabel03272500433D

 26 27  0  0  1  0  0  0  0  0999 V2000
   38.4210   31.8750   49.1850 C   0  0  0  0  0  0  0  0  0  0  0  0
   38.8900   32.2090   47.8860 C   0  0  0  0  0  0  0  0  0  0  0  0
   38.1540   31.7780   46.7860 C   0  0  0  0  0  0  0  0  0  0  0  0
   37.0270   31.0600   47.0150 N   0  0  0  0  0  0  0  0  0  0  0  0
   36.6030   30.7560   48.2590 C   0  0  0  0  0  0  0  0  0  0  0  0
   37.2980   31.1630   49.3290 N   0  0  0  0  0  0  0  0  0  0  0  0
   35.3950   29.9890   48.4320 N   0  0  0  0  0  0  0  0  0  0  0  0
   35.3860   28.8890   49.4010 C   0  0  2  0  0  0  0  0  0  0  0  0
   34.4490   27.7800   49.0180 C   0  0  0  0  0  0  0  0  0  0  0  0
   34.2260   27.8550   47.5260 C   0  0  0  0  0  0  0  0  0  0  0  0
   33.4010   29.1120   47.2870 C   0  0  0  0  0  0  0  0  0  0  0  0
   34.2230   30.3130   47.6570 C   0  0  0  0  0  0  0  0  0  0  0  0
   39.0100   32.2220   50.0280 H   0  0  0  0  0  0  0  0  0  0  0  0
   39.7820   32.7760   47.7480 H   0  0  0  0  0  0  0  0  0  0  0  0
   38.4550   31.9980   45.7750 H   0  0  0  0  0  0  0  0  0  0  0  0
   36.4230   28.4530   49.3100 H   0  0  0  0  0  0  0  0  0  0  0  0
   34.8010   26.8060   49.3690 H   0  0  0  0  0  0  0  0  0  0  0  0
   33.4590   28.0550   49.4830 H   0  0  0  0  0  0  0  0  0  0  0  0
   33.6640   26.9650   47.1650 H   0  0  0  0  0  0  0  0  0  0  0  0
   35.2150   27.9240   47.0380 H   0  0  0  0  0  0  0  0  0  0  0  0
   33.0960   29.1230   46.2090 H   0  0  0  0  0  0  0  0  0  0  0  0
   32.5200   29.0290   47.9420 H   0  0  0  0  0  0  0  0  0  0  0  0
   34.6050   30.7320   46.6920 H   0  0  0  0  0  0  0  0  0  0  0  0
   33.6720   31.1210   48.1360 H   0  0  0  0  0  0  0  0  0  0  0  0
   35.2580   29.3410   50.8160 C   0  0  0  0  0  0  0  0  0  0  0  0
   35.9810   28.8160   51.4920 H   0  0  0  0  0  0  0  0  0  0  0  0
  1  6  1  0  0  0  0
  1 13  1  0  0  0  0
  2  1  2  0  0  0  0
  3  4  2  0  0  0  0
  3  2  1  0  0  0  0
  4  5  1  0  0  0  0
  5  7  1  0  0  0  0
  5  6  2  0  0  0  0
  7  8  1  0  0  0  0
  8 16  1  6  0  0  0
  8 25  1  0  0  0  0
  9 17  1  0  0  0  0
  9  8  1  0  0  0  0
  9 18  1  0  0  0  0
 10  9  1  0  0  0  0
 11 10  1  0  0  0  0
 11 12  1  0  0  0  0
 11 22  1  0  0  0  0
 12 24  1  0  0  0  0
 12  7  1  0  0  0  0
 14  2  1  0  0  0  0
 15  3  1  0  0  0  0
 19 10  1  0  0  0  0
 20 10  1  0  0  0  0
 21 11  1  0  0  0  0
 23 12  1  0  0  0  0
 25 26  1  0  0  0  0
M  END
>  <minimizedAffinity>
-4.74142647

>  <minimizedRMSD>
1.44854832

$$$$
