
 OpenBabel03272510153D

 21 22  0  0  0  0  0  0  0  0999 V2000
   37.2800   29.3490   51.0410 Br  0  0  0  0  0  0  0  0  0  0  0  0
   35.9640   29.3230   49.6680 C   0  0  0  0  0  0  0  0  0  0  0  0
   36.0050   30.2340   48.6210 C   0  0  0  0  0  0  0  0  0  0  0  0
   35.0130   30.1540   47.6570 C   0  0  0  0  0  0  0  0  0  0  0  0
   33.9960   29.2140   47.6980 C   0  0  0  0  0  0  0  0  0  0  0  0
   33.9850   28.3290   48.7470 C   0  0  0  0  0  0  0  0  0  0  0  0
   34.9750   28.3890   49.7310 C   0  0  0  0  0  0  0  0  0  0  0  0
   35.0790   30.8810   46.8550 H   0  0  0  0  0  0  0  0  0  0  0  0
   33.1830   27.5890   48.7770 H   0  0  0  0  0  0  0  0  0  0  0  0
   34.8690   27.6430   50.5130 H   0  0  0  0  0  0  0  0  0  0  0  0
   37.9830   33.1780   49.4470 C   0  0  0  0  0  0  0  0  0  0  0  0
   39.0170   33.1760   48.4780 C   0  0  0  0  0  0  0  0  0  0  0  0
   39.0120   32.1470   47.5500 C   0  0  0  0  0  0  0  0  0  0  0  0
   38.0270   31.1950   47.6050 N   0  0  0  0  0  0  0  0  0  0  0  0
   37.0560   31.2320   48.5450 C   0  0  0  0  0  0  0  0  0  0  0  0
   37.0370   32.2310   49.4700 N   0  0  0  0  0  0  0  0  0  0  0  0
   37.8990   33.9500   50.2250 H   0  0  0  0  0  0  0  0  0  0  0  0
   39.7500   33.9710   48.5150 H   0  0  0  0  0  0  0  0  0  0  0  0
   39.7920   32.1250   46.8000 H   0  0  0  0  0  0  0  0  0  0  0  0
   33.0130   29.2530   46.6030 C   0  0  0  0  0  2  0  0  0  0  0  0
   32.6750   30.2950   46.4820 H   0  0  0  0  0  0  0  0  0  0  0  0
  2  7  1  0  0  0  0
  2  1  1  0  0  0  0
  3  2  2  0  0  0  0
  4  5  2  0  0  0  0
  4  3  1  0  0  0  0
  5  6  1  0  0  0  0
  6  9  1  0  0  0  0
  6  7  2  0  0  0  0
  7 10  1  0  0  0  0
  8  4  1  0  0  0  0
 11 16  1  0  0  0  0
 11 17  1  0  0  0  0
 12 18  1  0  0  0  0
 12 11  2  0  0  0  0
 13 14  2  0  0  0  0
 13 12  1  0  0  0  0
 14 15  1  0  0  0  0
 15  3  1  0  0  0  0
 15 16  2  0  0  0  0
 19 13  1  0  0  0  0
 20  5  1  0  0  0  0
 21 20  1  0  0  0  0
M  END
>  <minimizedAffinity>
-5.58142138

>  <minimizedRMSD>
0.0232410859

$$$$
