
 OpenBabel03272510113D

 28 30  0  0  0  0  0  0  0  0999 V2000
   34.0610   28.8250   48.3070 C   0  0  0  0  0  0  0  0  0  0  0  0
   34.6630   28.3820   49.4300 C   0  0  0  0  0  0  0  0  0  0  0  0
   35.9010   28.8000   49.8750 C   0  0  0  0  0  0  0  0  0  0  0  0
   36.6030   29.7250   49.1600 C   0  0  0  0  0  0  0  0  0  0  0  0
   35.9870   30.1870   47.9980 C   0  0  0  0  0  0  0  0  0  0  0  0
   34.7810   29.7450   47.6140 N   0  0  0  0  0  0  0  0  0  0  0  0
   34.1770   27.6460   50.0580 H   0  0  0  0  0  0  0  0  0  0  0  0
   36.3780   28.4350   50.7840 H   0  0  0  0  0  0  0  0  0  0  0  0
   36.5090   30.9280   47.3930 H   0  0  0  0  0  0  0  0  0  0  0  0
   31.9270   27.5230   48.5600 C   0  0  0  0  0  0  0  0  0  0  0  0
   32.7770   28.3950   47.8390 C   0  0  0  0  0  0  0  0  0  0  0  0
   32.2990   28.8370   46.6120 C   0  0  0  0  0  0  0  0  0  0  0  0
   31.0790   28.4240   46.1760 N   0  0  0  0  0  0  0  0  0  0  0  0
   30.3110   27.5820   46.9230 C   0  0  0  0  0  0  0  0  0  0  0  0
   30.7330   27.1260   48.1220 N   0  0  0  0  0  0  0  0  0  0  0  0
   32.2670   27.1620   49.5140 H   0  0  0  0  0  0  0  0  0  0  0  0
   32.9320   29.4990   46.0540 H   0  0  0  0  0  0  0  0  0  0  0  0
   29.3920   27.4040   46.3620 H   0  0  0  0  0  0  0  0  0  0  0  0
   37.8590   30.2500   49.4690 O   0  0  0  0  0  0  0  0  0  0  0  0
   38.4070   31.2960   48.7280 C   0  0  0  0  0  0  0  0  0  0  0  0
   38.4200   32.5210   49.3880 C   0  0  0  0  0  0  0  0  0  0  0  0
   38.9900   33.4560   48.5280 C   0  0  0  0  0  0  0  0  0  0  0  0
   39.2950   32.7860   47.4070 N   0  0  0  0  0  0  0  0  0  0  0  0
   38.9550   31.5260   47.5230 N   0  0  0  0  0  0  0  0  0  0  0  0
   38.1000   32.8850   50.3710 H   0  0  0  0  0  0  0  0  0  0  0  0
   39.2130   34.5080   48.5810 H   0  0  0  0  0  0  0  0  0  0  0  0
   39.9030   33.1640   46.1450 C   0  0  0  0  0  2  0  0  0  0  0  0
   39.1150   33.4510   45.3910 H   0  0  0  0  0  0  0  0  0  0  0  0
  1  2  1  0  0  0  0
  2  3  2  0  0  0  0
  2  7  1  0  0  0  0
  3  8  1  0  0  0  0
  4 19  1  0  0  0  0
  4  3  1  0  0  0  0
  5  4  2  0  0  0  0
  6  5  1  0  0  0  0
  6  1  2  0  0  0  0
  9  5  1  0  0  0  0
 10 16  1  0  0  0  0
 11  1  1  0  0  0  0
 11 10  2  0  0  0  0
 12 11  1  0  0  0  0
 13 12  2  0  0  0  0
 13 14  1  0  0  0  0
 14 15  2  0  0  0  0
 15 10  1  0  0  0  0
 17 12  1  0  0  0  0
 18 14  1  0  0  0  0
 20 21  1  0  0  0  0
 20 19  1  0  0  0  0
 21 25  1  0  0  0  0
 22 26  1  0  0  0  0
 22 21  2  0  0  0  0
 23 24  1  0  0  0  0
 23 22  1  0  0  0  0
 24 20  2  0  0  0  0
 27 23  1  0  0  0  0
 28 27  1  0  0  0  0
M  END
>  <minimizedAffinity>
-5.37650633

>  <minimizedRMSD>
0.489848256

$$$$
