
 OpenBabel03272510113D

 28 30  0  0  0  0  0  0  0  0999 V2000
   34.0440   28.8110   48.3060 C   0  0  0  0  0  0  0  0  0  0  0  0
   34.6510   28.3710   49.4280 C   0  0  0  0  0  0  0  0  0  0  0  0
   35.8870   28.7970   49.8700 C   0  0  0  0  0  0  0  0  0  0  0  0
   36.5830   29.7240   49.1530 C   0  0  0  0  0  0  0  0  0  0  0  0
   35.9620   30.1830   47.9910 C   0  0  0  0  0  0  0  0  0  0  0  0
   34.7580   29.7340   47.6100 N   0  0  0  0  0  0  0  0  0  0  0  0
   34.1690   27.6340   50.0580 H   0  0  0  0  0  0  0  0  0  0  0  0
   36.3680   28.4350   50.7780 H   0  0  0  0  0  0  0  0  0  0  0  0
   36.4790   30.9260   47.3840 H   0  0  0  0  0  0  0  0  0  0  0  0
   31.9180   27.4980   48.5650 C   0  0  0  0  0  0  0  0  0  0  0  0
   32.7610   28.3740   47.8410 C   0  0  0  0  0  0  0  0  0  0  0  0
   32.2780   28.8130   46.6160 C   0  0  0  0  0  0  0  0  0  0  0  0
   31.0590   28.3930   46.1820 N   0  0  0  0  0  0  0  0  0  0  0  0
   30.2970   27.5460   46.9310 C   0  0  0  0  0  0  0  0  0  0  0  0
   30.7240   27.0940   48.1300 N   0  0  0  0  0  0  0  0  0  0  0  0
   32.2620   27.1390   49.5190 H   0  0  0  0  0  0  0  0  0  0  0  0
   32.9060   29.4770   46.0550 H   0  0  0  0  0  0  0  0  0  0  0  0
   29.3780   27.3640   46.3730 H   0  0  0  0  0  0  0  0  0  0  0  0
   37.8370   30.2570   49.4580 O   0  0  0  0  0  0  0  0  0  0  0  0
   38.3960   31.2760   48.6900 C   0  0  0  0  0  0  0  0  0  0  0  0
   38.4400   32.5130   49.3240 C   0  0  0  0  0  0  0  0  0  0  0  0
   39.0190   33.4200   48.4380 C   0  0  0  0  0  0  0  0  0  0  0  0
   39.2970   32.7210   47.3280 N   0  0  0  0  0  0  0  0  0  0  0  0
   38.9340   31.4710   47.4740 N   0  0  0  0  0  0  0  0  0  0  0  0
   38.1400   32.9050   50.3030 H   0  0  0  0  0  0  0  0  0  0  0  0
   39.2620   34.4680   48.4670 H   0  0  0  0  0  0  0  0  0  0  0  0
   39.8970   33.0610   46.0510 C   0  0  0  0  0  2  0  0  0  0  0  0
   39.5180   32.3820   45.2360 H   0  0  0  0  0  0  0  0  0  0  0  0
  1  2  1  0  0  0  0
  2  3  2  0  0  0  0
  2  7  1  0  0  0  0
  3  8  1  0  0  0  0
  4 19  1  0  0  0  0
  4  3  1  0  0  0  0
  5  4  2  0  0  0  0
  6  5  1  0  0  0  0
  6  1  2  0  0  0  0
  9  5  1  0  0  0  0
 10 16  1  0  0  0  0
 11  1  1  0  0  0  0
 11 10  2  0  0  0  0
 12 11  1  0  0  0  0
 13 12  2  0  0  0  0
 13 14  1  0  0  0  0
 14 15  2  0  0  0  0
 15 10  1  0  0  0  0
 17 12  1  0  0  0  0
 18 14  1  0  0  0  0
 20 21  1  0  0  0  0
 20 19  1  0  0  0  0
 21 25  1  0  0  0  0
 22 26  1  0  0  0  0
 22 21  2  0  0  0  0
 23 24  1  0  0  0  0
 23 22  1  0  0  0  0
 24 20  2  0  0  0  0
 27 23  1  0  0  0  0
 28 27  1  0  0  0  0
M  END
>  <minimizedAffinity>
-5.37627125

>  <minimizedRMSD>
0.523025393

$$$$
