
 OpenBabel03272506153D

 21 22  0  0  0  0  0  0  0  0999 V2000
   37.4790   29.4770   50.5180 C   0  0  0  0  0  0  0  0  0  0  0  0
   38.1290   30.7110   50.3840 C   0  0  0  0  0  0  0  0  0  0  0  0
   37.6560   31.5810   49.3930 C   0  0  0  0  0  0  0  0  0  0  0  0
   36.6110   31.1950   48.6240 N   0  0  0  0  0  0  0  0  0  0  0  0
   36.0190   29.9890   48.7950 C   0  0  0  0  0  0  0  0  0  0  0  0
   36.4400   29.1150   49.7400 N   0  0  0  0  0  0  0  0  0  0  0  0
   34.9150   29.5700   47.9930 N   0  0  0  0  0  0  0  0  0  0  0  0
   34.7510   30.0980   46.7750 C   0  0  0  0  0  0  0  0  0  0  0  0
   33.6590   29.6340   46.0780 C   0  0  0  0  0  0  0  0  0  0  0  0
   32.7750   28.7010   46.5540 C   0  0  0  0  0  0  0  0  0  0  0  0
   31.7810   28.2890   45.9000 O   0  0  0  0  0  0  0  0  0  0  0  0
   32.9880   28.1980   47.7930 N   0  0  0  0  0  0  0  0  0  0  0  0
   34.0590   28.6490   48.4820 C   0  0  0  0  0  0  0  0  0  0  0  0
   34.2920   28.1980   49.6560 O   0  0  0  0  0  0  0  0  0  0  0  0
   37.7920   28.7550   51.2650 H   0  0  0  0  0  0  0  0  0  0  0  0
   38.9560   30.9270   51.0500 H   0  0  0  0  0  0  0  0  0  0  0  0
   38.1560   32.5370   49.2860 H   0  0  0  0  0  0  0  0  0  0  0  0
   35.4390   30.8410   46.3740 H   0  0  0  0  0  0  0  0  0  0  0  0
   33.4640   30.0200   45.0810 H   0  0  0  0  0  0  0  0  0  0  0  0
   32.0860   27.2200   48.3240 C   0  0  0  0  0  0  0  0  0  0  0  0
   31.1590   27.1620   47.7490 H   0  0  0  0  0  0  0  0  0  0  0  0
  1 15  1  0  0  0  0
  2  1  1  0  0  0  0
  2 16  1  0  0  0  0
  3  2  2  0  0  0  0
  4  5  2  0  0  0  0
  4  3  1  0  0  0  0
  5  6  1  0  0  0  0
  6  1  2  0  0  0  0
  7 13  1  0  0  0  0
  7  5  1  0  0  0  0
  8  7  1  0  0  0  0
  9 10  1  0  0  0  0
  9  8  2  0  0  0  0
 10 12  1  0  0  0  0
 11 10  2  0  0  0  0
 12 20  1  0  0  0  0
 12 13  1  0  0  0  0
 13 14  2  0  0  0  0
 17  3  1  0  0  0  0
 18  8  1  0  0  0  0
 19  9  1  0  0  0  0
 21 20  1  0  0  0  0
M  END
>  <minimizedAffinity>
-4.64744377

>  <minimizedRMSD>
1.29343319

$$$$
