
 OpenBabel03272510033D

 27 28  0  0  0  0  0  0  0  0999 V2000
   37.4950   25.0620   33.1520 C   0  0  0  0  0  0  0  0  0  0  0  0
   37.7990   23.7850   33.5340 C   0  0  0  0  0  0  0  0  0  0  0  0
   37.2490   22.7240   32.8460 C   0  0  0  0  0  0  0  0  0  0  0  0
   36.3900   22.8780   31.7780 C   0  0  0  0  0  0  0  0  0  0  0  0
   36.0570   24.1490   31.3740 C   0  0  0  0  0  0  0  0  0  0  0  0
   36.6190   25.1820   32.0720 C   0  0  0  0  0  0  0  0  0  0  0  0
   37.5270   21.7110   33.1850 H   0  0  0  0  0  0  0  0  0  0  0  0
   36.0320   21.9670   31.3260 H   0  0  0  0  0  0  0  0  0  0  0  0
   35.3870   24.2810   30.5490 H   0  0  0  0  0  0  0  0  0  0  0  0
   36.3600   26.2060   31.7590 H   0  0  0  0  0  0  0  0  0  0  0  0
   40.6720   22.8410   35.6540 C   0  0  0  0  0  0  0  0  0  0  0  0
   39.9010   23.1210   34.5260 C   0  0  0  0  0  0  0  0  0  0  0  0
   38.6190   23.5410   34.6860 C   0  0  0  0  0  0  0  0  0  0  0  0
   38.1530   23.6830   35.9660 N   0  0  0  0  0  0  0  0  0  0  0  0
   38.9060   23.4220   37.0440 C   0  0  0  0  0  0  0  0  0  0  0  0
   40.1570   22.9970   36.8760 N   0  0  0  0  0  0  0  0  0  0  0  0
   41.6990   22.4900   35.7420 H   0  0  0  0  0  0  0  0  0  0  0  0
   40.5860   23.0230   33.7210 H   0  0  0  0  0  0  0  0  0  0  0  0
   38.3170   23.7520   38.3630 C   0  0  0  0  0  0  0  0  0  0  0  0
   37.3390   22.8510   38.7350 F   0  0  0  0  0  0  0  0  0  0  0  0
   39.3010   23.6340   39.3980 F   0  0  0  0  0  0  0  0  0  0  0  0
   37.8630   24.9990   38.4890 F   0  0  0  0  0  0  0  0  0  0  0  0
   38.1390   26.4750   33.9260 S   0  0  0  0  0  0  0  0  0  0  0  0
   37.1390   27.0760   34.8490 O   0  0  0  0  0  0  0  0  0  0  0  0
   37.9780   27.4470   32.7580 O   0  0  0  0  0  0  0  0  0  0  0  0
   39.7570   27.0250   33.9090 C   0  0  0  0  0  2  0  0  0  0  0  0
   40.1640   27.1130   32.9060 H   0  0  0  0  0  0  0  0  0  0  0  0
  1  2  1  0  0  0  0
  1 23  1  0  0  0  0
  2 13  1  0  0  0  0
  3  7  1  0  0  0  0
  3  2  2  0  0  0  0
  4  3  1  0  0  0  0
  5  4  2  0  0  0  0
  5  6  1  0  0  0  0
  6  1  2  0  0  0  0
  8  4  1  0  0  0  0
  9  5  1  0  0  0  0
 10  6  1  0  0  0  0
 11 17  1  0  0  0  0
 11 16  1  0  0  0  0
 12 13  1  0  0  0  0
 12 11  2  0  0  0  0
 13 14  2  0  0  0  0
 14 15  1  0  0  0  0
 15 19  1  0  0  0  0
 16 15  2  0  0  0  0
 18 12  1  0  0  0  0
 19 22  1  0  0  0  0
 19 20  1  0  0  0  0
 19 21  1  0  0  0  0
 23 24  2  0  0  0  0
 25 23  2  0  0  0  0
 26 23  1  0  0  0  0
 27 26  1  0  0  0  0
M  END
>  <minimizedAffinity>
-5.32979012

$$$$

 OpenBabel03272510033D

 27 28  0  0  0  0  0  0  0  0999 V2000
   37.2240   23.4060   32.7220 C   0  0  0  0  0  0  0  0  0  0  0  0
   37.4730   22.3510   33.5550 C   0  0  0  0  0  0  0  0  0  0  0  0
   36.7800   21.1720   33.3800 C   0  0  0  0  0  0  0  0  0  0  0  0
   35.8280   20.9920   32.3980 C   0  0  0  0  0  0  0  0  0  0  0  0
   35.5470   22.0360   31.5490 C   0  0  0  0  0  0  0  0  0  0  0  0
   36.2510   23.1920   31.7430 C   0  0  0  0  0  0  0  0  0  0  0  0
   37.0170   20.3450   34.0720 H   0  0  0  0  0  0  0  0  0  0  0  0
   35.3610   20.0220   32.3670 H   0  0  0  0  0  0  0  0  0  0  0  0
   34.8070   21.9100   30.7860 H   0  0  0  0  0  0  0  0  0  0  0  0
   36.0370   24.0370   31.0700 H   0  0  0  0  0  0  0  0  0  0  0  0
   40.5610   22.2300   35.5780 C   0  0  0  0  0  0  0  0  0  0  0  0
   39.6930   22.1420   34.4900 C   0  0  0  0  0  0  0  0  0  0  0  0
   38.3880   22.4850   34.6530 C   0  0  0  0  0  0  0  0  0  0  0  0
   37.9960   22.9210   35.8910 N   0  0  0  0  0  0  0  0  0  0  0  0
   38.8410   23.0140   36.9270 C   0  0  0  0  0  0  0  0  0  0  0  0
   40.1150   22.6610   36.7610 N   0  0  0  0  0  0  0  0  0  0  0  0
   41.6220   21.9990   35.6600 H   0  0  0  0  0  0  0  0  0  0  0  0
   40.3280   21.8900   33.6790 H   0  0  0  0  0  0  0  0  0  0  0  0
   38.3110   23.6310   38.1650 C   0  0  0  0  0  0  0  0  0  0  0  0
   37.2810   22.8930   38.7120 F   0  0  0  0  0  0  0  0  0  0  0  0
   39.3100   23.6370   39.1930 F   0  0  0  0  0  0  0  0  0  0  0  0
   37.9510   24.9100   38.0560 F   0  0  0  0  0  0  0  0  0  0  0  0
   38.0450   24.9300   32.8310 S   0  0  0  0  0  0  0  0  0  0  0  0
   37.2860   25.8820   33.6870 O   0  0  0  0  0  0  0  0  0  0  0  0
   37.6400   25.4850   31.4670 O   0  0  0  0  0  0  0  0  0  0  0  0
   39.6250   25.3020   32.2980 C   0  0  0  0  0  2  0  0  0  0  0  0
   39.7990   25.0270   31.2620 H   0  0  0  0  0  0  0  0  0  0  0  0
  1 23  1  0  0  0  0
  1  2  1  0  0  0  0
  2 13  1  0  0  0  0
  3  2  2  0  0  0  0
  3  7  1  0  0  0  0
  4  3  1  0  0  0  0
  5  6  1  0  0  0  0
  5  4  2  0  0  0  0
  6  1  2  0  0  0  0
  8  4  1  0  0  0  0
  9  5  1  0  0  0  0
 10  6  1  0  0  0  0
 11 17  1  0  0  0  0
 11 16  1  0  0  0  0
 12 13  1  0  0  0  0
 12 11  2  0  0  0  0
 13 14  2  0  0  0  0
 14 15  1  0  0  0  0
 15 19  1  0  0  0  0
 16 15  2  0  0  0  0
 18 12  1  0  0  0  0
 19 20  1  0  0  0  0
 19 21  1  0  0  0  0
 22 19  1  0  0  0  0
 23 24  2  0  0  0  0
 25 23  2  0  0  0  0
 26 23  1  0  0  0  0
 27 26  1  0  0  0  0
M  END
>  <minimizedAffinity>
-5.28831005

$$$$

 OpenBabel03272510033D

 27 28  0  0  0  0  0  0  0  0999 V2000
   38.3380   24.7960   35.8550 C   0  0  0  0  0  0  0  0  0  0  0  0
   38.3460   24.6200   34.5000 C   0  0  0  0  0  0  0  0  0  0  0  0
   38.3130   25.7240   33.6740 C   0  0  0  0  0  0  0  0  0  0  0  0
   38.2650   27.0200   34.1450 C   0  0  0  0  0  0  0  0  0  0  0  0
   38.2460   27.2310   35.5030 C   0  0  0  0  0  0  0  0  0  0  0  0
   38.2830   26.1190   36.2970 C   0  0  0  0  0  0  0  0  0  0  0  0
   38.3280   25.5360   32.5860 H   0  0  0  0  0  0  0  0  0  0  0  0
   38.2450   27.7930   33.3950 H   0  0  0  0  0  0  0  0  0  0  0  0
   38.2040   28.2320   35.8800 H   0  0  0  0  0  0  0  0  0  0  0  0
   38.2680   26.2730   37.3880 H   0  0  0  0  0  0  0  0  0  0  0  0
   39.3940   21.4900   32.8420 C   0  0  0  0  0  0  0  0  0  0  0  0
   39.4510   22.7510   33.4360 C   0  0  0  0  0  0  0  0  0  0  0  0
   38.3120   23.3030   33.9310 C   0  0  0  0  0  0  0  0  0  0  0  0
   37.1580   22.5720   33.8320 N   0  0  0  0  0  0  0  0  0  0  0  0
   37.1160   21.3560   33.2700 C   0  0  0  0  0  0  0  0  0  0  0  0
   38.2360   20.8300   32.7750 N   0  0  0  0  0  0  0  0  0  0  0  0
   40.1760   20.8860   32.3850 H   0  0  0  0  0  0  0  0  0  0  0  0
   40.4870   22.9770   33.4520 H   0  0  0  0  0  0  0  0  0  0  0  0
   35.8300   20.6260   33.3580 C   0  0  0  0  0  0  0  0  0  0  0  0
   35.9670   19.2920   33.0310 F   0  0  0  0  0  0  0  0  0  0  0  0
   35.3570   20.5990   34.7110 F   0  0  0  0  0  0  0  0  0  0  0  0
   34.8210   21.1650   32.6730 F   0  0  0  0  0  0  0  0  0  0  0  0
   38.3960   23.4870   36.9930 S   0  0  0  0  0  0  0  0  0  0  0  0
   37.0700   22.8220   37.1060 O   0  0  0  0  0  0  0  0  0  0  0  0
   38.3400   24.3190   38.2730 O   0  0  0  0  0  0  0  0  0  0  0  0
   39.7820   22.8070   37.7260 C   0  0  0  0  0  2  0  0  0  0  0  0
   40.4160   23.5470   38.2030 H   0  0  0  0  0  0  0  0  0  0  0  0
  1  6  1  0  0  0  0
  1 23  1  0  0  0  0
  2  1  2  0  0  0  0
  3  4  2  0  0  0  0
  3  2  1  0  0  0  0
  4  5  1  0  0  0  0
  5  9  1  0  0  0  0
  5  6  2  0  0  0  0
  6 10  1  0  0  0  0
  7  3  1  0  0  0  0
  8  4  1  0  0  0  0
 11 12  1  0  0  0  0
 12 18  1  0  0  0  0
 12 13  2  0  0  0  0
 13  2  1  0  0  0  0
 14 13  1  0  0  0  0
 15 19  1  0  0  0  0
 15 14  2  0  0  0  0
 16 11  2  0  0  0  0
 16 15  1  0  0  0  0
 17 11  1  0  0  0  0
 19 21  1  0  0  0  0
 20 19  1  0  0  0  0
 22 19  1  0  0  0  0
 23 24  2  0  0  0  0
 23 26  1  0  0  0  0
 23 25  2  0  0  0  0
 26 27  1  0  0  0  0
M  END
>  <minimizedAffinity>
-5.24149895

$$$$

 OpenBabel03272510033D

 27 28  0  0  0  0  0  0  0  0999 V2000
   36.7200   26.5330   32.6890 C   0  0  0  0  0  0  0  0  0  0  0  0
   37.1300   26.8390   33.9570 C   0  0  0  0  0  0  0  0  0  0  0  0
   36.7150   28.0180   34.5380 C   0  0  0  0  0  0  0  0  0  0  0  0
   35.8990   28.9290   33.9000 C   0  0  0  0  0  0  0  0  0  0  0  0
   35.4750   28.6570   32.6210 C   0  0  0  0  0  0  0  0  0  0  0  0
   35.8990   27.4790   32.0720 C   0  0  0  0  0  0  0  0  0  0  0  0
   37.0660   28.2210   35.5650 H   0  0  0  0  0  0  0  0  0  0  0  0
   35.6450   29.8110   34.4650 H   0  0  0  0  0  0  0  0  0  0  0  0
   34.8440   29.3590   32.1150 H   0  0  0  0  0  0  0  0  0  0  0  0
   35.5670   27.2480   31.0470 H   0  0  0  0  0  0  0  0  0  0  0  0
   40.1950   24.9920   34.8750 C   0  0  0  0  0  0  0  0  0  0  0  0
   39.3280   25.8630   34.2170 C   0  0  0  0  0  0  0  0  0  0  0  0
   38.0470   25.9830   34.6560 C   0  0  0  0  0  0  0  0  0  0  0  0
   37.6790   25.2430   35.7480 N   0  0  0  0  0  0  0  0  0  0  0  0
   38.5240   24.4180   36.3810 C   0  0  0  0  0  0  0  0  0  0  0  0
   39.7730   24.2960   35.9340 N   0  0  0  0  0  0  0  0  0  0  0  0
   41.2380   24.7480   34.6810 H   0  0  0  0  0  0  0  0  0  0  0  0
   39.9490   26.3530   33.5090 H   0  0  0  0  0  0  0  0  0  0  0  0
   38.0290   23.7880   37.6280 C   0  0  0  0  0  0  0  0  0  0  0  0
   37.0280   22.8690   37.3840 F   0  0  0  0  0  0  0  0  0  0  0  0
   39.0630   23.0090   38.2440 F   0  0  0  0  0  0  0  0  0  0  0  0
   37.6500   24.6360   38.5840 F   0  0  0  0  0  0  0  0  0  0  0  0
   37.1600   25.0720   31.8640 S   0  0  0  0  0  0  0  0  0  0  0  0
   38.1740   25.3440   30.8090 O   0  0  0  0  0  0  0  0  0  0  0  0
   35.9280   24.9600   30.9660 O   0  0  0  0  0  0  0  0  0  0  0  0
   36.7520   23.4700   32.2950 C   0  0  0  0  0  2  0  0  0  0  0  0
   35.6870   23.3300   32.4480 H   0  0  0  0  0  0  0  0  0  0  0  0
  1  2  1  0  0  0  0
  2  3  2  0  0  0  0
  2 13  1  0  0  0  0
  3  7  1  0  0  0  0
  4  8  1  0  0  0  0
  4  3  1  0  0  0  0
  5  4  2  0  0  0  0
  6  5  1  0  0  0  0
  6  1  2  0  0  0  0
  9  5  1  0  0  0  0
 10  6  1  0  0  0  0
 11 16  1  0  0  0  0
 12 13  1  0  0  0  0
 12 11  2  0  0  0  0
 13 14  2  0  0  0  0
 14 15  1  0  0  0  0
 15 19  1  0  0  0  0
 16 15  2  0  0  0  0
 17 11  1  0  0  0  0
 18 12  1  0  0  0  0
 19 21  1  0  0  0  0
 19 22  1  0  0  0  0
 20 19  1  0  0  0  0
 23 26  1  0  0  0  0
 23  1  1  0  0  0  0
 24 23  2  0  0  0  0
 25 23  2  0  0  0  0
 26 27  1  0  0  0  0
M  END
>  <minimizedAffinity>
-5.23964214

$$$$

 OpenBabel03272510033D

 27 28  0  0  0  0  0  0  0  0999 V2000
   37.8890   24.8690   34.0010 C   0  0  0  0  0  0  0  0  0  0  0  0
   38.0570   25.3110   35.2840 C   0  0  0  0  0  0  0  0  0  0  0  0
   37.8180   26.6360   35.5800 C   0  0  0  0  0  0  0  0  0  0  0  0
   37.4170   27.5610   34.6390 C   0  0  0  0  0  0  0  0  0  0  0  0
   37.2460   27.1510   33.3380 C   0  0  0  0  0  0  0  0  0  0  0  0
   37.4870   25.8320   33.0730 C   0  0  0  0  0  0  0  0  0  0  0  0
   37.9610   26.9480   36.6290 H   0  0  0  0  0  0  0  0  0  0  0  0
   37.2610   28.5640   35.0010 H   0  0  0  0  0  0  0  0  0  0  0  0
   36.9390   27.8620   32.5980 H   0  0  0  0  0  0  0  0  0  0  0  0
   37.3550   25.4890   32.0350 H   0  0  0  0  0  0  0  0  0  0  0  0
   38.3550   23.4320   38.4500 C   0  0  0  0  0  0  0  0  0  0  0  0
   37.8400   24.2520   37.4470 C   0  0  0  0  0  0  0  0  0  0  0  0
   38.5520   24.4300   36.3030 C   0  0  0  0  0  0  0  0  0  0  0  0
   39.7470   23.7690   36.1910 N   0  0  0  0  0  0  0  0  0  0  0  0
   40.2280   22.9740   37.1560 C   0  0  0  0  0  0  0  0  0  0  0  0
   39.5290   22.8180   38.2800 N   0  0  0  0  0  0  0  0  0  0  0  0
   37.9550   23.1700   39.4280 H   0  0  0  0  0  0  0  0  0  0  0  0
   36.8710   24.5040   37.7990 H   0  0  0  0  0  0  0  0  0  0  0  0
   41.4620   22.2180   36.8410 C   0  0  0  0  0  0  0  0  0  0  0  0
   42.5860   23.0180   36.8810 F   0  0  0  0  0  0  0  0  0  0  0  0
   41.7150   21.2250   37.8440 F   0  0  0  0  0  0  0  0  0  0  0  0
   41.4320   21.5260   35.7020 F   0  0  0  0  0  0  0  0  0  0  0  0
   38.1400   23.2230   33.5120 S   0  0  0  0  0  0  0  0  0  0  0  0
   39.3870   23.0910   32.7130 O   0  0  0  0  0  0  0  0  0  0  0  0
   37.1330   23.1900   32.3630 O   0  0  0  0  0  0  0  0  0  0  0  0
   37.2880   21.8390   34.0410 C   0  0  0  0  0  2  0  0  0  0  0  0
   36.2120   21.9400   33.9450 H   0  0  0  0  0  0  0  0  0  0  0  0
  1  2  1  0  0  0  0
  2  3  2  0  0  0  0
  2 13  1  0  0  0  0
  3  7  1  0  0  0  0
  4  8  1  0  0  0  0
  4  3  1  0  0  0  0
  5  4  2  0  0  0  0
  6  5  1  0  0  0  0
  6  1  2  0  0  0  0
  9  5  1  0  0  0  0
 10  6  1  0  0  0  0
 11 17  1  0  0  0  0
 12 18  1  0  0  0  0
 12 11  2  0  0  0  0
 13 12  1  0  0  0  0
 14 13  2  0  0  0  0
 14 15  1  0  0  0  0
 15 16  2  0  0  0  0
 16 11  1  0  0  0  0
 19 20  1  0  0  0  0
 19 15  1  0  0  0  0
 19 21  1  0  0  0  0
 22 19  1  0  0  0  0
 23  1  1  0  0  0  0
 23 26  1  0  0  0  0
 24 23  2  0  0  0  0
 25 23  2  0  0  0  0
 27 26  1  0  0  0  0
M  END
>  <minimizedAffinity>
-5.21914721

$$$$

 OpenBabel03272510033D

 27 28  0  0  0  0  0  0  0  0999 V2000
   36.6590   22.9980   32.5410 C   0  0  0  0  0  0  0  0  0  0  0  0
   37.4340   23.9440   33.1510 C   0  0  0  0  0  0  0  0  0  0  0  0
   37.4100   25.2420   32.6870 C   0  0  0  0  0  0  0  0  0  0  0  0
   36.6390   25.6490   31.6170 C   0  0  0  0  0  0  0  0  0  0  0  0
   35.8540   24.7200   30.9750 C   0  0  0  0  0  0  0  0  0  0  0  0
   35.8960   23.4420   31.4590 C   0  0  0  0  0  0  0  0  0  0  0  0
   38.0460   25.9740   33.2130 H   0  0  0  0  0  0  0  0  0  0  0  0
   36.7080   26.6920   31.3560 H   0  0  0  0  0  0  0  0  0  0  0  0
   35.2550   25.0230   30.1410 H   0  0  0  0  0  0  0  0  0  0  0  0
   35.2730   22.6870   30.9540 H   0  0  0  0  0  0  0  0  0  0  0  0
   40.3840   22.6710   34.9720 C   0  0  0  0  0  0  0  0  0  0  0  0
   39.5470   23.0610   33.9280 C   0  0  0  0  0  0  0  0  0  0  0  0
   38.3260   23.5850   34.2170 C   0  0  0  0  0  0  0  0  0  0  0  0
   37.9890   23.7170   35.5370 N   0  0  0  0  0  0  0  0  0  0  0  0
   38.8060   23.3500   36.5340 C   0  0  0  0  0  0  0  0  0  0  0  0
   39.9950   22.8240   36.2400 N   0  0  0  0  0  0  0  0  0  0  0  0
   41.3800   22.2290   34.9560 H   0  0  0  0  0  0  0  0  0  0  0  0
   40.1460   22.9340   33.0620 H   0  0  0  0  0  0  0  0  0  0  0  0
   38.3670   23.6790   37.9100 C   0  0  0  0  0  0  0  0  0  0  0  0
   37.3330   22.8680   38.3330 F   0  0  0  0  0  0  0  0  0  0  0  0
   39.4160   23.4120   38.8510 F   0  0  0  0  0  0  0  0  0  0  0  0
   38.0620   24.9590   38.1210 F   0  0  0  0  0  0  0  0  0  0  0  0
   36.5910   21.3400   33.0470 S   0  0  0  0  0  0  0  0  0  0  0  0
   37.6420   20.5340   32.3680 O   0  0  0  0  0  0  0  0  0  0  0  0
   35.3960   20.9090   32.1980 O   0  0  0  0  0  0  0  0  0  0  0  0
   35.6720   20.6790   34.3280 C   0  0  0  0  0  2  0  0  0  0  0  0
   34.6200   20.9410   34.2730 H   0  0  0  0  0  0  0  0  0  0  0  0
  1 23  1  0  0  0  0
  1  2  1  0  0  0  0
  2 13  1  0  0  0  0
  3  2  2  0  0  0  0
  3  7  1  0  0  0  0
  4  3  1  0  0  0  0
  5  6  1  0  0  0  0
  5  4  2  0  0  0  0
  6  1  2  0  0  0  0
  8  4  1  0  0  0  0
  9  5  1  0  0  0  0
 10  6  1  0  0  0  0
 11 16  1  0  0  0  0
 12 13  1  0  0  0  0
 12 11  2  0  0  0  0
 13 14  2  0  0  0  0
 14 15  1  0  0  0  0
 15 19  1  0  0  0  0
 16 15  2  0  0  0  0
 17 11  1  0  0  0  0
 18 12  1  0  0  0  0
 19 22  1  0  0  0  0
 19 20  1  0  0  0  0
 19 21  1  0  0  0  0
 23 26  1  0  0  0  0
 24 23  2  0  0  0  0
 25 23  2  0  0  0  0
 27 26  1  0  0  0  0
M  END
>  <minimizedAffinity>
-5.1248951

$$$$

 OpenBabel03272510033D

 27 28  0  0  0  0  0  0  0  0999 V2000
   38.7800   25.4320   33.4170 C   0  0  0  0  0  0  0  0  0  0  0  0
   38.4990   24.1380   33.7570 C   0  0  0  0  0  0  0  0  0  0  0  0
   37.6220   23.4100   32.9810 C   0  0  0  0  0  0  0  0  0  0  0  0
   36.9960   23.9210   31.8630 C   0  0  0  0  0  0  0  0  0  0  0  0
   37.2510   25.2220   31.4980 C   0  0  0  0  0  0  0  0  0  0  0  0
   38.1260   25.9190   32.2840 C   0  0  0  0  0  0  0  0  0  0  0  0
   37.4290   22.3670   33.2890 H   0  0  0  0  0  0  0  0  0  0  0  0
   36.3360   23.2470   31.3430 H   0  0  0  0  0  0  0  0  0  0  0  0
   36.7670   25.6310   30.6350 H   0  0  0  0  0  0  0  0  0  0  0  0
   38.3390   26.9630   32.0040 H   0  0  0  0  0  0  0  0  0  0  0  0
   40.5860   22.1100   36.0310 C   0  0  0  0  0  0  0  0  0  0  0  0
   40.0960   22.7030   34.8680 C   0  0  0  0  0  0  0  0  0  0  0  0
   39.0440   23.5590   34.9520 C   0  0  0  0  0  0  0  0  0  0  0  0
   38.5260   23.8080   36.1950 N   0  0  0  0  0  0  0  0  0  0  0  0
   39.0110   23.2410   37.3080 C   0  0  0  0  0  0  0  0  0  0  0  0
   40.0340   22.3920   37.2140 N   0  0  0  0  0  0  0  0  0  0  0  0
   41.4000   21.4020   36.1780 H   0  0  0  0  0  0  0  0  0  0  0  0
   40.7810   22.3940   34.1190 H   0  0  0  0  0  0  0  0  0  0  0  0
   38.4430   23.7090   38.5940 C   0  0  0  0  0  0  0  0  0  0  0  0
   37.7860   24.9150   38.4640 F   0  0  0  0  0  0  0  0  0  0  0  0
   37.4210   22.8120   39.0490 F   0  0  0  0  0  0  0  0  0  0  0  0
   39.3020   23.7620   39.6120 F   0  0  0  0  0  0  0  0  0  0  0  0
   39.8800   26.4400   34.3030 S   0  0  0  0  0  0  0  0  0  0  0  0
   39.1410   27.3780   35.1910 O   0  0  0  0  0  0  0  0  0  0  0  0
   40.2210   27.4170   33.1800 O   0  0  0  0  0  0  0  0  0  0  0  0
   41.5770   26.2790   34.4170 C   0  0  0  0  0  2  0  0  0  0  0  0
   42.0630   26.2150   33.4490 H   0  0  0  0  0  0  0  0  0  0  0  0
  1  2  1  0  0  0  0
  1 23  1  0  0  0  0
  2 13  1  0  0  0  0
  3  7  1  0  0  0  0
  3  2  2  0  0  0  0
  4  3  1  0  0  0  0
  5  4  2  0  0  0  0
  5  6  1  0  0  0  0
  6  1  2  0  0  0  0
  8  4  1  0  0  0  0
  9  5  1  0  0  0  0
 10  6  1  0  0  0  0
 11 17  1  0  0  0  0
 11 16  1  0  0  0  0
 12 13  1  0  0  0  0
 12 11  2  0  0  0  0
 13 14  2  0  0  0  0
 14 15  1  0  0  0  0
 15 19  1  0  0  0  0
 16 15  2  0  0  0  0
 18 12  1  0  0  0  0
 19 21  1  0  0  0  0
 19 22  1  0  0  0  0
 20 19  1  0  0  0  0
 23 26  1  0  0  0  0
 23 24  2  0  0  0  0
 25 23  2  0  0  0  0
 27 26  1  0  0  0  0
M  END
>  <minimizedAffinity>
-5.05436897

$$$$

 OpenBabel03272510033D

 27 28  0  0  0  0  0  0  0  0999 V2000
   37.4880   22.7110   33.4960 C   0  0  0  0  0  0  0  0  0  0  0  0
   37.3560   21.9910   34.6510 C   0  0  0  0  0  0  0  0  0  0  0  0
   36.4170   20.9830   34.7170 C   0  0  0  0  0  0  0  0  0  0  0  0
   35.5830   20.6560   33.6680 C   0  0  0  0  0  0  0  0  0  0  0  0
   35.6840   21.3660   32.4950 C   0  0  0  0  0  0  0  0  0  0  0  0
   36.6250   22.3570   32.4570 C   0  0  0  0  0  0  0  0  0  0  0  0
   36.3490   20.4240   35.6660 H   0  0  0  0  0  0  0  0  0  0  0  0
   34.8950   19.8460   33.8480 H   0  0  0  0  0  0  0  0  0  0  0  0
   35.0390   21.1240   31.6760 H   0  0  0  0  0  0  0  0  0  0  0  0
   36.7170   22.9350   31.5240 H   0  0  0  0  0  0  0  0  0  0  0  0
   38.3230   23.3680   37.9390 C   0  0  0  0  0  0  0  0  0  0  0  0
   37.5490   23.0080   36.8360 C   0  0  0  0  0  0  0  0  0  0  0  0
   38.1280   22.3240   35.8140 C   0  0  0  0  0  0  0  0  0  0  0  0
   39.4550   22.0060   35.9350 N   0  0  0  0  0  0  0  0  0  0  0  0
   40.1870   22.3470   37.0050 C   0  0  0  0  0  0  0  0  0  0  0  0
   39.6140   23.0300   37.9940 N   0  0  0  0  0  0  0  0  0  0  0  0
   38.0590   23.9160   38.8430 H   0  0  0  0  0  0  0  0  0  0  0  0
   36.5660   23.2980   37.1110 H   0  0  0  0  0  0  0  0  0  0  0  0
   41.5690   21.8180   37.0610 C   0  0  0  0  0  0  0  0  0  0  0  0
   41.7640   20.9870   38.1460 F   0  0  0  0  0  0  0  0  0  0  0  0
   41.8310   20.9720   35.9330 F   0  0  0  0  0  0  0  0  0  0  0  0
   42.5340   22.7360   37.0070 F   0  0  0  0  0  0  0  0  0  0  0  0
   38.6450   23.9870   33.2880 S   0  0  0  0  0  0  0  0  0  0  0  0
   38.1090   25.2770   33.7990 O   0  0  0  0  0  0  0  0  0  0  0  0
   38.4240   24.2280   31.7960 O   0  0  0  0  0  0  0  0  0  0  0  0
   40.2830   23.8410   32.8240 C   0  0  0  0  0  2  0  0  0  0  0  0
   40.4160   23.2650   31.9140 H   0  0  0  0  0  0  0  0  0  0  0  0
  1  2  1  0  0  0  0
  2  3  2  0  0  0  0
  2 13  1  0  0  0  0
  3  7  1  0  0  0  0
  4  8  1  0  0  0  0
  4  3  1  0  0  0  0
  5  4  2  0  0  0  0
  6  5  1  0  0  0  0
  6  1  2  0  0  0  0
  9  5  1  0  0  0  0
 10  6  1  0  0  0  0
 11 16  1  0  0  0  0
 11 17  1  0  0  0  0
 12 18  1  0  0  0  0
 12 11  2  0  0  0  0
 13 14  2  0  0  0  0
 13 12  1  0  0  0  0
 14 15  1  0  0  0  0
 15 19  1  0  0  0  0
 15 16  2  0  0  0  0
 19 20  1  0  0  0  0
 21 19  1  0  0  0  0
 22 19  1  0  0  0  0
 23  1  1  0  0  0  0
 23 24  2  0  0  0  0
 25 23  2  0  0  0  0
 26 23  1  0  0  0  0
 27 26  1  0  0  0  0
M  END
>  <minimizedAffinity>
-5.04182291

$$$$

 OpenBabel03272510033D

 27 28  0  0  0  0  0  0  0  0999 V2000
   39.2890   26.1980   33.3180 C   0  0  0  0  0  0  0  0  0  0  0  0
   39.9440   25.1460   33.8950 C   0  0  0  0  0  0  0  0  0  0  0  0
   41.2960   24.9890   33.6780 C   0  0  0  0  0  0  0  0  0  0  0  0
   42.0410   25.8450   32.8940 C   0  0  0  0  0  0  0  0  0  0  0  0
   41.4110   26.9090   32.2920 C   0  0  0  0  0  0  0  0  0  0  0  0
   40.0710   27.0410   32.5270 C   0  0  0  0  0  0  0  0  0  0  0  0
   41.7850   24.1290   34.1690 H   0  0  0  0  0  0  0  0  0  0  0  0
   43.0900   25.6130   32.8080 H   0  0  0  0  0  0  0  0  0  0  0  0
   41.9790   27.5770   31.6780 H   0  0  0  0  0  0  0  0  0  0  0  0
   39.5530   27.8890   32.0500 H   0  0  0  0  0  0  0  0  0  0  0  0
   37.9580   22.1580   34.7750 C   0  0  0  0  0  0  0  0  0  0  0  0
   38.6960   23.0790   34.0320 C   0  0  0  0  0  0  0  0  0  0  0  0
   39.2250   24.1640   34.6560 C   0  0  0  0  0  0  0  0  0  0  0  0
   39.0140   24.2850   36.0040 N   0  0  0  0  0  0  0  0  0  0  0  0
   38.3140   23.3880   36.7120 C   0  0  0  0  0  0  0  0  0  0  0  0
   37.7870   22.3350   36.0870 N   0  0  0  0  0  0  0  0  0  0  0  0
   37.4520   21.2430   34.4700 H   0  0  0  0  0  0  0  0  0  0  0  0
   38.7630   22.6340   33.0710 H   0  0  0  0  0  0  0  0  0  0  0  0
   38.2850   23.5750   38.1810 C   0  0  0  0  0  0  0  0  0  0  0  0
   39.5170   23.3420   38.7580 F   0  0  0  0  0  0  0  0  0  0  0  0
   38.0080   24.9430   38.5100 F   0  0  0  0  0  0  0  0  0  0  0  0
   37.3400   22.8910   38.8250 F   0  0  0  0  0  0  0  0  0  0  0  0
   37.5960   26.5090   33.5330 S   0  0  0  0  0  0  0  0  0  0  0  0
   36.7810   25.6630   32.6200 O   0  0  0  0  0  0  0  0  0  0  0  0
   37.5220   27.8180   32.7490 O   0  0  0  0  0  0  0  0  0  0  0  0
   36.8550   27.4310   34.7660 C   0  0  0  0  0  2  0  0  0  0  0  0
   37.2810   28.4240   34.8670 H   0  0  0  0  0  0  0  0  0  0  0  0
  1 23  1  0  0  0  0
  1  2  1  0  0  0  0
  2 13  1  0  0  0  0
  3  2  2  0  0  0  0
  3  7  1  0  0  0  0
  4  3  1  0  0  0  0
  5  6  1  0  0  0  0
  5  4  2  0  0  0  0
  6  1  2  0  0  0  0
  8  4  1  0  0  0  0
  9  5  1  0  0  0  0
 10  6  1  0  0  0  0
 11 16  1  0  0  0  0
 12 13  1  0  0  0  0
 12 11  2  0  0  0  0
 13 14  2  0  0  0  0
 14 15  1  0  0  0  0
 15 19  1  0  0  0  0
 16 15  2  0  0  0  0
 17 11  1  0  0  0  0
 18 12  1  0  0  0  0
 19 21  1  0  0  0  0
 19 20  1  0  0  0  0
 19 22  1  0  0  0  0
 23 26  1  0  0  0  0
 24 23  2  0  0  0  0
 25 23  2  0  0  0  0
 26 27  1  0  0  0  0
M  END
>  <minimizedAffinity>
-4.98075199

$$$$
