
 OpenBabel03272510113D

 28 30  0  0  0  0  0  0  0  0999 V2000
   34.0610   28.8250   48.3060 C   0  0  0  0  0  0  0  0  0  0  0  0
   34.6620   28.3820   49.4290 C   0  0  0  0  0  0  0  0  0  0  0  0
   35.9000   28.8000   49.8740 C   0  0  0  0  0  0  0  0  0  0  0  0
   36.6020   29.7240   49.1600 C   0  0  0  0  0  0  0  0  0  0  0  0
   35.9860   30.1880   47.9970 C   0  0  0  0  0  0  0  0  0  0  0  0
   34.7810   29.7460   47.6130 N   0  0  0  0  0  0  0  0  0  0  0  0
   34.1760   27.6460   50.0570 H   0  0  0  0  0  0  0  0  0  0  0  0
   36.3770   28.4350   50.7830 H   0  0  0  0  0  0  0  0  0  0  0  0
   36.5090   30.9290   47.3920 H   0  0  0  0  0  0  0  0  0  0  0  0
   31.9270   27.5230   48.5580 C   0  0  0  0  0  0  0  0  0  0  0  0
   32.7760   28.3960   47.8380 C   0  0  0  0  0  0  0  0  0  0  0  0
   32.2990   28.8390   46.6120 C   0  0  0  0  0  0  0  0  0  0  0  0
   31.0780   28.4260   46.1750 N   0  0  0  0  0  0  0  0  0  0  0  0
   30.3100   27.5820   46.9210 C   0  0  0  0  0  0  0  0  0  0  0  0
   30.7330   27.1260   48.1200 N   0  0  0  0  0  0  0  0  0  0  0  0
   32.2670   27.1610   49.5120 H   0  0  0  0  0  0  0  0  0  0  0  0
   32.9310   29.5010   46.0530 H   0  0  0  0  0  0  0  0  0  0  0  0
   29.3920   27.4050   46.3600 H   0  0  0  0  0  0  0  0  0  0  0  0
   37.8590   30.2500   49.4690 O   0  0  0  0  0  0  0  0  0  0  0  0
   38.4060   31.2950   48.7280 C   0  0  0  0  0  0  0  0  0  0  0  0
   38.4190   32.5200   49.3880 C   0  0  0  0  0  0  0  0  0  0  0  0
   38.9900   33.4560   48.5280 C   0  0  0  0  0  0  0  0  0  0  0  0
   39.2950   32.7860   47.4070 N   0  0  0  0  0  0  0  0  0  0  0  0
   38.9550   31.5260   47.5230 N   0  0  0  0  0  0  0  0  0  0  0  0
   38.1000   32.8850   50.3710 H   0  0  0  0  0  0  0  0  0  0  0  0
   39.2130   34.5080   48.5820 H   0  0  0  0  0  0  0  0  0  0  0  0
   39.9030   33.1640   46.1450 C   0  0  0  0  0  2  0  0  0  0  0  0
   39.6380   34.2260   45.8750 H   0  0  0  0  0  0  0  0  0  0  0  0
  1  2  1  0  0  0  0
  2  3  2  0  0  0  0
  2  7  1  0  0  0  0
  3  8  1  0  0  0  0
  4 19  1  0  0  0  0
  4  3  1  0  0  0  0
  5  4  2  0  0  0  0
  6  5  1  0  0  0  0
  6  1  2  0  0  0  0
  9  5  1  0  0  0  0
 10 16  1  0  0  0  0
 11  1  1  0  0  0  0
 11 10  2  0  0  0  0
 12 11  1  0  0  0  0
 13 12  2  0  0  0  0
 13 14  1  0  0  0  0
 14 15  2  0  0  0  0
 15 10  1  0  0  0  0
 17 12  1  0  0  0  0
 18 14  1  0  0  0  0
 20 21  1  0  0  0  0
 20 19  1  0  0  0  0
 21 25  1  0  0  0  0
 22 26  1  0  0  0  0
 22 21  2  0  0  0  0
 23 24  1  0  0  0  0
 23 22  1  0  0  0  0
 24 20  2  0  0  0  0
 27 23  1  0  0  0  0
 28 27  1  0  0  0  0
M  END
>  <minimizedAffinity>
-5.37667513

>  <minimizedRMSD>
0.489577085

$$$$
