
 OpenBabel03272510113D

 28 30  0  0  0  0  0  0  0  0999 V2000
   34.0630   28.8240   48.3100 C   0  0  0  0  0  0  0  0  0  0  0  0
   34.6650   28.3810   49.4320 C   0  0  0  0  0  0  0  0  0  0  0  0
   35.9020   28.8010   49.8780 C   0  0  0  0  0  0  0  0  0  0  0  0
   36.6020   29.7280   49.1640 C   0  0  0  0  0  0  0  0  0  0  0  0
   35.9850   30.1900   48.0010 C   0  0  0  0  0  0  0  0  0  0  0  0
   34.7810   29.7470   47.6170 N   0  0  0  0  0  0  0  0  0  0  0  0
   34.1800   27.6440   50.0600 H   0  0  0  0  0  0  0  0  0  0  0  0
   36.3800   28.4360   50.7860 H   0  0  0  0  0  0  0  0  0  0  0  0
   36.5070   30.9330   47.3970 H   0  0  0  0  0  0  0  0  0  0  0  0
   31.9290   27.5210   48.5630 C   0  0  0  0  0  0  0  0  0  0  0  0
   32.7790   28.3930   47.8410 C   0  0  0  0  0  0  0  0  0  0  0  0
   32.3020   28.8320   46.6140 C   0  0  0  0  0  0  0  0  0  0  0  0
   31.0820   28.4170   46.1770 N   0  0  0  0  0  0  0  0  0  0  0  0
   30.3140   27.5750   46.9250 C   0  0  0  0  0  0  0  0  0  0  0  0
   30.7360   27.1230   48.1250 N   0  0  0  0  0  0  0  0  0  0  0  0
   32.2690   27.1620   49.5190 H   0  0  0  0  0  0  0  0  0  0  0  0
   32.9340   29.4930   46.0540 H   0  0  0  0  0  0  0  0  0  0  0  0
   29.3960   27.3960   46.3630 H   0  0  0  0  0  0  0  0  0  0  0  0
   37.8580   30.2550   49.4730 O   0  0  0  0  0  0  0  0  0  0  0  0
   38.4070   31.2970   48.7280 C   0  0  0  0  0  0  0  0  0  0  0  0
   38.4230   32.5240   49.3830 C   0  0  0  0  0  0  0  0  0  0  0  0
   38.9950   33.4550   48.5190 C   0  0  0  0  0  0  0  0  0  0  0  0
   39.2980   32.7800   47.4000 N   0  0  0  0  0  0  0  0  0  0  0  0
   38.9550   31.5220   47.5210 N   0  0  0  0  0  0  0  0  0  0  0  0
   38.1050   32.8930   50.3640 H   0  0  0  0  0  0  0  0  0  0  0  0
   39.2200   34.5070   48.5680 H   0  0  0  0  0  0  0  0  0  0  0  0
   39.9050   33.1520   46.1360 C   0  0  0  0  0  0  0  0  0  0  0  0
   39.8780   34.2700   45.9910 H   0  0  0  0  0  0  0  0  0  0  0  0
  1  2  1  0  0  0  0
  2  3  2  0  0  0  0
  2  7  1  0  0  0  0
  3  8  1  0  0  0  0
  4 19  1  0  0  0  0
  4  3  1  0  0  0  0
  5  4  2  0  0  0  0
  6  5  1  0  0  0  0
  6  1  2  0  0  0  0
  9  5  1  0  0  0  0
 10 16  1  0  0  0  0
 11  1  1  0  0  0  0
 11 10  2  0  0  0  0
 12 11  1  0  0  0  0
 13 12  2  0  0  0  0
 13 14  1  0  0  0  0
 14 15  2  0  0  0  0
 15 10  1  0  0  0  0
 17 12  1  0  0  0  0
 18 14  1  0  0  0  0
 20 21  1  0  0  0  0
 20 19  1  0  0  0  0
 21 25  1  0  0  0  0
 22 26  1  0  0  0  0
 22 21  2  0  0  0  0
 23 24  1  0  0  0  0
 23 22  1  0  0  0  0
 24 20  2  0  0  0  0
 27 23  1  0  0  0  0
 28 27  1  0  0  0  0
M  END
>  <minimizedAffinity>
-5.38044786

>  <minimizedRMSD>
0.495031923

$$$$
