
 OpenBabel03272510123D

 28 30  0  0  0  0  0  0  0  0999 V2000
   38.5590   25.4500   35.3940 C   0  0  0  0  0  0  0  0  0  0  0  0
   38.5370   26.6680   35.9740 C   0  0  0  0  0  0  0  0  0  0  0  0
   37.8290   27.7520   35.4960 C   0  0  0  0  0  0  0  0  0  0  0  0
   37.0870   27.6310   34.3590 C   0  0  0  0  0  0  0  0  0  0  0  0
   37.1060   26.3740   33.7530 C   0  0  0  0  0  0  0  0  0  0  0  0
   37.8120   25.3560   34.2630 N   0  0  0  0  0  0  0  0  0  0  0  0
   39.0980   26.8530   36.8810 H   0  0  0  0  0  0  0  0  0  0  0  0
   37.8180   28.7310   35.9730 H   0  0  0  0  0  0  0  0  0  0  0  0
   36.5280   26.2290   32.8410 H   0  0  0  0  0  0  0  0  0  0  0  0
   40.4540   23.8050   35.2630 C   0  0  0  0  0  0  0  0  0  0  0  0
   39.2910   24.3200   35.8840 C   0  0  0  0  0  0  0  0  0  0  0  0
   38.8710   23.6630   37.0340 C   0  0  0  0  0  0  0  0  0  0  0  0
   39.5730   22.5920   37.4910 N   0  0  0  0  0  0  0  0  0  0  0  0
   40.6860   22.1470   36.8430 C   0  0  0  0  0  0  0  0  0  0  0  0
   41.1330   22.7540   35.7220 N   0  0  0  0  0  0  0  0  0  0  0  0
   40.8060   24.2910   34.3700 H   0  0  0  0  0  0  0  0  0  0  0  0
   37.9920   24.0410   37.5160 H   0  0  0  0  0  0  0  0  0  0  0  0
   41.0610   21.2880   37.4010 H   0  0  0  0  0  0  0  0  0  0  0  0
   36.3190   28.6230   33.7450 O   0  0  0  0  0  0  0  0  0  0  0  0
   35.6600   29.5950   34.4960 C   0  0  0  0  0  0  0  0  0  0  0  0
   34.2730   29.5360   34.4170 C   0  0  0  0  0  0  0  0  0  0  0  0
   33.7630   30.5600   35.2120 C   0  0  0  0  0  0  0  0  0  0  0  0
   34.8280   31.1880   35.7310 N   0  0  0  0  0  0  0  0  0  0  0  0
   35.9350   30.6250   35.3130 N   0  0  0  0  0  0  0  0  0  0  0  0
   33.5420   28.9030   33.9010 H   0  0  0  0  0  0  0  0  0  0  0  0
   32.7770   30.9120   35.4670 H   0  0  0  0  0  0  0  0  0  0  0  0
   34.9900   32.3180   36.6260 C   0  0  0  0  0  2  0  0  0  0  0  0
   34.0420   32.9250   36.6830 H   0  0  0  0  0  0  0  0  0  0  0  0
  1 11  1  0  0  0  0
  1  2  1  0  0  0  0
  2  7  1  0  0  0  0
  3  8  1  0  0  0  0
  3  2  2  0  0  0  0
  4  3  1  0  0  0  0
  5  6  1  0  0  0  0
  5  4  2  0  0  0  0
  6  1  2  0  0  0  0
  9  5  1  0  0  0  0
 10 15  2  0  0  0  0
 10 11  1  0  0  0  0
 11 12  2  0  0  0  0
 12 13  1  0  0  0  0
 12 17  1  0  0  0  0
 14 18  1  0  0  0  0
 14 13  2  0  0  0  0
 15 14  1  0  0  0  0
 16 10  1  0  0  0  0
 19  4  1  0  0  0  0
 19 20  1  0  0  0  0
 20 24  2  0  0  0  0
 21 20  1  0  0  0  0
 21 22  2  0  0  0  0
 22 26  1  0  0  0  0
 22 23  1  0  0  0  0
 23 27  1  0  0  0  0
 24 23  1  0  0  0  0
 25 21  1  0  0  0  0
 27 28  1  0  0  0  0
M  END
>  <minimizedAffinity>
-4.92951488

$$$$

 OpenBabel03272510123D

 28 30  0  0  0  0  0  0  0  0999 V2000
   36.2360   22.7900   32.0020 C   0  0  0  0  0  0  0  0  0  0  0  0
   35.4870   23.6750   31.3130 C   0  0  0  0  0  0  0  0  0  0  0  0
   35.7050   25.0370   31.2870 C   0  0  0  0  0  0  0  0  0  0  0  0
   36.7400   25.5730   31.9950 C   0  0  0  0  0  0  0  0  0  0  0  0
   37.5190   24.6640   32.7110 C   0  0  0  0  0  0  0  0  0  0  0  0
   37.2610   23.3490   32.6990 N   0  0  0  0  0  0  0  0  0  0  0  0
   34.6440   23.3360   30.7230 H   0  0  0  0  0  0  0  0  0  0  0  0
   35.0930   25.7430   30.7270 H   0  0  0  0  0  0  0  0  0  0  0  0
   38.3590   25.0450   33.2920 H   0  0  0  0  0  0  0  0  0  0  0  0
   36.1560   20.5300   30.9070 C   0  0  0  0  0  0  0  0  0  0  0  0
   36.0160   21.3750   32.0340 C   0  0  0  0  0  0  0  0  0  0  0  0
   35.6420   20.7550   33.2190 C   0  0  0  0  0  0  0  0  0  0  0  0
   35.4350   19.4100   33.2390 N   0  0  0  0  0  0  0  0  0  0  0  0
   35.5880   18.6550   32.1150 C   0  0  0  0  0  0  0  0  0  0  0  0
   35.9510   19.2140   30.9400 N   0  0  0  0  0  0  0  0  0  0  0  0
   36.4450   20.9790   29.9730 H   0  0  0  0  0  0  0  0  0  0  0  0
   35.5310   21.3810   34.0820 H   0  0  0  0  0  0  0  0  0  0  0  0
   35.3680   17.6230   32.3900 H   0  0  0  0  0  0  0  0  0  0  0  0
   37.0960   26.9210   32.0760 O   0  0  0  0  0  0  0  0  0  0  0  0
   36.2080   27.8740   32.5700 C   0  0  0  0  0  0  0  0  0  0  0  0
   36.4280   28.2290   33.8970 C   0  0  0  0  0  0  0  0  0  0  0  0
   35.4710   29.1800   34.2420 C   0  0  0  0  0  0  0  0  0  0  0  0
   34.7230   29.3640   33.1450 N   0  0  0  0  0  0  0  0  0  0  0  0
   35.1520   28.6030   32.1690 N   0  0  0  0  0  0  0  0  0  0  0  0
   37.1430   27.9430   34.6770 H   0  0  0  0  0  0  0  0  0  0  0  0
   35.2360   29.7410   35.1310 H   0  0  0  0  0  0  0  0  0  0  0  0
   33.5820   30.2050   32.8370 C   0  0  0  0  0  2  0  0  0  0  0  0
   33.0890   30.5760   33.7800 H   0  0  0  0  0  0  0  0  0  0  0  0
  1 11  1  0  0  0  0
  1  6  1  0  0  0  0
  2  1  2  0  0  0  0
  3  2  1  0  0  0  0
  3  4  2  0  0  0  0
  4 19  1  0  0  0  0
  4  5  1  0  0  0  0
  5  9  1  0  0  0  0
  6  5  2  0  0  0  0
  7  2  1  0  0  0  0
  8  3  1  0  0  0  0
 10 15  2  0  0  0  0
 10 11  1  0  0  0  0
 11 12  2  0  0  0  0
 12 13  1  0  0  0  0
 12 17  1  0  0  0  0
 14 18  1  0  0  0  0
 14 13  2  0  0  0  0
 15 14  1  0  0  0  0
 16 10  1  0  0  0  0
 19 20  1  0  0  0  0
 20 21  1  0  0  0  0
 21 22  2  0  0  0  0
 21 25  1  0  0  0  0
 22 26  1  0  0  0  0
 23 22  1  0  0  0  0
 24 20  2  0  0  0  0
 24 23  1  0  0  0  0
 27 23  1  0  0  0  0
 27 28  1  0  0  0  0
M  END
>  <minimizedAffinity>
-4.77701712

$$$$

 OpenBabel03272510123D

 28 30  0  0  0  0  0  0  0  0999 V2000
   37.9200   25.5670   35.0370 C   0  0  0  0  0  0  0  0  0  0  0  0
   37.5230   26.8330   35.2790 C   0  0  0  0  0  0  0  0  0  0  0  0
   37.0230   27.6940   34.3230 C   0  0  0  0  0  0  0  0  0  0  0  0
   36.9070   27.2800   33.0300 C   0  0  0  0  0  0  0  0  0  0  0  0
   37.3160   25.9720   32.7720 C   0  0  0  0  0  0  0  0  0  0  0  0
   37.7940   25.1790   33.7410 N   0  0  0  0  0  0  0  0  0  0  0  0
   37.5810   27.2440   36.2790 H   0  0  0  0  0  0  0  0  0  0  0  0
   36.7050   28.7150   34.5290 H   0  0  0  0  0  0  0  0  0  0  0  0
   37.2420   25.5950   31.7520 H   0  0  0  0  0  0  0  0  0  0  0  0
   37.9020   24.5280   37.3250 C   0  0  0  0  0  0  0  0  0  0  0  0
   38.4400   24.6660   36.0240 C   0  0  0  0  0  0  0  0  0  0  0  0
   39.5340   23.8640   35.7270 C   0  0  0  0  0  0  0  0  0  0  0  0
   40.0200   23.0120   36.6700 N   0  0  0  0  0  0  0  0  0  0  0  0
   39.4520   22.9290   37.9060 C   0  0  0  0  0  0  0  0  0  0  0  0
   38.3870   23.6890   38.2400 N   0  0  0  0  0  0  0  0  0  0  0  0
   37.0540   25.1350   37.5880 H   0  0  0  0  0  0  0  0  0  0  0  0
   39.9530   23.9570   34.7450 H   0  0  0  0  0  0  0  0  0  0  0  0
   40.0170   22.1850   38.4690 H   0  0  0  0  0  0  0  0  0  0  0  0
   36.4250   28.0220   31.9490 O   0  0  0  0  0  0  0  0  0  0  0  0
   35.3270   28.8690   32.0860 C   0  0  0  0  0  0  0  0  0  0  0  0
   35.4380   30.0680   31.3880 C   0  0  0  0  0  0  0  0  0  0  0  0
   34.2760   30.8000   31.6210 C   0  0  0  0  0  0  0  0  0  0  0  0
   33.5220   30.0430   32.4310 N   0  0  0  0  0  0  0  0  0  0  0  0
   34.1340   28.9170   32.7020 N   0  0  0  0  0  0  0  0  0  0  0  0
   36.1900   30.5310   30.7380 H   0  0  0  0  0  0  0  0  0  0  0  0
   33.9020   31.7600   31.3100 H   0  0  0  0  0  0  0  0  0  0  0  0
   32.2160   30.2150   33.0390 C   0  0  0  0  0  2  0  0  0  0  0  0
   31.9050   31.2990   33.0220 H   0  0  0  0  0  0  0  0  0  0  0  0
  1  2  1  0  0  0  0
  1 11  1  0  0  0  0
  2  7  1  0  0  0  0
  3  8  1  0  0  0  0
  3  2  2  0  0  0  0
  4  3  1  0  0  0  0
  5  4  2  0  0  0  0
  5  6  1  0  0  0  0
  6  1  2  0  0  0  0
  9  5  1  0  0  0  0
 10 16  1  0  0  0  0
 10 15  1  0  0  0  0
 11 10  2  0  0  0  0
 12 11  1  0  0  0  0
 12 13  2  0  0  0  0
 13 14  1  0  0  0  0
 14 15  2  0  0  0  0
 14 18  1  0  0  0  0
 17 12  1  0  0  0  0
 19 20  1  0  0  0  0
 19  4  1  0  0  0  0
 20 24  2  0  0  0  0
 21 22  2  0  0  0  0
 21 20  1  0  0  0  0
 22 23  1  0  0  0  0
 23 24  1  0  0  0  0
 23 27  1  0  0  0  0
 25 21  1  0  0  0  0
 26 22  1  0  0  0  0
 28 27  1  0  0  0  0
M  END
>  <minimizedAffinity>
-4.74531698

$$$$

 OpenBabel03272510123D

 28 30  0  0  0  0  0  0  0  0999 V2000
   37.4970   27.0080   33.9260 C   0  0  0  0  0  0  0  0  0  0  0  0
   37.9400   27.4190   35.1320 C   0  0  0  0  0  0  0  0  0  0  0  0
   38.3550   26.5780   36.1450 C   0  0  0  0  0  0  0  0  0  0  0  0
   38.3300   25.2280   35.9590 C   0  0  0  0  0  0  0  0  0  0  0  0
   37.8720   24.7950   34.7150 C   0  0  0  0  0  0  0  0  0  0  0  0
   37.4820   25.6590   33.7670 N   0  0  0  0  0  0  0  0  0  0  0  0
   37.9930   28.4760   35.3650 H   0  0  0  0  0  0  0  0  0  0  0  0
   38.7110   26.9210   37.1150 H   0  0  0  0  0  0  0  0  0  0  0  0
   37.8350   23.7240   34.5190 H   0  0  0  0  0  0  0  0  0  0  0  0
   37.7320   27.9950   31.6280 C   0  0  0  0  0  0  0  0  0  0  0  0
   37.0650   27.8750   32.8700 C   0  0  0  0  0  0  0  0  0  0  0  0
   35.9310   28.6590   33.0330 C   0  0  0  0  0  0  0  0  0  0  0  0
   35.5290   29.4790   32.0250 N   0  0  0  0  0  0  0  0  0  0  0  0
   36.2200   29.5460   30.8510 C   0  0  0  0  0  0  0  0  0  0  0  0
   37.3280   28.8020   30.6470 N   0  0  0  0  0  0  0  0  0  0  0  0
   38.6150   27.4010   31.4690 H   0  0  0  0  0  0  0  0  0  0  0  0
   35.4150   28.5800   33.9690 H   0  0  0  0  0  0  0  0  0  0  0  0
   35.7020   30.2650   30.2160 H   0  0  0  0  0  0  0  0  0  0  0  0
   38.7110   24.2450   36.8750 O   0  0  0  0  0  0  0  0  0  0  0  0
   39.7710   23.3800   36.6080 C   0  0  0  0  0  0  0  0  0  0  0  0
   40.1340   22.5710   37.6800 C   0  0  0  0  0  0  0  0  0  0  0  0
   41.1950   21.7710   37.2620 C   0  0  0  0  0  0  0  0  0  0  0  0
   41.4340   22.1130   35.9880 N   0  0  0  0  0  0  0  0  0  0  0  0
   40.6030   23.0520   35.6050 N   0  0  0  0  0  0  0  0  0  0  0  0
   39.7910   22.4350   38.7110 H   0  0  0  0  0  0  0  0  0  0  0  0
   41.8030   21.0070   37.7170 H   0  0  0  0  0  0  0  0  0  0  0  0
   42.3870   21.6670   34.9890 C   0  0  0  0  0  2  0  0  0  0  0  0
   43.2420   21.1120   35.4700 H   0  0  0  0  0  0  0  0  0  0  0  0
  1  2  1  0  0  0  0
  2  7  1  0  0  0  0
  2  3  2  0  0  0  0
  3  8  1  0  0  0  0
  4  3  1  0  0  0  0
  4 19  1  0  0  0  0
  5  4  2  0  0  0  0
  6  1  2  0  0  0  0
  6  5  1  0  0  0  0
  9  5  1  0  0  0  0
 10 11  1  0  0  0  0
 11 12  2  0  0  0  0
 11  1  1  0  0  0  0
 12 17  1  0  0  0  0
 13 12  1  0  0  0  0
 14 13  2  0  0  0  0
 15 14  1  0  0  0  0
 15 10  2  0  0  0  0
 16 10  1  0  0  0  0
 18 14  1  0  0  0  0
 20 19  1  0  0  0  0
 20 21  1  0  0  0  0
 21 25  1  0  0  0  0
 22 21  2  0  0  0  0
 22 26  1  0  0  0  0
 23 22  1  0  0  0  0
 24 23  1  0  0  0  0
 24 20  2  0  0  0  0
 27 28  1  0  0  0  0
 27 23  1  0  0  0  0
M  END
>  <minimizedAffinity>
-4.72127914

$$$$

 OpenBabel03272510123D

 28 30  0  0  0  0  0  0  0  0999 V2000
   35.6370   29.1950   34.1340 C   0  0  0  0  0  0  0  0  0  0  0  0
   36.5180   28.2530   34.5280 C   0  0  0  0  0  0  0  0  0  0  0  0
   36.9860   27.2310   33.7270 C   0  0  0  0  0  0  0  0  0  0  0  0
   36.5530   27.1260   32.4390 C   0  0  0  0  0  0  0  0  0  0  0  0
   35.6420   28.0970   32.0240 C   0  0  0  0  0  0  0  0  0  0  0  0
   35.2220   29.0680   32.8460 N   0  0  0  0  0  0  0  0  0  0  0  0
   36.9140   28.2610   35.5360 H   0  0  0  0  0  0  0  0  0  0  0  0
   37.6980   26.4750   34.0560 H   0  0  0  0  0  0  0  0  0  0  0  0
   35.2670   28.0540   31.0010 H   0  0  0  0  0  0  0  0  0  0  0  0
   35.9820   31.1400   35.6870 C   0  0  0  0  0  0  0  0  0  0  0  0
   35.1470   30.2590   34.9600 C   0  0  0  0  0  0  0  0  0  0  0  0
   33.7810   30.4730   35.0810 C   0  0  0  0  0  0  0  0  0  0  0  0
   33.3250   31.4850   35.8670 N   0  0  0  0  0  0  0  0  0  0  0  0
   34.1870   32.2980   36.5410 C   0  0  0  0  0  0  0  0  0  0  0  0
   35.5230   32.1290   36.4530 N   0  0  0  0  0  0  0  0  0  0  0  0
   37.0470   31.0010   35.6150 H   0  0  0  0  0  0  0  0  0  0  0  0
   33.1350   29.8130   34.5370 H   0  0  0  0  0  0  0  0  0  0  0  0
   33.5820   33.0200   37.0920 H   0  0  0  0  0  0  0  0  0  0  0  0
   36.9240   26.1580   31.5020 O   0  0  0  0  0  0  0  0  0  0  0  0
   36.7980   24.7980   31.7800 C   0  0  0  0  0  0  0  0  0  0  0  0
   35.6210   24.2240   31.3110 C   0  0  0  0  0  0  0  0  0  0  0  0
   35.6410   22.8760   31.6620 C   0  0  0  0  0  0  0  0  0  0  0  0
   36.7970   22.6840   32.3140 N   0  0  0  0  0  0  0  0  0  0  0  0
   37.4720   23.8040   32.3830 N   0  0  0  0  0  0  0  0  0  0  0  0
   34.7400   24.5770   30.7630 H   0  0  0  0  0  0  0  0  0  0  0  0
   34.9760   22.0410   31.5260 H   0  0  0  0  0  0  0  0  0  0  0  0
   37.4220   21.5290   32.9310 C   0  0  0  0  0  2  0  0  0  0  0  0
   36.6680   20.7100   33.1070 H   0  0  0  0  0  0  0  0  0  0  0  0
  1  2  1  0  0  0  0
  1 11  1  0  0  0  0
  2  7  1  0  0  0  0
  3  8  1  0  0  0  0
  3  2  2  0  0  0  0
  4  3  1  0  0  0  0
  5  4  2  0  0  0  0
  5  6  1  0  0  0  0
  6  1  2  0  0  0  0
  9  5  1  0  0  0  0
 10 15  1  0  0  0  0
 11 12  1  0  0  0  0
 11 10  2  0  0  0  0
 12 13  2  0  0  0  0
 13 14  1  0  0  0  0
 14 18  1  0  0  0  0
 15 14  2  0  0  0  0
 16 10  1  0  0  0  0
 17 12  1  0  0  0  0
 19 20  1  0  0  0  0
 19  4  1  0  0  0  0
 20 24  2  0  0  0  0
 21 22  2  0  0  0  0
 21 20  1  0  0  0  0
 22 23  1  0  0  0  0
 23 24  1  0  0  0  0
 23 27  1  0  0  0  0
 25 21  1  0  0  0  0
 26 22  1  0  0  0  0
 27 28  1  0  0  0  0
M  END
>  <minimizedAffinity>
-4.67542553

$$$$

 OpenBabel03272510123D

 28 30  0  0  0  0  0  0  0  0999 V2000
   37.7350   25.6790   34.6460 C   0  0  0  0  0  0  0  0  0  0  0  0
   37.3740   26.9370   34.9700 C   0  0  0  0  0  0  0  0  0  0  0  0
   36.7070   27.8030   34.1270 C   0  0  0  0  0  0  0  0  0  0  0  0
   36.3730   27.4030   32.8680 C   0  0  0  0  0  0  0  0  0  0  0  0
   36.7450   26.1030   32.5260 C   0  0  0  0  0  0  0  0  0  0  0  0
   37.3900   25.3040   33.3870 N   0  0  0  0  0  0  0  0  0  0  0  0
   37.6000   27.3370   35.9510 H   0  0  0  0  0  0  0  0  0  0  0  0
   36.4190   28.8180   34.3990 H   0  0  0  0  0  0  0  0  0  0  0  0
   36.4980   25.7380   31.5290 H   0  0  0  0  0  0  0  0  0  0  0  0
   39.6800   24.1900   35.2100 C   0  0  0  0  0  0  0  0  0  0  0  0
   38.4270   24.7730   35.5160 C   0  0  0  0  0  0  0  0  0  0  0  0
   37.8720   24.4220   36.7390 C   0  0  0  0  0  0  0  0  0  0  0  0
   38.5360   23.5620   37.5580 N   0  0  0  0  0  0  0  0  0  0  0  0
   39.7420   23.0360   37.2000 C   0  0  0  0  0  0  0  0  0  0  0  0
   40.3200   23.3490   36.0210 N   0  0  0  0  0  0  0  0  0  0  0  0
   40.1370   24.4410   34.2700 H   0  0  0  0  0  0  0  0  0  0  0  0
   36.9230   24.8550   36.9850 H   0  0  0  0  0  0  0  0  0  0  0  0
   40.0620   22.3850   38.0150 H   0  0  0  0  0  0  0  0  0  0  0  0
   35.7040   28.1510   31.8970 O   0  0  0  0  0  0  0  0  0  0  0  0
   36.3960   28.7720   30.8590 C   0  0  0  0  0  0  0  0  0  0  0  0
   36.3220   30.1610   30.8710 C   0  0  0  0  0  0  0  0  0  0  0  0
   37.0550   30.6310   29.7830 C   0  0  0  0  0  0  0  0  0  0  0  0
   37.5350   29.5420   29.1660 N   0  0  0  0  0  0  0  0  0  0  0  0
   37.1510   28.4570   29.7920 N   0  0  0  0  0  0  0  0  0  0  0  0
   35.8450   30.9160   31.5060 H   0  0  0  0  0  0  0  0  0  0  0  0
   37.2890   31.6020   29.3810 H   0  0  0  0  0  0  0  0  0  0  0  0
   38.3610   29.3350   27.9920 C   0  0  0  0  0  2  0  0  0  0  0  0
   38.3830   30.2600   27.3480 H   0  0  0  0  0  0  0  0  0  0  0  0
  1  2  1  0  0  0  0
  1 11  1  0  0  0  0
  2  7  1  0  0  0  0
  3  8  1  0  0  0  0
  3  2  2  0  0  0  0
  4  3  1  0  0  0  0
  5  4  2  0  0  0  0
  5  6  1  0  0  0  0
  6  1  2  0  0  0  0
  9  5  1  0  0  0  0
 10 11  2  0  0  0  0
 10 15  1  0  0  0  0
 11 12  1  0  0  0  0
 12 17  1  0  0  0  0
 12 13  2  0  0  0  0
 14 13  1  0  0  0  0
 14 18  1  0  0  0  0
 15 14  2  0  0  0  0
 16 10  1  0  0  0  0
 19  4  1  0  0  0  0
 20 21  1  0  0  0  0
 20 19  1  0  0  0  0
 21 25  1  0  0  0  0
 22 21  2  0  0  0  0
 23 22  1  0  0  0  0
 23 24  1  0  0  0  0
 24 20  2  0  0  0  0
 26 22  1  0  0  0  0
 27 23  1  0  0  0  0
 28 27  1  0  0  0  0
M  END
>  <minimizedAffinity>
-4.65037012

$$$$

 OpenBabel03272510123D

 28 30  0  0  0  0  0  0  0  0999 V2000
   35.5510   28.5510   32.9920 C   0  0  0  0  0  0  0  0  0  0  0  0
   36.1200   28.6070   34.2130 C   0  0  0  0  0  0  0  0  0  0  0  0
   37.0900   27.7360   34.6680 C   0  0  0  0  0  0  0  0  0  0  0  0
   37.5340   26.7310   33.8610 C   0  0  0  0  0  0  0  0  0  0  0  0
   36.9490   26.6670   32.5960 C   0  0  0  0  0  0  0  0  0  0  0  0
   36.0100   27.5410   32.2070 N   0  0  0  0  0  0  0  0  0  0  0  0
   35.8280   29.3730   34.9190 H   0  0  0  0  0  0  0  0  0  0  0  0
   37.5440   27.7910   35.6570 H   0  0  0  0  0  0  0  0  0  0  0  0
   37.2710   25.8800   31.9140 H   0  0  0  0  0  0  0  0  0  0  0  0
   33.1930   29.4160   32.9320 C   0  0  0  0  0  0  0  0  0  0  0  0
   34.5440   29.4510   32.5130 C   0  0  0  0  0  0  0  0  0  0  0  0
   34.8700   30.4290   31.5830 C   0  0  0  0  0  0  0  0  0  0  0  0
   33.9070   31.2790   31.1340 N   0  0  0  0  0  0  0  0  0  0  0  0
   32.6230   31.1900   31.5810 C   0  0  0  0  0  0  0  0  0  0  0  0
   32.2590   30.2550   32.4850 N   0  0  0  0  0  0  0  0  0  0  0  0
   32.9070   28.6700   33.6520 H   0  0  0  0  0  0  0  0  0  0  0  0
   35.8900   30.4680   31.2550 H   0  0  0  0  0  0  0  0  0  0  0  0
   32.0530   31.9720   31.0770 H   0  0  0  0  0  0  0  0  0  0  0  0
   38.5010   25.7720   34.1650 O   0  0  0  0  0  0  0  0  0  0  0  0
   38.3160   24.8630   35.2050 C   0  0  0  0  0  0  0  0  0  0  0  0
   38.2190   23.5360   34.7960 C   0  0  0  0  0  0  0  0  0  0  0  0
   38.0370   22.7570   35.9360 C   0  0  0  0  0  0  0  0  0  0  0  0
   38.0290   23.6130   36.9690 N   0  0  0  0  0  0  0  0  0  0  0  0
   38.1920   24.8410   36.5430 N   0  0  0  0  0  0  0  0  0  0  0  0
   38.2520   23.0070   33.8370 H   0  0  0  0  0  0  0  0  0  0  0  0
   37.9130   21.7050   36.1320 H   0  0  0  0  0  0  0  0  0  0  0  0
   37.8840   23.4540   38.4030 C   0  0  0  0  0  2  0  0  0  0  0  0
   37.4430   22.4470   38.6540 H   0  0  0  0  0  0  0  0  0  0  0  0
  1  2  1  0  0  0  0
  2  3  2  0  0  0  0
  2  7  1  0  0  0  0
  3  8  1  0  0  0  0
  4 19  1  0  0  0  0
  4  3  1  0  0  0  0
  5  4  2  0  0  0  0
  6  5  1  0  0  0  0
  6  1  2  0  0  0  0
  9  5  1  0  0  0  0
 10 16  1  0  0  0  0
 11 10  1  0  0  0  0
 11  1  1  0  0  0  0
 12 11  2  0  0  0  0
 13 14  2  0  0  0  0
 13 12  1  0  0  0  0
 14 15  1  0  0  0  0
 15 10  2  0  0  0  0
 17 12  1  0  0  0  0
 18 14  1  0  0  0  0
 19 20  1  0  0  0  0
 20 24  2  0  0  0  0
 21 20  1  0  0  0  0
 21 22  2  0  0  0  0
 22 26  1  0  0  0  0
 22 23  1  0  0  0  0
 23 27  1  0  0  0  0
 24 23  1  0  0  0  0
 25 21  1  0  0  0  0
 27 28  1  0  0  0  0
M  END
>  <minimizedAffinity>
-4.64187527

$$$$

 OpenBabel03272510123D

 28 30  0  0  0  0  0  0  0  0999 V2000
   37.8940   25.3670   34.8860 C   0  0  0  0  0  0  0  0  0  0  0  0
   37.4830   26.6310   35.1150 C   0  0  0  0  0  0  0  0  0  0  0  0
   36.8540   27.4330   34.1840 C   0  0  0  0  0  0  0  0  0  0  0  0
   36.6130   26.9560   32.9290 C   0  0  0  0  0  0  0  0  0  0  0  0
   37.0370   25.6500   32.6850 C   0  0  0  0  0  0  0  0  0  0  0  0
   37.6430   24.9160   33.6290 N   0  0  0  0  0  0  0  0  0  0  0  0
   37.6340   27.0890   36.0840 H   0  0  0  0  0  0  0  0  0  0  0  0
   36.5250   28.4520   34.3790 H   0  0  0  0  0  0  0  0  0  0  0  0
   36.8660   25.2250   31.6960 H   0  0  0  0  0  0  0  0  0  0  0  0
   38.0660   24.3140   37.1610 C   0  0  0  0  0  0  0  0  0  0  0  0
   38.5470   24.5290   35.8470 C   0  0  0  0  0  0  0  0  0  0  0  0
   39.7220   23.8690   35.5120 C   0  0  0  0  0  0  0  0  0  0  0  0
   40.3350   23.0760   36.4320 N   0  0  0  0  0  0  0  0  0  0  0  0
   39.8160   22.9130   37.6810 C   0  0  0  0  0  0  0  0  0  0  0  0
   38.6750   23.5330   38.0520 N   0  0  0  0  0  0  0  0  0  0  0  0
   37.1570   24.8100   37.4530 H   0  0  0  0  0  0  0  0  0  0  0  0
   40.1010   24.0220   34.5210 H   0  0  0  0  0  0  0  0  0  0  0  0
   40.4830   22.2380   38.2200 H   0  0  0  0  0  0  0  0  0  0  0  0
   35.9930   27.6330   31.8770 O   0  0  0  0  0  0  0  0  0  0  0  0
   36.2930   28.9650   31.5970 C   0  0  0  0  0  0  0  0  0  0  0  0
   36.9500   29.1630   30.3870 C   0  0  0  0  0  0  0  0  0  0  0  0
   37.1790   30.5300   30.2510 C   0  0  0  0  0  0  0  0  0  0  0  0
   36.6690   31.0990   31.3520 N   0  0  0  0  0  0  0  0  0  0  0  0
   36.1520   30.1870   32.1380 N   0  0  0  0  0  0  0  0  0  0  0  0
   37.3030   28.5200   29.5720 H   0  0  0  0  0  0  0  0  0  0  0  0
   37.6410   31.1570   29.5080 H   0  0  0  0  0  0  0  0  0  0  0  0
   36.5780   32.4670   31.8260 C   0  0  0  0  0  2  0  0  0  0  0  0
   37.3010   33.1320   31.2730 H   0  0  0  0  0  0  0  0  0  0  0  0
  1  2  1  0  0  0  0
  1 11  1  0  0  0  0
  2  7  1  0  0  0  0
  3  8  1  0  0  0  0
  3  2  2  0  0  0  0
  4  3  1  0  0  0  0
  5  4  2  0  0  0  0
  5  6  1  0  0  0  0
  6  1  2  0  0  0  0
  9  5  1  0  0  0  0
 10 16  1  0  0  0  0
 10 15  1  0  0  0  0
 11 10  2  0  0  0  0
 12 11  1  0  0  0  0
 12 13  2  0  0  0  0
 13 14  1  0  0  0  0
 14 15  2  0  0  0  0
 14 18  1  0  0  0  0
 17 12  1  0  0  0  0
 19  4  1  0  0  0  0
 20 19  1  0  0  0  0
 20 24  2  0  0  0  0
 21 20  1  0  0  0  0
 22 21  2  0  0  0  0
 22 23  1  0  0  0  0
 23 27  1  0  0  0  0
 23 24  1  0  0  0  0
 25 21  1  0  0  0  0
 26 22  1  0  0  0  0
 28 27  1  0  0  0  0
M  END
>  <minimizedAffinity>
-4.59132671

$$$$

 OpenBabel03272510123D

 28 30  0  0  0  0  0  0  0  0999 V2000
   36.3320   22.8630   32.1050 C   0  0  0  0  0  0  0  0  0  0  0  0
   35.6880   23.7890   31.3650 C   0  0  0  0  0  0  0  0  0  0  0  0
   35.9440   25.1450   31.4070 C   0  0  0  0  0  0  0  0  0  0  0  0
   36.9070   25.6280   32.2420 C   0  0  0  0  0  0  0  0  0  0  0  0
   37.5780   24.6760   33.0110 C   0  0  0  0  0  0  0  0  0  0  0  0
   37.2870   23.3710   32.9280 N   0  0  0  0  0  0  0  0  0  0  0  0
   34.9080   23.4930   30.6750 H   0  0  0  0  0  0  0  0  0  0  0  0
   35.4180   25.8840   30.8060 H   0  0  0  0  0  0  0  0  0  0  0  0
   38.3570   25.0150   33.6930 H   0  0  0  0  0  0  0  0  0  0  0  0
   35.6560   20.7000   33.1890 C   0  0  0  0  0  0  0  0  0  0  0  0
   36.0720   21.4550   32.0660 C   0  0  0  0  0  0  0  0  0  0  0  0
   36.2230   20.7500   30.8790 C   0  0  0  0  0  0  0  0  0  0  0  0
   35.9730   19.4140   30.8530 N   0  0  0  0  0  0  0  0  0  0  0  0
   35.5750   18.7480   31.9730 C   0  0  0  0  0  0  0  0  0  0  0  0
   35.4140   19.3900   33.1500 N   0  0  0  0  0  0  0  0  0  0  0  0
   35.5290   21.2150   34.1250 H   0  0  0  0  0  0  0  0  0  0  0  0
   36.5380   21.3080   30.0200 H   0  0  0  0  0  0  0  0  0  0  0  0
   35.4420   17.7020   31.6940 H   0  0  0  0  0  0  0  0  0  0  0  0
   37.2880   26.9620   32.4050 O   0  0  0  0  0  0  0  0  0  0  0  0
   37.2460   27.8610   31.3410 C   0  0  0  0  0  0  0  0  0  0  0  0
   36.3480   28.9090   31.5100 C   0  0  0  0  0  0  0  0  0  0  0  0
   36.4200   29.7130   30.3760 C   0  0  0  0  0  0  0  0  0  0  0  0
   37.3340   29.1410   29.5780 N   0  0  0  0  0  0  0  0  0  0  0  0
   37.8160   28.0610   30.1410 N   0  0  0  0  0  0  0  0  0  0  0  0
   35.6420   29.2190   32.2900 H   0  0  0  0  0  0  0  0  0  0  0  0
   35.9340   30.6150   30.0450 H   0  0  0  0  0  0  0  0  0  0  0  0
   37.8730   29.4690   28.2720 C   0  0  0  0  0  2  0  0  0  0  0  0
   37.2050   30.2010   27.7340 H   0  0  0  0  0  0  0  0  0  0  0  0
  1  6  1  0  0  0  0
  2  3  1  0  0  0  0
  2  1  2  0  0  0  0
  3  4  2  0  0  0  0
  4 19  1  0  0  0  0
  4  5  1  0  0  0  0
  5  9  1  0  0  0  0
  6  5  2  0  0  0  0
  7  2  1  0  0  0  0
  8  3  1  0  0  0  0
 10 16  1  0  0  0  0
 11  1  1  0  0  0  0
 11 10  2  0  0  0  0
 12 11  1  0  0  0  0
 13 12  2  0  0  0  0
 13 14  1  0  0  0  0
 14 15  2  0  0  0  0
 15 10  1  0  0  0  0
 17 12  1  0  0  0  0
 18 14  1  0  0  0  0
 20 21  1  0  0  0  0
 20 19  1  0  0  0  0
 21 25  1  0  0  0  0
 22 21  2  0  0  0  0
 23 24  1  0  0  0  0
 23 22  1  0  0  0  0
 24 20  2  0  0  0  0
 26 22  1  0  0  0  0
 27 23  1  0  0  0  0
 28 27  1  0  0  0  0
M  END
>  <minimizedAffinity>
-4.56758356

$$$$
