
 OpenBabel03272510113D

 28 30  0  0  0  0  0  0  0  0999 V2000
   34.0450   28.8120   48.3070 C   0  0  0  0  0  0  0  0  0  0  0  0
   34.6520   28.3710   49.4280 C   0  0  0  0  0  0  0  0  0  0  0  0
   35.8880   28.7970   49.8700 C   0  0  0  0  0  0  0  0  0  0  0  0
   36.5830   29.7250   49.1540 C   0  0  0  0  0  0  0  0  0  0  0  0
   35.9620   30.1850   47.9930 C   0  0  0  0  0  0  0  0  0  0  0  0
   34.7580   29.7360   47.6120 N   0  0  0  0  0  0  0  0  0  0  0  0
   34.1710   27.6330   50.0570 H   0  0  0  0  0  0  0  0  0  0  0  0
   36.3700   28.4340   50.7770 H   0  0  0  0  0  0  0  0  0  0  0  0
   36.4780   30.9290   47.3860 H   0  0  0  0  0  0  0  0  0  0  0  0
   31.9180   27.5000   48.5660 C   0  0  0  0  0  0  0  0  0  0  0  0
   32.7620   28.3750   47.8420 C   0  0  0  0  0  0  0  0  0  0  0  0
   32.2790   28.8130   46.6160 C   0  0  0  0  0  0  0  0  0  0  0  0
   31.0600   28.3930   46.1830 N   0  0  0  0  0  0  0  0  0  0  0  0
   30.2980   27.5480   46.9320 C   0  0  0  0  0  0  0  0  0  0  0  0
   30.7240   27.0960   48.1310 N   0  0  0  0  0  0  0  0  0  0  0  0
   32.2610   27.1420   49.5200 H   0  0  0  0  0  0  0  0  0  0  0  0
   32.9070   29.4760   46.0550 H   0  0  0  0  0  0  0  0  0  0  0  0
   29.3790   27.3650   46.3730 H   0  0  0  0  0  0  0  0  0  0  0  0
   37.8370   30.2580   49.4590 O   0  0  0  0  0  0  0  0  0  0  0  0
   38.3960   31.2770   48.6900 C   0  0  0  0  0  0  0  0  0  0  0  0
   38.4410   32.5150   49.3240 C   0  0  0  0  0  0  0  0  0  0  0  0
   39.0190   33.4210   48.4390 C   0  0  0  0  0  0  0  0  0  0  0  0
   39.2980   32.7220   47.3280 N   0  0  0  0  0  0  0  0  0  0  0  0
   38.9350   31.4720   47.4740 N   0  0  0  0  0  0  0  0  0  0  0  0
   38.1400   32.9060   50.3030 H   0  0  0  0  0  0  0  0  0  0  0  0
   39.2630   34.4690   48.4680 H   0  0  0  0  0  0  0  0  0  0  0  0
   39.8970   33.0620   46.0520 C   0  0  0  0  0  2  0  0  0  0  0  0
   40.6060   33.9310   46.1590 H   0  0  0  0  0  0  0  0  0  0  0  0
  1  2  1  0  0  0  0
  2  3  2  0  0  0  0
  2  7  1  0  0  0  0
  3  8  1  0  0  0  0
  4 19  1  0  0  0  0
  4  3  1  0  0  0  0
  5  4  2  0  0  0  0
  6  5  1  0  0  0  0
  6  1  2  0  0  0  0
  9  5  1  0  0  0  0
 10 16  1  0  0  0  0
 11  1  1  0  0  0  0
 11 10  2  0  0  0  0
 12 11  1  0  0  0  0
 13 12  2  0  0  0  0
 13 14  1  0  0  0  0
 14 15  2  0  0  0  0
 15 10  1  0  0  0  0
 17 12  1  0  0  0  0
 18 14  1  0  0  0  0
 20 21  1  0  0  0  0
 20 19  1  0  0  0  0
 21 25  1  0  0  0  0
 22 26  1  0  0  0  0
 22 21  2  0  0  0  0
 23 24  1  0  0  0  0
 23 22  1  0  0  0  0
 24 20  2  0  0  0  0
 27 28  1  0  0  0  0
 27 23  1  0  0  0  0
M  END
>  <minimizedAffinity>
-5.3787632

>  <minimizedRMSD>
0.523071945

$$$$
