
 OpenBabel03272510113D

 28 30  0  0  0  0  0  0  0  0999 V2000
   34.0630   28.8250   48.3080 C   0  0  0  0  0  0  0  0  0  0  0  0
   34.6640   28.3820   49.4310 C   0  0  0  0  0  0  0  0  0  0  0  0
   35.9020   28.8000   49.8760 C   0  0  0  0  0  0  0  0  0  0  0  0
   36.6030   29.7250   49.1610 C   0  0  0  0  0  0  0  0  0  0  0  0
   35.9870   30.1870   47.9980 C   0  0  0  0  0  0  0  0  0  0  0  0
   34.7820   29.7450   47.6140 N   0  0  0  0  0  0  0  0  0  0  0  0
   34.1780   27.6460   50.0600 H   0  0  0  0  0  0  0  0  0  0  0  0
   36.3790   28.4360   50.7850 H   0  0  0  0  0  0  0  0  0  0  0  0
   36.5100   30.9280   47.3930 H   0  0  0  0  0  0  0  0  0  0  0  0
   31.9280   27.5230   48.5620 C   0  0  0  0  0  0  0  0  0  0  0  0
   32.7780   28.3950   47.8400 C   0  0  0  0  0  0  0  0  0  0  0  0
   32.3010   28.8350   46.6130 C   0  0  0  0  0  0  0  0  0  0  0  0
   31.0810   28.4220   46.1770 N   0  0  0  0  0  0  0  0  0  0  0  0
   30.3120   27.5800   46.9240 C   0  0  0  0  0  0  0  0  0  0  0  0
   30.7340   27.1260   48.1240 N   0  0  0  0  0  0  0  0  0  0  0  0
   32.2680   27.1630   49.5170 H   0  0  0  0  0  0  0  0  0  0  0  0
   32.9340   29.4960   46.0540 H   0  0  0  0  0  0  0  0  0  0  0  0
   29.3940   27.4020   46.3630 H   0  0  0  0  0  0  0  0  0  0  0  0
   37.8600   30.2510   49.4690 O   0  0  0  0  0  0  0  0  0  0  0  0
   38.4070   31.2960   48.7290 C   0  0  0  0  0  0  0  0  0  0  0  0
   38.4200   32.5210   49.3880 C   0  0  0  0  0  0  0  0  0  0  0  0
   38.9910   33.4560   48.5280 C   0  0  0  0  0  0  0  0  0  0  0  0
   39.2950   32.7870   47.4070 N   0  0  0  0  0  0  0  0  0  0  0  0
   38.9550   31.5270   47.5230 N   0  0  0  0  0  0  0  0  0  0  0  0
   38.1010   32.8860   50.3710 H   0  0  0  0  0  0  0  0  0  0  0  0
   39.2130   34.5090   48.5820 H   0  0  0  0  0  0  0  0  0  0  0  0
   39.9020   33.1650   46.1450 C   0  0  0  0  0  2  0  0  0  0  0  0
   40.1220   34.2700   46.1200 H   0  0  0  0  0  0  0  0  0  0  0  0
  1  2  1  0  0  0  0
  2  3  2  0  0  0  0
  2  7  1  0  0  0  0
  3  8  1  0  0  0  0
  4 19  1  0  0  0  0
  4  3  1  0  0  0  0
  5  4  2  0  0  0  0
  6  5  1  0  0  0  0
  6  1  2  0  0  0  0
  9  5  1  0  0  0  0
 10 16  1  0  0  0  0
 11  1  1  0  0  0  0
 11 10  2  0  0  0  0
 12 11  1  0  0  0  0
 13 12  2  0  0  0  0
 13 14  1  0  0  0  0
 14 15  2  0  0  0  0
 15 10  1  0  0  0  0
 17 12  1  0  0  0  0
 18 14  1  0  0  0  0
 20 21  1  0  0  0  0
 20 19  1  0  0  0  0
 21 25  1  0  0  0  0
 22 26  1  0  0  0  0
 22 21  2  0  0  0  0
 23 24  1  0  0  0  0
 23 22  1  0  0  0  0
 24 20  2  0  0  0  0
 27 23  1  0  0  0  0
 28 27  1  0  0  0  0
M  END
>  <minimizedAffinity>
-5.37909889

>  <minimizedRMSD>
0.490053952

$$$$
