
 OpenBabel03262521093D

 17 17  0  0  0  0  0  0  0  0999 V2000
   35.6740   30.4720   49.6580 C   0  0  0  0  0  0  0  0  0  0  0  0
   35.9140   29.5000   50.6450 C   0  0  0  0  0  0  0  0  0  0  0  0
   37.1330   29.5520   51.3000 C   0  0  0  0  0  0  0  0  0  0  0  0
   38.0350   30.5190   50.9730 N   0  0  0  0  0  0  0  0  0  0  0  0
   37.7660   31.4400   50.0140 C   0  0  0  0  0  0  0  0  0  0  0  0
   36.5830   31.4210   49.3510 N   0  0  0  0  0  0  0  0  0  0  0  0
   35.1170   28.7880   50.8100 H   0  0  0  0  0  0  0  0  0  0  0  0
   37.3070   28.8000   52.0580 H   0  0  0  0  0  0  0  0  0  0  0  0
   38.5040   32.2020   49.7710 H   0  0  0  0  0  0  0  0  0  0  0  0
   34.5070   30.5720   48.8990 O   0  0  0  0  0  0  0  0  0  0  0  0
   35.6110   30.1390   46.4810 O   0  0  0  0  0  0  0  0  0  0  0  0
   34.3850   29.8690   47.3370 P   0  0  1  0  0  0  0  0  0  0  0  0
   34.1930   28.1920   47.5810 O   0  0  0  0  0  0  0  0  0  0  0  0
   33.2210   28.0120   47.5580 H   0  0  0  0  0  0  0  0  0  0  0  0
   33.0630   30.5220   46.5140 O   0  0  0  0  0  0  0  0  0  0  0  0
   33.1080   30.2680   45.1530 C   0  0  0  0  0  0  0  0  0  0  0  0
   33.7470   31.0450   44.6880 H   0  0  0  0  0  0  0  0  0  0  0  0
  1  2  1  0  0  0  0
  2  7  1  0  0  0  0
  2  3  2  0  0  0  0
  3  8  1  0  0  0  0
  4  3  1  0  0  0  0
  5  4  2  0  0  0  0
  6  1  2  0  0  0  0
  6  5  1  0  0  0  0
  9  5  1  0  0  0  0
 10  1  1  0  0  0  0
 12 11  2  6  0  0  0
 12 13  1  0  0  0  0
 12 10  1  0  0  0  0
 14 13  1  0  0  0  0
 15 12  1  0  0  0  0
 16 15  1  0  0  0  0
 17 16  1  0  0  0  0
M  END
>  <minimizedAffinity>
-3.48560023

>  <minimizedRMSD>
0.501170516

$$$$
