
 OpenBabel03272509453D

 12 12  0  0  0  0  0  0  0  0999 V2000
   37.9430   24.1200   38.1550 C   0  0  0  0  0  0  0  0  0  0  0  0
   37.8730   24.6170   36.8490 C   0  0  0  0  0  0  0  0  0  0  0  0
   38.8130   24.2000   35.8960 C   0  0  0  0  0  0  0  0  0  0  0  0
   39.7620   23.3080   36.3180 N   0  0  0  0  0  0  0  0  0  0  0  0
   39.8140   22.8400   37.5800 C   0  0  0  0  0  0  0  0  0  0  0  0
   38.9010   23.2470   38.5060 N   0  0  0  0  0  0  0  0  0  0  0  0
   37.2480   24.4020   38.9390 H   0  0  0  0  0  0  0  0  0  0  0  0
   37.0710   25.3310   36.6060 H   0  0  0  0  0  0  0  0  0  0  0  0
   38.7630   24.5780   34.8960 H   0  0  0  0  0  0  0  0  0  0  0  0
   40.8500   21.9560   37.7790 O   0  0  0  0  0  0  0  0  0  0  0  0
   41.5970   21.5210   36.6540 C   0  0  0  0  0  2  0  0  0  0  0  0
   41.2860   22.0570   35.7380 H   0  0  0  0  0  0  0  0  0  0  0  0
  1  6  1  0  0  0  0
  1  7  1  0  0  0  0
  2  1  2  0  0  0  0
  3  4  2  0  0  0  0
  3  2  1  0  0  0  0
  4  5  1  0  0  0  0
  5 10  1  0  0  0  0
  5  6  2  0  0  0  0
  8  2  1  0  0  0  0
  9  3  1  0  0  0  0
 11 10  1  0  0  0  0
 12 11  1  0  0  0  0
M  END
>  <minimizedAffinity>
-2.89730668

$$$$

 OpenBabel03272509453D

 12 12  0  0  0  0  0  0  0  0999 V2000
   40.1430   23.1840   36.4460 C   0  0  0  0  0  0  0  0  0  0  0  0
   39.7150   22.7860   37.7170 C   0  0  0  0  0  0  0  0  0  0  0  0
   38.6260   23.4340   38.3170 C   0  0  0  0  0  0  0  0  0  0  0  0
   38.0380   24.4410   37.6000 N   0  0  0  0  0  0  0  0  0  0  0  0
   38.4640   24.8100   36.3770 C   0  0  0  0  0  0  0  0  0  0  0  0
   39.5230   24.1800   35.7940 N   0  0  0  0  0  0  0  0  0  0  0  0
   40.9780   22.7240   35.9260 H   0  0  0  0  0  0  0  0  0  0  0  0
   40.2530   21.9640   38.2140 H   0  0  0  0  0  0  0  0  0  0  0  0
   38.2960   23.1320   39.2900 H   0  0  0  0  0  0  0  0  0  0  0  0
   37.7260   25.8430   35.8450 O   0  0  0  0  0  0  0  0  0  0  0  0
   38.2810   27.1480   35.8490 C   0  0  0  0  0  2  0  0  0  0  0  0
   39.3260   27.1350   36.2120 H   0  0  0  0  0  0  0  0  0  0  0  0
  1  2  1  0  0  0  0
  2  8  1  0  0  0  0
  2  3  2  0  0  0  0
  3  9  1  0  0  0  0
  4  3  1  0  0  0  0
  5  4  2  0  0  0  0
  6  5  1  0  0  0  0
  6  1  2  0  0  0  0
  7  1  1  0  0  0  0
 10 11  1  0  0  0  0
 10  5  1  0  0  0  0
 11 12  1  0  0  0  0
M  END
>  <minimizedAffinity>
-2.77591515

$$$$

 OpenBabel03272509453D

 12 12  0  0  0  0  0  0  0  0999 V2000
   40.2810   25.3110   34.8830 C   0  0  0  0  0  0  0  0  0  0  0  0
   39.9900   26.6790   34.9210 C   0  0  0  0  0  0  0  0  0  0  0  0
   38.8880   27.1340   35.6580 C   0  0  0  0  0  0  0  0  0  0  0  0
   38.1490   26.1840   36.3110 N   0  0  0  0  0  0  0  0  0  0  0  0
   38.4440   24.8710   36.2620 C   0  0  0  0  0  0  0  0  0  0  0  0
   39.5150   24.4290   35.5450 N   0  0  0  0  0  0  0  0  0  0  0  0
   41.1170   24.8930   34.3320 H   0  0  0  0  0  0  0  0  0  0  0  0
   40.6440   27.3660   34.3630 H   0  0  0  0  0  0  0  0  0  0  0  0
   38.6620   28.1800   35.6900 H   0  0  0  0  0  0  0  0  0  0  0  0
   37.5660   24.1000   36.9910 O   0  0  0  0  0  0  0  0  0  0  0  0
   37.9450   23.6900   38.2950 C   0  0  0  0  0  2  0  0  0  0  0  0
   38.9040   24.1520   38.5960 H   0  0  0  0  0  0  0  0  0  0  0  0
  1  2  2  0  0  0  0
  1  6  1  0  0  0  0
  2  3  1  0  0  0  0
  3  9  1  0  0  0  0
  3  4  2  0  0  0  0
  5  4  1  0  0  0  0
  5 10  1  0  0  0  0
  6  5  2  0  0  0  0
  7  1  1  0  0  0  0
  8  2  1  0  0  0  0
 10 11  1  0  0  0  0
 11 12  1  0  0  0  0
M  END
>  <minimizedAffinity>
-2.76316237

$$$$

 OpenBabel03272509453D

 12 12  0  0  0  0  0  0  0  0999 V2000
   37.8450   23.9670   38.1960 C   0  0  0  0  0  0  0  0  0  0  0  0
   39.0420   23.3860   38.6290 C   0  0  0  0  0  0  0  0  0  0  0  0
   39.8720   22.7350   37.7060 C   0  0  0  0  0  0  0  0  0  0  0  0
   39.4440   22.7100   36.4050 N   0  0  0  0  0  0  0  0  0  0  0  0
   38.2880   23.2750   36.0070 C   0  0  0  0  0  0  0  0  0  0  0  0
   37.4820   23.9070   36.9050 N   0  0  0  0  0  0  0  0  0  0  0  0
   37.1590   24.4840   38.8590 H   0  0  0  0  0  0  0  0  0  0  0  0
   39.3000   23.4590   39.6970 H   0  0  0  0  0  0  0  0  0  0  0  0
   40.7880   22.2890   38.0330 H   0  0  0  0  0  0  0  0  0  0  0  0
   38.0610   23.1280   34.6570 O   0  0  0  0  0  0  0  0  0  0  0  0
   37.5280   21.9000   34.1880 C   0  0  0  0  0  2  0  0  0  0  0  0
   37.2660   21.2320   35.0300 H   0  0  0  0  0  0  0  0  0  0  0  0
  1  2  1  0  0  0  0
  1  7  1  0  0  0  0
  2  8  1  0  0  0  0
  3  9  1  0  0  0  0
  3  2  2  0  0  0  0
  4  3  1  0  0  0  0
  5  4  2  0  0  0  0
  5  6  1  0  0  0  0
  6  1  2  0  0  0  0
 10  5  1  0  0  0  0
 11 10  1  0  0  0  0
 11 12  1  0  0  0  0
M  END
>  <minimizedAffinity>
-2.74687219

$$$$

 OpenBabel03272509453D

 12 12  0  0  0  0  0  0  0  0999 V2000
   38.8790   27.2480   35.6300 C   0  0  0  0  0  0  0  0  0  0  0  0
   39.9910   26.7960   34.9100 C   0  0  0  0  0  0  0  0  0  0  0  0
   40.2730   25.4240   34.8570 C   0  0  0  0  0  0  0  0  0  0  0  0
   39.4180   24.5930   35.5300 N   0  0  0  0  0  0  0  0  0  0  0  0
   38.3510   25.0470   36.2180 C   0  0  0  0  0  0  0  0  0  0  0  0
   38.0790   26.3810   36.2700 N   0  0  0  0  0  0  0  0  0  0  0  0
   38.6050   28.2950   35.7110 H   0  0  0  0  0  0  0  0  0  0  0  0
   40.6200   27.5430   34.4010 H   0  0  0  0  0  0  0  0  0  0  0  0
   41.1220   25.0740   34.3080 H   0  0  0  0  0  0  0  0  0  0  0  0
   37.6340   24.0360   36.8160 O   0  0  0  0  0  0  0  0  0  0  0  0
   37.7460   22.7220   36.2930 C   0  0  0  0  0  2  0  0  0  0  0  0
   38.5110   22.6750   35.4950 H   0  0  0  0  0  0  0  0  0  0  0  0
  1  7  1  0  0  0  0
  1  6  1  0  0  0  0
  2  1  2  0  0  0  0
  3  2  1  0  0  0  0
  3  4  2  0  0  0  0
  4  5  1  0  0  0  0
  5  6  2  0  0  0  0
  5 10  1  0  0  0  0
  8  2  1  0  0  0  0
  9  3  1  0  0  0  0
 11 10  1  0  0  0  0
 12 11  1  0  0  0  0
M  END
>  <minimizedAffinity>
-2.61504769

$$$$

 OpenBabel03272509453D

 12 12  0  0  0  0  0  0  0  0999 V2000
   40.2980   22.9650   35.1570 C   0  0  0  0  0  0  0  0  0  0  0  0
   41.3290   22.0520   35.4040 C   0  0  0  0  0  0  0  0  0  0  0  0
   41.5320   21.5690   36.7050 C   0  0  0  0  0  0  0  0  0  0  0  0
   40.6850   22.0350   37.6730 N   0  0  0  0  0  0  0  0  0  0  0  0
   39.6970   22.9150   37.4170 C   0  0  0  0  0  0  0  0  0  0  0  0
   39.5010   23.3840   36.1520 N   0  0  0  0  0  0  0  0  0  0  0  0
   40.0880   23.3770   34.1750 H   0  0  0  0  0  0  0  0  0  0  0  0
   41.9590   21.7360   34.5580 H   0  0  0  0  0  0  0  0  0  0  0  0
   42.3200   20.8710   36.8980 H   0  0  0  0  0  0  0  0  0  0  0  0
   38.9710   23.2430   38.5390 O   0  0  0  0  0  0  0  0  0  0  0  0
   37.9530   24.2250   38.4260 C   0  0  0  0  0  2  0  0  0  0  0  0
   37.8150   24.5370   37.3730 H   0  0  0  0  0  0  0  0  0  0  0  0
  1  2  2  0  0  0  0
  1  6  1  0  0  0  0
  2  3  1  0  0  0  0
  3  9  1  0  0  0  0
  3  4  2  0  0  0  0
  5  4  1  0  0  0  0
  5 10  1  0  0  0  0
  6  5  2  0  0  0  0
  7  1  1  0  0  0  0
  8  2  1  0  0  0  0
 11 10  1  0  0  0  0
 12 11  1  0  0  0  0
M  END
>  <minimizedAffinity>
-2.55295014

$$$$

 OpenBabel03272509453D

 12 12  0  0  0  0  0  0  0  0999 V2000
   35.6910   19.2670   31.5100 C   0  0  0  0  0  0  0  0  0  0  0  0
   35.4730   19.2820   32.8910 C   0  0  0  0  0  0  0  0  0  0  0  0
   35.5870   20.4870   33.5990 C   0  0  0  0  0  0  0  0  0  0  0  0
   35.9130   21.6000   32.8710 N   0  0  0  0  0  0  0  0  0  0  0  0
   36.1190   21.5660   31.5400 C   0  0  0  0  0  0  0  0  0  0  0  0
   36.0090   20.3940   30.8530 N   0  0  0  0  0  0  0  0  0  0  0  0
   35.6190   18.3690   30.9040 H   0  0  0  0  0  0  0  0  0  0  0  0
   35.2150   18.3350   33.3890 H   0  0  0  0  0  0  0  0  0  0  0  0
   35.4210   20.5030   34.6560 H   0  0  0  0  0  0  0  0  0  0  0  0
   36.4350   22.7990   31.0170 O   0  0  0  0  0  0  0  0  0  0  0  0
   35.5850   23.8980   31.3080 C   0  0  0  0  0  2  0  0  0  0  0  0
   34.7980   23.6120   32.0310 H   0  0  0  0  0  0  0  0  0  0  0  0
  1  2  1  0  0  0  0
  2  8  1  0  0  0  0
  2  3  2  0  0  0  0
  3  9  1  0  0  0  0
  4  3  1  0  0  0  0
  5  4  2  0  0  0  0
  6  1  2  0  0  0  0
  6  5  1  0  0  0  0
  7  1  1  0  0  0  0
 10 11  1  0  0  0  0
 10  5  1  0  0  0  0
 11 12  1  0  0  0  0
M  END
>  <minimizedAffinity>
-2.48181248

$$$$

 OpenBabel03272509453D

 12 12  0  0  0  0  0  0  0  0999 V2000
   37.9300   27.6230   35.4850 C   0  0  0  0  0  0  0  0  0  0  0  0
   37.4950   27.2990   34.1950 C   0  0  0  0  0  0  0  0  0  0  0  0
   37.4770   25.9590   33.7830 C   0  0  0  0  0  0  0  0  0  0  0  0
   37.8970   25.0290   34.6960 N   0  0  0  0  0  0  0  0  0  0  0  0
   38.3130   25.3600   35.9350 C   0  0  0  0  0  0  0  0  0  0  0  0
   38.3300   26.6620   36.3340 N   0  0  0  0  0  0  0  0  0  0  0  0
   37.9680   28.6380   35.8650 H   0  0  0  0  0  0  0  0  0  0  0  0
   37.1760   28.1180   33.5320 H   0  0  0  0  0  0  0  0  0  0  0  0
   37.1460   25.7080   32.7970 H   0  0  0  0  0  0  0  0  0  0  0  0
   38.6890   24.2650   36.6800 O   0  0  0  0  0  0  0  0  0  0  0  0
   37.6920   23.5590   37.4010 C   0  0  0  0  0  2  0  0  0  0  0  0
   36.6830   23.9520   37.1740 H   0  0  0  0  0  0  0  0  0  0  0  0
  1  7  1  0  0  0  0
  1  6  1  0  0  0  0
  2  1  2  0  0  0  0
  3  2  1  0  0  0  0
  3  4  2  0  0  0  0
  4  5  1  0  0  0  0
  5  6  2  0  0  0  0
  5 10  1  0  0  0  0
  8  2  1  0  0  0  0
  9  3  1  0  0  0  0
 10 11  1  0  0  0  0
 12 11  1  0  0  0  0
M  END
>  <minimizedAffinity>
-2.48053598

$$$$

 OpenBabel03272509453D

 12 12  0  0  0  0  0  0  0  0999 V2000
   39.5810   26.9490   33.8390 C   0  0  0  0  0  0  0  0  0  0  0  0
   39.3920   27.0160   35.2230 C   0  0  0  0  0  0  0  0  0  0  0  0
   38.1240   27.3210   35.7380 C   0  0  0  0  0  0  0  0  0  0  0  0
   37.1260   27.5390   34.8260 N   0  0  0  0  0  0  0  0  0  0  0  0
   37.3270   27.4700   33.4960 C   0  0  0  0  0  0  0  0  0  0  0  0
   38.5590   27.1740   32.9970 N   0  0  0  0  0  0  0  0  0  0  0  0
   40.5350   26.7180   33.3760 H   0  0  0  0  0  0  0  0  0  0  0  0
   40.2580   26.8250   35.8760 H   0  0  0  0  0  0  0  0  0  0  0  0
   37.9760   27.3740   36.7970 H   0  0  0  0  0  0  0  0  0  0  0  0
   36.1840   27.7250   32.7710 O   0  0  0  0  0  0  0  0  0  0  0  0
   35.9450   26.9720   31.5930 C   0  0  0  0  0  2  0  0  0  0  0  0
   36.7040   26.1770   31.4680 H   0  0  0  0  0  0  0  0  0  0  0  0
  1  2  1  0  0  0  0
  2  3  2  0  0  0  0
  2  8  1  0  0  0  0
  3  9  1  0  0  0  0
  4  3  1  0  0  0  0
  5  4  2  0  0  0  0
  6  5  1  0  0  0  0
  6  1  2  0  0  0  0
  7  1  1  0  0  0  0
 10  5  1  0  0  0  0
 11 10  1  0  0  0  0
 12 11  1  0  0  0  0
M  END
>  <minimizedAffinity>
-2.4435811

$$$$
