
 OpenBabel03272508223D

 39 41  0  0  0  0  0  0  0  0999 V2000
   34.0450   28.2700   47.9760 C   0  0  0  0  0  0  0  0  0  0  0  0
   34.4720   27.2810   47.6180 H   0  0  0  0  0  0  0  0  0  0  0  0
   33.7210   28.7420   47.0270 H   0  0  0  0  0  0  0  0  0  0  0  0
   35.2570   30.4830   46.7870 F   0  0  0  0  0  0  0  0  0  0  0  0
   35.6440   30.0250   48.0170 C   0  0  0  0  0  0  0  0  0  0  0  0
   35.0820   28.9310   48.6860 C   0  0  0  0  0  0  0  0  0  0  0  0
   35.6080   28.6480   49.8840 C   0  0  0  0  0  0  0  0  0  0  0  0
   36.6180   29.3420   50.4620 C   0  0  0  0  0  0  0  0  0  0  0  0
   37.1880   30.4370   49.8020 C   0  0  0  0  0  0  0  0  0  0  0  0
   36.6650   30.7420   48.5750 C   0  0  0  0  0  0  0  0  0  0  0  0
   35.1620   27.7880   50.4020 H   0  0  0  0  0  0  0  0  0  0  0  0
   36.9550   29.0110   51.4370 H   0  0  0  0  0  0  0  0  0  0  0  0
   38.2880   31.1820   50.4470 C   0  0  0  0  0  2  0  0  0  0  0  0
   38.8730   31.7230   49.6720 H   0  0  0  0  0  0  0  0  0  0  0  0
   37.2780   31.8540   47.9350 O   0  0  0  0  0  0  0  0  0  0  0  0
   38.4350   31.5430   47.2440 C   0  0  0  0  0  0  0  0  0  0  0  0
   39.2660   32.5200   47.2810 O   0  0  0  0  0  0  0  0  0  0  0  0
   38.8770   30.4180   46.5310 N   0  0  0  0  0  0  0  0  0  0  0  0
   39.8960   30.2000   46.4240 H   0  0  0  0  0  0  0  0  0  0  0  0
   39.2780   29.6060   46.0190 H   0  0  0  0  0  0  0  0  0  0  0  0
   32.8190   27.9010   48.7250 C   0  0  0  0  0  0  0  0  0  0  0  0
   33.1310   27.1960   49.5430 H   0  0  0  0  0  0  0  0  0  0  0  0
   32.4740   28.8230   49.2800 H   0  0  0  0  0  0  0  0  0  0  0  0
   30.4670   27.2960   48.4360 C   0  0  0  0  0  0  0  0  0  0  0  0
   31.7540   27.3110   47.9770 C   0  0  0  0  0  0  0  0  0  0  0  0
   31.9230   26.6910   46.7970 C   0  0  0  0  0  0  0  0  0  0  0  0
   30.9240   26.1060   46.1290 N   0  0  0  0  0  0  0  0  0  0  0  0
   29.6670   26.0830   46.5680 C   0  0  0  0  0  0  0  0  0  0  0  0
   29.4240   26.6820   47.7310 N   0  0  0  0  0  0  0  0  0  0  0  0
   32.8870   26.6170   46.2950 H   0  0  0  0  0  0  0  0  0  0  0  0
   28.7820   25.6470   46.1280 H   0  0  0  0  0  0  0  0  0  0  0  0
   30.0740   27.9600   49.7410 C   0  0  0  0  0  0  0  0  0  0  0  0
   28.7550   28.3770   49.9880 C   0  0  0  0  0  0  0  0  0  0  0  0
   29.1640   27.0170   50.5590 C   0  0  0  0  0  0  0  0  0  0  0  0
   30.9090   28.4810   50.2150 H   0  0  0  0  0  0  0  0  0  0  0  0
   27.9840   28.3380   49.1830 H   0  0  0  0  0  0  0  0  0  0  0  0
   28.5610   29.2150   50.6980 H   0  0  0  0  0  0  0  0  0  0  0  0
   28.7320   26.1410   50.0970 H   0  0  0  0  0  0  0  0  0  0  0  0
   29.3480   27.0590   51.6560 H   0  0  0  0  0  0  0  0  0  0  0  0
  1  6  1  0  0  0  0
  1 21  1  0  0  0  0
  2  1  1  0  0  0  0
  3  1  1  0  0  0  0
  4  5  1  0  0  0  0
  5 10  2  0  0  0  0
  5  6  1  0  0  0  0
  6  7  2  0  0  0  0
  7 11  1  0  0  0  0
  7  8  1  0  0  0  0
  8 12  1  0  0  0  0
  9 13  1  0  0  0  0
  9  8  2  0  0  0  0
 10  9  1  0  0  0  0
 14 13  1  0  0  0  0
 15 10  1  0  0  0  0
 16 17  2  0  0  0  0
 16 15  1  0  0  0  0
 18 16  1  0  0  0  0
 19 18  1  0  0  0  0
 20 18  1  0  0  0  0
 21 23  1  0  0  0  0
 21 22  1  0  0  0  0
 24 32  1  0  0  0  0
 25 24  1  0  0  0  0
 25 21  1  0  0  0  0
 26 25  2  0  0  0  0
 27 28  2  0  0  0  0
 27 26  1  0  0  0  0
 28 29  1  0  0  0  0
 29 24  2  0  0  0  0
 30 26  1  0  0  0  0
 31 28  1  0  0  0  0
 32 33  1  0  0  0  0
 32 35  1  0  0  0  0
 32 34  1  0  0  0  0
 33 34  1  0  0  0  0
 33 37  1  0  0  0  0
 34 39  1  0  0  0  0
 36 33  1  0  0  0  0
 38 34  1  0  0  0  0
M  END
>  <minimizedAffinity>
-6.04342413

>  <minimizedRMSD>
0.916109264

$$$$
