
 OpenBabel03272507253D

 26 27  0  0  1  0  0  0  0  0999 V2000
   36.6450   24.3200   30.9150 C   0  0  0  0  0  0  0  0  0  0  0  0
   37.3020   23.9400   32.0980 C   0  0  0  0  0  0  0  0  0  0  0  0
   37.4050   24.8750   33.1400 C   0  0  0  0  0  0  0  0  0  0  0  0
   36.8640   26.0930   32.9420 N   0  0  0  0  0  0  0  0  0  0  0  0
   36.2330   26.4370   31.7910 C   0  0  0  0  0  0  0  0  0  0  0  0
   36.1340   25.5420   30.7920 N   0  0  0  0  0  0  0  0  0  0  0  0
   38.0510   24.5590   34.3420 N   0  0  0  0  0  0  0  0  0  0  0  0
   38.1540   23.2040   34.9000 C   0  0  0  0  0  0  0  0  0  0  0  0
   38.7600   23.3590   36.2560 C   0  0  0  0  0  0  0  0  0  0  0  0
   38.4120   24.7820   36.5870 C   0  0  0  0  0  0  0  0  0  0  0  0
   38.7210   25.4320   35.2470 C   0  0  2  0  0  0  0  0  0  0  0  0
   36.5560   23.6120   30.1000 H   0  0  0  0  0  0  0  0  0  0  0  0
   37.7180   22.9460   32.1950 H   0  0  0  0  0  0  0  0  0  0  0  0
   35.8390   27.4590   31.7660 H   0  0  0  0  0  0  0  0  0  0  0  0
   37.2070   22.6610   34.8610 H   0  0  0  0  0  0  0  0  0  0  0  0
   38.9460   22.7130   34.2660 H   0  0  0  0  0  0  0  0  0  0  0  0
   39.8490   23.2470   36.3080 H   0  0  0  0  0  0  0  0  0  0  0  0
   38.2560   22.6170   36.9240 H   0  0  0  0  0  0  0  0  0  0  0  0
   37.3490   24.9230   36.8050 H   0  0  0  0  0  0  0  0  0  0  0  0
   39.0520   25.1880   37.4060 H   0  0  0  0  0  0  0  0  0  0  0  0
   38.3800   26.8680   35.2260 C   0  0  0  0  0  0  0  0  0  0  0  0
   39.0260   27.4470   36.3170 F   0  0  0  0  0  0  0  0  0  0  0  0
   37.0560   27.1640   35.3470 F   0  0  0  0  0  0  0  0  0  0  0  0
   38.9820   27.4130   34.1080 F   0  0  0  0  0  0  0  0  0  0  0  0
   40.2120   25.3100   34.9300 C   0  0  0  0  0  2  0  0  0  0  0  0
   40.6450   26.3320   35.0140 H   0  0  0  0  0  0  0  0  0  0  0  0
  1  2  1  0  0  0  0
  2 13  1  0  0  0  0
  2  3  2  0  0  0  0
  3  7  1  0  0  0  0
  4  3  1  0  0  0  0
  5  4  2  0  0  0  0
  6  1  2  0  0  0  0
  6  5  1  0  0  0  0
  7  8  1  0  0  0  0
  7 11  1  0  0  0  0
  8  9  1  0  0  0  0
  9 17  1  0  0  0  0
  9 10  1  0  0  0  0
  9 18  1  0  0  0  0
 10 19  1  0  0  0  0
 10 20  1  0  0  0  0
 11 25  1  6  0  0  0
 11 10  1  0  0  0  0
 12  1  1  0  0  0  0
 14  5  1  0  0  0  0
 15  8  1  0  0  0  0
 16  8  1  0  0  0  0
 21 11  1  0  0  0  0
 21 23  1  0  0  0  0
 21 22  1  0  0  0  0
 24 21  1  0  0  0  0
 25 26  1  0  0  0  0
M  END
>  <minimizedAffinity>
-4.47786903

$$$$

 OpenBabel03272507253D

 26 27  0  0  1  0  0  0  0  0999 V2000
   36.6920   27.4570   30.7260 C   0  0  0  0  0  0  0  0  0  0  0  0
   37.8100   27.5410   31.5740 C   0  0  0  0  0  0  0  0  0  0  0  0
   37.9760   26.5630   32.5670 C   0  0  0  0  0  0  0  0  0  0  0  0
   37.0460   25.5920   32.6490 N   0  0  0  0  0  0  0  0  0  0  0  0
   35.9750   25.5310   31.8190 C   0  0  0  0  0  0  0  0  0  0  0  0
   35.8140   26.4670   30.8670 N   0  0  0  0  0  0  0  0  0  0  0  0
   39.0670   26.5930   33.4450 N   0  0  0  0  0  0  0  0  0  0  0  0
   40.3740   27.1830   33.1280 C   0  0  0  0  0  0  0  0  0  0  0  0
   41.2730   26.8400   34.2690 C   0  0  0  0  0  0  0  0  0  0  0  0
   40.5980   25.6230   34.8350 C   0  0  0  0  0  0  0  0  0  0  0  0
   39.1520   26.0880   34.7740 C   0  0  2  0  0  0  0  0  0  0  0  0
   36.5470   28.2020   29.9540 H   0  0  0  0  0  0  0  0  0  0  0  0
   38.5220   28.3470   31.4570 H   0  0  0  0  0  0  0  0  0  0  0  0
   35.2970   24.6870   31.9980 H   0  0  0  0  0  0  0  0  0  0  0  0
   40.7340   26.9000   32.1360 H   0  0  0  0  0  0  0  0  0  0  0  0
   40.1930   28.2940   33.2050 H   0  0  0  0  0  0  0  0  0  0  0  0
   41.3480   27.5940   35.0620 H   0  0  0  0  0  0  0  0  0  0  0  0
   42.2810   26.6220   33.8360 H   0  0  0  0  0  0  0  0  0  0  0  0
   40.7060   24.7390   34.1980 H   0  0  0  0  0  0  0  0  0  0  0  0
   40.9270   25.4110   35.8800 H   0  0  0  0  0  0  0  0  0  0  0  0
   38.2050   25.0380   35.1920 C   0  0  0  0  0  0  0  0  0  0  0  0
   38.6610   24.5520   36.4160 F   0  0  0  0  0  0  0  0  0  0  0  0
   38.1010   23.9670   34.3560 F   0  0  0  0  0  0  0  0  0  0  0  0
   37.0010   25.6590   35.4670 F   0  0  0  0  0  0  0  0  0  0  0  0
   38.9430   27.2890   35.6990 C   0  0  0  0  0  2  0  0  0  0  0  0
   38.3200   26.9360   36.5500 H   0  0  0  0  0  0  0  0  0  0  0  0
  1  6  2  0  0  0  0
  1  2  1  0  0  0  0
  2  3  2  0  0  0  0
  3  4  1  0  0  0  0
  3  7  1  0  0  0  0
  5 14  1  0  0  0  0
  5  4  2  0  0  0  0
  6  5  1  0  0  0  0
  7 11  1  0  0  0  0
  8 16  1  0  0  0  0
  8  7  1  0  0  0  0
  8  9  1  0  0  0  0
  9 10  1  0  0  0  0
  9 17  1  0  0  0  0
 10 20  1  0  0  0  0
 11 10  1  0  0  0  0
 11 21  1  0  0  0  0
 11 25  1  1  0  0  0
 12  1  1  0  0  0  0
 13  2  1  0  0  0  0
 15  8  1  0  0  0  0
 18  9  1  0  0  0  0
 19 10  1  0  0  0  0
 21 24  1  0  0  0  0
 21 22  1  0  0  0  0
 23 21  1  0  0  0  0
 25 26  1  0  0  0  0
M  END
>  <minimizedAffinity>
-4.31943941

$$$$

 OpenBabel03272507253D

 26 27  0  0  1  0  0  0  0  0999 V2000
   37.2450   28.7330   30.7220 C   0  0  0  0  0  0  0  0  0  0  0  0
   38.0850   27.7530   31.2790 C   0  0  0  0  0  0  0  0  0  0  0  0
   37.8290   27.3140   32.5870 C   0  0  0  0  0  0  0  0  0  0  0  0
   36.7840   27.8620   33.2380 N   0  0  0  0  0  0  0  0  0  0  0  0
   35.9860   28.8060   32.6790 C   0  0  0  0  0  0  0  0  0  0  0  0
   36.2300   29.2280   31.4250 N   0  0  0  0  0  0  0  0  0  0  0  0
   38.6310   26.3430   33.2000 N   0  0  0  0  0  0  0  0  0  0  0  0
   39.3730   25.3000   32.4790 C   0  0  0  0  0  0  0  0  0  0  0  0
   39.9400   24.3950   33.5230 C   0  0  0  0  0  0  0  0  0  0  0  0
   39.0120   24.6430   34.6780 C   0  0  0  0  0  0  0  0  0  0  0  0
   38.8990   26.1570   34.5870 C   0  0  2  0  0  0  0  0  0  0  0  0
   37.4260   29.0850   29.7140 H   0  0  0  0  0  0  0  0  0  0  0  0
   38.9090   27.3520   30.7050 H   0  0  0  0  0  0  0  0  0  0  0  0
   35.1730   29.1640   33.3200 H   0  0  0  0  0  0  0  0  0  0  0  0
   38.7730   24.8160   31.7040 H   0  0  0  0  0  0  0  0  0  0  0  0
   40.2540   25.8510   32.0420 H   0  0  0  0  0  0  0  0  0  0  0  0
   40.9630   24.6200   33.8460 H   0  0  0  0  0  0  0  0  0  0  0  0
   39.8720   23.3540   33.1220 H   0  0  0  0  0  0  0  0  0  0  0  0
   38.0180   24.2100   34.5300 H   0  0  0  0  0  0  0  0  0  0  0  0
   39.4560   24.3150   35.6480 H   0  0  0  0  0  0  0  0  0  0  0  0
   37.9480   26.7100   35.5700 C   0  0  0  0  0  0  0  0  0  0  0  0
   38.3030   26.1830   36.8100 F   0  0  0  0  0  0  0  0  0  0  0  0
   36.6370   26.3960   35.3670 F   0  0  0  0  0  0  0  0  0  0  0  0
   38.1970   28.0670   35.6600 F   0  0  0  0  0  0  0  0  0  0  0  0
   40.2590   26.8060   34.8480 C   0  0  0  0  0  2  0  0  0  0  0  0
   40.1890   27.3140   35.8370 H   0  0  0  0  0  0  0  0  0  0  0  0
  1  2  2  0  0  0  0
  1  6  1  0  0  0  0
  2  3  1  0  0  0  0
  3  7  1  0  0  0  0
  3  4  2  0  0  0  0
  5  4  1  0  0  0  0
  5 14  1  0  0  0  0
  6  5  2  0  0  0  0
  7 11  1  0  0  0  0
  8  7  1  0  0  0  0
  8  9  1  0  0  0  0
  9 17  1  0  0  0  0
  9 10  1  0  0  0  0
 10 20  1  0  0  0  0
 11 10  1  0  0  0  0
 11 25  1  1  0  0  0
 11 21  1  0  0  0  0
 12  1  1  0  0  0  0
 13  2  1  0  0  0  0
 15  8  1  0  0  0  0
 16  8  1  0  0  0  0
 18  9  1  0  0  0  0
 19 10  1  0  0  0  0
 21 24  1  0  0  0  0
 21 22  1  0  0  0  0
 23 21  1  0  0  0  0
 25 26  1  0  0  0  0
M  END
>  <minimizedAffinity>
-4.23502445

$$$$

 OpenBabel03272507253D

 26 27  0  0  1  0  0  0  0  0999 V2000
   39.5890   24.2440   35.5790 C   0  0  0  0  0  0  0  0  0  0  0  0
   38.8740   24.7530   34.4810 C   0  0  0  0  0  0  0  0  0  0  0  0
   37.9610   23.9130   33.8250 C   0  0  0  0  0  0  0  0  0  0  0  0
   37.8210   22.6560   34.2910 N   0  0  0  0  0  0  0  0  0  0  0  0
   38.5220   22.1870   35.3540 C   0  0  0  0  0  0  0  0  0  0  0  0
   39.3980   22.9910   35.9830 N   0  0  0  0  0  0  0  0  0  0  0  0
   37.2210   24.3600   32.7230 N   0  0  0  0  0  0  0  0  0  0  0  0
   36.8420   25.7590   32.4870 C   0  0  0  0  0  0  0  0  0  0  0  0
   35.9260   25.7490   31.3080 C   0  0  0  0  0  0  0  0  0  0  0  0
   35.4030   24.3410   31.3390 C   0  0  0  0  0  0  0  0  0  0  0  0
   36.6970   23.6000   31.6370 C   0  0  2  0  0  0  0  0  0  0  0  0
   40.2980   24.8770   36.0970 H   0  0  0  0  0  0  0  0  0  0  0  0
   39.0320   25.7720   34.1540 H   0  0  0  0  0  0  0  0  0  0  0  0
   38.3090   21.1470   35.6260 H   0  0  0  0  0  0  0  0  0  0  0  0
   36.4570   26.2480   33.3850 H   0  0  0  0  0  0  0  0  0  0  0  0
   37.7970   26.2380   32.1260 H   0  0  0  0  0  0  0  0  0  0  0  0
   36.3990   25.9210   30.3340 H   0  0  0  0  0  0  0  0  0  0  0  0
   35.1360   26.5150   31.5030 H   0  0  0  0  0  0  0  0  0  0  0  0
   34.7030   24.1630   32.1610 H   0  0  0  0  0  0  0  0  0  0  0  0
   34.9630   24.0370   30.3600 H   0  0  0  0  0  0  0  0  0  0  0  0
   36.4870   22.1520   31.8250 C   0  0  0  0  0  0  0  0  0  0  0  0
   35.7710   21.7050   30.7160 F   0  0  0  0  0  0  0  0  0  0  0  0
   35.7700   21.7960   32.9280 F   0  0  0  0  0  0  0  0  0  0  0  0
   37.7250   21.5450   31.7350 F   0  0  0  0  0  0  0  0  0  0  0  0
   37.6850   23.7740   30.4820 C   0  0  0  0  0  2  0  0  0  0  0  0
   37.7660   22.7860   29.9760 H   0  0  0  0  0  0  0  0  0  0  0  0
  1  6  1  0  0  0  0
  1 12  1  0  0  0  0
  2  1  2  0  0  0  0
  3  4  2  0  0  0  0
  3  2  1  0  0  0  0
  4  5  1  0  0  0  0
  5 14  1  0  0  0  0
  5  6  2  0  0  0  0
  7  3  1  0  0  0  0
  8  7  1  0  0  0  0
  8 15  1  0  0  0  0
  9 10  1  0  0  0  0
  9 18  1  0  0  0  0
  9  8  1  0  0  0  0
 10 11  1  0  0  0  0
 10 19  1  0  0  0  0
 11 25  1  6  0  0  0
 11 21  1  0  0  0  0
 11  7  1  0  0  0  0
 13  2  1  0  0  0  0
 16  8  1  0  0  0  0
 17  9  1  0  0  0  0
 20 10  1  0  0  0  0
 21 23  1  0  0  0  0
 22 21  1  0  0  0  0
 24 21  1  0  0  0  0
 26 25  1  0  0  0  0
M  END
>  <minimizedAffinity>
-4.21413088

$$$$

 OpenBabel03272507253D

 26 27  0  0  1  0  0  0  0  0999 V2000
   35.6970   24.5390   31.2890 C   0  0  0  0  0  0  0  0  0  0  0  0
   36.5760   25.3220   32.0570 C   0  0  0  0  0  0  0  0  0  0  0  0
   37.4740   24.6730   32.9210 C   0  0  0  0  0  0  0  0  0  0  0  0
   37.4390   23.3270   32.9620 N   0  0  0  0  0  0  0  0  0  0  0  0
   36.5820   22.5930   32.2090 C   0  0  0  0  0  0  0  0  0  0  0  0
   35.7210   23.2120   31.3820 N   0  0  0  0  0  0  0  0  0  0  0  0
   38.3720   25.3960   33.7150 N   0  0  0  0  0  0  0  0  0  0  0  0
   38.9070   26.7210   33.3720 C   0  0  0  0  0  0  0  0  0  0  0  0
   39.9450   27.0290   34.4000 C   0  0  0  0  0  0  0  0  0  0  0  0
   40.3240   25.6550   34.8740 C   0  0  0  0  0  0  0  0  0  0  0  0
   38.9400   25.0330   34.9710 C   0  0  2  0  0  0  0  0  0  0  0  0
   34.9980   25.0210   30.6180 H   0  0  0  0  0  0  0  0  0  0  0  0
   36.5550   26.4010   31.9800 H   0  0  0  0  0  0  0  0  0  0  0  0
   36.6620   21.5070   32.3420 H   0  0  0  0  0  0  0  0  0  0  0  0
   39.2330   26.7860   32.3310 H   0  0  0  0  0  0  0  0  0  0  0  0
   38.0490   27.4200   33.5860 H   0  0  0  0  0  0  0  0  0  0  0  0
   39.6030   27.6110   35.2640 H   0  0  0  0  0  0  0  0  0  0  0  0
   40.7780   27.5570   33.8730 H   0  0  0  0  0  0  0  0  0  0  0  0
   40.9070   25.0940   34.1370 H   0  0  0  0  0  0  0  0  0  0  0  0
   40.8410   25.6820   35.8620 H   0  0  0  0  0  0  0  0  0  0  0  0
   38.9880   23.6050   35.3370 C   0  0  0  0  0  0  0  0  0  0  0  0
   39.7530   23.5160   36.4980 F   0  0  0  0  0  0  0  0  0  0  0  0
   39.5650   22.7780   34.4200 F   0  0  0  0  0  0  0  0  0  0  0  0
   37.7090   23.2350   35.7070 F   0  0  0  0  0  0  0  0  0  0  0  0
   38.1100   25.7520   36.0360 C   0  0  0  0  0  2  0  0  0  0  0  0
   37.9920   25.0430   36.8860 H   0  0  0  0  0  0  0  0  0  0  0  0
  1  6  2  0  0  0  0
  1  2  1  0  0  0  0
  2  3  2  0  0  0  0
  3  4  1  0  0  0  0
  3  7  1  0  0  0  0
  5 14  1  0  0  0  0
  5  4  2  0  0  0  0
  6  5  1  0  0  0  0
  7 11  1  0  0  0  0
  8 16  1  0  0  0  0
  8  7  1  0  0  0  0
  8  9  1  0  0  0  0
  9 10  1  0  0  0  0
  9 17  1  0  0  0  0
 10 11  1  0  0  0  0
 10 20  1  0  0  0  0
 11 21  1  0  0  0  0
 11 25  1  1  0  0  0
 12  1  1  0  0  0  0
 13  2  1  0  0  0  0
 15  8  1  0  0  0  0
 18  9  1  0  0  0  0
 19 10  1  0  0  0  0
 21 24  1  0  0  0  0
 21 22  1  0  0  0  0
 23 21  1  0  0  0  0
 25 26  1  0  0  0  0
M  END
>  <minimizedAffinity>
-4.21124411

$$$$

 OpenBabel03272507253D

 26 27  0  0  1  0  0  0  0  0999 V2000
   36.6760   22.0070   32.6610 C   0  0  0  0  0  0  0  0  0  0  0  0
   37.0750   23.3170   32.3460 C   0  0  0  0  0  0  0  0  0  0  0  0
   37.8230   24.0370   33.2920 C   0  0  0  0  0  0  0  0  0  0  0  0
   38.1160   23.4240   34.4550 N   0  0  0  0  0  0  0  0  0  0  0  0
   37.7200   22.1570   34.7360 C   0  0  0  0  0  0  0  0  0  0  0  0
   37.0040   21.4660   33.8320 N   0  0  0  0  0  0  0  0  0  0  0  0
   38.2480   25.3480   33.0400 N   0  0  0  0  0  0  0  0  0  0  0  0
   38.5090   25.8960   31.7020 C   0  0  0  0  0  0  0  0  0  0  0  0
   39.0990   27.2500   31.9160 C   0  0  0  0  0  0  0  0  0  0  0  0
   39.6600   27.1240   33.3040 C   0  0  0  0  0  0  0  0  0  0  0  0
   38.5070   26.3930   33.9730 C   0  0  2  0  0  0  0  0  0  0  0  0
   36.0990   21.4360   31.9450 H   0  0  0  0  0  0  0  0  0  0  0  0
   36.8070   23.7550   31.3940 H   0  0  0  0  0  0  0  0  0  0  0  0
   38.0280   21.7830   35.7190 H   0  0  0  0  0  0  0  0  0  0  0  0
   39.0900   25.2160   31.0750 H   0  0  0  0  0  0  0  0  0  0  0  0
   37.4780   26.0760   31.2800 H   0  0  0  0  0  0  0  0  0  0  0  0
   38.3920   28.0880   31.9020 H   0  0  0  0  0  0  0  0  0  0  0  0
   39.8880   27.3880   31.1350 H   0  0  0  0  0  0  0  0  0  0  0  0
   40.5490   26.4880   33.3500 H   0  0  0  0  0  0  0  0  0  0  0  0
   39.8500   28.1200   33.7690 H   0  0  0  0  0  0  0  0  0  0  0  0
   38.8050   26.0320   35.3720 C   0  0  0  0  0  0  0  0  0  0  0  0
   39.2060   27.2050   36.0100 F   0  0  0  0  0  0  0  0  0  0  0  0
   39.8050   25.1240   35.5490 F   0  0  0  0  0  0  0  0  0  0  0  0
   37.6080   25.6790   35.9660 F   0  0  0  0  0  0  0  0  0  0  0  0
   37.2560   27.2740   33.9830 C   0  0  0  0  0  2  0  0  0  0  0  0
   37.0830   27.5760   35.0400 H   0  0  0  0  0  0  0  0  0  0  0  0
  1  6  1  0  0  0  0
  2  1  2  0  0  0  0
  2  3  1  0  0  0  0
  3  4  2  0  0  0  0
  4  5  1  0  0  0  0
  5 14  1  0  0  0  0
  6  5  2  0  0  0  0
  7  3  1  0  0  0  0
  7 11  1  0  0  0  0
  8  9  1  0  0  0  0
  8  7  1  0  0  0  0
  9 10  1  0  0  0  0
 10 19  1  0  0  0  0
 10 20  1  0  0  0  0
 10 11  1  0  0  0  0
 11 25  1  1  0  0  0
 11 21  1  0  0  0  0
 12  1  1  0  0  0  0
 13  2  1  0  0  0  0
 15  8  1  0  0  0  0
 16  8  1  0  0  0  0
 17  9  1  0  0  0  0
 18  9  1  0  0  0  0
 21 23  1  0  0  0  0
 21 24  1  0  0  0  0
 21 22  1  0  0  0  0
 25 26  1  0  0  0  0
M  END
>  <minimizedAffinity>
-4.20322466

$$$$

 OpenBabel03272507253D

 26 27  0  0  1  0  0  0  0  0999 V2000
   38.3170   22.3840   36.0150 C   0  0  0  0  0  0  0  0  0  0  0  0
   38.4770   23.1140   34.8250 C   0  0  0  0  0  0  0  0  0  0  0  0
   38.3530   24.5120   34.8720 C   0  0  0  0  0  0  0  0  0  0  0  0
   38.0860   25.0750   36.0670 N   0  0  0  0  0  0  0  0  0  0  0  0
   37.9370   24.3490   37.2030 C   0  0  0  0  0  0  0  0  0  0  0  0
   38.0550   23.0100   37.1590 N   0  0  0  0  0  0  0  0  0  0  0  0
   38.4980   25.2970   33.7210 N   0  0  0  0  0  0  0  0  0  0  0  0
   39.3160   24.9260   32.5590 C   0  0  0  0  0  0  0  0  0  0  0  0
   39.3190   26.1150   31.6560 C   0  0  0  0  0  0  0  0  0  0  0  0
   39.0130   27.2290   32.6170 C   0  0  0  0  0  0  0  0  0  0  0  0
   37.9140   26.5630   33.4290 C   0  0  2  0  0  0  0  0  0  0  0  0
   38.4090   21.3050   35.9980 H   0  0  0  0  0  0  0  0  0  0  0  0
   38.6900   22.6030   33.8960 H   0  0  0  0  0  0  0  0  0  0  0  0
   37.7220   24.9360   38.1030 H   0  0  0  0  0  0  0  0  0  0  0  0
   40.2980   24.5400   32.8420 H   0  0  0  0  0  0  0  0  0  0  0  0
   38.6960   24.1450   32.0320 H   0  0  0  0  0  0  0  0  0  0  0  0
   38.5580   26.1190   30.8680 H   0  0  0  0  0  0  0  0  0  0  0  0
   40.3440   26.1860   31.2150 H   0  0  0  0  0  0  0  0  0  0  0  0
   39.8480   27.4590   33.2850 H   0  0  0  0  0  0  0  0  0  0  0  0
   38.6500   28.1440   32.0930 H   0  0  0  0  0  0  0  0  0  0  0  0
   37.4540   27.4040   34.5510 C   0  0  0  0  0  0  0  0  0  0  0  0
   36.9580   28.5800   33.9920 F   0  0  0  0  0  0  0  0  0  0  0  0
   38.4120   27.7670   35.4500 F   0  0  0  0  0  0  0  0  0  0  0  0
   36.3610   26.7720   35.1140 F   0  0  0  0  0  0  0  0  0  0  0  0
   36.7000   26.2770   32.5430 C   0  0  0  0  0  2  0  0  0  0  0  0
   35.8930   26.9730   32.8670 H   0  0  0  0  0  0  0  0  0  0  0  0
  1  6  1  0  0  0  0
  2  3  1  0  0  0  0
  2  1  2  0  0  0  0
  3  4  2  0  0  0  0
  4  5  1  0  0  0  0
  5 14  1  0  0  0  0
  6  5  2  0  0  0  0
  7  3  1  0  0  0  0
  8 15  1  0  0  0  0
  8  7  1  0  0  0  0
  9  8  1  0  0  0  0
  9 10  1  0  0  0  0
 10 19  1  0  0  0  0
 10 11  1  0  0  0  0
 11 25  1  6  0  0  0
 11  7  1  0  0  0  0
 11 21  1  0  0  0  0
 12  1  1  0  0  0  0
 13  2  1  0  0  0  0
 16  8  1  0  0  0  0
 17  9  1  0  0  0  0
 18  9  1  0  0  0  0
 20 10  1  0  0  0  0
 21 24  1  0  0  0  0
 21 23  1  0  0  0  0
 22 21  1  0  0  0  0
 25 26  1  0  0  0  0
M  END
>  <minimizedAffinity>
-4.16228533

$$$$

 OpenBabel03272507253D

 26 27  0  0  1  0  0  0  0  0999 V2000
   36.9750   27.4160   32.2050 C   0  0  0  0  0  0  0  0  0  0  0  0
   37.3770   26.0760   32.3440 C   0  0  0  0  0  0  0  0  0  0  0  0
   37.4900   25.5400   33.6370 C   0  0  0  0  0  0  0  0  0  0  0  0
   37.2050   26.3480   34.6760 N   0  0  0  0  0  0  0  0  0  0  0  0
   36.8170   27.6380   34.5160 C   0  0  0  0  0  0  0  0  0  0  0  0
   36.7090   28.1540   33.2790 N   0  0  0  0  0  0  0  0  0  0  0  0
   37.8890   24.2130   33.8430 N   0  0  0  0  0  0  0  0  0  0  0  0
   37.6710   23.1200   32.8860 C   0  0  0  0  0  0  0  0  0  0  0  0
   38.0930   21.8680   33.5820 C   0  0  0  0  0  0  0  0  0  0  0  0
   37.9550   22.2590   35.0260 C   0  0  0  0  0  0  0  0  0  0  0  0
   38.5630   23.6520   34.9660 C   0  0  2  0  0  0  0  0  0  0  0  0
   36.8830   27.8470   31.2160 H   0  0  0  0  0  0  0  0  0  0  0  0
   37.5940   25.4780   31.4690 H   0  0  0  0  0  0  0  0  0  0  0  0
   36.6160   28.1800   35.4480 H   0  0  0  0  0  0  0  0  0  0  0  0
   36.6600   23.1180   32.4730 H   0  0  0  0  0  0  0  0  0  0  0  0
   38.4490   23.3020   32.0890 H   0  0  0  0  0  0  0  0  0  0  0  0
   39.1260   21.5480   33.4070 H   0  0  0  0  0  0  0  0  0  0  0  0
   37.3750   21.0680   33.2740 H   0  0  0  0  0  0  0  0  0  0  0  0
   36.9130   22.3490   35.3470 H   0  0  0  0  0  0  0  0  0  0  0  0
   38.5300   21.5800   35.6990 H   0  0  0  0  0  0  0  0  0  0  0  0
   38.4860   24.3560   36.2600 C   0  0  0  0  0  0  0  0  0  0  0  0
   39.1570   23.5610   37.1880 F   0  0  0  0  0  0  0  0  0  0  0  0
   37.2310   24.5610   36.7480 F   0  0  0  0  0  0  0  0  0  0  0  0
   39.2430   25.5070   36.1440 F   0  0  0  0  0  0  0  0  0  0  0  0
   40.0400   23.5680   34.5760 C   0  0  0  0  0  2  0  0  0  0  0  0
   40.6280   23.8430   35.4810 H   0  0  0  0  0  0  0  0  0  0  0  0
  1  2  2  0  0  0  0
  1  6  1  0  0  0  0
  2  3  1  0  0  0  0
  3  7  1  0  0  0  0
  3  4  2  0  0  0  0
  5  4  1  0  0  0  0
  5 14  1  0  0  0  0
  6  5  2  0  0  0  0
  7 11  1  0  0  0  0
  8  9  1  0  0  0  0
  8  7  1  0  0  0  0
  9 10  1  0  0  0  0
 10 19  1  0  0  0  0
 10 20  1  0  0  0  0
 11 25  1  6  0  0  0
 11 10  1  0  0  0  0
 11 21  1  0  0  0  0
 12  1  1  0  0  0  0
 13  2  1  0  0  0  0
 15  8  1  0  0  0  0
 16  8  1  0  0  0  0
 17  9  1  0  0  0  0
 18  9  1  0  0  0  0
 21 23  1  0  0  0  0
 21 22  1  0  0  0  0
 24 21  1  0  0  0  0
 25 26  1  0  0  0  0
M  END
>  <minimizedAffinity>
-4.1050849

$$$$

 OpenBabel03272507253D

 26 27  0  0  1  0  0  0  0  0999 V2000
   36.2300   22.5450   31.8780 C   0  0  0  0  0  0  0  0  0  0  0  0
   37.2180   23.3830   32.4230 C   0  0  0  0  0  0  0  0  0  0  0  0
   37.7750   23.0450   33.6670 C   0  0  0  0  0  0  0  0  0  0  0  0
   37.3240   21.9270   34.2700 N   0  0  0  0  0  0  0  0  0  0  0  0
   36.3700   21.1330   33.7240 C   0  0  0  0  0  0  0  0  0  0  0  0
   35.8350   21.4560   32.5320 N   0  0  0  0  0  0  0  0  0  0  0  0
   38.7610   23.8400   34.2640 N   0  0  0  0  0  0  0  0  0  0  0  0
   39.7100   24.6850   33.5260 C   0  0  0  0  0  0  0  0  0  0  0  0
   40.6740   25.2080   34.5380 C   0  0  0  0  0  0  0  0  0  0  0  0
   40.5600   24.1810   35.6290 C   0  0  0  0  0  0  0  0  0  0  0  0
   39.0500   24.0050   35.6500 C   0  0  2  0  0  0  0  0  0  0  0  0
   35.7890   22.7890   30.9200 H   0  0  0  0  0  0  0  0  0  0  0  0
   37.5370   24.2680   31.8890 H   0  0  0  0  0  0  0  0  0  0  0  0
   36.0980   20.2560   34.3220 H   0  0  0  0  0  0  0  0  0  0  0  0
   40.1500   24.1710   32.6690 H   0  0  0  0  0  0  0  0  0  0  0  0
   39.0890   25.5710   33.2090 H   0  0  0  0  0  0  0  0  0  0  0  0
   40.4370   26.1910   34.9620 H   0  0  0  0  0  0  0  0  0  0  0  0
   41.6810   25.2210   34.0520 H   0  0  0  0  0  0  0  0  0  0  0  0
   41.0190   23.2240   35.3650 H   0  0  0  0  0  0  0  0  0  0  0  0
   40.9510   24.5620   36.6030 H   0  0  0  0  0  0  0  0  0  0  0  0
   38.6190   22.9550   36.5910 C   0  0  0  0  0  0  0  0  0  0  0  0
   37.2250   22.9580   36.5820 F   0  0  0  0  0  0  0  0  0  0  0  0
   39.0060   23.1250   37.8870 F   0  0  0  0  0  0  0  0  0  0  0  0
   38.9890   21.7400   36.0450 F   0  0  0  0  0  0  0  0  0  0  0  0
   38.3710   25.3080   36.0740 C   0  0  0  0  0  2  0  0  0  0  0  0
   37.9500   25.1370   37.0900 H   0  0  0  0  0  0  0  0  0  0  0  0
  1  2  2  0  0  0  0
  1  6  1  0  0  0  0
  2  3  1  0  0  0  0
  3  7  1  0  0  0  0
  3  4  2  0  0  0  0
  5  4  1  0  0  0  0
  5 14  1  0  0  0  0
  6  5  2  0  0  0  0
  7 11  1  0  0  0  0
  8  7  1  0  0  0  0
  8  9  1  0  0  0  0
  9 17  1  0  0  0  0
  9 10  1  0  0  0  0
 10 11  1  0  0  0  0
 10 20  1  0  0  0  0
 11 25  1  1  0  0  0
 11 21  1  0  0  0  0
 12  1  1  0  0  0  0
 13  2  1  0  0  0  0
 15  8  1  0  0  0  0
 16  8  1  0  0  0  0
 18  9  1  0  0  0  0
 19 10  1  0  0  0  0
 21 23  1  0  0  0  0
 22 21  1  0  0  0  0
 24 21  1  0  0  0  0
 25 26  1  0  0  0  0
M  END
>  <minimizedAffinity>
-4.09839487

$$$$
