
 OpenBabel03272507593D

 25 26  0  0  0  0  0  0  0  0999 V2000
   38.8370   26.4160   32.5500 C   0  0  0  0  0  0  0  0  0  0  0  0
   39.1400   25.9070   33.8490 C   0  0  0  0  0  0  0  0  0  0  0  0
   38.4860   24.7400   34.2490 C   0  0  0  0  0  0  0  0  0  0  0  0
   37.6000   24.1540   33.3810 N   0  0  0  0  0  0  0  0  0  0  0  0
   37.3550   24.6920   32.1510 C   0  0  0  0  0  0  0  0  0  0  0  0
   37.9610   25.8080   31.7310 N   0  0  0  0  0  0  0  0  0  0  0  0
   36.4020   23.9120   31.4310 N   0  0  0  0  0  0  0  0  0  0  0  0
   39.3490   27.3170   32.2540 H   0  0  0  0  0  0  0  0  0  0  0  0
   36.7790   23.2290   30.7490 H   0  0  0  0  0  0  0  0  0  0  0  0
   35.3750   23.9240   31.4860 H   0  0  0  0  0  0  0  0  0  0  0  0
   38.7560   24.1810   35.5580 C   0  0  0  0  0  0  0  0  0  0  0  0
   37.8670   24.6540   36.5250 C   0  0  0  0  0  0  0  0  0  0  0  0
   37.9860   24.2150   37.8390 C   0  0  0  0  0  0  0  0  0  0  0  0
   38.9880   23.3120   38.1720 C   0  0  0  0  0  0  0  0  0  0  0  0
   39.8430   22.8720   37.1900 C   0  0  0  0  0  0  0  0  0  0  0  0
   39.7140   23.3040   35.9300 N   0  0  0  0  0  0  0  0  0  0  0  0
   37.0580   25.3450   36.3950 H   0  0  0  0  0  0  0  0  0  0  0  0
   37.3280   24.5430   38.6420 H   0  0  0  0  0  0  0  0  0  0  0  0
   39.0730   22.9780   39.1930 H   0  0  0  0  0  0  0  0  0  0  0  0
   40.9320   21.9050   37.4990 C   0  0  0  0  0  2  0  0  0  0  0  0
   40.7760   20.9260   37.0300 H   0  0  0  0  0  0  0  0  0  0  0  0
   40.1140   26.6240   34.7020 C   0  0  0  0  0  0  0  0  0  0  0  0
   41.1110   25.7790   35.1610 F   0  0  0  0  0  0  0  0  0  0  0  0
   40.6950   27.6100   33.9540 F   0  0  0  0  0  0  0  0  0  0  0  0
   39.5260   27.2240   35.8010 F   0  0  0  0  0  0  0  0  0  0  0  0
  1  2  1  0  0  0  0
  2  3  2  0  0  0  0
  2 22  1  0  0  0  0
  3 11  1  0  0  0  0
  4  3  1  0  0  0  0
  5  4  2  0  0  0  0
  6  5  1  0  0  0  0
  6  1  2  0  0  0  0
  7 10  1  0  0  0  0
  7  5  1  0  0  0  0
  8  1  1  0  0  0  0
  9  7  1  0  0  0  0
 11 16  2  0  0  0  0
 11 12  1  0  0  0  0
 12 13  2  0  0  0  0
 13 14  1  0  0  0  0
 13 18  1  0  0  0  0
 14 19  1  0  0  0  0
 15 20  1  0  0  0  0
 15 14  2  0  0  0  0
 16 15  1  0  0  0  0
 17 12  1  0  0  0  0
 21 20  1  0  0  0  0
 22 23  1  0  0  0  0
 22 25  1  0  0  0  0
 24 22  1  0  0  0  0
M  END
>  <minimizedAffinity>
-5.3241148

$$$$

 OpenBabel03272507593D

 25 26  0  0  0  0  0  0  0  0999 V2000
   37.1080   26.9170   33.5800 C   0  0  0  0  0  0  0  0  0  0  0  0
   37.9750   26.2600   34.5040 C   0  0  0  0  0  0  0  0  0  0  0  0
   38.2640   24.9140   34.2680 C   0  0  0  0  0  0  0  0  0  0  0  0
   37.7040   24.3060   33.1720 N   0  0  0  0  0  0  0  0  0  0  0  0
   36.8820   24.9920   32.3270 C   0  0  0  0  0  0  0  0  0  0  0  0
   36.5810   26.2810   32.5190 N   0  0  0  0  0  0  0  0  0  0  0  0
   36.4240   24.1540   31.2670 N   0  0  0  0  0  0  0  0  0  0  0  0
   36.8940   27.9550   33.7750 H   0  0  0  0  0  0  0  0  0  0  0  0
   36.9370   24.2160   30.3690 H   0  0  0  0  0  0  0  0  0  0  0  0
   35.6440   23.4840   31.2570 H   0  0  0  0  0  0  0  0  0  0  0  0
   39.1390   24.1990   35.1740 C   0  0  0  0  0  0  0  0  0  0  0  0
   38.4260   23.4920   36.1440 C   0  0  0  0  0  0  0  0  0  0  0  0
   39.1150   22.7500   37.0960 C   0  0  0  0  0  0  0  0  0  0  0  0
   40.5040   22.7210   37.0690 C   0  0  0  0  0  0  0  0  0  0  0  0
   41.1680   23.4310   36.0970 C   0  0  0  0  0  0  0  0  0  0  0  0
   40.4890   24.1410   35.1890 N   0  0  0  0  0  0  0  0  0  0  0  0
   37.3630   23.4350   36.2700 H   0  0  0  0  0  0  0  0  0  0  0  0
   38.6230   22.1760   37.8800 H   0  0  0  0  0  0  0  0  0  0  0  0
   41.0300   22.1420   37.8110 H   0  0  0  0  0  0  0  0  0  0  0  0
   42.6550   23.4300   36.0290 C   0  0  0  0  0  2  0  0  0  0  0  0
   43.0380   22.9200   35.1360 H   0  0  0  0  0  0  0  0  0  0  0  0
   38.5220   27.0170   35.6530 C   0  0  0  0  0  0  0  0  0  0  0  0
   39.8950   27.1750   35.5550 F   0  0  0  0  0  0  0  0  0  0  0  0
   37.9440   28.2550   35.6640 F   0  0  0  0  0  0  0  0  0  0  0  0
   38.2500   26.4170   36.8690 F   0  0  0  0  0  0  0  0  0  0  0  0
  1  8  1  0  0  0  0
  1  2  1  0  0  0  0
  2 22  1  0  0  0  0
  3  2  2  0  0  0  0
  3 11  1  0  0  0  0
  4  3  1  0  0  0  0
  5  6  1  0  0  0  0
  5  4  2  0  0  0  0
  6  1  2  0  0  0  0
  7  5  1  0  0  0  0
  9  7  1  0  0  0  0
 10  7  1  0  0  0  0
 11 16  2  0  0  0  0
 11 12  1  0  0  0  0
 12 17  1  0  0  0  0
 12 13  2  0  0  0  0
 13 18  1  0  0  0  0
 14 13  1  0  0  0  0
 14 19  1  0  0  0  0
 15 14  2  0  0  0  0
 16 15  1  0  0  0  0
 20 15  1  0  0  0  0
 21 20  1  0  0  0  0
 22 24  1  0  0  0  0
 22 25  1  0  0  0  0
 23 22  1  0  0  0  0
M  END
>  <minimizedAffinity>
-5.1010766

$$$$

 OpenBabel03272507593D

 25 26  0  0  0  0  0  0  0  0999 V2000
   37.0050   26.9840   33.5310 C   0  0  0  0  0  0  0  0  0  0  0  0
   38.0350   26.3740   34.3090 C   0  0  0  0  0  0  0  0  0  0  0  0
   38.6080   25.2030   33.8110 C   0  0  0  0  0  0  0  0  0  0  0  0
   38.1550   24.7090   32.6130 N   0  0  0  0  0  0  0  0  0  0  0  0
   37.1650   25.3400   31.9180 C   0  0  0  0  0  0  0  0  0  0  0  0
   36.5910   26.4650   32.3610 N   0  0  0  0  0  0  0  0  0  0  0  0
   36.8640   24.6440   30.7100 N   0  0  0  0  0  0  0  0  0  0  0  0
   36.5720   27.8870   33.9280 H   0  0  0  0  0  0  0  0  0  0  0  0
   37.3130   24.9950   29.8450 H   0  0  0  0  0  0  0  0  0  0  0  0
   36.2550   23.8280   30.5620 H   0  0  0  0  0  0  0  0  0  0  0  0
   39.6570   24.5430   34.5610 C   0  0  0  0  0  0  0  0  0  0  0  0
   40.9230   24.7980   34.0300 C   0  0  0  0  0  0  0  0  0  0  0  0
   42.0440   24.2390   34.6320 C   0  0  0  0  0  0  0  0  0  0  0  0
   41.8900   23.4350   35.7550 C   0  0  0  0  0  0  0  0  0  0  0  0
   40.6260   23.2090   36.2460 C   0  0  0  0  0  0  0  0  0  0  0  0
   39.5580   23.7550   35.6540 N   0  0  0  0  0  0  0  0  0  0  0  0
   41.1710   25.3960   33.1760 H   0  0  0  0  0  0  0  0  0  0  0  0
   43.0590   24.3960   34.2700 H   0  0  0  0  0  0  0  0  0  0  0  0
   42.7660   23.0060   36.2150 H   0  0  0  0  0  0  0  0  0  0  0  0
   40.4120   22.3550   37.4460 C   0  0  0  0  0  2  0  0  0  0  0  0
   40.0470   22.9220   38.3110 H   0  0  0  0  0  0  0  0  0  0  0  0
   38.4440   26.9970   35.5890 C   0  0  0  0  0  0  0  0  0  0  0  0
   39.8020   27.2680   35.6140 F   0  0  0  0  0  0  0  0  0  0  0  0
   37.7650   28.1750   35.7280 F   0  0  0  0  0  0  0  0  0  0  0  0
   38.1480   26.2110   36.6870 F   0  0  0  0  0  0  0  0  0  0  0  0
  1  8  1  0  0  0  0
  1  2  1  0  0  0  0
  2 22  1  0  0  0  0
  3  2  2  0  0  0  0
  3 11  1  0  0  0  0
  4  3  1  0  0  0  0
  5  6  1  0  0  0  0
  5  4  2  0  0  0  0
  6  1  2  0  0  0  0
  7  5  1  0  0  0  0
  9  7  1  0  0  0  0
 10  7  1  0  0  0  0
 11 16  1  0  0  0  0
 12 11  2  0  0  0  0
 12 13  1  0  0  0  0
 13 14  2  0  0  0  0
 14 19  1  0  0  0  0
 14 15  1  0  0  0  0
 15 20  1  0  0  0  0
 16 15  2  0  0  0  0
 17 12  1  0  0  0  0
 18 13  1  0  0  0  0
 20 21  1  0  0  0  0
 22 23  1  0  0  0  0
 22 24  1  0  0  0  0
 22 25  1  0  0  0  0
M  END
>  <minimizedAffinity>
-4.94458055

$$$$

 OpenBabel03272507593D

 25 26  0  0  0  0  0  0  0  0999 V2000
   37.1680   23.8780   32.2440 C   0  0  0  0  0  0  0  0  0  0  0  0
   37.6040   23.3810   33.5090 C   0  0  0  0  0  0  0  0  0  0  0  0
   38.1300   24.3050   34.4150 C   0  0  0  0  0  0  0  0  0  0  0  0
   38.1960   25.6240   34.0420 N   0  0  0  0  0  0  0  0  0  0  0  0
   37.7620   26.0350   32.8160 C   0  0  0  0  0  0  0  0  0  0  0  0
   37.2520   25.1810   31.9210 N   0  0  0  0  0  0  0  0  0  0  0  0
   37.9310   27.4420   32.6570 N   0  0  0  0  0  0  0  0  0  0  0  0
   36.7640   23.1550   31.5550 H   0  0  0  0  0  0  0  0  0  0  0  0
   37.1020   28.0350   32.8410 H   0  0  0  0  0  0  0  0  0  0  0  0
   38.7700   27.9700   32.3820 H   0  0  0  0  0  0  0  0  0  0  0  0
   38.5870   23.8530   35.7130 C   0  0  0  0  0  0  0  0  0  0  0  0
   37.7810   24.3290   36.7490 C   0  0  0  0  0  0  0  0  0  0  0  0
   38.0810   23.9880   38.0630 C   0  0  0  0  0  0  0  0  0  0  0  0
   39.1800   23.1790   38.3270 C   0  0  0  0  0  0  0  0  0  0  0  0
   39.9480   22.7320   37.2790 C   0  0  0  0  0  0  0  0  0  0  0  0
   39.6450   23.0700   36.0200 N   0  0  0  0  0  0  0  0  0  0  0  0
   36.9140   24.9540   36.6750 H   0  0  0  0  0  0  0  0  0  0  0  0
   37.4960   24.3240   38.9170 H   0  0  0  0  0  0  0  0  0  0  0  0
   39.4050   22.9210   39.3500 H   0  0  0  0  0  0  0  0  0  0  0  0
   41.1340   21.8640   37.5140 C   0  0  0  0  0  2  0  0  0  0  0  0
   41.0000   20.8480   37.1240 H   0  0  0  0  0  0  0  0  0  0  0  0
   37.4840   21.9350   33.8030 C   0  0  0  0  0  0  0  0  0  0  0  0
   36.8850   21.7110   35.0310 F   0  0  0  0  0  0  0  0  0  0  0  0
   36.7080   21.3640   32.8330 F   0  0  0  0  0  0  0  0  0  0  0  0
   38.7040   21.2840   33.8000 F   0  0  0  0  0  0  0  0  0  0  0  0
  1  2  1  0  0  0  0
  2 22  1  0  0  0  0
  2  3  2  0  0  0  0
  3 11  1  0  0  0  0
  4  3  1  0  0  0  0
  5  4  2  0  0  0  0
  6  1  2  0  0  0  0
  6  5  1  0  0  0  0
  7  5  1  0  0  0  0
  7  9  1  0  0  0  0
  8  1  1  0  0  0  0
 10  7  1  0  0  0  0
 11 16  2  0  0  0  0
 11 12  1  0  0  0  0
 12 13  2  0  0  0  0
 13 14  1  0  0  0  0
 13 18  1  0  0  0  0
 14 19  1  0  0  0  0
 15 20  1  0  0  0  0
 15 14  2  0  0  0  0
 16 15  1  0  0  0  0
 17 12  1  0  0  0  0
 21 20  1  0  0  0  0
 22 23  1  0  0  0  0
 24 22  1  0  0  0  0
 25 22  1  0  0  0  0
M  END
>  <minimizedAffinity>
-4.83566189

$$$$

 OpenBabel03272507593D

 25 26  0  0  0  0  0  0  0  0999 V2000
   35.1860   26.1550   30.9550 C   0  0  0  0  0  0  0  0  0  0  0  0
   36.1990   26.6370   31.8370 C   0  0  0  0  0  0  0  0  0  0  0  0
   36.9690   25.6860   32.5100 C   0  0  0  0  0  0  0  0  0  0  0  0
   36.7110   24.3560   32.2870 N   0  0  0  0  0  0  0  0  0  0  0  0
   35.7260   23.9620   31.4290 C   0  0  0  0  0  0  0  0  0  0  0  0
   34.9680   24.8420   30.7660 N   0  0  0  0  0  0  0  0  0  0  0  0
   35.6460   22.5390   31.3610 N   0  0  0  0  0  0  0  0  0  0  0  0
   34.6000   26.9000   30.4420 H   0  0  0  0  0  0  0  0  0  0  0  0
   36.1340   22.0820   30.5700 H   0  0  0  0  0  0  0  0  0  0  0  0
   35.1670   21.8830   31.9920 H   0  0  0  0  0  0  0  0  0  0  0  0
   38.0110   26.1200   33.4180 C   0  0  0  0  0  0  0  0  0  0  0  0
   37.5800   26.1310   34.7460 C   0  0  0  0  0  0  0  0  0  0  0  0
   38.4590   26.5230   35.7490 C   0  0  0  0  0  0  0  0  0  0  0  0
   39.7550   26.8990   35.4160 C   0  0  0  0  0  0  0  0  0  0  0  0
   40.1390   26.8750   34.0970 C   0  0  0  0  0  0  0  0  0  0  0  0
   39.2800   26.4950   33.1440 N   0  0  0  0  0  0  0  0  0  0  0  0
   36.6140   25.8640   35.1280 H   0  0  0  0  0  0  0  0  0  0  0  0
   38.1890   26.5550   36.8030 H   0  0  0  0  0  0  0  0  0  0  0  0
   40.4290   27.2020   36.2010 H   0  0  0  0  0  0  0  0  0  0  0  0
   41.5160   27.2690   33.6920 C   0  0  0  0  0  2  0  0  0  0  0  0
   42.1020   26.4280   33.3030 H   0  0  0  0  0  0  0  0  0  0  0  0
   36.3880   28.0960   32.0000 C   0  0  0  0  0  0  0  0  0  0  0  0
   37.6400   28.5010   31.5670 F   0  0  0  0  0  0  0  0  0  0  0  0
   35.4430   28.7370   31.2500 F   0  0  0  0  0  0  0  0  0  0  0  0
   36.2360   28.5130   33.3100 F   0  0  0  0  0  0  0  0  0  0  0  0
  1  2  1  0  0  0  0
  2 22  1  0  0  0  0
  2  3  2  0  0  0  0
  3 11  1  0  0  0  0
  4  3  1  0  0  0  0
  5  4  2  0  0  0  0
  6  1  2  0  0  0  0
  6  5  1  0  0  0  0
  7  5  1  0  0  0  0
  7 10  1  0  0  0  0
  8  1  1  0  0  0  0
  9  7  1  0  0  0  0
 11 12  1  0  0  0  0
 12 17  1  0  0  0  0
 12 13  2  0  0  0  0
 13 18  1  0  0  0  0
 14 13  1  0  0  0  0
 14 19  1  0  0  0  0
 15 14  2  0  0  0  0
 16 11  2  0  0  0  0
 16 15  1  0  0  0  0
 20 15  1  0  0  0  0
 21 20  1  0  0  0  0
 22 25  1  0  0  0  0
 23 22  1  0  0  0  0
 24 22  1  0  0  0  0
M  END
>  <minimizedAffinity>
-4.79666471

$$$$

 OpenBabel03272507593D

 25 26  0  0  0  0  0  0  0  0999 V2000
   40.3540   22.3630   37.6050 C   0  0  0  0  0  0  0  0  0  0  0  0
   39.5620   23.3120   36.8920 C   0  0  0  0  0  0  0  0  0  0  0  0
   40.0940   23.8350   35.7120 C   0  0  0  0  0  0  0  0  0  0  0  0
   41.3360   23.4110   35.3080 N   0  0  0  0  0  0  0  0  0  0  0  0
   42.0430   22.5000   36.0370 C   0  0  0  0  0  0  0  0  0  0  0  0
   41.5670   21.9760   37.1730 N   0  0  0  0  0  0  0  0  0  0  0  0
   43.2990   22.2160   35.4230 N   0  0  0  0  0  0  0  0  0  0  0  0
   39.9300   21.9680   38.5140 H   0  0  0  0  0  0  0  0  0  0  0  0
   43.3480   21.3660   34.8340 H   0  0  0  0  0  0  0  0  0  0  0  0
   44.1840   22.7380   35.4790 H   0  0  0  0  0  0  0  0  0  0  0  0
   39.3320   24.8020   34.9480 C   0  0  0  0  0  0  0  0  0  0  0  0
   39.6880   26.1150   35.2590 C   0  0  0  0  0  0  0  0  0  0  0  0
   39.0510   27.1690   34.6150 C   0  0  0  0  0  0  0  0  0  0  0  0
   38.0680   26.9010   33.6690 C   0  0  0  0  0  0  0  0  0  0  0  0
   37.7470   25.5930   33.3920 C   0  0  0  0  0  0  0  0  0  0  0  0
   38.3700   24.5910   34.0220 N   0  0  0  0  0  0  0  0  0  0  0  0
   40.4240   26.4500   35.9630 H   0  0  0  0  0  0  0  0  0  0  0  0
   39.2790   28.2160   34.8090 H   0  0  0  0  0  0  0  0  0  0  0  0
   37.5800   27.7250   33.1740 H   0  0  0  0  0  0  0  0  0  0  0  0
   36.7020   25.2580   32.3870 C   0  0  0  0  0  2  0  0  0  0  0  0
   37.1110   24.7650   31.4970 H   0  0  0  0  0  0  0  0  0  0  0  0
   38.2330   23.6960   37.4220 C   0  0  0  0  0  0  0  0  0  0  0  0
   37.2130   23.3250   36.5620 F   0  0  0  0  0  0  0  0  0  0  0  0
   38.0480   23.0560   38.6150 F   0  0  0  0  0  0  0  0  0  0  0  0
   38.1210   25.0550   37.6540 F   0  0  0  0  0  0  0  0  0  0  0  0
  1  8  1  0  0  0  0
  2 22  1  0  0  0  0
  2  1  2  0  0  0  0
  3  2  1  0  0  0  0
  4  3  2  0  0  0  0
  4  5  1  0  0  0  0
  5  6  2  0  0  0  0
  6  1  1  0  0  0  0
  7 10  1  0  0  0  0
  7  5  1  0  0  0  0
  9  7  1  0  0  0  0
 11 12  1  0  0  0  0
 11  3  1  0  0  0  0
 12 17  1  0  0  0  0
 13 18  1  0  0  0  0
 13 12  2  0  0  0  0
 14 13  1  0  0  0  0
 15 14  2  0  0  0  0
 15 16  1  0  0  0  0
 16 11  2  0  0  0  0
 19 14  1  0  0  0  0
 20 15  1  0  0  0  0
 21 20  1  0  0  0  0
 22 25  1  0  0  0  0
 22 24  1  0  0  0  0
 23 22  1  0  0  0  0
M  END
>  <minimizedAffinity>
-4.79023838

$$$$

 OpenBabel03272507593D

 25 26  0  0  0  0  0  0  0  0999 V2000
   36.3460   22.7370   31.8750 C   0  0  0  0  0  0  0  0  0  0  0  0
   37.2030   23.4700   32.7490 C   0  0  0  0  0  0  0  0  0  0  0  0
   37.1430   24.8630   32.6880 C   0  0  0  0  0  0  0  0  0  0  0  0
   36.2720   25.4440   31.8000 N   0  0  0  0  0  0  0  0  0  0  0  0
   35.4790   24.6850   30.9900 C   0  0  0  0  0  0  0  0  0  0  0  0
   35.5070   23.3480   31.0190 N   0  0  0  0  0  0  0  0  0  0  0  0
   34.6620   25.5060   30.1580 N   0  0  0  0  0  0  0  0  0  0  0  0
   36.4030   21.6620   31.9320 H   0  0  0  0  0  0  0  0  0  0  0  0
   33.6920   25.6770   30.4790 H   0  0  0  0  0  0  0  0  0  0  0  0
   34.8940   25.9650   29.2660 H   0  0  0  0  0  0  0  0  0  0  0  0
   37.9910   25.6560   33.5540 C   0  0  0  0  0  0  0  0  0  0  0  0
   37.3030   26.1350   34.6700 C   0  0  0  0  0  0  0  0  0  0  0  0
   37.9710   26.9160   35.6050 C   0  0  0  0  0  0  0  0  0  0  0  0
   39.3170   27.2090   35.4180 C   0  0  0  0  0  0  0  0  0  0  0  0
   39.9590   26.7170   34.3060 C   0  0  0  0  0  0  0  0  0  0  0  0
   39.2990   25.9680   33.4150 N   0  0  0  0  0  0  0  0  0  0  0  0
   36.2730   25.9800   34.9260 H   0  0  0  0  0  0  0  0  0  0  0  0
   37.4960   27.3220   36.4970 H   0  0  0  0  0  0  0  0  0  0  0  0
   39.8270   27.8150   36.1490 H   0  0  0  0  0  0  0  0  0  0  0  0
   41.3980   27.0050   34.0630 C   0  0  0  0  0  2  0  0  0  0  0  0
   42.0280   26.1100   34.1390 H   0  0  0  0  0  0  0  0  0  0  0  0
   38.1040   22.7370   33.6680 C   0  0  0  0  0  0  0  0  0  0  0  0
   37.8620   23.0640   34.9920 F   0  0  0  0  0  0  0  0  0  0  0  0
   37.8830   21.3980   33.5060 F   0  0  0  0  0  0  0  0  0  0  0  0
   39.4420   22.9740   33.4100 F   0  0  0  0  0  0  0  0  0  0  0  0
  1  8  1  0  0  0  0
  1  2  1  0  0  0  0
  2 22  1  0  0  0  0
  3  2  2  0  0  0  0
  3 11  1  0  0  0  0
  4  3  1  0  0  0  0
  5  6  1  0  0  0  0
  5  4  2  0  0  0  0
  6  1  2  0  0  0  0
  7  9  1  0  0  0  0
  7  5  1  0  0  0  0
 10  7  1  0  0  0  0
 11 12  1  0  0  0  0
 12 17  1  0  0  0  0
 12 13  2  0  0  0  0
 13 18  1  0  0  0  0
 14 13  1  0  0  0  0
 14 19  1  0  0  0  0
 15 14  2  0  0  0  0
 16 11  2  0  0  0  0
 16 15  1  0  0  0  0
 20 21  1  0  0  0  0
 20 15  1  0  0  0  0
 22 23  1  0  0  0  0
 24 22  1  0  0  0  0
 25 22  1  0  0  0  0
M  END
>  <minimizedAffinity>
-4.7118969

$$$$

 OpenBabel03272507593D

 25 26  0  0  0  0  0  0  0  0999 V2000
   38.0940   24.5200   36.2790 C   0  0  0  0  0  0  0  0  0  0  0  0
   38.1430   25.5650   35.3070 C   0  0  0  0  0  0  0  0  0  0  0  0
   38.0610   25.1950   33.9640 C   0  0  0  0  0  0  0  0  0  0  0  0
   37.9380   23.8640   33.6550 N   0  0  0  0  0  0  0  0  0  0  0  0
   37.8980   22.9130   34.6330 C   0  0  0  0  0  0  0  0  0  0  0  0
   37.9730   23.2270   35.9320 N   0  0  0  0  0  0  0  0  0  0  0  0
   37.7680   21.6070   34.0740 N   0  0  0  0  0  0  0  0  0  0  0  0
   38.1590   24.8200   37.3120 H   0  0  0  0  0  0  0  0  0  0  0  0
   36.8120   21.2100   34.0350 H   0  0  0  0  0  0  0  0  0  0  0  0
   38.4940   20.9860   33.6950 H   0  0  0  0  0  0  0  0  0  0  0  0
   38.1060   26.2160   32.9360 C   0  0  0  0  0  0  0  0  0  0  0  0
   39.3740   26.3290   32.3630 C   0  0  0  0  0  0  0  0  0  0  0  0
   39.5900   27.2640   31.3570 C   0  0  0  0  0  0  0  0  0  0  0  0
   38.5420   28.0730   30.9360 C   0  0  0  0  0  0  0  0  0  0  0  0
   37.3090   27.9300   31.5260 C   0  0  0  0  0  0  0  0  0  0  0  0
   37.1180   27.0250   32.4930 N   0  0  0  0  0  0  0  0  0  0  0  0
   40.2560   25.7680   32.5980 H   0  0  0  0  0  0  0  0  0  0  0  0
   40.5530   27.4050   30.8680 H   0  0  0  0  0  0  0  0  0  0  0  0
   38.7200   28.7950   30.1550 H   0  0  0  0  0  0  0  0  0  0  0  0
   36.1570   28.7740   31.1080 C   0  0  0  0  0  2  0  0  0  0  0  0
   35.3680   28.1980   30.6070 H   0  0  0  0  0  0  0  0  0  0  0  0
   38.2770   26.9700   35.7560 C   0  0  0  0  0  0  0  0  0  0  0  0
   37.2140   27.7470   35.3260 F   0  0  0  0  0  0  0  0  0  0  0  0
   38.2980   26.9830   37.1220 F   0  0  0  0  0  0  0  0  0  0  0  0
   39.4450   27.5640   35.3130 F   0  0  0  0  0  0  0  0  0  0  0  0
  1  8  1  0  0  0  0
  2 22  1  0  0  0  0
  2  1  2  0  0  0  0
  3  2  1  0  0  0  0
  4  3  2  0  0  0  0
  4  5  1  0  0  0  0
  5  6  2  0  0  0  0
  6  1  1  0  0  0  0
  7  5  1  0  0  0  0
  9  7  1  0  0  0  0
 10  7  1  0  0  0  0
 11  3  1  0  0  0  0
 12 17  1  0  0  0  0
 12 11  2  0  0  0  0
 13 12  1  0  0  0  0
 14 13  2  0  0  0  0
 14 15  1  0  0  0  0
 15 16  2  0  0  0  0
 16 11  1  0  0  0  0
 18 13  1  0  0  0  0
 19 14  1  0  0  0  0
 20 15  1  0  0  0  0
 21 20  1  0  0  0  0
 22 24  1  0  0  0  0
 23 22  1  0  0  0  0
 25 22  1  0  0  0  0
M  END
>  <minimizedAffinity>
-4.69575548

$$$$

 OpenBabel03272507593D

 25 26  0  0  0  0  0  0  0  0999 V2000
   37.2200   23.3640   32.2960 C   0  0  0  0  0  0  0  0  0  0  0  0
   37.9850   23.4830   33.4940 C   0  0  0  0  0  0  0  0  0  0  0  0
   37.8090   22.5000   34.4690 C   0  0  0  0  0  0  0  0  0  0  0  0
   36.9190   21.4840   34.2230 N   0  0  0  0  0  0  0  0  0  0  0  0
   36.2170   21.4280   33.0540 C   0  0  0  0  0  0  0  0  0  0  0  0
   36.3590   22.3500   32.0960 N   0  0  0  0  0  0  0  0  0  0  0  0
   35.3590   20.2880   33.0260 N   0  0  0  0  0  0  0  0  0  0  0  0
   37.3660   24.1300   31.5520 H   0  0  0  0  0  0  0  0  0  0  0  0
   35.7130   19.4510   32.5300 H   0  0  0  0  0  0  0  0  0  0  0  0
   34.4220   20.1690   33.4330 H   0  0  0  0  0  0  0  0  0  0  0  0
   38.5610   22.5730   35.7050 C   0  0  0  0  0  0  0  0  0  0  0  0
   37.8640   23.2540   36.7050 C   0  0  0  0  0  0  0  0  0  0  0  0
   38.4450   23.4140   37.9580 C   0  0  0  0  0  0  0  0  0  0  0  0
   39.7110   22.8950   38.1980 C   0  0  0  0  0  0  0  0  0  0  0  0
   40.3640   22.2310   37.1870 C   0  0  0  0  0  0  0  0  0  0  0  0
   39.7900   22.0860   35.9870 N   0  0  0  0  0  0  0  0  0  0  0  0
   36.8900   23.6970   36.6450 H   0  0  0  0  0  0  0  0  0  0  0  0
   37.9580   23.9340   38.7810 H   0  0  0  0  0  0  0  0  0  0  0  0
   40.1530   23.0240   39.1730 H   0  0  0  0  0  0  0  0  0  0  0  0
   41.7210   21.6580   37.3970 C   0  0  0  0  0  2  0  0  0  0  0  0
   41.7270   20.5610   37.3700 H   0  0  0  0  0  0  0  0  0  0  0  0
   38.9170   24.6240   33.6520 C   0  0  0  0  0  0  0  0  0  0  0  0
   38.6060   25.3880   34.7640 F   0  0  0  0  0  0  0  0  0  0  0  0
   40.1800   24.1260   33.8090 F   0  0  0  0  0  0  0  0  0  0  0  0
   38.9300   25.4610   32.5510 F   0  0  0  0  0  0  0  0  0  0  0  0
  1  2  1  0  0  0  0
  2 22  1  0  0  0  0
  2  3  2  0  0  0  0
  3 11  1  0  0  0  0
  4  3  1  0  0  0  0
  5  4  2  0  0  0  0
  6  1  2  0  0  0  0
  6  5  1  0  0  0  0
  7  5  1  0  0  0  0
  7 10  1  0  0  0  0
  8  1  1  0  0  0  0
  9  7  1  0  0  0  0
 11 16  2  0  0  0  0
 11 12  1  0  0  0  0
 12 13  2  0  0  0  0
 13 14  1  0  0  0  0
 13 18  1  0  0  0  0
 14 19  1  0  0  0  0
 15 20  1  0  0  0  0
 15 14  2  0  0  0  0
 16 15  1  0  0  0  0
 17 12  1  0  0  0  0
 21 20  1  0  0  0  0
 22 24  1  0  0  0  0
 22 23  1  0  0  0  0
 25 22  1  0  0  0  0
M  END
>  <minimizedAffinity>
-4.59987545

$$$$
