
 OpenBabel03272507573D

 25 26  0  0  0  0  0  0  0  0999 V2000
   35.2030   28.5790   50.0480 C   0  0  0  0  0  0  0  0  0  0  0  0
   36.2570   29.5220   49.8500 C   0  0  0  0  0  0  0  0  0  0  0  0
   36.1160   30.4300   48.8000 C   0  0  0  0  0  0  0  0  0  0  0  0
   34.9850   30.3680   48.0250 N   0  0  0  0  0  0  0  0  0  0  0  0
   34.0140   29.4410   48.2670 C   0  0  0  0  0  0  0  0  0  0  0  0
   34.1110   28.5540   49.2640 N   0  0  0  0  0  0  0  0  0  0  0  0
   32.9400   29.5690   47.3370 N   0  0  0  0  0  0  0  0  0  0  0  0
   35.3250   27.8840   50.8620 H   0  0  0  0  0  0  0  0  0  0  0  0
   32.1140   30.1090   47.6500 H   0  0  0  0  0  0  0  0  0  0  0  0
   32.8590   29.1980   46.3800 H   0  0  0  0  0  0  0  0  0  0  0  0
   37.1570   31.4080   48.5550 C   0  0  0  0  0  0  0  0  0  0  0  0
   37.1940   32.3950   49.5420 C   0  0  0  0  0  0  0  0  0  0  0  0
   38.1370   33.4130   49.4580 C   0  0  0  0  0  0  0  0  0  0  0  0
   39.0290   33.4350   48.3930 C   0  0  0  0  0  0  0  0  0  0  0  0
   38.9590   32.4450   47.4420 C   0  0  0  0  0  0  0  0  0  0  0  0
   38.0450   31.4730   47.5380 N   0  0  0  0  0  0  0  0  0  0  0  0
   36.5660   32.4870   50.4050 H   0  0  0  0  0  0  0  0  0  0  0  0
   38.2210   34.2130   50.1920 H   0  0  0  0  0  0  0  0  0  0  0  0
   39.7570   34.2290   48.3370 H   0  0  0  0  0  0  0  0  0  0  0  0
   39.8930   32.4280   46.2840 C   0  0  0  0  0  0  0  0  0  0  0  0
   40.5910   31.5820   46.3150 H   0  0  0  0  0  0  0  0  0  0  0  0
   37.4330   29.4970   50.7500 C   0  0  0  0  0  0  0  0  0  0  0  0
   38.5950   29.8490   50.0820 F   0  0  0  0  0  0  0  0  0  0  0  0
   37.2230   30.3980   51.7550 F   0  0  0  0  0  0  0  0  0  0  0  0
   37.6370   28.2590   51.3320 F   0  0  0  0  0  0  0  0  0  0  0  0
  1  8  1  0  0  0  0
  2  1  1  0  0  0  0
  2 22  1  0  0  0  0
  3  2  2  0  0  0  0
  4  5  2  0  0  0  0
  4  3  1  0  0  0  0
  5  6  1  0  0  0  0
  6  1  2  0  0  0  0
  7  9  1  0  0  0  0
  7  5  1  0  0  0  0
 10  7  1  0  0  0  0
 11  3  1  0  0  0  0
 11 12  1  0  0  0  0
 12 17  1  0  0  0  0
 13 12  2  0  0  0  0
 13 18  1  0  0  0  0
 14 13  1  0  0  0  0
 15 16  1  0  0  0  0
 15 14  2  0  0  0  0
 16 11  2  0  0  0  0
 19 14  1  0  0  0  0
 20 21  1  0  0  0  0
 20 15  1  0  0  0  0
 22 25  1  0  0  0  0
 22 24  1  0  0  0  0
 23 22  1  0  0  0  0
M  END
>  <minimizedAffinity>
-6.44436312

>  <minimizedRMSD>
0.16059792

$$$$
