
 OpenBabel03272505263D

 31 33  0  0  1  0  0  0  0  0999 V2000
   37.4000   31.1120   47.0770 N   0  0  0  0  0  0  0  0  0  0  0  0
   36.7850   30.7910   45.9060 C   0  0  0  0  0  0  0  0  0  0  0  0
   37.2350   31.2590   44.6820 C   0  0  0  0  0  0  0  0  0  0  0  0
   38.3660   32.0900   44.6870 C   0  0  0  0  0  0  0  0  0  0  0  0
   38.8010   32.5300   43.6030 O   0  0  0  0  0  0  0  0  0  0  0  0
   38.9830   32.4140   45.8590 N   0  0  0  0  0  0  0  0  0  0  0  0
   38.4530   31.9000   46.9770 C   0  0  0  0  0  0  0  0  0  0  0  0
   39.0490   32.2240   48.0290 O   0  0  0  0  0  0  0  0  0  0  0  0
   35.9110   30.1440   45.9370 H   0  0  0  0  0  0  0  0  0  0  0  0
   37.3390   29.5770   50.4580 C   0  0  0  0  0  0  0  0  0  0  0  0
   37.7990   30.0590   49.2250 C   0  0  0  0  0  0  0  0  0  0  0  0
   36.9360   30.6300   48.3030 C   0  0  0  0  0  0  0  0  0  0  0  0
   35.6120   30.7140   48.6220 N   0  0  0  0  0  0  0  0  0  0  0  0
   35.1570   30.2450   49.8250 C   0  0  0  0  0  0  0  0  0  0  0  0
   36.0040   29.6840   50.7320 N   0  0  0  0  0  0  0  0  0  0  0  0
   37.9380   29.1280   51.2160 H   0  0  0  0  0  0  0  0  0  0  0  0
   38.8570   29.9010   49.1410 H   0  0  0  0  0  0  0  0  0  0  0  0
   34.1040   30.3690   49.9510 H   0  0  0  0  0  0  0  0  0  0  0  0
   35.8060   32.0740   42.9140 C   0  0  2  0  0  3  0  0  0  0  0  0
   36.5260   30.8720   43.4780 C   0  0  2  0  0  3  0  0  0  0  0  0
   35.4190   29.8860   43.6550 C   0  0  0  0  0  3  0  0  0  0  0  0
   35.5730   29.1330   44.4300 H   0  0  0  0  0  0  0  0  0  0  0  0
   34.2380   30.6000   43.7960 O   0  0  0  0  0  0  0  0  0  0  0  0
   34.3610   31.6850   42.9680 C   0  0  0  0  0  3  0  0  0  0  0  0
   33.9730   31.4730   41.9290 H   0  0  0  0  0  0  0  0  0  0  0  0
   36.2330   32.2950   41.5890 O   0  0  0  0  0  0  0  0  0  0  0  0
   37.1950   32.5020   41.6100 H   0  0  0  0  0  0  0  0  0  0  0  0
   40.1460   33.2710   45.8590 C   0  0  0  0  0  0  0  0  0  0  0  0
   39.9950   34.2470   44.9000 F   0  0  0  0  0  0  0  0  0  0  0  0
   41.3150   32.6090   45.5870 F   0  0  0  0  0  0  0  0  0  0  0  0
   40.2170   33.9210   47.0910 F   0  0  0  0  0  0  0  0  0  0  0  0
  1 12  1  0  0  0  0
  2  9  1  0  0  0  0
  2  1  1  0  0  0  0
  3  4  1  0  0  0  0
  3  2  2  0  0  0  0
  4  6  1  0  0  0  0
  5  4  2  0  0  0  0
  6  7  1  0  0  0  0
  7  1  1  0  0  0  0
  7  8  2  0  0  0  0
 10 15  1  0  0  0  0
 10 16  1  0  0  0  0
 11 10  2  0  0  0  0
 12 13  2  0  0  0  0
 12 11  1  0  0  0  0
 13 14  1  0  0  0  0
 14 18  1  0  0  0  0
 14 15  2  0  0  0  0
 17 11  1  0  0  0  0
 19 26  1  6  0  0  0
 19 24  1  0  0  0  0
 19 20  1  0  0  0  0
 20 21  1  0  0  0  0
 20  3  1  1  0  0  0
 21 23  1  0  0  0  0
 21 22  1  0  0  0  0
 24 23  1  0  0  0  0
 25 24  1  0  0  0  0
 26 27  1  0  0  0  0
 28  6  1  0  0  0  0
 28 31  1  0  0  0  0
 29 28  1  0  0  0  0
 30 28  1  0  0  0  0
M  END
>  <minimizedAffinity>
-6.250175

>  <minimizedRMSD>
0.95126307

$$$$
