
 OpenBabel03272504333D

 40 43  0  0  1  0  0  0  0  0999 V2000
   35.0630   29.6090   47.5730 C   0  0  0  0  0  0  0  0  0  0  0  0
   35.2200   30.0350   46.2540 C   0  0  0  0  0  0  0  0  0  0  0  0
   34.1810   29.8710   45.3560 C   0  0  0  0  0  0  0  0  0  0  0  0
   33.0270   29.2870   45.8090 N   0  0  0  0  0  0  0  0  0  0  0  0
   32.9090   28.8850   47.0940 C   0  0  0  0  0  0  0  0  0  0  0  0
   33.9230   29.0450   47.9740 N   0  0  0  0  0  0  0  0  0  0  0  0
   36.1520   30.4860   45.9630 H   0  0  0  0  0  0  0  0  0  0  0  0
   34.2840   30.1910   44.3440 H   0  0  0  0  0  0  0  0  0  0  0  0
   36.1050   29.7530   48.5460 N   0  0  0  0  0  0  0  0  0  0  0  0
   36.1860   28.8910   49.7130 C   0  0  0  0  0  0  0  0  0  0  0  0
   36.4960   29.5980   50.9900 C   0  0  0  0  0  0  0  0  0  0  0  0
   37.2250   30.8030   50.9290 N   0  0  0  0  0  0  0  0  0  0  0  0
   36.9370   31.6000   49.7450 C   0  0  0  0  0  0  0  0  0  0  0  0
   37.1610   30.6890   48.5520 C   0  0  0  0  0  0  0  0  0  0  0  0
   35.2120   28.3440   49.8130 H   0  0  0  0  0  0  0  0  0  0  0  0
   36.9240   28.0960   49.4870 H   0  0  0  0  0  0  0  0  0  0  0  0
   35.5290   29.7500   51.5460 H   0  0  0  0  0  0  0  0  0  0  0  0
   37.0710   28.8670   51.6330 H   0  0  0  0  0  0  0  0  0  0  0  0
   36.9350   31.4060   51.7570 H   0  0  0  0  0  0  0  0  0  0  0  0
   37.7480   32.3750   49.6810 H   0  0  0  0  0  0  0  0  0  0  0  0
   35.9610   32.0830   49.7490 H   0  0  0  0  0  0  0  0  0  0  0  0
   37.2120   31.2770   47.5990 H   0  0  0  0  0  0  0  0  0  0  0  0
   38.1330   30.1970   48.6930 H   0  0  0  0  0  0  0  0  0  0  0  0
   31.6670   28.2690   47.5380 C   0  0  0  0  0  0  0  0  0  0  0  0
   31.6780   27.0650   48.2100 C   0  0  0  0  0  0  0  0  0  0  0  0
   30.5280   26.4300   48.6560 C   0  0  0  0  0  0  0  0  0  0  0  0
   29.3630   27.0810   48.3840 N   0  0  0  0  0  0  0  0  0  0  0  0
   29.3650   28.2450   47.7320 C   0  0  0  0  0  0  0  0  0  0  0  0
   30.4930   28.8710   47.2940 N   0  0  0  0  0  0  0  0  0  0  0  0
   32.6450   26.6270   48.3790 H   0  0  0  0  0  0  0  0  0  0  0  0
   30.6560   25.4890   49.1720 H   0  0  0  0  0  0  0  0  0  0  0  0
   27.4750   29.2660   48.8900 C   0  0  1  0  0  3  0  0  0  0  0  0
   28.0060   28.8110   47.5240 C   0  0  2  0  0  3  0  0  0  0  0  0
   26.9960   27.7390   47.2010 C   0  0  0  0  0  3  0  0  0  0  0  0
   27.4500   27.0250   46.4810 H   0  0  0  0  0  0  0  0  0  0  0  0
   26.6720   27.1340   48.4030 O   0  0  0  0  0  0  0  0  0  0  0  0
   26.9220   27.9980   49.4390 C   0  0  0  0  0  3  0  0  0  0  0  0
   27.6350   27.5320   50.1640 H   0  0  0  0  0  0  0  0  0  0  0  0
   28.4980   29.8110   49.6520 O   0  0  0  0  0  0  0  0  0  0  0  0
   28.7080   30.7050   49.2930 H   0  0  0  0  0  0  0  0  0  0  0  0
  1  6  1  0  0  0  0
  1  9  1  0  0  0  0
  2  1  2  0  0  0  0
  3  4  2  0  0  0  0
  3  2  1  0  0  0  0
  4  5  1  0  0  0  0
  5 24  1  0  0  0  0
  5  6  2  0  0  0  0
  7  2  1  0  0  0  0
  8  3  1  0  0  0  0
  9 14  1  0  0  0  0
  9 10  1  0  0  0  0
 10 15  1  0  0  0  0
 10 11  1  0  0  0  0
 11 17  1  0  0  0  0
 11 18  1  0  0  0  0
 12 11  1  0  0  0  0
 12 19  1  0  0  0  0
 13 21  1  0  0  0  0
 13 12  1  0  0  0  0
 14 23  1  0  0  0  0
 14 13  1  0  0  0  0
 16 10  1  0  0  0  0
 20 13  1  0  0  0  0
 22 14  1  0  0  0  0
 24 25  1  0  0  0  0
 25 30  1  0  0  0  0
 25 26  2  0  0  0  0
 26 31  1  0  0  0  0
 27 26  1  0  0  0  0
 28 27  2  0  0  0  0
 29 24  2  0  0  0  0
 29 28  1  0  0  0  0
 32 37  1  0  0  0  0
 32 39  1  1  0  0  0
 33 28  1  1  0  0  0
 33 32  1  0  0  0  0
 34 33  1  0  0  0  0
 34 36  1  0  0  0  0
 35 34  1  0  0  0  0
 36 37  1  0  0  0  0
 37 38  1  0  0  0  0
 40 39  1  0  0  0  0
M  END
>  <minimizedAffinity>
-5.9227953

>  <minimizedRMSD>
0.914961278

$$$$
