
 OpenBabel03262521003D

 35 37  0  0  1  0  0  0  0  0999 V2000
   36.5370   24.8210   31.6540 S   0  0  0  0  0  0  0  0  0  0  0  0
   38.1520   26.9430   32.1490 N   0  0  0  0  0  0  0  0  0  0  0  0
   36.7900   26.5040   32.3090 C   0  0  1  0  0  0  0  0  0  0  0  0
   35.8560   27.4010   31.5700 C   0  0  0  0  0  0  0  0  0  0  0  0
   36.2260   27.3350   30.1550 N   0  0  0  0  0  0  0  0  0  0  0  0
   37.5280   28.0320   30.0830 C   0  0  0  0  0  0  0  0  0  0  0  0
   38.5180   27.1220   30.7780 C   0  0  2  0  0  0  0  0  0  0  0  0
   38.2610   27.8270   32.6580 H   0  0  0  0  0  0  0  0  0  0  0  0
   36.5460   26.5230   33.3870 H   0  0  0  0  0  0  0  0  0  0  0  0
   34.8020   27.1870   31.7580 H   0  0  0  0  0  0  0  0  0  0  0  0
   36.1050   28.4520   31.8850 H   0  0  0  0  0  0  0  0  0  0  0  0
   35.4950   27.8680   29.6090 H   0  0  0  0  0  0  0  0  0  0  0  0
   37.7480   28.0580   28.9830 H   0  0  0  0  0  0  0  0  0  0  0  0
   37.4800   29.0250   30.5340 H   0  0  0  0  0  0  0  0  0  0  0  0
   39.5060   27.6340   30.7320 H   0  0  0  0  0  0  0  0  0  0  0  0
   38.6220   25.8880   30.0400 N   0  0  0  0  0  0  0  0  0  0  0  0
   37.7180   25.6730   29.5590 H   0  0  0  0  0  0  0  0  0  0  0  0
   39.3980   25.8660   29.3480 H   0  0  0  0  0  0  0  0  0  0  0  0
   38.4300   21.5500   33.1280 C   0  0  0  0  0  0  0  0  0  0  0  0
   37.7210   22.3560   32.2520 C   0  0  0  0  0  0  0  0  0  0  0  0
   37.4370   23.6390   32.6420 C   0  0  0  0  0  0  0  0  0  0  0  0
   37.8660   24.0790   33.8870 N   0  0  0  0  0  0  0  0  0  0  0  0
   38.5470   23.2470   34.6830 C   0  0  0  0  0  0  0  0  0  0  0  0
   38.8330   21.9780   34.3090 N   0  0  0  0  0  0  0  0  0  0  0  0
   38.6240   20.5480   32.7640 H   0  0  0  0  0  0  0  0  0  0  0  0
   37.3660   22.0570   31.2720 H   0  0  0  0  0  0  0  0  0  0  0  0
   37.9630   23.5070   37.0800 C   0  0  2  0  0  3  0  0  0  0  0  0
   38.9820   23.7760   36.0100 C   0  0  1  0  0  3  0  0  0  0  0  0
   40.1830   23.0280   36.5370 C   0  0  0  0  0  3  0  0  0  0  0  0
   41.0590   23.7240   36.5640 H   0  0  0  0  0  0  0  0  0  0  0  0
   39.8970   22.6000   37.8180 O   0  0  0  0  0  0  0  0  0  0  0  0
   38.8350   23.3480   38.3020 C   0  0  0  0  0  3  0  0  0  0  0  0
   39.1280   24.3180   38.7320 H   0  0  0  0  0  0  0  0  0  0  0  0
   37.2550   22.3460   36.8330 O   0  0  0  0  0  0  0  0  0  0  0  0
   37.6290   21.6340   37.3970 H   0  0  0  0  0  0  0  0  0  0  0  0
  1  3  1  0  0  0  0
  1 21  1  0  0  0  0
  2  3  1  0  0  0  0
  2  8  1  0  0  0  0
  3  9  1  1  0  0  0
  4 10  1  0  0  0  0
  4 11  1  0  0  0  0
  4  3  1  0  0  0  0
  5  4  1  0  0  0  0
  6  5  1  0  0  0  0
  6 14  1  0  0  0  0
  6  7  1  0  0  0  0
  7 15  1  6  0  0  0
  7  2  1  0  0  0  0
 12  5  1  0  0  0  0
 13  6  1  0  0  0  0
 16  7  1  0  0  0  0
 17 16  1  0  0  0  0
 18 16  1  0  0  0  0
 19 24  1  0  0  0  0
 20 21  1  0  0  0  0
 20 19  2  0  0  0  0
 21 22  2  0  0  0  0
 22 23  1  0  0  0  0
 24 23  2  0  0  0  0
 25 19  1  0  0  0  0
 26 20  1  0  0  0  0
 27 34  1  6  0  0  0
 27 32  1  0  0  0  0
 28 23  1  6  0  0  0
 28 29  1  0  0  0  0
 28 27  1  0  0  0  0
 29 30  1  0  0  0  0
 29 31  1  0  0  0  0
 31 32  1  0  0  0  0
 32 33  1  0  0  0  0
 34 35  1  0  0  0  0
M  END
>  <minimizedAffinity>
-5.20301819

$$$$

 OpenBabel03262521003D

 35 37  0  0  1  0  0  0  0  0999 V2000
   38.7740   22.2470   34.6160 S   0  0  0  0  0  0  0  0  0  0  0  0
   38.7380   24.3930   36.2750 N   0  0  0  0  0  0  0  0  0  0  0  0
   39.6410   23.5930   35.4890 C   0  0  1  0  0  0  0  0  0  0  0  0
   40.6710   22.9530   36.3570 C   0  0  0  0  0  0  0  0  0  0  0  0
   39.9590   22.0940   37.3060 N   0  0  0  0  0  0  0  0  0  0  0  0
   39.2650   23.0380   38.2060 C   0  0  0  0  0  0  0  0  0  0  0  0
   38.1720   23.6710   37.3720 C   0  0  2  0  0  0  0  0  0  0  0  0
   39.2570   25.2060   36.6220 H   0  0  0  0  0  0  0  0  0  0  0  0
   40.1360   24.2540   34.7540 H   0  0  0  0  0  0  0  0  0  0  0  0
   41.4550   22.4360   35.7990 H   0  0  0  0  0  0  0  0  0  0  0  0
   41.1150   23.7730   36.9860 H   0  0  0  0  0  0  0  0  0  0  0  0
   40.6840   21.5420   37.8410 H   0  0  0  0  0  0  0  0  0  0  0  0
   38.8080   22.3690   38.9820 H   0  0  0  0  0  0  0  0  0  0  0  0
   39.9530   23.7750   38.6280 H   0  0  0  0  0  0  0  0  0  0  0  0
   37.6380   24.3870   38.0380 H   0  0  0  0  0  0  0  0  0  0  0  0
   37.2340   22.6510   36.9730 N   0  0  0  0  0  0  0  0  0  0  0  0
   37.7170   21.7280   36.8800 H   0  0  0  0  0  0  0  0  0  0  0  0
   36.4140   22.5520   37.6040 H   0  0  0  0  0  0  0  0  0  0  0  0
   35.9640   22.8580   31.7550 C   0  0  0  0  0  0  0  0  0  0  0  0
   36.7620   22.1920   32.6700 C   0  0  0  0  0  0  0  0  0  0  0  0
   37.6640   22.9260   33.3950 C   0  0  0  0  0  0  0  0  0  0  0  0
   37.7440   24.2970   33.1870 N   0  0  0  0  0  0  0  0  0  0  0  0
   36.9430   24.8760   32.2860 C   0  0  0  0  0  0  0  0  0  0  0  0
   36.0480   24.1610   31.5640 N   0  0  0  0  0  0  0  0  0  0  0  0
   35.2710   22.2240   31.2130 H   0  0  0  0  0  0  0  0  0  0  0  0
   36.7360   21.1260   32.8670 H   0  0  0  0  0  0  0  0  0  0  0  0
   38.1680   26.7020   31.1380 C   0  0  2  0  0  3  0  0  0  0  0  0
   37.0740   26.3530   32.1060 C   0  0  1  0  0  3  0  0  0  0  0  0
   35.8610   26.9370   31.4210 C   0  0  0  0  0  3  0  0  0  0  0  0
   35.3260   27.6040   32.1410 H   0  0  0  0  0  0  0  0  0  0  0  0
   36.2930   27.6800   30.3400 O   0  0  0  0  0  0  0  0  0  0  0  0
   37.6360   27.9720   30.5180 C   0  0  0  0  0  3  0  0  0  0  0  0
   37.8230   28.8530   31.1510 H   0  0  0  0  0  0  0  0  0  0  0  0
   38.3330   25.7230   30.1760 O   0  0  0  0  0  0  0  0  0  0  0  0
   37.8870   26.0240   29.3540 H   0  0  0  0  0  0  0  0  0  0  0  0
  1  3  1  0  0  0  0
  2  8  1  0  0  0  0
  2  7  1  0  0  0  0
  3  9  1  6  0  0  0
  3  2  1  0  0  0  0
  3  4  1  0  0  0  0
  4 11  1  0  0  0  0
  4  5  1  0  0  0  0
  5 12  1  0  0  0  0
  5  6  1  0  0  0  0
  6 14  1  0  0  0  0
  6 13  1  0  0  0  0
  7 15  1  1  0  0  0
  7  6  1  0  0  0  0
 10  4  1  0  0  0  0
 16  7  1  0  0  0  0
 16 18  1  0  0  0  0
 17 16  1  0  0  0  0
 19 20  1  0  0  0  0
 20 26  1  0  0  0  0
 20 21  2  0  0  0  0
 21  1  1  0  0  0  0
 22 21  1  0  0  0  0
 23 22  2  0  0  0  0
 24 19  2  0  0  0  0
 24 23  1  0  0  0  0
 25 19  1  0  0  0  0
 27 34  1  6  0  0  0
 27 28  1  0  0  0  0
 28 23  1  6  0  0  0
 29 28  1  0  0  0  0
 29 30  1  0  0  0  0
 31 32  1  0  0  0  0
 31 29  1  0  0  0  0
 32 27  1  0  0  0  0
 32 33  1  0  0  0  0
 35 34  1  0  0  0  0
M  END
>  <minimizedAffinity>
-5.17729092

$$$$

 OpenBabel03262521003D

 35 37  0  0  1  0  0  0  0  0999 V2000
   38.5360   22.1310   35.1960 S   0  0  0  0  0  0  0  0  0  0  0  0
   38.2430   24.4010   36.6510 N   0  0  0  0  0  0  0  0  0  0  0  0
   39.2320   23.6540   35.9190 C   0  0  1  0  0  0  0  0  0  0  0  0
   40.3490   23.2370   36.8140 C   0  0  0  0  0  0  0  0  0  0  0  0
   39.7690   22.3860   37.8560 N   0  0  0  0  0  0  0  0  0  0  0  0
   38.9700   23.3140   38.6840 C   0  0  0  0  0  0  0  0  0  0  0  0
   37.7920   23.7190   37.8250 C   0  0  2  0  0  0  0  0  0  0  0  0
   38.6560   25.3040   36.9090 H   0  0  0  0  0  0  0  0  0  0  0  0
   39.6260   24.3010   35.1130 H   0  0  0  0  0  0  0  0  0  0  0  0
   41.1850   22.7750   36.2860 H   0  0  0  0  0  0  0  0  0  0  0  0
   40.6900   24.1630   37.3540 H   0  0  0  0  0  0  0  0  0  0  0  0
   40.5680   21.9860   38.4210 H   0  0  0  0  0  0  0  0  0  0  0  0
   38.6150   22.6670   39.5300 H   0  0  0  0  0  0  0  0  0  0  0  0
   39.5610   24.1700   39.0190 H   0  0  0  0  0  0  0  0  0  0  0  0
   37.1790   24.4200   38.4360 H   0  0  0  0  0  0  0  0  0  0  0  0
   36.9900   22.5540   37.5460 N   0  0  0  0  0  0  0  0  0  0  0  0
   37.5880   21.6960   37.5240 H   0  0  0  0  0  0  0  0  0  0  0  0
   36.1990   22.4100   38.2050 H   0  0  0  0  0  0  0  0  0  0  0  0
   37.0910   23.8710   31.8290 C   0  0  0  0  0  0  0  0  0  0  0  0
   37.7120   23.7420   33.0600 C   0  0  0  0  0  0  0  0  0  0  0  0
   37.7790   22.4940   33.6210 C   0  0  0  0  0  0  0  0  0  0  0  0
   37.2270   21.4150   32.9420 N   0  0  0  0  0  0  0  0  0  0  0  0
   36.6420   21.6120   31.7550 C   0  0  0  0  0  0  0  0  0  0  0  0
   36.5700   22.8400   31.1910 N   0  0  0  0  0  0  0  0  0  0  0  0
   37.0700   24.8820   31.4360 H   0  0  0  0  0  0  0  0  0  0  0  0
   38.1560   24.5530   33.6260 H   0  0  0  0  0  0  0  0  0  0  0  0
   36.9940   19.8730   30.0210 C   0  0  2  0  0  3  0  0  0  0  0  0
   36.0660   20.4150   31.0710 C   0  0  1  0  0  3  0  0  0  0  0  0
   35.9500   19.2410   32.0130 C   0  0  0  0  0  3  0  0  0  0  0  0
   34.8670   19.0140   32.1750 H   0  0  0  0  0  0  0  0  0  0  0  0
   36.5650   18.1540   31.4250 O   0  0  0  0  0  0  0  0  0  0  0  0
   36.6770   18.3970   30.0650 C   0  0  0  0  0  3  0  0  0  0  0  0
   35.7720   18.1500   29.4900 H   0  0  0  0  0  0  0  0  0  0  0  0
   38.3190   20.0960   30.3430 O   0  0  0  0  0  0  0  0  0  0  0  0
   38.6890   19.2620   30.7080 H   0  0  0  0  0  0  0  0  0  0  0  0
  1  3  1  0  0  0  0
  2  8  1  0  0  0  0
  2  7  1  0  0  0  0
  3  9  1  6  0  0  0
  3  2  1  0  0  0  0
  3  4  1  0  0  0  0
  4 11  1  0  0  0  0
  4  5  1  0  0  0  0
  5 12  1  0  0  0  0
  5  6  1  0  0  0  0
  6 14  1  0  0  0  0
  6 13  1  0  0  0  0
  7 15  1  1  0  0  0
  7  6  1  0  0  0  0
 10  4  1  0  0  0  0
 16  7  1  0  0  0  0
 16 18  1  0  0  0  0
 17 16  1  0  0  0  0
 19 20  1  0  0  0  0
 20 21  2  0  0  0  0
 20 26  1  0  0  0  0
 21  1  1  0  0  0  0
 22 21  1  0  0  0  0
 23 22  2  0  0  0  0
 24 23  1  0  0  0  0
 24 19  2  0  0  0  0
 25 19  1  0  0  0  0
 27 32  1  0  0  0  0
 27 34  1  1  0  0  0
 27 28  1  0  0  0  0
 28 23  1  1  0  0  0
 28 29  1  0  0  0  0
 29 30  1  0  0  0  0
 31 29  1  0  0  0  0
 32 31  1  0  0  0  0
 33 32  1  0  0  0  0
 34 35  1  0  0  0  0
M  END
>  <minimizedAffinity>
-4.95366335

$$$$

 OpenBabel03262521003D

 35 37  0  0  1  0  0  0  0  0999 V2000
   35.6210   22.1450   31.6090 S   0  0  0  0  0  0  0  0  0  0  0  0
   35.7230   20.3680   33.6550 N   0  0  0  0  0  0  0  0  0  0  0  0
   36.5340   21.3370   32.9650 C   0  0  1  0  0  0  0  0  0  0  0  0
   37.7300   20.6880   32.3540 C   0  0  0  0  0  0  0  0  0  0  0  0
   37.2370   19.6950   31.3970 N   0  0  0  0  0  0  0  0  0  0  0  0
   36.6430   18.6360   32.2400 C   0  0  0  0  0  0  0  0  0  0  0  0
   35.3900   19.2430   32.8360 C   0  0  2  0  0  0  0  0  0  0  0  0
   36.2410   20.0560   34.4840 H   0  0  0  0  0  0  0  0  0  0  0  0
   36.8600   22.0980   33.6970 H   0  0  0  0  0  0  0  0  0  0  0  0
   38.4420   21.3950   31.9260 H   0  0  0  0  0  0  0  0  0  0  0  0
   38.2180   20.0860   33.1700 H   0  0  0  0  0  0  0  0  0  0  0  0
   38.0730   19.3180   30.8720 H   0  0  0  0  0  0  0  0  0  0  0  0
   36.3600   17.8420   31.4990 H   0  0  0  0  0  0  0  0  0  0  0  0
   37.3430   18.2830   33.0010 H   0  0  0  0  0  0  0  0  0  0  0  0
   34.9290   18.4550   33.4760 H   0  0  0  0  0  0  0  0  0  0  0  0
   34.4650   19.5520   31.7740 N   0  0  0  0  0  0  0  0  0  0  0  0
   34.9830   19.7800   30.8950 H   0  0  0  0  0  0  0  0  0  0  0  0
   33.7670   18.8050   31.5840 H   0  0  0  0  0  0  0  0  0  0  0  0
   35.4830   26.1700   31.1200 C   0  0  0  0  0  0  0  0  0  0  0  0
   35.1290   24.8360   31.0090 C   0  0  0  0  0  0  0  0  0  0  0  0
   35.9160   23.9050   31.6380 C   0  0  0  0  0  0  0  0  0  0  0  0
   37.0270   24.3300   32.3550 N   0  0  0  0  0  0  0  0  0  0  0  0
   37.3100   25.6360   32.4200 C   0  0  0  0  0  0  0  0  0  0  0  0
   36.5410   26.5640   31.8030 N   0  0  0  0  0  0  0  0  0  0  0  0
   34.8240   26.8570   30.6020 H   0  0  0  0  0  0  0  0  0  0  0  0
   34.2740   24.4570   30.4620 H   0  0  0  0  0  0  0  0  0  0  0  0
   38.1600   26.9190   34.3660 C   0  0  2  0  0  3  0  0  0  0  0  0
   38.5170   26.0340   33.2050 C   0  0  1  0  0  3  0  0  0  0  0  0
   39.1390   24.8490   33.9030 C   0  0  0  0  0  3  0  0  0  0  0  0
   40.1460   24.6540   33.4560 H   0  0  0  0  0  0  0  0  0  0  0  0
   39.2850   25.1630   35.2400 O   0  0  0  0  0  0  0  0  0  0  0  0
   39.2180   26.5400   35.3750 C   0  0  0  0  0  3  0  0  0  0  0  0
   40.1720   27.0560   35.1890 H   0  0  0  0  0  0  0  0  0  0  0  0
   36.8990   26.6380   34.8550 O   0  0  0  0  0  0  0  0  0  0  0  0
   36.9990   26.0870   35.6620 H   0  0  0  0  0  0  0  0  0  0  0  0
  1 21  1  0  0  0  0
  1  3  1  0  0  0  0
  2  8  1  0  0  0  0
  3  2  1  0  0  0  0
  3  9  1  1  0  0  0
  4  3  1  0  0  0  0
  4 11  1  0  0  0  0
  5  6  1  0  0  0  0
  5  4  1  0  0  0  0
  6  7  1  0  0  0  0
  6 14  1  0  0  0  0
  7 15  1  1  0  0  0
  7  2  1  0  0  0  0
 10  4  1  0  0  0  0
 12  5  1  0  0  0  0
 13  6  1  0  0  0  0
 16  7  1  0  0  0  0
 17 16  1  0  0  0  0
 18 16  1  0  0  0  0
 19 24  1  0  0  0  0
 20 19  2  0  0  0  0
 20 21  1  0  0  0  0
 21 22  2  0  0  0  0
 22 23  1  0  0  0  0
 24 23  2  0  0  0  0
 25 19  1  0  0  0  0
 26 20  1  0  0  0  0
 27 34  1  1  0  0  0
 27 32  1  0  0  0  0
 28 23  1  1  0  0  0
 28 29  1  0  0  0  0
 28 27  1  0  0  0  0
 29 31  1  0  0  0  0
 30 29  1  0  0  0  0
 31 32  1  0  0  0  0
 33 32  1  0  0  0  0
 34 35  1  0  0  0  0
M  END
>  <minimizedAffinity>
-4.78926039

$$$$

 OpenBabel03262521003D

 35 37  0  0  1  0  0  0  0  0999 V2000
   34.2480   30.5250   32.4900 S   0  0  0  0  0  0  0  0  0  0  0  0
   32.9330   30.3030   34.8510 N   0  0  0  0  0  0  0  0  0  0  0  0
   33.3340   29.5240   33.7090 C   0  0  1  0  0  0  0  0  0  0  0  0
   32.1420   28.9670   33.0050 C   0  0  0  0  0  0  0  0  0  0  0  0
   31.3350   30.1060   32.5610 N   0  0  0  0  0  0  0  0  0  0  0  0
   30.7840   30.6740   33.8080 C   0  0  0  0  0  0  0  0  0  0  0  0
   31.9600   31.3000   34.5280 C   0  0  2  0  0  0  0  0  0  0  0  0
   32.5530   29.6600   35.5550 H   0  0  0  0  0  0  0  0  0  0  0  0
   33.9740   28.6950   34.0630 H   0  0  0  0  0  0  0  0  0  0  0  0
   32.3920   28.2670   32.2050 H   0  0  0  0  0  0  0  0  0  0  0  0
   31.5160   28.4580   33.7900 H   0  0  0  0  0  0  0  0  0  0  0  0
   30.5570   29.7260   31.9560 H   0  0  0  0  0  0  0  0  0  0  0  0
   30.0930   31.4800   33.4440 H   0  0  0  0  0  0  0  0  0  0  0  0
   30.2780   29.9160   34.4100 H   0  0  0  0  0  0  0  0  0  0  0  0
   31.5600   31.7340   35.4720 H   0  0  0  0  0  0  0  0  0  0  0  0
   32.4810   32.3800   33.7270 N   0  0  0  0  0  0  0  0  0  0  0  0
   32.3250   32.1890   32.7110 H   0  0  0  0  0  0  0  0  0  0  0  0
   32.0980   33.3160   33.9680 H   0  0  0  0  0  0  0  0  0  0  0  0
   37.0190   29.0130   29.9430 C   0  0  0  0  0  0  0  0  0  0  0  0
   36.1860   29.9320   30.5590 C   0  0  0  0  0  0  0  0  0  0  0  0
   35.3830   29.4930   31.5800 C   0  0  0  0  0  0  0  0  0  0  0  0
   35.4350   28.1570   31.9550 N   0  0  0  0  0  0  0  0  0  0  0  0
   36.2640   27.3230   31.3170 C   0  0  0  0  0  0  0  0  0  0  0  0
   37.0600   27.7450   30.3070 N   0  0  0  0  0  0  0  0  0  0  0  0
   37.6280   29.4190   29.1430 H   0  0  0  0  0  0  0  0  0  0  0  0
   36.1110   30.9820   30.3010 H   0  0  0  0  0  0  0  0  0  0  0  0
   35.1150   25.1270   31.2050 C   0  0  2  0  0  3  0  0  0  0  0  0
   36.2760   25.8980   31.7640 C   0  0  1  0  0  3  0  0  0  0  0  0
   37.4500   25.1460   31.1850 C   0  0  0  0  0  3  0  0  0  0  0  0
   38.1430   24.8620   32.0150 H   0  0  0  0  0  0  0  0  0  0  0  0
   36.9720   24.0040   30.5750 O   0  0  0  0  0  0  0  0  0  0  0  0
   35.7030   23.7430   31.0670 C   0  0  0  0  0  3  0  0  0  0  0  0
   35.6960   23.1930   32.0200 H   0  0  0  0  0  0  0  0  0  0  0  0
   34.7220   25.6140   29.9730 O   0  0  0  0  0  0  0  0  0  0  0  0
   35.0920   25.0250   29.2790 H   0  0  0  0  0  0  0  0  0  0  0  0
  1  3  1  0  0  0  0
  2  8  1  0  0  0  0
  3  9  1  1  0  0  0
  3  2  1  0  0  0  0
  4  3  1  0  0  0  0
  4 11  1  0  0  0  0
  5  4  1  0  0  0  0
  5  6  1  0  0  0  0
  6 14  1  0  0  0  0
  6  7  1  0  0  0  0
  7  2  1  0  0  0  0
  7 15  1  1  0  0  0
 10  4  1  0  0  0  0
 12  5  1  0  0  0  0
 13  6  1  0  0  0  0
 16 18  1  0  0  0  0
 16  7  1  0  0  0  0
 17 16  1  0  0  0  0
 19 24  2  0  0  0  0
 19 20  1  0  0  0  0
 20 21  2  0  0  0  0
 21 22  1  0  0  0  0
 21  1  1  0  0  0  0
 23 22  2  0  0  0  0
 24 23  1  0  0  0  0
 25 19  1  0  0  0  0
 26 20  1  0  0  0  0
 27 34  1  6  0  0  0
 27 28  1  0  0  0  0
 28 23  1  6  0  0  0
 29 28  1  0  0  0  0
 29 30  1  0  0  0  0
 31 32  1  0  0  0  0
 31 29  1  0  0  0  0
 32 27  1  0  0  0  0
 32 33  1  0  0  0  0
 35 34  1  0  0  0  0
M  END
>  <minimizedAffinity>
-4.72050428

$$$$

 OpenBabel03262521003D

 35 37  0  0  1  0  0  0  0  0999 V2000
   37.1640   22.3300   31.5230 S   0  0  0  0  0  0  0  0  0  0  0  0
   36.0010   20.0680   30.5810 N   0  0  0  0  0  0  0  0  0  0  0  0
   35.6720   21.3670   31.1070 C   0  0  1  0  0  0  0  0  0  0  0  0
   34.8740   21.2430   32.3610 C   0  0  0  0  0  0  0  0  0  0  0  0
   35.7040   20.5220   33.3280 N   0  0  0  0  0  0  0  0  0  0  0  0
   35.7650   19.1420   32.8020 C   0  0  0  0  0  0  0  0  0  0  0  0
   36.6170   19.2180   31.5530 C   0  0  2  0  0  0  0  0  0  0  0  0
   35.1350   19.6370   30.2390 H   0  0  0  0  0  0  0  0  0  0  0  0
   35.0820   21.9090   30.3450 H   0  0  0  0  0  0  0  0  0  0  0  0
   34.4930   22.1960   32.7340 H   0  0  0  0  0  0  0  0  0  0  0  0
   34.0230   20.5440   32.1310 H   0  0  0  0  0  0  0  0  0  0  0  0
   35.1980   20.5380   34.2560 H   0  0  0  0  0  0  0  0  0  0  0  0
   36.3190   18.5830   33.6020 H   0  0  0  0  0  0  0  0  0  0  0  0
   34.7690   18.7380   32.6080 H   0  0  0  0  0  0  0  0  0  0  0  0
   36.6730   18.1830   31.1430 H   0  0  0  0  0  0  0  0  0  0  0  0
   37.9510   19.6250   31.9170 N   0  0  0  0  0  0  0  0  0  0  0  0
   37.9270   20.2360   32.7650 H   0  0  0  0  0  0  0  0  0  0  0  0
   38.6120   18.8380   32.0730 H   0  0  0  0  0  0  0  0  0  0  0  0
   35.4880   26.0120   31.2330 C   0  0  0  0  0  0  0  0  0  0  0  0
   35.6760   24.6530   31.0460 C   0  0  0  0  0  0  0  0  0  0  0  0
   36.7580   24.0630   31.6470 C   0  0  0  0  0  0  0  0  0  0  0  0
   37.6160   24.8420   32.4130 N   0  0  0  0  0  0  0  0  0  0  0  0
   37.3740   26.1500   32.5510 C   0  0  0  0  0  0  0  0  0  0  0  0
   36.3090   26.7440   31.9620 N   0  0  0  0  0  0  0  0  0  0  0  0
   34.6170   26.4210   30.7330 H   0  0  0  0  0  0  0  0  0  0  0  0
   35.0350   24.0050   30.4590 H   0  0  0  0  0  0  0  0  0  0  0  0
   37.7620   27.2480   34.7410 C   0  0  2  0  0  3  0  0  0  0  0  0
   38.3300   26.9370   33.3860 C   0  0  1  0  0  3  0  0  0  0  0  0
   39.5510   26.1250   33.7440 C   0  0  0  0  0  3  0  0  0  0  0  0
   40.4430   26.5730   33.2400 H   0  0  0  0  0  0  0  0  0  0  0  0
   39.7200   26.1820   35.1130 O   0  0  0  0  0  0  0  0  0  0  0  0
   39.0060   27.2660   35.5970 C   0  0  0  0  0  3  0  0  0  0  0  0
   39.5430   28.2240   35.5290 H   0  0  0  0  0  0  0  0  0  0  0  0
   36.8900   26.2650   35.1690 O   0  0  0  0  0  0  0  0  0  0  0  0
   37.3680   25.6890   35.8060 H   0  0  0  0  0  0  0  0  0  0  0  0
  1 21  1  0  0  0  0
  2  3  1  0  0  0  0
  2  7  1  0  0  0  0
  3  9  1  6  0  0  0
  3  1  1  0  0  0  0
  3  4  1  0  0  0  0
  4 10  1  0  0  0  0
  4  5  1  0  0  0  0
  5 12  1  0  0  0  0
  6  5  1  0  0  0  0
  6 13  1  0  0  0  0
  7 15  1  6  0  0  0
  7 16  1  0  0  0  0
  7  6  1  0  0  0  0
  8  2  1  0  0  0  0
 11  4  1  0  0  0  0
 14  6  1  0  0  0  0
 16 18  1  0  0  0  0
 16 17  1  0  0  0  0
 19 24  1  0  0  0  0
 20 19  2  0  0  0  0
 20 21  1  0  0  0  0
 21 22  2  0  0  0  0
 22 23  1  0  0  0  0
 24 23  2  0  0  0  0
 25 19  1  0  0  0  0
 26 20  1  0  0  0  0
 27 34  1  1  0  0  0
 27 32  1  0  0  0  0
 28 23  1  6  0  0  0
 28 29  1  0  0  0  0
 28 27  1  0  0  0  0
 29 31  1  0  0  0  0
 30 29  1  0  0  0  0
 31 32  1  0  0  0  0
 33 32  1  0  0  0  0
 34 35  1  0  0  0  0
M  END
>  <minimizedAffinity>
-4.69477844

$$$$

 OpenBabel03262521003D

 35 37  0  0  1  0  0  0  0  0999 V2000
   37.4620   25.7100   31.0750 S   0  0  0  0  0  0  0  0  0  0  0  0
   38.2460   28.3050   31.1440 N   0  0  0  0  0  0  0  0  0  0  0  0
   37.9300   27.2020   32.0130 C   0  0  1  0  0  0  0  0  0  0  0  0
   36.7750   27.5380   32.8950 C   0  0  0  0  0  0  0  0  0  0  0  0
   35.6330   27.8130   32.0200 N   0  0  0  0  0  0  0  0  0  0  0  0
   35.9720   29.0930   31.3650 C   0  0  0  0  0  0  0  0  0  0  0  0
   37.1090   28.7800   30.4170 C   0  0  2  0  0  0  0  0  0  0  0  0
   38.6330   29.0610   31.7200 H   0  0  0  0  0  0  0  0  0  0  0  0
   38.8190   26.9860   32.6340 H   0  0  0  0  0  0  0  0  0  0  0  0
   36.5720   26.7850   33.6580 H   0  0  0  0  0  0  0  0  0  0  0  0
   37.0160   28.5270   33.3750 H   0  0  0  0  0  0  0  0  0  0  0  0
   34.7820   27.9290   32.6360 H   0  0  0  0  0  0  0  0  0  0  0  0
   35.0470   29.3370   30.7770 H   0  0  0  0  0  0  0  0  0  0  0  0
   36.2310   29.8650   32.0940 H   0  0  0  0  0  0  0  0  0  0  0  0
   37.3770   29.7380   29.9140 H   0  0  0  0  0  0  0  0  0  0  0  0
   36.6420   27.8630   29.4080 N   0  0  0  0  0  0  0  0  0  0  0  0
   35.8860   27.2520   29.7920 H   0  0  0  0  0  0  0  0  0  0  0  0
   36.3110   28.3190   28.5340 H   0  0  0  0  0  0  0  0  0  0  0  0
   38.7180   22.8370   33.6490 C   0  0  0  0  0  0  0  0  0  0  0  0
   38.7210   24.0050   32.9050 C   0  0  0  0  0  0  0  0  0  0  0  0
   37.6390   24.2620   32.1030 C   0  0  0  0  0  0  0  0  0  0  0  0
   36.5920   23.3500   32.0660 N   0  0  0  0  0  0  0  0  0  0  0  0
   36.6550   22.2410   32.8110 C   0  0  0  0  0  0  0  0  0  0  0  0
   37.7180   21.9770   33.6060 N   0  0  0  0  0  0  0  0  0  0  0  0
   39.6000   22.6900   34.2630 H   0  0  0  0  0  0  0  0  0  0  0  0
   39.5130   24.7450   32.9010 H   0  0  0  0  0  0  0  0  0  0  0  0
   35.5610   20.4450   31.4950 C   0  0  2  0  0  3  0  0  0  0  0  0
   35.5000   21.2980   32.7310 C   0  0  1  0  0  3  0  0  0  0  0  0
   35.5570   20.2580   33.8240 C   0  0  0  0  0  3  0  0  0  0  0  0
   34.6970   20.4200   34.5210 H   0  0  0  0  0  0  0  0  0  0  0  0
   35.4470   19.0120   33.2400 O   0  0  0  0  0  0  0  0  0  0  0  0
   34.9100   19.1680   31.9720 C   0  0  0  0  0  3  0  0  0  0  0  0
   33.8120   19.2320   31.9550 H   0  0  0  0  0  0  0  0  0  0  0  0
   36.8640   20.2080   31.1000 O   0  0  0  0  0  0  0  0  0  0  0  0
   37.1160   19.3070   31.4010 H   0  0  0  0  0  0  0  0  0  0  0  0
  1  3  1  0  0  0  0
  1 21  1  0  0  0  0
  2  8  1  0  0  0  0
  2  3  1  0  0  0  0
  3  9  1  1  0  0  0
  3  4  1  0  0  0  0
  4 11  1  0  0  0  0
  4 10  1  0  0  0  0
  5 12  1  0  0  0  0
  5  4  1  0  0  0  0
  6  5  1  0  0  0  0
  6 14  1  0  0  0  0
  7 15  1  6  0  0  0
  7  2  1  0  0  0  0
  7  6  1  0  0  0  0
 13  6  1  0  0  0  0
 16 17  1  0  0  0  0
 16  7  1  0  0  0  0
 18 16  1  0  0  0  0
 19 25  1  0  0  0  0
 20 19  2  0  0  0  0
 21 20  1  0  0  0  0
 22 21  2  0  0  0  0
 22 23  1  0  0  0  0
 23 24  2  0  0  0  0
 24 19  1  0  0  0  0
 26 20  1  0  0  0  0
 27 34  1  1  0  0  0
 27 32  1  0  0  0  0
 27 28  1  0  0  0  0
 28 23  1  1  0  0  0
 28 29  1  0  0  0  0
 29 30  1  0  0  0  0
 31 29  1  0  0  0  0
 32 31  1  0  0  0  0
 33 32  1  0  0  0  0
 34 35  1  0  0  0  0
M  END
>  <minimizedAffinity>
-4.63524675

$$$$

 OpenBabel03262521003D

 35 37  0  0  1  0  0  0  0  0999 V2000
   35.6760   24.7100   31.0380 S   0  0  0  0  0  0  0  0  0  0  0  0
   37.8270   25.9820   32.0930 N   0  0  0  0  0  0  0  0  0  0  0  0
   36.3890   26.0420   32.0590 C   0  0  1  0  0  0  0  0  0  0  0  0
   35.9280   27.3330   31.4710 C   0  0  0  0  0  0  0  0  0  0  0  0
   36.4500   27.3920   30.1040 N   0  0  0  0  0  0  0  0  0  0  0  0
   37.9070   27.5740   30.2750 C   0  0  0  0  0  0  0  0  0  0  0  0
   38.4220   26.2590   30.8210 C   0  0  2  0  0  0  0  0  0  0  0  0
   38.1560   26.6610   32.7880 H   0  0  0  0  0  0  0  0  0  0  0  0
   36.0160   25.9550   33.0960 H   0  0  0  0  0  0  0  0  0  0  0  0
   34.8480   27.4830   31.5350 H   0  0  0  0  0  0  0  0  0  0  0  0
   36.4710   28.1490   32.0230 H   0  0  0  0  0  0  0  0  0  0  0  0
   36.0270   28.2410   29.6380 H   0  0  0  0  0  0  0  0  0  0  0  0
   38.2760   27.7160   29.2250 H   0  0  0  0  0  0  0  0  0  0  0  0
   38.1350   28.4200   30.9270 H   0  0  0  0  0  0  0  0  0  0  0  0
   39.5210   26.3800   30.9560 H   0  0  0  0  0  0  0  0  0  0  0  0
   38.2050   25.2250   29.8420 N   0  0  0  0  0  0  0  0  0  0  0  0
   37.3600   25.4400   29.2650 H   0  0  0  0  0  0  0  0  0  0  0  0
   39.0180   25.0490   29.2170 H   0  0  0  0  0  0  0  0  0  0  0  0
   36.0960   20.7610   31.8630 C   0  0  0  0  0  0  0  0  0  0  0  0
   35.6620   21.9180   31.2370 C   0  0  0  0  0  0  0  0  0  0  0  0
   36.1220   23.1190   31.7110 C   0  0  0  0  0  0  0  0  0  0  0  0
   36.9970   23.1320   32.7900 N   0  0  0  0  0  0  0  0  0  0  0  0
   37.3750   21.9760   33.3470 C   0  0  0  0  0  0  0  0  0  0  0  0
   36.9270   20.7840   32.8880 N   0  0  0  0  0  0  0  0  0  0  0  0
   35.6980   19.8440   31.4440 H   0  0  0  0  0  0  0  0  0  0  0  0
   34.9810   21.9580   30.3940 H   0  0  0  0  0  0  0  0  0  0  0  0
   39.7450   22.1780   34.0530 C   0  0  2  0  0  3  0  0  0  0  0  0
   38.3170   22.0510   34.5030 C   0  0  1  0  0  3  0  0  0  0  0  0
   38.1290   23.3260   35.2890 C   0  0  0  0  0  3  0  0  0  0  0  0
   37.7360   23.0710   36.3040 H   0  0  0  0  0  0  0  0  0  0  0  0
   39.3590   23.9410   35.4140 O   0  0  0  0  0  0  0  0  0  0  0  0
   40.3460   23.0000   35.1690 C   0  0  0  0  0  3  0  0  0  0  0  0
   40.6060   22.3850   36.0430 H   0  0  0  0  0  0  0  0  0  0  0  0
   39.8440   22.8470   32.8480 O   0  0  0  0  0  0  0  0  0  0  0  0
   40.1090   23.7750   33.0340 H   0  0  0  0  0  0  0  0  0  0  0  0
  1 21  1  0  0  0  0
  1  3  1  0  0  0  0
  2  8  1  0  0  0  0
  3  2  1  0  0  0  0
  3  9  1  1  0  0  0
  4 10  1  0  0  0  0
  4 11  1  0  0  0  0
  4  3  1  0  0  0  0
  5  6  1  0  0  0  0
  5  4  1  0  0  0  0
  6  7  1  0  0  0  0
  6 14  1  0  0  0  0
  7 15  1  1  0  0  0
  7  2  1  0  0  0  0
 12  5  1  0  0  0  0
 13  6  1  0  0  0  0
 16  7  1  0  0  0  0
 17 16  1  0  0  0  0
 18 16  1  0  0  0  0
 19 24  1  0  0  0  0
 20 21  1  0  0  0  0
 20 19  2  0  0  0  0
 21 22  2  0  0  0  0
 22 23  1  0  0  0  0
 24 23  2  0  0  0  0
 25 19  1  0  0  0  0
 26 20  1  0  0  0  0
 27 34  1  6  0  0  0
 27 28  1  0  0  0  0
 27 32  1  0  0  0  0
 28 23  1  6  0  0  0
 28 29  1  0  0  0  0
 29 31  1  0  0  0  0
 29 30  1  0  0  0  0
 32 31  1  0  0  0  0
 32 33  1  0  0  0  0
 34 35  1  0  0  0  0
M  END
>  <minimizedAffinity>
-4.59415007

$$$$

 OpenBabel03262521003D

 35 37  0  0  1  0  0  0  0  0999 V2000
   36.3920   22.5360   31.4010 S   0  0  0  0  0  0  0  0  0  0  0  0
   36.2310   20.9710   33.6100 N   0  0  0  0  0  0  0  0  0  0  0  0
   37.1930   21.5530   32.7120 C   0  0  1  0  0  0  0  0  0  0  0  0
   37.9900   20.4920   32.0310 C   0  0  0  0  0  0  0  0  0  0  0  0
   37.0480   19.6700   31.2690 N   0  0  0  0  0  0  0  0  0  0  0  0
   36.2810   18.9390   32.3010 C   0  0  0  0  0  0  0  0  0  0  0  0
   35.4150   19.9790   32.9800 C   0  0  2  0  0  0  0  0  0  0  0  0
   36.7430   20.5540   34.3960 H   0  0  0  0  0  0  0  0  0  0  0  0
   37.8680   22.2010   33.3010 H   0  0  0  0  0  0  0  0  0  0  0  0
   38.8170   20.8800   31.4330 H   0  0  0  0  0  0  0  0  0  0  0  0
   38.3770   19.8130   32.8410 H   0  0  0  0  0  0  0  0  0  0  0  0
   37.6140   18.9940   30.6860 H   0  0  0  0  0  0  0  0  0  0  0  0
   35.6350   18.2440   31.7010 H   0  0  0  0  0  0  0  0  0  0  0  0
   36.9390   18.4170   32.9990 H   0  0  0  0  0  0  0  0  0  0  0  0
   34.8300   19.4430   33.7620 H   0  0  0  0  0  0  0  0  0  0  0  0
   34.4860   20.5180   32.0190 N   0  0  0  0  0  0  0  0  0  0  0  0
   34.8990   20.4950   31.0590 H   0  0  0  0  0  0  0  0  0  0  0  0
   33.5580   20.0480   32.0100 H   0  0  0  0  0  0  0  0  0  0  0  0
   39.3040   24.7850   29.6930 C   0  0  0  0  0  0  0  0  0  0  0  0
   38.5450   23.6730   30.0200 C   0  0  0  0  0  0  0  0  0  0  0  0
   37.4820   23.8450   30.8670 C   0  0  0  0  0  0  0  0  0  0  0  0
   37.2060   25.1130   31.3610 N   0  0  0  0  0  0  0  0  0  0  0  0
   37.9810   26.1430   31.0040 C   0  0  0  0  0  0  0  0  0  0  0  0
   39.0350   25.9860   30.1690 N   0  0  0  0  0  0  0  0  0  0  0  0
   40.1310   24.5860   29.0210 H   0  0  0  0  0  0  0  0  0  0  0  0
   38.7210   22.6660   29.6600 H   0  0  0  0  0  0  0  0  0  0  0  0
   37.1080   28.4120   30.5110 C   0  0  2  0  0  3  0  0  0  0  0  0
   37.6380   27.4830   31.5660 C   0  0  1  0  0  3  0  0  0  0  0  0
   36.4690   27.4020   32.5180 C   0  0  0  0  0  3  0  0  0  0  0  0
   36.8250   27.6460   33.5500 H   0  0  0  0  0  0  0  0  0  0  0  0
   35.5270   28.3320   32.1250 O   0  0  0  0  0  0  0  0  0  0  0  0
   36.1470   29.2630   31.3070 C   0  0  0  0  0  3  0  0  0  0  0  0
   36.6600   30.0690   31.8520 H   0  0  0  0  0  0  0  0  0  0  0  0
   36.4410   27.7270   29.5140 O   0  0  0  0  0  0  0  0  0  0  0  0
   35.4760   27.8090   29.6790 H   0  0  0  0  0  0  0  0  0  0  0  0
  1  3  1  0  0  0  0
  2  8  1  0  0  0  0
  3  9  1  1  0  0  0
  3  2  1  0  0  0  0
  4  3  1  0  0  0  0
  4 11  1  0  0  0  0
  5  4  1  0  0  0  0
  5  6  1  0  0  0  0
  6  7  1  0  0  0  0
  6 14  1  0  0  0  0
  7  2  1  0  0  0  0
  7 15  1  1  0  0  0
 10  4  1  0  0  0  0
 12  5  1  0  0  0  0
 13  6  1  0  0  0  0
 16  7  1  0  0  0  0
 17 16  1  0  0  0  0
 18 16  1  0  0  0  0
 19 20  2  0  0  0  0
 19 24  1  0  0  0  0
 20 21  1  0  0  0  0
 21 22  2  0  0  0  0
 21  1  1  0  0  0  0
 23 22  1  0  0  0  0
 24 23  2  0  0  0  0
 25 19  1  0  0  0  0
 26 20  1  0  0  0  0
 27 34  1  6  0  0  0
 27 32  1  0  0  0  0
 27 28  1  0  0  0  0
 28 23  1  6  0  0  0
 28 29  1  0  0  0  0
 29 30  1  0  0  0  0
 31 29  1  0  0  0  0
 32 33  1  0  0  0  0
 32 31  1  0  0  0  0
 34 35  1  0  0  0  0
M  END
>  <minimizedAffinity>
-4.54236078

$$$$
