
 OpenBabel03272506333D

 19 20  0  0  1  0  0  0  0  0999 V2000
   37.4860   30.1960   51.0160 C   0  0  0  0  0  0  0  0  0  0  0  0
   38.3060   31.0800   50.3180 C   0  0  0  0  0  0  0  0  0  0  0  0
   37.8470   31.6020   49.1010 C   0  0  0  0  0  0  0  0  0  0  0  0
   36.6240   31.2190   48.6620 N   0  0  0  0  0  0  0  0  0  0  0  0
   35.8350   30.3480   49.3660 C   0  0  0  0  0  0  0  0  0  0  0  0
   36.2820   29.8540   50.5320 N   0  0  0  0  0  0  0  0  0  0  0  0
   39.2840   31.4360   50.5900 H   0  0  0  0  0  0  0  0  0  0  0  0
   38.4370   32.2920   48.5120 H   0  0  0  0  0  0  0  0  0  0  0  0
   33.8350   28.9930   49.8650 C   0  0  2  0  0  3  0  0  0  0  0  0
   34.4970   29.9340   48.8790 C   0  0  2  0  0  3  0  0  0  0  0  0
   34.6210   28.9830   47.6800 C   0  0  0  0  0  3  0  0  0  0  0  0
   35.2910   28.1690   47.9520 H   0  0  0  0  0  0  0  0  0  0  0  0
   33.3220   28.4910   47.6310 O   0  0  0  0  0  0  0  0  0  0  0  0
   32.9400   28.1970   48.9260 C   0  0  0  0  0  3  0  0  0  0  0  0
   31.8970   28.5780   49.1220 H   0  0  0  0  0  0  0  0  0  0  0  0
   33.1180   29.6550   50.8530 O   0  0  0  0  0  0  0  0  0  0  0  0
   32.9390   28.9460   51.5510 H   0  0  0  0  0  0  0  0  0  0  0  0
   38.0630   29.7600   52.2020 O   0  0  0  0  0  0  0  0  0  0  0  0
   38.0790   30.3120   53.0450 H   0  0  0  0  0  0  0  0  0  0  0  0
  1 18  1  0  0  0  0
  2  7  1  0  0  0  0
  2  1  2  0  0  0  0
  3  2  1  0  0  0  0
  4  3  2  0  0  0  0
  4  5  1  0  0  0  0
  5  6  2  0  0  0  0
  6  1  1  0  0  0  0
  8  3  1  0  0  0  0
  9 16  1  1  0  0  0
 10  5  1  1  0  0  0
 10  9  1  0  0  0  0
 11 12  1  0  0  0  0
 11 10  1  0  0  0  0
 13 11  1  0  0  0  0
 13 14  1  0  0  0  0
 14 15  1  0  0  0  0
 14  9  1  0  0  0  0
 16 17  1  0  0  0  0
 18 19  1  0  0  0  0
M  END
>  <minimizedAffinity>
-4.87463999

>  <minimizedRMSD>
0.766765714

$$$$
