
 OpenBabel03272505263D

 31 33  0  0  1  0  0  0  0  0999 V2000
   37.3930   31.0970   47.1260 N   0  0  0  0  0  0  0  0  0  0  0  0
   36.7740   30.7790   45.9560 C   0  0  0  0  0  0  0  0  0  0  0  0
   37.2190   31.2490   44.7320 C   0  0  0  0  0  0  0  0  0  0  0  0
   38.3500   32.0810   44.7350 C   0  0  0  0  0  0  0  0  0  0  0  0
   38.7800   32.5240   43.6500 O   0  0  0  0  0  0  0  0  0  0  0  0
   38.9710   32.4020   45.9050 N   0  0  0  0  0  0  0  0  0  0  0  0
   38.4460   31.8850   47.0240 C   0  0  0  0  0  0  0  0  0  0  0  0
   39.0460   32.2060   48.0750 O   0  0  0  0  0  0  0  0  0  0  0  0
   35.9000   30.1310   45.9890 H   0  0  0  0  0  0  0  0  0  0  0  0
   37.3460   29.5580   50.5050 C   0  0  0  0  0  0  0  0  0  0  0  0
   37.8010   30.0430   49.2720 C   0  0  0  0  0  0  0  0  0  0  0  0
   36.9340   30.6110   48.3520 C   0  0  0  0  0  0  0  0  0  0  0  0
   35.6100   30.6890   48.6740 N   0  0  0  0  0  0  0  0  0  0  0  0
   35.1600   30.2170   49.8770 C   0  0  0  0  0  0  0  0  0  0  0  0
   36.0120   29.6590   50.7820 N   0  0  0  0  0  0  0  0  0  0  0  0
   37.9490   29.1100   51.2620 H   0  0  0  0  0  0  0  0  0  0  0  0
   38.8600   29.8890   49.1850 H   0  0  0  0  0  0  0  0  0  0  0  0
   34.1070   30.3360   50.0060 H   0  0  0  0  0  0  0  0  0  0  0  0
   35.0740   30.5360   43.8810 C   0  0  2  0  0  3  0  0  0  0  0  0
   36.5050   30.8660   43.5290 C   0  0  2  0  0  3  0  0  0  0  0  0
   36.9700   29.6160   42.8600 C   0  0  0  0  0  3  0  0  0  0  0  0
   38.0440   29.4200   42.9110 H   0  0  0  0  0  0  0  0  0  0  0  0
   36.1890   28.5710   43.3300 O   0  0  0  0  0  0  0  0  0  0  0  0
   34.9340   29.0940   43.5000 C   0  0  0  0  0  3  0  0  0  0  0  0
   34.3040   28.9950   42.5690 H   0  0  0  0  0  0  0  0  0  0  0  0
   34.2080   31.3550   43.1290 O   0  0  0  0  0  0  0  0  0  0  0  0
   34.3740   32.2900   43.3880 H   0  0  0  0  0  0  0  0  0  0  0  0
   40.1340   33.2590   45.9030 C   0  0  0  0  0  0  0  0  0  0  0  0
   39.9810   34.2350   44.9450 F   0  0  0  0  0  0  0  0  0  0  0  0
   41.3030   32.5980   45.6280 F   0  0  0  0  0  0  0  0  0  0  0  0
   40.2080   33.9080   47.1350 F   0  0  0  0  0  0  0  0  0  0  0  0
  1 12  1  0  0  0  0
  2  9  1  0  0  0  0
  2  1  1  0  0  0  0
  3  4  1  0  0  0  0
  3  2  2  0  0  0  0
  4  6  1  0  0  0  0
  5  4  2  0  0  0  0
  6  7  1  0  0  0  0
  7  1  1  0  0  0  0
  7  8  2  0  0  0  0
 10 15  1  0  0  0  0
 10 16  1  0  0  0  0
 11 10  2  0  0  0  0
 12 13  2  0  0  0  0
 12 11  1  0  0  0  0
 13 14  1  0  0  0  0
 14 18  1  0  0  0  0
 14 15  2  0  0  0  0
 17 11  1  0  0  0  0
 19 26  1  6  0  0  0
 20 19  1  0  0  0  0
 20  3  1  1  0  0  0
 21 22  1  0  0  0  0
 21 23  1  0  0  0  0
 21 20  1  0  0  0  0
 23 24  1  0  0  0  0
 24 19  1  0  0  0  0
 25 24  1  0  0  0  0
 26 27  1  0  0  0  0
 28  6  1  0  0  0  0
 28 31  1  0  0  0  0
 29 28  1  0  0  0  0
 30 28  1  0  0  0  0
M  END
>  <minimizedAffinity>
-6.22039795

>  <minimizedRMSD>
0.589608252

$$$$
