
 OpenBabel03272500013D

 28 30  0  0  1  0  0  0  0  0999 V2000
   35.8080   29.0630   49.2650 C   0  0  0  0  0  0  0  0  0  0  0  0
   35.6830   30.2430   48.4790 C   0  0  0  0  0  0  0  0  0  0  0  0
   34.5820   30.3500   47.6440 C   0  0  0  0  0  0  0  0  0  0  0  0
   33.6790   29.3350   47.6120 N   0  0  0  0  0  0  0  0  0  0  0  0
   33.8100   28.2330   48.3550 C   0  0  0  0  0  0  0  0  0  0  0  0
   34.8650   28.0920   49.1780 N   0  0  0  0  0  0  0  0  0  0  0  0
   36.6600   28.9560   49.9250 H   0  0  0  0  0  0  0  0  0  0  0  0
   34.4900   31.2490   47.0490 H   0  0  0  0  0  0  0  0  0  0  0  0
   36.7000   31.2310   48.6080 N   0  0  0  0  0  0  0  0  0  0  0  0
   36.8160   32.0000   49.7040 C   0  0  0  0  0  0  0  0  0  0  0  0
   37.8220   32.9570   49.7980 C   0  0  0  0  0  0  0  0  0  0  0  0
   38.6370   33.0050   48.6720 C   0  0  0  0  0  0  0  0  0  0  0  0
   39.5740   33.8720   48.7180 O   0  0  0  0  0  0  0  0  0  0  0  0
   38.5560   32.2610   47.5660 N   0  0  0  0  0  0  0  0  0  0  0  0
   37.5500   31.3530   47.5560 C   0  0  0  0  0  0  0  0  0  0  0  0
   37.4500   30.6340   46.5160 O   0  0  0  0  0  0  0  0  0  0  0  0
   36.1340   31.8890   50.5300 H   0  0  0  0  0  0  0  0  0  0  0  0
   37.9660   33.5930   50.6340 H   0  0  0  0  0  0  0  0  0  0  0  0
   39.2230   32.3920   46.7960 H   0  0  0  0  0  0  0  0  0  0  0  0
   32.4860   26.7980   46.8230 C   0  0  2  0  0  0  0  0  0  0  0  0
   32.7740   27.1730   48.2560 C   0  0  2  0  0  0  0  0  0  0  0  0
   31.4260   27.5830   48.7470 C   0  0  0  0  0  0  0  0  0  0  0  0
   31.5300   28.4990   49.3970 H   0  0  0  0  0  0  0  0  0  0  0  0
   30.6410   27.9570   47.6750 O   0  0  0  0  0  0  0  0  0  0  0  0
   31.2320   27.5660   46.5030 C   0  0  0  0  0  0  0  0  0  0  0  0
   30.5450   27.0020   45.8300 H   0  0  0  0  0  0  0  0  0  0  0  0
   32.2090   25.4440   46.6690 O   0  0  0  0  0  0  0  0  0  0  0  0
   33.0050   24.9340   46.4140 H   0  0  0  0  0  0  0  0  0  0  0  0
  1  7  1  0  0  0  0
  2  9  1  0  0  0  0
  2  1  2  0  0  0  0
  3  2  1  0  0  0  0
  4  3  2  0  0  0  0
  4  5  1  0  0  0  0
  5  6  2  0  0  0  0
  6  1  1  0  0  0  0
  8  3  1  0  0  0  0
  9 10  1  0  0  0  0
 10 11  2  0  0  0  0
 10 17  1  0  0  0  0
 11 18  1  0  0  0  0
 12 13  2  0  0  0  0
 12 11  1  0  0  0  0
 14 12  1  0  0  0  0
 15 14  1  0  0  0  0
 15  9  1  0  0  0  0
 16 15  2  0  0  0  0
 19 14  1  0  0  0  0
 20 27  1  1  0  0  0
 20 21  1  0  0  0  0
 21  5  1  6  0  0  0
 21 22  1  0  0  0  0
 22 23  1  0  0  0  0
 24 22  1  0  0  0  0
 25 20  1  0  0  0  0
 25 24  1  0  0  0  0
 26 25  1  0  0  0  0
 28 27  1  0  0  0  0
M  END
>  <minimizedAffinity>
-5.41992426

>  <minimizedRMSD>
1.27508509

$$$$
