
 OpenBabel03272505453D

 25 27  0  0  1  0  0  0  0  0999 V2000
   36.9110   30.2840   48.3020 C   0  0  0  0  0  0  0  0  0  0  0  0
   35.7090   29.5390   48.0120 C   0  0  0  0  0  0  0  0  0  0  0  0
   35.5770   30.8120   48.7720 C   0  0  0  0  0  0  0  0  0  0  0  0
   35.4160   28.5830   48.4740 H   0  0  0  0  0  0  0  0  0  0  0  0
   35.3580   29.5840   46.9430 H   0  0  0  0  0  0  0  0  0  0  0  0
   35.1400   31.7080   48.3090 H   0  0  0  0  0  0  0  0  0  0  0  0
   35.3110   30.6950   49.8370 H   0  0  0  0  0  0  0  0  0  0  0  0
   39.3700   32.4870   46.6380 C   0  0  0  0  0  0  0  0  0  0  0  0
   38.9360   32.5180   45.3130 C   0  0  0  0  0  0  0  0  0  0  0  0
   37.7900   31.7780   44.9970 C   0  0  0  0  0  0  0  0  0  0  0  0
   37.1580   31.0740   45.9800 N   0  0  0  0  0  0  0  0  0  0  0  0
   37.6240   31.0760   47.2680 C   0  0  0  0  0  0  0  0  0  0  0  0
   38.7350   31.7870   47.5920 N   0  0  0  0  0  0  0  0  0  0  0  0
   40.2690   33.0810   46.8330 H   0  0  0  0  0  0  0  0  0  0  0  0
   39.4180   33.0670   44.5230 H   0  0  0  0  0  0  0  0  0  0  0  0
   37.3550   31.7240   44.0020 H   0  0  0  0  0  0  0  0  0  0  0  0
   37.3460   29.0580   50.4710 C   0  0  2  0  0  0  0  0  0  0  0  0
   37.8640   29.9970   49.4500 C   0  0  2  0  0  0  0  0  0  0  0  0
   38.1520   31.2580   50.2400 C   0  0  0  0  0  0  0  0  0  0  0  0
   39.2010   31.1950   50.5740 H   0  0  0  0  0  0  0  0  0  0  0  0
   37.2580   31.2330   51.2890 O   0  0  0  0  0  0  0  0  0  0  0  0
   37.0380   29.9160   51.6530 C   0  0  0  0  0  0  0  0  0  0  0  0
   37.6630   29.7050   52.5520 H   0  0  0  0  0  0  0  0  0  0  0  0
   38.3880   28.1920   50.8550 O   0  0  0  0  0  0  0  0  0  0  0  0
   38.1500   27.2390   50.7360 H   0  0  0  0  0  0  0  0  0  0  0  0
  1  3  1  0  0  0  0
  2  1  1  0  0  0  0
  2  4  1  0  0  0  0
  2  3  1  0  0  0  0
  3  7  1  0  0  0  0
  5  2  1  0  0  0  0
  6  3  1  0  0  0  0
  8 14  1  0  0  0  0
  8 13  1  0  0  0  0
  9  8  2  0  0  0  0
 10  9  1  0  0  0  0
 10 11  2  0  0  0  0
 11 12  1  0  0  0  0
 12 13  2  0  0  0  0
 12  1  1  0  0  0  0
 15  9  1  0  0  0  0
 16 10  1  0  0  0  0
 17 24  1  1  0  0  0
 17 22  1  0  0  0  0
 18  1  1  6  0  0  0
 18 19  1  0  0  0  0
 18 17  1  0  0  0  0
 19 20  1  0  0  0  0
 19 21  1  0  0  0  0
 21 22  1  0  0  0  0
 22 23  1  0  0  0  0
 25 24  1  0  0  0  0
M  END
>  <minimizedAffinity>
-4.65990925

>  <minimizedRMSD>
2.61529398

$$$$
