
 OpenBabel03262521343D

 25 27  0  0  1  0  0  0  0  0999 V2000
   38.3630   26.5410   34.7140 C   0  0  1  0  0  0  0  0  0  0  0  0
   38.3380   26.9860   36.0960 C   0  0  0  0  0  0  0  0  0  0  0  0
   37.8070   25.5880   35.7540 C   0  0  2  0  0  0  0  0  0  0  0  0
   39.3580   26.2640   34.2780 H   0  0  0  0  0  0  0  0  0  0  0  0
   39.2470   27.0850   36.7130 H   0  0  0  0  0  0  0  0  0  0  0  0
   37.5310   27.6940   36.3700 H   0  0  0  0  0  0  0  0  0  0  0  0
   36.7050   25.4350   35.7890 H   0  0  0  0  0  0  0  0  0  0  0  0
   35.7410   28.5490   32.9340 C   0  0  0  0  0  0  0  0  0  0  0  0
   36.6880   28.1820   33.8950 C   0  0  0  0  0  0  0  0  0  0  0  0
   37.3670   26.9760   33.7220 C   0  0  0  0  0  0  0  0  0  0  0  0
   37.0630   26.2250   32.6200 N   0  0  0  0  0  0  0  0  0  0  0  0
   36.1420   26.6040   31.7070 C   0  0  0  0  0  0  0  0  0  0  0  0
   35.4720   27.7790   31.8640 N   0  0  0  0  0  0  0  0  0  0  0  0
   35.1740   29.4790   33.0070 H   0  0  0  0  0  0  0  0  0  0  0  0
   36.8400   28.8590   34.7170 H   0  0  0  0  0  0  0  0  0  0  0  0
   36.0280   25.8880   30.8980 H   0  0  0  0  0  0  0  0  0  0  0  0
   38.8380   23.2920   35.4190 C   0  0  1  0  0  3  0  0  0  0  0  0
   38.6910   24.4870   36.2810 C   0  0  2  0  0  3  0  0  0  0  0  0
   38.0850   23.9000   37.5670 C   0  0  0  0  0  3  0  0  0  0  0  0
   37.5470   24.6920   38.1350 H   0  0  0  0  0  0  0  0  0  0  0  0
   37.1930   22.9890   37.0610 O   0  0  0  0  0  0  0  0  0  0  0  0
   37.7230   22.3950   35.9350 C   0  0  0  0  0  3  0  0  0  0  0  0
   36.9810   22.2800   35.1160 H   0  0  0  0  0  0  0  0  0  0  0  0
   38.6790   23.5470   34.0680 O   0  0  0  0  0  0  0  0  0  0  0  0
   38.0220   22.9030   33.7180 H   0  0  0  0  0  0  0  0  0  0  0  0
  1  4  1  6  0  0  0
  1  3  1  0  0  0  0
  1  2  1  0  0  0  0
  2  6  1  0  0  0  0
  2  5  1  0  0  0  0
  3  7  1  1  0  0  0
  3  2  1  0  0  0  0
  3 18  1  0  0  0  0
  8 14  1  0  0  0  0
  8  9  1  0  0  0  0
  9 15  1  0  0  0  0
 10  9  2  0  0  0  0
 10  1  1  0  0  0  0
 11 10  1  0  0  0  0
 12 13  1  0  0  0  0
 12 11  2  0  0  0  0
 13  8  2  0  0  0  0
 16 12  1  0  0  0  0
 17 24  1  6  0  0  0
 17 22  1  0  0  0  0
 17 18  1  0  0  0  0
 18 19  1  1  0  0  0
 19 20  1  0  0  0  0
 21 19  1  0  0  0  0
 22 21  1  0  0  0  0
 23 22  1  0  0  0  0
 25 24  1  0  0  0  0
M  END
>  <minimizedAffinity>
-4.38366413

$$$$

 OpenBabel03262521343D

 25 27  0  0  1  0  0  0  0  0999 V2000
   37.6830   25.7790   35.6920 C   0  0  1  0  0  0  0  0  0  0  0  0
   38.1980   27.1290   35.5440 C   0  0  0  0  0  0  0  0  0  0  0  0
   38.3190   26.1530   34.3670 C   0  0  2  0  0  0  0  0  0  0  0  0
   36.5690   25.6470   35.6800 H   0  0  0  0  0  0  0  0  0  0  0  0
   37.5470   28.0140   35.4510 H   0  0  0  0  0  0  0  0  0  0  0  0
   39.1740   27.3370   36.0270 H   0  0  0  0  0  0  0  0  0  0  0  0
   39.3310   25.7480   34.1380 H   0  0  0  0  0  0  0  0  0  0  0  0
   38.7530   23.3780   38.3670 C   0  0  0  0  0  0  0  0  0  0  0  0
   38.0250   24.3740   37.7110 C   0  0  0  0  0  0  0  0  0  0  0  0
   38.4110   24.7260   36.4180 C   0  0  0  0  0  0  0  0  0  0  0  0
   39.4800   24.0720   35.8710 N   0  0  0  0  0  0  0  0  0  0  0  0
   40.1660   23.1130   36.5290 C   0  0  0  0  0  0  0  0  0  0  0  0
   39.8010   22.7600   37.7910 N   0  0  0  0  0  0  0  0  0  0  0  0
   38.5070   23.0540   39.3800 H   0  0  0  0  0  0  0  0  0  0  0  0
   37.2020   24.8130   38.2470 H   0  0  0  0  0  0  0  0  0  0  0  0
   40.9850   22.7010   35.9440 H   0  0  0  0  0  0  0  0  0  0  0  0
   37.1050   25.4450   32.2520 C   0  0  1  0  0  3  0  0  0  0  0  0
   37.4280   26.5270   33.2100 C   0  0  2  0  0  3  0  0  0  0  0  0
   38.1350   27.5630   32.3190 C   0  0  0  0  0  3  0  0  0  0  0  0
   38.7860   28.2210   32.9380 H   0  0  0  0  0  0  0  0  0  0  0  0
   38.9010   26.7580   31.5150 O   0  0  0  0  0  0  0  0  0  0  0  0
   38.2090   25.6040   31.2170 C   0  0  0  0  0  3  0  0  0  0  0  0
   38.8430   24.6930   31.2640 H   0  0  0  0  0  0  0  0  0  0  0  0
   37.1270   24.1760   32.8050 O   0  0  0  0  0  0  0  0  0  0  0  0
   37.6950   23.6120   32.2330 H   0  0  0  0  0  0  0  0  0  0  0  0
  1  4  1  6  0  0  0
  1 10  1  0  0  0  0
  2  1  1  0  0  0  0
  2  6  1  0  0  0  0
  3  7  1  6  0  0  0
  3  2  1  0  0  0  0
  3  1  1  0  0  0  0
  5  2  1  0  0  0  0
  8 14  1  0  0  0  0
  9 15  1  0  0  0  0
  9  8  2  0  0  0  0
 10  9  1  0  0  0  0
 11 10  2  0  0  0  0
 11 12  1  0  0  0  0
 12 13  2  0  0  0  0
 13  8  1  0  0  0  0
 16 12  1  0  0  0  0
 17 24  1  1  0  0  0
 17 18  1  0  0  0  0
 18 19  1  6  0  0  0
 18  3  1  0  0  0  0
 19 20  1  0  0  0  0
 21 19  1  0  0  0  0
 22 23  1  0  0  0  0
 22 21  1  0  0  0  0
 22 17  1  0  0  0  0
 25 24  1  0  0  0  0
M  END
>  <minimizedAffinity>
-4.28838587

$$$$

 OpenBabel03262521343D

 25 27  0  0  1  0  0  0  0  0999 V2000
   37.8480   22.9760   34.3180 C   0  0  1  0  0  0  0  0  0  0  0  0
   38.4550   22.7950   33.0110 C   0  0  0  0  0  0  0  0  0  0  0  0
   37.6440   21.6450   33.6210 C   0  0  2  0  0  0  0  0  0  0  0  0
   36.9450   23.6390   34.3810 H   0  0  0  0  0  0  0  0  0  0  0  0
   38.0850   23.2970   32.1010 H   0  0  0  0  0  0  0  0  0  0  0  0
   39.5440   22.5900   33.0000 H   0  0  0  0  0  0  0  0  0  0  0  0
   38.2090   20.7630   33.9990 H   0  0  0  0  0  0  0  0  0  0  0  0
   40.5360   22.1420   36.7970 C   0  0  0  0  0  0  0  0  0  0  0  0
   39.8490   22.2270   35.5830 C   0  0  0  0  0  0  0  0  0  0  0  0
   38.6140   22.8740   35.5700 C   0  0  0  0  0  0  0  0  0  0  0  0
   38.1500   23.3870   36.7500 N   0  0  0  0  0  0  0  0  0  0  0  0
   38.8350   23.2890   37.9100 C   0  0  0  0  0  0  0  0  0  0  0  0
   40.0420   22.6600   37.9370 N   0  0  0  0  0  0  0  0  0  0  0  0
   41.5070   21.6490   36.8800 H   0  0  0  0  0  0  0  0  0  0  0  0
   40.3190   21.7850   34.7220 H   0  0  0  0  0  0  0  0  0  0  0  0
   38.3180   23.7520   38.7470 H   0  0  0  0  0  0  0  0  0  0  0  0
   35.3760   20.5060   33.5610 C   0  0  1  0  0  3  0  0  0  0  0  0
   36.3500   21.3950   32.8890 C   0  0  2  0  0  3  0  0  0  0  0  0
   36.6300   20.6520   31.5720 C   0  0  0  0  0  3  0  0  0  0  0  0
   37.6160   20.9610   31.1570 H   0  0  0  0  0  0  0  0  0  0  0  0
   36.6810   19.3480   31.9970 O   0  0  0  0  0  0  0  0  0  0  0  0
   35.7490   19.1460   32.9920 C   0  0  0  0  0  3  0  0  0  0  0  0
   36.1360   18.5280   33.8300 H   0  0  0  0  0  0  0  0  0  0  0  0
   35.4710   20.5050   34.9420 O   0  0  0  0  0  0  0  0  0  0  0  0
   35.5290   19.5670   35.2360 H   0  0  0  0  0  0  0  0  0  0  0  0
  1  4  1  1  0  0  0
  1 10  1  0  0  0  0
  2  3  1  0  0  0  0
  2  1  1  0  0  0  0
  3  7  1  1  0  0  0
  3  1  1  0  0  0  0
  5  2  1  0  0  0  0
  6  2  1  0  0  0  0
  8 14  1  0  0  0  0
  8 13  1  0  0  0  0
  9  8  2  0  0  0  0
 10  9  1  0  0  0  0
 10 11  2  0  0  0  0
 11 12  1  0  0  0  0
 12 13  2  0  0  0  0
 12 16  1  0  0  0  0
 15  9  1  0  0  0  0
 17 24  1  1  0  0  0
 18 19  1  6  0  0  0
 18 17  1  0  0  0  0
 18  3  1  0  0  0  0
 19 21  1  0  0  0  0
 20 19  1  0  0  0  0
 21 22  1  0  0  0  0
 22 17  1  0  0  0  0
 22 23  1  0  0  0  0
 24 25  1  0  0  0  0
M  END
>  <minimizedAffinity>
-4.11352396

$$$$

 OpenBabel03262521343D

 25 27  0  0  1  0  0  0  0  0999 V2000
   35.7160   30.7840   35.4430 C   0  0  1  0  0  0  0  0  0  0  0  0
   36.2740   32.0790   35.7890 C   0  0  0  0  0  0  0  0  0  0  0  0
   34.7500   31.9200   35.7230 C   0  0  2  0  0  0  0  0  0  0  0  0
   35.7610   29.9780   36.2210 H   0  0  0  0  0  0  0  0  0  0  0  0
   36.7560   32.2870   36.7590 H   0  0  0  0  0  0  0  0  0  0  0  0
   36.6770   32.6810   34.9500 H   0  0  0  0  0  0  0  0  0  0  0  0
   34.2230   32.3840   34.8580 H   0  0  0  0  0  0  0  0  0  0  0  0
   35.7920   28.5090   32.4620 C   0  0  0  0  0  0  0  0  0  0  0  0
   35.8420   28.9330   33.7930 C   0  0  0  0  0  0  0  0  0  0  0  0
   35.6570   30.2890   34.0580 C   0  0  0  0  0  0  0  0  0  0  0  0
   35.4370   31.1230   32.9970 N   0  0  0  0  0  0  0  0  0  0  0  0
   35.3930   30.6860   31.7200 C   0  0  0  0  0  0  0  0  0  0  0  0
   35.5720   29.3640   31.4460 N   0  0  0  0  0  0  0  0  0  0  0  0
   35.9280   27.4620   32.1820 H   0  0  0  0  0  0  0  0  0  0  0  0
   36.0210   28.1800   34.5400 H   0  0  0  0  0  0  0  0  0  0  0  0
   35.2090   31.4840   31.0050 H   0  0  0  0  0  0  0  0  0  0  0  0
   32.7860   31.3340   37.2210 C   0  0  1  0  0  3  0  0  0  0  0  0
   34.0980   32.0060   37.0780 C   0  0  2  0  0  3  0  0  0  0  0  0
   33.7610   33.4700   37.4050 C   0  0  0  0  0  3  0  0  0  0  0  0
   34.5200   34.1490   36.9530 H   0  0  0  0  0  0  0  0  0  0  0  0
   32.5520   33.6230   36.7750 O   0  0  0  0  0  0  0  0  0  0  0  0
   31.8200   32.4600   36.8870 C   0  0  0  0  0  3  0  0  0  0  0  0
   31.2980   32.1840   35.9460 H   0  0  0  0  0  0  0  0  0  0  0  0
   32.6050   30.2600   36.3660 O   0  0  0  0  0  0  0  0  0  0  0  0
   31.7460   30.3890   35.9040 H   0  0  0  0  0  0  0  0  0  0  0  0
  1  3  1  0  0  0  0
  1  2  1  0  0  0  0
  1  4  1  1  0  0  0
  2  5  1  0  0  0  0
  3  7  1  6  0  0  0
  3  2  1  0  0  0  0
  3 18  1  0  0  0  0
  6  2  1  0  0  0  0
  8  9  1  0  0  0  0
  9 10  2  0  0  0  0
  9 15  1  0  0  0  0
 10  1  1  0  0  0  0
 11 10  1  0  0  0  0
 12 11  2  0  0  0  0
 13 12  1  0  0  0  0
 13  8  2  0  0  0  0
 14  8  1  0  0  0  0
 16 12  1  0  0  0  0
 17 24  1  6  0  0  0
 18 17  1  0  0  0  0
 18 19  1  6  0  0  0
 20 19  1  0  0  0  0
 21 22  1  0  0  0  0
 21 19  1  0  0  0  0
 22 17  1  0  0  0  0
 23 22  1  0  0  0  0
 25 24  1  0  0  0  0
M  END
>  <minimizedAffinity>
-4.025702

$$$$

 OpenBabel03262521343D

 25 27  0  0  1  0  0  0  0  0999 V2000
   35.3670   29.1760   34.2380 C   0  0  1  0  0  0  0  0  0  0  0  0
   35.3350   28.5960   32.9070 C   0  0  0  0  0  0  0  0  0  0  0  0
   36.6430   28.5510   33.7070 C   0  0  2  0  0  0  0  0  0  0  0  0
   34.8520   28.6120   35.0600 H   0  0  0  0  0  0  0  0  0  0  0  0
   34.8100   27.6550   32.6730 H   0  0  0  0  0  0  0  0  0  0  0  0
   35.3780   29.3090   32.0600 H   0  0  0  0  0  0  0  0  0  0  0  0
   37.4650   29.2310   33.3850 H   0  0  0  0  0  0  0  0  0  0  0  0
   36.0630   32.4870   35.8570 C   0  0  0  0  0  0  0  0  0  0  0  0
   35.9930   31.1030   35.6740 C   0  0  0  0  0  0  0  0  0  0  0  0
   35.4740   30.6250   34.4710 C   0  0  0  0  0  0  0  0  0  0  0  0
   35.0650   31.5420   33.5430 N   0  0  0  0  0  0  0  0  0  0  0  0
   35.1440   32.8750   33.7470 C   0  0  0  0  0  0  0  0  0  0  0  0
   35.6490   33.3550   34.9170 N   0  0  0  0  0  0  0  0  0  0  0  0
   36.4580   32.9300   36.7740 H   0  0  0  0  0  0  0  0  0  0  0  0
   36.3480   30.4830   36.4790 H   0  0  0  0  0  0  0  0  0  0  0  0
   34.7750   33.4550   32.9050 H   0  0  0  0  0  0  0  0  0  0  0  0
   38.0130   27.0470   35.2260 C   0  0  1  0  0  3  0  0  0  0  0  0
   37.0090   27.1560   34.1430 C   0  0  2  0  0  3  0  0  0  0  0  0
   37.6850   26.4060   32.9830 C   0  0  0  0  0  3  0  0  0  0  0  0
   37.2630   26.7430   32.0090 H   0  0  0  0  0  0  0  0  0  0  0  0
   38.9860   26.8230   33.1060 O   0  0  0  0  0  0  0  0  0  0  0  0
   39.3110   26.9450   34.4400 C   0  0  0  0  0  3  0  0  0  0  0  0
   39.9060   27.8580   34.6590 H   0  0  0  0  0  0  0  0  0  0  0  0
   38.0390   28.1340   36.0830 O   0  0  0  0  0  0  0  0  0  0  0  0
   38.9730   28.4390   36.1480 H   0  0  0  0  0  0  0  0  0  0  0  0
  1 10  1  0  0  0  0
  1  4  1  1  0  0  0
  2  3  1  0  0  0  0
  2  1  1  0  0  0  0
  3  7  1  6  0  0  0
  3 18  1  0  0  0  0
  3  1  1  0  0  0  0
  5  2  1  0  0  0  0
  6  2  1  0  0  0  0
  8 14  1  0  0  0  0
  9  8  1  0  0  0  0
  9 15  1  0  0  0  0
 10  9  2  0  0  0  0
 11 12  2  0  0  0  0
 11 10  1  0  0  0  0
 12 13  1  0  0  0  0
 13  8  2  0  0  0  0
 16 12  1  0  0  0  0
 17 24  1  1  0  0  0
 18 19  1  6  0  0  0
 18 17  1  0  0  0  0
 19 21  1  0  0  0  0
 20 19  1  0  0  0  0
 21 22  1  0  0  0  0
 22 23  1  0  0  0  0
 22 17  1  0  0  0  0
 24 25  1  0  0  0  0
M  END
>  <minimizedAffinity>
-3.94805741

$$$$

 OpenBabel03262521343D

 25 27  0  0  1  0  0  0  0  0999 V2000
   38.3130   22.7650   33.1810 C   0  0  1  0  0  0  0  0  0  0  0  0
   38.4110   24.1780   32.8590 C   0  0  0  0  0  0  0  0  0  0  0  0
   38.0200   23.7640   34.2830 C   0  0  2  0  0  0  0  0  0  0  0  0
   39.2710   22.1910   33.2830 H   0  0  0  0  0  0  0  0  0  0  0  0
   39.3730   24.6900   32.6870 H   0  0  0  0  0  0  0  0  0  0  0  0
   37.5630   24.6120   32.2920 H   0  0  0  0  0  0  0  0  0  0  0  0
   36.9590   23.9130   34.5870 H   0  0  0  0  0  0  0  0  0  0  0  0
   35.5550   21.1850   31.1900 C   0  0  0  0  0  0  0  0  0  0  0  0
   36.6690   21.9710   31.4970 C   0  0  0  0  0  0  0  0  0  0  0  0
   37.1510   21.9440   32.8060 C   0  0  0  0  0  0  0  0  0  0  0  0
   36.5010   21.1480   33.7090 N   0  0  0  0  0  0  0  0  0  0  0  0
   35.4260   20.3990   33.3830 C   0  0  0  0  0  0  0  0  0  0  0  0
   34.9450   20.4160   32.1100 N   0  0  0  0  0  0  0  0  0  0  0  0
   35.1250   21.1580   30.1860 H   0  0  0  0  0  0  0  0  0  0  0  0
   37.0930   22.5540   30.6990 H   0  0  0  0  0  0  0  0  0  0  0  0
   35.0360   19.8300   34.2230 H   0  0  0  0  0  0  0  0  0  0  0  0
   39.1530   23.1930   36.4820 C   0  0  1  0  0  3  0  0  0  0  0  0
   39.0950   24.0730   35.2930 C   0  0  2  0  0  3  0  0  0  0  0  0
   38.8470   25.4590   35.9130 C   0  0  0  0  0  3  0  0  0  0  0  0
   38.3800   26.1380   35.1650 H   0  0  0  0  0  0  0  0  0  0  0  0
   37.9510   25.1590   36.9080 O   0  0  0  0  0  0  0  0  0  0  0  0
   38.2670   23.9400   37.4680 C   0  0  0  0  0  3  0  0  0  0  0  0
   37.3750   23.3060   37.6600 H   0  0  0  0  0  0  0  0  0  0  0  0
   38.6740   21.9130   36.2610 O   0  0  0  0  0  0  0  0  0  0  0  0
   38.0170   21.7150   36.9660 H   0  0  0  0  0  0  0  0  0  0  0  0
  1  4  1  1  0  0  0
  1  3  1  0  0  0  0
  2  1  1  0  0  0  0
  2  3  1  0  0  0  0
  3  7  1  1  0  0  0
  3 18  1  0  0  0  0
  5  2  1  0  0  0  0
  6  2  1  0  0  0  0
  8  9  2  0  0  0  0
  8 13  1  0  0  0  0
  9 10  1  0  0  0  0
 10  1  1  0  0  0  0
 10 11  2  0  0  0  0
 12 11  1  0  0  0  0
 12 16  1  0  0  0  0
 13 12  2  0  0  0  0
 14  8  1  0  0  0  0
 15  9  1  0  0  0  0
 17 24  1  6  0  0  0
 17 22  1  0  0  0  0
 18 19  1  1  0  0  0
 18 17  1  0  0  0  0
 19 21  1  0  0  0  0
 20 19  1  0  0  0  0
 21 22  1  0  0  0  0
 22 23  1  0  0  0  0
 24 25  1  0  0  0  0
M  END
>  <minimizedAffinity>
-3.91680932

$$$$

 OpenBabel03262521343D

 25 27  0  0  1  0  0  0  0  0999 V2000
   39.2050   23.9820   34.3740 C   0  0  1  0  0  0  0  0  0  0  0  0
   38.3920   23.2700   33.4040 C   0  0  0  0  0  0  0  0  0  0  0  0
   38.0350   24.7210   33.7530 C   0  0  2  0  0  0  0  0  0  0  0  0
   40.2240   24.3170   34.0460 H   0  0  0  0  0  0  0  0  0  0  0  0
   38.7420   23.0270   32.3870 H   0  0  0  0  0  0  0  0  0  0  0  0
   37.6640   22.5420   33.8140 H   0  0  0  0  0  0  0  0  0  0  0  0
   37.1300   24.8900   34.3790 H   0  0  0  0  0  0  0  0  0  0  0  0
   37.9680   24.2090   37.9070 C   0  0  0  0  0  0  0  0  0  0  0  0
   38.0500   24.4200   36.5280 C   0  0  0  0  0  0  0  0  0  0  0  0
   39.0700   23.7800   35.8250 C   0  0  0  0  0  0  0  0  0  0  0  0
   39.9290   22.9840   36.5310 N   0  0  0  0  0  0  0  0  0  0  0  0
   39.8260   22.7980   37.8640 C   0  0  0  0  0  0  0  0  0  0  0  0
   38.8350   23.4160   38.5630 N   0  0  0  0  0  0  0  0  0  0  0  0
   37.1940   24.6780   38.5190 H   0  0  0  0  0  0  0  0  0  0  0  0
   37.3130   25.0680   36.0870 H   0  0  0  0  0  0  0  0  0  0  0  0
   40.5920   22.1350   38.2600 H   0  0  0  0  0  0  0  0  0  0  0  0
   38.5810   27.0770   32.9820 C   0  0  1  0  0  3  0  0  0  0  0  0
   38.2940   25.6720   32.6130 C   0  0  2  0  0  3  0  0  0  0  0  0
   37.0310   25.8040   31.7450 C   0  0  0  0  0  3  0  0  0  0  0  0
   36.4680   24.8430   31.7350 H   0  0  0  0  0  0  0  0  0  0  0  0
   36.3250   26.7620   32.4290 O   0  0  0  0  0  0  0  0  0  0  0  0
   37.1940   27.7000   32.9450 C   0  0  0  0  0  3  0  0  0  0  0  0
   36.9370   28.0030   33.9820 H   0  0  0  0  0  0  0  0  0  0  0  0
   39.1560   27.2270   34.2320 O   0  0  0  0  0  0  0  0  0  0  0  0
   38.6300   27.8990   34.7220 H   0  0  0  0  0  0  0  0  0  0  0  0
  1  4  1  6  0  0  0
  1 10  1  0  0  0  0
  2  3  1  0  0  0  0
  2  6  1  0  0  0  0
  2  1  1  0  0  0  0
  3  1  1  0  0  0  0
  3  7  1  1  0  0  0
  5  2  1  0  0  0  0
  8 14  1  0  0  0  0
  8 13  1  0  0  0  0
  9  8  2  0  0  0  0
 10  9  1  0  0  0  0
 10 11  2  0  0  0  0
 11 12  1  0  0  0  0
 12 16  1  0  0  0  0
 12 13  2  0  0  0  0
 15  9  1  0  0  0  0
 17 24  1  1  0  0  0
 18 19  1  6  0  0  0
 18 17  1  0  0  0  0
 18  3  1  0  0  0  0
 19 21  1  0  0  0  0
 20 19  1  0  0  0  0
 21 22  1  0  0  0  0
 22 17  1  0  0  0  0
 22 23  1  0  0  0  0
 24 25  1  0  0  0  0
M  END
>  <minimizedAffinity>
-3.8361125

$$$$

 OpenBabel03262521343D

 25 27  0  0  1  0  0  0  0  0999 V2000
   32.3480   30.5180   34.5080 C   0  0  1  0  0  0  0  0  0  0  0  0
   32.3220   29.4140   33.5650 C   0  0  0  0  0  0  0  0  0  0  0  0
   32.0580   29.1310   35.0490 C   0  0  2  0  0  0  0  0  0  0  0  0
   31.4810   31.2290   34.4950 H   0  0  0  0  0  0  0  0  0  0  0  0
   31.5100   29.2670   32.8320 H   0  0  0  0  0  0  0  0  0  0  0  0
   33.3060   29.0330   33.2270 H   0  0  0  0  0  0  0  0  0  0  0  0
   32.8600   28.6140   35.6230 H   0  0  0  0  0  0  0  0  0  0  0  0
   35.8500   31.8490   34.6810 C   0  0  0  0  0  0  0  0  0  0  0  0
   34.6750   31.3080   34.1520 C   0  0  0  0  0  0  0  0  0  0  0  0
   33.6010   31.0980   35.0160 C   0  0  0  0  0  0  0  0  0  0  0  0
   33.7650   31.4360   36.3310 N   0  0  0  0  0  0  0  0  0  0  0  0
   34.9130   31.9570   36.8160 C   0  0  0  0  0  0  0  0  0  0  0  0
   35.9690   32.1670   35.9840 N   0  0  0  0  0  0  0  0  0  0  0  0
   36.7300   32.0390   34.0630 H   0  0  0  0  0  0  0  0  0  0  0  0
   34.6690   31.0850   33.1000 H   0  0  0  0  0  0  0  0  0  0  0  0
   34.8660   32.1650   37.8820 H   0  0  0  0  0  0  0  0  0  0  0  0
   30.0890   29.0940   36.6520 C   0  0  1  0  0  3  0  0  0  0  0  0
   30.6280   28.7380   35.3190 C   0  0  2  0  0  3  0  0  0  0  0  0
   30.4950   27.2060   35.3020 C   0  0  0  0  0  3  0  0  0  0  0  0
   31.2120   26.7650   34.5730 H   0  0  0  0  0  0  0  0  0  0  0  0
   30.8630   26.8820   36.5840 O   0  0  0  0  0  0  0  0  0  0  0  0
   30.3940   27.8410   37.4580 C   0  0  0  0  0  3  0  0  0  0  0  0
   31.1370   28.1170   38.2360 H   0  0  0  0  0  0  0  0  0  0  0  0
   30.6850   30.2050   37.2240 O   0  0  0  0  0  0  0  0  0  0  0  0
   30.9640   29.9570   38.1340 H   0  0  0  0  0  0  0  0  0  0  0  0
  1  4  1  6  0  0  0
  1 10  1  0  0  0  0
  1  3  1  0  0  0  0
  2  1  1  0  0  0  0
  2  3  1  0  0  0  0
  3 18  1  0  0  0  0
  3  7  1  1  0  0  0
  5  2  1  0  0  0  0
  6  2  1  0  0  0  0
  8 13  1  0  0  0  0
  9  8  2  0  0  0  0
  9 10  1  0  0  0  0
 10 11  2  0  0  0  0
 11 12  1  0  0  0  0
 12 16  1  0  0  0  0
 13 12  2  0  0  0  0
 14  8  1  0  0  0  0
 15  9  1  0  0  0  0
 17 24  1  1  0  0  0
 17 22  1  0  0  0  0
 18 19  1  1  0  0  0
 18 17  1  0  0  0  0
 19 21  1  0  0  0  0
 20 19  1  0  0  0  0
 21 22  1  0  0  0  0
 22 23  1  0  0  0  0
 24 25  1  0  0  0  0
M  END
>  <minimizedAffinity>
-3.82801986

$$$$

 OpenBabel03262521343D

 25 27  0  0  1  0  0  0  0  0999 V2000
   38.8340   22.3770   34.0690 C   0  0  1  0  0  0  0  0  0  0  0  0
   37.8900   21.4230   33.5140 C   0  0  0  0  0  0  0  0  0  0  0  0
   37.5790   22.9220   33.4140 C   0  0  2  0  0  0  0  0  0  0  0  0
   39.7900   22.5430   33.5070 H   0  0  0  0  0  0  0  0  0  0  0  0
   38.0860   20.8470   32.5940 H   0  0  0  0  0  0  0  0  0  0  0  0
   37.2370   20.9000   34.2400 H   0  0  0  0  0  0  0  0  0  0  0  0
   36.7770   23.3240   34.0740 H   0  0  0  0  0  0  0  0  0  0  0  0
   40.1140   22.6370   37.5850 C   0  0  0  0  0  0  0  0  0  0  0  0
   40.0830   22.3590   36.2160 C   0  0  0  0  0  0  0  0  0  0  0  0
   38.9190   22.6640   35.5100 C   0  0  0  0  0  0  0  0  0  0  0  0
   37.8790   23.2170   36.2030 N   0  0  0  0  0  0  0  0  0  0  0  0
   37.9360   23.4740   37.5280 C   0  0  0  0  0  0  0  0  0  0  0  0
   39.0660   23.1820   38.2290 N   0  0  0  0  0  0  0  0  0  0  0  0
   40.9920   22.4250   38.1980 H   0  0  0  0  0  0  0  0  0  0  0  0
   40.9670   21.9250   35.7830 H   0  0  0  0  0  0  0  0  0  0  0  0
   37.0200   23.9130   37.9140 H   0  0  0  0  0  0  0  0  0  0  0  0
   37.8300   24.9000   31.8440 C   0  0  1  0  0  3  0  0  0  0  0  0
   37.6590   23.4380   32.0010 C   0  0  2  0  0  3  0  0  0  0  0  0
   36.3300   23.1760   31.2720 C   0  0  0  0  0  3  0  0  0  0  0  0
   35.8670   22.2340   31.6440 H   0  0  0  0  0  0  0  0  0  0  0  0
   35.5830   24.2580   31.6630 O   0  0  0  0  0  0  0  0  0  0  0  0
   36.3880   25.3750   31.7420 C   0  0  0  0  0  3  0  0  0  0  0  0
   36.1780   25.9980   32.6370 H   0  0  0  0  0  0  0  0  0  0  0  0
   38.4750   25.5120   32.9050 O   0  0  0  0  0  0  0  0  0  0  0  0
   37.9220   26.2730   33.1910 H   0  0  0  0  0  0  0  0  0  0  0  0
  1  4  1  6  0  0  0
  1 10  1  0  0  0  0
  2  1  1  0  0  0  0
  2  6  1  0  0  0  0
  3  2  1  0  0  0  0
  3  1  1  0  0  0  0
  3  7  1  1  0  0  0
  5  2  1  0  0  0  0
  8 14  1  0  0  0  0
  8 13  1  0  0  0  0
  9  8  2  0  0  0  0
 10 11  2  0  0  0  0
 10  9  1  0  0  0  0
 11 12  1  0  0  0  0
 12 16  1  0  0  0  0
 12 13  2  0  0  0  0
 15  9  1  0  0  0  0
 17 18  1  0  0  0  0
 17 24  1  1  0  0  0
 18 19  1  6  0  0  0
 18  3  1  0  0  0  0
 19 20  1  0  0  0  0
 19 21  1  0  0  0  0
 21 22  1  0  0  0  0
 22 17  1  0  0  0  0
 22 23  1  0  0  0  0
 24 25  1  0  0  0  0
M  END
>  <minimizedAffinity>
-3.81183696

$$$$
