
 OpenBabel03272503193D

 35 38  0  0  1  0  0  0  0  0999 V2000
   39.0000   32.4790   46.2550 C   0  0  0  0  0  0  0  0  0  0  0  0
   40.0750   33.1600   45.8070 C   0  0  0  0  0  0  0  0  0  0  0  0
   40.3230   33.2580   44.4990 C   0  0  0  0  0  0  0  0  0  0  0  0
   39.4380   32.6400   43.6380 C   0  0  0  0  0  0  0  0  0  0  0  0
   38.2150   31.8980   44.7940 S   0  0  0  0  0  0  0  0  0  0  0  0
   40.7160   33.6140   46.5690 H   0  0  0  0  0  0  0  0  0  0  0  0
   41.1480   33.7750   44.0260 H   0  0  0  0  0  0  0  0  0  0  0  0
   40.7510   30.1230   42.5050 Cl  0  0  0  0  0  0  0  0  0  0  0  0
   39.9310   31.4030   41.6230 C   0  0  0  0  0  0  0  0  0  0  0  0
   39.3620   32.5160   42.2090 C   0  0  0  0  0  0  0  0  0  0  0  0
   38.7310   33.5100   41.5640 C   0  0  0  0  0  0  0  0  0  0  0  0
   38.6190   33.4470   40.1710 C   0  0  0  0  0  0  0  0  0  0  0  0
   39.1630   32.3690   39.5200 C   0  0  0  0  0  0  0  0  0  0  0  0
   39.0590   32.2290   37.7770 Cl  0  0  0  0  0  0  0  0  0  0  0  0
   39.8080   31.3630   40.2280 C   0  0  0  0  0  0  0  0  0  0  0  0
   38.2910   34.3750   42.0590 H   0  0  0  0  0  0  0  0  0  0  0  0
   38.1190   34.2280   39.6210 H   0  0  0  0  0  0  0  0  0  0  0  0
   40.2220   30.5310   39.6760 H   0  0  0  0  0  0  0  0  0  0  0  0
   38.2510   32.7500   49.9250 C   0  0  0  0  0  0  0  0  0  0  0  0
   38.7880   33.0870   48.6580 C   0  0  0  0  0  0  0  0  0  0  0  0
   38.4910   32.2150   47.6030 C   0  0  0  0  0  0  0  0  0  0  0  0
   37.7380   31.1330   47.8190 N   0  0  0  0  0  0  0  0  0  0  0  0
   37.2480   30.8490   49.0410 C   0  0  0  0  0  0  0  0  0  0  0  0
   37.5030   31.6480   50.0760 N   0  0  0  0  0  0  0  0  0  0  0  0
   38.4630   33.4030   50.7620 H   0  0  0  0  0  0  0  0  0  0  0  0
   39.3890   33.9560   48.4960 H   0  0  0  0  0  0  0  0  0  0  0  0
   35.0500   29.9470   48.6230 C   0  0  2  0  0  0  0  0  0  0  0  0
   36.4120   29.6380   49.2550 C   0  0  2  0  0  0  0  0  0  0  0  0
   36.0160   29.4180   50.6780 C   0  0  0  0  0  0  0  0  0  0  0  0
   36.1100   30.3680   51.2410 H   0  0  0  0  0  0  0  0  0  0  0  0
   34.7040   28.9780   50.7140 O   0  0  0  0  0  0  0  0  0  0  0  0
   34.1710   29.0390   49.4380 C   0  0  0  0  0  0  0  0  0  0  0  0
   34.1760   28.0470   48.9310 H   0  0  0  0  0  0  0  0  0  0  0  0
   35.0290   29.5790   47.2750 O   0  0  0  0  0  0  0  0  0  0  0  0
   34.3600   30.1450   46.8330 H   0  0  0  0  0  0  0  0  0  0  0  0
  1 21  1  0  0  0  0
  2  1  2  0  0  0  0
  2  6  1  0  0  0  0
  3  2  1  0  0  0  0
  4  3  2  0  0  0  0
  4  5  1  0  0  0  0
  5  1  1  0  0  0  0
  7  3  1  0  0  0  0
  9 10  1  0  0  0  0
  9  8  1  0  0  0  0
 10  4  1  0  0  0  0
 11 16  1  0  0  0  0
 11 10  2  0  0  0  0
 12 11  1  0  0  0  0
 13 12  2  0  0  0  0
 13 15  1  0  0  0  0
 14 13  1  0  0  0  0
 15  9  2  0  0  0  0
 17 12  1  0  0  0  0
 18 15  1  0  0  0  0
 19 24  1  0  0  0  0
 19 25  1  0  0  0  0
 20 19  2  0  0  0  0
 21 22  2  0  0  0  0
 21 20  1  0  0  0  0
 22 23  1  0  0  0  0
 23 24  2  0  0  0  0
 26 20  1  0  0  0  0
 27 34  1  6  0  0  0
 27 28  1  0  0  0  0
 27 32  1  0  0  0  0
 28 23  1  1  0  0  0
 28 29  1  0  0  0  0
 29 31  1  0  0  0  0
 29 30  1  0  0  0  0
 32 31  1  0  0  0  0
 33 32  1  0  0  0  0
 35 34  1  0  0  0  0
M  END
>  <minimizedAffinity>
-6.59762955

>  <minimizedRMSD>
2.9044683

$$$$
