
 OpenBabel03272510083D

 44 48  0  0  1  0  0  0  0  0999 V2000
   35.2470   30.0660   47.4450 C   0  0  0  0  0  0  0  0  0  0  0  0
   35.1710   30.0970   48.7840 N   0  0  0  0  0  0  0  0  0  0  0  0
   36.2320   30.5240   49.5100 C   0  0  0  0  0  0  0  0  0  0  0  0
   37.4130   30.9390   48.9590 N   0  0  0  0  0  0  0  0  0  0  0  0
   37.4940   30.9080   47.6300 C   0  0  0  0  0  0  0  0  0  0  0  0
   38.6280   31.3050   46.9450 C   0  0  0  0  0  0  0  0  0  0  0  0
   38.7190   31.2670   45.5750 C   0  0  0  0  0  0  0  0  0  0  0  0
   37.6450   30.8180   44.8650 C   0  0  0  0  0  0  0  0  0  0  0  0
   36.4860   30.4180   45.5230 C   0  0  0  0  0  0  0  0  0  0  0  0
   36.4230   30.4710   46.8810 C   0  0  0  0  0  0  0  0  0  0  0  0
   36.2180   30.5650   50.5960 H   0  0  0  0  0  0  0  0  0  0  0  0
   39.4350   31.6480   47.6140 H   0  0  0  0  0  0  0  0  0  0  0  0
   39.6660   31.6130   45.2260 H   0  0  0  0  0  0  0  0  0  0  0  0
   37.9180   30.8580   43.8160 H   0  0  0  0  0  0  0  0  0  0  0  0
   33.6930   28.3750   46.3620 C   0  0  0  0  0  0  0  0  0  0  0  0
   34.0470   29.7050   46.8070 C   0  0  0  0  0  0  0  0  0  0  0  0
   33.1190   30.7740   46.5870 C   0  0  0  0  0  0  0  0  0  0  0  0
   31.9600   30.4980   45.9550 N   0  0  0  0  0  0  0  0  0  0  0  0
   31.6730   29.2310   45.5420 C   0  0  0  0  0  0  0  0  0  0  0  0
   32.5140   28.1900   45.7410 N   0  0  0  0  0  0  0  0  0  0  0  0
   30.4410   29.0270   44.8130 N   0  0  0  0  0  0  0  0  0  0  0  0
   29.1490   29.2940   45.3520 C   0  0  0  0  0  0  0  0  0  0  0  0
   28.2170   29.1590   44.1880 C   0  0  0  0  0  0  0  0  0  0  0  0
   29.0820   29.1110   42.9450 C   0  0  0  0  0  0  0  0  0  0  0  0
   30.3420   28.5270   43.4290 C   0  0  0  0  0  0  0  0  0  0  0  0
   34.4230   27.6120   46.5680 H   0  0  0  0  0  0  0  0  0  0  0  0
   33.3400   31.7550   46.9130 H   0  0  0  0  0  0  0  0  0  0  0  0
   28.9410   28.5280   46.1510 H   0  0  0  0  0  0  0  0  0  0  0  0
   29.0700   30.3170   45.7600 H   0  0  0  0  0  0  0  0  0  0  0  0
   27.7080   28.1610   44.2430 H   0  0  0  0  0  0  0  0  0  0  0  0
   27.4240   29.9040   44.1580 H   0  0  0  0  0  0  0  0  0  0  0  0
   28.6020   28.5890   42.1020 H   0  0  0  0  0  0  0  0  0  0  0  0
   29.2910   30.1950   42.7070 H   0  0  0  0  0  0  0  0  0  0  0  0
   31.2570   28.7650   42.8510 H   0  0  0  0  0  0  0  0  0  0  0  0
   30.2130   27.4180   43.4900 H   0  0  0  0  0  0  0  0  0  0  0  0
   36.2470   29.0330   43.5000 C   0  0  2  0  0  3  0  0  0  0  0  0
   35.5310   29.9370   44.5270 C   0  0  2  0  0  3  0  0  0  0  0  0
   35.2020   31.0520   43.5980 C   0  0  0  0  0  3  0  0  0  0  0  0
   34.1310   31.0230   43.2580 H   0  0  0  0  0  0  0  0  0  0  0  0
   36.0590   30.9880   42.5400 O   0  0  0  0  0  0  0  0  0  0  0  0
   35.8810   29.6510   42.1850 C   0  0  0  0  0  3  0  0  0  0  0  0
   36.4270   29.2960   41.3370 H   0  0  0  0  0  0  0  0  0  0  0  0
   35.8270   27.7150   43.4470 O   0  0  0  0  0  0  0  0  0  0  0  0
   35.0040   27.5550   42.9300 H   0  0  0  0  0  0  0  0  0  0  0  0
  1  2  1  0  0  0  0
  2  3  2  0  0  0  0
  3 11  1  0  0  0  0
  4  3  1  0  0  0  0
  5  4  2  0  0  0  0
  6 12  1  0  0  0  0
  6  5  1  0  0  0  0
  7  6  2  0  0  0  0
  8  9  2  0  0  0  0
  8  7  1  0  0  0  0
  9 10  1  0  0  0  0
 10  1  2  0  0  0  0
 10  5  1  0  0  0  0
 13  7  1  0  0  0  0
 14  8  1  0  0  0  0
 15 26  1  0  0  0  0
 15 16  1  0  0  0  0
 16  1  1  0  0  0  0
 17 16  2  0  0  0  0
 17 27  1  0  0  0  0
 18 17  1  0  0  0  0
 19 20  1  0  0  0  0
 19 18  2  0  0  0  0
 20 15  2  0  0  0  0
 21 22  1  0  0  0  0
 21 19  1  0  0  0  0
 22 29  1  0  0  0  0
 22 28  1  0  0  0  0
 23 30  1  0  0  0  0
 23 22  1  0  0  0  0
 24 25  1  0  0  0  0
 24 23  1  0  0  0  0
 25 35  1  0  0  0  0
 25 21  1  0  0  0  0
 31 23  1  0  0  0  0
 32 24  1  0  0  0  0
 33 24  1  0  0  0  0
 34 25  1  0  0  0  0
 36 43  1  6  0  0  0
 36 37  1  0  0  0  0
 37  9  1  1  0  0  0
 38 37  1  0  0  0  0
 39 38  1  0  0  0  0
 40 38  1  0  0  0  0
 41 40  1  0  0  0  0
 41 36  1  0  0  0  0
 42 41  1  0  0  0  0
 44 43  1  0  0  0  0
M  END
>  <minimizedAffinity>
-4.76965475

>  <minimizedRMSD>
3.22721481

$$$$
