
 OpenBabel03272508183D

 25 27  0  0  1  0  0  0  0  0999 V2000
   36.1360   30.4110   46.3640 C   0  0  0  0  0  0  0  0  0  0  0  0
   37.2470   31.2080   46.6550 C   0  0  0  0  0  0  0  0  0  0  0  0
   38.2170   31.2490   45.6320 C   0  0  0  0  0  0  0  0  0  0  0  0
   38.0320   30.5480   44.4710 N   0  0  0  0  0  0  0  0  0  0  0  0
   36.9250   29.7890   44.2480 C   0  0  0  0  0  0  0  0  0  0  0  0
   35.9790   29.7240   45.2000 N   0  0  0  0  0  0  0  0  0  0  0  0
   39.1390   31.7810   45.6140 H   0  0  0  0  0  0  0  0  0  0  0  0
   36.8020   29.2460   43.3240 H   0  0  0  0  0  0  0  0  0  0  0  0
   35.0330   30.4390   47.3930 C   0  0  0  0  0  0  0  0  0  0  0  0
   33.8010   29.7250   47.1880 C   0  0  0  0  0  0  0  0  0  0  0  0
   34.8490   29.0550   48.0380 C   0  0  0  0  0  0  0  0  0  0  0  0
   35.1780   31.2110   48.1790 H   0  0  0  0  0  0  0  0  0  0  0  0
   33.6640   29.2000   46.1970 H   0  0  0  0  0  0  0  0  0  0  0  0
   32.8780   29.9860   47.7300 H   0  0  0  0  0  0  0  0  0  0  0  0
   34.7260   29.0690   49.1340 H   0  0  0  0  0  0  0  0  0  0  0  0
   35.4450   28.2300   47.6390 H   0  0  0  0  0  0  0  0  0  0  0  0
   37.6390   31.1610   49.1400 C   0  0  2  0  0  3  0  0  0  0  0  0
   37.4670   31.9700   47.8690 C   0  0  1  0  0  3  0  0  0  0  0  0
   38.8850   32.5760   47.8650 C   0  0  0  0  0  3  0  0  0  0  0  0
   39.5930   31.7190   47.8070 H   0  0  0  0  0  0  0  0  0  0  0  0
   39.0380   33.0560   49.1720 O   0  0  0  0  0  0  0  0  0  0  0  0
   38.2960   32.2280   49.9980 C   0  0  0  0  0  3  0  0  0  0  0  0
   38.8500   31.7970   50.8440 H   0  0  0  0  0  0  0  0  0  0  0  0
   38.4960   30.1020   48.9570 O   0  0  0  0  0  0  0  0  0  0  0  0
   38.1320   29.3180   49.4730 H   0  0  0  0  0  0  0  0  0  0  0  0
  1  2  1  0  0  0  0
  1  9  1  0  0  0  0
  3  2  2  0  0  0  0
  4  3  1  0  0  0  0
  5  4  2  0  0  0  0
  5  6  1  0  0  0  0
  6  1  2  0  0  0  0
  7  3  1  0  0  0  0
  8  5  1  0  0  0  0
  9 11  1  0  0  0  0
  9 12  1  0  0  0  0
 10  9  1  0  0  0  0
 10 14  1  0  0  0  0
 10 11  1  0  0  0  0
 11 15  1  0  0  0  0
 13 10  1  0  0  0  0
 16 11  1  0  0  0  0
 17 24  1  6  0  0  0
 17 22  1  0  0  0  0
 18  2  1  6  0  0  0
 18 17  1  0  0  0  0
 19 18  1  0  0  0  0
 19 21  1  0  0  0  0
 20 19  1  0  0  0  0
 21 22  1  0  0  0  0
 22 23  1  0  0  0  0
 24 25  1  0  0  0  0
M  END
>  <minimizedAffinity>
-3.53600025

>  <minimizedRMSD>
3.64523554

$$$$
