
 OpenBabel03272505263D

 31 33  0  0  1  0  0  0  0  0999 V2000
   37.4190   31.1070   46.9980 N   0  0  0  0  0  0  0  0  0  0  0  0
   36.8920   30.7850   45.7840 C   0  0  0  0  0  0  0  0  0  0  0  0
   37.4060   31.2830   44.5980 C   0  0  0  0  0  0  0  0  0  0  0  0
   38.5110   32.1460   44.6890 C   0  0  0  0  0  0  0  0  0  0  0  0
   39.0020   32.6130   43.6410 O   0  0  0  0  0  0  0  0  0  0  0  0
   39.0400   32.4700   45.9020 N   0  0  0  0  0  0  0  0  0  0  0  0
   38.4530   31.9250   46.9770 C   0  0  0  0  0  0  0  0  0  0  0  0
   38.9700   32.2500   48.0700 O   0  0  0  0  0  0  0  0  0  0  0  0
   36.0360   30.1140   45.7490 H   0  0  0  0  0  0  0  0  0  0  0  0
   37.1300   29.2980   50.2270 C   0  0  0  0  0  0  0  0  0  0  0  0
   37.6550   29.8120   49.0340 C   0  0  0  0  0  0  0  0  0  0  0  0
   36.8900   30.5940   48.1840 C   0  0  0  0  0  0  0  0  0  0  0  0
   35.5980   30.8580   48.5350 N   0  0  0  0  0  0  0  0  0  0  0  0
   35.0800   30.3590   49.7000 C   0  0  0  0  0  0  0  0  0  0  0  0
   35.8310   29.5900   50.5360 N   0  0  0  0  0  0  0  0  0  0  0  0
   37.6530   28.6910   50.9310 H   0  0  0  0  0  0  0  0  0  0  0  0
   38.6740   29.4950   48.9160 H   0  0  0  0  0  0  0  0  0  0  0  0
   34.0610   30.6370   49.8570 H   0  0  0  0  0  0  0  0  0  0  0  0
   36.6540   32.1090   42.4580 C   0  0  2  0  0  3  0  0  0  0  0  0
   36.7900   30.8940   43.3450 C   0  0  2  0  0  3  0  0  0  0  0  0
   35.3840   30.3980   43.4310 C   0  0  0  0  0  3  0  0  0  0  0  0
   35.1340   29.8290   44.3300 H   0  0  0  0  0  0  0  0  0  0  0  0
   34.5420   31.4740   43.1990 O   0  0  0  0  0  0  0  0  0  0  0  0
   35.1750   32.2430   42.2580 C   0  0  0  0  0  3  0  0  0  0  0  0
   34.8930   31.9450   41.2070 H   0  0  0  0  0  0  0  0  0  0  0  0
   37.3210   31.8730   41.2390 O   0  0  0  0  0  0  0  0  0  0  0  0
   38.2770   31.7490   41.4350 H   0  0  0  0  0  0  0  0  0  0  0  0
   40.1760   33.3590   45.9890 C   0  0  0  0  0  0  0  0  0  0  0  0
   40.0340   34.3730   45.0700 F   0  0  0  0  0  0  0  0  0  0  0  0
   41.3740   32.7440   45.7380 F   0  0  0  0  0  0  0  0  0  0  0  0
   40.1760   33.9530   47.2510 F   0  0  0  0  0  0  0  0  0  0  0  0
  1 12  1  0  0  0  0
  2  1  1  0  0  0  0
  3  4  1  0  0  0  0
  3  2  2  0  0  0  0
  4  6  1  0  0  0  0
  5  4  2  0  0  0  0
  6 28  1  0  0  0  0
  6  7  1  0  0  0  0
  7  1  1  0  0  0  0
  7  8  2  0  0  0  0
  9  2  1  0  0  0  0
 10 15  1  0  0  0  0
 10 16  1  0  0  0  0
 11 10  2  0  0  0  0
 12 13  2  0  0  0  0
 12 11  1  0  0  0  0
 13 14  1  0  0  0  0
 14 18  1  0  0  0  0
 14 15  2  0  0  0  0
 17 11  1  0  0  0  0
 19 26  1  6  0  0  0
 19 20  1  0  0  0  0
 20 21  1  0  0  0  0
 20  3  1  1  0  0  0
 21 22  1  0  0  0  0
 23 21  1  0  0  0  0
 24 19  1  0  0  0  0
 24 23  1  0  0  0  0
 25 24  1  0  0  0  0
 26 27  1  0  0  0  0
 28 31  1  0  0  0  0
 29 28  1  0  0  0  0
 30 28  1  0  0  0  0
M  END
>  <minimizedAffinity>
-5.98103523

>  <minimizedRMSD>
0.450180084

$$$$
