
 OpenBabel03272505233D

 35 38  0  0  1  0  0  0  0  0999 V2000
   36.5570   30.8860   47.1290 Br  0  0  0  0  0  0  0  0  0  0  0  0
   35.2050   29.5360   47.0220 C   0  0  0  0  0  0  0  0  0  0  0  0
   34.8840   28.7950   48.1400 C   0  0  0  0  0  0  0  0  0  0  0  0
   33.8850   27.8260   48.0130 C   0  0  0  0  0  0  0  0  0  0  0  0
   33.2620   27.6430   46.7970 C   0  0  0  0  0  0  0  0  0  0  0  0
   33.5880   28.3930   45.6690 C   0  0  0  0  0  0  0  0  0  0  0  0
   34.5680   29.3400   45.8050 C   0  0  0  0  0  0  0  0  0  0  0  0
   33.6490   27.2570   48.9020 H   0  0  0  0  0  0  0  0  0  0  0  0
   32.4870   26.8800   46.7290 H   0  0  0  0  0  0  0  0  0  0  0  0
   33.0740   28.2160   44.7350 H   0  0  0  0  0  0  0  0  0  0  0  0
   37.6610   29.5050   50.5940 C   0  0  0  0  0  0  0  0  0  0  0  0
   36.9730   29.2320   49.4070 C   0  0  0  0  0  0  0  0  0  0  0  0
   35.6070   29.0740   49.3720 C   0  0  0  0  0  0  0  0  0  0  0  0
   34.9580   29.1990   50.5710 N   0  0  0  0  0  0  0  0  0  0  0  0
   35.6140   29.4620   51.7210 C   0  0  0  0  0  0  0  0  0  0  0  0
   36.9480   29.6150   51.7440 N   0  0  0  0  0  0  0  0  0  0  0  0
   38.7370   29.6310   50.6260 H   0  0  0  0  0  0  0  0  0  0  0  0
   37.6110   29.1470   48.5540 H   0  0  0  0  0  0  0  0  0  0  0  0
   35.0250   29.5460   52.6370 H   0  0  0  0  0  0  0  0  0  0  0  0
   34.9600   30.1640   44.6560 C   0  0  0  0  0  0  0  0  0  0  0  0
   34.1120   30.8450   43.8260 C   0  0  0  0  0  0  0  0  0  0  0  0
   34.8060   31.4990   42.8830 N   0  0  0  0  0  0  0  0  0  0  0  0
   36.1150   31.2300   43.1170 C   0  0  0  0  0  0  0  0  0  0  0  0
   36.2250   30.4210   44.1890 N   0  0  0  0  0  0  0  0  0  0  0  0
   33.0290   30.8950   43.8640 H   0  0  0  0  0  0  0  0  0  0  0  0
   34.4220   32.1030   42.1120 H   0  0  0  0  0  0  0  0  0  0  0  0
   38.4480   32.1170   43.2560 C   0  0  1  0  0  3  0  0  0  0  0  0
   37.2950   31.7160   42.3530 C   0  0  2  0  0  3  0  0  0  0  0  0
   37.0260   33.0490   41.6910 C   0  0  0  0  0  3  0  0  0  0  0  0
   36.4810   33.6590   42.4530 H   0  0  0  0  0  0  0  0  0  0  0  0
   38.2520   33.6560   41.4960 O   0  0  0  0  0  0  0  0  0  0  0  0
   39.2060   33.0070   42.2630 C   0  0  0  0  0  3  0  0  0  0  0  0
   39.7760   32.3270   41.5870 H   0  0  0  0  0  0  0  0  0  0  0  0
   38.0530   32.8960   44.3320 O   0  0  0  0  0  0  0  0  0  0  0  0
   37.8990   33.8110   43.9860 H   0  0  0  0  0  0  0  0  0  0  0  0
  2  1  1  0  0  0  0
  2  3  1  0  0  0  0
  3 13  1  0  0  0  0
  4  3  2  0  0  0  0
  4  8  1  0  0  0  0
  5  4  1  0  0  0  0
  6  7  1  0  0  0  0
  6  5  2  0  0  0  0
  7  2  2  0  0  0  0
  9  5  1  0  0  0  0
 10  6  1  0  0  0  0
 11 17  1  0  0  0  0
 11 16  1  0  0  0  0
 12 11  2  0  0  0  0
 13 12  1  0  0  0  0
 13 14  2  0  0  0  0
 14 15  1  0  0  0  0
 15 16  2  0  0  0  0
 15 19  1  0  0  0  0
 18 12  1  0  0  0  0
 20  7  1  0  0  0  0
 21 25  1  0  0  0  0
 21 20  2  0  0  0  0
 22 23  1  0  0  0  0
 22 21  1  0  0  0  0
 23 24  2  0  0  0  0
 24 20  1  0  0  0  0
 26 22  1  0  0  0  0
 27 34  1  1  0  0  0
 28 23  1  1  0  0  0
 28 27  1  0  0  0  0
 29 28  1  0  0  0  0
 29 30  1  0  0  0  0
 31 29  1  0  0  0  0
 31 32  1  0  0  0  0
 32 27  1  0  0  0  0
 33 32  1  0  0  0  0
 35 34  1  0  0  0  0
M  END
>  <minimizedAffinity>
-4.77184057

>  <minimizedRMSD>
4.34219265

$$$$
