
 OpenBabel03272507413D

 41 44  0  0  1  0  0  0  0  0999 V2000
   36.6370   31.1630   50.0880 C   0  0  0  0  0  0  0  0  0  0  0  0
   35.5540   30.3060   49.8620 C   0  0  0  0  0  0  0  0  0  0  0  0
   35.3630   29.1910   50.6540 C   0  0  0  0  0  0  0  0  0  0  0  0
   36.2650   28.9700   51.6490 N   0  0  0  0  0  0  0  0  0  0  0  0
   37.3110   29.8120   51.8560 C   0  0  0  0  0  0  0  0  0  0  0  0
   37.4770   30.8810   51.0810 N   0  0  0  0  0  0  0  0  0  0  0  0
   34.5550   28.4920   50.5380 H   0  0  0  0  0  0  0  0  0  0  0  0
   38.0330   29.6460   52.6440 H   0  0  0  0  0  0  0  0  0  0  0  0
   34.1890   29.3350   48.0940 C   0  0  0  0  0  0  0  0  0  0  0  0
   34.6220   28.1230   47.9980 O   0  0  0  0  0  0  0  0  0  0  0  0
   34.5830   30.4620   48.8620 N   0  0  0  0  0  0  0  0  0  0  0  0
   34.1150   31.3390   48.6210 H   0  0  0  0  0  0  0  0  0  0  0  0
   32.5950   28.0630   45.2960 C   0  0  2  0  0  3  0  0  0  0  0  0
   33.4350   29.2560   45.7090 C   0  0  0  0  0  3  0  0  0  0  0  0
   33.1970   30.1380   45.0930 H   0  0  0  0  0  0  0  0  0  0  0  0
   33.0380   29.4140   47.1440 C   0  0  1  0  0  3  0  0  0  0  0  0
   32.1120   28.4420   47.4450 O   0  0  0  0  0  0  0  0  0  0  0  0
   31.4160   28.2350   46.2320 C   0  0  0  0  0  3  0  0  0  0  0  0
   30.7440   27.3800   46.2790 H   0  0  0  0  0  0  0  0  0  0  0  0
   33.2810   26.9130   45.6560 O   0  0  0  0  0  0  0  0  0  0  0  0
   32.9670   26.5380   46.5220 H   0  0  0  0  0  0  0  0  0  0  0  0
   36.6600   32.1970   49.2150 O   0  0  0  0  0  0  0  0  0  0  0  0
   38.1820   32.1810   47.2630 C   0  0  0  0  0  0  0  0  0  0  0  0
   37.7890   32.6180   48.5140 C   0  0  0  0  0  0  0  0  0  0  0  0
   38.5310   33.5630   49.1990 C   0  0  0  0  0  0  0  0  0  0  0  0
   39.6890   34.0740   48.6150 C   0  0  0  0  0  0  0  0  0  0  0  0
   40.0820   33.6370   47.3660 C   0  0  0  0  0  0  0  0  0  0  0  0
   39.3120   32.6970   46.7240 C   0  0  0  0  0  0  0  0  0  0  0  0
   38.2910   33.9430   50.1600 H   0  0  0  0  0  0  0  0  0  0  0  0
   40.2830   34.8160   49.1420 H   0  0  0  0  0  0  0  0  0  0  0  0
   40.9900   34.0600   46.9480 H   0  0  0  0  0  0  0  0  0  0  0  0
   39.7440   32.2370   45.3840 C   0  0  0  0  0  0  0  0  0  0  0  0
   40.5860   31.2180   45.0390 C   0  0  0  0  0  0  0  0  0  0  0  0
   40.6710   31.1880   43.6480 C   0  0  0  0  0  0  0  0  0  0  0  0
   39.8580   32.2140   43.2340 C   0  0  0  0  0  0  0  0  0  0  0  0
   39.3220   32.8160   44.2730 O   0  0  0  0  0  0  0  0  0  0  0  0
   41.0450   30.6080   45.8280 H   0  0  0  0  0  0  0  0  0  0  0  0
   41.2900   30.4520   43.1530 H   0  0  0  0  0  0  0  0  0  0  0  0
   39.7270   32.4320   42.1690 H   0  0  0  0  0  0  0  0  0  0  0  0
   36.6890   30.4360   46.1030 N   0  0  0  0  0  0  0  0  0  0  0  0
   37.3600   31.2040   46.6220 C   0  0  0  0  0  0  0  0  0  0  0  0
  1  6  1  0  0  0  0
  2  1  2  0  0  0  0
  2  3  1  0  0  0  0
  3  4  2  0  0  0  0
  4  5  1  0  0  0  0
  5  8  1  0  0  0  0
  6  5  2  0  0  0  0
  7  3  1  0  0  0  0
  9 11  1  0  0  0  0
 10  9  2  0  0  0  0
 11  2  1  0  0  0  0
 12 11  1  0  0  0  0
 13 20  1  1  0  0  0
 13 14  1  0  0  0  0
 13 18  1  0  0  0  0
 14 16  1  0  0  0  0
 15 14  1  0  0  0  0
 16 17  1  0  0  0  0
 16  9  1  1  0  0  0
 18 19  1  0  0  0  0
 18 17  1  0  0  0  0
 20 21  1  0  0  0  0
 22  1  1  0  0  0  0
 23 24  1  0  0  0  0
 24 25  2  0  0  0  0
 24 22  1  0  0  0  0
 25 29  1  0  0  0  0
 26 30  1  0  0  0  0
 26 25  1  0  0  0  0
 27 26  2  0  0  0  0
 28 23  2  0  0  0  0
 28 27  1  0  0  0  0
 31 27  1  0  0  0  0
 32 28  1  0  0  0  0
 33 32  2  0  0  0  0
 33 37  1  0  0  0  0
 34 33  1  0  0  0  0
 35 34  2  0  0  0  0
 35 36  1  0  0  0  0
 36 32  1  0  0  0  0
 38 34  1  0  0  0  0
 39 35  1  0  0  0  0
 40 41  3  0  0  0  0
 41 23  1  0  0  0  0
M  END
>  <minimizedAffinity>
-5.85910559

>  <minimizedRMSD>
0.423699111

$$$$
