
 OpenBabel03272504533D

 25 27  0  0  1  0  0  0  0  0999 V2000
   37.0460   31.3740   49.1250 C   0  0  0  0  0  0  0  0  0  0  0  0
   37.4420   32.4810   49.8950 C   0  0  0  0  0  0  0  0  0  0  0  0
   38.3700   33.3240   49.3070 C   0  0  0  0  0  0  0  0  0  0  0  0
   38.8480   33.0620   48.0500 N   0  0  0  0  0  0  0  0  0  0  0  0
   38.4350   31.9780   47.3400 C   0  0  0  0  0  0  0  0  0  0  0  0
   37.5280   31.1320   47.8880 N   0  0  0  0  0  0  0  0  0  0  0  0
   37.0570   32.6630   50.8670 H   0  0  0  0  0  0  0  0  0  0  0  0
   38.7000   34.1870   49.8690 H   0  0  0  0  0  0  0  0  0  0  0  0
   36.0170   30.4510   49.7280 C   0  0  0  0  0  0  0  0  0  0  0  0
   35.9250   29.0560   49.3120 C   0  0  0  0  0  0  0  0  0  0  0  0
   36.6400   29.3700   50.5990 C   0  0  0  0  0  0  0  0  0  0  0  0
   35.1610   31.0110   50.1830 H   0  0  0  0  0  0  0  0  0  0  0  0
   36.5850   28.7540   48.4460 H   0  0  0  0  0  0  0  0  0  0  0  0
   34.9620   28.5290   49.3020 H   0  0  0  0  0  0  0  0  0  0  0  0
   37.7280   29.2890   50.6860 H   0  0  0  0  0  0  0  0  0  0  0  0
   36.0410   29.1320   51.4990 H   0  0  0  0  0  0  0  0  0  0  0  0
   38.0820   32.2680   44.8920 C   0  0  2  0  0  3  0  0  0  0  0  0
   38.9940   31.7510   45.9800 C   0  0  2  0  0  3  0  0  0  0  0  0
   39.1520   30.2940   45.6460 C   0  0  0  0  0  3  0  0  0  0  0  0
   40.1820   29.9790   45.8830 H   0  0  0  0  0  0  0  0  0  0  0  0
   38.8480   30.1410   44.3110 O   0  0  0  0  0  0  0  0  0  0  0  0
   37.8440   31.0740   44.0220 C   0  0  0  0  0  3  0  0  0  0  0  0
   36.8340   30.6630   44.2070 H   0  0  0  0  0  0  0  0  0  0  0  0
   38.6770   33.2580   44.1090 O   0  0  0  0  0  0  0  0  0  0  0  0
   39.6690   33.1540   44.2250 H   0  0  0  0  0  0  0  0  0  0  0  0
  1  9  1  0  0  0  0
  1  2  1  0  0  0  0
  2  7  1  0  0  0  0
  3  8  1  0  0  0  0
  3  2  2  0  0  0  0
  4  3  1  0  0  0  0
  5  6  1  0  0  0  0
  5  4  2  0  0  0  0
  6  1  2  0  0  0  0
  9 12  1  0  0  0  0
  9 11  1  0  0  0  0
 10  9  1  0  0  0  0
 10 11  1  0  0  0  0
 11 15  1  0  0  0  0
 11 16  1  0  0  0  0
 13 10  1  0  0  0  0
 14 10  1  0  0  0  0
 17 24  1  6  0  0  0
 17 18  1  0  0  0  0
 18  5  1  1  0  0  0
 19 20  1  0  0  0  0
 19 18  1  0  0  0  0
 21 19  1  0  0  0  0
 22 23  1  0  0  0  0
 22 21  1  0  0  0  0
 22 17  1  0  0  0  0
 24 25  1  0  0  0  0
M  END
>  <minimizedAffinity>
-5.1391511

>  <minimizedRMSD>
1.10031009

$$$$
