
 OpenBabel03272500073D

 39 42  0  0  1  0  0  0  0  0999 V2000
   32.3670   26.8010   47.9050 O   0  0  0  0  0  0  0  0  0  0  0  0
   31.0310   27.1410   48.1840 C   0  0  0  0  0  0  0  0  0  0  0  0
   30.8880   27.7220   49.4470 C   0  0  0  0  0  0  0  0  0  0  0  0
   29.6530   28.1240   49.9000 C   0  0  0  0  0  0  0  0  0  0  0  0
   28.5520   27.9400   49.0770 C   0  0  0  0  0  0  0  0  0  0  0  0
   28.7250   27.3660   47.8430 C   0  0  0  0  0  0  0  0  0  0  0  0
   29.9470   26.9500   47.3550 C   0  0  0  0  0  0  0  0  0  0  0  0
   31.7070   27.8940   50.1390 H   0  0  0  0  0  0  0  0  0  0  0  0
   29.5240   28.5750   50.8730 H   0  0  0  0  0  0  0  0  0  0  0  0
   27.5750   28.2560   49.4280 H   0  0  0  0  0  0  0  0  0  0  0  0
   27.8330   27.2490   47.2480 H   0  0  0  0  0  0  0  0  0  0  0  0
   30.4400   27.3020   44.9360 C   0  0  2  0  0  3  0  0  0  0  0  0
   30.1660   26.3250   46.0640 C   0  0  1  0  0  3  0  0  0  0  0  0
   31.5000   25.5620   45.9690 C   0  0  0  0  0  3  0  0  0  0  0  0
   32.3440   26.2380   46.2430 H   0  0  0  0  0  0  0  0  0  0  0  0
   31.6630   25.3240   44.6060 O   0  0  0  0  0  0  0  0  0  0  0  0
   30.9420   26.2780   43.9080 C   0  0  0  0  0  3  0  0  0  0  0  0
   31.5290   26.7700   43.1160 H   0  0  0  0  0  0  0  0  0  0  0  0
   31.4870   28.1320   45.2420 O   0  0  0  0  0  0  0  0  0  0  0  0
   31.1900   29.0470   45.4900 H   0  0  0  0  0  0  0  0  0  0  0  0
   35.2260   28.6190   49.0830 C   0  0  0  0  0  0  0  0  0  0  0  0
   35.1540   29.8350   48.3900 C   0  0  0  0  0  0  0  0  0  0  0  0
   34.0900   30.0060   47.5040 C   0  0  0  0  0  0  0  0  0  0  0  0
   33.1930   28.9920   47.3680 N   0  0  0  0  0  0  0  0  0  0  0  0
   33.2870   27.8460   48.0430 C   0  0  0  0  0  0  0  0  0  0  0  0
   34.3130   27.6460   48.9140 N   0  0  0  0  0  0  0  0  0  0  0  0
   36.0650   28.4910   49.7780 H   0  0  0  0  0  0  0  0  0  0  0  0
   34.0200   30.9300   46.9650 H   0  0  0  0  0  0  0  0  0  0  0  0
   36.1570   30.8090   48.6210 N   0  0  0  0  0  0  0  0  0  0  0  0
   36.2800   31.4440   49.7800 C   0  0  0  0  0  0  0  0  0  0  0  0
   37.2940   32.3910   49.9310 C   0  0  0  0  0  0  0  0  0  0  0  0
   38.0890   32.5880   48.8450 C   0  0  0  0  0  0  0  0  0  0  0  0
   39.0100   33.4410   48.9660 O   0  0  0  0  0  0  0  0  0  0  0  0
   37.9970   31.9750   47.6760 N   0  0  0  0  0  0  0  0  0  0  0  0
   36.9970   31.0530   47.5570 C   0  0  0  0  0  0  0  0  0  0  0  0
   36.8950   30.4570   46.4420 O   0  0  0  0  0  0  0  0  0  0  0  0
   35.6210   31.2490   50.6090 H   0  0  0  0  0  0  0  0  0  0  0  0
   37.3920   32.9060   50.8740 H   0  0  0  0  0  0  0  0  0  0  0  0
   38.6500   32.1830   46.8880 H   0  0  0  0  0  0  0  0  0  0  0  0
  1 25  1  0  0  0  0
  1  2  1  0  0  0  0
  2  3  1  0  0  0  0
  3  4  2  0  0  0  0
  3  8  1  0  0  0  0
  4  9  1  0  0  0  0
  5 10  1  0  0  0  0
  5  4  1  0  0  0  0
  6  5  2  0  0  0  0
  7  6  1  0  0  0  0
  7  2  2  0  0  0  0
 11  6  1  0  0  0  0
 12 19  1  1  0  0  0
 12 13  1  0  0  0  0
 13  7  1  1  0  0  0
 14 13  1  0  0  0  0
 14 15  1  0  0  0  0
 16 14  1  0  0  0  0
 17 16  1  0  0  0  0
 17 12  1  0  0  0  0
 18 17  1  0  0  0  0
 19 20  1  0  0  0  0
 21 27  1  0  0  0  0
 22 29  1  0  0  0  0
 22 21  2  0  0  0  0
 23 22  1  0  0  0  0
 24 23  2  0  0  0  0
 24 25  1  0  0  0  0
 25 26  2  0  0  0  0
 26 21  1  0  0  0  0
 28 23  1  0  0  0  0
 29 30  1  0  0  0  0
 30 31  2  0  0  0  0
 30 37  1  0  0  0  0
 31 38  1  0  0  0  0
 32 33  2  0  0  0  0
 32 31  1  0  0  0  0
 34 32  1  0  0  0  0
 35 34  1  0  0  0  0
 35 29  1  0  0  0  0
 36 35  2  0  0  0  0
 39 34  1  0  0  0  0
M  END
>  <minimizedAffinity>
-5.67161083

>  <minimizedRMSD>
1.04955995

$$$$
