
 OpenBabel03272505263D

 31 33  0  0  1  0  0  0  0  0999 V2000
   37.4040   31.0960   47.1340 N   0  0  0  0  0  0  0  0  0  0  0  0
   36.7980   30.7700   45.9600 C   0  0  0  0  0  0  0  0  0  0  0  0
   37.2500   31.2390   44.7370 C   0  0  0  0  0  0  0  0  0  0  0  0
   38.3750   32.0790   44.7470 C   0  0  0  0  0  0  0  0  0  0  0  0
   38.8120   32.5210   43.6640 O   0  0  0  0  0  0  0  0  0  0  0  0
   38.9840   32.4090   45.9210 N   0  0  0  0  0  0  0  0  0  0  0  0
   38.4520   31.8920   47.0380 C   0  0  0  0  0  0  0  0  0  0  0  0
   39.0410   32.2210   48.0920 O   0  0  0  0  0  0  0  0  0  0  0  0
   35.9280   30.1160   45.9870 H   0  0  0  0  0  0  0  0  0  0  0  0
   37.3380   29.5590   50.5120 C   0  0  0  0  0  0  0  0  0  0  0  0
   37.7990   30.0430   49.2810 C   0  0  0  0  0  0  0  0  0  0  0  0
   36.9390   30.6120   48.3580 C   0  0  0  0  0  0  0  0  0  0  0  0
   35.6130   30.6930   48.6730 N   0  0  0  0  0  0  0  0  0  0  0  0
   35.1550   30.2220   49.8740 C   0  0  0  0  0  0  0  0  0  0  0  0
   36.0020   29.6620   50.7830 N   0  0  0  0  0  0  0  0  0  0  0  0
   37.9360   29.1100   51.2720 H   0  0  0  0  0  0  0  0  0  0  0  0
   38.8590   29.8870   49.2010 H   0  0  0  0  0  0  0  0  0  0  0  0
   34.1020   30.3440   49.9970 H   0  0  0  0  0  0  0  0  0  0  0  0
   35.1240   30.4830   43.8740 C   0  0  2  0  0  3  0  0  0  0  0  0
   36.5500   30.8460   43.5300 C   0  0  2  0  0  3  0  0  0  0  0  0
   37.0460   29.6100   42.8570 C   0  0  0  0  0  3  0  0  0  0  0  0
   38.1220   29.4380   42.9100 H   0  0  0  0  0  0  0  0  0  0  0  0
   36.2860   28.5460   43.3180 O   0  0  0  0  0  0  0  0  0  0  0  0
   35.0190   29.0400   43.4860 C   0  0  0  0  0  3  0  0  0  0  0  0
   34.3940   28.9310   42.5520 H   0  0  0  0  0  0  0  0  0  0  0  0
   34.2440   31.2870   43.1230 O   0  0  0  0  0  0  0  0  0  0  0  0
   34.3880   32.2230   43.3880 H   0  0  0  0  0  0  0  0  0  0  0  0
   40.1410   33.2740   45.9260 C   0  0  0  0  0  0  0  0  0  0  0  0
   39.9830   34.2530   44.9710 F   0  0  0  0  0  0  0  0  0  0  0  0
   41.3150   32.6220   45.6520 F   0  0  0  0  0  0  0  0  0  0  0  0
   40.2060   33.9190   47.1610 F   0  0  0  0  0  0  0  0  0  0  0  0
  1 12  1  0  0  0  0
  2  9  1  0  0  0  0
  2  1  1  0  0  0  0
  3  4  1  0  0  0  0
  3  2  2  0  0  0  0
  4  6  1  0  0  0  0
  5  4  2  0  0  0  0
  6 28  1  0  0  0  0
  6  7  1  0  0  0  0
  7  1  1  0  0  0  0
  7  8  2  0  0  0  0
 10 15  1  0  0  0  0
 10 16  1  0  0  0  0
 11 10  2  0  0  0  0
 12 13  2  0  0  0  0
 12 11  1  0  0  0  0
 13 14  1  0  0  0  0
 14 18  1  0  0  0  0
 14 15  2  0  0  0  0
 17 11  1  0  0  0  0
 19 26  1  6  0  0  0
 20 19  1  0  0  0  0
 20  3  1  1  0  0  0
 21 22  1  0  0  0  0
 21 23  1  0  0  0  0
 21 20  1  0  0  0  0
 23 24  1  0  0  0  0
 24 19  1  0  0  0  0
 25 24  1  0  0  0  0
 26 27  1  0  0  0  0
 28 31  1  0  0  0  0
 29 28  1  0  0  0  0
 30 28  1  0  0  0  0
M  END
>  <minimizedAffinity>
-6.21718264

>  <minimizedRMSD>
0.367822766

$$$$
