
 OpenBabel03272503213D

 35 38  0  0  1  0  0  0  0  0999 V2000
   37.6630   27.3020   33.9200 C   0  0  0  0  0  0  0  0  0  0  0  0
   37.8430   27.5100   35.2400 C   0  0  0  0  0  0  0  0  0  0  0  0
   38.5150   26.6270   35.9830 C   0  0  0  0  0  0  0  0  0  0  0  0
   39.0090   25.5070   35.3450 C   0  0  0  0  0  0  0  0  0  0  0  0
   38.4660   25.7720   33.6080 S   0  0  0  0  0  0  0  0  0  0  0  0
   37.4120   28.4280   35.6520 H   0  0  0  0  0  0  0  0  0  0  0  0
   38.7210   26.6870   37.0440 H   0  0  0  0  0  0  0  0  0  0  0  0
   37.4760   23.6130   37.1910 Cl  0  0  0  0  0  0  0  0  0  0  0  0
   39.1300   23.4580   36.6170 C   0  0  0  0  0  0  0  0  0  0  0  0
   39.7560   24.3610   35.7820 C   0  0  0  0  0  0  0  0  0  0  0  0
   41.0160   24.2710   35.3270 C   0  0  0  0  0  0  0  0  0  0  0  0
   41.7960   23.1760   35.7130 C   0  0  0  0  0  0  0  0  0  0  0  0
   41.2390   22.2370   36.5430 C   0  0  0  0  0  0  0  0  0  0  0  0
   42.1620   20.8420   37.0650 Cl  0  0  0  0  0  0  0  0  0  0  0  0
   39.9310   22.3700   36.9910 C   0  0  0  0  0  0  0  0  0  0  0  0
   41.4800   25.0030   34.6670 H   0  0  0  0  0  0  0  0  0  0  0  0
   42.8130   23.0720   35.3670 H   0  0  0  0  0  0  0  0  0  0  0  0
   39.5310   21.6080   37.6440 H   0  0  0  0  0  0  0  0  0  0  0  0
   35.3150   29.6300   32.1380 C   0  0  0  0  0  0  0  0  0  0  0  0
   35.9060   28.9140   33.2090 C   0  0  0  0  0  0  0  0  0  0  0  0
   36.9850   28.0830   32.8810 C   0  0  0  0  0  0  0  0  0  0  0  0
   37.4070   27.9980   31.6170 N   0  0  0  0  0  0  0  0  0  0  0  0
   36.8150   28.6960   30.6290 C   0  0  0  0  0  0  0  0  0  0  0  0
   35.7840   29.5000   30.8900 N   0  0  0  0  0  0  0  0  0  0  0  0
   34.4770   30.2810   32.3580 H   0  0  0  0  0  0  0  0  0  0  0  0
   35.5610   28.9900   34.2180 H   0  0  0  0  0  0  0  0  0  0  0  0
   38.7140   27.9900   29.3200 C   0  0  2  0  0  3  0  0  0  0  0  0
   37.3030   28.5840   29.2290 C   0  0  2  0  0  3  0  0  0  0  0  0
   37.5930   29.8970   28.5810 C   0  0  0  0  0  3  0  0  0  0  0  0
   37.7350   30.6730   29.3590 H   0  0  0  0  0  0  0  0  0  0  0  0
   38.7460   29.7760   27.8220 O   0  0  0  0  0  0  0  0  0  0  0  0
   39.3070   28.5320   28.0480 C   0  0  0  0  0  3  0  0  0  0  0  0
   39.0580   27.8040   27.2420 H   0  0  0  0  0  0  0  0  0  0  0  0
   38.6720   26.5940   29.2930 O   0  0  0  0  0  0  0  0  0  0  0  0
   39.4760   26.2730   29.7570 H   0  0  0  0  0  0  0  0  0  0  0  0
  1  2  2  0  0  0  0
  2  6  1  0  0  0  0
  2  3  1  0  0  0  0
  3  7  1  0  0  0  0
  4 10  1  0  0  0  0
  4  3  2  0  0  0  0
  5  1  1  0  0  0  0
  5  4  1  0  0  0  0
  9 15  1  0  0  0  0
  9  8  1  0  0  0  0
 10  9  2  0  0  0  0
 11 12  2  0  0  0  0
 11 10  1  0  0  0  0
 12 13  1  0  0  0  0
 13 15  2  0  0  0  0
 13 14  1  0  0  0  0
 15 18  1  0  0  0  0
 16 11  1  0  0  0  0
 17 12  1  0  0  0  0
 19 25  1  0  0  0  0
 19 20  1  0  0  0  0
 20 26  1  0  0  0  0
 21 20  2  0  0  0  0
 21  1  1  0  0  0  0
 22 21  1  0  0  0  0
 23 24  1  0  0  0  0
 23 22  2  0  0  0  0
 24 19  2  0  0  0  0
 27 34  1  6  0  0  0
 28 27  1  0  0  0  0
 28 23  1  1  0  0  0
 29 28  1  0  0  0  0
 29 30  1  0  0  0  0
 31 32  1  0  0  0  0
 31 29  1  0  0  0  0
 32 27  1  0  0  0  0
 33 32  1  0  0  0  0
 34 35  1  0  0  0  0
M  END
>  <minimizedAffinity>
-6.06907988

$$$$

 OpenBabel03272503213D

 35 38  0  0  1  0  0  0  0  0999 V2000
   37.4710   27.3840   34.1800 C   0  0  0  0  0  0  0  0  0  0  0  0
   37.9120   27.6390   35.4290 C   0  0  0  0  0  0  0  0  0  0  0  0
   38.6660   26.7490   36.0800 C   0  0  0  0  0  0  0  0  0  0  0  0
   38.9700   25.5740   35.4230 C   0  0  0  0  0  0  0  0  0  0  0  0
   38.1190   25.7940   33.8070 S   0  0  0  0  0  0  0  0  0  0  0  0
   37.6170   28.5990   35.8630 H   0  0  0  0  0  0  0  0  0  0  0  0
   39.0740   26.8430   37.0780 H   0  0  0  0  0  0  0  0  0  0  0  0
   37.5410   23.6580   37.3290 Cl  0  0  0  0  0  0  0  0  0  0  0  0
   39.1450   23.4890   36.6300 C   0  0  0  0  0  0  0  0  0  0  0  0
   39.7250   24.4030   35.7730 C   0  0  0  0  0  0  0  0  0  0  0  0
   40.9450   24.3040   35.2240 C   0  0  0  0  0  0  0  0  0  0  0  0
   41.7310   23.1860   35.5230 C   0  0  0  0  0  0  0  0  0  0  0  0
   41.2190   22.2350   36.3690 C   0  0  0  0  0  0  0  0  0  0  0  0
   42.1510   20.8110   36.7850 Cl  0  0  0  0  0  0  0  0  0  0  0  0
   39.9500   22.3790   36.9150 C   0  0  0  0  0  0  0  0  0  0  0  0
   41.3730   25.0450   34.5500 H   0  0  0  0  0  0  0  0  0  0  0  0
   42.7170   23.0730   35.1000 H   0  0  0  0  0  0  0  0  0  0  0  0
   39.5850   21.6060   37.5770 H   0  0  0  0  0  0  0  0  0  0  0  0
   36.1900   29.0810   31.0840 C   0  0  0  0  0  0  0  0  0  0  0  0
   37.0490   28.3170   31.9120 C   0  0  0  0  0  0  0  0  0  0  0  0
   36.6500   28.1590   33.2460 C   0  0  0  0  0  0  0  0  0  0  0  0
   35.5140   28.7140   33.6770 N   0  0  0  0  0  0  0  0  0  0  0  0
   34.7270   29.4340   32.8550 C   0  0  0  0  0  0  0  0  0  0  0  0
   35.0630   29.6130   31.5780 N   0  0  0  0  0  0  0  0  0  0  0  0
   36.4700   29.2230   30.0480 H   0  0  0  0  0  0  0  0  0  0  0  0
   37.9560   27.8760   31.5570 H   0  0  0  0  0  0  0  0  0  0  0  0
   33.4460   29.7800   34.8690 C   0  0  2  0  0  3  0  0  0  0  0  0
   33.4670   30.0420   33.3580 C   0  0  2  0  0  3  0  0  0  0  0  0
   32.2320   29.3200   32.9330 C   0  0  0  0  0  3  0  0  0  0  0  0
   32.4920   28.2850   32.6310 H   0  0  0  0  0  0  0  0  0  0  0  0
   31.3420   29.2900   33.9930 O   0  0  0  0  0  0  0  0  0  0  0  0
   31.9630   29.8050   35.1180 C   0  0  0  0  0  3  0  0  0  0  0  0
   31.6860   30.8680   35.3030 H   0  0  0  0  0  0  0  0  0  0  0  0
   34.0830   30.8110   35.5640 O   0  0  0  0  0  0  0  0  0  0  0  0
   34.4120   30.4290   36.4080 H   0  0  0  0  0  0  0  0  0  0  0  0
  1  2  2  0  0  0  0
  2  6  1  0  0  0  0
  2  3  1  0  0  0  0
  3  7  1  0  0  0  0
  4 10  1  0  0  0  0
  4  3  2  0  0  0  0
  5  1  1  0  0  0  0
  5  4  1  0  0  0  0
  9 15  1  0  0  0  0
  9  8  1  0  0  0  0
 10  9  2  0  0  0  0
 11 12  2  0  0  0  0
 11 10  1  0  0  0  0
 12 13  1  0  0  0  0
 13 14  1  0  0  0  0
 13 15  2  0  0  0  0
 15 18  1  0  0  0  0
 16 11  1  0  0  0  0
 17 12  1  0  0  0  0
 19 24  2  0  0  0  0
 19 20  1  0  0  0  0
 20 21  2  0  0  0  0
 21 22  1  0  0  0  0
 21  1  1  0  0  0  0
 23 22  2  0  0  0  0
 24 23  1  0  0  0  0
 25 19  1  0  0  0  0
 26 20  1  0  0  0  0
 27 32  1  0  0  0  0
 27 34  1  1  0  0  0
 28 23  1  6  0  0  0
 28 27  1  0  0  0  0
 29 28  1  0  0  0  0
 29 31  1  0  0  0  0
 30 29  1  0  0  0  0
 31 32  1  0  0  0  0
 32 33  1  0  0  0  0
 34 35  1  0  0  0  0
M  END
>  <minimizedAffinity>
-6.04541254

$$$$

 OpenBabel03272503213D

 35 38  0  0  1  0  0  0  0  0999 V2000
   36.9900   27.2140   33.3170 C   0  0  0  0  0  0  0  0  0  0  0  0
   36.3710   28.0290   32.4380 C   0  0  0  0  0  0  0  0  0  0  0  0
   35.7270   29.1210   32.8580 C   0  0  0  0  0  0  0  0  0  0  0  0
   35.7240   29.3730   34.2150 C   0  0  0  0  0  0  0  0  0  0  0  0
   36.6980   27.9610   34.8810 S   0  0  0  0  0  0  0  0  0  0  0  0
   36.4310   27.7420   31.3840 H   0  0  0  0  0  0  0  0  0  0  0  0
   35.1990   29.8440   32.2490 H   0  0  0  0  0  0  0  0  0  0  0  0
   32.6780   29.2890   34.4480 Cl  0  0  0  0  0  0  0  0  0  0  0  0
   33.7860   30.4340   35.1900 C   0  0  0  0  0  0  0  0  0  0  0  0
   35.1580   30.4070   35.0350 C   0  0  0  0  0  0  0  0  0  0  0  0
   36.0290   31.2670   35.5850 C   0  0  0  0  0  0  0  0  0  0  0  0
   35.5410   32.2960   36.3970 C   0  0  0  0  0  0  0  0  0  0  0  0
   34.1870   32.3840   36.5960 C   0  0  0  0  0  0  0  0  0  0  0  0
   33.5100   33.6500   37.6010 Cl  0  0  0  0  0  0  0  0  0  0  0  0
   33.3200   31.4730   36.0060 C   0  0  0  0  0  0  0  0  0  0  0  0
   37.1080   31.2170   35.4420 H   0  0  0  0  0  0  0  0  0  0  0  0
   36.2130   33.0040   36.8560 H   0  0  0  0  0  0  0  0  0  0  0  0
   32.2610   31.5790   36.1890 H   0  0  0  0  0  0  0  0  0  0  0  0
   39.1110   24.4810   31.8580 C   0  0  0  0  0  0  0  0  0  0  0  0
   38.3920   25.7000   31.9290 C   0  0  0  0  0  0  0  0  0  0  0  0
   37.7570   25.9770   33.1460 C   0  0  0  0  0  0  0  0  0  0  0  0
   37.8470   25.1160   34.1620 N   0  0  0  0  0  0  0  0  0  0  0  0
   38.5410   23.9670   34.0510 C   0  0  0  0  0  0  0  0  0  0  0  0
   39.1630   23.6570   32.9140 N   0  0  0  0  0  0  0  0  0  0  0  0
   39.6130   24.2350   30.9300 H   0  0  0  0  0  0  0  0  0  0  0  0
   38.3270   26.3830   31.1090 H   0  0  0  0  0  0  0  0  0  0  0  0
   38.7280   23.8950   36.4550 C   0  0  2  0  0  3  0  0  0  0  0  0
   38.6270   23.0240   35.1970 C   0  0  2  0  0  3  0  0  0  0  0  0
   39.9150   22.2740   35.2720 C   0  0  0  0  0  3  0  0  0  0  0  0
   40.6910   22.8090   34.6870 H   0  0  0  0  0  0  0  0  0  0  0  0
   40.3050   22.1850   36.5980 O   0  0  0  0  0  0  0  0  0  0  0  0
   39.4480   22.9460   37.3730 C   0  0  0  0  0  3  0  0  0  0  0  0
   38.6680   22.3260   37.8710 H   0  0  0  0  0  0  0  0  0  0  0  0
   37.4610   24.2030   36.9540 O   0  0  0  0  0  0  0  0  0  0  0  0
   37.5430   25.0470   37.4500 H   0  0  0  0  0  0  0  0  0  0  0  0
  1  5  1  0  0  0  0
  2  3  1  0  0  0  0
  2  1  2  0  0  0  0
  3  4  2  0  0  0  0
  4  5  1  0  0  0  0
  4 10  1  0  0  0  0
  6  2  1  0  0  0  0
  7  3  1  0  0  0  0
  8  9  1  0  0  0  0
  9 15  1  0  0  0  0
 10  9  2  0  0  0  0
 10 11  1  0  0  0  0
 11 12  2  0  0  0  0
 12 13  1  0  0  0  0
 12 17  1  0  0  0  0
 13 14  1  0  0  0  0
 15 18  1  0  0  0  0
 15 13  2  0  0  0  0
 16 11  1  0  0  0  0
 19 20  2  0  0  0  0
 19 24  1  0  0  0  0
 20 21  1  0  0  0  0
 21  1  1  0  0  0  0
 21 22  2  0  0  0  0
 23 22  1  0  0  0  0
 24 23  2  0  0  0  0
 25 19  1  0  0  0  0
 26 20  1  0  0  0  0
 27 34  1  1  0  0  0
 27 32  1  0  0  0  0
 28 23  1  6  0  0  0
 28 29  1  0  0  0  0
 28 27  1  0  0  0  0
 29 31  1  0  0  0  0
 30 29  1  0  0  0  0
 31 32  1  0  0  0  0
 32 33  1  0  0  0  0
 34 35  1  0  0  0  0
M  END
>  <minimizedAffinity>
-5.93938494

$$$$

 OpenBabel03272503213D

 35 38  0  0  1  0  0  0  0  0999 V2000
   37.2410   26.8180   33.5490 C   0  0  0  0  0  0  0  0  0  0  0  0
   37.1030   25.6140   32.9560 C   0  0  0  0  0  0  0  0  0  0  0  0
   37.7570   24.5470   33.4230 C   0  0  0  0  0  0  0  0  0  0  0  0
   38.5680   24.7310   34.5240 C   0  0  0  0  0  0  0  0  0  0  0  0
   38.3560   26.5250   34.8740 S   0  0  0  0  0  0  0  0  0  0  0  0
   36.4370   25.5710   32.0900 H   0  0  0  0  0  0  0  0  0  0  0  0
   37.7240   23.5380   33.0330 H   0  0  0  0  0  0  0  0  0  0  0  0
   37.4790   24.0210   37.2910 Cl  0  0  0  0  0  0  0  0  0  0  0  0
   38.9880   23.4960   36.5570 C   0  0  0  0  0  0  0  0  0  0  0  0
   39.4130   23.8630   35.2960 C   0  0  0  0  0  0  0  0  0  0  0  0
   40.5580   23.4810   34.7090 C   0  0  0  0  0  0  0  0  0  0  0  0
   41.4240   22.6330   35.4070 C   0  0  0  0  0  0  0  0  0  0  0  0
   41.0660   22.2270   36.6670 C   0  0  0  0  0  0  0  0  0  0  0  0
   42.1050   21.1650   37.5960 Cl  0  0  0  0  0  0  0  0  0  0  0  0
   39.8710   22.6480   37.2370 C   0  0  0  0  0  0  0  0  0  0  0  0
   40.8640   23.7890   33.7100 H   0  0  0  0  0  0  0  0  0  0  0  0
   42.3520   22.3050   34.9650 H   0  0  0  0  0  0  0  0  0  0  0  0
   39.6270   22.3040   38.2320 H   0  0  0  0  0  0  0  0  0  0  0  0
   36.0690   29.9130   31.7740 C   0  0  0  0  0  0  0  0  0  0  0  0
   36.6550   28.6360   31.9550 C   0  0  0  0  0  0  0  0  0  0  0  0
   36.6580   28.1320   33.2610 C   0  0  0  0  0  0  0  0  0  0  0  0
   36.1260   28.8450   34.2580 N   0  0  0  0  0  0  0  0  0  0  0  0
   35.5790   30.0560   34.0420 C   0  0  0  0  0  0  0  0  0  0  0  0
   35.5530   30.5800   32.8160 N   0  0  0  0  0  0  0  0  0  0  0  0
   36.0520   30.3330   30.7760 H   0  0  0  0  0  0  0  0  0  0  0  0
   37.0770   28.0740   31.1500 H   0  0  0  0  0  0  0  0  0  0  0  0
   34.1940   31.9710   34.5250 C   0  0  2  0  0  3  0  0  0  0  0  0
   34.9940   30.8310   35.1670 C   0  0  2  0  0  3  0  0  0  0  0  0
   35.9960   31.6040   35.9580 C   0  0  0  0  0  3  0  0  0  0  0  0
   36.9170   31.7440   35.3560 H   0  0  0  0  0  0  0  0  0  0  0  0
   35.4560   32.8370   36.2830 O   0  0  0  0  0  0  0  0  0  0  0  0
   34.2400   32.9810   35.6390 C   0  0  0  0  0  3  0  0  0  0  0  0
   33.3780   32.7600   36.3090 H   0  0  0  0  0  0  0  0  0  0  0  0
   32.8790   31.5750   34.2680 O   0  0  0  0  0  0  0  0  0  0  0  0
   32.5530   32.1270   33.5230 H   0  0  0  0  0  0  0  0  0  0  0  0
  1  5  1  0  0  0  0
  2  3  1  0  0  0  0
  2  1  2  0  0  0  0
  3  4  2  0  0  0  0
  4  5  1  0  0  0  0
  4 10  1  0  0  0  0
  6  2  1  0  0  0  0
  7  3  1  0  0  0  0
  9 15  1  0  0  0  0
  9  8  1  0  0  0  0
 10  9  2  0  0  0  0
 11 10  1  0  0  0  0
 11 12  2  0  0  0  0
 12 13  1  0  0  0  0
 13 15  2  0  0  0  0
 13 14  1  0  0  0  0
 15 18  1  0  0  0  0
 16 11  1  0  0  0  0
 17 12  1  0  0  0  0
 19 20  2  0  0  0  0
 19 24  1  0  0  0  0
 20 21  1  0  0  0  0
 21  1  1  0  0  0  0
 21 22  2  0  0  0  0
 23 22  1  0  0  0  0
 24 23  2  0  0  0  0
 25 19  1  0  0  0  0
 26 20  1  0  0  0  0
 27 34  1  1  0  0  0
 27 28  1  0  0  0  0
 27 32  1  0  0  0  0
 28 23  1  6  0  0  0
 28 29  1  0  0  0  0
 29 31  1  0  0  0  0
 30 29  1  0  0  0  0
 32 31  1  0  0  0  0
 32 33  1  0  0  0  0
 35 34  1  0  0  0  0
M  END
>  <minimizedAffinity>
-5.7974124

$$$$

 OpenBabel03272503213D

 35 38  0  0  1  0  0  0  0  0999 V2000
   35.6530   29.7380   33.8660 C   0  0  0  0  0  0  0  0  0  0  0  0
   35.7710   30.0050   32.5490 C   0  0  0  0  0  0  0  0  0  0  0  0
   36.4040   29.1550   31.7350 C   0  0  0  0  0  0  0  0  0  0  0  0
   36.9240   28.0070   32.2980 C   0  0  0  0  0  0  0  0  0  0  0  0
   36.4640   28.1930   34.0690 S   0  0  0  0  0  0  0  0  0  0  0  0
   35.3250   30.9410   32.2000 H   0  0  0  0  0  0  0  0  0  0  0  0
   36.5590   29.2630   30.6690 H   0  0  0  0  0  0  0  0  0  0  0  0
   35.1820   25.7910   31.1140 Cl  0  0  0  0  0  0  0  0  0  0  0  0
   36.9360   25.8440   31.2240 C   0  0  0  0  0  0  0  0  0  0  0  0
   37.6540   26.8850   31.7770 C   0  0  0  0  0  0  0  0  0  0  0  0
   38.9910   26.9550   31.8770 C   0  0  0  0  0  0  0  0  0  0  0  0
   39.7600   25.8950   31.3850 C   0  0  0  0  0  0  0  0  0  0  0  0
   39.1140   24.8250   30.8210 C   0  0  0  0  0  0  0  0  0  0  0  0
   40.0180   23.4640   30.1870 Cl  0  0  0  0  0  0  0  0  0  0  0  0
   37.7270   24.7940   30.7390 C   0  0  0  0  0  0  0  0  0  0  0  0
   39.5270   27.7930   32.3190 H   0  0  0  0  0  0  0  0  0  0  0  0
   40.8370   25.9170   31.4490 H   0  0  0  0  0  0  0  0  0  0  0  0
   37.2580   23.9320   30.2870 H   0  0  0  0  0  0  0  0  0  0  0  0
   35.0700   32.0510   36.7660 C   0  0  0  0  0  0  0  0  0  0  0  0
   35.7630   31.3910   35.7210 C   0  0  0  0  0  0  0  0  0  0  0  0
   35.0240   30.4690   34.9690 C   0  0  0  0  0  0  0  0  0  0  0  0
   33.7370   30.2510   35.2510 N   0  0  0  0  0  0  0  0  0  0  0  0
   33.1170   30.9000   36.2550 C   0  0  0  0  0  0  0  0  0  0  0  0
   33.7770   31.7860   37.0000 N   0  0  0  0  0  0  0  0  0  0  0  0
   35.6130   32.7690   37.3680 H   0  0  0  0  0  0  0  0  0  0  0  0
   36.7940   31.5740   35.5040 H   0  0  0  0  0  0  0  0  0  0  0  0
   31.6130   29.1940   37.0600 C   0  0  2  0  0  3  0  0  0  0  0  0
   31.6840   30.6390   36.5490 C   0  0  2  0  0  3  0  0  0  0  0  0
   30.8220   30.5480   35.3340 C   0  0  0  0  0  3  0  0  0  0  0  0
   31.4510   30.3350   34.4460 H   0  0  0  0  0  0  0  0  0  0  0  0
   29.9020   29.5280   35.5130 O   0  0  0  0  0  0  0  0  0  0  0  0
   30.1970   28.8540   36.6850 C   0  0  0  0  0  3  0  0  0  0  0  0
   29.5520   29.1800   37.5330 H   0  0  0  0  0  0  0  0  0  0  0  0
   31.7850   29.1450   38.4460 O   0  0  0  0  0  0  0  0  0  0  0  0
   32.1440   28.2560   38.6600 H   0  0  0  0  0  0  0  0  0  0  0  0
  1  5  1  0  0  0  0
  1 21  1  0  0  0  0
  2  1  2  0  0  0  0
  3  4  2  0  0  0  0
  3  2  1  0  0  0  0
  4  5  1  0  0  0  0
  6  2  1  0  0  0  0
  7  3  1  0  0  0  0
  8  9  1  0  0  0  0
  9 10  1  0  0  0  0
 10 11  2  0  0  0  0
 10  4  1  0  0  0  0
 11 16  1  0  0  0  0
 12 17  1  0  0  0  0
 12 11  1  0  0  0  0
 13 12  2  0  0  0  0
 14 13  1  0  0  0  0
 15 13  1  0  0  0  0
 15  9  2  0  0  0  0
 18 15  1  0  0  0  0
 19 24  1  0  0  0  0
 19 25  1  0  0  0  0
 20 19  2  0  0  0  0
 21 22  2  0  0  0  0
 21 20  1  0  0  0  0
 22 23  1  0  0  0  0
 23 24  2  0  0  0  0
 26 20  1  0  0  0  0
 27 34  1  1  0  0  0
 28 23  1  6  0  0  0
 28 27  1  0  0  0  0
 29 31  1  0  0  0  0
 29 28  1  0  0  0  0
 30 29  1  0  0  0  0
 31 32  1  0  0  0  0
 32 27  1  0  0  0  0
 32 33  1  0  0  0  0
 34 35  1  0  0  0  0
M  END
>  <minimizedAffinity>
-5.79568005

$$$$

 OpenBabel03272503213D

 35 38  0  0  1  0  0  0  0  0999 V2000
   36.7360   27.3870   32.8950 C   0  0  0  0  0  0  0  0  0  0  0  0
   36.0560   28.2500   32.1120 C   0  0  0  0  0  0  0  0  0  0  0  0
   35.4560   29.3200   32.6400 C   0  0  0  0  0  0  0  0  0  0  0  0
   35.5630   29.5000   34.0040 C   0  0  0  0  0  0  0  0  0  0  0  0
   36.5750   28.0500   34.5140 S   0  0  0  0  0  0  0  0  0  0  0  0
   36.0300   28.0200   31.0430 H   0  0  0  0  0  0  0  0  0  0  0  0
   34.8870   30.0770   32.1150 H   0  0  0  0  0  0  0  0  0  0  0  0
   32.5820   29.2770   34.6440 Cl  0  0  0  0  0  0  0  0  0  0  0  0
   33.7340   30.4540   35.2600 C   0  0  0  0  0  0  0  0  0  0  0  0
   35.0720   30.4900   34.9210 C   0  0  0  0  0  0  0  0  0  0  0  0
   35.9750   31.3750   35.3720 C   0  0  0  0  0  0  0  0  0  0  0  0
   35.5600   32.3640   36.2690 C   0  0  0  0  0  0  0  0  0  0  0  0
   34.2430   32.3900   36.6510 C   0  0  0  0  0  0  0  0  0  0  0  0
   33.6580   33.6030   37.7720 Cl  0  0  0  0  0  0  0  0  0  0  0  0
   33.3420   31.4540   36.1590 C   0  0  0  0  0  0  0  0  0  0  0  0
   37.0250   31.3750   35.0840 H   0  0  0  0  0  0  0  0  0  0  0  0
   36.2590   33.0920   36.6520 H   0  0  0  0  0  0  0  0  0  0  0  0
   32.3130   31.5100   36.4860 H   0  0  0  0  0  0  0  0  0  0  0  0
   39.4760   24.9720   32.0230 C   0  0  0  0  0  0  0  0  0  0  0  0
   38.8440   26.2110   32.2960 C   0  0  0  0  0  0  0  0  0  0  0  0
   37.4770   26.1590   32.5970 C   0  0  0  0  0  0  0  0  0  0  0  0
   36.8380   24.9860   32.6180 N   0  0  0  0  0  0  0  0  0  0  0  0
   37.4780   23.8310   32.3510 C   0  0  0  0  0  0  0  0  0  0  0  0
   38.7780   23.8280   32.0580 N   0  0  0  0  0  0  0  0  0  0  0  0
   40.5330   24.9770   31.7840 H   0  0  0  0  0  0  0  0  0  0  0  0
   39.3660   27.1430   32.2770 H   0  0  0  0  0  0  0  0  0  0  0  0
   37.6800   21.5070   31.7370 C   0  0  2  0  0  3  0  0  0  0  0  0
   36.7450   22.5390   32.3800 C   0  0  2  0  0  3  0  0  0  0  0  0
   35.5810   22.4810   31.4480 C   0  0  0  0  0  3  0  0  0  0  0  0
   35.6930   23.2560   30.6640 H   0  0  0  0  0  0  0  0  0  0  0  0
   35.5370   21.2250   30.8640 O   0  0  0  0  0  0  0  0  0  0  0  0
   36.6670   20.5170   31.2310 C   0  0  0  0  0  3  0  0  0  0  0  0
   36.4670   19.8070   32.0670 H   0  0  0  0  0  0  0  0  0  0  0  0
   38.5120   20.9220   32.6940 O   0  0  0  0  0  0  0  0  0  0  0  0
   39.3220   20.6220   32.2260 H   0  0  0  0  0  0  0  0  0  0  0  0
  1  5  1  0  0  0  0
  2  3  1  0  0  0  0
  2  1  2  0  0  0  0
  3  4  2  0  0  0  0
  4  5  1  0  0  0  0
  4 10  1  0  0  0  0
  6  2  1  0  0  0  0
  7  3  1  0  0  0  0
  8  9  1  0  0  0  0
  9 15  1  0  0  0  0
 10  9  2  0  0  0  0
 10 11  1  0  0  0  0
 11 12  2  0  0  0  0
 12 13  1  0  0  0  0
 12 17  1  0  0  0  0
 13 14  1  0  0  0  0
 15 18  1  0  0  0  0
 15 13  2  0  0  0  0
 16 11  1  0  0  0  0
 19 24  2  0  0  0  0
 19 20  1  0  0  0  0
 20 21  2  0  0  0  0
 21 22  1  0  0  0  0
 21  1  1  0  0  0  0
 23 22  2  0  0  0  0
 24 23  1  0  0  0  0
 25 19  1  0  0  0  0
 26 20  1  0  0  0  0
 27 28  1  0  0  0  0
 27 34  1  1  0  0  0
 28 23  1  6  0  0  0
 29 28  1  0  0  0  0
 30 29  1  0  0  0  0
 31 32  1  0  0  0  0
 31 29  1  0  0  0  0
 32 27  1  0  0  0  0
 32 33  1  0  0  0  0
 35 34  1  0  0  0  0
M  END
>  <minimizedAffinity>
-5.78055525

$$$$

 OpenBabel03272503213D

 35 38  0  0  1  0  0  0  0  0999 V2000
   36.3320   27.7860   32.8280 C   0  0  0  0  0  0  0  0  0  0  0  0
   35.6410   28.7010   32.1180 C   0  0  0  0  0  0  0  0  0  0  0  0
   35.1560   29.7970   32.7070 C   0  0  0  0  0  0  0  0  0  0  0  0
   35.3930   29.9470   34.0590 C   0  0  0  0  0  0  0  0  0  0  0  0
   36.3550   28.4310   34.4620 S   0  0  0  0  0  0  0  0  0  0  0  0
   35.5070   28.4900   31.0520 H   0  0  0  0  0  0  0  0  0  0  0  0
   34.5910   30.5940   32.2430 H   0  0  0  0  0  0  0  0  0  0  0  0
   32.6750   29.5410   35.3970 Cl  0  0  0  0  0  0  0  0  0  0  0  0
   33.8330   30.8350   35.6740 C   0  0  0  0  0  0  0  0  0  0  0  0
   35.0460   30.9510   35.0260 C   0  0  0  0  0  0  0  0  0  0  0  0
   35.9490   31.9250   35.2140 C   0  0  0  0  0  0  0  0  0  0  0  0
   35.6710   32.9320   36.1440 C   0  0  0  0  0  0  0  0  0  0  0  0
   34.4830   32.8810   36.8270 C   0  0  0  0  0  0  0  0  0  0  0  0
   34.0740   34.1120   38.0060 Cl  0  0  0  0  0  0  0  0  0  0  0  0
   33.5760   31.8540   36.6000 C   0  0  0  0  0  0  0  0  0  0  0  0
   36.8990   31.9870   34.6840 H   0  0  0  0  0  0  0  0  0  0  0  0
   36.3750   33.7310   36.3210 H   0  0  0  0  0  0  0  0  0  0  0  0
   32.6520   31.8520   37.1600 H   0  0  0  0  0  0  0  0  0  0  0  0
   37.7060   24.9110   30.8400 C   0  0  0  0  0  0  0  0  0  0  0  0
   37.0760   26.1520   31.1050 C   0  0  0  0  0  0  0  0  0  0  0  0
   36.9680   26.5200   32.4520 C   0  0  0  0  0  0  0  0  0  0  0  0
   37.4470   25.7180   33.4070 N   0  0  0  0  0  0  0  0  0  0  0  0
   38.0390   24.5460   33.1100 C   0  0  0  0  0  0  0  0  0  0  0  0
   38.1650   24.1510   31.8430 N   0  0  0  0  0  0  0  0  0  0  0  0
   37.8040   24.5970   29.8080 H   0  0  0  0  0  0  0  0  0  0  0  0
   36.6970   26.7870   30.3330 H   0  0  0  0  0  0  0  0  0  0  0  0
   37.7330   22.3830   34.1340 C   0  0  2  0  0  3  0  0  0  0  0  0
   38.5630   23.6710   34.1910 C   0  0  2  0  0  3  0  0  0  0  0  0
   38.2420   24.1490   35.5690 C   0  0  0  0  0  3  0  0  0  0  0  0
   37.3850   24.8510   35.5280 H   0  0  0  0  0  0  0  0  0  0  0  0
   37.9180   23.0580   36.3570 O   0  0  0  0  0  0  0  0  0  0  0  0
   37.8590   21.9270   35.5610 C   0  0  0  0  0  3  0  0  0  0  0  0
   38.7900   21.3180   35.6240 H   0  0  0  0  0  0  0  0  0  0  0  0
   38.3100   21.4550   33.2640 O   0  0  0  0  0  0  0  0  0  0  0  0
   37.5860   20.8740   32.9410 H   0  0  0  0  0  0  0  0  0  0  0  0
  1  5  1  0  0  0  0
  2  3  1  0  0  0  0
  2  1  2  0  0  0  0
  3  4  2  0  0  0  0
  4  5  1  0  0  0  0
  4 10  1  0  0  0  0
  6  2  1  0  0  0  0
  7  3  1  0  0  0  0
  8  9  1  0  0  0  0
  9 15  1  0  0  0  0
 10 11  1  0  0  0  0
 10  9  2  0  0  0  0
 11 12  2  0  0  0  0
 12 17  1  0  0  0  0
 12 13  1  0  0  0  0
 13 14  1  0  0  0  0
 15 13  2  0  0  0  0
 15 18  1  0  0  0  0
 16 11  1  0  0  0  0
 19 20  2  0  0  0  0
 19 24  1  0  0  0  0
 20 21  1  0  0  0  0
 21  1  1  0  0  0  0
 21 22  2  0  0  0  0
 23 22  1  0  0  0  0
 24 23  2  0  0  0  0
 25 19  1  0  0  0  0
 26 20  1  0  0  0  0
 27 34  1  6  0  0  0
 27 28  1  0  0  0  0
 27 32  1  0  0  0  0
 28 23  1  6  0  0  0
 28 29  1  0  0  0  0
 29 31  1  0  0  0  0
 30 29  1  0  0  0  0
 32 33  1  0  0  0  0
 32 31  1  0  0  0  0
 35 34  1  0  0  0  0
M  END
>  <minimizedAffinity>
-5.77228594

$$$$

 OpenBabel03272503213D

 35 38  0  0  1  0  0  0  0  0999 V2000
   37.7940   27.1410   33.8000 C   0  0  0  0  0  0  0  0  0  0  0  0
   37.8620   27.3210   35.1350 C   0  0  0  0  0  0  0  0  0  0  0  0
   38.5360   26.4620   35.9050 C   0  0  0  0  0  0  0  0  0  0  0  0
   39.1520   25.3970   35.2780 C   0  0  0  0  0  0  0  0  0  0  0  0
   38.7220   25.6770   33.5110 S   0  0  0  0  0  0  0  0  0  0  0  0
   37.3400   28.1950   35.5360 H   0  0  0  0  0  0  0  0  0  0  0  0
   38.6580   26.5040   36.9790 H   0  0  0  0  0  0  0  0  0  0  0  0
   42.1280   25.5840   34.6040 Cl  0  0  0  0  0  0  0  0  0  0  0  0
   41.2960   24.3030   35.4760 C   0  0  0  0  0  0  0  0  0  0  0  0
   39.9410   24.2900   35.7410 C   0  0  0  0  0  0  0  0  0  0  0  0
   39.2770   23.3290   36.4010 C   0  0  0  0  0  0  0  0  0  0  0  0
   39.9890   22.2240   36.8800 C   0  0  0  0  0  0  0  0  0  0  0  0
   41.3410   22.1700   36.6530 C   0  0  0  0  0  0  0  0  0  0  0  0
   42.2920   20.8140   37.2260 Cl  0  0  0  0  0  0  0  0  0  0  0  0
   41.9880   23.1880   35.9640 C   0  0  0  0  0  0  0  0  0  0  0  0
   38.2050   23.3500   36.5940 H   0  0  0  0  0  0  0  0  0  0  0  0
   39.4880   21.4330   37.4160 H   0  0  0  0  0  0  0  0  0  0  0  0
   43.0540   23.1050   35.8070 H   0  0  0  0  0  0  0  0  0  0  0  0
   36.8610   28.5330   30.4390 C   0  0  0  0  0  0  0  0  0  0  0  0
   37.5490   27.7520   31.4010 C   0  0  0  0  0  0  0  0  0  0  0  0
   37.1440   27.9060   32.7330 C   0  0  0  0  0  0  0  0  0  0  0  0
   36.1580   28.7530   33.0410 N   0  0  0  0  0  0  0  0  0  0  0  0
   35.5310   29.4770   32.0940 C   0  0  0  0  0  0  0  0  0  0  0  0
   35.8800   29.3660   30.8130 N   0  0  0  0  0  0  0  0  0  0  0  0
   37.1510   28.4380   29.4000 H   0  0  0  0  0  0  0  0  0  0  0  0
   38.3370   27.0770   31.1430 H   0  0  0  0  0  0  0  0  0  0  0  0
   33.2660   29.5340   32.9210 C   0  0  2  0  0  3  0  0  0  0  0  0
   34.4360   30.4120   32.4620 C   0  0  2  0  0  3  0  0  0  0  0  0
   33.8190   31.1140   31.2980 C   0  0  0  0  0  3  0  0  0  0  0  0
   34.0390   30.5520   30.3670 H   0  0  0  0  0  0  0  0  0  0  0  0
   32.4500   31.1850   31.4910 O   0  0  0  0  0  0  0  0  0  0  0  0
   32.1140   30.4530   32.6170 C   0  0  0  0  0  3  0  0  0  0  0  0
   31.9740   31.1000   33.5140 H   0  0  0  0  0  0  0  0  0  0  0  0
   33.3440   29.2720   34.2910 O   0  0  0  0  0  0  0  0  0  0  0  0
   32.8740   28.4240   34.4490 H   0  0  0  0  0  0  0  0  0  0  0  0
  1  2  2  0  0  0  0
  2  6  1  0  0  0  0
  2  3  1  0  0  0  0
  3  7  1  0  0  0  0
  4 10  1  0  0  0  0
  4  3  2  0  0  0  0
  5  1  1  0  0  0  0
  5  4  1  0  0  0  0
  8  9  1  0  0  0  0
  9 10  2  0  0  0  0
  9 15  1  0  0  0  0
 10 11  1  0  0  0  0
 11 16  1  0  0  0  0
 11 12  2  0  0  0  0
 12 17  1  0  0  0  0
 13 12  1  0  0  0  0
 13 14  1  0  0  0  0
 15 13  2  0  0  0  0
 18 15  1  0  0  0  0
 19 24  2  0  0  0  0
 19 20  1  0  0  0  0
 20 21  2  0  0  0  0
 21 22  1  0  0  0  0
 21  1  1  0  0  0  0
 23 22  2  0  0  0  0
 24 23  1  0  0  0  0
 25 19  1  0  0  0  0
 26 20  1  0  0  0  0
 27 34  1  1  0  0  0
 28 23  1  6  0  0  0
 28 27  1  0  0  0  0
 29 31  1  0  0  0  0
 29 28  1  0  0  0  0
 30 29  1  0  0  0  0
 31 32  1  0  0  0  0
 32 27  1  0  0  0  0
 32 33  1  0  0  0  0
 34 35  1  0  0  0  0
M  END
>  <minimizedAffinity>
-5.74002266

$$$$

 OpenBabel03272503213D

 35 38  0  0  1  0  0  0  0  0999 V2000
   37.3020   25.3730   32.7620 C   0  0  0  0  0  0  0  0  0  0  0  0
   36.3770   25.6960   31.8340 C   0  0  0  0  0  0  0  0  0  0  0  0
   35.8590   26.9260   31.7880 C   0  0  0  0  0  0  0  0  0  0  0  0
   36.3100   27.8400   32.7200 C   0  0  0  0  0  0  0  0  0  0  0  0
   37.5260   26.8510   33.6840 S   0  0  0  0  0  0  0  0  0  0  0  0
   36.0860   24.9020   31.1400 H   0  0  0  0  0  0  0  0  0  0  0  0
   35.1170   27.2980   31.0930 H   0  0  0  0  0  0  0  0  0  0  0  0
   36.8390   29.7490   30.3930 Cl  0  0  0  0  0  0  0  0  0  0  0  0
   36.2160   30.1400   31.9900 C   0  0  0  0  0  0  0  0  0  0  0  0
   36.0050   29.2160   32.9940 C   0  0  0  0  0  0  0  0  0  0  0  0
   35.5330   29.4820   34.2220 C   0  0  0  0  0  0  0  0  0  0  0  0
   35.2150   30.8040   34.5500 C   0  0  0  0  0  0  0  0  0  0  0  0
   35.3990   31.7760   33.6010 C   0  0  0  0  0  0  0  0  0  0  0  0
   35.0210   33.4510   33.9490 Cl  0  0  0  0  0  0  0  0  0  0  0  0
   35.8910   31.4560   32.3420 C   0  0  0  0  0  0  0  0  0  0  0  0
   35.3770   28.7280   34.9920 H   0  0  0  0  0  0  0  0  0  0  0  0
   34.8330   31.0540   35.5280 H   0  0  0  0  0  0  0  0  0  0  0  0
   36.0210   32.2530   31.6240 H   0  0  0  0  0  0  0  0  0  0  0  0
   39.2390   22.1810   32.3590 C   0  0  0  0  0  0  0  0  0  0  0  0
   38.5520   23.3650   31.9920 C   0  0  0  0  0  0  0  0  0  0  0  0
   38.0280   24.1310   33.0410 C   0  0  0  0  0  0  0  0  0  0  0  0
   38.1880   23.7360   34.3060 N   0  0  0  0  0  0  0  0  0  0  0  0
   38.8480   22.6020   34.6110 C   0  0  0  0  0  0  0  0  0  0  0  0
   39.3640   21.8380   33.6490 N   0  0  0  0  0  0  0  0  0  0  0  0
   39.6550   21.5650   31.5720 H   0  0  0  0  0  0  0  0  0  0  0  0
   38.4300   23.6720   30.9760 H   0  0  0  0  0  0  0  0  0  0  0  0
   38.5280   23.3650   36.8770 C   0  0  2  0  0  3  0  0  0  0  0  0
   39.0120   22.1830   36.0280 C   0  0  2  0  0  3  0  0  0  0  0  0
   40.4350   22.0860   36.4710 C   0  0  0  0  0  3  0  0  0  0  0  0
   41.0780   22.6780   35.7890 H   0  0  0  0  0  0  0  0  0  0  0  0
   40.5370   22.5800   37.7600 O   0  0  0  0  0  0  0  0  0  0  0  0
   39.3220   23.1270   38.1320 C   0  0  0  0  0  3  0  0  0  0  0  0
   38.7220   22.4330   38.7650 H   0  0  0  0  0  0  0  0  0  0  0  0
   37.1580   23.2690   37.1310 O   0  0  0  0  0  0  0  0  0  0  0  0
   36.8290   24.1830   37.2830 H   0  0  0  0  0  0  0  0  0  0  0  0
  1 21  1  0  0  0  0
  1  5  1  0  0  0  0
  2  1  2  0  0  0  0
  3  2  1  0  0  0  0
  3  4  2  0  0  0  0
  4 10  1  0  0  0  0
  4  5  1  0  0  0  0
  6  2  1  0  0  0  0
  7  3  1  0  0  0  0
  8  9  1  0  0  0  0
  9 15  2  0  0  0  0
  9 10  1  0  0  0  0
 10 11  2  0  0  0  0
 11 12  1  0  0  0  0
 11 16  1  0  0  0  0
 12 17  1  0  0  0  0
 13 14  1  0  0  0  0
 13 12  2  0  0  0  0
 15 13  1  0  0  0  0
 18 15  1  0  0  0  0
 19 24  1  0  0  0  0
 20 19  2  0  0  0  0
 20 21  1  0  0  0  0
 21 22  2  0  0  0  0
 22 23  1  0  0  0  0
 24 23  2  0  0  0  0
 25 19  1  0  0  0  0
 26 20  1  0  0  0  0
 27 34  1  1  0  0  0
 27 32  1  0  0  0  0
 28 23  1  6  0  0  0
 28 29  1  0  0  0  0
 28 27  1  0  0  0  0
 29 31  1  0  0  0  0
 30 29  1  0  0  0  0
 31 32  1  0  0  0  0
 32 33  1  0  0  0  0
 34 35  1  0  0  0  0
M  END
>  <minimizedAffinity>
-5.71467924

$$$$
