
 OpenBabel03272504533D

 25 27  0  0  1  0  0  0  0  0999 V2000
   37.1240   31.2830   49.2140 C   0  0  0  0  0  0  0  0  0  0  0  0
   37.3540   32.5430   49.7950 C   0  0  0  0  0  0  0  0  0  0  0  0
   38.3060   33.3300   49.1700 C   0  0  0  0  0  0  0  0  0  0  0  0
   38.9620   32.8750   48.0580 N   0  0  0  0  0  0  0  0  0  0  0  0
   38.7080   31.6470   47.5290 C   0  0  0  0  0  0  0  0  0  0  0  0
   37.7810   30.8520   48.1180 N   0  0  0  0  0  0  0  0  0  0  0  0
   36.8310   32.8730   50.6580 H   0  0  0  0  0  0  0  0  0  0  0  0
   38.5110   34.3060   49.5880 H   0  0  0  0  0  0  0  0  0  0  0  0
   36.0730   30.4130   49.8570 C   0  0  0  0  0  0  0  0  0  0  0  0
   36.0660   28.9690   49.6500 C   0  0  0  0  0  0  0  0  0  0  0  0
   36.6460   29.5030   50.9330 C   0  0  0  0  0  0  0  0  0  0  0  0
   35.1600   30.9940   50.1440 H   0  0  0  0  0  0  0  0  0  0  0  0
   36.8150   28.5730   48.9020 H   0  0  0  0  0  0  0  0  0  0  0  0
   35.1260   28.4020   49.6350 H   0  0  0  0  0  0  0  0  0  0  0  0
   37.7220   29.4860   51.1280 H   0  0  0  0  0  0  0  0  0  0  0  0
   35.9720   29.3730   51.8020 H   0  0  0  0  0  0  0  0  0  0  0  0
   39.8960   32.3800   45.4670 C   0  0  2  0  0  3  0  0  0  0  0  0
   39.4560   31.2130   46.3190 C   0  0  2  0  0  3  0  0  0  0  0  0
   38.6230   30.3850   45.3810 C   0  0  0  0  0  3  0  0  0  0  0  0
   38.7900   29.3160   45.5990 H   0  0  0  0  0  0  0  0  0  0  0  0
   38.9890   30.7230   44.0960 O   0  0  0  0  0  0  0  0  0  0  0  0
   39.3130   32.0860   44.1210 C   0  0  0  0  0  3  0  0  0  0  0  0
   38.4270   32.7240   43.9410 H   0  0  0  0  0  0  0  0  0  0  0  0
   41.2820   32.4590   45.3270 O   0  0  0  0  0  0  0  0  0  0  0  0
   41.6400   31.5420   45.5300 H   0  0  0  0  0  0  0  0  0  0  0  0
  1  2  1  0  0  0  0
  1  9  1  0  0  0  0
  2  7  1  0  0  0  0
  3  8  1  0  0  0  0
  3  2  2  0  0  0  0
  4  3  1  0  0  0  0
  5  4  2  0  0  0  0
  5  6  1  0  0  0  0
  6  1  2  0  0  0  0
  9 12  1  0  0  0  0
  9 11  1  0  0  0  0
 10  9  1  0  0  0  0
 10 11  1  0  0  0  0
 11 15  1  0  0  0  0
 11 16  1  0  0  0  0
 13 10  1  0  0  0  0
 14 10  1  0  0  0  0
 17 24  1  6  0  0  0
 17 18  1  0  0  0  0
 18  5  1  1  0  0  0
 19 20  1  0  0  0  0
 19 18  1  0  0  0  0
 21 22  1  0  0  0  0
 21 19  1  0  0  0  0
 22 17  1  0  0  0  0
 23 22  1  0  0  0  0
 24 25  1  0  0  0  0
M  END
>  <minimizedAffinity>
-5.50461674

>  <minimizedRMSD>
0.820461929

$$$$
