
 OpenBabel03272507413D

 41 44  0  0  1  0  0  0  0  0999 V2000
   36.7840   31.2160   50.0310 C   0  0  0  0  0  0  0  0  0  0  0  0
   35.7220   30.3310   49.8160 C   0  0  0  0  0  0  0  0  0  0  0  0
   35.5480   29.2290   50.6290 C   0  0  0  0  0  0  0  0  0  0  0  0
   36.4470   29.0490   51.6350 N   0  0  0  0  0  0  0  0  0  0  0  0
   37.4740   29.9180   51.8320 C   0  0  0  0  0  0  0  0  0  0  0  0
   37.6220   30.9740   51.0360 N   0  0  0  0  0  0  0  0  0  0  0  0
   34.7570   28.5100   50.5230 H   0  0  0  0  0  0  0  0  0  0  0  0
   38.1930   29.7850   52.6280 H   0  0  0  0  0  0  0  0  0  0  0  0
   34.3110   29.2750   48.1340 C   0  0  0  0  0  0  0  0  0  0  0  0
   34.6900   28.0420   48.1400 O   0  0  0  0  0  0  0  0  0  0  0  0
   34.7550   30.4450   48.8050 N   0  0  0  0  0  0  0  0  0  0  0  0
   34.3240   31.3170   48.4920 H   0  0  0  0  0  0  0  0  0  0  0  0
   32.6480   27.8380   45.4580 C   0  0  2  0  0  3  0  0  0  0  0  0
   33.5430   29.0230   45.7640 C   0  0  0  0  0  3  0  0  0  0  0  0
   33.3450   29.8570   45.0740 H   0  0  0  0  0  0  0  0  0  0  0  0
   33.1610   29.3240   47.1810 C   0  0  1  0  0  3  0  0  0  0  0  0
   32.1920   28.4260   47.5660 O   0  0  0  0  0  0  0  0  0  0  0  0
   31.4820   28.1470   46.3750 C   0  0  0  0  0  3  0  0  0  0  0  0
   30.7730   27.3300   46.4960 H   0  0  0  0  0  0  0  0  0  0  0  0
   33.2820   26.6930   45.9180 O   0  0  0  0  0  0  0  0  0  0  0  0
   32.9540   26.4100   46.8130 H   0  0  0  0  0  0  0  0  0  0  0  0
   36.7910   32.2320   49.1360 O   0  0  0  0  0  0  0  0  0  0  0  0
   38.2640   32.1850   47.1480 C   0  0  0  0  0  0  0  0  0  0  0  0
   37.9060   32.6360   48.4040 C   0  0  0  0  0  0  0  0  0  0  0  0
   38.6740   33.5790   49.0640 C   0  0  0  0  0  0  0  0  0  0  0  0
   39.8220   34.0740   48.4470 C   0  0  0  0  0  0  0  0  0  0  0  0
   40.1800   33.6230   47.1930 C   0  0  0  0  0  0  0  0  0  0  0  0
   39.3850   32.6850   46.5770 C   0  0  0  0  0  0  0  0  0  0  0  0
   38.4610   33.9690   50.0260 H   0  0  0  0  0  0  0  0  0  0  0  0
   40.4360   34.8140   48.9530 H   0  0  0  0  0  0  0  0  0  0  0  0
   41.0810   34.0340   46.7490 H   0  0  0  0  0  0  0  0  0  0  0  0
   39.7800   32.2110   45.2310 C   0  0  0  0  0  0  0  0  0  0  0  0
   40.6270   31.2010   44.8740 C   0  0  0  0  0  0  0  0  0  0  0  0
   40.6660   31.1490   43.4810 C   0  0  0  0  0  0  0  0  0  0  0  0
   39.8230   32.1540   43.0780 C   0  0  0  0  0  0  0  0  0  0  0  0
   39.3120   32.7640   44.1250 O   0  0  0  0  0  0  0  0  0  0  0  0
   41.1230   30.6110   45.6570 H   0  0  0  0  0  0  0  0  0  0  0  0
   41.2810   30.4150   42.9780 H   0  0  0  0  0  0  0  0  0  0  0  0
   39.6520   32.3530   42.0160 H   0  0  0  0  0  0  0  0  0  0  0  0
   36.7270   30.4450   46.0390 N   0  0  0  0  0  0  0  0  0  0  0  0
   37.4170   31.2110   46.5350 C   0  0  0  0  0  0  0  0  0  0  0  0
  1  6  1  0  0  0  0
  2  1  2  0  0  0  0
  2  3  1  0  0  0  0
  3  4  2  0  0  0  0
  4  5  1  0  0  0  0
  5  8  1  0  0  0  0
  6  5  2  0  0  0  0
  7  3  1  0  0  0  0
  9 10  2  0  0  0  0
  9 11  1  0  0  0  0
 11  2  1  0  0  0  0
 12 11  1  0  0  0  0
 13 14  1  0  0  0  0
 13 20  1  1  0  0  0
 13 18  1  0  0  0  0
 14 16  1  0  0  0  0
 15 14  1  0  0  0  0
 16 17  1  0  0  0  0
 16  9  1  1  0  0  0
 18 19  1  0  0  0  0
 18 17  1  0  0  0  0
 20 21  1  0  0  0  0
 22  1  1  0  0  0  0
 23 24  1  0  0  0  0
 24 25  2  0  0  0  0
 24 22  1  0  0  0  0
 25 29  1  0  0  0  0
 26 30  1  0  0  0  0
 26 25  1  0  0  0  0
 27 26  2  0  0  0  0
 28 23  2  0  0  0  0
 28 27  1  0  0  0  0
 31 27  1  0  0  0  0
 32 28  1  0  0  0  0
 33 32  2  0  0  0  0
 33 37  1  0  0  0  0
 34 33  1  0  0  0  0
 35 34  2  0  0  0  0
 35 36  1  0  0  0  0
 36 32  1  0  0  0  0
 38 34  1  0  0  0  0
 39 35  1  0  0  0  0
 40 41  3  0  0  0  0
 41 23  1  0  0  0  0
M  END
>  <minimizedAffinity>
-5.89409781

>  <minimizedRMSD>
1.0987798

$$$$
