
 OpenBabel03262522253D

 35 37  0  0  1  0  0  0  0  0999 V2000
   38.1590   27.1170   35.0620 C   0  0  0  0  0  0  0  0  0  0  0  0
   38.3110   25.9610   34.2760 C   0  0  0  0  0  0  0  0  0  0  0  0
   37.4880   25.8210   33.1520 C   0  0  0  0  0  0  0  0  0  0  0  0
   36.6020   26.8140   32.9060 N   0  0  0  0  0  0  0  0  0  0  0  0
   36.5000   27.8880   33.6860 C   0  0  0  0  0  0  0  0  0  0  0  0
   37.2770   28.0840   34.8000 N   0  0  0  0  0  0  0  0  0  0  0  0
   38.7520   27.3280   35.9630 H   0  0  0  0  0  0  0  0  0  0  0  0
   37.6450   24.9310   32.5960 H   0  0  0  0  0  0  0  0  0  0  0  0
   39.2540   25.0870   34.6900 O   0  0  0  0  0  0  0  0  0  0  0  0
   39.0790   24.4610   35.9420 C   0  0  0  0  0  0  0  0  0  0  0  0
   38.1200   24.7220   36.8850 C   0  0  0  0  0  0  0  0  0  0  0  0
   38.1060   24.0190   38.0300 C   0  0  0  0  0  0  0  0  0  0  0  0
   39.0610   23.0540   38.2190 C   0  0  0  0  0  0  0  0  0  0  0  0
   40.0250   22.7950   37.2670 C   0  0  0  0  0  0  0  0  0  0  0  0
   40.0040   23.5250   36.1270 N   0  0  0  0  0  0  0  0  0  0  0  0
   37.4390   25.5270   36.5640 H   0  0  0  0  0  0  0  0  0  0  0  0
   37.3300   24.2620   38.7430 H   0  0  0  0  0  0  0  0  0  0  0  0
   39.0240   22.4990   39.1590 H   0  0  0  0  0  0  0  0  0  0  0  0
   41.0600   21.7200   37.5160 C   0  0  0  0  0  0  0  0  0  0  0  0
   41.5710   21.4830   36.5760 H   0  0  0  0  0  0  0  0  0  0  0  0
   41.8290   22.2010   38.1600 H   0  0  0  0  0  0  0  0  0  0  0  0
   40.6190   20.8360   38.0230 H   0  0  0  0  0  0  0  0  0  0  0  0
   35.1970   28.9750   33.0090 S   0  0  0  0  0  0  0  0  0  0  0  0
   34.2440   29.4900   34.4750 C   0  0  0  0  0  0  0  0  0  0  0  0
   33.1550   29.3730   34.3300 H   0  0  0  0  0  0  0  0  0  0  0  0
   34.6160   28.9310   35.3710 H   0  0  0  0  0  0  0  0  0  0  0  0
   34.6900   32.5880   36.4270 C   0  0  2  0  0  3  0  0  0  0  0  0
   33.7870   31.4900   35.9100 C   0  0  0  0  0  3  0  0  0  0  0  0
   33.7130   30.7100   36.6980 H   0  0  0  0  0  0  0  0  0  0  0  0
   34.5790   30.9420   34.7470 C   0  0  1  0  0  3  0  0  0  0  0  0
   35.8880   31.0050   35.2240 O   0  0  0  0  0  0  0  0  0  0  0  0
   36.0460   32.2180   35.8690 C   0  0  0  0  0  3  0  0  0  0  0  0
   36.4080   32.9570   35.1380 H   0  0  0  0  0  0  0  0  0  0  0  0
   34.7720   32.5640   37.8250 O   0  0  0  0  0  0  0  0  0  0  0  0
   33.9710   32.0800   38.1540 H   0  0  0  0  0  0  0  0  0  0  0  0
  1  7  1  0  0  0  0
  2  9  1  0  0  0  0
  2  1  2  0  0  0  0
  3  2  1  0  0  0  0
  4  3  2  0  0  0  0
  4  5  1  0  0  0  0
  5  6  2  0  0  0  0
  6  1  1  0  0  0  0
  8  3  1  0  0  0  0
  9 10  1  0  0  0  0
 10 15  2  0  0  0  0
 10 11  1  0  0  0  0
 11 12  2  0  0  0  0
 12 13  1  0  0  0  0
 12 17  1  0  0  0  0
 13 18  1  0  0  0  0
 14 19  1  0  0  0  0
 14 13  2  0  0  0  0
 15 14  1  0  0  0  0
 16 11  1  0  0  0  0
 19 22  1  0  0  0  0
 19 21  1  0  0  0  0
 20 19  1  0  0  0  0
 23  5  1  0  0  0  0
 23 24  1  0  0  0  0
 24 26  1  0  0  0  0
 25 24  1  0  0  0  0
 27 34  1  1  0  0  0
 28 27  1  0  0  0  0
 28 29  1  0  0  0  0
 30 24  1  1  0  0  0
 30 31  1  0  0  0  0
 30 28  1  0  0  0  0
 31 32  1  0  0  0  0
 32 27  1  0  0  0  0
 33 32  1  0  0  0  0
 34 35  1  0  0  0  0
M  END
>  <minimizedAffinity>
-5.54709244

$$$$

 OpenBabel03262522253D

 35 37  0  0  1  0  0  0  0  0999 V2000
   35.6550   28.3870   32.3440 C   0  0  0  0  0  0  0  0  0  0  0  0
   35.7520   29.1060   33.5490 C   0  0  0  0  0  0  0  0  0  0  0  0
   36.4610   28.5210   34.6050 C   0  0  0  0  0  0  0  0  0  0  0  0
   37.0030   27.3000   34.3850 N   0  0  0  0  0  0  0  0  0  0  0  0
   36.8780   26.6640   33.2230 C   0  0  0  0  0  0  0  0  0  0  0  0
   36.1970   27.1830   32.1510 N   0  0  0  0  0  0  0  0  0  0  0  0
   35.1230   28.7520   31.4550 H   0  0  0  0  0  0  0  0  0  0  0  0
   36.5030   29.1060   35.4890 H   0  0  0  0  0  0  0  0  0  0  0  0
   35.1410   30.3110   33.5670 O   0  0  0  0  0  0  0  0  0  0  0  0
   34.7660   30.8500   34.8150 C   0  0  0  0  0  0  0  0  0  0  0  0
   35.5090   31.6510   35.6420 C   0  0  0  0  0  0  0  0  0  0  0  0
   34.9840   32.0760   36.8040 C   0  0  0  0  0  0  0  0  0  0  0  0
   33.7090   31.6890   37.1270 C   0  0  0  0  0  0  0  0  0  0  0  0
   32.9650   30.8830   36.2910 C   0  0  0  0  0  0  0  0  0  0  0  0
   33.5300   30.4760   35.1300 N   0  0  0  0  0  0  0  0  0  0  0  0
   36.5070   31.8590   35.2220 H   0  0  0  0  0  0  0  0  0  0  0  0
   35.6100   32.7050   37.4210 H   0  0  0  0  0  0  0  0  0  0  0  0
   33.3090   32.0490   38.0770 H   0  0  0  0  0  0  0  0  0  0  0  0
   31.5610   30.4800   36.6870 C   0  0  0  0  0  0  0  0  0  0  0  0
   31.0430   30.0650   35.8150 H   0  0  0  0  0  0  0  0  0  0  0  0
   31.6900   29.6280   37.3910 H   0  0  0  0  0  0  0  0  0  0  0  0
   31.0180   31.3160   37.1760 H   0  0  0  0  0  0  0  0  0  0  0  0
   37.7470   25.0620   33.3430 S   0  0  0  0  0  0  0  0  0  0  0  0
   38.7780   25.2280   34.8380 C   0  0  0  0  0  0  0  0  0  0  0  0
   39.8080   24.8590   34.6800 H   0  0  0  0  0  0  0  0  0  0  0  0
   38.7550   26.2930   35.1830 H   0  0  0  0  0  0  0  0  0  0  0  0
   38.4980   22.9690   37.7400 C   0  0  2  0  0  3  0  0  0  0  0  0
   38.8890   23.1970   36.2970 C   0  0  0  0  0  3  0  0  0  0  0  0
   39.9750   23.4330   36.2720 H   0  0  0  0  0  0  0  0  0  0  0  0
   38.1070   24.4380   35.9430 C   0  0  1  0  0  3  0  0  0  0  0  0
   38.1830   25.1830   37.1190 O   0  0  0  0  0  0  0  0  0  0  0  0
   37.9820   24.3210   38.1810 C   0  0  0  0  0  3  0  0  0  0  0  0
   36.9060   24.2980   38.4120 H   0  0  0  0  0  0  0  0  0  0  0  0
   39.6120   22.6500   38.5270 O   0  0  0  0  0  0  0  0  0  0  0  0
   40.3120   22.3100   37.9120 H   0  0  0  0  0  0  0  0  0  0  0  0
  1  2  1  0  0  0  0
  2  9  1  0  0  0  0
  2  3  2  0  0  0  0
  3  8  1  0  0  0  0
  4  3  1  0  0  0  0
  5 23  1  0  0  0  0
  5  4  2  0  0  0  0
  6  1  2  0  0  0  0
  6  5  1  0  0  0  0
  7  1  1  0  0  0  0
  9 10  1  0  0  0  0
 10 15  2  0  0  0  0
 10 11  1  0  0  0  0
 11 12  2  0  0  0  0
 12 13  1  0  0  0  0
 12 17  1  0  0  0  0
 13 18  1  0  0  0  0
 14 19  1  0  0  0  0
 14 13  2  0  0  0  0
 15 14  1  0  0  0  0
 16 11  1  0  0  0  0
 19 22  1  0  0  0  0
 19 21  1  0  0  0  0
 20 19  1  0  0  0  0
 23 24  1  0  0  0  0
 24 26  1  0  0  0  0
 25 24  1  0  0  0  0
 27 32  1  0  0  0  0
 27 34  1  1  0  0  0
 28 27  1  0  0  0  0
 29 28  1  0  0  0  0
 30 24  1  6  0  0  0
 30 28  1  0  0  0  0
 30 31  1  0  0  0  0
 31 32  1  0  0  0  0
 32 33  1  0  0  0  0
 35 34  1  0  0  0  0
M  END
>  <minimizedAffinity>
-5.53480864

$$$$

 OpenBabel03262522253D

 35 37  0  0  1  0  0  0  0  0999 V2000
   36.6540   28.4060   32.3590 C   0  0  0  0  0  0  0  0  0  0  0  0
   36.0140   28.7070   33.5750 C   0  0  0  0  0  0  0  0  0  0  0  0
   36.3710   27.9630   34.7050 C   0  0  0  0  0  0  0  0  0  0  0  0
   37.3110   27.0030   34.5420 N   0  0  0  0  0  0  0  0  0  0  0  0
   37.8840   26.7600   33.3660 C   0  0  0  0  0  0  0  0  0  0  0  0
   37.5780   27.4540   32.2220 N   0  0  0  0  0  0  0  0  0  0  0  0
   36.4500   28.9270   31.4140 H   0  0  0  0  0  0  0  0  0  0  0  0
   35.8570   28.2320   35.5940 H   0  0  0  0  0  0  0  0  0  0  0  0
   35.1020   29.7040   33.5290 O   0  0  0  0  0  0  0  0  0  0  0  0
   35.0260   30.5890   34.6240 C   0  0  0  0  0  0  0  0  0  0  0  0
   35.9550   31.5150   35.0220 C   0  0  0  0  0  0  0  0  0  0  0  0
   35.7110   32.2810   36.0990 C   0  0  0  0  0  0  0  0  0  0  0  0
   34.5290   32.1080   36.7720 C   0  0  0  0  0  0  0  0  0  0  0  0
   33.5980   31.1740   36.3680 C   0  0  0  0  0  0  0  0  0  0  0  0
   33.8820   30.4230   35.2780 N   0  0  0  0  0  0  0  0  0  0  0  0
   36.8400   31.5140   34.3650 H   0  0  0  0  0  0  0  0  0  0  0  0
   36.4740   32.9960   36.3720 H   0  0  0  0  0  0  0  0  0  0  0  0
   34.3590   32.7440   37.6440 H   0  0  0  0  0  0  0  0  0  0  0  0
   32.3060   31.0170   37.1410 C   0  0  0  0  0  0  0  0  0  0  0  0
   31.5970   30.4300   36.5460 H   0  0  0  0  0  0  0  0  0  0  0  0
   32.5650   30.3780   38.0130 H   0  0  0  0  0  0  0  0  0  0  0  0
   31.9070   31.9980   37.4750 H   0  0  0  0  0  0  0  0  0  0  0  0
   39.0860   25.4000   33.5780 S   0  0  0  0  0  0  0  0  0  0  0  0
   38.2430   24.2340   34.6970 C   0  0  0  0  0  0  0  0  0  0  0  0
   37.2120   24.5530   34.9370 H   0  0  0  0  0  0  0  0  0  0  0  0
   38.2780   23.2070   34.2520 H   0  0  0  0  0  0  0  0  0  0  0  0
   39.0380   23.4340   38.2090 C   0  0  2  0  0  3  0  0  0  0  0  0
   38.2000   24.1870   37.2000 C   0  0  0  0  0  3  0  0  0  0  0  0
   37.2770   23.5970   37.0150 H   0  0  0  0  0  0  0  0  0  0  0  0
   39.0680   24.1450   35.9650 C   0  0  1  0  0  3  0  0  0  0  0  0
   39.6220   22.8680   36.0360 O   0  0  0  0  0  0  0  0  0  0  0  0
   39.9930   22.6380   37.3480 C   0  0  0  0  0  3  0  0  0  0  0  0
   41.0360   22.9630   37.4770 H   0  0  0  0  0  0  0  0  0  0  0  0
   38.2600   22.5320   38.9470 O   0  0  0  0  0  0  0  0  0  0  0  0
   37.3200   22.8430   38.8840 H   0  0  0  0  0  0  0  0  0  0  0  0
  1  2  1  0  0  0  0
  2  3  2  0  0  0  0
  3  8  1  0  0  0  0
  4  3  1  0  0  0  0
  5 23  1  0  0  0  0
  5  4  2  0  0  0  0
  6  1  2  0  0  0  0
  6  5  1  0  0  0  0
  7  1  1  0  0  0  0
  9  2  1  0  0  0  0
  9 10  1  0  0  0  0
 10 11  2  0  0  0  0
 10 15  1  0  0  0  0
 11 12  1  0  0  0  0
 12 17  1  0  0  0  0
 12 13  2  0  0  0  0
 13 18  1  0  0  0  0
 14 13  1  0  0  0  0
 14 19  1  0  0  0  0
 15 14  2  0  0  0  0
 16 11  1  0  0  0  0
 19 22  1  0  0  0  0
 19 21  1  0  0  0  0
 20 19  1  0  0  0  0
 23 24  1  0  0  0  0
 24 25  1  0  0  0  0
 26 24  1  0  0  0  0
 27 34  1  6  0  0  0
 28 27  1  0  0  0  0
 29 28  1  0  0  0  0
 30 24  1  6  0  0  0
 30 31  1  0  0  0  0
 30 28  1  0  0  0  0
 31 32  1  0  0  0  0
 32 33  1  0  0  0  0
 32 27  1  0  0  0  0
 35 34  1  0  0  0  0
M  END
>  <minimizedAffinity>
-5.46437979

$$$$

 OpenBabel03262522253D

 35 37  0  0  1  0  0  0  0  0999 V2000
   36.4890   28.2700   34.6370 C   0  0  0  0  0  0  0  0  0  0  0  0
   35.9330   28.6430   33.4000 C   0  0  0  0  0  0  0  0  0  0  0  0
   36.2680   27.8800   32.2750 C   0  0  0  0  0  0  0  0  0  0  0  0
   37.1090   26.8360   32.4640 N   0  0  0  0  0  0  0  0  0  0  0  0
   37.6070   26.5290   33.6590 C   0  0  0  0  0  0  0  0  0  0  0  0
   37.3170   27.2360   34.7990 N   0  0  0  0  0  0  0  0  0  0  0  0
   36.2930   28.7980   35.5810 H   0  0  0  0  0  0  0  0  0  0  0  0
   35.8200   28.2060   31.3700 H   0  0  0  0  0  0  0  0  0  0  0  0
   35.1140   29.7180   33.4230 O   0  0  0  0  0  0  0  0  0  0  0  0
   33.7540   29.5140   33.7300 C   0  0  0  0  0  0  0  0  0  0  0  0
   32.7620   29.0660   32.8970 C   0  0  0  0  0  0  0  0  0  0  0  0
   31.5100   28.9310   33.3670 C   0  0  0  0  0  0  0  0  0  0  0  0
   31.2640   29.2480   34.6770 C   0  0  0  0  0  0  0  0  0  0  0  0
   32.2650   29.6990   35.5120 C   0  0  0  0  0  0  0  0  0  0  0  0
   33.5130   29.8220   35.0000 N   0  0  0  0  0  0  0  0  0  0  0  0
   33.1420   28.8610   31.8820 H   0  0  0  0  0  0  0  0  0  0  0  0
   30.7640   28.5740   32.6700 H   0  0  0  0  0  0  0  0  0  0  0  0
   30.2370   29.1280   35.0300 H   0  0  0  0  0  0  0  0  0  0  0  0
   31.9490   30.0380   36.9520 C   0  0  0  0  0  0  0  0  0  0  0  0
   32.8840   30.1300   37.5170 H   0  0  0  0  0  0  0  0  0  0  0  0
   31.5160   31.0620   36.9220 H   0  0  0  0  0  0  0  0  0  0  0  0
   31.2270   29.3180   37.3930 H   0  0  0  0  0  0  0  0  0  0  0  0
   38.6850   25.0660   33.4780 S   0  0  0  0  0  0  0  0  0  0  0  0
   38.0130   23.8690   34.6790 C   0  0  0  0  0  0  0  0  0  0  0  0
   36.9440   24.0470   34.8950 H   0  0  0  0  0  0  0  0  0  0  0  0
   38.2050   22.8300   34.3080 H   0  0  0  0  0  0  0  0  0  0  0  0
   38.8750   23.4580   38.2410 C   0  0  2  0  0  3  0  0  0  0  0  0
   37.9520   24.0080   37.1770 C   0  0  0  0  0  3  0  0  0  0  0  0
   37.1220   23.2810   37.0390 H   0  0  0  0  0  0  0  0  0  0  0  0
   38.8290   23.9930   35.9490 C   0  0  1  0  0  3  0  0  0  0  0  0
   39.5550   22.8150   36.1170 O   0  0  0  0  0  0  0  0  0  0  0  0
   39.9410   22.7400   37.4430 C   0  0  0  0  0  3  0  0  0  0  0  0
   40.9280   23.2170   37.5470 H   0  0  0  0  0  0  0  0  0  0  0  0
   38.2230   22.5150   39.0460 O   0  0  0  0  0  0  0  0  0  0  0  0
   37.2500   22.6860   38.9600 H   0  0  0  0  0  0  0  0  0  0  0  0
  1  6  1  0  0  0  0
  1  7  1  0  0  0  0
  2  9  1  0  0  0  0
  2  1  2  0  0  0  0
  3  4  2  0  0  0  0
  3  2  1  0  0  0  0
  4  5  1  0  0  0  0
  5  6  2  0  0  0  0
  8  3  1  0  0  0  0
  9 10  1  0  0  0  0
 10 15  1  0  0  0  0
 11 12  1  0  0  0  0
 11 10  2  0  0  0  0
 12 13  2  0  0  0  0
 13 18  1  0  0  0  0
 13 14  1  0  0  0  0
 14 19  1  0  0  0  0
 15 14  2  0  0  0  0
 16 11  1  0  0  0  0
 17 12  1  0  0  0  0
 19 22  1  0  0  0  0
 19 20  1  0  0  0  0
 21 19  1  0  0  0  0
 23  5  1  0  0  0  0
 23 24  1  0  0  0  0
 24 25  1  0  0  0  0
 26 24  1  0  0  0  0
 27 34  1  1  0  0  0
 28 27  1  0  0  0  0
 29 28  1  0  0  0  0
 30 24  1  6  0  0  0
 30 31  1  0  0  0  0
 30 28  1  0  0  0  0
 31 32  1  0  0  0  0
 32 33  1  0  0  0  0
 32 27  1  0  0  0  0
 35 34  1  0  0  0  0
M  END
>  <minimizedAffinity>
-5.21959162

$$$$

 OpenBabel03262522253D

 35 37  0  0  1  0  0  0  0  0999 V2000
   36.1450   28.7100   32.2220 C   0  0  0  0  0  0  0  0  0  0  0  0
   35.7180   29.0590   33.5160 C   0  0  0  0  0  0  0  0  0  0  0  0
   36.3070   28.3990   34.6010 C   0  0  0  0  0  0  0  0  0  0  0  0
   37.2490   27.4680   34.3210 N   0  0  0  0  0  0  0  0  0  0  0  0
   37.6150   27.1760   33.0750 C   0  0  0  0  0  0  0  0  0  0  0  0
   37.0760   27.7870   31.9710 N   0  0  0  0  0  0  0  0  0  0  0  0
   35.7500   29.1640   31.3030 H   0  0  0  0  0  0  0  0  0  0  0  0
   35.9470   28.7010   35.5520 H   0  0  0  0  0  0  0  0  0  0  0  0
   34.7650   30.0140   33.5830 O   0  0  0  0  0  0  0  0  0  0  0  0
   34.8040   30.9200   34.6630 C   0  0  0  0  0  0  0  0  0  0  0  0
   33.9610   30.9790   35.7420 C   0  0  0  0  0  0  0  0  0  0  0  0
   34.1520   31.9190   36.6840 C   0  0  0  0  0  0  0  0  0  0  0  0
   35.1950   32.7970   36.5320 C   0  0  0  0  0  0  0  0  0  0  0  0
   36.0400   32.7330   35.4450 C   0  0  0  0  0  0  0  0  0  0  0  0
   35.8130   31.7720   34.5180 N   0  0  0  0  0  0  0  0  0  0  0  0
   33.1840   30.1980   35.6960 H   0  0  0  0  0  0  0  0  0  0  0  0
   33.4610   31.9240   37.5150 H   0  0  0  0  0  0  0  0  0  0  0  0
   35.3250   33.5490   37.3140 H   0  0  0  0  0  0  0  0  0  0  0  0
   37.1780   33.7230   35.3170 C   0  0  0  0  0  0  0  0  0  0  0  0
   37.8780   33.3730   34.5500 H   0  0  0  0  0  0  0  0  0  0  0  0
   36.7170   34.6450   34.9030 H   0  0  0  0  0  0  0  0  0  0  0  0
   37.6540   33.9270   36.3000 H   0  0  0  0  0  0  0  0  0  0  0  0
   38.9000   25.8800   33.1370 S   0  0  0  0  0  0  0  0  0  0  0  0
   39.3010   25.7380   34.9100 C   0  0  0  0  0  0  0  0  0  0  0  0
   40.3890   25.7880   35.0990 H   0  0  0  0  0  0  0  0  0  0  0  0
   38.7330   26.5170   35.4790 H   0  0  0  0  0  0  0  0  0  0  0  0
   39.0070   22.7220   37.0130 C   0  0  2  0  0  3  0  0  0  0  0  0
   39.8150   23.5740   36.0600 C   0  0  0  0  0  3  0  0  0  0  0  0
   40.4700   24.2360   36.6670 H   0  0  0  0  0  0  0  0  0  0  0  0
   38.7500   24.4120   35.3950 C   0  0  1  0  0  3  0  0  0  0  0  0
   37.8710   24.6650   36.4480 O   0  0  0  0  0  0  0  0  0  0  0  0
   37.7120   23.4900   37.1590 C   0  0  0  0  0  3  0  0  0  0  0  0
   36.8550   22.9420   36.7390 H   0  0  0  0  0  0  0  0  0  0  0  0
   39.6150   22.6480   38.2730 O   0  0  0  0  0  0  0  0  0  0  0  0
   40.5730   22.8680   38.1440 H   0  0  0  0  0  0  0  0  0  0  0  0
  1  2  1  0  0  0  0
  2  9  1  0  0  0  0
  2  3  2  0  0  0  0
  3  8  1  0  0  0  0
  4  3  1  0  0  0  0
  5 23  1  0  0  0  0
  5  4  2  0  0  0  0
  6  1  2  0  0  0  0
  6  5  1  0  0  0  0
  7  1  1  0  0  0  0
  9 10  1  0  0  0  0
 10 11  1  0  0  0  0
 11 12  2  0  0  0  0
 12 17  1  0  0  0  0
 13 12  1  0  0  0  0
 13 18  1  0  0  0  0
 14 13  2  0  0  0  0
 15 10  2  0  0  0  0
 15 14  1  0  0  0  0
 16 11  1  0  0  0  0
 19 14  1  0  0  0  0
 19 22  1  0  0  0  0
 20 19  1  0  0  0  0
 21 19  1  0  0  0  0
 23 24  1  0  0  0  0
 24 25  1  0  0  0  0
 24 26  1  0  0  0  0
 27 32  1  0  0  0  0
 27 34  1  1  0  0  0
 28 29  1  0  0  0  0
 28 27  1  0  0  0  0
 30 24  1  1  0  0  0
 30 28  1  0  0  0  0
 30 31  1  0  0  0  0
 31 32  1  0  0  0  0
 33 32  1  0  0  0  0
 35 34  1  0  0  0  0
M  END
>  <minimizedAffinity>
-5.17535162

$$$$

 OpenBabel03262522253D

 35 37  0  0  1  0  0  0  0  0999 V2000
   35.8350   27.3720   31.5730 C   0  0  0  0  0  0  0  0  0  0  0  0
   36.2150   28.1120   32.7070 C   0  0  0  0  0  0  0  0  0  0  0  0
   36.9440   27.4530   33.7050 C   0  0  0  0  0  0  0  0  0  0  0  0
   37.2290   26.1450   33.5010 N   0  0  0  0  0  0  0  0  0  0  0  0
   36.8430   25.4940   32.4070 C   0  0  0  0  0  0  0  0  0  0  0  0
   36.1280   26.0830   31.3940 N   0  0  0  0  0  0  0  0  0  0  0  0
   35.2630   27.7900   30.7330 H   0  0  0  0  0  0  0  0  0  0  0  0
   37.2030   28.0580   34.5370 H   0  0  0  0  0  0  0  0  0  0  0  0
   35.8330   29.4080   32.7210 O   0  0  0  0  0  0  0  0  0  0  0  0
   34.8780   29.8120   33.6760 C   0  0  0  0  0  0  0  0  0  0  0  0
   33.5590   29.4470   33.7530 C   0  0  0  0  0  0  0  0  0  0  0  0
   32.7910   29.9350   34.7430 C   0  0  0  0  0  0  0  0  0  0  0  0
   33.3590   30.7900   35.6520 C   0  0  0  0  0  0  0  0  0  0  0  0
   34.6860   31.1540   35.5700 C   0  0  0  0  0  0  0  0  0  0  0  0
   35.4260   30.6410   34.5580 N   0  0  0  0  0  0  0  0  0  0  0  0
   33.2790   28.7560   32.9420 H   0  0  0  0  0  0  0  0  0  0  0  0
   31.7580   29.6170   34.7600 H   0  0  0  0  0  0  0  0  0  0  0  0
   32.7100   31.1700   36.4440 H   0  0  0  0  0  0  0  0  0  0  0  0
   35.2710   32.1020   36.5950 C   0  0  0  0  0  0  0  0  0  0  0  0
   36.3650   32.0780   36.5280 H   0  0  0  0  0  0  0  0  0  0  0  0
   34.9740   33.1180   36.2550 H   0  0  0  0  0  0  0  0  0  0  0  0
   34.8790   31.8950   37.6130 H   0  0  0  0  0  0  0  0  0  0  0  0
   37.4260   23.7670   32.5250 S   0  0  0  0  0  0  0  0  0  0  0  0
   36.2610   22.8330   31.4780 C   0  0  0  0  0  0  0  0  0  0  0  0
   35.2120   23.1370   31.6440 H   0  0  0  0  0  0  0  0  0  0  0  0
   36.5690   22.9340   30.4060 H   0  0  0  0  0  0  0  0  0  0  0  0
   35.2790   19.3490   32.1860 C   0  0  2  0  0  3  0  0  0  0  0  0
   35.2480   20.8150   32.5580 C   0  0  0  0  0  3  0  0  0  0  0  0
   34.3170   21.2530   32.1370 H   0  0  0  0  0  0  0  0  0  0  0  0
   36.4350   21.3640   31.8040 C   0  0  1  0  0  3  0  0  0  0  0  0
   36.3880   20.6440   30.6110 O   0  0  0  0  0  0  0  0  0  0  0  0
   36.1090   19.3260   30.9220 C   0  0  0  0  0  3  0  0  0  0  0  0
   37.0620   18.7920   31.0620 H   0  0  0  0  0  0  0  0  0  0  0  0
   33.9980   18.8740   31.8750 O   0  0  0  0  0  0  0  0  0  0  0  0
   33.3500   19.4930   32.3010 H   0  0  0  0  0  0  0  0  0  0  0  0
  1  2  1  0  0  0  0
  2  9  1  0  0  0  0
  2  3  2  0  0  0  0
  3  8  1  0  0  0  0
  4  3  1  0  0  0  0
  5 23  1  0  0  0  0
  5  4  2  0  0  0  0
  6  1  2  0  0  0  0
  6  5  1  0  0  0  0
  7  1  1  0  0  0  0
  9 10  1  0  0  0  0
 10 11  2  0  0  0  0
 10 15  1  0  0  0  0
 11 12  1  0  0  0  0
 12 17  1  0  0  0  0
 12 13  2  0  0  0  0
 13 18  1  0  0  0  0
 14 13  1  0  0  0  0
 14 19  1  0  0  0  0
 15 14  2  0  0  0  0
 16 11  1  0  0  0  0
 19 22  1  0  0  0  0
 20 19  1  0  0  0  0
 21 19  1  0  0  0  0
 24 25  1  0  0  0  0
 24 23  1  0  0  0  0
 26 24  1  0  0  0  0
 27 34  1  6  0  0  0
 27 28  1  0  0  0  0
 29 28  1  0  0  0  0
 30 24  1  6  0  0  0
 30 28  1  0  0  0  0
 31 32  1  0  0  0  0
 31 30  1  0  0  0  0
 32 33  1  0  0  0  0
 32 27  1  0  0  0  0
 34 35  1  0  0  0  0
M  END
>  <minimizedAffinity>
-5.16845512

$$$$

 OpenBabel03262522253D

 35 37  0  0  1  0  0  0  0  0999 V2000
   36.5850   26.9920   31.9830 C   0  0  0  0  0  0  0  0  0  0  0  0
   36.5580   27.8690   33.0810 C   0  0  0  0  0  0  0  0  0  0  0  0
   37.0130   27.3880   34.3150 C   0  0  0  0  0  0  0  0  0  0  0  0
   37.4470   26.1060   34.3570 N   0  0  0  0  0  0  0  0  0  0  0  0
   37.4490   25.3190   33.2840 C   0  0  0  0  0  0  0  0  0  0  0  0
   37.0170   25.7310   32.0490 N   0  0  0  0  0  0  0  0  0  0  0  0
   36.2520   27.2650   30.9720 H   0  0  0  0  0  0  0  0  0  0  0  0
   36.9700   28.0920   35.1080 H   0  0  0  0  0  0  0  0  0  0  0  0
   36.0880   29.1110   32.8320 O   0  0  0  0  0  0  0  0  0  0  0  0
   35.0670   29.6180   33.6620 C   0  0  0  0  0  0  0  0  0  0  0  0
   33.7270   29.3380   33.6110 C   0  0  0  0  0  0  0  0  0  0  0  0
   32.8930   29.9180   34.4920 C   0  0  0  0  0  0  0  0  0  0  0  0
   33.4170   30.7800   35.4210 C   0  0  0  0  0  0  0  0  0  0  0  0
   34.7670   31.0580   35.4670 C   0  0  0  0  0  0  0  0  0  0  0  0
   35.5730   30.4530   34.5630 N   0  0  0  0  0  0  0  0  0  0  0  0
   33.4880   28.6270   32.8030 H   0  0  0  0  0  0  0  0  0  0  0  0
   31.8450   29.6650   34.4110 H   0  0  0  0  0  0  0  0  0  0  0  0
   32.7150   31.2360   36.1230 H   0  0  0  0  0  0  0  0  0  0  0  0
   35.3020   32.0160   36.5100 C   0  0  0  0  0  0  0  0  0  0  0  0
   36.3930   31.9220   36.5620 H   0  0  0  0  0  0  0  0  0  0  0  0
   35.1090   33.0310   36.0990 H   0  0  0  0  0  0  0  0  0  0  0  0
   34.7930   31.8830   37.4870 H   0  0  0  0  0  0  0  0  0  0  0  0
   38.1050   23.6840   33.7670 S   0  0  0  0  0  0  0  0  0  0  0  0
   38.0530   23.7060   35.5900 C   0  0  0  0  0  0  0  0  0  0  0  0
   37.5480   24.6070   35.9840 H   0  0  0  0  0  0  0  0  0  0  0  0
   37.5810   22.7590   35.9550 H   0  0  0  0  0  0  0  0  0  0  0  0
   40.9810   22.4540   37.4500 C   0  0  2  0  0  3  0  0  0  0  0  0
   39.5770   23.0170   37.4510 C   0  0  0  0  0  3  0  0  0  0  0  0
   38.8680   22.1630   37.5040 H   0  0  0  0  0  0  0  0  0  0  0  0
   39.4840   23.6530   36.0860 C   0  0  1  0  0  3  0  0  0  0  0  0
   40.1870   22.7500   35.2890 O   0  0  0  0  0  0  0  0  0  0  0  0
   41.3250   22.3730   35.9790 C   0  0  0  0  0  3  0  0  0  0  0  0
   42.1410   23.0600   35.7060 H   0  0  0  0  0  0  0  0  0  0  0  0
   41.0110   21.1560   37.9760 O   0  0  0  0  0  0  0  0  0  0  0  0
   40.1970   21.0510   38.5340 H   0  0  0  0  0  0  0  0  0  0  0  0
  1  6  2  0  0  0  0
  1  2  1  0  0  0  0
  2  3  2  0  0  0  0
  3  4  1  0  0  0  0
  3  8  1  0  0  0  0
  5 23  1  0  0  0  0
  5  4  2  0  0  0  0
  6  5  1  0  0  0  0
  7  1  1  0  0  0  0
  9  2  1  0  0  0  0
  9 10  1  0  0  0  0
 10 15  1  0  0  0  0
 11 10  2  0  0  0  0
 11 12  1  0  0  0  0
 12 13  2  0  0  0  0
 13 14  1  0  0  0  0
 13 18  1  0  0  0  0
 14 19  1  0  0  0  0
 15 14  2  0  0  0  0
 16 11  1  0  0  0  0
 17 12  1  0  0  0  0
 19 20  1  0  0  0  0
 19 22  1  0  0  0  0
 21 19  1  0  0  0  0
 23 24  1  0  0  0  0
 24 26  1  0  0  0  0
 24 25  1  0  0  0  0
 27 28  1  0  0  0  0
 27 34  1  6  0  0  0
 28 29  1  0  0  0  0
 30 24  1  6  0  0  0
 30 28  1  0  0  0  0
 31 32  1  0  0  0  0
 31 30  1  0  0  0  0
 32 27  1  0  0  0  0
 33 32  1  0  0  0  0
 34 35  1  0  0  0  0
M  END
>  <minimizedAffinity>
-5.08701563

$$$$

 OpenBabel03262522253D

 35 37  0  0  1  0  0  0  0  0999 V2000
   38.1410   26.1810   31.1410 C   0  0  0  0  0  0  0  0  0  0  0  0
   36.7470   26.0030   31.1830 C   0  0  0  0  0  0  0  0  0  0  0  0
   36.2500   24.8740   31.8450 C   0  0  0  0  0  0  0  0  0  0  0  0
   37.1560   24.0320   32.3970 N   0  0  0  0  0  0  0  0  0  0  0  0
   38.4660   24.2500   32.3270 C   0  0  0  0  0  0  0  0  0  0  0  0
   39.0150   25.3370   31.6940 N   0  0  0  0  0  0  0  0  0  0  0  0
   38.6360   27.0300   30.6500 H   0  0  0  0  0  0  0  0  0  0  0  0
   35.1920   24.7900   31.8450 H   0  0  0  0  0  0  0  0  0  0  0  0
   36.0130   26.9580   30.5700 O   0  0  0  0  0  0  0  0  0  0  0  0
   36.0530   28.2670   31.0920 C   0  0  0  0  0  0  0  0  0  0  0  0
   36.6120   29.3810   30.5230 C   0  0  0  0  0  0  0  0  0  0  0  0
   36.5540   30.5580   31.1710 C   0  0  0  0  0  0  0  0  0  0  0  0
   35.9310   30.6050   32.3910 C   0  0  0  0  0  0  0  0  0  0  0  0
   35.3690   29.4800   32.9590 C   0  0  0  0  0  0  0  0  0  0  0  0
   35.4490   28.3140   32.2740 N   0  0  0  0  0  0  0  0  0  0  0  0
   37.0680   29.1560   29.5450 H   0  0  0  0  0  0  0  0  0  0  0  0
   37.0110   31.4070   30.6810 H   0  0  0  0  0  0  0  0  0  0  0  0
   35.8990   31.5740   32.8930 H   0  0  0  0  0  0  0  0  0  0  0  0
   34.6900   29.5770   34.3080 C   0  0  0  0  0  0  0  0  0  0  0  0
   34.0950   28.6730   34.4800 H   0  0  0  0  0  0  0  0  0  0  0  0
   35.5150   29.5380   35.0520 H   0  0  0  0  0  0  0  0  0  0  0  0
   34.1130   30.5210   34.4080 H   0  0  0  0  0  0  0  0  0  0  0  0
   39.3270   22.8910   33.1930 S   0  0  0  0  0  0  0  0  0  0  0  0
   38.2650   22.5400   34.6320 C   0  0  0  0  0  0  0  0  0  0  0  0
   37.2430   22.9430   34.5080 H   0  0  0  0  0  0  0  0  0  0  0  0
   38.2670   21.4380   34.8310 H   0  0  0  0  0  0  0  0  0  0  0  0
   38.8810   23.2570   38.1980 C   0  0  2  0  0  3  0  0  0  0  0  0
   37.9600   23.2980   36.9980 C   0  0  0  0  0  3  0  0  0  0  0  0
   37.3110   22.3970   37.0360 H   0  0  0  0  0  0  0  0  0  0  0  0
   38.9250   23.1620   35.8460 C   0  0  1  0  0  3  0  0  0  0  0  0
   39.8590   22.2560   36.3460 O   0  0  0  0  0  0  0  0  0  0  0  0
   40.1350   22.6100   37.6540 C   0  0  0  0  0  3  0  0  0  0  0  0
   40.9910   23.3020   37.6540 H   0  0  0  0  0  0  0  0  0  0  0  0
   38.3670   22.4320   39.2070 O   0  0  0  0  0  0  0  0  0  0  0  0
   37.3910   22.3570   39.0500 H   0  0  0  0  0  0  0  0  0  0  0  0
  1  2  2  0  0  0  0
  1  6  1  0  0  0  0
  2  3  1  0  0  0  0
  3  4  2  0  0  0  0
  5  4  1  0  0  0  0
  5 23  1  0  0  0  0
  6  5  2  0  0  0  0
  7  1  1  0  0  0  0
  8  3  1  0  0  0  0
  9 10  1  0  0  0  0
  9  2  1  0  0  0  0
 10 15  1  0  0  0  0
 11 10  2  0  0  0  0
 11 12  1  0  0  0  0
 12 13  2  0  0  0  0
 13 18  1  0  0  0  0
 13 14  1  0  0  0  0
 14 19  1  0  0  0  0
 15 14  2  0  0  0  0
 16 11  1  0  0  0  0
 17 12  1  0  0  0  0
 19 22  1  0  0  0  0
 19 20  1  0  0  0  0
 19 21  1  0  0  0  0
 23 24  1  0  0  0  0
 24 26  1  0  0  0  0
 25 24  1  0  0  0  0
 27 34  1  1  0  0  0
 28 29  1  0  0  0  0
 28 27  1  0  0  0  0
 30 24  1  6  0  0  0
 30 31  1  0  0  0  0
 30 28  1  0  0  0  0
 31 32  1  0  0  0  0
 32 33  1  0  0  0  0
 32 27  1  0  0  0  0
 35 34  1  0  0  0  0
M  END
>  <minimizedAffinity>
-5.07032394

$$$$

 OpenBabel03262522253D

 35 37  0  0  1  0  0  0  0  0999 V2000
   36.8640   22.6350   32.5690 C   0  0  0  0  0  0  0  0  0  0  0  0
   37.8030   23.0380   33.5350 C   0  0  0  0  0  0  0  0  0  0  0  0
   38.0370   24.4090   33.6910 C   0  0  0  0  0  0  0  0  0  0  0  0
   37.3370   25.2500   32.8930 N   0  0  0  0  0  0  0  0  0  0  0  0
   36.4590   24.8130   31.9940 C   0  0  0  0  0  0  0  0  0  0  0  0
   36.1850   23.4840   31.7940 N   0  0  0  0  0  0  0  0  0  0  0  0
   36.6050   21.5870   32.3660 H   0  0  0  0  0  0  0  0  0  0  0  0
   38.7540   24.6550   34.4330 H   0  0  0  0  0  0  0  0  0  0  0  0
   38.3960   22.0420   34.2310 O   0  0  0  0  0  0  0  0  0  0  0  0
   38.9100   22.3360   35.5100 C   0  0  0  0  0  0  0  0  0  0  0  0
   38.2650   22.9410   36.5560 C   0  0  0  0  0  0  0  0  0  0  0  0
   38.9180   23.1420   37.7140 C   0  0  0  0  0  0  0  0  0  0  0  0
   40.2230   22.7310   37.8100 C   0  0  0  0  0  0  0  0  0  0  0  0
   40.8680   22.1230   36.7540 C   0  0  0  0  0  0  0  0  0  0  0  0
   40.1750   21.9390   35.6050 N   0  0  0  0  0  0  0  0  0  0  0  0
   37.2250   23.2030   36.2990 H   0  0  0  0  0  0  0  0  0  0  0  0
   38.3650   23.6230   38.5090 H   0  0  0  0  0  0  0  0  0  0  0  0
   40.7270   22.9080   38.7630 H   0  0  0  0  0  0  0  0  0  0  0  0
   42.3090   21.6860   36.9040 C   0  0  0  0  0  0  0  0  0  0  0  0
   42.5710   21.0110   36.0800 H   0  0  0  0  0  0  0  0  0  0  0  0
   42.9110   22.6060   36.7390 H   0  0  0  0  0  0  0  0  0  0  0  0
   42.5050   21.2610   37.9110 H   0  0  0  0  0  0  0  0  0  0  0  0
   35.7400   26.2580   31.1370 S   0  0  0  0  0  0  0  0  0  0  0  0
   36.1790   27.6700   32.2050 C   0  0  0  0  0  0  0  0  0  0  0  0
   35.2880   28.2170   32.5630 H   0  0  0  0  0  0  0  0  0  0  0  0
   36.8240   27.3080   33.0450 H   0  0  0  0  0  0  0  0  0  0  0  0
   38.0550   28.9120   29.2830 C   0  0  2  0  0  3  0  0  0  0  0  0
   37.8260   27.8440   30.3280 C   0  0  0  0  0  3  0  0  0  0  0  0
   37.1620   27.0710   29.8840 H   0  0  0  0  0  0  0  0  0  0  0  0
   37.0650   28.5940   31.3940 C   0  0  1  0  0  3  0  0  0  0  0  0
   36.2460   29.4330   30.6400 O   0  0  0  0  0  0  0  0  0  0  0  0
   37.0060   29.9530   29.6090 C   0  0  0  0  0  3  0  0  0  0  0  0
   37.4530   30.8990   29.9480 H   0  0  0  0  0  0  0  0  0  0  0  0
   37.8020   28.4280   27.9930 O   0  0  0  0  0  0  0  0  0  0  0  0
   37.8760   27.4400   28.0360 H   0  0  0  0  0  0  0  0  0  0  0  0
  1  2  1  0  0  0  0
  2  3  2  0  0  0  0
  2  9  1  0  0  0  0
  3  8  1  0  0  0  0
  4  3  1  0  0  0  0
  5  4  2  0  0  0  0
  6  5  1  0  0  0  0
  6  1  2  0  0  0  0
  7  1  1  0  0  0  0
  9 10  1  0  0  0  0
 10 15  2  0  0  0  0
 10 11  1  0  0  0  0
 11 12  2  0  0  0  0
 12 13  1  0  0  0  0
 12 17  1  0  0  0  0
 13 18  1  0  0  0  0
 14 19  1  0  0  0  0
 14 13  2  0  0  0  0
 15 14  1  0  0  0  0
 16 11  1  0  0  0  0
 19 22  1  0  0  0  0
 20 19  1  0  0  0  0
 21 19  1  0  0  0  0
 23  5  1  0  0  0  0
 23 24  1  0  0  0  0
 24 25  1  0  0  0  0
 24 26  1  0  0  0  0
 27 34  1  6  0  0  0
 27 32  1  0  0  0  0
 27 28  1  0  0  0  0
 28 30  1  0  0  0  0
 29 28  1  0  0  0  0
 30 24  1  6  0  0  0
 31 30  1  0  0  0  0
 32 33  1  0  0  0  0
 32 31  1  0  0  0  0
 34 35  1  0  0  0  0
M  END
>  <minimizedAffinity>
-5.04787302

$$$$
