
 OpenBabel03262522433D

 25 27  0  0  1  0  0  0  0  0999 V2000
   35.4310   30.4660   50.1210 C   0  0  1  0  0  0  0  0  0  0  0  0
   36.7510   30.1010   50.6380 C   0  0  0  0  0  0  0  0  0  0  0  0
   36.6080   31.3400   49.8200 C   0  0  1  0  0  0  0  0  0  0  0  0
   34.6360   30.8910   50.8090 H   0  0  0  0  0  0  0  0  0  0  0  0
   37.2820   29.2230   50.2260 H   0  0  0  0  0  0  0  0  0  0  0  0
   36.9850   30.1980   51.7430 H   0  0  0  0  0  0  0  0  0  0  0  0
   36.6020   32.2760   50.4490 H   0  0  0  0  0  0  0  0  0  0  0  0
   34.7880   28.2560   49.0890 C   0  0  0  0  0  0  0  0  0  0  0  0
   34.7990   29.6830   49.0420 C   0  0  0  0  0  0  0  0  0  0  0  0
   34.1970   30.2840   47.9320 C   0  0  0  0  0  0  0  0  0  0  0  0
   33.6400   29.5070   46.9690 N   0  0  0  0  0  0  0  0  0  0  0  0
   33.6520   28.1430   47.0550 C   0  0  0  0  0  0  0  0  0  0  0  0
   34.2320   27.5400   48.1250 N   0  0  0  0  0  0  0  0  0  0  0  0
   35.2200   27.6920   49.8990 H   0  0  0  0  0  0  0  0  0  0  0  0
   34.1850   31.3510   47.8600 H   0  0  0  0  0  0  0  0  0  0  0  0
   33.2040   27.5680   46.2760 H   0  0  0  0  0  0  0  0  0  0  0  0
   38.1110   32.7830   48.6070 C   0  0  2  0  0  0  0  0  0  0  0  0
   37.2050   31.5440   48.4930 C   0  0  1  0  0  0  0  0  0  0  0  0
   38.2090   30.5550   48.0150 C   0  0  0  0  0  0  0  0  0  0  0  0
   37.7800   29.7760   47.3420 H   0  0  0  0  0  0  0  0  0  0  0  0
   39.0790   31.2570   47.1470 O   0  0  0  0  0  0  0  0  0  0  0  0
   38.9670   32.5910   47.4030 C   0  0  0  0  0  0  0  0  0  0  0  0
   39.9750   33.0720   47.5600 H   0  0  0  0  0  0  0  0  0  0  0  0
   38.8690   32.6050   49.7690 O   0  0  0  0  0  0  0  0  0  0  0  0
   39.7220   33.1320   49.7300 H   0  0  0  0  0  0  0  0  0  0  0  0
  1  2  1  0  0  0  0
  1  4  1  1  0  0  0
  2  6  1  0  0  0  0
  3  1  1  0  0  0  0
  3  7  1  1  0  0  0
  3  2  1  0  0  0  0
  5  2  1  0  0  0  0
  8 14  1  0  0  0  0
  9  8  1  0  0  0  0
  9  1  1  0  0  0  0
 10  9  2  0  0  0  0
 11 12  2  0  0  0  0
 11 10  1  0  0  0  0
 12 13  1  0  0  0  0
 13  8  2  0  0  0  0
 15 10  1  0  0  0  0
 16 12  1  0  0  0  0
 17 24  1  1  0  0  0
 18 19  1  1  0  0  0
 18 17  1  0  0  0  0
 18  3  1  0  0  0  0
 20 19  1  0  0  0  0
 21 22  1  0  0  0  0
 21 19  1  0  0  0  0
 22 23  1  0  0  0  0
 22 17  1  0  0  0  0
 25 24  1  0  0  0  0
M  END
>  <minimizedAffinity>
-4.86510277

>  <minimizedRMSD>
4.86897087

$$$$
