
 OpenBabel03272503373D

 19 20  0  0  1  0  0  0  0  0999 V2000
   37.2100   29.7990   51.4160 C   0  0  0  0  0  0  0  0  0  0  0  0
   37.7160   30.6540   50.4150 C   0  0  0  0  0  0  0  0  0  0  0  0
   36.9060   30.9740   49.3340 C   0  0  0  0  0  0  0  0  0  0  0  0
   35.6440   30.4330   49.3030 N   0  0  0  0  0  0  0  0  0  0  0  0
   35.1750   29.6140   50.2720 C   0  0  0  0  0  0  0  0  0  0  0  0
   35.9640   29.3120   51.3070 N   0  0  0  0  0  0  0  0  0  0  0  0
   38.7070   31.0920   50.4190 H   0  0  0  0  0  0  0  0  0  0  0  0
   34.1810   29.2020   50.2250 H   0  0  0  0  0  0  0  0  0  0  0  0
   37.7550   31.1190   47.0070 C   0  0  2  0  0  0  0  0  0  0  0  0
   37.3490   31.8620   48.2370 C   0  0  2  0  0  0  0  0  0  0  0  0
   38.5370   32.7100   48.6510 C   0  0  0  0  0  0  0  0  0  0  0  0
   38.2490   33.7630   48.8930 H   0  0  0  0  0  0  0  0  0  0  0  0
   39.3470   32.7540   47.5080 O   0  0  0  0  0  0  0  0  0  0  0  0
   39.2430   31.4760   46.9220 C   0  0  0  0  0  0  0  0  0  0  0  0
   39.5510   31.5800   45.8650 H   0  0  0  0  0  0  0  0  0  0  0  0
   37.1130   31.5740   45.8560 O   0  0  0  0  0  0  0  0  0  0  0  0
   37.2510   32.5480   45.7640 H   0  0  0  0  0  0  0  0  0  0  0  0
   38.1370   29.5810   52.4150 O   0  0  0  0  0  0  0  0  0  0  0  0
   38.4540   30.2440   53.0930 H   0  0  0  0  0  0  0  0  0  0  0  0
  1 18  1  0  0  0  0
  2  7  1  0  0  0  0
  2  1  2  0  0  0  0
  3  2  1  0  0  0  0
  4  3  2  0  0  0  0
  4  5  1  0  0  0  0
  5  6  2  0  0  0  0
  6  1  1  0  0  0  0
  8  5  1  0  0  0  0
  9 16  1  6  0  0  0
  9 10  1  0  0  0  0
 10 11  1  0  0  0  0
 10  3  1  1  0  0  0
 11 12  1  0  0  0  0
 13 11  1  0  0  0  0
 14  9  1  0  0  0  0
 14 13  1  0  0  0  0
 15 14  1  0  0  0  0
 17 16  1  0  0  0  0
 18 19  1  0  0  0  0
M  END
>  <minimizedAffinity>
-5.08862448

>  <minimizedRMSD>
1.99721956

$$$$
