
 OpenBabel03272502323D

 27 28  0  0  1  0  0  0  0  0999 V2000
   38.9490   23.3050   35.3460 C   0  0  2  0  0  0  0  0  0  0  0  0
   39.9200   22.9030   35.7180 H   0  0  0  0  0  0  0  0  0  0  0  0
   38.6880   27.0410   35.1930 C   0  0  2  0  0  3  0  0  0  0  0  0
   38.0350   25.6740   35.4880 C   0  0  0  0  0  3  0  0  0  0  0  0
   37.9140   25.5270   36.5660 H   0  0  0  0  0  0  0  0  0  0  0  0
   39.0460   24.7390   34.9380 C   0  0  1  0  0  3  0  0  0  0  0  0
   40.2560   25.3400   35.3690 O   0  0  0  0  0  0  0  0  0  0  0  0
   40.1200   26.6350   34.8430 C   0  0  0  0  0  3  0  0  0  0  0  0
   40.2700   26.5440   33.7290 H   0  0  0  0  0  0  0  0  0  0  0  0
   38.6940   27.8090   36.3680 O   0  0  0  0  0  0  0  0  0  0  0  0
   39.6520   28.0760   36.5790 H   0  0  0  0  0  0  0  0  0  0  0  0
   37.3750   21.8490   34.2930 C   0  0  0  0  0  3  0  0  0  0  0  0
   38.4660   22.5380   34.1640 C   0  0  0  0  0  3  0  0  0  0  0  0
   35.0580   19.5620   32.4640 C   0  0  0  0  0  0  0  0  0  0  0  0
   35.6560   20.3490   33.4430 C   0  0  0  0  0  0  0  0  0  0  0  0
   36.8090   21.0670   33.2190 C   0  0  0  0  0  0  0  0  0  0  0  0
   37.3500   20.9840   31.9940 N   0  0  0  0  0  0  0  0  0  0  0  0
   36.7600   20.2170   31.0520 C   0  0  0  0  0  0  0  0  0  0  0  0
   35.6500   19.5190   31.2600 N   0  0  0  0  0  0  0  0  0  0  0  0
   34.1460   18.9880   32.6310 H   0  0  0  0  0  0  0  0  0  0  0  0
   35.0900   20.3110   34.3900 H   0  0  0  0  0  0  0  0  0  0  0  0
   37.1740   20.1310   30.0540 H   0  0  0  0  0  0  0  0  0  0  0  0
   37.6750   23.1910   36.6470 S   0  0  0  0  0  0  0  0  0  0  0  0
   38.4000   23.4610   38.2700 C   0  0  0  0  0  0  0  0  0  0  0  0
   39.7470   23.1190   38.3180 F   0  0  0  0  0  0  0  0  0  0  0  0
   38.1790   24.7450   38.7230 F   0  0  0  0  0  0  0  0  0  0  0  0
   37.7130   22.6160   39.1730 F   0  0  0  0  0  0  0  0  0  0  0  0
  1  2  1  1  0  0  0
  1 23  1  0  0  0  0
  3  4  1  0  0  0  0
  3 10  1  1  0  0  0
  4  5  1  0  0  0  0
  6  1  1  1  0  0  0
  6  7  1  0  0  0  0
  6  4  1  0  0  0  0
  8  3  1  0  0  0  0
  8  7  1  0  0  0  0
  9  8  1  0  0  0  0
 10 11  1  0  0  0  0
 13 12  2  0  0  0  0
 13  1  1  0  0  0  0
 14 20  1  0  0  0  0
 14 15  1  0  0  0  0
 15 21  1  0  0  0  0
 16 15  2  0  0  0  0
 16 12  1  0  0  0  0
 17 16  1  0  0  0  0
 18 19  1  0  0  0  0
 18 17  2  0  0  0  0
 19 14  2  0  0  0  0
 22 18  1  0  0  0  0
 23 24  1  0  0  0  0
 24 25  1  0  0  0  0
 24 26  1  0  0  0  0
 24 27  1  0  0  0  0
M  END
>  <minimizedAffinity>
-5.47379923

$$$$

 OpenBabel03272502323D

 27 28  0  0  1  0  0  0  0  0999 V2000
   37.2220   21.7310   32.4050 C   0  0  2  0  0  0  0  0  0  0  0  0
   38.1210   21.9930   31.8020 H   0  0  0  0  0  0  0  0  0  0  0  0
   35.6080   18.3490   32.5060 C   0  0  2  0  0  3  0  0  0  0  0  0
   35.6810   19.8030   33.0200 C   0  0  0  0  0  3  0  0  0  0  0  0
   34.8440   20.3920   32.6340 H   0  0  0  0  0  0  0  0  0  0  0  0
   36.9640   20.2590   32.4320 C   0  0  1  0  0  3  0  0  0  0  0  0
   36.8960   19.7020   31.1300 O   0  0  0  0  0  0  0  0  0  0  0  0
   36.6890   18.3440   31.4250 C   0  0  0  0  0  3  0  0  0  0  0  0
   37.6700   17.9490   31.8150 H   0  0  0  0  0  0  0  0  0  0  0  0
   34.3540   18.1350   31.9140 O   0  0  0  0  0  0  0  0  0  0  0  0
   34.4930   17.8290   30.9540 H   0  0  0  0  0  0  0  0  0  0  0  0
   38.5150   22.0000   34.3960 C   0  0  0  0  0  3  0  0  0  0  0  0
   37.3690   22.1820   33.8180 C   0  0  0  0  0  3  0  0  0  0  0  0
   37.9790   23.4710   37.7850 C   0  0  0  0  0  0  0  0  0  0  0  0
   37.7980   23.0480   36.4730 C   0  0  0  0  0  0  0  0  0  0  0  0
   38.7780   22.3950   35.7590 C   0  0  0  0  0  0  0  0  0  0  0  0
   39.9430   22.1740   36.3860 N   0  0  0  0  0  0  0  0  0  0  0  0
   40.1070   22.5900   37.6600 C   0  0  0  0  0  0  0  0  0  0  0  0
   39.1690   23.2230   38.3550 N   0  0  0  0  0  0  0  0  0  0  0  0
   37.2120   23.9900   38.3600 H   0  0  0  0  0  0  0  0  0  0  0  0
   36.7890   23.3030   36.1040 H   0  0  0  0  0  0  0  0  0  0  0  0
   41.0370   22.4260   38.1920 H   0  0  0  0  0  0  0  0  0  0  0  0
   35.7370   22.5330   31.7130 S   0  0  0  0  0  0  0  0  0  0  0  0
   36.0890   24.2400   31.2660 C   0  0  0  0  0  0  0  0  0  0  0  0
   36.2780   25.0550   32.3770 F   0  0  0  0  0  0  0  0  0  0  0  0
   37.1390   24.3300   30.3760 F   0  0  0  0  0  0  0  0  0  0  0  0
   34.9580   24.7240   30.5700 F   0  0  0  0  0  0  0  0  0  0  0  0
  1  2  1  6  0  0  0
  1 13  1  0  0  0  0
  3 10  1  6  0  0  0
  3  4  1  0  0  0  0
  5  4  1  0  0  0  0
  6  1  1  6  0  0  0
  6  4  1  0  0  0  0
  7  8  1  0  0  0  0
  7  6  1  0  0  0  0
  8  9  1  0  0  0  0
  8  3  1  0  0  0  0
 11 10  1  0  0  0  0
 12 16  1  0  0  0  0
 13 12  2  0  0  0  0
 14 19  1  0  0  0  0
 14 20  1  0  0  0  0
 15 14  2  0  0  0  0
 16 17  2  0  0  0  0
 16 15  1  0  0  0  0
 17 18  1  0  0  0  0
 18 22  1  0  0  0  0
 18 19  2  0  0  0  0
 21 15  1  0  0  0  0
 23  1  1  0  0  0  0
 24 23  1  0  0  0  0
 24 25  1  0  0  0  0
 26 24  1  0  0  0  0
 27 24  1  0  0  0  0
M  END
>  <minimizedAffinity>
-5.21637678

$$$$

 OpenBabel03272502323D

 27 28  0  0  1  0  0  0  0  0999 V2000
   38.2890   24.4450   34.8190 C   0  0  2  0  0  0  0  0  0  0  0  0
   37.4300   25.1400   34.9600 H   0  0  0  0  0  0  0  0  0  0  0  0
   38.9740   23.4140   38.3570 C   0  0  2  0  0  3  0  0  0  0  0  0
   38.1480   24.2430   37.3500 C   0  0  0  0  0  3  0  0  0  0  0  0
   37.1480   23.8180   37.2270 H   0  0  0  0  0  0  0  0  0  0  0  0
   38.9460   24.0820   36.1110 C   0  0  1  0  0  3  0  0  0  0  0  0
   39.2930   22.7080   36.1700 O   0  0  0  0  0  0  0  0  0  0  0  0
   39.9090   22.6370   37.4310 C   0  0  0  0  0  3  0  0  0  0  0  0
   40.9110   23.1430   37.3250 H   0  0  0  0  0  0  0  0  0  0  0  0
   38.1220   22.5180   39.0200 O   0  0  0  0  0  0  0  0  0  0  0  0
   38.4690   21.5720   38.8800 H   0  0  0  0  0  0  0  0  0  0  0  0
   37.4110   23.2370   32.9530 C   0  0  0  0  0  3  0  0  0  0  0  0
   37.8550   23.1750   34.1700 C   0  0  0  0  0  3  0  0  0  0  0  0
   35.2570   20.3780   31.8910 C   0  0  0  0  0  0  0  0  0  0  0  0
   35.7510   21.5050   32.5410 C   0  0  0  0  0  0  0  0  0  0  0  0
   36.9630   22.0760   32.2210 C   0  0  0  0  0  0  0  0  0  0  0  0
   37.6690   21.4990   31.2380 N   0  0  0  0  0  0  0  0  0  0  0  0
   37.1780   20.4060   30.6150 C   0  0  0  0  0  0  0  0  0  0  0  0
   36.0130   19.8460   30.9170 N   0  0  0  0  0  0  0  0  0  0  0  0
   34.3010   19.9160   32.1360 H   0  0  0  0  0  0  0  0  0  0  0  0
   35.0540   21.8570   33.3210 H   0  0  0  0  0  0  0  0  0  0  0  0
   37.7260   19.9180   29.8170 H   0  0  0  0  0  0  0  0  0  0  0  0
   39.5580   25.2110   33.7560 S   0  0  0  0  0  0  0  0  0  0  0  0
   40.3390   26.5960   34.5980 C   0  0  0  0  0  0  0  0  0  0  0  0
   39.5040   27.1890   35.5390 F   0  0  0  0  0  0  0  0  0  0  0  0
   41.5570   26.2440   35.1410 F   0  0  0  0  0  0  0  0  0  0  0  0
   40.6270   27.5670   33.6120 F   0  0  0  0  0  0  0  0  0  0  0  0
  1  2  1  1  0  0  0
  3 10  1  6  0  0  0
  4  3  1  0  0  0  0
  5  4  1  0  0  0  0
  6  1  1  6  0  0  0
  6  7  1  0  0  0  0
  6  4  1  0  0  0  0
  7  8  1  0  0  0  0
  8  3  1  0  0  0  0
  9  8  1  0  0  0  0
 11 10  1  0  0  0  0
 12 13  2  0  0  0  0
 13  1  1  0  0  0  0
 14 20  1  0  0  0  0
 14 15  1  0  0  0  0
 15 21  1  0  0  0  0
 16 15  2  0  0  0  0
 16 12  1  0  0  0  0
 17 16  1  0  0  0  0
 18 19  1  0  0  0  0
 18 17  2  0  0  0  0
 19 14  2  0  0  0  0
 22 18  1  0  0  0  0
 23 24  1  0  0  0  0
 23  1  1  0  0  0  0
 24 26  1  0  0  0  0
 24 25  1  0  0  0  0
 27 24  1  0  0  0  0
M  END
>  <minimizedAffinity>
-5.05016518

$$$$

 OpenBabel03272502323D

 27 28  0  0  1  0  0  0  0  0999 V2000
   38.2140   23.7430   35.1540 C   0  0  2  0  0  0  0  0  0  0  0  0
   37.3780   23.7110   35.8900 H   0  0  0  0  0  0  0  0  0  0  0  0
   40.9920   22.5400   37.3660 C   0  0  2  0  0  3  0  0  0  0  0  0
   39.5500   23.0700   37.2110 C   0  0  0  0  0  3  0  0  0  0  0  0
   38.8230   22.2680   37.3800 H   0  0  0  0  0  0  0  0  0  0  0  0
   39.5430   23.4980   35.7920 C   0  0  1  0  0  3  0  0  0  0  0  0
   40.2500   22.4380   35.1690 O   0  0  0  0  0  0  0  0  0  0  0  0
   41.4440   22.4360   35.9090 C   0  0  0  0  0  3  0  0  0  0  0  0
   42.0230   23.3470   35.5830 H   0  0  0  0  0  0  0  0  0  0  0  0
   40.9500   21.2580   37.9350 O   0  0  0  0  0  0  0  0  0  0  0  0
   41.4230   20.6080   37.3110 H   0  0  0  0  0  0  0  0  0  0  0  0
   37.0250   21.9090   34.1890 C   0  0  0  0  0  3  0  0  0  0  0  0
   38.0360   22.7150   34.0900 C   0  0  0  0  0  3  0  0  0  0  0  0
   35.2500   19.1310   32.4360 C   0  0  0  0  0  0  0  0  0  0  0  0
   35.5810   20.1510   33.3210 C   0  0  0  0  0  0  0  0  0  0  0  0
   36.7490   20.8740   33.2210 C   0  0  0  0  0  0  0  0  0  0  0  0
   37.5780   20.5560   32.2160 N   0  0  0  0  0  0  0  0  0  0  0  0
   37.2450   19.5630   31.3630 C   0  0  0  0  0  0  0  0  0  0  0  0
   36.1230   18.8590   31.4530 N   0  0  0  0  0  0  0  0  0  0  0  0
   34.3300   18.5510   32.5070 H   0  0  0  0  0  0  0  0  0  0  0  0
   34.7970   20.2890   34.0870 H   0  0  0  0  0  0  0  0  0  0  0  0
   37.8950   19.2830   30.5410 H   0  0  0  0  0  0  0  0  0  0  0  0
   38.2870   25.3770   34.3470 S   0  0  0  0  0  0  0  0  0  0  0  0
   38.5230   26.6770   35.5670 C   0  0  0  0  0  0  0  0  0  0  0  0
   39.8420   27.1100   35.6390 F   0  0  0  0  0  0  0  0  0  0  0  0
   37.6470   27.7260   35.3740 F   0  0  0  0  0  0  0  0  0  0  0  0
   38.1860   26.1270   36.8250 F   0  0  0  0  0  0  0  0  0  0  0  0
  1  2  1  1  0  0  0
  3 10  1  6  0  0  0
  4  3  1  0  0  0  0
  4  5  1  0  0  0  0
  6  1  1  6  0  0  0
  6  4  1  0  0  0  0
  7  6  1  0  0  0  0
  7  8  1  0  0  0  0
  8  3  1  0  0  0  0
  9  8  1  0  0  0  0
 11 10  1  0  0  0  0
 13 12  2  0  0  0  0
 13  1  1  0  0  0  0
 14 20  1  0  0  0  0
 14 15  1  0  0  0  0
 15 21  1  0  0  0  0
 16 15  2  0  0  0  0
 16 12  1  0  0  0  0
 17 16  1  0  0  0  0
 18 19  1  0  0  0  0
 18 17  2  0  0  0  0
 19 14  2  0  0  0  0
 22 18  1  0  0  0  0
 23  1  1  0  0  0  0
 23 24  1  0  0  0  0
 24 25  1  0  0  0  0
 24 27  1  0  0  0  0
 26 24  1  0  0  0  0
M  END
>  <minimizedAffinity>
-4.97188473

$$$$

 OpenBabel03272502323D

 27 28  0  0  1  0  0  0  0  0999 V2000
   39.6320   23.9360   35.6080 C   0  0  2  0  0  0  0  0  0  0  0  0
   40.4770   23.6880   36.2920 H   0  0  0  0  0  0  0  0  0  0  0  0
   41.0540   26.9010   33.8080 C   0  0  2  0  0  3  0  0  0  0  0  0
   40.3420   26.3130   35.0450 C   0  0  0  0  0  3  0  0  0  0  0  0
   41.0210   26.2780   35.9030 H   0  0  0  0  0  0  0  0  0  0  0  0
   40.0150   24.9460   34.5750 C   0  0  1  0  0  3  0  0  0  0  0  0
   41.2030   24.5870   33.8880 O   0  0  0  0  0  0  0  0  0  0  0  0
   41.3200   25.6480   32.9750 C   0  0  0  0  0  3  0  0  0  0  0  0
   40.5220   25.4860   32.1940 H   0  0  0  0  0  0  0  0  0  0  0  0
   42.2760   27.4640   34.2080 O   0  0  0  0  0  0  0  0  0  0  0  0
   43.0260   27.0250   33.6810 H   0  0  0  0  0  0  0  0  0  0  0  0
   37.9220   22.7230   34.4630 C   0  0  0  0  0  3  0  0  0  0  0  0
   39.1470   22.7250   34.8880 C   0  0  0  0  0  3  0  0  0  0  0  0
   37.5320   19.9740   31.9660 C   0  0  0  0  0  0  0  0  0  0  0  0
   38.0310   21.0410   32.7070 C   0  0  0  0  0  0  0  0  0  0  0  0
   37.3400   21.6090   33.7530 C   0  0  0  0  0  0  0  0  0  0  0  0
   36.1390   21.0880   34.0450 N   0  0  0  0  0  0  0  0  0  0  0  0
   35.6640   20.0530   33.3180 C   0  0  0  0  0  0  0  0  0  0  0  0
   36.3220   19.5000   32.3060 N   0  0  0  0  0  0  0  0  0  0  0  0
   38.0690   19.5180   31.1350 H   0  0  0  0  0  0  0  0  0  0  0  0
   39.0260   21.3510   32.3430 H   0  0  0  0  0  0  0  0  0  0  0  0
   34.6970   19.6110   33.5300 H   0  0  0  0  0  0  0  0  0  0  0  0
   38.2320   24.6250   36.5530 S   0  0  0  0  0  0  0  0  0  0  0  0
   38.2020   23.9550   38.2220 C   0  0  0  0  0  0  0  0  0  0  0  0
   38.0360   24.9390   39.1900 F   0  0  0  0  0  0  0  0  0  0  0  0
   37.2710   22.9440   38.3510 F   0  0  0  0  0  0  0  0  0  0  0  0
   39.4580   23.3460   38.4430 F   0  0  0  0  0  0  0  0  0  0  0  0
  1  2  1  1  0  0  0
  1 23  1  0  0  0  0
  3 10  1  1  0  0  0
  3  4  1  0  0  0  0
  4  5  1  0  0  0  0
  6  4  1  0  0  0  0
  6  1  1  1  0  0  0
  7  6  1  0  0  0  0
  8  3  1  0  0  0  0
  8  7  1  0  0  0  0
  9  8  1  0  0  0  0
 11 10  1  0  0  0  0
 12 13  2  0  0  0  0
 13  1  1  0  0  0  0
 14 19  2  0  0  0  0
 14 15  1  0  0  0  0
 15 16  2  0  0  0  0
 16 17  1  0  0  0  0
 16 12  1  0  0  0  0
 18 22  1  0  0  0  0
 18 17  2  0  0  0  0
 19 18  1  0  0  0  0
 20 14  1  0  0  0  0
 21 15  1  0  0  0  0
 23 24  1  0  0  0  0
 24 26  1  0  0  0  0
 24 27  1  0  0  0  0
 24 25  1  0  0  0  0
M  END
>  <minimizedAffinity>
-4.89141798

$$$$

 OpenBabel03272502323D

 27 28  0  0  1  0  0  0  0  0999 V2000
   34.6980   29.4050   34.3320 C   0  0  2  0  0  0  0  0  0  0  0  0
   34.2620   28.7190   35.0940 H   0  0  0  0  0  0  0  0  0  0  0  0
   34.6020   32.5140   36.4240 C   0  0  2  0  0  3  0  0  0  0  0  0
   33.9130   31.2260   35.9240 C   0  0  0  0  0  3  0  0  0  0  0  0
   33.8800   30.4730   36.7170 H   0  0  0  0  0  0  0  0  0  0  0  0
   34.8260   30.8070   34.8340 C   0  0  1  0  0  3  0  0  0  0  0  0
   36.0970   31.0540   35.4140 O   0  0  0  0  0  0  0  0  0  0  0  0
   35.9770   32.4100   35.7630 C   0  0  0  0  0  3  0  0  0  0  0  0
   36.0240   32.9930   34.7990 H   0  0  0  0  0  0  0  0  0  0  0  0
   34.7480   32.4440   37.8180 O   0  0  0  0  0  0  0  0  0  0  0  0
   35.7320   32.5480   38.0500 H   0  0  0  0  0  0  0  0  0  0  0  0
   36.5530   27.9080   34.4940 C   0  0  0  0  0  3  0  0  0  0  0  0
   36.0560   28.9560   33.9150 C   0  0  0  0  0  3  0  0  0  0  0  0
   40.0440   26.6680   34.9600 C   0  0  0  0  0  0  0  0  0  0  0  0
   38.7640   27.1630   35.1890 C   0  0  0  0  0  0  0  0  0  0  0  0
   37.8570   27.3790   34.1750 C   0  0  0  0  0  0  0  0  0  0  0  0
   38.2570   27.0880   32.9280 N   0  0  0  0  0  0  0  0  0  0  0  0
   39.5020   26.6090   32.7190 C   0  0  0  0  0  0  0  0  0  0  0  0
   40.3840   26.4000   33.6890 N   0  0  0  0  0  0  0  0  0  0  0  0
   40.7700   26.4950   35.7540 H   0  0  0  0  0  0  0  0  0  0  0  0
   38.5920   27.3500   36.2630 H   0  0  0  0  0  0  0  0  0  0  0  0
   39.8530   26.3650   31.7230 H   0  0  0  0  0  0  0  0  0  0  0  0
   33.6430   29.4530   32.8440 S   0  0  0  0  0  0  0  0  0  0  0  0
   31.9580   28.9670   33.2450 C   0  0  0  0  0  0  0  0  0  0  0  0
   31.0320   29.9630   32.9590 F   0  0  0  0  0  0  0  0  0  0  0  0
   31.6190   27.7650   32.6590 F   0  0  0  0  0  0  0  0  0  0  0  0
   31.9180   28.7350   34.6390 F   0  0  0  0  0  0  0  0  0  0  0  0
  1  2  1  1  0  0  0
  3 10  1  1  0  0  0
  4  3  1  0  0  0  0
  4  5  1  0  0  0  0
  6  1  1  1  0  0  0
  6  7  1  0  0  0  0
  6  4  1  0  0  0  0
  7  8  1  0  0  0  0
  8  3  1  0  0  0  0
  9  8  1  0  0  0  0
 10 11  1  0  0  0  0
 13  1  1  0  0  0  0
 13 12  2  0  0  0  0
 14 15  1  0  0  0  0
 14 20  1  0  0  0  0
 15 21  1  0  0  0  0
 16 12  1  0  0  0  0
 16 15  2  0  0  0  0
 17 16  1  0  0  0  0
 18 17  2  0  0  0  0
 18 19  1  0  0  0  0
 19 14  2  0  0  0  0
 22 18  1  0  0  0  0
 23 24  1  0  0  0  0
 23  1  1  0  0  0  0
 24 27  1  0  0  0  0
 25 24  1  0  0  0  0
 26 24  1  0  0  0  0
M  END
>  <minimizedAffinity>
-4.86874008

$$$$

 OpenBabel03272502323D

 27 28  0  0  1  0  0  0  0  0999 V2000
   38.2680   25.6160   33.1790 C   0  0  2  0  0  0  0  0  0  0  0  0
   39.3790   25.5840   33.0890 H   0  0  0  0  0  0  0  0  0  0  0  0
   37.0560   28.2720   30.8270 C   0  0  2  0  0  3  0  0  0  0  0  0
   38.1340   27.2420   31.2280 C   0  0  0  0  0  3  0  0  0  0  0  0
   38.1140   26.3800   30.5540 H   0  0  0  0  0  0  0  0  0  0  0  0
   37.6860   26.8590   32.5880 C   0  0  1  0  0  3  0  0  0  0  0  0
   36.2820   26.7620   32.4110 O   0  0  0  0  0  0  0  0  0  0  0  0
   35.9850   28.0340   31.8920 C   0  0  0  0  0  3  0  0  0  0  0  0
   36.0780   28.7580   32.7510 H   0  0  0  0  0  0  0  0  0  0  0  0
   36.5440   27.9330   29.5660 O   0  0  0  0  0  0  0  0  0  0  0  0
   35.5370   27.8110   29.6430 H   0  0  0  0  0  0  0  0  0  0  0  0
   37.4580   23.3690   33.1680 C   0  0  0  0  0  3  0  0  0  0  0  0
   37.6360   24.4570   32.4870 C   0  0  0  0  0  3  0  0  0  0  0  0
   35.7580   20.0490   32.9900 C   0  0  0  0  0  0  0  0  0  0  0  0
   36.3410   21.2240   33.4520 C   0  0  0  0  0  0  0  0  0  0  0  0
   36.8570   22.1820   32.6080 C   0  0  0  0  0  0  0  0  0  0  0  0
   36.7760   21.9400   31.2910 N   0  0  0  0  0  0  0  0  0  0  0  0
   36.2080   20.7960   30.8540 C   0  0  0  0  0  0  0  0  0  0  0  0
   35.7110   19.8650   31.6600 N   0  0  0  0  0  0  0  0  0  0  0  0
   35.3480   19.2830   33.6480 H   0  0  0  0  0  0  0  0  0  0  0  0
   36.3290   21.2720   34.5550 H   0  0  0  0  0  0  0  0  0  0  0  0
   36.1290   20.5730   29.7960 H   0  0  0  0  0  0  0  0  0  0  0  0
   37.7720   25.5600   34.9330 S   0  0  0  0  0  0  0  0  0  0  0  0
   38.2820   27.0600   35.7850 C   0  0  0  0  0  0  0  0  0  0  0  0
   37.5280   28.1680   35.4150 F   0  0  0  0  0  0  0  0  0  0  0  0
   38.3060   26.8870   37.1540 F   0  0  0  0  0  0  0  0  0  0  0  0
   39.6220   27.3100   35.4100 F   0  0  0  0  0  0  0  0  0  0  0  0
  1  2  1  6  0  0  0
  1 23  1  0  0  0  0
  3 10  1  6  0  0  0
  3  4  1  0  0  0  0
  3  8  1  0  0  0  0
  4  6  1  0  0  0  0
  5  4  1  0  0  0  0
  6  1  1  6  0  0  0
  7  6  1  0  0  0  0
  8  7  1  0  0  0  0
  8  9  1  0  0  0  0
 10 11  1  0  0  0  0
 13 12  2  0  0  0  0
 13  1  1  0  0  0  0
 14 15  1  0  0  0  0
 14 20  1  0  0  0  0
 15 21  1  0  0  0  0
 16 12  1  0  0  0  0
 16 15  2  0  0  0  0
 17 16  1  0  0  0  0
 18 17  2  0  0  0  0
 18 19  1  0  0  0  0
 19 14  2  0  0  0  0
 22 18  1  0  0  0  0
 23 24  1  0  0  0  0
 24 26  1  0  0  0  0
 25 24  1  0  0  0  0
 27 24  1  0  0  0  0
M  END
>  <minimizedAffinity>
-4.81549978

$$$$

 OpenBabel03272502323D

 27 28  0  0  1  0  0  0  0  0999 V2000
   34.4580   30.2470   33.7090 C   0  0  2  0  0  0  0  0  0  0  0  0
   34.5440   30.1430   32.6030 H   0  0  0  0  0  0  0  0  0  0  0  0
   31.0010   28.9290   34.3170 C   0  0  2  0  0  3  0  0  0  0  0  0
   32.1490   29.2500   33.3350 C   0  0  0  0  0  3  0  0  0  0  0  0
   32.6370   28.3300   32.9970 H   0  0  0  0  0  0  0  0  0  0  0  0
   33.0580   30.0460   34.1930 C   0  0  1  0  0  3  0  0  0  0  0  0
   33.0100   29.3220   35.4110 O   0  0  0  0  0  0  0  0  0  0  0  0
   31.6280   29.3010   35.6610 C   0  0  0  0  0  3  0  0  0  0  0  0
   31.3460   30.3450   35.9800 H   0  0  0  0  0  0  0  0  0  0  0  0
   30.7450   27.5490   34.2870 O   0  0  0  0  0  0  0  0  0  0  0  0
   30.8460   27.1770   35.2280 H   0  0  0  0  0  0  0  0  0  0  0  0
   36.0980   28.5090   33.6940 C   0  0  0  0  0  3  0  0  0  0  0  0
   35.3180   29.2540   34.4140 C   0  0  0  0  0  3  0  0  0  0  0  0
   38.5940   26.9280   35.9760 C   0  0  0  0  0  0  0  0  0  0  0  0
   37.7170   27.8270   35.3790 C   0  0  0  0  0  0  0  0  0  0  0  0
   36.9760   27.5140   34.2620 C   0  0  0  0  0  0  0  0  0  0  0  0
   37.1280   26.2810   33.7550 N   0  0  0  0  0  0  0  0  0  0  0  0
   37.9830   25.4170   34.3440 C   0  0  0  0  0  0  0  0  0  0  0  0
   38.7040   25.7110   35.4190 N   0  0  0  0  0  0  0  0  0  0  0  0
   39.1870   27.1650   36.8590 H   0  0  0  0  0  0  0  0  0  0  0  0
   37.7060   28.7930   35.9140 H   0  0  0  0  0  0  0  0  0  0  0  0
   38.1270   24.4150   33.9570 H   0  0  0  0  0  0  0  0  0  0  0  0
   34.9830   31.9140   34.2330 S   0  0  0  0  0  0  0  0  0  0  0  0
   35.5420   31.8950   35.9420 C   0  0  0  0  0  0  0  0  0  0  0  0
   34.5530   31.4700   36.8230 F   0  0  0  0  0  0  0  0  0  0  0  0
   36.7090   31.1740   36.0910 F   0  0  0  0  0  0  0  0  0  0  0  0
   35.8720   33.2270   36.2820 F   0  0  0  0  0  0  0  0  0  0  0  0
  1  2  1  6  0  0  0
  1 23  1  0  0  0  0
  1 13  1  0  0  0  0
  3 10  1  1  0  0  0
  3  8  1  0  0  0  0
  4  6  1  0  0  0  0
  4  3  1  0  0  0  0
  5  4  1  0  0  0  0
  6  1  1  6  0  0  0
  6  7  1  0  0  0  0
  7  8  1  0  0  0  0
  8  9  1  0  0  0  0
 10 11  1  0  0  0  0
 12 16  1  0  0  0  0
 12 13  2  0  0  0  0
 14 20  1  0  0  0  0
 15 21  1  0  0  0  0
 15 14  2  0  0  0  0
 16 15  1  0  0  0  0
 17 16  2  0  0  0  0
 17 18  1  0  0  0  0
 18 19  2  0  0  0  0
 19 14  1  0  0  0  0
 22 18  1  0  0  0  0
 23 24  1  0  0  0  0
 24 26  1  0  0  0  0
 24 27  1  0  0  0  0
 24 25  1  0  0  0  0
M  END
>  <minimizedAffinity>
-4.76472616

$$$$

 OpenBabel03272502323D

 27 28  0  0  1  0  0  0  0  0999 V2000
   40.0870   23.3070   35.6750 C   0  0  2  0  0  0  0  0  0  0  0  0
   39.6880   22.4860   35.0360 H   0  0  0  0  0  0  0  0  0  0  0  0
   43.5590   24.7060   35.4630 C   0  0  2  0  0  3  0  0  0  0  0  0
   42.0600   24.8090   35.1090 C   0  0  0  0  0  3  0  0  0  0  0  0
   41.5800   25.6030   35.6880 H   0  0  0  0  0  0  0  0  0  0  0  0
   41.5650   23.4760   35.5270 C   0  0  1  0  0  3  0  0  0  0  0  0
   42.2520   23.2870   36.7530 O   0  0  0  0  0  0  0  0  0  0  0  0
   43.5860   23.4580   36.3470 C   0  0  0  0  0  3  0  0  0  0  0  0
   43.8620   22.5350   35.7610 H   0  0  0  0  0  0  0  0  0  0  0  0
   43.9280   25.8250   36.2250 O   0  0  0  0  0  0  0  0  0  0  0  0
   44.3160   25.5060   37.1090 H   0  0  0  0  0  0  0  0  0  0  0  0
   38.5080   24.6140   34.4470 C   0  0  0  0  0  3  0  0  0  0  0  0
   39.4550   24.6130   35.3320 C   0  0  0  0  0  3  0  0  0  0  0  0
   36.7250   27.8870   34.6720 C   0  0  0  0  0  0  0  0  0  0  0  0
   37.4040   26.7150   34.9890 C   0  0  0  0  0  0  0  0  0  0  0  0
   37.8210   25.8140   34.0340 C   0  0  0  0  0  0  0  0  0  0  0  0
   37.5460   26.1110   32.7550 N   0  0  0  0  0  0  0  0  0  0  0  0
   36.8860   27.2520   32.4600 C   0  0  0  0  0  0  0  0  0  0  0  0
   36.4770   28.1250   33.3740 N   0  0  0  0  0  0  0  0  0  0  0  0
   36.3890   28.6060   35.4190 H   0  0  0  0  0  0  0  0  0  0  0  0
   37.5520   26.6190   36.0790 H   0  0  0  0  0  0  0  0  0  0  0  0
   36.6500   27.5180   31.4360 H   0  0  0  0  0  0  0  0  0  0  0  0
   39.7490   22.9660   37.4340 S   0  0  0  0  0  0  0  0  0  0  0  0
   38.0810   23.4770   37.8710 C   0  0  0  0  0  0  0  0  0  0  0  0
   37.9840   24.8460   38.0970 F   0  0  0  0  0  0  0  0  0  0  0  0
   37.1540   23.0410   36.9470 F   0  0  0  0  0  0  0  0  0  0  0  0
   37.7530   22.8200   39.0790 F   0  0  0  0  0  0  0  0  0  0  0  0
  1  2  1  6  0  0  0
  1 23  1  0  0  0  0
  3 10  1  1  0  0  0
  3  8  1  0  0  0  0
  4  3  1  0  0  0  0
  4  6  1  0  0  0  0
  4  5  1  0  0  0  0
  6  1  1  1  0  0  0
  6  7  1  0  0  0  0
  8  7  1  0  0  0  0
  9  8  1  0  0  0  0
 10 11  1  0  0  0  0
 12 13  2  0  0  0  0
 13  1  1  0  0  0  0
 14 15  1  0  0  0  0
 14 20  1  0  0  0  0
 15 21  1  0  0  0  0
 16 12  1  0  0  0  0
 16 15  2  0  0  0  0
 17 16  1  0  0  0  0
 18 17  2  0  0  0  0
 18 19  1  0  0  0  0
 19 14  2  0  0  0  0
 22 18  1  0  0  0  0
 23 24  1  0  0  0  0
 24 25  1  0  0  0  0
 24 27  1  0  0  0  0
 26 24  1  0  0  0  0
M  END
>  <minimizedAffinity>
-4.75055122

$$$$
