
 OpenBabel03272507363D

 19 20  0  0  1  0  0  0  0  0999 V2000
   37.0400   30.1250   50.8040 C   0  0  0  0  0  0  0  0  0  0  0  0
   37.0580   30.8900   49.6330 C   0  0  0  0  0  0  0  0  0  0  0  0
   35.9230   30.8660   48.8340 C   0  0  0  0  0  0  0  0  0  0  0  0
   34.8610   30.1110   49.2180 N   0  0  0  0  0  0  0  0  0  0  0  0
   34.8590   29.3760   50.3530 C   0  0  0  0  0  0  0  0  0  0  0  0
   35.9520   29.3860   51.1460 N   0  0  0  0  0  0  0  0  0  0  0  0
   35.8450   31.4200   47.9200 H   0  0  0  0  0  0  0  0  0  0  0  0
   33.9790   28.7970   50.6030 H   0  0  0  0  0  0  0  0  0  0  0  0
   38.4430   31.8090   47.7520 C   0  0  1  0  0  3  0  0  0  0  0  0
   38.2170   31.7030   49.2290 C   0  0  1  0  0  3  0  0  0  0  0  0
   38.1520   33.1250   49.6560 C   0  0  0  0  0  3  0  0  0  0  0  0
   37.3000   33.6990   49.2470 H   0  0  0  0  0  0  0  0  0  0  0  0
   39.2710   33.6390   48.9580 O   0  0  0  0  0  0  0  0  0  0  0  0
   39.0000   33.2090   47.6430 C   0  0  0  0  0  3  0  0  0  0  0  0
   39.8720   33.2470   46.9850 H   0  0  0  0  0  0  0  0  0  0  0  0
   39.3040   30.8160   47.3270 O   0  0  0  0  0  0  0  0  0  0  0  0
   39.5220   30.8460   46.3830 H   0  0  0  0  0  0  0  0  0  0  0  0
   38.2030   30.2030   51.5410 O   0  0  0  0  0  0  0  0  0  0  0  0
   38.3950   30.9280   52.2070 H   0  0  0  0  0  0  0  0  0  0  0  0
  1  6  1  0  0  0  0
  1 18  1  0  0  0  0
  2  1  2  0  0  0  0
  3  4  2  0  0  0  0
  3  2  1  0  0  0  0
  4  5  1  0  0  0  0
  5  8  1  0  0  0  0
  5  6  2  0  0  0  0
  7  3  1  0  0  0  0
  9 16  1  1  0  0  0
  9 10  1  0  0  0  0
 10  2  1  6  0  0  0
 10 11  1  0  0  0  0
 12 11  1  0  0  0  0
 13 11  1  0  0  0  0
 14  9  1  0  0  0  0
 14 13  1  0  0  0  0
 15 14  1  0  0  0  0
 17 16  1  0  0  0  0
 18 19  1  0  0  0  0
M  END
>  <minimizedAffinity>
-5.06507874

>  <minimizedRMSD>
1.89078856

$$$$
