
 OpenBabel03262522433D

 25 27  0  0  1  0  0  0  0  0999 V2000
   37.9250   24.4140   37.0890 C   0  0  1  0  0  0  0  0  0  0  0  0
   37.5860   23.0180   36.8090 C   0  0  0  0  0  0  0  0  0  0  0  0
   38.9740   23.3570   37.2390 C   0  0  1  0  0  0  0  0  0  0  0  0
   37.5640   24.9200   38.0370 H   0  0  0  0  0  0  0  0  0  0  0  0
   37.3900   22.6950   35.7710 H   0  0  0  0  0  0  0  0  0  0  0  0
   36.9220   22.4330   37.5170 H   0  0  0  0  0  0  0  0  0  0  0  0
   39.1640   23.1120   38.3220 H   0  0  0  0  0  0  0  0  0  0  0  0
   37.7160   25.0320   34.6520 C   0  0  0  0  0  0  0  0  0  0  0  0
   38.0240   25.4010   35.9970 C   0  0  0  0  0  0  0  0  0  0  0  0
   38.4260   26.7230   36.2130 C   0  0  0  0  0  0  0  0  0  0  0  0
   38.5050   27.5800   35.1640 N   0  0  0  0  0  0  0  0  0  0  0  0
   38.2000   27.1830   33.8920 C   0  0  0  0  0  0  0  0  0  0  0  0
   37.8080   25.9040   33.6610 N   0  0  0  0  0  0  0  0  0  0  0  0
   37.3940   24.0420   34.3750 H   0  0  0  0  0  0  0  0  0  0  0  0
   38.6660   27.0390   37.2060 H   0  0  0  0  0  0  0  0  0  0  0  0
   38.2760   27.8880   33.0940 H   0  0  0  0  0  0  0  0  0  0  0  0
   41.2570   22.5840   37.2880 C   0  0  2  0  0  3  0  0  0  0  0  0
   40.1710   23.2140   36.3990 C   0  0  1  0  0  3  0  0  0  0  0  0
   40.1440   22.2090   35.3020 C   0  0  0  0  0  3  0  0  0  0  0  0
   39.8960   22.6430   34.3050 H   0  0  0  0  0  0  0  0  0  0  0  0
   41.4810   21.7810   35.1200 O   0  0  0  0  0  0  0  0  0  0  0  0
   42.1920   22.0840   36.2420 C   0  0  0  0  0  3  0  0  0  0  0  0
   42.7660   21.1920   36.6250 H   0  0  0  0  0  0  0  0  0  0  0  0
   40.6480   21.5080   37.9420 O   0  0  0  0  0  0  0  0  0  0  0  0
   41.3260   20.8260   38.2290 H   0  0  0  0  0  0  0  0  0  0  0  0
  1  3  1  0  0  0  0
  1  4  1  1  0  0  0
  2  1  1  0  0  0  0
  2  3  1  0  0  0  0
  2  6  1  0  0  0  0
  3  7  1  1  0  0  0
  5  2  1  0  0  0  0
  8  9  1  0  0  0  0
  9 10  2  0  0  0  0
  9  1  1  0  0  0  0
 10 15  1  0  0  0  0
 11 10  1  0  0  0  0
 12 11  2  0  0  0  0
 13 12  1  0  0  0  0
 13  8  2  0  0  0  0
 14  8  1  0  0  0  0
 16 12  1  0  0  0  0
 17 24  1  6  0  0  0
 18 19  1  6  0  0  0
 18  3  1  0  0  0  0
 18 17  1  0  0  0  0
 20 19  1  0  0  0  0
 21 19  1  0  0  0  0
 21 22  1  0  0  0  0
 22 23  1  0  0  0  0
 22 17  1  0  0  0  0
 24 25  1  0  0  0  0
M  END
>  <minimizedAffinity>
-4.33552885

$$$$

 OpenBabel03262522433D

 25 27  0  0  1  0  0  0  0  0999 V2000
   41.7590   21.9200   36.0580 C   0  0  1  0  0  0  0  0  0  0  0  0
   41.6130   21.4580   37.4380 C   0  0  0  0  0  0  0  0  0  0  0  0
   40.4100   21.9510   36.7050 C   0  0  1  0  0  0  0  0  0  0  0  0
   41.9070   21.1800   35.2110 H   0  0  0  0  0  0  0  0  0  0  0  0
   42.0390   22.0530   38.2680 H   0  0  0  0  0  0  0  0  0  0  0  0
   41.6870   20.3550   37.6900 H   0  0  0  0  0  0  0  0  0  0  0  0
   39.7540   21.1120   36.3380 H   0  0  0  0  0  0  0  0  0  0  0  0
   42.1980   23.8820   34.5350 C   0  0  0  0  0  0  0  0  0  0  0  0
   42.4590   23.1820   35.7520 C   0  0  0  0  0  0  0  0  0  0  0  0
   43.4020   23.7460   36.6160 C   0  0  0  0  0  0  0  0  0  0  0  0
   44.0180   24.9060   36.2720 N   0  0  0  0  0  0  0  0  0  0  0  0
   43.7370   25.5420   35.0960 C   0  0  0  0  0  0  0  0  0  0  0  0
   42.8240   25.0110   34.2430 N   0  0  0  0  0  0  0  0  0  0  0  0
   41.4890   23.5380   33.8000 H   0  0  0  0  0  0  0  0  0  0  0  0
   43.6250   23.2520   37.5380 H   0  0  0  0  0  0  0  0  0  0  0  0
   44.2440   26.4520   34.8620 H   0  0  0  0  0  0  0  0  0  0  0  0
   38.3810   23.1460   36.1860 C   0  0  2  0  0  3  0  0  0  0  0  0
   39.6540   23.1620   37.0510 C   0  0  1  0  0  3  0  0  0  0  0  0
   39.0280   23.2400   38.3990 C   0  0  0  0  0  3  0  0  0  0  0  0
   39.6400   23.8040   39.1420 H   0  0  0  0  0  0  0  0  0  0  0  0
   37.8860   24.0640   38.2620 O   0  0  0  0  0  0  0  0  0  0  0  0
   37.5390   24.1120   36.9440 C   0  0  0  0  0  3  0  0  0  0  0  0
   36.4460   23.8790   36.7930 H   0  0  0  0  0  0  0  0  0  0  0  0
   37.8530   21.8560   36.2980 O   0  0  0  0  0  0  0  0  0  0  0  0
   36.8680   21.8480   36.1030 H   0  0  0  0  0  0  0  0  0  0  0  0
  1  4  1  6  0  0  0
  1  3  1  0  0  0  0
  1  2  1  0  0  0  0
  2  6  1  0  0  0  0
  2  5  1  0  0  0  0
  3  7  1  6  0  0  0
  3 18  1  0  0  0  0
  3  2  1  0  0  0  0
  8  9  1  0  0  0  0
  9  1  1  0  0  0  0
  9 10  2  0  0  0  0
 10 15  1  0  0  0  0
 11 10  1  0  0  0  0
 12 11  2  0  0  0  0
 13  8  2  0  0  0  0
 13 12  1  0  0  0  0
 14  8  1  0  0  0  0
 16 12  1  0  0  0  0
 17 24  1  1  0  0  0
 17 22  1  0  0  0  0
 17 18  1  0  0  0  0
 18 19  1  1  0  0  0
 19 20  1  0  0  0  0
 21 19  1  0  0  0  0
 22 21  1  0  0  0  0
 23 22  1  0  0  0  0
 25 24  1  0  0  0  0
M  END
>  <minimizedAffinity>
-4.31485224

$$$$

 OpenBabel03262522433D

 25 27  0  0  1  0  0  0  0  0999 V2000
   39.0390   27.0090   34.4570 C   0  0  1  0  0  0  0  0  0  0  0  0
   38.5980   27.3550   35.8080 C   0  0  0  0  0  0  0  0  0  0  0  0
   39.0260   25.9550   35.5190 C   0  0  1  0  0  0  0  0  0  0  0  0
   40.0540   27.3430   34.0750 H   0  0  0  0  0  0  0  0  0  0  0  0
   37.5330   27.5800   36.0010 H   0  0  0  0  0  0  0  0  0  0  0  0
   39.2460   27.9980   36.4810 H   0  0  0  0  0  0  0  0  0  0  0  0
   40.0640   25.7330   35.8970 H   0  0  0  0  0  0  0  0  0  0  0  0
   38.3860   26.2060   32.1570 C   0  0  0  0  0  0  0  0  0  0  0  0
   38.0770   26.9420   33.3410 C   0  0  0  0  0  0  0  0  0  0  0  0
   36.8380   27.5910   33.3770 C   0  0  0  0  0  0  0  0  0  0  0  0
   36.0020   27.4980   32.3120 N   0  0  0  0  0  0  0  0  0  0  0  0
   36.3390   26.7810   31.1990 C   0  0  0  0  0  0  0  0  0  0  0  0
   37.5370   26.1440   31.1440 N   0  0  0  0  0  0  0  0  0  0  0  0
   39.3100   25.6680   32.0250 H   0  0  0  0  0  0  0  0  0  0  0  0
   36.5700   28.1530   34.2460 H   0  0  0  0  0  0  0  0  0  0  0  0
   35.6530   26.7330   30.3820 H   0  0  0  0  0  0  0  0  0  0  0  0
   39.0120   23.5660   35.1910 C   0  0  2  0  0  3  0  0  0  0  0  0
   38.1410   24.7830   35.5510 C   0  0  1  0  0  3  0  0  0  0  0  0
   37.6240   24.3270   36.8700 C   0  0  0  0  0  3  0  0  0  0  0  0
   36.5980   24.7010   37.0990 H   0  0  0  0  0  0  0  0  0  0  0  0
   37.4180   22.9320   36.7580 O   0  0  0  0  0  0  0  0  0  0  0  0
   38.1480   22.4670   35.7050 C   0  0  0  0  0  3  0  0  0  0  0  0
   38.7790   21.5780   35.9960 H   0  0  0  0  0  0  0  0  0  0  0  0
   40.1690   23.6730   35.9700 O   0  0  0  0  0  0  0  0  0  0  0  0
   40.6030   22.7780   36.1000 H   0  0  0  0  0  0  0  0  0  0  0  0
  1  4  1  6  0  0  0
  1  3  1  0  0  0  0
  1  2  1  0  0  0  0
  2  5  1  0  0  0  0
  2  6  1  0  0  0  0
  3 18  1  0  0  0  0
  3  2  1  0  0  0  0
  3  7  1  1  0  0  0
  8  9  1  0  0  0  0
  9 10  2  0  0  0  0
  9  1  1  0  0  0  0
 10 15  1  0  0  0  0
 11 10  1  0  0  0  0
 12 11  2  0  0  0  0
 13 12  1  0  0  0  0
 13  8  2  0  0  0  0
 14  8  1  0  0  0  0
 16 12  1  0  0  0  0
 17 18  1  0  0  0  0
 17 22  1  0  0  0  0
 17 24  1  1  0  0  0
 18 19  1  1  0  0  0
 19 20  1  0  0  0  0
 21 19  1  0  0  0  0
 22 23  1  0  0  0  0
 22 21  1  0  0  0  0
 24 25  1  0  0  0  0
M  END
>  <minimizedAffinity>
-4.22443867

$$$$

 OpenBabel03262522433D

 25 27  0  0  1  0  0  0  0  0999 V2000
   39.1280   27.0350   34.5420 C   0  0  1  0  0  0  0  0  0  0  0  0
   38.5810   27.3550   35.8610 C   0  0  0  0  0  0  0  0  0  0  0  0
   39.0750   25.9730   35.5960 C   0  0  1  0  0  0  0  0  0  0  0  0
   40.1550   27.4050   34.2350 H   0  0  0  0  0  0  0  0  0  0  0  0
   37.4980   27.5440   35.9790 H   0  0  0  0  0  0  0  0  0  0  0  0
   39.1580   28.0140   36.5810 H   0  0  0  0  0  0  0  0  0  0  0  0
   40.0910   25.7830   36.0450 H   0  0  0  0  0  0  0  0  0  0  0  0
   36.9540   27.5470   33.3700 C   0  0  0  0  0  0  0  0  0  0  0  0
   38.2490   26.9450   33.3610 C   0  0  0  0  0  0  0  0  0  0  0  0
   38.6250   26.2710   32.1950 C   0  0  0  0  0  0  0  0  0  0  0  0
   37.7660   26.2170   31.1450 N   0  0  0  0  0  0  0  0  0  0  0  0
   36.5350   26.8080   31.1980 C   0  0  0  0  0  0  0  0  0  0  0  0
   36.1510   27.4680   32.3210 N   0  0  0  0  0  0  0  0  0  0  0  0
   36.5660   28.0920   34.2140 H   0  0  0  0  0  0  0  0  0  0  0  0
   39.5870   25.8070   32.1480 H   0  0  0  0  0  0  0  0  0  0  0  0
   35.8890   26.7430   30.3510 H   0  0  0  0  0  0  0  0  0  0  0  0
   39.1520   23.5990   35.1770 C   0  0  2  0  0  3  0  0  0  0  0  0
   38.2300   24.7720   35.5590 C   0  0  1  0  0  3  0  0  0  0  0  0
   37.6950   24.2480   36.8440 C   0  0  0  0  0  3  0  0  0  0  0  0
   36.6510   24.5790   37.0590 H   0  0  0  0  0  0  0  0  0  0  0  0
   37.5400   22.8520   36.6740 O   0  0  0  0  0  0  0  0  0  0  0  0
   38.3130   22.4530   35.6250 C   0  0  0  0  0  3  0  0  0  0  0  0
   38.9660   21.5750   35.8990 H   0  0  0  0  0  0  0  0  0  0  0  0
   40.2830   23.7140   35.9910 O   0  0  0  0  0  0  0  0  0  0  0  0
   40.7450   22.8300   36.0980 H   0  0  0  0  0  0  0  0  0  0  0  0
  1  4  1  6  0  0  0
  1  3  1  0  0  0  0
  1  2  1  0  0  0  0
  2  5  1  0  0  0  0
  2  6  1  0  0  0  0
  3  2  1  0  0  0  0
  3  7  1  1  0  0  0
  8 14  1  0  0  0  0
  9  8  1  0  0  0  0
  9  1  1  0  0  0  0
 10  9  2  0  0  0  0
 11 12  2  0  0  0  0
 11 10  1  0  0  0  0
 12 13  1  0  0  0  0
 13  8  2  0  0  0  0
 15 10  1  0  0  0  0
 16 12  1  0  0  0  0
 17 18  1  0  0  0  0
 17 22  1  0  0  0  0
 17 24  1  1  0  0  0
 18  3  1  0  0  0  0
 18 19  1  1  0  0  0
 19 20  1  0  0  0  0
 21 19  1  0  0  0  0
 22 23  1  0  0  0  0
 22 21  1  0  0  0  0
 24 25  1  0  0  0  0
M  END
>  <minimizedAffinity>
-4.223351

$$$$

 OpenBabel03262522433D

 25 27  0  0  1  0  0  0  0  0999 V2000
   38.7120   27.0310   33.4120 C   0  0  1  0  0  0  0  0  0  0  0  0
   39.2100   26.7140   32.0740 C   0  0  0  0  0  0  0  0  0  0  0  0
   37.7440   26.9070   32.2770 C   0  0  1  0  0  0  0  0  0  0  0  0
   38.8560   28.0650   33.8550 H   0  0  0  0  0  0  0  0  0  0  0  0
   39.6120   25.7070   31.8580 H   0  0  0  0  0  0  0  0  0  0  0  0
   39.7850   27.4850   31.4740 H   0  0  0  0  0  0  0  0  0  0  0  0
   37.3880   27.9160   31.9240 H   0  0  0  0  0  0  0  0  0  0  0  0
   39.5450   24.8540   34.3740 C   0  0  0  0  0  0  0  0  0  0  0  0
   38.7240   26.0170   34.4840 C   0  0  0  0  0  0  0  0  0  0  0  0
   37.9430   26.1330   35.6370 C   0  0  0  0  0  0  0  0  0  0  0  0
   37.9930   25.1600   36.5820 N   0  0  0  0  0  0  0  0  0  0  0  0
   38.7940   24.0630   36.4360 C   0  0  0  0  0  0  0  0  0  0  0  0
   39.5620   23.9310   35.3230 N   0  0  0  0  0  0  0  0  0  0  0  0
   40.1880   24.6660   33.5300 H   0  0  0  0  0  0  0  0  0  0  0  0
   37.3140   26.9900   35.7570 H   0  0  0  0  0  0  0  0  0  0  0  0
   38.8050   23.3190   37.2020 H   0  0  0  0  0  0  0  0  0  0  0  0
   35.5750   26.4710   31.3180 C   0  0  2  0  0  3  0  0  0  0  0  0
   36.7310   25.8540   32.1280 C   0  0  1  0  0  3  0  0  0  0  0  0
   37.0460   24.6930   31.2520 C   0  0  0  0  0  3  0  0  0  0  0  0
   37.4180   23.8020   31.8110 H   0  0  0  0  0  0  0  0  0  0  0  0
   35.8100   24.2330   30.7390 O   0  0  0  0  0  0  0  0  0  0  0  0
   34.8890   25.2310   30.8590 C   0  0  0  0  0  3  0  0  0  0  0  0
   34.3500   25.4200   29.8870 H   0  0  0  0  0  0  0  0  0  0  0  0
   36.1680   27.1230   30.2320 O   0  0  0  0  0  0  0  0  0  0  0  0
   35.5220   27.2180   29.4700 H   0  0  0  0  0  0  0  0  0  0  0  0
  1  4  1  1  0  0  0
  1  9  1  0  0  0  0
  2  3  1  0  0  0  0
  2  1  1  0  0  0  0
  3  7  1  6  0  0  0
  3  1  1  0  0  0  0
  5  2  1  0  0  0  0
  6  2  1  0  0  0  0
  8  9  2  0  0  0  0
  8 13  1  0  0  0  0
  9 10  1  0  0  0  0
 10 15  1  0  0  0  0
 10 11  2  0  0  0  0
 12 11  1  0  0  0  0
 12 16  1  0  0  0  0
 13 12  2  0  0  0  0
 14  8  1  0  0  0  0
 17 24  1  6  0  0  0
 17 18  1  0  0  0  0
 18 19  1  6  0  0  0
 18  3  1  0  0  0  0
 19 20  1  0  0  0  0
 21 22  1  0  0  0  0
 21 19  1  0  0  0  0
 22 17  1  0  0  0  0
 23 22  1  0  0  0  0
 25 24  1  0  0  0  0
M  END
>  <minimizedAffinity>
-4.16764641

$$$$

 OpenBabel03262522433D

 25 27  0  0  1  0  0  0  0  0999 V2000
   37.7820   27.6230   31.8630 C   0  0  1  0  0  0  0  0  0  0  0  0
   38.5860   27.1350   30.7430 C   0  0  0  0  0  0  0  0  0  0  0  0
   37.2760   26.4830   31.0350 C   0  0  1  0  0  0  0  0  0  0  0  0
   37.2170   28.6040   31.7890 H   0  0  0  0  0  0  0  0  0  0  0  0
   39.5310   26.5940   30.9350 H   0  0  0  0  0  0  0  0  0  0  0  0
   38.6920   27.7510   29.7970 H   0  0  0  0  0  0  0  0  0  0  0  0
   36.4620   26.8120   30.3280 H   0  0  0  0  0  0  0  0  0  0  0  0
   37.2700   27.5030   34.3300 C   0  0  0  0  0  0  0  0  0  0  0  0
   38.2060   27.3900   33.2560 C   0  0  0  0  0  0  0  0  0  0  0  0
   39.5210   27.0600   33.5970 C   0  0  0  0  0  0  0  0  0  0  0  0
   39.8490   26.8670   34.9000 N   0  0  0  0  0  0  0  0  0  0  0  0
   38.9210   26.9860   35.8950 C   0  0  0  0  0  0  0  0  0  0  0  0
   37.6370   27.3040   35.5860 N   0  0  0  0  0  0  0  0  0  0  0  0
   36.2320   27.7480   34.1800 H   0  0  0  0  0  0  0  0  0  0  0  0
   40.2520   26.9660   32.8210 H   0  0  0  0  0  0  0  0  0  0  0  0
   39.2190   26.8270   36.9080 H   0  0  0  0  0  0  0  0  0  0  0  0
   35.6000   24.8150   31.5040 C   0  0  2  0  0  3  0  0  0  0  0  0
   37.1130   25.0980   31.4940 C   0  0  1  0  0  3  0  0  0  0  0  0
   37.5560   24.0000   30.5930 C   0  0  0  0  0  3  0  0  0  0  0  0
   38.5760   23.6140   30.8300 H   0  0  0  0  0  0  0  0  0  0  0  0
   36.7350   22.8850   30.8860 O   0  0  0  0  0  0  0  0  0  0  0  0
   35.6130   23.3260   31.5210 C   0  0  0  0  0  3  0  0  0  0  0  0
   34.6770   22.9220   31.0400 H   0  0  0  0  0  0  0  0  0  0  0  0
   35.1110   25.2780   30.2790 O   0  0  0  0  0  0  0  0  0  0  0  0
   34.2560   24.8140   30.0300 H   0  0  0  0  0  0  0  0  0  0  0  0
  1  4  1  6  0  0  0
  1  9  1  0  0  0  0
  2  5  1  0  0  0  0
  2  3  1  0  0  0  0
  2  1  1  0  0  0  0
  3  7  1  6  0  0  0
  3 18  1  0  0  0  0
  3  1  1  0  0  0  0
  6  2  1  0  0  0  0
  8 13  1  0  0  0  0
  9 10  1  0  0  0  0
  9  8  2  0  0  0  0
 10 11  2  0  0  0  0
 11 12  1  0  0  0  0
 12 16  1  0  0  0  0
 13 12  2  0  0  0  0
 14  8  1  0  0  0  0
 15 10  1  0  0  0  0
 17 24  1  6  0  0  0
 17 22  1  0  0  0  0
 18 19  1  6  0  0  0
 18 17  1  0  0  0  0
 19 20  1  0  0  0  0
 19 21  1  0  0  0  0
 21 22  1  0  0  0  0
 23 22  1  0  0  0  0
 25 24  1  0  0  0  0
M  END
>  <minimizedAffinity>
-4.08898306

$$$$

 OpenBabel03262522433D

 25 27  0  0  1  0  0  0  0  0999 V2000
   38.8870   27.1320   35.3260 C   0  0  1  0  0  0  0  0  0  0  0  0
   37.5070   26.6480   35.2800 C   0  0  0  0  0  0  0  0  0  0  0  0
   38.5380   25.8370   35.9910 C   0  0  1  0  0  0  0  0  0  0  0  0
   39.1770   27.9960   36.0010 H   0  0  0  0  0  0  0  0  0  0  0  0
   37.0800   26.2880   34.3260 H   0  0  0  0  0  0  0  0  0  0  0  0
   36.6960   27.1570   35.8870 H   0  0  0  0  0  0  0  0  0  0  0  0
   38.4790   25.9490   37.1110 H   0  0  0  0  0  0  0  0  0  0  0  0
   39.1350   27.1290   32.8160 C   0  0  0  0  0  0  0  0  0  0  0  0
   39.7290   27.1350   34.1150 C   0  0  0  0  0  0  0  0  0  0  0  0
   41.1270   27.1330   34.1710 C   0  0  0  0  0  0  0  0  0  0  0  0
   41.8440   27.1270   33.0190 N   0  0  0  0  0  0  0  0  0  0  0  0
   41.2320   27.1220   31.7970 C   0  0  0  0  0  0  0  0  0  0  0  0
   39.8770   27.1240   31.7200 N   0  0  0  0  0  0  0  0  0  0  0  0
   38.0690   27.1330   32.6590 H   0  0  0  0  0  0  0  0  0  0  0  0
   41.6100   27.1370   35.1250 H   0  0  0  0  0  0  0  0  0  0  0  0
   41.8330   27.1160   30.9140 H   0  0  0  0  0  0  0  0  0  0  0  0
   38.8850   23.5940   36.8030 C   0  0  2  0  0  3  0  0  0  0  0  0
   38.9980   24.5080   35.5690 C   0  0  1  0  0  3  0  0  0  0  0  0
   38.1490   23.7380   34.6210 C   0  0  0  0  0  3  0  0  0  0  0  0
   38.4740   23.8280   33.5570 H   0  0  0  0  0  0  0  0  0  0  0  0
   38.3850   22.3690   34.8930 O   0  0  0  0  0  0  0  0  0  0  0  0
   38.9190   22.2590   36.1420 C   0  0  0  0  0  3  0  0  0  0  0  0
   38.3660   21.5000   36.7660 H   0  0  0  0  0  0  0  0  0  0  0  0
   37.6170   23.8290   37.3450 O   0  0  0  0  0  0  0  0  0  0  0  0
   37.3030   23.0460   37.8890 H   0  0  0  0  0  0  0  0  0  0  0  0
  1  3  1  0  0  0  0
  1  4  1  1  0  0  0
  2  1  1  0  0  0  0
  2  6  1  0  0  0  0
  2  3  1  0  0  0  0
  3  7  1  1  0  0  0
  5  2  1  0  0  0  0
  8  9  1  0  0  0  0
  9 10  2  0  0  0  0
  9  1  1  0  0  0  0
 10 15  1  0  0  0  0
 11 10  1  0  0  0  0
 12 11  2  0  0  0  0
 13 12  1  0  0  0  0
 13  8  2  0  0  0  0
 14  8  1  0  0  0  0
 16 12  1  0  0  0  0
 17 24  1  6  0  0  0
 18 19  1  6  0  0  0
 18  3  1  0  0  0  0
 18 17  1  0  0  0  0
 19 21  1  0  0  0  0
 20 19  1  0  0  0  0
 21 22  1  0  0  0  0
 22 23  1  0  0  0  0
 22 17  1  0  0  0  0
 24 25  1  0  0  0  0
M  END
>  <minimizedAffinity>
-3.97029185

$$$$

 OpenBabel03262522433D

 25 27  0  0  1  0  0  0  0  0999 V2000
   39.0300   26.6250   35.2900 C   0  0  1  0  0  0  0  0  0  0  0  0
   39.8320   27.0520   34.1430 C   0  0  0  0  0  0  0  0  0  0  0  0
   38.3440   27.1400   34.0630 C   0  0  1  0  0  0  0  0  0  0  0  0
   38.9660   27.2660   36.2230 H   0  0  0  0  0  0  0  0  0  0  0  0
   40.3760   26.3020   33.5400 H   0  0  0  0  0  0  0  0  0  0  0  0
   40.4360   28.0100   34.1850 H   0  0  0  0  0  0  0  0  0  0  0  0
   37.9650   28.1910   34.2100 H   0  0  0  0  0  0  0  0  0  0  0  0
   37.8790   24.7410   36.5090 C   0  0  0  0  0  0  0  0  0  0  0  0
   38.9240   25.1990   35.6500 C   0  0  0  0  0  0  0  0  0  0  0  0
   39.8270   24.2370   35.1860 C   0  0  0  0  0  0  0  0  0  0  0  0
   39.6790   22.9410   35.5620 N   0  0  0  0  0  0  0  0  0  0  0  0
   38.6630   22.5480   36.3870 C   0  0  0  0  0  0  0  0  0  0  0  0
   37.7750   23.4660   36.8480 N   0  0  0  0  0  0  0  0  0  0  0  0
   37.1280   25.3960   36.9200 H   0  0  0  0  0  0  0  0  0  0  0  0
   40.6240   24.5400   34.5410 H   0  0  0  0  0  0  0  0  0  0  0  0
   38.5820   21.5190   36.6590 H   0  0  0  0  0  0  0  0  0  0  0  0
   36.4860   27.3220   32.5380 C   0  0  2  0  0  3  0  0  0  0  0  0
   37.5040   26.3470   33.1560 C   0  0  1  0  0  3  0  0  0  0  0  0
   38.1200   25.8190   31.9090 C   0  0  0  0  0  3  0  0  0  0  0  0
   38.4590   24.7590   31.9940 H   0  0  0  0  0  0  0  0  0  0  0  0
   37.0760   25.7250   30.9570 O   0  0  0  0  0  0  0  0  0  0  0  0
   36.0490   26.5270   31.3570 C   0  0  0  0  0  3  0  0  0  0  0  0
   35.7100   27.2130   30.5290 H   0  0  0  0  0  0  0  0  0  0  0  0
   37.2200   28.4380   32.1230 O   0  0  0  0  0  0  0  0  0  0  0  0
   36.7430   28.9350   31.3930 H   0  0  0  0  0  0  0  0  0  0  0  0
  1  9  1  0  0  0  0
  1  4  1  1  0  0  0
  2  6  1  0  0  0  0
  2  1  1  0  0  0  0
  3  2  1  0  0  0  0
  3  7  1  1  0  0  0
  3  1  1  0  0  0  0
  5  2  1  0  0  0  0
  8 13  1  0  0  0  0
  8 14  1  0  0  0  0
  9  8  2  0  0  0  0
 10 11  2  0  0  0  0
 10  9  1  0  0  0  0
 11 12  1  0  0  0  0
 12 16  1  0  0  0  0
 12 13  2  0  0  0  0
 15 10  1  0  0  0  0
 17 24  1  6  0  0  0
 17 18  1  0  0  0  0
 18 19  1  6  0  0  0
 18  3  1  0  0  0  0
 19 20  1  0  0  0  0
 21 22  1  0  0  0  0
 21 19  1  0  0  0  0
 22 17  1  0  0  0  0
 23 22  1  0  0  0  0
 25 24  1  0  0  0  0
M  END
>  <minimizedAffinity>
-3.96302891

$$$$

 OpenBabel03262522433D

 25 27  0  0  1  0  0  0  0  0999 V2000
   35.5280   31.2670   35.9660 C   0  0  1  0  0  0  0  0  0  0  0  0
   35.5240   32.6720   36.3750 C   0  0  0  0  0  0  0  0  0  0  0  0
   34.3520   31.8120   36.7150 C   0  0  1  0  0  0  0  0  0  0  0  0
   36.1760   30.5080   36.5050 H   0  0  0  0  0  0  0  0  0  0  0  0
   35.4250   33.4690   35.6140 H   0  0  0  0  0  0  0  0  0  0  0  0
   36.1990   33.0330   37.2110 H   0  0  0  0  0  0  0  0  0  0  0  0
   34.3570   31.4810   37.7920 H   0  0  0  0  0  0  0  0  0  0  0  0
   35.0260   29.5610   34.1780 C   0  0  0  0  0  0  0  0  0  0  0  0
   35.3880   30.8930   34.5460 C   0  0  0  0  0  0  0  0  0  0  0  0
   35.6070   31.7990   33.5040 C   0  0  0  0  0  0  0  0  0  0  0  0
   35.4710   31.3880   32.2180 N   0  0  0  0  0  0  0  0  0  0  0  0
   35.1220   30.1030   31.9120 C   0  0  0  0  0  0  0  0  0  0  0  0
   34.9040   29.2070   32.9090 N   0  0  0  0  0  0  0  0  0  0  0  0
   34.8320   28.7850   34.8990 H   0  0  0  0  0  0  0  0  0  0  0  0
   35.8800   32.8060   33.7390 H   0  0  0  0  0  0  0  0  0  0  0  0
   35.0250   29.8200   30.8870 H   0  0  0  0  0  0  0  0  0  0  0  0
   32.2050   30.7250   36.5630 C   0  0  2  0  0  3  0  0  0  0  0  0
   32.9980   31.9860   36.1730 C   0  0  1  0  0  3  0  0  0  0  0  0
   32.1220   33.0210   36.7850 C   0  0  0  0  0  3  0  0  0  0  0  0
   32.1170   33.9870   36.2270 H   0  0  0  0  0  0  0  0  0  0  0  0
   30.7920   32.5690   36.6180 O   0  0  0  0  0  0  0  0  0  0  0  0
   30.8150   31.2260   36.3810 C   0  0  0  0  0  3  0  0  0  0  0  0
   30.1070   30.6710   37.0610 H   0  0  0  0  0  0  0  0  0  0  0  0
   32.4650   30.5090   37.9200 O   0  0  0  0  0  0  0  0  0  0  0  0
   31.7310   29.9760   38.3490 H   0  0  0  0  0  0  0  0  0  0  0  0
  1  2  1  0  0  0  0
  1  4  1  1  0  0  0
  1  3  1  0  0  0  0
  2  3  1  0  0  0  0
  2  6  1  0  0  0  0
  3  7  1  1  0  0  0
  5  2  1  0  0  0  0
  8  9  1  0  0  0  0
  8 14  1  0  0  0  0
  9  1  1  0  0  0  0
 10 15  1  0  0  0  0
 10  9  2  0  0  0  0
 11 10  1  0  0  0  0
 12 11  2  0  0  0  0
 12 13  1  0  0  0  0
 13  8  2  0  0  0  0
 16 12  1  0  0  0  0
 17 24  1  1  0  0  0
 18 17  1  0  0  0  0
 18  3  1  0  0  0  0
 18 19  1  1  0  0  0
 20 19  1  0  0  0  0
 21 19  1  0  0  0  0
 22 17  1  0  0  0  0
 22 21  1  0  0  0  0
 22 23  1  0  0  0  0
 24 25  1  0  0  0  0
M  END
>  <minimizedAffinity>
-3.90395164

$$$$
