
 OpenBabel03272505263D

 31 33  0  0  1  0  0  0  0  0999 V2000
   37.4120   31.0970   47.0840 N   0  0  0  0  0  0  0  0  0  0  0  0
   36.8240   30.7580   45.9040 C   0  0  0  0  0  0  0  0  0  0  0  0
   37.2900   31.2220   44.6840 C   0  0  0  0  0  0  0  0  0  0  0  0
   38.4100   32.0690   44.7040 C   0  0  0  0  0  0  0  0  0  0  0  0
   38.8590   32.5070   43.6240 O   0  0  0  0  0  0  0  0  0  0  0  0
   39.0000   32.4110   45.8840 N   0  0  0  0  0  0  0  0  0  0  0  0
   38.4560   31.8980   46.9970 C   0  0  0  0  0  0  0  0  0  0  0  0
   39.0280   32.2390   48.0570 O   0  0  0  0  0  0  0  0  0  0  0  0
   35.9580   30.0990   45.9230 H   0  0  0  0  0  0  0  0  0  0  0  0
   37.3050   29.5650   50.4640 C   0  0  0  0  0  0  0  0  0  0  0  0
   37.7810   30.0430   49.2360 C   0  0  0  0  0  0  0  0  0  0  0  0
   36.9330   30.6180   48.3050 C   0  0  0  0  0  0  0  0  0  0  0  0
   35.6050   30.7090   48.6090 N   0  0  0  0  0  0  0  0  0  0  0  0
   35.1340   30.2430   49.8060 C   0  0  0  0  0  0  0  0  0  0  0  0
   35.9680   29.6790   50.7240 N   0  0  0  0  0  0  0  0  0  0  0  0
   37.8930   29.1120   51.2300 H   0  0  0  0  0  0  0  0  0  0  0  0
   38.8400   29.8790   49.1640 H   0  0  0  0  0  0  0  0  0  0  0  0
   34.0800   30.3740   49.9210 H   0  0  0  0  0  0  0  0  0  0  0  0
   37.4870   31.1210   42.2800 C   0  0  2  0  0  3  0  0  0  0  0  0
   36.6100   30.8160   43.4700 C   0  0  2  0  0  3  0  0  0  0  0  0
   35.3530   31.5530   43.1440 C   0  0  0  0  0  3  0  0  0  0  0  0
   34.7480   31.8640   43.9980 H   0  0  0  0  0  0  0  0  0  0  0  0
   35.6850   32.5930   42.2880 O   0  0  0  0  0  0  0  0  0  0  0  0
   36.6840   32.1080   41.4860 C   0  0  0  0  0  3  0  0  0  0  0  0
   36.2800   31.6210   40.5520 H   0  0  0  0  0  0  0  0  0  0  0  0
   37.7160   29.9370   41.5520 O   0  0  0  0  0  0  0  0  0  0  0  0
   38.2070   29.3140   42.1350 H   0  0  0  0  0  0  0  0  0  0  0  0
   40.1510   33.2840   45.8990 C   0  0  0  0  0  0  0  0  0  0  0  0
   39.9910   34.2670   44.9490 F   0  0  0  0  0  0  0  0  0  0  0  0
   41.3300   32.6410   45.6260 F   0  0  0  0  0  0  0  0  0  0  0  0
   40.2070   33.9220   47.1380 F   0  0  0  0  0  0  0  0  0  0  0  0
  1 12  1  0  0  0  0
  2  9  1  0  0  0  0
  2  1  1  0  0  0  0
  3  4  1  0  0  0  0
  3  2  2  0  0  0  0
  4  6  1  0  0  0  0
  5  4  2  0  0  0  0
  6 28  1  0  0  0  0
  6  7  1  0  0  0  0
  7  1  1  0  0  0  0
  7  8  2  0  0  0  0
 10 15  1  0  0  0  0
 10 16  1  0  0  0  0
 11 10  2  0  0  0  0
 12 13  2  0  0  0  0
 12 11  1  0  0  0  0
 13 14  1  0  0  0  0
 14 18  1  0  0  0  0
 14 15  2  0  0  0  0
 17 11  1  0  0  0  0
 19 26  1  6  0  0  0
 19 20  1  0  0  0  0
 20  3  1  1  0  0  0
 21 20  1  0  0  0  0
 21 22  1  0  0  0  0
 23 21  1  0  0  0  0
 24 19  1  0  0  0  0
 24 23  1  0  0  0  0
 25 24  1  0  0  0  0
 26 27  1  0  0  0  0
 28 31  1  0  0  0  0
 29 28  1  0  0  0  0
 30 28  1  0  0  0  0
M  END
>  <minimizedAffinity>
-6.24352264

>  <minimizedRMSD>
0.244653806

$$$$
