
 OpenBabel03272504533D

 25 27  0  0  1  0  0  0  0  0999 V2000
   37.0520   31.1690   49.1850 C   0  0  0  0  0  0  0  0  0  0  0  0
   37.4000   32.4450   49.6620 C   0  0  0  0  0  0  0  0  0  0  0  0
   38.3590   33.1220   48.9310 C   0  0  0  0  0  0  0  0  0  0  0  0
   38.9140   32.5520   47.8160 N   0  0  0  0  0  0  0  0  0  0  0  0
   38.5470   31.3130   47.3890 C   0  0  0  0  0  0  0  0  0  0  0  0
   37.6100   30.6230   48.0850 N   0  0  0  0  0  0  0  0  0  0  0  0
   36.9550   32.8660   50.5300 H   0  0  0  0  0  0  0  0  0  0  0  0
   38.6530   34.1080   49.2670 H   0  0  0  0  0  0  0  0  0  0  0  0
   35.9910   30.4160   49.9470 C   0  0  0  0  0  0  0  0  0  0  0  0
   35.8610   28.9690   49.8220 C   0  0  0  0  0  0  0  0  0  0  0  0
   36.5720   29.5190   51.0290 C   0  0  0  0  0  0  0  0  0  0  0  0
   35.1470   31.0800   50.2640 H   0  0  0  0  0  0  0  0  0  0  0  0
   36.5210   28.4790   49.0460 H   0  0  0  0  0  0  0  0  0  0  0  0
   34.8830   28.4770   49.9040 H   0  0  0  0  0  0  0  0  0  0  0  0
   37.6560   29.4280   51.1490 H   0  0  0  0  0  0  0  0  0  0  0  0
   35.9560   29.4860   51.9490 H   0  0  0  0  0  0  0  0  0  0  0  0
   40.4430   31.4980   45.7840 C   0  0  2  0  0  0  0  0  0  0  0  0
   39.1880   30.7510   46.1700 C   0  0  2  0  0  0  0  0  0  0  0  0
   38.3200   30.8590   44.9480 C   0  0  0  0  0  0  0  0  0  0  0  0
   37.7570   29.9190   44.8190 H   0  0  0  0  0  0  0  0  0  0  0  0
   39.1460   31.1290   43.8780 O   0  0  0  0  0  0  0  0  0  0  0  0
   40.1890   31.9220   44.3710 C   0  0  0  0  0  0  0  0  0  0  0  0
   39.9400   33.0000   44.3360 H   0  0  0  0  0  0  0  0  0  0  0  0
   41.5810   30.6920   45.7920 O   0  0  0  0  0  0  0  0  0  0  0  0
   41.2570   29.7430   45.7160 H   0  0  0  0  0  0  0  0  0  0  0  0
  1  2  1  0  0  0  0
  1  9  1  0  0  0  0
  2  7  1  0  0  0  0
  3  8  1  0  0  0  0
  3  2  2  0  0  0  0
  4  3  1  0  0  0  0
  5  4  2  0  0  0  0
  5  6  1  0  0  0  0
  6  1  2  0  0  0  0
  9 12  1  0  0  0  0
  9 11  1  0  0  0  0
 10 14  1  0  0  0  0
 10  9  1  0  0  0  0
 10 11  1  0  0  0  0
 11 15  1  0  0  0  0
 11 16  1  0  0  0  0
 13 10  1  0  0  0  0
 17 24  1  6  0  0  0
 17 18  1  0  0  0  0
 18  5  1  1  0  0  0
 19 18  1  0  0  0  0
 20 19  1  0  0  0  0
 21 22  1  0  0  0  0
 21 19  1  0  0  0  0
 22 17  1  0  0  0  0
 23 22  1  0  0  0  0
 25 24  1  0  0  0  0
M  END
>  <minimizedAffinity>
-5.92420864

>  <minimizedRMSD>
0.181990191

$$$$
