
 OpenBabel03272502313D

 27 28  0  0  1  0  0  0  0  0999 V2000
   37.8760   30.1340   46.8910 C   0  0  2  0  0  0  0  0  0  0  0  0
   37.9730   29.0610   47.1740 H   0  0  0  0  0  0  0  0  0  0  0  0
   38.2300   32.9030   49.3940 C   0  0  2  0  0  3  0  0  0  0  0  0
   37.8300   32.4330   47.9790 C   0  0  0  0  0  3  0  0  0  0  0  0
   36.7410   32.4280   47.8660 H   0  0  0  0  0  0  0  0  0  0  0  0
   38.3690   31.0520   47.9630 C   0  0  1  0  0  3  0  0  0  0  0  0
   38.0260   30.5960   49.2610 O   0  0  0  0  0  0  0  0  0  0  0  0
   38.6180   31.5850   50.0630 C   0  0  0  0  0  3  0  0  0  0  0  0
   39.7310   31.4050   50.0210 H   0  0  0  0  0  0  0  0  0  0  0  0
   37.1020   33.4380   50.0350 O   0  0  0  0  0  0  0  0  0  0  0  0
   36.9480   32.9320   50.9040 H   0  0  0  0  0  0  0  0  0  0  0  0
   37.9850   30.6740   44.5670 C   0  0  0  0  0  3  0  0  0  0  0  0
   38.6490   30.4390   45.6540 C   0  0  0  0  0  3  0  0  0  0  0  0
   40.4900   30.6150   41.7990 C   0  0  0  0  0  0  0  0  0  0  0  0
   39.8090   30.3620   42.9850 C   0  0  0  0  0  0  0  0  0  0  0  0
   38.6220   30.9820   43.3080 C   0  0  0  0  0  0  0  0  0  0  0  0
   38.1300   31.8580   42.4200 N   0  0  0  0  0  0  0  0  0  0  0  0
   38.8010   32.0950   41.2720 C   0  0  0  0  0  0  0  0  0  0  0  0
   39.9470   31.5050   40.9530 N   0  0  0  0  0  0  0  0  0  0  0  0
   41.4300   30.1320   41.5330 H   0  0  0  0  0  0  0  0  0  0  0  0
   40.3420   29.6200   43.6040 H   0  0  0  0  0  0  0  0  0  0  0  0
   38.4280   32.7970   40.5350 H   0  0  0  0  0  0  0  0  0  0  0  0
   36.1280   30.5520   46.5760 S   0  0  0  0  0  0  0  0  0  0  0  0
   35.0810   29.9440   47.9060 C   0  0  0  0  0  0  0  0  0  0  0  0
   34.9640   30.8540   48.9510 F   0  0  0  0  0  0  0  0  0  0  0  0
   33.8490   29.5330   47.4410 F   0  0  0  0  0  0  0  0  0  0  0  0
   35.7010   28.7820   48.4200 F   0  0  0  0  0  0  0  0  0  0  0  0
  1  2  1  1  0  0  0
  3 10  1  1  0  0  0
  3  8  1  0  0  0  0
  4  3  1  0  0  0  0
  5  4  1  0  0  0  0
  6  1  1  6  0  0  0
  6  4  1  0  0  0  0
  6  7  1  0  0  0  0
  7  8  1  0  0  0  0
  9  8  1  0  0  0  0
 10 11  1  0  0  0  0
 12 13  2  0  0  0  0
 13  1  1  0  0  0  0
 14 15  1  0  0  0  0
 15 16  2  0  0  0  0
 15 21  1  0  0  0  0
 16 12  1  0  0  0  0
 17 16  1  0  0  0  0
 18 17  2  0  0  0  0
 19 18  1  0  0  0  0
 19 14  2  0  0  0  0
 20 14  1  0  0  0  0
 22 18  1  0  0  0  0
 23  1  1  0  0  0  0
 23 24  1  0  0  0  0
 24 27  1  0  0  0  0
 24 25  1  0  0  0  0
 26 24  1  0  0  0  0
M  END
>  <minimizedAffinity>
-3.90019035

>  <minimizedRMSD>
3.82582521

$$$$
