
 OpenBabel03272506343D

 19 20  0  0  1  0  0  0  0  0999 V2000
   37.4840   30.0350   50.8380 C   0  0  0  0  0  0  0  0  0  0  0  0
   38.1400   31.1480   50.3200 C   0  0  0  0  0  0  0  0  0  0  0  0
   37.8310   31.5620   49.0170 C   0  0  0  0  0  0  0  0  0  0  0  0
   36.9050   30.8560   48.3240 N   0  0  0  0  0  0  0  0  0  0  0  0
   36.2720   29.7640   48.8560 C   0  0  0  0  0  0  0  0  0  0  0  0
   36.5740   29.3750   50.1050 N   0  0  0  0  0  0  0  0  0  0  0  0
   38.8830   31.7640   50.7950 H   0  0  0  0  0  0  0  0  0  0  0  0
   38.3070   32.4200   48.5580 H   0  0  0  0  0  0  0  0  0  0  0  0
   34.1530   29.9090   47.6000 C   0  0  2  0  0  3  0  0  0  0  0  0
   35.2600   28.9960   48.0910 C   0  0  2  0  0  3  0  0  0  0  0  0
   34.4360   28.0960   49.0230 C   0  0  0  0  0  3  0  0  0  0  0  0
   34.0440   28.7040   49.8360 H   0  0  0  0  0  0  0  0  0  0  0  0
   33.3900   27.7640   48.1710 O   0  0  0  0  0  0  0  0  0  0  0  0
   32.9980   28.9220   47.5280 C   0  0  0  0  0  3  0  0  0  0  0  0
   32.8480   28.7260   46.4270 H   0  0  0  0  0  0  0  0  0  0  0  0
   34.4340   30.4940   46.3730 O   0  0  0  0  0  0  0  0  0  0  0  0
   33.7500   31.2330   46.2860 H   0  0  0  0  0  0  0  0  0  0  0  0
   37.8840   29.7380   52.1350 O   0  0  0  0  0  0  0  0  0  0  0  0
   37.5470   30.2350   52.9440 H   0  0  0  0  0  0  0  0  0  0  0  0
  1 18  1  0  0  0  0
  2  7  1  0  0  0  0
  2  1  1  0  0  0  0
  3  2  2  0  0  0  0
  4  5  2  0  0  0  0
  4  3  1  0  0  0  0
  5  6  1  0  0  0  0
  6  1  2  0  0  0  0
  8  3  1  0  0  0  0
  9 16  1  6  0  0  0
  9 10  1  0  0  0  0
 10  5  1  1  0  0  0
 10 11  1  0  0  0  0
 11 12  1  0  0  0  0
 13 11  1  0  0  0  0
 14  9  1  0  0  0  0
 14 13  1  0  0  0  0
 15 14  1  0  0  0  0
 17 16  1  0  0  0  0
 18 19  1  0  0  0  0
M  END
>  <minimizedAffinity>
-4.57476091

>  <minimizedRMSD>
1.88771653

$$$$
