
 OpenBabel03272506343D

 19 20  0  0  1  0  0  0  0  0999 V2000
   37.4860   30.0290   50.8460 C   0  0  0  0  0  0  0  0  0  0  0  0
   38.1490   31.1410   50.3330 C   0  0  0  0  0  0  0  0  0  0  0  0
   37.8480   31.5590   49.0290 C   0  0  0  0  0  0  0  0  0  0  0  0
   36.9220   30.8570   48.3300 N   0  0  0  0  0  0  0  0  0  0  0  0
   36.2820   29.7670   48.8570 C   0  0  0  0  0  0  0  0  0  0  0  0
   36.5770   29.3740   50.1070 N   0  0  0  0  0  0  0  0  0  0  0  0
   38.8920   31.7530   50.8130 H   0  0  0  0  0  0  0  0  0  0  0  0
   38.3290   32.4150   48.5740 H   0  0  0  0  0  0  0  0  0  0  0  0
   34.2110   29.9330   47.5280 C   0  0  2  0  0  3  0  0  0  0  0  0
   35.2710   29.0050   48.0860 C   0  0  2  0  0  3  0  0  0  0  0  0
   34.3890   28.1640   49.0200 C   0  0  0  0  0  3  0  0  0  0  0  0
   33.9910   28.8140   49.7980 H   0  0  0  0  0  0  0  0  0  0  0  0
   33.3600   27.8360   48.1460 O   0  0  0  0  0  0  0  0  0  0  0  0
   33.0270   28.9820   47.4500 C   0  0  0  0  0  3  0  0  0  0  0  0
   32.9070   28.7510   46.3520 H   0  0  0  0  0  0  0  0  0  0  0  0
   34.5510   30.4660   46.2910 O   0  0  0  0  0  0  0  0  0  0  0  0
   33.8960   31.2220   46.1540 H   0  0  0  0  0  0  0  0  0  0  0  0
   37.8790   29.7280   52.1440 O   0  0  0  0  0  0  0  0  0  0  0  0
   37.5410   30.2250   52.9530 H   0  0  0  0  0  0  0  0  0  0  0  0
  1 18  1  0  0  0  0
  2  7  1  0  0  0  0
  2  1  1  0  0  0  0
  3  2  2  0  0  0  0
  4  5  2  0  0  0  0
  4  3  1  0  0  0  0
  5  6  1  0  0  0  0
  6  1  2  0  0  0  0
  8  3  1  0  0  0  0
  9 16  1  6  0  0  0
  9 10  1  0  0  0  0
 10  5  1  1  0  0  0
 10 11  1  0  0  0  0
 11 12  1  0  0  0  0
 13 11  1  0  0  0  0
 14  9  1  0  0  0  0
 14 13  1  0  0  0  0
 15 14  1  0  0  0  0
 17 16  1  0  0  0  0
 18 19  1  0  0  0  0
M  END
>  <minimizedAffinity>
-4.57029629

>  <minimizedRMSD>
2.00023484

$$$$
