
 OpenBabel03272500073D

 39 42  0  0  1  0  0  0  0  0999 V2000
   32.4710   26.9520   48.0650 O   0  0  0  0  0  0  0  0  0  0  0  0
   31.1270   27.3380   48.2220 C   0  0  0  0  0  0  0  0  0  0  0  0
   30.8560   27.7890   49.5170 C   0  0  0  0  0  0  0  0  0  0  0  0
   29.5940   28.2110   49.8640 C   0  0  0  0  0  0  0  0  0  0  0  0
   28.5960   28.1820   48.9020 C   0  0  0  0  0  0  0  0  0  0  0  0
   28.8940   27.7340   47.6400 C   0  0  0  0  0  0  0  0  0  0  0  0
   30.1470   27.3010   47.2550 C   0  0  0  0  0  0  0  0  0  0  0  0
   31.5900   27.8360   50.3150 H   0  0  0  0  0  0  0  0  0  0  0  0
   29.3660   28.5630   50.8590 H   0  0  0  0  0  0  0  0  0  0  0  0
   27.5980   28.5150   49.1680 H   0  0  0  0  0  0  0  0  0  0  0  0
   28.0780   27.7340   46.9330 H   0  0  0  0  0  0  0  0  0  0  0  0
   30.6380   27.8880   44.8810 C   0  0  2  0  0  3  0  0  0  0  0  0
   30.4950   26.8060   45.9360 C   0  0  1  0  0  3  0  0  0  0  0  0
   31.9350   26.2710   45.8410 C   0  0  0  0  0  3  0  0  0  0  0  0
   32.6530   27.0500   46.1860 H   0  0  0  0  0  0  0  0  0  0  0  0
   32.1690   26.1520   44.4720 O   0  0  0  0  0  0  0  0  0  0  0  0
   31.3210   27.0250   43.8100 C   0  0  0  0  0  3  0  0  0  0  0  0
   31.8430   27.6550   43.0710 H   0  0  0  0  0  0  0  0  0  0  0  0
   31.5310   28.8480   45.2750 O   0  0  0  0  0  0  0  0  0  0  0  0
   31.0850   29.6880   45.5680 H   0  0  0  0  0  0  0  0  0  0  0  0
   35.3790   28.7630   49.1280 C   0  0  0  0  0  0  0  0  0  0  0  0
   35.2950   29.9700   48.4210 C   0  0  0  0  0  0  0  0  0  0  0  0
   34.2040   30.1380   47.5670 C   0  0  0  0  0  0  0  0  0  0  0  0
   33.2960   29.1290   47.4730 N   0  0  0  0  0  0  0  0  0  0  0  0
   33.4020   27.9910   48.1600 C   0  0  0  0  0  0  0  0  0  0  0  0
   34.4540   27.7950   49.0010 N   0  0  0  0  0  0  0  0  0  0  0  0
   36.2390   28.6380   49.7980 H   0  0  0  0  0  0  0  0  0  0  0  0
   34.1240   31.0550   47.0180 H   0  0  0  0  0  0  0  0  0  0  0  0
   36.3110   30.9400   48.6070 N   0  0  0  0  0  0  0  0  0  0  0  0
   36.4600   31.6080   49.7440 C   0  0  0  0  0  0  0  0  0  0  0  0
   37.4860   32.5470   49.8500 C   0  0  0  0  0  0  0  0  0  0  0  0
   38.2660   32.7020   48.7480 C   0  0  0  0  0  0  0  0  0  0  0  0
   39.1970   33.5480   48.8280 O   0  0  0  0  0  0  0  0  0  0  0  0
   38.1490   32.0560   47.5990 N   0  0  0  0  0  0  0  0  0  0  0  0
   37.1370   31.1420   47.5230 C   0  0  0  0  0  0  0  0  0  0  0  0
   37.0110   30.5150   46.4280 O   0  0  0  0  0  0  0  0  0  0  0  0
   35.8120   31.4450   50.5890 H   0  0  0  0  0  0  0  0  0  0  0  0
   37.6050   33.0890   50.7760 H   0  0  0  0  0  0  0  0  0  0  0  0
   38.7910   32.2330   46.7940 H   0  0  0  0  0  0  0  0  0  0  0  0
  1 25  1  0  0  0  0
  1  2  1  0  0  0  0
  2  3  1  0  0  0  0
  3  4  2  0  0  0  0
  3  8  1  0  0  0  0
  4  9  1  0  0  0  0
  5 10  1  0  0  0  0
  5  4  1  0  0  0  0
  6  5  2  0  0  0  0
  7  6  1  0  0  0  0
  7  2  2  0  0  0  0
 11  6  1  0  0  0  0
 12 19  1  1  0  0  0
 12 13  1  0  0  0  0
 13  7  1  1  0  0  0
 14 13  1  0  0  0  0
 14 15  1  0  0  0  0
 16 14  1  0  0  0  0
 17 16  1  0  0  0  0
 17 12  1  0  0  0  0
 18 17  1  0  0  0  0
 19 20  1  0  0  0  0
 21 27  1  0  0  0  0
 22 29  1  0  0  0  0
 22 21  2  0  0  0  0
 23 22  1  0  0  0  0
 24 23  2  0  0  0  0
 24 25  1  0  0  0  0
 25 26  2  0  0  0  0
 26 21  1  0  0  0  0
 28 23  1  0  0  0  0
 29 30  1  0  0  0  0
 30 31  2  0  0  0  0
 30 37  1  0  0  0  0
 31 38  1  0  0  0  0
 32 33  2  0  0  0  0
 32 31  1  0  0  0  0
 34 32  1  0  0  0  0
 35 34  1  0  0  0  0
 35 29  1  0  0  0  0
 36 35  2  0  0  0  0
 39 34  1  0  0  0  0
M  END
>  <minimizedAffinity>
-5.72374868

>  <minimizedRMSD>
0.563058913

$$$$
