
 OpenBabel03272505263D

 31 33  0  0  1  0  0  0  0  0999 V2000
   37.3990   31.1110   47.0790 N   0  0  0  0  0  0  0  0  0  0  0  0
   36.7850   30.7900   45.9070 C   0  0  0  0  0  0  0  0  0  0  0  0
   37.2340   31.2570   44.6830 C   0  0  0  0  0  0  0  0  0  0  0  0
   38.3660   32.0890   44.6890 C   0  0  0  0  0  0  0  0  0  0  0  0
   38.8000   32.5290   43.6040 O   0  0  0  0  0  0  0  0  0  0  0  0
   38.9820   32.4130   45.8600 N   0  0  0  0  0  0  0  0  0  0  0  0
   38.4530   31.8990   46.9790 C   0  0  0  0  0  0  0  0  0  0  0  0
   39.0490   32.2220   48.0310 O   0  0  0  0  0  0  0  0  0  0  0  0
   35.9110   30.1430   45.9380 H   0  0  0  0  0  0  0  0  0  0  0  0
   37.3390   29.5750   50.4590 C   0  0  0  0  0  0  0  0  0  0  0  0
   37.7980   30.0570   49.2260 C   0  0  0  0  0  0  0  0  0  0  0  0
   36.9360   30.6280   48.3050 C   0  0  0  0  0  0  0  0  0  0  0  0
   35.6120   30.7130   48.6240 N   0  0  0  0  0  0  0  0  0  0  0  0
   35.1570   30.2440   49.8260 C   0  0  0  0  0  0  0  0  0  0  0  0
   36.0040   29.6830   50.7340 N   0  0  0  0  0  0  0  0  0  0  0  0
   37.9380   29.1250   51.2170 H   0  0  0  0  0  0  0  0  0  0  0  0
   38.8570   29.8980   49.1420 H   0  0  0  0  0  0  0  0  0  0  0  0
   34.1040   30.3690   49.9530 H   0  0  0  0  0  0  0  0  0  0  0  0
   35.8060   32.0730   42.9150 C   0  0  2  0  0  3  0  0  0  0  0  0
   36.5260   30.8710   43.4790 C   0  0  2  0  0  3  0  0  0  0  0  0
   35.4190   29.8860   43.6560 C   0  0  0  0  0  3  0  0  0  0  0  0
   35.5720   29.1320   44.4310 H   0  0  0  0  0  0  0  0  0  0  0  0
   34.2380   30.5980   43.7970 O   0  0  0  0  0  0  0  0  0  0  0  0
   34.3600   31.6840   42.9690 C   0  0  0  0  0  3  0  0  0  0  0  0
   33.9740   31.4720   41.9310 H   0  0  0  0  0  0  0  0  0  0  0  0
   36.2330   32.2940   41.5910 O   0  0  0  0  0  0  0  0  0  0  0  0
   37.1940   32.5020   41.6130 H   0  0  0  0  0  0  0  0  0  0  0  0
   40.1460   33.2700   45.8600 C   0  0  0  0  0  0  0  0  0  0  0  0
   39.9950   34.2450   44.9010 F   0  0  0  0  0  0  0  0  0  0  0  0
   41.3150   32.6070   45.5880 F   0  0  0  0  0  0  0  0  0  0  0  0
   40.2170   33.9200   47.0920 F   0  0  0  0  0  0  0  0  0  0  0  0
  1 12  1  0  0  0  0
  2  9  1  0  0  0  0
  2  1  1  0  0  0  0
  3  4  1  0  0  0  0
  3  2  2  0  0  0  0
  4  6  1  0  0  0  0
  5  4  2  0  0  0  0
  6  7  1  0  0  0  0
  7  1  1  0  0  0  0
  7  8  2  0  0  0  0
 10 15  1  0  0  0  0
 10 16  1  0  0  0  0
 11 10  2  0  0  0  0
 12 13  2  0  0  0  0
 12 11  1  0  0  0  0
 13 14  1  0  0  0  0
 14 18  1  0  0  0  0
 14 15  2  0  0  0  0
 17 11  1  0  0  0  0
 19 26  1  6  0  0  0
 19 24  1  0  0  0  0
 19 20  1  0  0  0  0
 20 21  1  0  0  0  0
 20  3  1  1  0  0  0
 21 23  1  0  0  0  0
 21 22  1  0  0  0  0
 24 23  1  0  0  0  0
 25 24  1  0  0  0  0
 26 27  1  0  0  0  0
 28  6  1  0  0  0  0
 28 31  1  0  0  0  0
 29 28  1  0  0  0  0
 30 28  1  0  0  0  0
M  END
>  <minimizedAffinity>
-6.2471633

>  <minimizedRMSD>
0.382399231

$$$$
