
 OpenBabel03272507503D

 28 30  0  0  1  0  0  0  0  0999 V2000
   36.4670   30.1110   47.9050 C   0  0  0  0  0  0  0  0  0  0  0  0
   36.7090   30.5810   46.6030 C   0  0  0  0  0  0  0  0  0  0  0  0
   35.6640   30.4840   45.6920 C   0  0  0  0  0  0  0  0  0  0  0  0
   34.4860   29.9550   46.0840 N   0  0  0  0  0  0  0  0  0  0  0  0
   34.2860   29.5110   47.3500 C   0  0  0  0  0  0  0  0  0  0  0  0
   35.2840   29.5860   48.2780 N   0  0  0  0  0  0  0  0  0  0  0  0
   35.8520   30.8480   44.6840 H   0  0  0  0  0  0  0  0  0  0  0  0
   33.2900   29.1080   47.5340 H   0  0  0  0  0  0  0  0  0  0  0  0
   37.9860   31.1150   46.3090 N   0  0  0  0  0  0  0  0  0  0  0  0
   38.4040   32.2920   46.7790 C   0  0  0  0  0  0  0  0  0  0  0  0
   39.6720   32.7820   46.4680 C   0  0  0  0  0  0  0  0  0  0  0  0
   40.4080   31.9380   45.6500 C   0  0  0  0  0  0  0  0  0  0  0  0
   41.5660   32.3800   45.3620 O   0  0  0  0  0  0  0  0  0  0  0  0
   40.0310   30.7560   45.1570 N   0  0  0  0  0  0  0  0  0  0  0  0
   38.7890   30.3620   45.5110 C   0  0  0  0  0  0  0  0  0  0  0  0
   38.4170   29.2380   45.0480 O   0  0  0  0  0  0  0  0  0  0  0  0
   37.7820   32.9110   47.4090 H   0  0  0  0  0  0  0  0  0  0  0  0
   40.0430   33.7150   46.8220 H   0  0  0  0  0  0  0  0  0  0  0  0
   40.6650   30.1980   44.5480 H   0  0  0  0  0  0  0  0  0  0  0  0
   37.3000   31.2590   49.9580 C   0  0  2  0  0  3  0  0  0  0  0  0
   37.4470   30.1220   49.0180 C   0  0  1  0  0  3  0  0  0  0  0  0
   37.3560   28.9090   49.8850 C   0  0  0  0  0  3  0  0  0  0  0  0
   38.1430   28.1500   49.6040 H   0  0  0  0  0  0  0  0  0  0  0  0
   37.6020   29.2790   51.1870 O   0  0  0  0  0  0  0  0  0  0  0  0
   37.3490   30.6260   51.3200 C   0  0  0  0  0  3  0  0  0  0  0  0
   36.3870   30.8220   51.8580 H   0  0  0  0  0  0  0  0  0  0  0  0
   36.0860   31.8930   49.7630 O   0  0  0  0  0  0  0  0  0  0  0  0
   35.7110   32.1360   50.6520 H   0  0  0  0  0  0  0  0  0  0  0  0
  1  6  1  0  0  0  0
  2  1  2  0  0  0  0
  3  4  2  0  0  0  0
  3  2  1  0  0  0  0
  4  5  1  0  0  0  0
  5  8  1  0  0  0  0
  5  6  2  0  0  0  0
  7  3  1  0  0  0  0
  9  2  1  0  0  0  0
  9 10  1  0  0  0  0
 10 17  1  0  0  0  0
 11 10  2  0  0  0  0
 11 18  1  0  0  0  0
 12 11  1  0  0  0  0
 13 12  2  0  0  0  0
 14 15  1  0  0  0  0
 14 12  1  0  0  0  0
 15  9  1  0  0  0  0
 16 15  2  0  0  0  0
 19 14  1  0  0  0  0
 20 27  1  6  0  0  0
 20 25  1  0  0  0  0
 21  1  1  6  0  0  0
 21 22  1  0  0  0  0
 21 20  1  0  0  0  0
 22 24  1  0  0  0  0
 23 22  1  0  0  0  0
 24 25  1  0  0  0  0
 25 26  1  0  0  0  0
 27 28  1  0  0  0  0
M  END
>  <minimizedAffinity>
-4.58287525

>  <minimizedRMSD>
2.852314

$$$$
