
 OpenBabel03272504533D

 25 27  0  0  1  0  0  0  0  0999 V2000
   37.0530   31.1690   49.1860 C   0  0  0  0  0  0  0  0  0  0  0  0
   37.4000   32.4460   49.6620 C   0  0  0  0  0  0  0  0  0  0  0  0
   38.3600   33.1230   48.9300 C   0  0  0  0  0  0  0  0  0  0  0  0
   38.9140   32.5520   47.8150 N   0  0  0  0  0  0  0  0  0  0  0  0
   38.5470   31.3130   47.3890 C   0  0  0  0  0  0  0  0  0  0  0  0
   37.6100   30.6230   48.0850 N   0  0  0  0  0  0  0  0  0  0  0  0
   36.9560   32.8670   50.5300 H   0  0  0  0  0  0  0  0  0  0  0  0
   38.6540   34.1080   49.2670 H   0  0  0  0  0  0  0  0  0  0  0  0
   35.9910   30.4170   49.9470 C   0  0  0  0  0  0  0  0  0  0  0  0
   35.8600   28.9700   49.8210 C   0  0  0  0  0  0  0  0  0  0  0  0
   36.5730   29.5190   51.0280 C   0  0  0  0  0  0  0  0  0  0  0  0
   35.1480   31.0820   50.2660 H   0  0  0  0  0  0  0  0  0  0  0  0
   36.5180   28.4800   49.0440 H   0  0  0  0  0  0  0  0  0  0  0  0
   34.8810   28.4790   49.9030 H   0  0  0  0  0  0  0  0  0  0  0  0
   37.6560   29.4270   51.1470 H   0  0  0  0  0  0  0  0  0  0  0  0
   35.9570   29.4850   51.9480 H   0  0  0  0  0  0  0  0  0  0  0  0
   40.4430   31.4980   45.7840 C   0  0  2  0  0  3  0  0  0  0  0  0
   39.1880   30.7500   46.1700 C   0  0  2  0  0  3  0  0  0  0  0  0
   38.3200   30.8600   44.9470 C   0  0  0  0  0  3  0  0  0  0  0  0
   37.7560   29.9190   44.8200 H   0  0  0  0  0  0  0  0  0  0  0  0
   39.1450   31.1290   43.8780 O   0  0  0  0  0  0  0  0  0  0  0  0
   40.1890   31.9220   44.3700 C   0  0  0  0  0  3  0  0  0  0  0  0
   39.9400   33.0000   44.3360 H   0  0  0  0  0  0  0  0  0  0  0  0
   41.5810   30.6920   45.7920 O   0  0  0  0  0  0  0  0  0  0  0  0
   41.2570   29.7430   45.7160 H   0  0  0  0  0  0  0  0  0  0  0  0
  1  2  1  0  0  0  0
  1  9  1  0  0  0  0
  2  7  1  0  0  0  0
  3  8  1  0  0  0  0
  3  2  2  0  0  0  0
  4  3  1  0  0  0  0
  5  4  2  0  0  0  0
  5  6  1  0  0  0  0
  6  1  2  0  0  0  0
  9 12  1  0  0  0  0
  9 11  1  0  0  0  0
 10 14  1  0  0  0  0
 10  9  1  0  0  0  0
 10 11  1  0  0  0  0
 11 15  1  0  0  0  0
 11 16  1  0  0  0  0
 13 10  1  0  0  0  0
 17 24  1  6  0  0  0
 17 18  1  0  0  0  0
 18  5  1  1  0  0  0
 19 18  1  0  0  0  0
 20 19  1  0  0  0  0
 21 22  1  0  0  0  0
 21 19  1  0  0  0  0
 22 17  1  0  0  0  0
 23 22  1  0  0  0  0
 25 24  1  0  0  0  0
M  END
>  <minimizedAffinity>
-5.92408323

>  <minimizedRMSD>
0.221713856

$$$$
