
 OpenBabel03272500073D

 39 42  0  0  1  0  0  0  0  0999 V2000
   32.2610   26.7130   48.0330 O   0  0  0  0  0  0  0  0  0  0  0  0
   30.9290   27.0830   48.2960 C   0  0  0  0  0  0  0  0  0  0  0  0
   30.7940   27.7260   49.5290 C   0  0  0  0  0  0  0  0  0  0  0  0
   29.5650   28.1640   49.9620 C   0  0  0  0  0  0  0  0  0  0  0  0
   28.4610   27.9560   49.1480 C   0  0  0  0  0  0  0  0  0  0  0  0
   28.6260   27.3230   47.9430 C   0  0  0  0  0  0  0  0  0  0  0  0
   29.8430   26.8680   47.4760 C   0  0  0  0  0  0  0  0  0  0  0  0
   31.6150   27.9190   50.2130 H   0  0  0  0  0  0  0  0  0  0  0  0
   29.4410   28.6630   50.9120 H   0  0  0  0  0  0  0  0  0  0  0  0
   27.4880   28.3010   49.4830 H   0  0  0  0  0  0  0  0  0  0  0  0
   27.7330   27.1880   47.3530 H   0  0  0  0  0  0  0  0  0  0  0  0
   30.3460   27.0970   45.0440 C   0  0  2  0  0  3  0  0  0  0  0  0
   30.0540   26.1790   46.2150 C   0  0  1  0  0  3  0  0  0  0  0  0
   31.3740   25.3900   46.1610 C   0  0  0  0  0  3  0  0  0  0  0  0
   32.2300   26.0630   46.4040 H   0  0  0  0  0  0  0  0  0  0  0  0
   31.5360   25.0840   44.8110 O   0  0  0  0  0  0  0  0  0  0  0  0
   30.8320   26.0160   44.0660 C   0  0  0  0  0  3  0  0  0  0  0  0
   31.4290   26.4610   43.2530 H   0  0  0  0  0  0  0  0  0  0  0  0
   31.4070   27.9220   45.3130 O   0  0  0  0  0  0  0  0  0  0  0  0
   31.1250   28.8540   45.5170 H   0  0  0  0  0  0  0  0  0  0  0  0
   35.1660   28.5320   49.0900 C   0  0  0  0  0  0  0  0  0  0  0  0
   35.0890   29.7300   48.3660 C   0  0  0  0  0  0  0  0  0  0  0  0
   34.0040   29.8880   47.5040 C   0  0  0  0  0  0  0  0  0  0  0  0
   33.0940   28.8810   47.4180 N   0  0  0  0  0  0  0  0  0  0  0  0
   33.1940   27.7520   48.1200 C   0  0  0  0  0  0  0  0  0  0  0  0
   34.2400   27.5650   48.9710 N   0  0  0  0  0  0  0  0  0  0  0  0
   36.0210   28.4140   49.7670 H   0  0  0  0  0  0  0  0  0  0  0  0
   33.9300   30.7980   46.9410 H   0  0  0  0  0  0  0  0  0  0  0  0
   36.1060   30.7000   48.5460 N   0  0  0  0  0  0  0  0  0  0  0  0
   36.3060   31.3180   49.7040 C   0  0  0  0  0  0  0  0  0  0  0  0
   37.3290   32.2610   49.8020 C   0  0  0  0  0  0  0  0  0  0  0  0
   38.0530   32.4720   48.6700 C   0  0  0  0  0  0  0  0  0  0  0  0
   38.9810   33.3230   48.7430 O   0  0  0  0  0  0  0  0  0  0  0  0
   37.8840   31.8770   47.5010 N   0  0  0  0  0  0  0  0  0  0  0  0
   36.8770   30.9580   47.4330 C   0  0  0  0  0  0  0  0  0  0  0  0
   36.7010   30.3780   46.3190 O   0  0  0  0  0  0  0  0  0  0  0  0
   35.7010   31.1120   50.5710 H   0  0  0  0  0  0  0  0  0  0  0  0
   37.4890   32.7630   50.7440 H   0  0  0  0  0  0  0  0  0  0  0  0
   38.4850   32.0940   46.6750 H   0  0  0  0  0  0  0  0  0  0  0  0
  1 25  1  0  0  0  0
  1  2  1  0  0  0  0
  2  3  1  0  0  0  0
  3  4  2  0  0  0  0
  3  8  1  0  0  0  0
  4  9  1  0  0  0  0
  5 10  1  0  0  0  0
  5  4  1  0  0  0  0
  6  5  2  0  0  0  0
  7  6  1  0  0  0  0
  7  2  2  0  0  0  0
 11  6  1  0  0  0  0
 12 19  1  1  0  0  0
 12 13  1  0  0  0  0
 13  7  1  1  0  0  0
 14 13  1  0  0  0  0
 14 15  1  0  0  0  0
 16 14  1  0  0  0  0
 17 16  1  0  0  0  0
 17 12  1  0  0  0  0
 18 17  1  0  0  0  0
 19 20  1  0  0  0  0
 21 27  1  0  0  0  0
 22 29  1  0  0  0  0
 22 21  2  0  0  0  0
 23 22  1  0  0  0  0
 24 23  2  0  0  0  0
 24 25  1  0  0  0  0
 25 26  2  0  0  0  0
 26 21  1  0  0  0  0
 28 23  1  0  0  0  0
 29 30  1  0  0  0  0
 30 31  2  0  0  0  0
 30 37  1  0  0  0  0
 31 38  1  0  0  0  0
 32 33  2  0  0  0  0
 32 31  1  0  0  0  0
 34 32  1  0  0  0  0
 35 34  1  0  0  0  0
 35 29  1  0  0  0  0
 36 35  2  0  0  0  0
 39 34  1  0  0  0  0
M  END
>  <minimizedAffinity>
-5.70140982

>  <minimizedRMSD>
1.06662059

$$$$
