
 OpenBabel03272507413D

 41 44  0  0  1  0  0  0  0  0999 V2000
   36.6110   31.1190   49.6700 C   0  0  0  0  0  0  0  0  0  0  0  0
   35.6440   30.1550   49.3650 C   0  0  0  0  0  0  0  0  0  0  0  0
   35.4390   29.0750   50.2010 C   0  0  0  0  0  0  0  0  0  0  0  0
   36.2120   28.9970   51.3180 N   0  0  0  0  0  0  0  0  0  0  0  0
   37.1470   29.9410   51.6010 C   0  0  0  0  0  0  0  0  0  0  0  0
   37.3290   30.9740   50.7820 N   0  0  0  0  0  0  0  0  0  0  0  0
   34.7160   28.3000   50.0290 H   0  0  0  0  0  0  0  0  0  0  0  0
   37.7660   29.8880   52.4860 H   0  0  0  0  0  0  0  0  0  0  0  0
   34.3130   28.9330   47.7320 C   0  0  0  0  0  0  0  0  0  0  0  0
   34.5510   27.6940   48.0020 O   0  0  0  0  0  0  0  0  0  0  0  0
   34.8090   30.1630   48.2380 N   0  0  0  0  0  0  0  0  0  0  0  0
   34.5130   30.9960   47.7250 H   0  0  0  0  0  0  0  0  0  0  0  0
   31.0270   28.3400   46.8160 C   0  0  2  0  0  3  0  0  0  0  0  0
   32.3960   27.7000   46.6970 C   0  0  0  0  0  3  0  0  0  0  0  0
   32.4630   27.0740   45.7930 H   0  0  0  0  0  0  0  0  0  0  0  0
   33.2830   28.9050   46.6490 C   0  0  1  0  0  3  0  0  0  0  0  0
   32.4890   30.0260   46.7250 O   0  0  0  0  0  0  0  0  0  0  0  0
   31.2840   29.6450   46.0910 C   0  0  0  0  0  3  0  0  0  0  0  0
   30.5000   30.3910   46.2070 H   0  0  0  0  0  0  0  0  0  0  0  0
   30.7970   28.6150   48.1550 O   0  0  0  0  0  0  0  0  0  0  0  0
   31.0010   29.5590   48.3900 H   0  0  0  0  0  0  0  0  0  0  0  0
   36.6680   32.0990   48.7370 O   0  0  0  0  0  0  0  0  0  0  0  0
   38.1810   32.0450   46.7790 C   0  0  0  0  0  0  0  0  0  0  0  0
   37.8190   32.4680   48.0440 C   0  0  0  0  0  0  0  0  0  0  0  0
   38.6220   33.3430   48.7540 C   0  0  0  0  0  0  0  0  0  0  0  0
   39.8080   33.7970   48.1810 C   0  0  0  0  0  0  0  0  0  0  0  0
   40.1690   33.3750   46.9180 C   0  0  0  0  0  0  0  0  0  0  0  0
   39.3400   32.5050   46.2510 C   0  0  0  0  0  0  0  0  0  0  0  0
   38.4080   33.7080   49.7270 H   0  0  0  0  0  0  0  0  0  0  0  0
   40.4490   34.4840   48.7270 H   0  0  0  0  0  0  0  0  0  0  0  0
   41.1010   33.7510   46.5080 H   0  0  0  0  0  0  0  0  0  0  0  0
   39.7380   32.0590   44.8960 C   0  0  0  0  0  0  0  0  0  0  0  0
   40.5470   31.0250   44.5180 C   0  0  0  0  0  0  0  0  0  0  0  0
   40.6100   31.0200   43.1250 C   0  0  0  0  0  0  0  0  0  0  0  0
   39.8190   32.0740   42.7440 C   0  0  0  0  0  0  0  0  0  0  0  0
   39.3160   32.6700   43.8020 O   0  0  0  0  0  0  0  0  0  0  0  0
   41.0020   30.3880   45.2890 H   0  0  0  0  0  0  0  0  0  0  0  0
   41.2020   30.2770   42.6070 H   0  0  0  0  0  0  0  0  0  0  0  0
   39.6770   32.3170   41.6860 H   0  0  0  0  0  0  0  0  0  0  0  0
   36.5770   30.4340   45.5730 N   0  0  0  0  0  0  0  0  0  0  0  0
   37.2970   31.1420   46.1120 C   0  0  0  0  0  0  0  0  0  0  0  0
  1  6  1  0  0  0  0
  2  1  2  0  0  0  0
  2  3  1  0  0  0  0
  3  4  2  0  0  0  0
  4  5  1  0  0  0  0
  5  8  1  0  0  0  0
  6  5  2  0  0  0  0
  7  3  1  0  0  0  0
  9 10  2  0  0  0  0
  9 11  1  0  0  0  0
 11  2  1  0  0  0  0
 12 11  1  0  0  0  0
 13 20  1  1  0  0  0
 14 13  1  0  0  0  0
 15 14  1  0  0  0  0
 16 14  1  0  0  0  0
 16 17  1  0  0  0  0
 16  9  1  1  0  0  0
 18 19  1  0  0  0  0
 18 17  1  0  0  0  0
 18 13  1  0  0  0  0
 20 21  1  0  0  0  0
 22  1  1  0  0  0  0
 23 24  1  0  0  0  0
 24 22  1  0  0  0  0
 24 25  2  0  0  0  0
 25 29  1  0  0  0  0
 26 30  1  0  0  0  0
 26 25  1  0  0  0  0
 27 26  2  0  0  0  0
 28 23  2  0  0  0  0
 28 27  1  0  0  0  0
 31 27  1  0  0  0  0
 32 28  1  0  0  0  0
 33 32  2  0  0  0  0
 33 37  1  0  0  0  0
 34 33  1  0  0  0  0
 35 34  2  0  0  0  0
 35 36  1  0  0  0  0
 36 32  1  0  0  0  0
 38 34  1  0  0  0  0
 39 35  1  0  0  0  0
 40 41  3  0  0  0  0
 41 23  1  0  0  0  0
M  END
>  <minimizedAffinity>
-5.81940365

>  <minimizedRMSD>
0.810141802

$$$$
