
 OpenBabel03272506343D

 19 20  0  0  1  0  0  0  0  0999 V2000
   37.4540   30.0050   50.9160 C   0  0  0  0  0  0  0  0  0  0  0  0
   37.9690   31.2250   50.4840 C   0  0  0  0  0  0  0  0  0  0  0  0
   37.5560   31.7250   49.2420 C   0  0  0  0  0  0  0  0  0  0  0  0
   36.6720   30.9930   48.5190 N   0  0  0  0  0  0  0  0  0  0  0  0
   36.1800   29.7950   48.9660 C   0  0  0  0  0  0  0  0  0  0  0  0
   36.5810   29.3240   50.1580 N   0  0  0  0  0  0  0  0  0  0  0  0
   38.6680   31.8680   50.9880 H   0  0  0  0  0  0  0  0  0  0  0  0
   37.9190   32.6660   48.8510 H   0  0  0  0  0  0  0  0  0  0  0  0
   34.1500   29.8970   47.5670 C   0  0  2  0  0  3  0  0  0  0  0  0
   35.2140   29.0000   48.1700 C   0  0  2  0  0  3  0  0  0  0  0  0
   34.3230   28.1470   49.0830 C   0  0  0  0  0  3  0  0  0  0  0  0
   33.8830   28.7920   49.8420 H   0  0  0  0  0  0  0  0  0  0  0  0
   33.3320   27.7840   48.1790 O   0  0  0  0  0  0  0  0  0  0  0  0
   32.9930   28.9150   47.4610 C   0  0  0  0  0  3  0  0  0  0  0  0
   32.9160   28.6710   46.3630 H   0  0  0  0  0  0  0  0  0  0  0  0
   34.5160   30.4260   46.3370 O   0  0  0  0  0  0  0  0  0  0  0  0
   33.8470   31.1640   46.1730 H   0  0  0  0  0  0  0  0  0  0  0  0
   37.9460   29.6310   52.1600 O   0  0  0  0  0  0  0  0  0  0  0  0
   37.6010   30.0120   53.0280 H   0  0  0  0  0  0  0  0  0  0  0  0
  1 18  1  0  0  0  0
  2  1  1  0  0  0  0
  2  7  1  0  0  0  0
  3  2  2  0  0  0  0
  4  5  2  0  0  0  0
  4  3  1  0  0  0  0
  5  6  1  0  0  0  0
  6  1  2  0  0  0  0
  8  3  1  0  0  0  0
  9 16  1  6  0  0  0
  9 10  1  0  0  0  0
 10  5  1  1  0  0  0
 10 11  1  0  0  0  0
 11 12  1  0  0  0  0
 13 11  1  0  0  0  0
 14  9  1  0  0  0  0
 14 13  1  0  0  0  0
 15 14  1  0  0  0  0
 17 16  1  0  0  0  0
 18 19  1  0  0  0  0
M  END
>  <minimizedAffinity>
-4.5853672

>  <minimizedRMSD>
2.01265073

$$$$
