
 OpenBabel03272507413D

 41 44  0  0  1  0  0  0  0  0999 V2000
   36.6920   31.0750   49.6600 C   0  0  0  0  0  0  0  0  0  0  0  0
   35.8070   30.0300   49.3760 C   0  0  0  0  0  0  0  0  0  0  0  0
   35.6570   28.9760   50.2550 C   0  0  0  0  0  0  0  0  0  0  0  0
   36.4030   29.0040   51.3940 N   0  0  0  0  0  0  0  0  0  0  0  0
   37.2580   30.0260   51.6560 C   0  0  0  0  0  0  0  0  0  0  0  0
   37.3870   31.0320   50.7950 N   0  0  0  0  0  0  0  0  0  0  0  0
   34.9980   28.1420   50.1020 H   0  0  0  0  0  0  0  0  0  0  0  0
   37.8550   30.0590   52.5580 H   0  0  0  0  0  0  0  0  0  0  0  0
   34.4140   28.6770   47.9050 C   0  0  0  0  0  0  0  0  0  0  0  0
   34.5330   27.4820   48.3770 O   0  0  0  0  0  0  0  0  0  0  0  0
   35.0050   29.9270   48.2290 N   0  0  0  0  0  0  0  0  0  0  0  0
   34.7980   30.6880   47.5800 H   0  0  0  0  0  0  0  0  0  0  0  0
   31.9430   30.1890   46.0090 C   0  0  2  0  0  3  0  0  0  0  0  0
   32.0870   29.1760   47.1280 C   0  0  0  0  0  3  0  0  0  0  0  0
   31.2580   28.4510   47.1130 H   0  0  0  0  0  0  0  0  0  0  0  0
   33.4140   28.5620   46.8010 C   0  0  1  0  0  3  0  0  0  0  0  0
   33.8980   29.1660   45.6640 O   0  0  0  0  0  0  0  0  0  0  0  0
   32.7400   29.4980   44.9230 C   0  0  0  0  0  3  0  0  0  0  0  0
   32.9640   30.1200   44.0590 H   0  0  0  0  0  0  0  0  0  0  0  0
   32.6160   31.3420   46.3870 O   0  0  0  0  0  0  0  0  0  0  0  0
   33.5300   31.3940   45.9990 H   0  0  0  0  0  0  0  0  0  0  0  0
   36.7040   32.0140   48.6850 O   0  0  0  0  0  0  0  0  0  0  0  0
   38.1970   32.0220   46.7110 C   0  0  0  0  0  0  0  0  0  0  0  0
   37.8400   32.4180   47.9860 C   0  0  0  0  0  0  0  0  0  0  0  0
   38.6310   33.2990   48.7010 C   0  0  0  0  0  0  0  0  0  0  0  0
   39.8010   33.7860   48.1220 C   0  0  0  0  0  0  0  0  0  0  0  0
   40.1580   33.3900   46.8500 C   0  0  0  0  0  0  0  0  0  0  0  0
   39.3400   32.5130   46.1780 C   0  0  0  0  0  0  0  0  0  0  0  0
   38.4200   33.6450   49.6810 H   0  0  0  0  0  0  0  0  0  0  0  0
   40.4340   34.4790   48.6720 H   0  0  0  0  0  0  0  0  0  0  0  0
   41.0780   33.7930   46.4370 H   0  0  0  0  0  0  0  0  0  0  0  0
   39.7340   32.0960   44.8130 C   0  0  0  0  0  0  0  0  0  0  0  0
   40.5350   31.0650   44.4100 C   0  0  0  0  0  0  0  0  0  0  0  0
   40.5960   31.0910   43.0180 C   0  0  0  0  0  0  0  0  0  0  0  0
   39.8130   32.1610   42.6620 C   0  0  0  0  0  0  0  0  0  0  0  0
   39.3160   32.7360   43.7340 O   0  0  0  0  0  0  0  0  0  0  0  0
   40.9850   30.4070   45.1650 H   0  0  0  0  0  0  0  0  0  0  0  0
   41.1810   30.3560   42.4820 H   0  0  0  0  0  0  0  0  0  0  0  0
   39.6730   32.4290   41.6100 H   0  0  0  0  0  0  0  0  0  0  0  0
   36.6150   30.3950   45.4980 N   0  0  0  0  0  0  0  0  0  0  0  0
   37.3250   31.1100   46.0400 C   0  0  0  0  0  0  0  0  0  0  0  0
  1  6  1  0  0  0  0
  2  1  2  0  0  0  0
  2  3  1  0  0  0  0
  3  4  2  0  0  0  0
  4  5  1  0  0  0  0
  5  8  1  0  0  0  0
  6  5  2  0  0  0  0
  7  3  1  0  0  0  0
  9 11  1  0  0  0  0
  9 10  2  0  0  0  0
 11  2  1  0  0  0  0
 12 11  1  0  0  0  0
 13 20  1  1  0  0  0
 13 14  1  0  0  0  0
 15 14  1  0  0  0  0
 16 14  1  0  0  0  0
 16  9  1  1  0  0  0
 17 16  1  0  0  0  0
 18 17  1  0  0  0  0
 18 13  1  0  0  0  0
 19 18  1  0  0  0  0
 21 20  1  0  0  0  0
 22  1  1  0  0  0  0
 23 24  1  0  0  0  0
 24 22  1  0  0  0  0
 24 25  2  0  0  0  0
 25 29  1  0  0  0  0
 26 30  1  0  0  0  0
 26 25  1  0  0  0  0
 27 26  2  0  0  0  0
 28 23  2  0  0  0  0
 28 27  1  0  0  0  0
 31 27  1  0  0  0  0
 32 28  1  0  0  0  0
 33 32  2  0  0  0  0
 33 37  1  0  0  0  0
 34 33  1  0  0  0  0
 35 34  2  0  0  0  0
 35 36  1  0  0  0  0
 36 32  1  0  0  0  0
 38 34  1  0  0  0  0
 39 35  1  0  0  0  0
 40 41  3  0  0  0  0
 41 23  1  0  0  0  0
M  END
>  <minimizedAffinity>
-5.77752161

>  <minimizedRMSD>
1.03681898

$$$$
