
 OpenBabel03272504023D

 41 44  0  0  1  0  0  0  0  0999 V2000
   34.4010   29.3580   48.8710 C   0  0  0  0  0  0  0  0  0  0  0  0
   33.7150   30.2550   48.8350 H   0  0  0  0  0  0  0  0  0  0  0  0
   34.0590   28.7580   49.7070 H   0  0  0  0  0  0  0  0  0  0  0  0
   35.7530   29.9080   49.0640 C   0  0  0  0  0  0  0  0  0  0  0  0
   36.6560   29.3550   49.9820 C   0  0  0  0  0  0  0  0  0  0  0  0
   37.8050   30.0920   49.9150 C   0  0  0  0  0  0  0  0  0  0  0  0
   37.6130   31.0510   48.9990 N   0  0  0  0  0  0  0  0  0  0  0  0
   36.3970   30.9110   48.5210 N   0  0  0  0  0  0  0  0  0  0  0  0
   36.4970   28.5030   50.6340 H   0  0  0  0  0  0  0  0  0  0  0  0
   38.7370   29.9930   50.4590 H   0  0  0  0  0  0  0  0  0  0  0  0
   38.4500   32.0880   48.5210 C   0  0  0  0  0  0  0  0  0  0  0  0
   38.6950   33.1210   49.3870 C   0  0  0  0  0  0  0  0  0  0  0  0
   39.4950   34.2260   49.0870 C   0  0  0  0  0  0  0  0  0  0  0  0
   40.0590   34.2350   47.8130 C   0  0  0  0  0  0  0  0  0  0  0  0
   39.8260   33.2090   46.9320 C   0  0  0  0  0  0  0  0  0  0  0  0
   39.0300   32.1300   47.2570 C   0  0  0  0  0  0  0  0  0  0  0  0
   38.2720   33.1470   50.3870 H   0  0  0  0  0  0  0  0  0  0  0  0
   39.6690   35.0270   49.7930 H   0  0  0  0  0  0  0  0  0  0  0  0
   40.6880   35.0430   47.4950 H   0  0  0  0  0  0  0  0  0  0  0  0
   40.2190   33.1310   45.9260 H   0  0  0  0  0  0  0  0  0  0  0  0
   38.8050   31.2980   46.6270 H   0  0  0  0  0  0  0  0  0  0  0  0
   34.2280   28.6330   47.5870 C   0  0  0  0  0  0  0  0  0  0  0  0
   35.0790   27.9070   47.5080 H   0  0  0  0  0  0  0  0  0  0  0  0
   33.3290   27.9730   47.6960 H   0  0  0  0  0  0  0  0  0  0  0  0
   34.0330   29.4170   46.3980 C   0  0  0  0  0  0  0  0  0  0  0  0
   32.8220   29.9810   46.1190 C   0  0  0  0  0  0  0  0  0  0  0  0
   32.6340   30.7510   44.9500 C   0  0  0  0  0  0  0  0  0  0  0  0
   33.7360   30.8870   44.1310 N   0  0  0  0  0  0  0  0  0  0  0  0
   34.9150   30.3110   44.4460 C   0  0  0  0  0  0  0  0  0  0  0  0
   35.0400   29.5860   45.5750 N   0  0  0  0  0  0  0  0  0  0  0  0
   31.9670   29.8590   46.7830 H   0  0  0  0  0  0  0  0  0  0  0  0
   31.6760   31.2000   44.7250 H   0  0  0  0  0  0  0  0  0  0  0  0
   35.8310   29.9760   42.1430 C   0  0  2  0  0  3  0  0  0  0  0  0
   36.0930   30.4770   43.5360 C   0  0  1  0  0  3  0  0  0  0  0  0
   36.3310   31.9460   43.3290 C   0  0  0  0  0  3  0  0  0  0  0  0
   35.4660   32.5510   43.7110 H   0  0  0  0  0  0  0  0  0  0  0  0
   36.4250   32.1360   41.9450 O   0  0  0  0  0  0  0  0  0  0  0  0
   35.4730   31.2460   41.4210 C   0  0  0  0  0  3  0  0  0  0  0  0
   34.4440   31.5690   41.6540 H   0  0  0  0  0  0  0  0  0  0  0  0
   34.8620   29.0050   42.0520 O   0  0  0  0  0  0  0  0  0  0  0  0
   35.2110   28.1270   41.7100 H   0  0  0  0  0  0  0  0  0  0  0  0
  1  4  1  0  0  0  0
  1  3  1  0  0  0  0
  2  1  1  0  0  0  0
  4  5  1  0  0  0  0
  5  9  1  0  0  0  0
  6  5  2  0  0  0  0
  6 10  1  0  0  0  0
  7  6  1  0  0  0  0
  8  7  1  0  0  0  0
  8  4  2  0  0  0  0
 11  7  1  0  0  0  0
 11 12  1  0  0  0  0
 12 17  1  0  0  0  0
 13 12  2  0  0  0  0
 13 18  1  0  0  0  0
 14 13  1  0  0  0  0
 15 16  1  0  0  0  0
 15 14  2  0  0  0  0
 16 11  2  0  0  0  0
 19 14  1  0  0  0  0
 20 15  1  0  0  0  0
 21 16  1  0  0  0  0
 22 24  1  0  0  0  0
 22  1  1  0  0  0  0
 23 22  1  0  0  0  0
 25 22  1  0  0  0  0
 26 25  1  0  0  0  0
 26 31  1  0  0  0  0
 27 26  2  0  0  0  0
 28 29  2  0  0  0  0
 28 27  1  0  0  0  0
 29 30  1  0  0  0  0
 30 25  2  0  0  0  0
 32 27  1  0  0  0  0
 33 40  1  1  0  0  0
 33 34  1  0  0  0  0
 34 29  1  1  0  0  0
 35 34  1  0  0  0  0
 35 36  1  0  0  0  0
 37 35  1  0  0  0  0
 38 39  1  0  0  0  0
 38 37  1  0  0  0  0
 38 33  1  0  0  0  0
 41 40  1  0  0  0  0
M  END
>  <minimizedAffinity>
-5.49208975

>  <minimizedRMSD>
0.40713352

$$$$
