
 OpenBabel03272503383D

 19 20  0  0  1  0  0  0  0  0999 V2000
   38.2690   26.7460   35.5370 C   0  0  0  0  0  0  0  0  0  0  0  0
   38.5140   25.5870   36.3030 C   0  0  0  0  0  0  0  0  0  0  0  0
   38.3520   24.3440   35.7070 C   0  0  0  0  0  0  0  0  0  0  0  0
   37.9590   24.3150   34.3910 N   0  0  0  0  0  0  0  0  0  0  0  0
   37.7270   25.4360   33.6720 C   0  0  0  0  0  0  0  0  0  0  0  0
   37.8860   26.6280   34.2550 N   0  0  0  0  0  0  0  0  0  0  0  0
   38.8250   25.5860   37.3400 H   0  0  0  0  0  0  0  0  0  0  0  0
   37.4200   25.3880   32.6410 H   0  0  0  0  0  0  0  0  0  0  0  0
   39.1400   23.2730   37.8020 C   0  0  2  0  0  3  0  0  0  0  0  0
   38.5860   23.0740   36.4290 C   0  0  2  0  0  3  0  0  0  0  0  0
   39.5630   22.1810   35.6860 C   0  0  0  0  0  3  0  0  0  0  0  0
   39.0530   21.3490   35.1400 H   0  0  0  0  0  0  0  0  0  0  0  0
   40.3380   21.5990   36.6980 O   0  0  0  0  0  0  0  0  0  0  0  0
   40.5130   22.6070   37.6670 C   0  0  0  0  0  3  0  0  0  0  0  0
   40.7870   22.1020   38.6130 H   0  0  0  0  0  0  0  0  0  0  0  0
   38.4080   22.6100   38.7880 O   0  0  0  0  0  0  0  0  0  0  0  0
   38.3310   21.6530   38.5540 H   0  0  0  0  0  0  0  0  0  0  0  0
   38.4740   27.8950   36.2730 O   0  0  0  0  0  0  0  0  0  0  0  0
   39.3510   28.2510   36.5960 H   0  0  0  0  0  0  0  0  0  0  0  0
  1 18  1  0  0  0  0
  1  2  1  0  0  0  0
  2  7  1  0  0  0  0
  3  2  2  0  0  0  0
  4  3  1  0  0  0  0
  5  6  1  0  0  0  0
  5  4  2  0  0  0  0
  6  1  2  0  0  0  0
  8  5  1  0  0  0  0
  9 16  1  1  0  0  0
 10  3  1  6  0  0  0
 10  9  1  0  0  0  0
 11 10  1  0  0  0  0
 11 13  1  0  0  0  0
 12 11  1  0  0  0  0
 13 14  1  0  0  0  0
 14  9  1  0  0  0  0
 14 15  1  0  0  0  0
 17 16  1  0  0  0  0
 18 19  1  0  0  0  0
M  END
>  <minimizedAffinity>
-4.70463467

$$$$

 OpenBabel03272503383D

 19 20  0  0  1  0  0  0  0  0999 V2000
   36.1440   21.1130   35.9620 C   0  0  0  0  0  0  0  0  0  0  0  0
   35.5370   20.6040   34.7950 C   0  0  0  0  0  0  0  0  0  0  0  0
   36.0920   20.9130   33.5610 C   0  0  0  0  0  0  0  0  0  0  0  0
   37.2130   21.7050   33.5480 N   0  0  0  0  0  0  0  0  0  0  0  0
   37.7820   22.1860   34.6770 C   0  0  0  0  0  0  0  0  0  0  0  0
   37.2400   21.8830   35.8600 N   0  0  0  0  0  0  0  0  0  0  0  0
   34.6530   19.9770   34.7820 H   0  0  0  0  0  0  0  0  0  0  0  0
   38.6620   22.8060   34.6410 H   0  0  0  0  0  0  0  0  0  0  0  0
   35.5920   18.9380   32.1430 C   0  0  2  0  0  3  0  0  0  0  0  0
   35.5260   20.4240   32.2840 C   0  0  2  0  0  3  0  0  0  0  0  0
   36.2540   21.0120   31.0890 C   0  0  0  0  0  3  0  0  0  0  0  0
   35.6810   21.8390   30.6020 H   0  0  0  0  0  0  0  0  0  0  0  0
   36.3210   19.9550   30.1710 O   0  0  0  0  0  0  0  0  0  0  0  0
   36.5330   18.7960   30.9430 C   0  0  0  0  0  3  0  0  0  0  0  0
   36.2290   17.9340   30.3200 H   0  0  0  0  0  0  0  0  0  0  0  0
   34.3610   18.3650   31.8260 O   0  0  0  0  0  0  0  0  0  0  0  0
   33.9930   18.7980   31.0180 H   0  0  0  0  0  0  0  0  0  0  0  0
   35.4730   20.7160   37.1000 O   0  0  0  0  0  0  0  0  0  0  0  0
   35.4340   19.7920   37.4820 H   0  0  0  0  0  0  0  0  0  0  0  0
  1 18  1  0  0  0  0
  2  1  2  0  0  0  0
  3  2  1  0  0  0  0
  4  3  2  0  0  0  0
  4  5  1  0  0  0  0
  5  6  2  0  0  0  0
  6  1  1  0  0  0  0
  7  2  1  0  0  0  0
  8  5  1  0  0  0  0
  9 16  1  6  0  0  0
  9 10  1  0  0  0  0
 10  3  1  1  0  0  0
 11 10  1  0  0  0  0
 12 11  1  0  0  0  0
 13 14  1  0  0  0  0
 13 11  1  0  0  0  0
 14  9  1  0  0  0  0
 15 14  1  0  0  0  0
 17 16  1  0  0  0  0
 18 19  1  0  0  0  0
M  END
>  <minimizedAffinity>
-4.55022097

$$$$

 OpenBabel03272503383D

 19 20  0  0  1  0  0  0  0  0999 V2000
   35.5420   20.9810   36.2200 C   0  0  0  0  0  0  0  0  0  0  0  0
   36.6320   21.7310   36.7090 C   0  0  0  0  0  0  0  0  0  0  0  0
   37.6120   22.1470   35.8180 C   0  0  0  0  0  0  0  0  0  0  0  0
   37.4600   21.8000   34.4980 N   0  0  0  0  0  0  0  0  0  0  0  0
   36.4090   21.0790   34.0460 C   0  0  0  0  0  0  0  0  0  0  0  0
   35.4710   20.6830   34.9120 N   0  0  0  0  0  0  0  0  0  0  0  0
   36.7710   22.0160   37.7440 H   0  0  0  0  0  0  0  0  0  0  0  0
   36.3120   20.8200   33.0060 H   0  0  0  0  0  0  0  0  0  0  0  0
   40.0880   22.2910   35.8810 C   0  0  2  0  0  3  0  0  0  0  0  0
   38.7900   22.9380   36.2370 C   0  0  2  0  0  3  0  0  0  0  0  0
   38.8070   23.1620   37.7380 C   0  0  0  0  0  3  0  0  0  0  0  0
   38.4750   24.1910   38.0210 H   0  0  0  0  0  0  0  0  0  0  0  0
   40.1590   23.0490   38.0890 O   0  0  0  0  0  0  0  0  0  0  0  0
   40.6790   22.0280   37.2700 C   0  0  0  0  0  3  0  0  0  0  0  0
   41.7770   22.1590   37.2490 H   0  0  0  0  0  0  0  0  0  0  0  0
   40.9450   23.1370   35.1760 O   0  0  0  0  0  0  0  0  0  0  0  0
   41.0740   23.9740   35.6850 H   0  0  0  0  0  0  0  0  0  0  0  0
   34.6610   20.6460   37.2280 O   0  0  0  0  0  0  0  0  0  0  0  0
   34.0560   21.2670   37.7260 H   0  0  0  0  0  0  0  0  0  0  0  0
  1  2  1  0  0  0  0
  1 18  1  0  0  0  0
  2  7  1  0  0  0  0
  3  2  2  0  0  0  0
  4  3  1  0  0  0  0
  5  4  2  0  0  0  0
  5  6  1  0  0  0  0
  6  1  2  0  0  0  0
  8  5  1  0  0  0  0
  9 16  1  6  0  0  0
  9 10  1  0  0  0  0
  9 14  1  0  0  0  0
 10  3  1  1  0  0  0
 10 11  1  0  0  0  0
 11 12  1  0  0  0  0
 11 13  1  0  0  0  0
 14 13  1  0  0  0  0
 15 14  1  0  0  0  0
 16 17  1  0  0  0  0
 18 19  1  0  0  0  0
M  END
>  <minimizedAffinity>
-4.404109

$$$$

 OpenBabel03272503383D

 19 20  0  0  1  0  0  0  0  0999 V2000
   39.6660   22.7640   37.7480 C   0  0  0  0  0  0  0  0  0  0  0  0
   39.7600   23.2760   36.4370 C   0  0  0  0  0  0  0  0  0  0  0  0
   38.9270   24.3240   36.0650 C   0  0  0  0  0  0  0  0  0  0  0  0
   38.0520   24.8060   37.0070 N   0  0  0  0  0  0  0  0  0  0  0  0
   37.9750   24.3020   38.2600 C   0  0  0  0  0  0  0  0  0  0  0  0
   38.7800   23.2940   38.6070 N   0  0  0  0  0  0  0  0  0  0  0  0
   40.4420   22.9120   35.6780 H   0  0  0  0  0  0  0  0  0  0  0  0
   37.2810   24.6970   38.9820 H   0  0  0  0  0  0  0  0  0  0  0  0
   38.5560   26.3660   34.7050 C   0  0  2  0  0  3  0  0  0  0  0  0
   38.9540   24.9260   34.7140 C   0  0  2  0  0  3  0  0  0  0  0  0
   38.0170   24.2040   33.7630 C   0  0  0  0  0  3  0  0  0  0  0  0
   38.5590   23.5180   33.0670 H   0  0  0  0  0  0  0  0  0  0  0  0
   37.4580   25.2280   32.9860 O   0  0  0  0  0  0  0  0  0  0  0  0
   37.2760   26.3140   33.8650 C   0  0  0  0  0  3  0  0  0  0  0  0
   37.1910   27.2230   33.2410 H   0  0  0  0  0  0  0  0  0  0  0  0
   39.4860   27.1860   34.0660 O   0  0  0  0  0  0  0  0  0  0  0  0
   39.6580   26.8420   33.1550 H   0  0  0  0  0  0  0  0  0  0  0  0
   40.5570   21.7310   37.9550 O   0  0  0  0  0  0  0  0  0  0  0  0
   41.5520   21.8010   38.0160 H   0  0  0  0  0  0  0  0  0  0  0  0
  1 18  1  0  0  0  0
  1  6  1  0  0  0  0
  2  1  2  0  0  0  0
  3  2  1  0  0  0  0
  3  4  2  0  0  0  0
  4  5  1  0  0  0  0
  5  6  2  0  0  0  0
  5  8  1  0  0  0  0
  7  2  1  0  0  0  0
  9 16  1  6  0  0  0
  9 10  1  0  0  0  0
 10  3  1  1  0  0  0
 11 10  1  0  0  0  0
 12 11  1  0  0  0  0
 13 11  1  0  0  0  0
 13 14  1  0  0  0  0
 14  9  1  0  0  0  0
 15 14  1  0  0  0  0
 17 16  1  0  0  0  0
 18 19  1  0  0  0  0
M  END
>  <minimizedAffinity>
-4.36036777

$$$$

 OpenBabel03272503383D

 19 20  0  0  1  0  0  0  0  0999 V2000
   38.9250   22.7230   36.7680 C   0  0  0  0  0  0  0  0  0  0  0  0
   39.0480   24.1000   36.4870 C   0  0  0  0  0  0  0  0  0  0  0  0
   38.6940   24.5610   35.2260 C   0  0  0  0  0  0  0  0  0  0  0  0
   38.2390   23.6390   34.3160 N   0  0  0  0  0  0  0  0  0  0  0  0
   38.1280   22.3220   34.6020 C   0  0  0  0  0  0  0  0  0  0  0  0
   38.4720   21.8890   35.8180 N   0  0  0  0  0  0  0  0  0  0  0  0
   39.4030   24.8450   37.1890 H   0  0  0  0  0  0  0  0  0  0  0  0
   37.7690   21.6180   33.8710 H   0  0  0  0  0  0  0  0  0  0  0  0
   37.9310   26.8790   35.6760 C   0  0  2  0  0  3  0  0  0  0  0  0
   38.7880   25.9860   34.8400 C   0  0  2  0  0  3  0  0  0  0  0  0
   38.3720   26.2030   33.3960 C   0  0  0  0  0  3  0  0  0  0  0  0
   39.2470   26.3400   32.7140 H   0  0  0  0  0  0  0  0  0  0  0  0
   37.6670   27.4130   33.4180 O   0  0  0  0  0  0  0  0  0  0  0  0
   36.9470   27.4110   34.6290 C   0  0  0  0  0  3  0  0  0  0  0  0
   36.6860   28.4630   34.8510 H   0  0  0  0  0  0  0  0  0  0  0  0
   38.6330   27.9510   36.2260 O   0  0  0  0  0  0  0  0  0  0  0  0
   39.0950   28.4480   35.5070 H   0  0  0  0  0  0  0  0  0  0  0  0
   39.3150   22.4300   38.0580 O   0  0  0  0  0  0  0  0  0  0  0  0
   38.8380   22.6800   38.9000 H   0  0  0  0  0  0  0  0  0  0  0  0
  1 18  1  0  0  0  0
  2  1  1  0  0  0  0
  2  7  1  0  0  0  0
  3  2  2  0  0  0  0
  4  5  2  0  0  0  0
  4  3  1  0  0  0  0
  5  6  1  0  0  0  0
  6  1  2  0  0  0  0
  8  5  1  0  0  0  0
  9 16  1  6  0  0  0
 10  3  1  1  0  0  0
 10  9  1  0  0  0  0
 11 13  1  0  0  0  0
 11 10  1  0  0  0  0
 12 11  1  0  0  0  0
 13 14  1  0  0  0  0
 14 15  1  0  0  0  0
 14  9  1  0  0  0  0
 17 16  1  0  0  0  0
 18 19  1  0  0  0  0
M  END
>  <minimizedAffinity>
-4.27195835

$$$$

 OpenBabel03272503383D

 19 20  0  0  1  0  0  0  0  0999 V2000
   39.1400   23.0130   37.9560 C   0  0  0  0  0  0  0  0  0  0  0  0
   38.3270   23.9900   37.3460 C   0  0  0  0  0  0  0  0  0  0  0  0
   38.7210   24.5230   36.1250 C   0  0  0  0  0  0  0  0  0  0  0  0
   39.8930   24.0600   35.5780 N   0  0  0  0  0  0  0  0  0  0  0  0
   40.6610   23.1230   36.1780 C   0  0  0  0  0  0  0  0  0  0  0  0
   40.2730   22.6170   37.3530 N   0  0  0  0  0  0  0  0  0  0  0  0
   37.4000   24.3690   37.7580 H   0  0  0  0  0  0  0  0  0  0  0  0
   41.5760   22.7760   35.7290 H   0  0  0  0  0  0  0  0  0  0  0  0
   38.2140   25.5900   33.9430 C   0  0  2  0  0  3  0  0  0  0  0  0
   37.9340   25.5510   35.4100 C   0  0  2  0  0  3  0  0  0  0  0  0
   38.2130   26.9420   35.9480 C   0  0  0  0  0  3  0  0  0  0  0  0
   37.3990   27.3130   36.6190 H   0  0  0  0  0  0  0  0  0  0  0  0
   38.2180   27.7590   34.8090 O   0  0  0  0  0  0  0  0  0  0  0  0
   38.8190   26.9890   33.7940 C   0  0  0  0  0  3  0  0  0  0  0  0
   38.5160   27.4350   32.8280 H   0  0  0  0  0  0  0  0  0  0  0  0
   37.0600   25.5080   33.1640 O   0  0  0  0  0  0  0  0  0  0  0  0
   36.4260   26.2130   33.4390 H   0  0  0  0  0  0  0  0  0  0  0  0
   38.6110   22.5880   39.1580 O   0  0  0  0  0  0  0  0  0  0  0  0
   37.7880   22.0360   39.2890 H   0  0  0  0  0  0  0  0  0  0  0  0
  1 18  1  0  0  0  0
  2  7  1  0  0  0  0
  2  1  2  0  0  0  0
  3  2  1  0  0  0  0
  4  3  2  0  0  0  0
  4  5  1  0  0  0  0
  5  6  2  0  0  0  0
  6  1  1  0  0  0  0
  8  5  1  0  0  0  0
  9 16  1  6  0  0  0
  9 10  1  0  0  0  0
 10 11  1  0  0  0  0
 10  3  1  1  0  0  0
 11 12  1  0  0  0  0
 13 11  1  0  0  0  0
 14  9  1  0  0  0  0
 14 13  1  0  0  0  0
 15 14  1  0  0  0  0
 16 17  1  0  0  0  0
 18 19  1  0  0  0  0
M  END
>  <minimizedAffinity>
-4.16894293

$$$$

 OpenBabel03272503383D

 19 20  0  0  1  0  0  0  0  0999 V2000
   38.2020   26.9600   35.3010 C   0  0  0  0  0  0  0  0  0  0  0  0
   37.4110   27.6430   34.3540 C   0  0  0  0  0  0  0  0  0  0  0  0
   36.9340   26.9450   33.2530 C   0  0  0  0  0  0  0  0  0  0  0  0
   37.2640   25.6160   33.1490 N   0  0  0  0  0  0  0  0  0  0  0  0
   38.0250   24.9780   34.0660 C   0  0  0  0  0  0  0  0  0  0  0  0
   38.4800   25.6580   35.1230 N   0  0  0  0  0  0  0  0  0  0  0  0
   37.1370   28.6890   34.4160 H   0  0  0  0  0  0  0  0  0  0  0  0
   38.2710   23.9350   33.9630 H   0  0  0  0  0  0  0  0  0  0  0  0
   36.8760   28.0020   31.0080 C   0  0  2  0  0  3  0  0  0  0  0  0
   36.0960   27.5750   32.2080 C   0  0  2  0  0  3  0  0  0  0  0  0
   35.3850   28.8100   32.7330 C   0  0  0  0  0  3  0  0  0  0  0  0
   34.3080   28.6180   32.9620 H   0  0  0  0  0  0  0  0  0  0  0  0
   35.4280   29.7140   31.6630 O   0  0  0  0  0  0  0  0  0  0  0  0
   36.6840   29.5210   31.0550 C   0  0  0  0  0  3  0  0  0  0  0  0
   36.6120   29.9290   30.0290 H   0  0  0  0  0  0  0  0  0  0  0  0
   36.3500   27.5140   29.8130 O   0  0  0  0  0  0  0  0  0  0  0  0
   35.3970   27.7660   29.7440 H   0  0  0  0  0  0  0  0  0  0  0  0
   38.5950   27.7910   36.3310 O   0  0  0  0  0  0  0  0  0  0  0  0
   38.0110   28.1780   37.0450 H   0  0  0  0  0  0  0  0  0  0  0  0
  1 18  1  0  0  0  0
  2  7  1  0  0  0  0
  2  1  2  0  0  0  0
  3  2  1  0  0  0  0
  4  3  2  0  0  0  0
  4  5  1  0  0  0  0
  5  6  2  0  0  0  0
  6  1  1  0  0  0  0
  8  5  1  0  0  0  0
  9 16  1  6  0  0  0
  9 14  1  0  0  0  0
  9 10  1  0  0  0  0
 10 11  1  0  0  0  0
 10  3  1  1  0  0  0
 11 12  1  0  0  0  0
 13 11  1  0  0  0  0
 14 13  1  0  0  0  0
 15 14  1  0  0  0  0
 17 16  1  0  0  0  0
 18 19  1  0  0  0  0
M  END
>  <minimizedAffinity>
-4.1616044

$$$$

 OpenBabel03272503383D

 19 20  0  0  1  0  0  0  0  0999 V2000
   36.1780   25.8770   31.4050 C   0  0  0  0  0  0  0  0  0  0  0  0
   36.9120   25.5160   32.5540 C   0  0  0  0  0  0  0  0  0  0  0  0
   37.1100   26.4650   33.5480 C   0  0  0  0  0  0  0  0  0  0  0  0
   36.5730   27.7140   33.3520 N   0  0  0  0  0  0  0  0  0  0  0  0
   35.8730   28.0430   32.2430 C   0  0  0  0  0  0  0  0  0  0  0  0
   35.6880   27.1230   31.2920 N   0  0  0  0  0  0  0  0  0  0  0  0
   37.3430   24.5390   32.7300 H   0  0  0  0  0  0  0  0  0  0  0  0
   35.4610   29.0290   32.1110 H   0  0  0  0  0  0  0  0  0  0  0  0
   38.8580   27.2420   35.1300 C   0  0  2  0  0  3  0  0  0  0  0  0
   37.8650   26.1790   34.7880 C   0  0  2  0  0  3  0  0  0  0  0  0
   38.6340   24.8750   34.6850 C   0  0  0  0  0  3  0  0  0  0  0  0
   38.1340   24.0390   35.2330 H   0  0  0  0  0  0  0  0  0  0  0  0
   39.8460   25.1360   35.3390 O   0  0  0  0  0  0  0  0  0  0  0  0
   40.1740   26.4660   35.0120 C   0  0  0  0  0  3  0  0  0  0  0  0
   40.8930   26.8180   35.7750 H   0  0  0  0  0  0  0  0  0  0  0  0
   38.7240   27.7150   36.4350 O   0  0  0  0  0  0  0  0  0  0  0  0
   38.7610   26.9560   37.0660 H   0  0  0  0  0  0  0  0  0  0  0  0
   36.0720   24.8260   30.5180 O   0  0  0  0  0  0  0  0  0  0  0  0
   35.5370   23.9900   30.6400 H   0  0  0  0  0  0  0  0  0  0  0  0
  1  2  1  0  0  0  0
  2  7  1  0  0  0  0
  2  3  2  0  0  0  0
  4  3  1  0  0  0  0
  5  4  2  0  0  0  0
  6  1  2  0  0  0  0
  6  5  1  0  0  0  0
  8  5  1  0  0  0  0
  9 16  1  1  0  0  0
 10  3  1  6  0  0  0
 10  9  1  0  0  0  0
 11 10  1  0  0  0  0
 11 12  1  0  0  0  0
 11 13  1  0  0  0  0
 14  9  1  0  0  0  0
 14 13  1  0  0  0  0
 14 15  1  0  0  0  0
 16 17  1  0  0  0  0
 18 19  1  0  0  0  0
 18  1  1  0  0  0  0
M  END
>  <minimizedAffinity>
-4.14454651

$$$$

 OpenBabel03272503383D

 19 20  0  0  1  0  0  0  0  0999 V2000
   39.6880   26.9540   34.6720 C   0  0  0  0  0  0  0  0  0  0  0  0
   39.3490   26.5330   33.3700 C   0  0  0  0  0  0  0  0  0  0  0  0
   38.0220   26.6010   32.9670 C   0  0  0  0  0  0  0  0  0  0  0  0
   37.1070   27.0810   33.8720 N   0  0  0  0  0  0  0  0  0  0  0  0
   37.4490   27.4810   35.1170 C   0  0  0  0  0  0  0  0  0  0  0  0
   38.7300   27.4100   35.4950 N   0  0  0  0  0  0  0  0  0  0  0  0
   40.0530   26.1510   32.6400 H   0  0  0  0  0  0  0  0  0  0  0  0
   36.7140   27.8540   35.8090 H   0  0  0  0  0  0  0  0  0  0  0  0
   36.2570   26.7750   31.2310 C   0  0  2  0  0  3  0  0  0  0  0  0
   37.5720   26.1820   31.6220 C   0  0  2  0  0  3  0  0  0  0  0  0
   37.4200   24.6750   31.5280 C   0  0  0  0  0  3  0  0  0  0  0  0
   38.2720   24.1920   30.9900 H   0  0  0  0  0  0  0  0  0  0  0  0
   36.2750   24.4910   30.7410 O   0  0  0  0  0  0  0  0  0  0  0  0
   35.3880   25.5190   31.1180 C   0  0  0  0  0  3  0  0  0  0  0  0
   34.6570   25.6330   30.2960 H   0  0  0  0  0  0  0  0  0  0  0  0
   36.2930   27.4160   29.9930 O   0  0  0  0  0  0  0  0  0  0  0  0
   36.6360   26.7920   29.3080 H   0  0  0  0  0  0  0  0  0  0  0  0
   41.0400   26.8230   34.9140 O   0  0  0  0  0  0  0  0  0  0  0  0
   41.7770   27.3640   34.5090 H   0  0  0  0  0  0  0  0  0  0  0  0
  1 18  1  0  0  0  0
  1  6  1  0  0  0  0
  2  1  2  0  0  0  0
  3  2  1  0  0  0  0
  3  4  2  0  0  0  0
  4  5  1  0  0  0  0
  5  6  2  0  0  0  0
  5  8  1  0  0  0  0
  7  2  1  0  0  0  0
  9 16  1  6  0  0  0
  9 10  1  0  0  0  0
 10  3  1  1  0  0  0
 11 10  1  0  0  0  0
 12 11  1  0  0  0  0
 13 14  1  0  0  0  0
 13 11  1  0  0  0  0
 14  9  1  0  0  0  0
 15 14  1  0  0  0  0
 17 16  1  0  0  0  0
 19 18  1  0  0  0  0
M  END
>  <minimizedAffinity>
-4.10862303

$$$$
