
 OpenBabel03262520373D

 18 19  0  0  1  0  0  0  0  0999 V2000
   37.3380   30.5520   48.8180 C   0  0  0  0  0  0  0  0  0  0  0  0
   37.8420   29.9740   50.0050 C   0  0  0  0  0  0  0  0  0  0  0  0
   36.9110   29.5560   50.9750 C   0  0  0  0  0  0  0  0  0  0  0  0
   35.5900   29.7360   50.7070 N   0  0  0  0  0  0  0  0  0  0  0  0
   35.1400   30.2980   49.5520 C   0  0  0  0  0  0  0  0  0  0  0  0
   36.0280   30.7010   48.6150 N   0  0  0  0  0  0  0  0  0  0  0  0
   38.9070   29.8600   50.1540 H   0  0  0  0  0  0  0  0  0  0  0  0
   37.2690   29.1150   51.8820 H   0  0  0  0  0  0  0  0  0  0  0  0
   34.0950   30.4290   49.3640 H   0  0  0  0  0  0  0  0  0  0  0  0
   38.9370   32.3260   48.0960 C   0  0  1  0  0  0  0  0  0  0  0  0
   38.2730   30.9990   47.7860 C   0  0  2  0  0  0  0  0  0  0  0  0
   37.5640   31.4490   46.5020 C   0  0  0  0  0  0  0  0  0  0  0  0
   37.1340   30.6100   45.9520 H   0  0  0  0  0  0  0  0  0  0  0  0
   38.5320   32.1550   45.8010 O   0  0  0  0  0  0  0  0  0  0  0  0
   39.4690   32.6320   46.6880 C   0  0  0  0  0  0  0  0  0  0  0  0
   40.4170   32.0250   46.6310 H   0  0  0  0  0  0  0  0  0  0  0  0
   38.0170   33.3150   48.3660 O   0  0  0  0  0  0  0  0  0  0  0  0
   38.0220   33.6610   49.2880 H   0  0  0  0  0  0  0  0  0  0  0  0
  1  2  1  0  0  0  0
  2  7  1  0  0  0  0
  2  3  2  0  0  0  0
  3  8  1  0  0  0  0
  4  3  1  0  0  0  0
  5  4  2  0  0  0  0
  6  1  2  0  0  0  0
  6  5  1  0  0  0  0
  9  5  1  0  0  0  0
 10 17  1  6  0  0  0
 11 10  1  0  0  0  0
 11  1  1  1  0  0  0
 12 11  1  0  0  0  0
 13 12  1  0  0  0  0
 14 12  1  0  0  0  0
 14 15  1  0  0  0  0
 15 10  1  0  0  0  0
 16 15  1  0  0  0  0
 17 18  1  0  0  0  0
M  END
>  <minimizedAffinity>
-4.44196129

>  <minimizedRMSD>
5.4484024

$$$$
