
 OpenBabel03272507373D

 19 20  0  0  1  0  0  0  0  0999 V2000
   38.9320   23.0650   37.8920 C   0  0  0  0  0  0  0  0  0  0  0  0
   39.8380   22.5850   36.9410 C   0  0  0  0  0  0  0  0  0  0  0  0
   39.3240   22.1600   35.7240 C   0  0  0  0  0  0  0  0  0  0  0  0
   37.9840   22.2260   35.5120 N   0  0  0  0  0  0  0  0  0  0  0  0
   37.1210   22.6930   36.4430 C   0  0  0  0  0  0  0  0  0  0  0  0
   37.5980   23.1120   37.6340 N   0  0  0  0  0  0  0  0  0  0  0  0
   39.9420   21.7770   34.9350 H   0  0  0  0  0  0  0  0  0  0  0  0
   36.0630   22.7200   36.2110 H   0  0  0  0  0  0  0  0  0  0  0  0
   41.8960   21.1530   37.0670 C   0  0  1  0  0  3  0  0  0  0  0  0
   41.2890   22.5180   37.1840 C   0  0  1  0  0  3  0  0  0  0  0  0
   42.1100   23.3250   36.2440 C   0  0  0  0  0  3  0  0  0  0  0  0
   42.0280   23.0340   35.1810 H   0  0  0  0  0  0  0  0  0  0  0  0
   43.4030   22.8900   36.6180 O   0  0  0  0  0  0  0  0  0  0  0  0
   43.2640   21.4900   36.5210 C   0  0  0  0  0  3  0  0  0  0  0  0
   44.0530   20.9380   37.0380 H   0  0  0  0  0  0  0  0  0  0  0  0
   41.9110   20.5300   38.3000 O   0  0  0  0  0  0  0  0  0  0  0  0
   42.3240   19.6520   38.3050 H   0  0  0  0  0  0  0  0  0  0  0  0
   39.5200   23.4670   39.0730 O   0  0  0  0  0  0  0  0  0  0  0  0
   39.9120   24.3790   39.2190 H   0  0  0  0  0  0  0  0  0  0  0  0
  1 18  1  0  0  0  0
  2  1  2  0  0  0  0
  3  2  1  0  0  0  0
  4  3  2  0  0  0  0
  4  5  1  0  0  0  0
  5  6  2  0  0  0  0
  6  1  1  0  0  0  0
  7  3  1  0  0  0  0
  8  5  1  0  0  0  0
  9 10  1  0  0  0  0
  9 16  1  1  0  0  0
 10  2  1  6  0  0  0
 11 13  1  0  0  0  0
 11 10  1  0  0  0  0
 12 11  1  0  0  0  0
 14 13  1  0  0  0  0
 14 15  1  0  0  0  0
 14  9  1  0  0  0  0
 16 17  1  0  0  0  0
 18 19  1  0  0  0  0
M  END
>  <minimizedAffinity>
-4.32901239

$$$$

 OpenBabel03272507373D

 19 20  0  0  1  0  0  0  0  0999 V2000
   41.8900   22.0520   36.9800 C   0  0  0  0  0  0  0  0  0  0  0  0
   40.8240   22.6980   36.3470 C   0  0  0  0  0  0  0  0  0  0  0  0
   41.1310   23.6420   35.3770 C   0  0  0  0  0  0  0  0  0  0  0  0
   42.4340   23.8940   35.0890 N   0  0  0  0  0  0  0  0  0  0  0  0
   43.4550   23.2610   35.7110 C   0  0  0  0  0  0  0  0  0  0  0  0
   43.1790   22.3390   36.6570 N   0  0  0  0  0  0  0  0  0  0  0  0
   40.3800   24.1880   34.8390 H   0  0  0  0  0  0  0  0  0  0  0  0
   44.4720   23.5080   35.4340 H   0  0  0  0  0  0  0  0  0  0  0  0
   38.8050   23.3030   37.7110 C   0  0  1  0  0  3  0  0  0  0  0  0
   39.4150   22.4160   36.6690 C   0  0  1  0  0  3  0  0  0  0  0  0
   38.4780   22.5620   35.5240 C   0  0  0  0  0  3  0  0  0  0  0  0
   38.4290   23.5750   35.0850 H   0  0  0  0  0  0  0  0  0  0  0  0
   37.2440   22.4230   36.2020 O   0  0  0  0  0  0  0  0  0  0  0  0
   37.3780   23.3870   37.2220 C   0  0  0  0  0  3  0  0  0  0  0  0
   36.6620   23.2580   38.0380 H   0  0  0  0  0  0  0  0  0  0  0  0
   38.9470   22.7360   38.9630 O   0  0  0  0  0  0  0  0  0  0  0  0
   38.5430   23.2430   39.6850 H   0  0  0  0  0  0  0  0  0  0  0  0
   41.5020   21.1300   37.9290 O   0  0  0  0  0  0  0  0  0  0  0  0
   41.2590   20.1800   37.7180 H   0  0  0  0  0  0  0  0  0  0  0  0
  1 18  1  0  0  0  0
  2  1  2  0  0  0  0
  3  2  1  0  0  0  0
  4  3  2  0  0  0  0
  4  5  1  0  0  0  0
  5  6  2  0  0  0  0
  6  1  1  0  0  0  0
  7  3  1  0  0  0  0
  8  5  1  0  0  0  0
  9 16  1  1  0  0  0
 10  2  1  6  0  0  0
 10  9  1  0  0  0  0
 11 13  1  0  0  0  0
 11 10  1  0  0  0  0
 12 11  1  0  0  0  0
 13 14  1  0  0  0  0
 14  9  1  0  0  0  0
 14 15  1  0  0  0  0
 16 17  1  0  0  0  0
 19 18  1  0  0  0  0
M  END
>  <minimizedAffinity>
-4.23976326

$$$$

 OpenBabel03272507373D

 19 20  0  0  1  0  0  0  0  0999 V2000
   38.8200   23.9750   37.5060 C   0  0  0  0  0  0  0  0  0  0  0  0
   38.9710   24.3210   36.1600 C   0  0  0  0  0  0  0  0  0  0  0  0
   39.8910   23.5990   35.4120 C   0  0  0  0  0  0  0  0  0  0  0  0
   40.5950   22.6050   36.0110 N   0  0  0  0  0  0  0  0  0  0  0  0
   40.4380   22.2830   37.3160 C   0  0  0  0  0  0  0  0  0  0  0  0
   39.5480   22.9710   38.0620 N   0  0  0  0  0  0  0  0  0  0  0  0
   40.0740   23.7930   34.3730 H   0  0  0  0  0  0  0  0  0  0  0  0
   41.0310   21.4780   37.7330 H   0  0  0  0  0  0  0  0  0  0  0  0
   38.9090   26.7190   35.4190 C   0  0  1  0  0  3  0  0  0  0  0  0
   38.2010   25.4030   35.5230 C   0  0  1  0  0  3  0  0  0  0  0  0
   37.8040   25.1310   34.1160 C   0  0  0  0  0  3  0  0  0  0  0  0
   38.6430   24.9830   33.4120 H   0  0  0  0  0  0  0  0  0  0  0  0
   37.2830   26.3990   33.7630 O   0  0  0  0  0  0  0  0  0  0  0  0
   38.3520   27.2470   34.1180 C   0  0  0  0  0  3  0  0  0  0  0  0
   38.0650   28.2980   34.1980 H   0  0  0  0  0  0  0  0  0  0  0  0
   38.6250   27.5020   36.5220 O   0  0  0  0  0  0  0  0  0  0  0  0
   39.0240   28.3850   36.5040 H   0  0  0  0  0  0  0  0  0  0  0  0
   37.8880   24.7380   38.1790 O   0  0  0  0  0  0  0  0  0  0  0  0
   36.9050   24.5420   38.1830 H   0  0  0  0  0  0  0  0  0  0  0  0
  1  6  1  0  0  0  0
  1 18  1  0  0  0  0
  2  1  2  0  0  0  0
  3  4  2  0  0  0  0
  3  2  1  0  0  0  0
  4  5  1  0  0  0  0
  5  8  1  0  0  0  0
  5  6  2  0  0  0  0
  7  3  1  0  0  0  0
  9 10  1  0  0  0  0
  9 16  1  1  0  0  0
 10  2  1  6  0  0  0
 11 10  1  0  0  0  0
 12 11  1  0  0  0  0
 13 11  1  0  0  0  0
 13 14  1  0  0  0  0
 14 15  1  0  0  0  0
 14  9  1  0  0  0  0
 17 16  1  0  0  0  0
 18 19  1  0  0  0  0
M  END
>  <minimizedAffinity>
-4.03026676

$$$$

 OpenBabel03272507373D

 19 20  0  0  1  0  0  0  0  0999 V2000
   37.9330   27.2740   35.3540 C   0  0  0  0  0  0  0  0  0  0  0  0
   38.1720   25.9470   34.9850 C   0  0  0  0  0  0  0  0  0  0  0  0
   37.6220   25.5060   33.7890 C   0  0  0  0  0  0  0  0  0  0  0  0
   36.8880   26.3690   33.0410 N   0  0  0  0  0  0  0  0  0  0  0  0
   36.6660   27.6510   33.4120 C   0  0  0  0  0  0  0  0  0  0  0  0
   37.1910   28.1010   34.5710 N   0  0  0  0  0  0  0  0  0  0  0  0
   37.7520   24.5060   33.4250 H   0  0  0  0  0  0  0  0  0  0  0  0
   36.0710   28.2880   32.7690 H   0  0  0  0  0  0  0  0  0  0  0  0
   38.1840   24.1550   36.7440 C   0  0  1  0  0  3  0  0  0  0  0  0
   38.9690   25.0210   35.8060 C   0  0  1  0  0  3  0  0  0  0  0  0
   39.7600   24.0310   35.0280 C   0  0  0  0  0  3  0  0  0  0  0  0
   39.1650   23.3460   34.3990 H   0  0  0  0  0  0  0  0  0  0  0  0
   40.2240   23.2100   36.0840 O   0  0  0  0  0  0  0  0  0  0  0  0
   39.0160   22.8950   36.7410 C   0  0  0  0  0  3  0  0  0  0  0  0
   39.1610   22.5030   37.7510 H   0  0  0  0  0  0  0  0  0  0  0  0
   38.0750   24.7650   37.9780 O   0  0  0  0  0  0  0  0  0  0  0  0
   37.6060   24.2420   38.6480 H   0  0  0  0  0  0  0  0  0  0  0  0
   38.5120   27.6340   36.5530 O   0  0  0  0  0  0  0  0  0  0  0  0
   39.4600   27.9460   36.6440 H   0  0  0  0  0  0  0  0  0  0  0  0
  1 18  1  0  0  0  0
  2  1  1  0  0  0  0
  3  2  2  0  0  0  0
  4  5  2  0  0  0  0
  4  3  1  0  0  0  0
  5  6  1  0  0  0  0
  6  1  2  0  0  0  0
  7  3  1  0  0  0  0
  8  5  1  0  0  0  0
  9 16  1  1  0  0  0
 10  2  1  6  0  0  0
 10  9  1  0  0  0  0
 11 10  1  0  0  0  0
 11 13  1  0  0  0  0
 12 11  1  0  0  0  0
 13 14  1  0  0  0  0
 14  9  1  0  0  0  0
 14 15  1  0  0  0  0
 16 17  1  0  0  0  0
 18 19  1  0  0  0  0
M  END
>  <minimizedAffinity>
-3.95563197

$$$$

 OpenBabel03272507373D

 19 20  0  0  1  0  0  0  0  0999 V2000
   37.7690   27.8840   32.0520 C   0  0  0  0  0  0  0  0  0  0  0  0
   37.3860   27.5740   33.3600 C   0  0  0  0  0  0  0  0  0  0  0  0
   36.2390   28.1810   33.8540 C   0  0  0  0  0  0  0  0  0  0  0  0
   35.5500   29.0380   33.0570 N   0  0  0  0  0  0  0  0  0  0  0  0
   35.9340   29.3280   31.7930 C   0  0  0  0  0  0  0  0  0  0  0  0
   37.0460   28.7490   31.2930 N   0  0  0  0  0  0  0  0  0  0  0  0
   35.8690   28.0040   34.8440 H   0  0  0  0  0  0  0  0  0  0  0  0
   35.3390   30.0200   31.2090 H   0  0  0  0  0  0  0  0  0  0  0  0
   37.9420   26.8170   35.6890 C   0  0  1  0  0  3  0  0  0  0  0  0
   38.1430   26.6430   34.2140 C   0  0  1  0  0  3  0  0  0  0  0  0
   37.8170   25.2080   34.0040 C   0  0  0  0  0  3  0  0  0  0  0  0
   36.7680   24.9300   34.2130 H   0  0  0  0  0  0  0  0  0  0  0  0
   38.5420   24.6360   35.0770 O   0  0  0  0  0  0  0  0  0  0  0  0
   38.0620   25.3890   36.1680 C   0  0  0  0  0  3  0  0  0  0  0  0
   38.6910   25.3130   37.0590 H   0  0  0  0  0  0  0  0  0  0  0  0
   38.8940   27.6750   36.2040 O   0  0  0  0  0  0  0  0  0  0  0  0
   38.8440   27.8060   37.1630 H   0  0  0  0  0  0  0  0  0  0  0  0
   38.9160   27.2410   31.6380 O   0  0  0  0  0  0  0  0  0  0  0  0
   38.9300   26.3150   31.2530 H   0  0  0  0  0  0  0  0  0  0  0  0
  1  2  1  0  0  0  0
  2  3  2  0  0  0  0
  3  7  1  0  0  0  0
  4  3  1  0  0  0  0
  5  4  2  0  0  0  0
  6  5  1  0  0  0  0
  6  1  2  0  0  0  0
  8  5  1  0  0  0  0
  9 14  1  0  0  0  0
  9 16  1  1  0  0  0
 10  2  1  6  0  0  0
 10  9  1  0  0  0  0
 11 12  1  0  0  0  0
 11 10  1  0  0  0  0
 11 13  1  0  0  0  0
 13 14  1  0  0  0  0
 14 15  1  0  0  0  0
 16 17  1  0  0  0  0
 18  1  1  0  0  0  0
 19 18  1  0  0  0  0
M  END
>  <minimizedAffinity>
-3.70293236

$$$$

 OpenBabel03272507373D

 19 20  0  0  1  0  0  0  0  0999 V2000
   36.0590   26.5700   31.3260 C   0  0  0  0  0  0  0  0  0  0  0  0
   36.6750   25.4240   31.8380 C   0  0  0  0  0  0  0  0  0  0  0  0
   37.2390   25.5110   33.1030 C   0  0  0  0  0  0  0  0  0  0  0  0
   37.1710   26.6870   33.7790 N   0  0  0  0  0  0  0  0  0  0  0  0
   36.5720   27.7870   33.2690 C   0  0  0  0  0  0  0  0  0  0  0  0
   36.0160   27.7260   32.0410 N   0  0  0  0  0  0  0  0  0  0  0  0
   37.7320   24.6840   33.5770 H   0  0  0  0  0  0  0  0  0  0  0  0
   36.5510   28.6950   33.8600 H   0  0  0  0  0  0  0  0  0  0  0  0
   38.1190   23.7200   30.6920 C   0  0  1  0  0  3  0  0  0  0  0  0
   36.7420   24.1550   31.0950 C   0  0  1  0  0  3  0  0  0  0  0  0
   36.2290   22.9750   31.8400 C   0  0  0  0  0  3  0  0  0  0  0  0
   36.7700   22.7380   32.7730 H   0  0  0  0  0  0  0  0  0  0  0  0
   36.6130   21.9430   30.9510 O   0  0  0  0  0  0  0  0  0  0  0  0
   37.9860   22.2180   30.7850 C   0  0  0  0  0  3  0  0  0  0  0  0
   38.4280   21.7190   29.9180 H   0  0  0  0  0  0  0  0  0  0  0  0
   38.4180   24.1900   29.4280 O   0  0  0  0  0  0  0  0  0  0  0  0
   39.2840   23.9160   29.0890 H   0  0  0  0  0  0  0  0  0  0  0  0
   35.5240   26.4030   30.0660 O   0  0  0  0  0  0  0  0  0  0  0  0
   34.6100   26.0280   29.8930 H   0  0  0  0  0  0  0  0  0  0  0  0
  1  2  2  0  0  0  0
  1  6  1  0  0  0  0
  2  3  1  0  0  0  0
  3  7  1  0  0  0  0
  3  4  2  0  0  0  0
  5  4  1  0  0  0  0
  5  8  1  0  0  0  0
  6  5  2  0  0  0  0
  9 16  1  6  0  0  0
  9 14  1  0  0  0  0
  9 10  1  0  0  0  0
 10  2  1  1  0  0  0
 10 11  1  0  0  0  0
 11 12  1  0  0  0  0
 13 11  1  0  0  0  0
 14 13  1  0  0  0  0
 15 14  1  0  0  0  0
 17 16  1  0  0  0  0
 18  1  1  0  0  0  0
 19 18  1  0  0  0  0
M  END
>  <minimizedAffinity>
-3.70209455

$$$$

 OpenBabel03272507373D

 19 20  0  0  1  0  0  0  0  0999 V2000
   38.2530   26.1710   36.0680 C   0  0  0  0  0  0  0  0  0  0  0  0
   38.2390   25.9570   34.6870 C   0  0  0  0  0  0  0  0  0  0  0  0
   38.1550   24.6440   34.2420 C   0  0  0  0  0  0  0  0  0  0  0  0
   38.0920   23.6400   35.1550 N   0  0  0  0  0  0  0  0  0  0  0  0
   38.1070   23.8640   36.4890 C   0  0  0  0  0  0  0  0  0  0  0  0
   38.1870   25.1330   36.9430 N   0  0  0  0  0  0  0  0  0  0  0  0
   38.1380   24.3830   33.2020 H   0  0  0  0  0  0  0  0  0  0  0  0
   38.0520   23.0190   37.1640 H   0  0  0  0  0  0  0  0  0  0  0  0
   39.2480   26.8330   32.5610 C   0  0  1  0  0  3  0  0  0  0  0  0
   38.3100   27.0550   33.7080 C   0  0  1  0  0  3  0  0  0  0  0  0
   37.0230   27.3570   33.0260 C   0  0  0  0  0  3  0  0  0  0  0  0
   36.6020   26.5270   32.4300 H   0  0  0  0  0  0  0  0  0  0  0  0
   37.4770   28.2800   32.0540 O   0  0  0  0  0  0  0  0  0  0  0  0
   38.5230   27.5540   31.4490 C   0  0  0  0  0  3  0  0  0  0  0  0
   39.2020   28.1770   30.8610 H   0  0  0  0  0  0  0  0  0  0  0  0
   40.4950   27.3490   32.8590 O   0  0  0  0  0  0  0  0  0  0  0  0
   41.1460   27.2710   32.1440 H   0  0  0  0  0  0  0  0  0  0  0  0
   38.3380   27.5000   36.4270 O   0  0  0  0  0  0  0  0  0  0  0  0
   37.5460   28.1100   36.5010 H   0  0  0  0  0  0  0  0  0  0  0  0
  1 18  1  0  0  0  0
  1  6  1  0  0  0  0
  2  1  2  0  0  0  0
  3  2  1  0  0  0  0
  3  4  2  0  0  0  0
  4  5  1  0  0  0  0
  5  6  2  0  0  0  0
  5  8  1  0  0  0  0
  7  3  1  0  0  0  0
  9 16  1  1  0  0  0
  9 10  1  0  0  0  0
 10  2  1  1  0  0  0
 11 10  1  0  0  0  0
 12 11  1  0  0  0  0
 13 11  1  0  0  0  0
 14 13  1  0  0  0  0
 14  9  1  0  0  0  0
 15 14  1  0  0  0  0
 17 16  1  0  0  0  0
 18 19  1  0  0  0  0
M  END
>  <minimizedAffinity>
-3.66419029

$$$$

 OpenBabel03272507373D

 19 20  0  0  1  0  0  0  0  0999 V2000
   36.3000   26.2760   31.1960 C   0  0  0  0  0  0  0  0  0  0  0  0
   37.0320   27.4630   31.0980 C   0  0  0  0  0  0  0  0  0  0  0  0
   37.9460   27.7380   32.1060 C   0  0  0  0  0  0  0  0  0  0  0  0
   38.0860   26.8560   33.1290 N   0  0  0  0  0  0  0  0  0  0  0  0
   37.3700   25.7120   33.2100 C   0  0  0  0  0  0  0  0  0  0  0  0
   36.4770   25.4240   32.2400 N   0  0  0  0  0  0  0  0  0  0  0  0
   38.5510   28.6230   32.1160 H   0  0  0  0  0  0  0  0  0  0  0  0
   37.5300   25.0500   34.0520 H   0  0  0  0  0  0  0  0  0  0  0  0
   36.6640   29.8410   30.3820 C   0  0  1  0  0  3  0  0  0  0  0  0
   36.8690   28.4110   29.9830 C   0  0  1  0  0  3  0  0  0  0  0  0
   38.0350   28.4900   29.0640 C   0  0  0  0  0  3  0  0  0  0  0  0
   38.9790   28.8250   29.5320 H   0  0  0  0  0  0  0  0  0  0  0  0
   37.6400   29.5900   28.2670 O   0  0  0  0  0  0  0  0  0  0  0  0
   37.3610   30.5610   29.2510 C   0  0  0  0  0  3  0  0  0  0  0  0
   36.7680   31.4000   28.8790 H   0  0  0  0  0  0  0  0  0  0  0  0
   35.3140   30.1180   30.4890 O   0  0  0  0  0  0  0  0  0  0  0  0
   35.1070   31.0390   30.7110 H   0  0  0  0  0  0  0  0  0  0  0  0
   35.4160   26.0760   30.1570 O   0  0  0  0  0  0  0  0  0  0  0  0
   35.6690   25.6610   29.2800 H   0  0  0  0  0  0  0  0  0  0  0  0
  1  6  1  0  0  0  0
  2  1  2  0  0  0  0
  2  3  1  0  0  0  0
  3  7  1  0  0  0  0
  3  4  2  0  0  0  0
  4  5  1  0  0  0  0
  5  8  1  0  0  0  0
  6  5  2  0  0  0  0
  9 16  1  6  0  0  0
 10  9  1  0  0  0  0
 10  2  1  1  0  0  0
 11 12  1  0  0  0  0
 11 10  1  0  0  0  0
 13 11  1  0  0  0  0
 13 14  1  0  0  0  0
 14  9  1  0  0  0  0
 15 14  1  0  0  0  0
 16 17  1  0  0  0  0
 18  1  1  0  0  0  0
 19 18  1  0  0  0  0
M  END
>  <minimizedAffinity>
-3.65833735

$$$$

 OpenBabel03272507373D

 19 20  0  0  1  0  0  0  0  0999 V2000
   38.0320   22.8030   35.2320 C   0  0  0  0  0  0  0  0  0  0  0  0
   37.6010   22.4270   33.9560 C   0  0  0  0  0  0  0  0  0  0  0  0
   37.6180   23.3960   32.9620 C   0  0  0  0  0  0  0  0  0  0  0  0
   38.0440   24.6490   33.2680 N   0  0  0  0  0  0  0  0  0  0  0  0
   38.4580   24.9970   34.5080 C   0  0  0  0  0  0  0  0  0  0  0  0
   38.4510   24.0710   35.4890 N   0  0  0  0  0  0  0  0  0  0  0  0
   37.3060   23.2000   31.9550 H   0  0  0  0  0  0  0  0  0  0  0  0
   38.7870   26.0140   34.6850 H   0  0  0  0  0  0  0  0  0  0  0  0
   35.6750   20.8210   33.8360 C   0  0  1  0  0  3  0  0  0  0  0  0
   37.1410   21.0650   33.6390 C   0  0  1  0  0  3  0  0  0  0  0  0
   37.3550   20.6540   32.2260 C   0  0  0  0  0  3  0  0  0  0  0  0
   36.8300   21.2690   31.4740 H   0  0  0  0  0  0  0  0  0  0  0  0
   36.6470   19.4290   32.2200 O   0  0  0  0  0  0  0  0  0  0  0  0
   35.3950   19.8310   32.7300 C   0  0  0  0  0  3  0  0  0  0  0  0
   34.7800   18.9980   33.0790 H   0  0  0  0  0  0  0  0  0  0  0  0
   35.4390   20.3380   35.1080 O   0  0  0  0  0  0  0  0  0  0  0  0
   34.5110   20.1250   35.2940 H   0  0  0  0  0  0  0  0  0  0  0  0
   37.9860   21.7850   36.1610 O   0  0  0  0  0  0  0  0  0  0  0  0
   38.7170   21.1100   36.2870 H   0  0  0  0  0  0  0  0  0  0  0  0
  1  6  1  0  0  0  0
  1 18  1  0  0  0  0
  2  1  2  0  0  0  0
  3  4  2  0  0  0  0
  3  2  1  0  0  0  0
  4  5  1  0  0  0  0
  5  8  1  0  0  0  0
  5  6  2  0  0  0  0
  7  3  1  0  0  0  0
  9 16  1  1  0  0  0
 10  9  1  0  0  0  0
 10  2  1  6  0  0  0
 11 10  1  0  0  0  0
 12 11  1  0  0  0  0
 13 11  1  0  0  0  0
 13 14  1  0  0  0  0
 14 15  1  0  0  0  0
 14  9  1  0  0  0  0
 16 17  1  0  0  0  0
 18 19  1  0  0  0  0
M  END
>  <minimizedAffinity>
-3.64031816

$$$$
