
 OpenBabel03272505253D

 31 33  0  0  1  0  0  0  0  0999 V2000
   37.4110   31.0960   47.0840 N   0  0  0  0  0  0  0  0  0  0  0  0
   36.8240   30.7580   45.9040 C   0  0  0  0  0  0  0  0  0  0  0  0
   37.2890   31.2220   44.6850 C   0  0  0  0  0  0  0  0  0  0  0  0
   38.4090   32.0690   44.7050 C   0  0  0  0  0  0  0  0  0  0  0  0
   38.8580   32.5070   43.6250 O   0  0  0  0  0  0  0  0  0  0  0  0
   38.9990   32.4110   45.8850 N   0  0  0  0  0  0  0  0  0  0  0  0
   38.4560   31.8980   46.9980 C   0  0  0  0  0  0  0  0  0  0  0  0
   39.0270   32.2380   48.0580 O   0  0  0  0  0  0  0  0  0  0  0  0
   35.9580   30.0990   45.9240 H   0  0  0  0  0  0  0  0  0  0  0  0
   37.3040   29.5630   50.4640 C   0  0  0  0  0  0  0  0  0  0  0  0
   37.7800   30.0420   49.2360 C   0  0  0  0  0  0  0  0  0  0  0  0
   36.9320   30.6170   48.3050 C   0  0  0  0  0  0  0  0  0  0  0  0
   35.6040   30.7090   48.6090 N   0  0  0  0  0  0  0  0  0  0  0  0
   35.1330   30.2430   49.8070 C   0  0  0  0  0  0  0  0  0  0  0  0
   35.9670   29.6780   50.7240 N   0  0  0  0  0  0  0  0  0  0  0  0
   37.8920   29.1100   51.2300 H   0  0  0  0  0  0  0  0  0  0  0  0
   38.8390   29.8770   49.1650 H   0  0  0  0  0  0  0  0  0  0  0  0
   34.0800   30.3740   49.9210 H   0  0  0  0  0  0  0  0  0  0  0  0
   37.4870   31.1220   42.2800 C   0  0  2  0  0  3  0  0  0  0  0  0
   36.6090   30.8160   43.4710 C   0  0  2  0  0  3  0  0  0  0  0  0
   35.3530   31.5530   43.1450 C   0  0  0  0  0  3  0  0  0  0  0  0
   34.7460   31.8620   43.9990 H   0  0  0  0  0  0  0  0  0  0  0  0
   35.6830   32.5920   42.2890 O   0  0  0  0  0  0  0  0  0  0  0  0
   36.6830   32.1080   41.4870 C   0  0  0  0  0  3  0  0  0  0  0  0
   36.2790   31.6210   40.5530 H   0  0  0  0  0  0  0  0  0  0  0  0
   37.7160   29.9380   41.5520 O   0  0  0  0  0  0  0  0  0  0  0  0
   38.2060   29.3150   42.1350 H   0  0  0  0  0  0  0  0  0  0  0  0
   40.1500   33.2830   45.9000 C   0  0  0  0  0  0  0  0  0  0  0  0
   39.9910   34.2670   44.9510 F   0  0  0  0  0  0  0  0  0  0  0  0
   41.3300   32.6400   45.6270 F   0  0  0  0  0  0  0  0  0  0  0  0
   40.2070   33.9210   47.1390 F   0  0  0  0  0  0  0  0  0  0  0  0
  1 12  1  0  0  0  0
  2  9  1  0  0  0  0
  2  1  1  0  0  0  0
  3  4  1  0  0  0  0
  3  2  2  0  0  0  0
  4  6  1  0  0  0  0
  5  4  2  0  0  0  0
  6 28  1  0  0  0  0
  6  7  1  0  0  0  0
  7  1  1  0  0  0  0
  7  8  2  0  0  0  0
 10 15  1  0  0  0  0
 10 16  1  0  0  0  0
 11 10  2  0  0  0  0
 12 13  2  0  0  0  0
 12 11  1  0  0  0  0
 13 14  1  0  0  0  0
 14 18  1  0  0  0  0
 14 15  2  0  0  0  0
 17 11  1  0  0  0  0
 19 26  1  6  0  0  0
 19 20  1  0  0  0  0
 20  3  1  1  0  0  0
 21 20  1  0  0  0  0
 21 22  1  0  0  0  0
 23 21  1  0  0  0  0
 24 19  1  0  0  0  0
 24 23  1  0  0  0  0
 25 24  1  0  0  0  0
 26 27  1  0  0  0  0
 28 31  1  0  0  0  0
 29 28  1  0  0  0  0
 30 28  1  0  0  0  0
M  END
>  <minimizedAffinity>
-6.24319506

>  <minimizedRMSD>
0.17226769

$$$$
