
 OpenBabel03272500073D

 39 42  0  0  1  0  0  0  0  0999 V2000
   32.4410   27.0280   48.1610 O   0  0  0  0  0  0  0  0  0  0  0  0
   31.1030   27.4480   48.2840 C   0  0  0  0  0  0  0  0  0  0  0  0
   30.7690   27.7650   49.6030 C   0  0  0  0  0  0  0  0  0  0  0  0
   29.5040   28.1970   49.9230 C   0  0  0  0  0  0  0  0  0  0  0  0
   28.5650   28.3130   48.9090 C   0  0  0  0  0  0  0  0  0  0  0  0
   28.9240   27.9950   47.6240 C   0  0  0  0  0  0  0  0  0  0  0  0
   30.1830   27.5570   47.2650 C   0  0  0  0  0  0  0  0  0  0  0  0
   31.4550   27.6960   50.4420 H   0  0  0  0  0  0  0  0  0  0  0  0
   29.2280   28.4470   50.9370 H   0  0  0  0  0  0  0  0  0  0  0  0
   27.5650   28.6550   49.1540 H   0  0  0  0  0  0  0  0  0  0  0  0
   28.1530   28.1040   46.8770 H   0  0  0  0  0  0  0  0  0  0  0  0
   30.6120   25.7020   45.6520 C   0  0  2  0  0  3  0  0  0  0  0  0
   30.5940   27.1960   45.9200 C   0  0  1  0  0  3  0  0  0  0  0  0
   29.5540   27.5590   44.8450 C   0  0  0  0  0  3  0  0  0  0  0  0
   28.5660   27.1100   45.1030 H   0  0  0  0  0  0  0  0  0  0  0  0
   29.9740   26.8640   43.7120 O   0  0  0  0  0  0  0  0  0  0  0  0
   30.7330   25.7800   44.1230 C   0  0  0  0  0  3  0  0  0  0  0  0
   30.4220   24.8320   43.6550 H   0  0  0  0  0  0  0  0  0  0  0  0
   29.4020   25.1310   45.9460 O   0  0  0  0  0  0  0  0  0  0  0  0
   29.4170   24.6210   46.7990 H   0  0  0  0  0  0  0  0  0  0  0  0
   35.3900   28.8180   49.1420 C   0  0  0  0  0  0  0  0  0  0  0  0
   35.3230   30.0030   48.3950 C   0  0  0  0  0  0  0  0  0  0  0  0
   34.2290   30.1620   47.5430 C   0  0  0  0  0  0  0  0  0  0  0  0
   33.3020   29.1690   47.4900 N   0  0  0  0  0  0  0  0  0  0  0  0
   33.3920   28.0520   48.2140 C   0  0  0  0  0  0  0  0  0  0  0  0
   34.4460   27.8650   49.0540 N   0  0  0  0  0  0  0  0  0  0  0  0
   36.2520   28.6990   49.8090 H   0  0  0  0  0  0  0  0  0  0  0  0
   34.1620   31.0620   46.9640 H   0  0  0  0  0  0  0  0  0  0  0  0
   36.3580   30.9580   48.5410 N   0  0  0  0  0  0  0  0  0  0  0  0
   36.5580   31.6270   49.6700 C   0  0  0  0  0  0  0  0  0  0  0  0
   37.6000   32.5520   49.7360 C   0  0  0  0  0  0  0  0  0  0  0  0
   38.3410   32.6940   48.6060 C   0  0  0  0  0  0  0  0  0  0  0  0
   39.2860   33.5270   48.6500 O   0  0  0  0  0  0  0  0  0  0  0  0
   38.1740   32.0470   47.4640 N   0  0  0  0  0  0  0  0  0  0  0  0
   37.1470   31.1470   47.4270 C   0  0  0  0  0  0  0  0  0  0  0  0
   36.9730   30.5180   46.3390 O   0  0  0  0  0  0  0  0  0  0  0  0
   35.9390   31.4750   50.5390 H   0  0  0  0  0  0  0  0  0  0  0  0
   37.7600   33.0950   50.6560 H   0  0  0  0  0  0  0  0  0  0  0  0
   38.7890   32.2120   46.6360 H   0  0  0  0  0  0  0  0  0  0  0  0
  1 25  1  0  0  0  0
  1  2  1  0  0  0  0
  2  3  1  0  0  0  0
  3  4  2  0  0  0  0
  3  8  1  0  0  0  0
  4  9  1  0  0  0  0
  5 10  1  0  0  0  0
  5  4  1  0  0  0  0
  6  5  2  0  0  0  0
  7  6  1  0  0  0  0
  7  2  2  0  0  0  0
 11  6  1  0  0  0  0
 12 13  1  0  0  0  0
 12 19  1  6  0  0  0
 13  7  1  1  0  0  0
 14 15  1  0  0  0  0
 14 13  1  0  0  0  0
 16 17  1  0  0  0  0
 16 14  1  0  0  0  0
 17 12  1  0  0  0  0
 18 17  1  0  0  0  0
 19 20  1  0  0  0  0
 21 27  1  0  0  0  0
 22 29  1  0  0  0  0
 22 21  2  0  0  0  0
 23 22  1  0  0  0  0
 24 23  2  0  0  0  0
 24 25  1  0  0  0  0
 25 26  2  0  0  0  0
 26 21  1  0  0  0  0
 28 23  1  0  0  0  0
 29 30  1  0  0  0  0
 30 31  2  0  0  0  0
 30 37  1  0  0  0  0
 31 38  1  0  0  0  0
 32 33  2  0  0  0  0
 32 31  1  0  0  0  0
 34 32  1  0  0  0  0
 35 34  1  0  0  0  0
 35 29  1  0  0  0  0
 36 35  2  0  0  0  0
 39 34  1  0  0  0  0
M  END
>  <minimizedAffinity>
-5.8578124

>  <minimizedRMSD>
0.412698686

$$$$
