
 OpenBabel03272506333D

 19 20  0  0  1  0  0  0  0  0999 V2000
   37.3900   30.3430   50.8860 C   0  0  0  0  0  0  0  0  0  0  0  0
   38.3760   31.1360   50.3050 C   0  0  0  0  0  0  0  0  0  0  0  0
   38.1420   31.6720   49.0320 C   0  0  0  0  0  0  0  0  0  0  0  0
   36.9620   31.3900   48.4260 N   0  0  0  0  0  0  0  0  0  0  0  0
   36.0070   30.6070   49.0190 C   0  0  0  0  0  0  0  0  0  0  0  0
   36.2400   30.0980   50.2400 N   0  0  0  0  0  0  0  0  0  0  0  0
   39.3340   31.4100   50.7100 H   0  0  0  0  0  0  0  0  0  0  0  0
   38.8690   32.2960   48.5270 H   0  0  0  0  0  0  0  0  0  0  0  0
   34.1130   29.0300   48.9060 C   0  0  2  0  0  3  0  0  0  0  0  0
   34.7190   30.3030   48.3500 C   0  0  2  0  0  3  0  0  0  0  0  0
   34.9480   29.8500   46.9010 C   0  0  0  0  0  3  0  0  0  0  0  0
   35.6760   29.0400   46.9020 H   0  0  0  0  0  0  0  0  0  0  0  0
   33.6950   29.3200   46.6160 O   0  0  0  0  0  0  0  0  0  0  0  0
   33.3090   28.5610   47.7030 C   0  0  0  0  0  3  0  0  0  0  0  0
   32.2330   28.7740   47.9680 H   0  0  0  0  0  0  0  0  0  0  0  0
   33.3220   29.2470   50.0260 O   0  0  0  0  0  0  0  0  0  0  0  0
   33.1860   28.3270   50.4190 H   0  0  0  0  0  0  0  0  0  0  0  0
   37.7530   29.8810   52.1450 O   0  0  0  0  0  0  0  0  0  0  0  0
   37.7000   30.4470   52.9780 H   0  0  0  0  0  0  0  0  0  0  0  0
  1 18  1  0  0  0  0
  2  7  1  0  0  0  0
  2  1  1  0  0  0  0
  3  2  2  0  0  0  0
  4  5  2  0  0  0  0
  4  3  1  0  0  0  0
  5  6  1  0  0  0  0
  6  1  2  0  0  0  0
  8  3  1  0  0  0  0
  9 16  1  1  0  0  0
 10  9  1  0  0  0  0
 10  5  1  1  0  0  0
 11 12  1  0  0  0  0
 11 10  1  0  0  0  0
 13 11  1  0  0  0  0
 13 14  1  0  0  0  0
 14 15  1  0  0  0  0
 14  9  1  0  0  0  0
 16 17  1  0  0  0  0
 18 19  1  0  0  0  0
M  END
>  <minimizedAffinity>
-4.83586407

>  <minimizedRMSD>
1.94051886

$$$$
