
 OpenBabel03272507503D

 28 30  0  0  1  0  0  0  0  0999 V2000
   35.5100   29.0980   49.1650 C   0  0  0  0  0  0  0  0  0  0  0  0
   35.7570   30.1670   48.2870 C   0  0  0  0  0  0  0  0  0  0  0  0
   35.1090   30.1370   47.0570 C   0  0  0  0  0  0  0  0  0  0  0  0
   34.2890   29.1070   46.7620 N   0  0  0  0  0  0  0  0  0  0  0  0
   34.0720   28.0900   47.6340 C   0  0  0  0  0  0  0  0  0  0  0  0
   34.6870   28.0780   48.8520 N   0  0  0  0  0  0  0  0  0  0  0  0
   35.3010   30.9650   46.3770 H   0  0  0  0  0  0  0  0  0  0  0  0
   33.3880   27.3240   47.2710 H   0  0  0  0  0  0  0  0  0  0  0  0
   36.6390   31.1900   48.7070 N   0  0  0  0  0  0  0  0  0  0  0  0
   36.3410   32.0430   49.6900 C   0  0  0  0  0  0  0  0  0  0  0  0
   37.2400   33.0380   50.0760 C   0  0  0  0  0  0  0  0  0  0  0  0
   38.4210   33.0310   49.3500 C   0  0  0  0  0  0  0  0  0  0  0  0
   39.2450   33.9360   49.6980 O   0  0  0  0  0  0  0  0  0  0  0  0
   38.7600   32.2000   48.3610 N   0  0  0  0  0  0  0  0  0  0  0  0
   37.8290   31.2700   48.0560 C   0  0  0  0  0  0  0  0  0  0  0  0
   38.1400   30.4730   47.1160 O   0  0  0  0  0  0  0  0  0  0  0  0
   35.4000   32.0030   50.2170 H   0  0  0  0  0  0  0  0  0  0  0  0
   37.0420   33.7370   50.8540 H   0  0  0  0  0  0  0  0  0  0  0  0
   39.6790   32.2810   47.8780 H   0  0  0  0  0  0  0  0  0  0  0  0
   37.5710   28.7340   50.5250 C   0  0  2  0  0  3  0  0  0  0  0  0
   36.1030   28.9410   50.5150 C   0  0  1  0  0  3  0  0  0  0  0  0
   35.8900   30.1340   51.3860 C   0  0  0  0  0  3  0  0  0  0  0  0
   35.0160   29.9760   52.0840 H   0  0  0  0  0  0  0  0  0  0  0  0
   37.0050   30.3120   52.1720 O   0  0  0  0  0  0  0  0  0  0  0  0
   38.0760   29.6910   51.5670 C   0  0  0  0  0  3  0  0  0  0  0  0
   38.7740   30.4260   51.0930 H   0  0  0  0  0  0  0  0  0  0  0  0
   38.1110   29.0400   49.2870 O   0  0  0  0  0  0  0  0  0  0  0  0
   38.9710   29.5170   49.4280 H   0  0  0  0  0  0  0  0  0  0  0  0
  2  9  1  0  0  0  0
  2  1  2  0  0  0  0
  3  2  1  0  0  0  0
  4  3  2  0  0  0  0
  4  5  1  0  0  0  0
  5  6  2  0  0  0  0
  6  1  1  0  0  0  0
  7  3  1  0  0  0  0
  8  5  1  0  0  0  0
  9 10  1  0  0  0  0
 10 11  2  0  0  0  0
 10 17  1  0  0  0  0
 11 18  1  0  0  0  0
 12 13  2  0  0  0  0
 12 11  1  0  0  0  0
 14 12  1  0  0  0  0
 15 14  1  0  0  0  0
 15  9  1  0  0  0  0
 16 15  2  0  0  0  0
 19 14  1  0  0  0  0
 20 27  1  6  0  0  0
 20 25  1  0  0  0  0
 21  1  1  6  0  0  0
 21 20  1  0  0  0  0
 21 22  1  0  0  0  0
 22 23  1  0  0  0  0
 22 24  1  0  0  0  0
 25 24  1  0  0  0  0
 26 25  1  0  0  0  0
 27 28  1  0  0  0  0
M  END
>  <minimizedAffinity>
-3.57917523

>  <minimizedRMSD>
1.15651381

$$$$
