
 OpenBabel03262522243D

 35 37  0  0  1  0  0  0  0  0999 V2000
   38.1270   31.7480   45.9960 C   0  0  0  0  0  0  0  0  0  0  0  0
   37.9010   31.5950   44.6160 C   0  0  0  0  0  0  0  0  0  0  0  0
   36.8200   30.8020   44.2140 C   0  0  0  0  0  0  0  0  0  0  0  0
   36.0690   30.2380   45.1890 N   0  0  0  0  0  0  0  0  0  0  0  0
   36.3300   30.4170   46.4820 C   0  0  0  0  0  0  0  0  0  0  0  0
   37.3730   31.1820   46.9400 N   0  0  0  0  0  0  0  0  0  0  0  0
   38.9450   32.3470   46.4200 H   0  0  0  0  0  0  0  0  0  0  0  0
   36.6970   30.7220   43.1630 H   0  0  0  0  0  0  0  0  0  0  0  0
   38.7660   32.2410   43.8030 O   0  0  0  0  0  0  0  0  0  0  0  0
   39.5750   31.4710   42.9420 C   0  0  0  0  0  0  0  0  0  0  0  0
   40.4590   30.4810   43.2830 C   0  0  0  0  0  0  0  0  0  0  0  0
   41.1500   29.8470   42.3200 C   0  0  0  0  0  0  0  0  0  0  0  0
   40.9460   30.2170   41.0150 C   0  0  0  0  0  0  0  0  0  0  0  0
   40.0560   31.2140   40.6780 C   0  0  0  0  0  0  0  0  0  0  0  0
   39.3790   31.8280   41.6770 N   0  0  0  0  0  0  0  0  0  0  0  0
   40.4920   30.3200   44.3730 H   0  0  0  0  0  0  0  0  0  0  0  0
   41.8350   29.0740   42.6400 H   0  0  0  0  0  0  0  0  0  0  0  0
   41.5220   29.6840   40.2550 H   0  0  0  0  0  0  0  0  0  0  0  0
   39.8620   31.5900   39.2250 C   0  0  0  0  0  0  0  0  0  0  0  0
   38.9580   32.2020   39.1260 H   0  0  0  0  0  0  0  0  0  0  0  0
   40.7090   32.2690   38.9840 H   0  0  0  0  0  0  0  0  0  0  0  0
   39.8730   30.6960   38.5660 H   0  0  0  0  0  0  0  0  0  0  0  0
   35.0900   29.4930   47.4550 S   0  0  0  0  0  0  0  0  0  0  0  0
   34.5230   30.6950   48.7040 C   0  0  0  0  0  0  0  0  0  0  0  0
   34.6800   31.7400   48.3820 H   0  0  0  0  0  0  0  0  0  0  0  0
   33.4530   30.4830   48.9580 H   0  0  0  0  0  0  0  0  0  0  0  0
   37.2080   29.3680   50.8570 C   0  0  2  0  0  0  0  0  0  0  0  0
   36.0620   29.1250   49.9010 C   0  0  0  0  0  0  0  0  0  0  0  0
   36.4880   29.0160   48.8800 H   0  0  0  0  0  0  0  0  0  0  0  0
   35.2950   30.4220   49.9790 C   0  0  1  0  0  0  0  0  0  0  0  0
   36.3170   31.3650   50.0790 O   0  0  0  0  0  0  0  0  0  0  0  0
   37.2600   30.8770   50.9650 C   0  0  0  0  0  0  0  0  0  0  0  0
   37.0040   31.2280   51.9760 H   0  0  0  0  0  0  0  0  0  0  0  0
   38.4240   28.9280   50.3190 O   0  0  0  0  0  0  0  0  0  0  0  0
   38.2050   28.2620   49.6180 H   0  0  0  0  0  0  0  0  0  0  0  0
  1  7  1  0  0  0  0
  1  6  1  0  0  0  0
  2  1  2  0  0  0  0
  3  2  1  0  0  0  0
  3  4  2  0  0  0  0
  4  5  1  0  0  0  0
  5  6  2  0  0  0  0
  5 23  1  0  0  0  0
  8  3  1  0  0  0  0
  9  2  1  0  0  0  0
 10 11  1  0  0  0  0
 10  9  1  0  0  0  0
 11 16  1  0  0  0  0
 12 17  1  0  0  0  0
 12 11  2  0  0  0  0
 13 12  1  0  0  0  0
 14 13  2  0  0  0  0
 14 15  1  0  0  0  0
 15 10  2  0  0  0  0
 18 13  1  0  0  0  0
 19 14  1  0  0  0  0
 20 19  1  0  0  0  0
 21 19  1  0  0  0  0
 22 19  1  0  0  0  0
 23 24  1  0  0  0  0
 24 26  1  0  0  0  0
 25 24  1  0  0  0  0
 27 34  1  6  0  0  0
 27 32  1  0  0  0  0
 28 30  1  0  0  0  0
 28 27  1  0  0  0  0
 29 28  1  0  0  0  0
 30 24  1  6  0  0  0
 30 31  1  0  0  0  0
 31 32  1  0  0  0  0
 32 33  1  0  0  0  0
 35 34  1  0  0  0  0
M  END
>  <minimizedAffinity>
-4.57062769

>  <minimizedRMSD>
3.2831955

$$$$
