
 OpenBabel03272506333D

 19 20  0  0  1  0  0  0  0  0999 V2000
   37.4260   30.3220   50.8100 C   0  0  0  0  0  0  0  0  0  0  0  0
   38.3720   31.1920   50.2730 C   0  0  0  0  0  0  0  0  0  0  0  0
   38.1550   31.7090   48.9890 C   0  0  0  0  0  0  0  0  0  0  0  0
   37.0300   31.3360   48.3310 N   0  0  0  0  0  0  0  0  0  0  0  0
   36.1130   30.4790   48.8810 C   0  0  0  0  0  0  0  0  0  0  0  0
   36.3290   29.9890   50.1120 N   0  0  0  0  0  0  0  0  0  0  0  0
   39.2860   31.5390   50.7210 H   0  0  0  0  0  0  0  0  0  0  0  0
   38.8520   32.3890   48.5170 H   0  0  0  0  0  0  0  0  0  0  0  0
   34.5630   28.6190   48.4130 C   0  0  2  0  0  3  0  0  0  0  0  0
   34.8850   30.0760   48.1550 C   0  0  2  0  0  3  0  0  0  0  0  0
   35.1420   30.0050   46.6420 C   0  0  0  0  0  3  0  0  0  0  0  0
   36.0140   29.3760   46.4670 H   0  0  0  0  0  0  0  0  0  0  0  0
   34.0060   29.3100   46.2400 O   0  0  0  0  0  0  0  0  0  0  0  0
   33.8200   28.2710   47.1310 C   0  0  0  0  0  3  0  0  0  0  0  0
   32.7350   28.2030   47.4310 H   0  0  0  0  0  0  0  0  0  0  0  0
   33.7870   28.4250   49.5480 O   0  0  0  0  0  0  0  0  0  0  0  0
   33.8500   27.4330   49.7290 H   0  0  0  0  0  0  0  0  0  0  0  0
   37.7660   29.8880   52.0850 O   0  0  0  0  0  0  0  0  0  0  0  0
   37.6310   30.4470   52.9130 H   0  0  0  0  0  0  0  0  0  0  0  0
  1 18  1  0  0  0  0
  2  7  1  0  0  0  0
  2  1  1  0  0  0  0
  3  2  2  0  0  0  0
  4  5  2  0  0  0  0
  4  3  1  0  0  0  0
  5  6  1  0  0  0  0
  6  1  2  0  0  0  0
  8  3  1  0  0  0  0
  9 16  1  1  0  0  0
 10  9  1  0  0  0  0
 10  5  1  1  0  0  0
 11 10  1  0  0  0  0
 12 11  1  0  0  0  0
 13 11  1  0  0  0  0
 13 14  1  0  0  0  0
 14 15  1  0  0  0  0
 14  9  1  0  0  0  0
 16 17  1  0  0  0  0
 18 19  1  0  0  0  0
M  END
>  <minimizedAffinity>
-4.6231904

>  <minimizedRMSD>
1.62496197

$$$$
