
 OpenBabel03272500413D

 40 43  0  0  1  0  0  0  0  0999 V2000
   38.5070   27.0280   34.3240 C   0  0  1  0  0  0  0  0  0  0  0  0
   38.9560   27.1690   35.6750 C   0  0  0  0  0  0  0  0  0  0  0  0
   38.2580   25.9080   35.2470 C   0  0  2  0  0  0  0  0  0  0  0  0
   39.2230   27.0810   33.5220 H   0  0  0  0  0  0  0  0  0  0  0  0
   40.0280   27.1370   35.9000 H   0  0  0  0  0  0  0  0  0  0  0  0
   38.4000   27.8320   36.3810 H   0  0  0  0  0  0  0  0  0  0  0  0
   37.2500   25.7520   35.6530 H   0  0  0  0  0  0  0  0  0  0  0  0
   38.9680   23.8470   36.4350 C   0  0  2  0  0  0  0  0  0  0  0  0
   39.0630   24.6490   35.2090 C   0  0  1  0  0  0  0  0  0  0  0  0
   38.5380   23.7560   34.1370 C   0  0  0  0  0  0  0  0  0  0  0  0
   37.7080   22.8060   34.7420 O   0  0  0  0  0  0  0  0  0  0  0  0
   38.4590   22.4500   35.8180 C   0  0  0  0  0  0  0  0  0  0  0  0
   39.7740   23.3790   36.9840 H   0  0  0  0  0  0  0  0  0  0  0  0
   40.1260   24.9490   35.0470 H   0  0  0  0  0  0  0  0  0  0  0  0
   39.4400   23.1260   33.9030 H   0  0  0  0  0  0  0  0  0  0  0  0
   38.2590   24.1210   33.1870 H   0  0  0  0  0  0  0  0  0  0  0  0
   38.1030   21.7980   36.5630 H   0  0  0  0  0  0  0  0  0  0  0  0
   39.4290   22.0430   35.3790 H   0  0  0  0  0  0  0  0  0  0  0  0
   37.8530   24.2030   37.1880 O   0  0  0  0  0  0  0  0  0  0  0  0
   37.8620   24.1340   38.4580 C   0  0  0  0  0  0  0  0  0  0  0  0
   36.8490   24.5230   38.8690 H   0  0  0  0  0  0  0  0  0  0  0  0
   38.5750   24.8160   39.0180 H   0  0  0  0  0  0  0  0  0  0  0  0
   37.8690   23.1210   38.9880 H   0  0  0  0  0  0  0  0  0  0  0  0
   37.2350   27.6760   33.8030 C   0  0  0  0  0  0  0  0  0  0  0  0
   36.7780   27.2690   32.5590 C   0  0  0  0  0  0  0  0  0  0  0  0
   35.6230   27.9040   32.1120 C   0  0  0  0  0  0  0  0  0  0  0  0
   35.0300   28.8510   32.8880 N   0  0  0  0  0  0  0  0  0  0  0  0
   35.5000   29.2290   34.1040 C   0  0  0  0  0  0  0  0  0  0  0  0
   36.6210   28.6250   34.5600 N   0  0  0  0  0  0  0  0  0  0  0  0
   37.2670   26.5180   31.9660 H   0  0  0  0  0  0  0  0  0  0  0  0
   35.1800   27.6640   31.1560 H   0  0  0  0  0  0  0  0  0  0  0  0
   35.8360   31.2100   35.5180 C   0  0  1  0  0  3  0  0  0  0  0  0
   34.8130   30.2680   34.9120 C   0  0  1  0  0  3  0  0  0  0  0  0
   33.9810   31.1770   34.0750 C   0  0  0  0  0  3  0  0  0  0  0  0
   32.9950   31.3140   34.5650 H   0  0  0  0  0  0  0  0  0  0  0  0
   34.5850   32.4240   34.0250 O   0  0  0  0  0  0  0  0  0  0  0  0
   35.8660   32.3220   34.5170 C   0  0  0  0  0  3  0  0  0  0  0  0
   36.0980   33.2570   35.1010 H   0  0  0  0  0  0  0  0  0  0  0  0
   35.4220   31.6810   36.7700 O   0  0  0  0  0  0  0  0  0  0  0  0
   34.7380   31.0750   37.1520 H   0  0  0  0  0  0  0  0  0  0  0  0
  1  4  1  6  0  0  0
  1  3  1  0  0  0  0
  1  2  1  0  0  0  0
  2  5  1  0  0  0  0
  2  6  1  0  0  0  0
  3  7  1  1  0  0  0
  3  2  1  0  0  0  0
  8 13  1  1  0  0  0
  8 19  1  0  0  0  0
  9 14  1  6  0  0  0
  9  3  1  0  0  0  0
  9  8  1  0  0  0  0
 10 11  1  0  0  0  0
 10  9  1  0  0  0  0
 11 12  1  0  0  0  0
 12  8  1  0  0  0  0
 12 17  1  0  0  0  0
 15 10  1  0  0  0  0
 16 10  1  0  0  0  0
 18 12  1  0  0  0  0
 19 20  1  0  0  0  0
 20 21  1  0  0  0  0
 20 23  1  0  0  0  0
 20 22  1  0  0  0  0
 24  1  1  0  0  0  0
 24 29  1  0  0  0  0
 25 24  2  0  0  0  0
 26 25  1  0  0  0  0
 26 27  2  0  0  0  0
 27 28  1  0  0  0  0
 28 29  2  0  0  0  0
 30 25  1  0  0  0  0
 31 26  1  0  0  0  0
 32 39  1  1  0  0  0
 33 28  1  6  0  0  0
 33 32  1  0  0  0  0
 34 35  1  0  0  0  0
 34 33  1  0  0  0  0
 36 34  1  0  0  0  0
 36 37  1  0  0  0  0
 37 38  1  0  0  0  0
 37 32  1  0  0  0  0
 39 40  1  0  0  0  0
M  END
>  <minimizedAffinity>
-5.47719908

$$$$

 OpenBabel03272500413D

 40 43  0  0  1  0  0  0  0  0999 V2000
   37.0700   25.9860   32.4520 C   0  0  1  0  0  0  0  0  0  0  0  0
   37.8700   26.3370   31.3190 C   0  0  0  0  0  0  0  0  0  0  0  0
   37.7280   24.8940   31.7140 C   0  0  2  0  0  0  0  0  0  0  0  0
   36.0260   26.2460   32.4620 H   0  0  0  0  0  0  0  0  0  0  0  0
   37.3890   26.6900   30.3990 H   0  0  0  0  0  0  0  0  0  0  0  0
   38.8750   26.7990   31.4680 H   0  0  0  0  0  0  0  0  0  0  0  0
   38.6230   24.4170   32.1330 H   0  0  0  0  0  0  0  0  0  0  0  0
   37.4110   22.5910   30.8440 C   0  0  2  0  0  0  0  0  0  0  0  0
   36.9770   23.9920   30.7880 C   0  0  1  0  0  0  0  0  0  0  0  0
   35.5410   23.9550   31.1860 C   0  0  0  0  0  0  0  0  0  0  0  0
   35.3370   22.7930   31.9380 O   0  0  0  0  0  0  0  0  0  0  0  0
   36.0110   21.8770   31.1920 C   0  0  0  0  0  0  0  0  0  0  0  0
   37.6110   21.9260   30.0150 H   0  0  0  0  0  0  0  0  0  0  0  0
   37.1360   24.3850   29.7540 H   0  0  0  0  0  0  0  0  0  0  0  0
   35.0440   23.6670   30.2180 H   0  0  0  0  0  0  0  0  0  0  0  0
   35.0130   24.8250   31.4670 H   0  0  0  0  0  0  0  0  0  0  0  0
   36.1440   20.8820   31.5060 H   0  0  0  0  0  0  0  0  0  0  0  0
   35.5010   21.8960   30.1720 H   0  0  0  0  0  0  0  0  0  0  0  0
   38.1170   22.3250   32.0130 O   0  0  0  0  0  0  0  0  0  0  0  0
   38.4560   21.1410   32.3290 C   0  0  0  0  0  0  0  0  0  0  0  0
   39.0730   21.1680   33.3110 H   0  0  0  0  0  0  0  0  0  0  0  0
   39.1910   20.6040   31.6510 H   0  0  0  0  0  0  0  0  0  0  0  0
   37.6720   20.3760   32.6560 H   0  0  0  0  0  0  0  0  0  0  0  0
   37.5580   26.1260   33.8840 C   0  0  0  0  0  0  0  0  0  0  0  0
   37.5380   27.3960   34.4410 C   0  0  0  0  0  0  0  0  0  0  0  0
   38.0140   27.4820   35.7460 C   0  0  0  0  0  0  0  0  0  0  0  0
   38.4560   26.3610   36.3780 N   0  0  0  0  0  0  0  0  0  0  0  0
   38.4630   25.1290   35.8080 C   0  0  0  0  0  0  0  0  0  0  0  0
   38.0040   25.0210   34.5400 N   0  0  0  0  0  0  0  0  0  0  0  0
   37.1830   28.2650   33.9180 H   0  0  0  0  0  0  0  0  0  0  0  0
   38.0440   28.4230   36.2750 H   0  0  0  0  0  0  0  0  0  0  0  0
   37.9170   23.4870   37.5510 C   0  0  1  0  0  3  0  0  0  0  0  0
   38.9550   23.9380   36.5420 C   0  0  1  0  0  3  0  0  0  0  0  0
   39.0960   22.7460   35.6590 C   0  0  0  0  0  3  0  0  0  0  0  0
   40.0710   22.2580   35.8670 H   0  0  0  0  0  0  0  0  0  0  0  0
   38.1070   21.8280   35.9770 O   0  0  0  0  0  0  0  0  0  0  0  0
   37.1750   22.4360   36.7870 C   0  0  0  0  0  3  0  0  0  0  0  0
   36.8270   21.6860   37.5520 H   0  0  0  0  0  0  0  0  0  0  0  0
   38.5130   22.9410   38.6950 O   0  0  0  0  0  0  0  0  0  0  0  0
   39.4510   23.2500   38.7690 H   0  0  0  0  0  0  0  0  0  0  0  0
  1  4  1  6  0  0  0
  1 24  1  0  0  0  0
  2  6  1  0  0  0  0
  2  3  1  0  0  0  0
  2  1  1  0  0  0  0
  3  7  1  1  0  0  0
  3  1  1  0  0  0  0
  5  2  1  0  0  0  0
  8 13  1  6  0  0  0
  8 12  1  0  0  0  0
  8 19  1  0  0  0  0
  9 14  1  6  0  0  0
  9  8  1  0  0  0  0
  9 10  1  0  0  0  0
  9  3  1  0  0  0  0
 10 16  1  0  0  0  0
 10 11  1  0  0  0  0
 12 17  1  0  0  0  0
 12 11  1  0  0  0  0
 15 10  1  0  0  0  0
 18 12  1  0  0  0  0
 19 20  1  0  0  0  0
 20 23  1  0  0  0  0
 20 21  1  0  0  0  0
 22 20  1  0  0  0  0
 24 25  2  0  0  0  0
 24 29  1  0  0  0  0
 25 26  1  0  0  0  0
 26 31  1  0  0  0  0
 26 27  2  0  0  0  0
 28 27  1  0  0  0  0
 29 28  2  0  0  0  0
 30 25  1  0  0  0  0
 32 39  1  1  0  0  0
 33 28  1  6  0  0  0
 33 32  1  0  0  0  0
 34 35  1  0  0  0  0
 34 36  1  0  0  0  0
 34 33  1  0  0  0  0
 36 37  1  0  0  0  0
 37 32  1  0  0  0  0
 37 38  1  0  0  0  0
 39 40  1  0  0  0  0
M  END
>  <minimizedAffinity>
-5.2829051

$$$$

 OpenBabel03272500413D

 40 43  0  0  1  0  0  0  0  0999 V2000
   36.9990   26.9420   34.0990 C   0  0  1  0  0  0  0  0  0  0  0  0
   36.6620   28.2050   34.6810 C   0  0  0  0  0  0  0  0  0  0  0  0
   37.3470   28.1570   33.3440 C   0  0  2  0  0  0  0  0  0  0  0  0
   36.2170   26.2320   33.8910 H   0  0  0  0  0  0  0  0  0  0  0  0
   35.6140   28.5190   34.7330 H   0  0  0  0  0  0  0  0  0  0  0  0
   37.2610   28.6030   35.5350 H   0  0  0  0  0  0  0  0  0  0  0  0
   38.3890   28.5030   33.3230 H   0  0  0  0  0  0  0  0  0  0  0  0
   37.3910   28.8150   30.9510 C   0  0  2  0  0  0  0  0  0  0  0  0
   36.5690   28.6040   32.1490 C   0  0  1  0  0  0  0  0  0  0  0  0
   35.6040   27.5370   31.7580 C   0  0  0  0  0  0  0  0  0  0  0  0
   36.1680   26.8200   30.6980 O   0  0  0  0  0  0  0  0  0  0  0  0
   36.6430   27.8290   29.9210 C   0  0  0  0  0  0  0  0  0  0  0  0
   37.3590   29.6510   30.2650 H   0  0  0  0  0  0  0  0  0  0  0  0
   36.0720   29.5650   32.4280 H   0  0  0  0  0  0  0  0  0  0  0  0
   34.8180   28.1310   31.2120 H   0  0  0  0  0  0  0  0  0  0  0  0
   35.0360   27.0030   32.4690 H   0  0  0  0  0  0  0  0  0  0  0  0
   37.2170   27.6550   29.0570 H   0  0  0  0  0  0  0  0  0  0  0  0
   35.7260   28.4520   29.6560 H   0  0  0  0  0  0  0  0  0  0  0  0
   38.6180   28.1700   31.0590 O   0  0  0  0  0  0  0  0  0  0  0  0
   39.4800   28.2240   30.1240 C   0  0  0  0  0  0  0  0  0  0  0  0
   40.4370   27.6570   30.4540 H   0  0  0  0  0  0  0  0  0  0  0  0
   39.9270   29.2370   29.8770 H   0  0  0  0  0  0  0  0  0  0  0  0
   39.3040   27.6770   29.1360 H   0  0  0  0  0  0  0  0  0  0  0  0
   38.2090   26.1290   34.5290 C   0  0  0  0  0  0  0  0  0  0  0  0
   39.4570   26.5980   34.1480 C   0  0  0  0  0  0  0  0  0  0  0  0
   40.5350   25.8110   34.5440 C   0  0  0  0  0  0  0  0  0  0  0  0
   40.3140   24.6730   35.2530 N   0  0  0  0  0  0  0  0  0  0  0  0
   39.0790   24.2370   35.6140 C   0  0  0  0  0  0  0  0  0  0  0  0
   38.0160   24.9860   35.2410 N   0  0  0  0  0  0  0  0  0  0  0  0
   39.6030   27.5020   33.5860 H   0  0  0  0  0  0  0  0  0  0  0  0
   41.5510   26.0830   34.3000 H   0  0  0  0  0  0  0  0  0  0  0  0
   39.7480   23.0250   37.6430 C   0  0  1  0  0  3  0  0  0  0  0  0
   38.8940   22.9860   36.3900 C   0  0  1  0  0  3  0  0  0  0  0  0
   37.5130   22.8570   36.9350 C   0  0  0  0  0  3  0  0  0  0  0  0
   37.1490   21.8260   36.7490 H   0  0  0  0  0  0  0  0  0  0  0  0
   37.5510   23.0330   38.3100 O   0  0  0  0  0  0  0  0  0  0  0  0
   38.7820   23.5400   38.6630 C   0  0  0  0  0  3  0  0  0  0  0  0
   39.0880   23.0760   39.6420 H   0  0  0  0  0  0  0  0  0  0  0  0
   40.2040   21.7480   37.9930 O   0  0  0  0  0  0  0  0  0  0  0  0
   40.1690   21.1470   37.2070 H   0  0  0  0  0  0  0  0  0  0  0  0
  1  4  1  6  0  0  0
  1 24  1  0  0  0  0
  1  2  1  0  0  0  0
  2  5  1  0  0  0  0
  2  6  1  0  0  0  0
  3  7  1  1  0  0  0
  3  1  1  0  0  0  0
  3  2  1  0  0  0  0
  8 13  1  6  0  0  0
  8 19  1  0  0  0  0
  8  9  1  0  0  0  0
  9 14  1  1  0  0  0
  9  3  1  0  0  0  0
 10  9  1  0  0  0  0
 10 16  1  0  0  0  0
 11 10  1  0  0  0  0
 12 11  1  0  0  0  0
 12  8  1  0  0  0  0
 15 10  1  0  0  0  0
 17 12  1  0  0  0  0
 18 12  1  0  0  0  0
 20 21  1  0  0  0  0
 20 19  1  0  0  0  0
 22 20  1  0  0  0  0
 23 20  1  0  0  0  0
 24 29  1  0  0  0  0
 25 24  2  0  0  0  0
 25 26  1  0  0  0  0
 26 27  2  0  0  0  0
 27 28  1  0  0  0  0
 29 28  2  0  0  0  0
 30 25  1  0  0  0  0
 31 26  1  0  0  0  0
 32 39  1  1  0  0  0
 32 37  1  0  0  0  0
 33 28  1  1  0  0  0
 33 34  1  0  0  0  0
 33 32  1  0  0  0  0
 34 36  1  0  0  0  0
 35 34  1  0  0  0  0
 36 37  1  0  0  0  0
 37 38  1  0  0  0  0
 40 39  1  0  0  0  0
M  END
>  <minimizedAffinity>
-5.17166185

$$$$

 OpenBabel03272500413D

 40 43  0  0  1  0  0  0  0  0999 V2000
   37.6630   25.8230   32.0680 C   0  0  1  0  0  0  0  0  0  0  0  0
   36.4500   25.0790   31.9210 C   0  0  0  0  0  0  0  0  0  0  0  0
   36.4030   26.4880   32.4430 C   0  0  2  0  0  0  0  0  0  0  0  0
   38.2780   26.0050   31.2040 H   0  0  0  0  0  0  0  0  0  0  0  0
   36.0580   24.8670   30.9190 H   0  0  0  0  0  0  0  0  0  0  0  0
   36.2010   24.2680   32.6470 H   0  0  0  0  0  0  0  0  0  0  0  0
   36.1440   26.6010   33.5040 H   0  0  0  0  0  0  0  0  0  0  0  0
   35.2210   28.6670   32.3300 C   0  0  2  0  0  0  0  0  0  0  0  0
   35.7620   27.5270   31.5810 C   0  0  1  0  0  0  0  0  0  0  0  0
   36.7870   28.1240   30.6780 C   0  0  0  0  0  0  0  0  0  0  0  0
   37.1990   29.3350   31.2440 O   0  0  0  0  0  0  0  0  0  0  0  0
   36.0050   29.8740   31.6090 C   0  0  0  0  0  0  0  0  0  0  0  0
   34.2570   29.1420   32.2080 H   0  0  0  0  0  0  0  0  0  0  0  0
   34.9320   27.0220   31.0290 H   0  0  0  0  0  0  0  0  0  0  0  0
   36.1510   28.4980   29.8280 H   0  0  0  0  0  0  0  0  0  0  0  0
   37.5110   27.5380   30.1840 H   0  0  0  0  0  0  0  0  0  0  0  0
   35.9340   30.7710   32.1540 H   0  0  0  0  0  0  0  0  0  0  0  0
   35.4140   29.9640   30.6380 H   0  0  0  0  0  0  0  0  0  0  0  0
   35.7730   28.7440   33.6050 O   0  0  0  0  0  0  0  0  0  0  0  0
   35.5480   29.7390   34.3660 C   0  0  0  0  0  0  0  0  0  0  0  0
   36.0680   29.5630   35.3880 H   0  0  0  0  0  0  0  0  0  0  0  0
   34.4810   29.9050   34.7150 H   0  0  0  0  0  0  0  0  0  0  0  0
   35.9960   30.7640   34.1340 H   0  0  0  0  0  0  0  0  0  0  0  0
   38.6150   25.6300   33.2360 C   0  0  0  0  0  0  0  0  0  0  0  0
   39.5440   26.6310   33.4720 C   0  0  0  0  0  0  0  0  0  0  0  0
   40.4100   26.4020   34.5380 C   0  0  0  0  0  0  0  0  0  0  0  0
   40.3020   25.2540   35.2590 N   0  0  0  0  0  0  0  0  0  0  0  0
   39.3810   24.2900   35.0060 C   0  0  0  0  0  0  0  0  0  0  0  0
   38.5280   24.4900   33.9750 N   0  0  0  0  0  0  0  0  0  0  0  0
   39.6070   27.5290   32.8850 H   0  0  0  0  0  0  0  0  0  0  0  0
   41.1720   27.1170   34.8090 H   0  0  0  0  0  0  0  0  0  0  0  0
   38.9610   23.4080   37.2600 C   0  0  1  0  0  3  0  0  0  0  0  0
   39.3060   23.0550   35.8260 C   0  0  1  0  0  3  0  0  0  0  0  0
   38.1740   22.1750   35.4210 C   0  0  0  0  0  3  0  0  0  0  0  0
   38.5370   21.1280   35.3590 H   0  0  0  0  0  0  0  0  0  0  0  0
   37.1990   22.2090   36.4070 O   0  0  0  0  0  0  0  0  0  0  0  0
   37.4740   23.2430   37.2730 C   0  0  0  0  0  3  0  0  0  0  0  0
   37.2090   22.9120   38.3160 H   0  0  0  0  0  0  0  0  0  0  0  0
   39.5660   22.5270   38.1650 O   0  0  0  0  0  0  0  0  0  0  0  0
   40.3360   22.0750   37.7370 H   0  0  0  0  0  0  0  0  0  0  0  0
  1  4  1  6  0  0  0
  1  3  1  0  0  0  0
  1 24  1  0  0  0  0
  2  1  1  0  0  0  0
  2  3  1  0  0  0  0
  2  6  1  0  0  0  0
  3  7  1  1  0  0  0
  5  2  1  0  0  0  0
  8 13  1  6  0  0  0
  8 19  1  0  0  0  0
  9 14  1  6  0  0  0
  9  8  1  0  0  0  0
  9  3  1  0  0  0  0
 10 11  1  0  0  0  0
 10  9  1  0  0  0  0
 11 12  1  0  0  0  0
 12 17  1  0  0  0  0
 12  8  1  0  0  0  0
 15 10  1  0  0  0  0
 16 10  1  0  0  0  0
 18 12  1  0  0  0  0
 19 20  1  0  0  0  0
 20 22  1  0  0  0  0
 20 21  1  0  0  0  0
 23 20  1  0  0  0  0
 24 25  2  0  0  0  0
 24 29  1  0  0  0  0
 25 26  1  0  0  0  0
 26 31  1  0  0  0  0
 26 27  2  0  0  0  0
 28 27  1  0  0  0  0
 29 28  2  0  0  0  0
 30 25  1  0  0  0  0
 32 37  1  0  0  0  0
 32 39  1  1  0  0  0
 33 28  1  6  0  0  0
 33 32  1  0  0  0  0
 34 33  1  0  0  0  0
 34 36  1  0  0  0  0
 35 34  1  0  0  0  0
 36 37  1  0  0  0  0
 37 38  1  0  0  0  0
 40 39  1  0  0  0  0
M  END
>  <minimizedAffinity>
-5.11015034

$$$$

 OpenBabel03272500413D

 40 43  0  0  1  0  0  0  0  0999 V2000
   35.6020   30.0310   32.9730 C   0  0  1  0  0  0  0  0  0  0  0  0
   34.3300   30.3590   32.4060 C   0  0  0  0  0  0  0  0  0  0  0  0
   34.5100   30.3790   33.8980 C   0  0  2  0  0  0  0  0  0  0  0  0
   36.4640   30.6190   32.7120 H   0  0  0  0  0  0  0  0  0  0  0  0
   34.1990   31.3050   31.8700 H   0  0  0  0  0  0  0  0  0  0  0  0
   33.6790   29.5510   31.9920 H   0  0  0  0  0  0  0  0  0  0  0  0
   33.9980   29.5860   34.4580 H   0  0  0  0  0  0  0  0  0  0  0  0
   33.4170   31.7730   35.6370 C   0  0  2  0  0  0  0  0  0  0  0  0
   34.4410   31.7040   34.5870 C   0  0  1  0  0  0  0  0  0  0  0  0
   35.7250   31.9620   35.2990 C   0  0  0  0  0  0  0  0  0  0  0  0
   35.5390   31.6330   36.6460 O   0  0  0  0  0  0  0  0  0  0  0  0
   34.3300   32.2060   36.8900 C   0  0  0  0  0  0  0  0  0  0  0  0
   32.7000   32.5640   35.8110 H   0  0  0  0  0  0  0  0  0  0  0  0
   34.2140   32.4660   33.8010 H   0  0  0  0  0  0  0  0  0  0  0  0
   35.7310   33.0850   35.3580 H   0  0  0  0  0  0  0  0  0  0  0  0
   36.6620   31.7480   34.8630 H   0  0  0  0  0  0  0  0  0  0  0  0
   33.8240   32.0870   37.8050 H   0  0  0  0  0  0  0  0  0  0  0  0
   34.4800   33.3150   36.6740 H   0  0  0  0  0  0  0  0  0  0  0  0
   33.0250   30.5030   36.0470 O   0  0  0  0  0  0  0  0  0  0  0  0
   32.0130   30.3330   36.7990 C   0  0  0  0  0  0  0  0  0  0  0  0
   31.8510   29.1960   36.9690 H   0  0  0  0  0  0  0  0  0  0  0  0
   30.9950   30.6170   36.3870 H   0  0  0  0  0  0  0  0  0  0  0  0
   32.0410   30.6540   37.8960 H   0  0  0  0  0  0  0  0  0  0  0  0
   36.0940   28.6020   33.1310 C   0  0  0  0  0  0  0  0  0  0  0  0
   36.6120   28.2400   34.3650 C   0  0  0  0  0  0  0  0  0  0  0  0
   37.0710   26.9290   34.4570 C   0  0  0  0  0  0  0  0  0  0  0  0
   36.9900   26.1080   33.3760 N   0  0  0  0  0  0  0  0  0  0  0  0
   36.4760   26.4890   32.1780 C   0  0  0  0  0  0  0  0  0  0  0  0
   36.0230   27.7590   32.0640 N   0  0  0  0  0  0  0  0  0  0  0  0
   36.6650   28.9100   35.2030 H   0  0  0  0  0  0  0  0  0  0  0  0
   37.4950   26.5420   35.3720 H   0  0  0  0  0  0  0  0  0  0  0  0
   37.5550   24.5620   31.1040 C   0  0  1  0  0  3  0  0  0  0  0  0
   36.4090   25.5520   31.0290 C   0  0  1  0  0  3  0  0  0  0  0  0
   35.2080   24.6730   31.0850 C   0  0  0  0  0  3  0  0  0  0  0  0
   34.7380   24.6430   30.0800 H   0  0  0  0  0  0  0  0  0  0  0  0
   35.6070   23.3800   31.3850 O   0  0  0  0  0  0  0  0  0  0  0  0
   36.9190   23.4010   31.8030 C   0  0  0  0  0  3  0  0  0  0  0  0
   37.4330   22.4820   31.4060 H   0  0  0  0  0  0  0  0  0  0  0  0
   37.9970   24.1900   29.8280 O   0  0  0  0  0  0  0  0  0  0  0  0
   37.7210   24.8680   29.1620 H   0  0  0  0  0  0  0  0  0  0  0  0
  1  4  1  6  0  0  0
  1 24  1  0  0  0  0
  1  3  1  0  0  0  0
  2  1  1  0  0  0  0
  2  3  1  0  0  0  0
  3  7  1  1  0  0  0
  3  9  1  0  0  0  0
  5  2  1  0  0  0  0
  6  2  1  0  0  0  0
  8 13  1  6  0  0  0
  8 19  1  0  0  0  0
  8 12  1  0  0  0  0
  9 14  1  6  0  0  0
  9 10  1  0  0  0  0
  9  8  1  0  0  0  0
 10 15  1  0  0  0  0
 10 11  1  0  0  0  0
 11 12  1  0  0  0  0
 12 17  1  0  0  0  0
 16 10  1  0  0  0  0
 18 12  1  0  0  0  0
 19 20  1  0  0  0  0
 20 21  1  0  0  0  0
 20 23  1  0  0  0  0
 22 20  1  0  0  0  0
 24 25  1  0  0  0  0
 25 26  2  0  0  0  0
 25 30  1  0  0  0  0
 26 31  1  0  0  0  0
 27 26  1  0  0  0  0
 28 27  2  0  0  0  0
 29 28  1  0  0  0  0
 29 24  2  0  0  0  0
 32 39  1  6  0  0  0
 32 37  1  0  0  0  0
 33 34  1  0  0  0  0
 33 32  1  0  0  0  0
 33 28  1  1  0  0  0
 34 36  1  0  0  0  0
 35 34  1  0  0  0  0
 36 37  1  0  0  0  0
 38 37  1  0  0  0  0
 40 39  1  0  0  0  0
M  END
>  <minimizedAffinity>
-5.05095959

$$$$

 OpenBabel03272500413D

 40 43  0  0  1  0  0  0  0  0999 V2000
   34.8140   29.4730   32.2350 C   0  0  1  0  0  0  0  0  0  0  0  0
   35.9430   30.3500   32.2480 C   0  0  0  0  0  0  0  0  0  0  0  0
   36.0620   28.9710   32.8340 C   0  0  2  0  0  0  0  0  0  0  0  0
   34.3710   29.1970   31.2940 H   0  0  0  0  0  0  0  0  0  0  0  0
   36.4660   30.5810   31.3140 H   0  0  0  0  0  0  0  0  0  0  0  0
   35.9780   31.2040   32.9680 H   0  0  0  0  0  0  0  0  0  0  0  0
   36.1570   28.9170   33.9270 H   0  0  0  0  0  0  0  0  0  0  0  0
   37.6340   27.0610   33.0340 C   0  0  2  0  0  0  0  0  0  0  0  0
   36.9480   27.9940   32.1320 C   0  0  1  0  0  0  0  0  0  0  0  0
   36.1220   27.1210   31.2490 C   0  0  0  0  0  0  0  0  0  0  0  0
   35.9010   25.9170   31.9270 O   0  0  0  0  0  0  0  0  0  0  0  0
   37.1440   25.6590   32.4140 C   0  0  0  0  0  0  0  0  0  0  0  0
   38.6760   26.7710   33.0180 H   0  0  0  0  0  0  0  0  0  0  0  0
   37.7080   28.5900   31.5710 H   0  0  0  0  0  0  0  0  0  0  0  0
   36.8780   26.7920   30.4830 H   0  0  0  0  0  0  0  0  0  0  0  0
   35.3400   27.5030   30.6530 H   0  0  0  0  0  0  0  0  0  0  0  0
   37.3400   24.8530   33.0610 H   0  0  0  0  0  0  0  0  0  0  0  0
   37.8120   25.5860   31.4930 H   0  0  0  0  0  0  0  0  0  0  0  0
   37.0130   27.0090   34.2780 O   0  0  0  0  0  0  0  0  0  0  0  0
   37.4400   26.2450   35.2000 C   0  0  0  0  0  0  0  0  0  0  0  0
   36.8000   26.4040   36.1550 H   0  0  0  0  0  0  0  0  0  0  0  0
   38.4730   26.4510   35.6200 H   0  0  0  0  0  0  0  0  0  0  0  0
   37.3230   25.1100   35.1200 H   0  0  0  0  0  0  0  0  0  0  0  0
   33.6690   29.5830   33.2280 C   0  0  0  0  0  0  0  0  0  0  0  0
   32.4540   29.0250   32.8610 C   0  0  0  0  0  0  0  0  0  0  0  0
   31.4280   29.1680   33.7910 C   0  0  0  0  0  0  0  0  0  0  0  0
   31.6630   29.8220   34.9600 N   0  0  0  0  0  0  0  0  0  0  0  0
   32.8650   30.3590   35.2930 C   0  0  0  0  0  0  0  0  0  0  0  0
   33.8780   30.2310   34.4050 N   0  0  0  0  0  0  0  0  0  0  0  0
   32.2940   28.5130   31.9300 H   0  0  0  0  0  0  0  0  0  0  0  0
   30.4400   28.7720   33.6070 H   0  0  0  0  0  0  0  0  0  0  0  0
   34.1860   32.0790   36.4470 C   0  0  1  0  0  3  0  0  0  0  0  0
   33.0690   31.0620   36.5840 C   0  0  1  0  0  3  0  0  0  0  0  0
   31.8990   31.9040   36.9610 C   0  0  0  0  0  3  0  0  0  0  0  0
   31.6640   31.7340   38.0320 H   0  0  0  0  0  0  0  0  0  0  0  0
   32.2430   33.2410   36.8290 O   0  0  0  0  0  0  0  0  0  0  0  0
   33.4290   33.3330   36.1360 C   0  0  0  0  0  3  0  0  0  0  0  0
   34.0330   34.1750   36.5760 H   0  0  0  0  0  0  0  0  0  0  0  0
   34.9050   32.2170   37.6400 O   0  0  0  0  0  0  0  0  0  0  0  0
   34.7720   31.4190   38.2120 H   0  0  0  0  0  0  0  0  0  0  0  0
  1  4  1  6  0  0  0
  1  2  1  0  0  0  0
  1  3  1  0  0  0  0
  1 24  1  0  0  0  0
  2  3  1  0  0  0  0
  2  6  1  0  0  0  0
  3  7  1  1  0  0  0
  5  2  1  0  0  0  0
  8 13  1  1  0  0  0
  8 19  1  0  0  0  0
  9 14  1  6  0  0  0
  9  3  1  0  0  0  0
  9  8  1  0  0  0  0
 10 11  1  0  0  0  0
 10  9  1  0  0  0  0
 11 12  1  0  0  0  0
 12  8  1  0  0  0  0
 12 17  1  0  0  0  0
 15 10  1  0  0  0  0
 16 10  1  0  0  0  0
 18 12  1  0  0  0  0
 19 20  1  0  0  0  0
 20 22  1  0  0  0  0
 20 21  1  0  0  0  0
 23 20  1  0  0  0  0
 24 29  1  0  0  0  0
 25 24  2  0  0  0  0
 25 26  1  0  0  0  0
 26 27  2  0  0  0  0
 27 28  1  0  0  0  0
 29 28  2  0  0  0  0
 30 25  1  0  0  0  0
 31 26  1  0  0  0  0
 32 33  1  0  0  0  0
 32 39  1  1  0  0  0
 33 28  1  6  0  0  0
 33 34  1  0  0  0  0
 34 35  1  0  0  0  0
 36 34  1  0  0  0  0
 37 32  1  0  0  0  0
 37 38  1  0  0  0  0
 37 36  1  0  0  0  0
 39 40  1  0  0  0  0
M  END
>  <minimizedAffinity>
-5.01950693

$$$$

 OpenBabel03272500413D

 40 43  0  0  1  0  0  0  0  0999 V2000
   37.7490   26.0750   35.7200 C   0  0  1  0  0  0  0  0  0  0  0  0
   38.3150   27.3890   35.7380 C   0  0  0  0  0  0  0  0  0  0  0  0
   38.4400   26.5400   34.5040 C   0  0  2  0  0  0  0  0  0  0  0  0
   36.6920   25.9530   35.8770 H   0  0  0  0  0  0  0  0  0  0  0  0
   37.6580   28.2660   35.7190 H   0  0  0  0  0  0  0  0  0  0  0  0
   39.2550   27.5830   36.3080 H   0  0  0  0  0  0  0  0  0  0  0  0
   39.4460   26.1660   34.2750 H   0  0  0  0  0  0  0  0  0  0  0  0
   38.5680   27.4170   32.1860 C   0  0  2  0  0  0  0  0  0  0  0  0
   37.6970   26.9770   33.2830 C   0  0  1  0  0  0  0  0  0  0  0  0
   36.9420   25.8220   32.7210 C   0  0  0  0  0  0  0  0  0  0  0  0
   37.6910   25.2960   31.6630 O   0  0  0  0  0  0  0  0  0  0  0  0
   38.0640   26.4330   31.0160 C   0  0  0  0  0  0  0  0  0  0  0  0
   38.4620   28.3000   31.5700 H   0  0  0  0  0  0  0  0  0  0  0  0
   37.0380   27.8240   33.5920 H   0  0  0  0  0  0  0  0  0  0  0  0
   36.1190   26.3410   32.1550 H   0  0  0  0  0  0  0  0  0  0  0  0
   36.4100   25.1460   33.3330 H   0  0  0  0  0  0  0  0  0  0  0  0
   38.7230   26.4260   30.1970 H   0  0  0  0  0  0  0  0  0  0  0  0
   37.0850   26.9360   30.7190 H   0  0  0  0  0  0  0  0  0  0  0  0
   39.8680   26.9520   32.3530 O   0  0  0  0  0  0  0  0  0  0  0  0
   40.7550   27.1270   31.4580 C   0  0  0  0  0  0  0  0  0  0  0  0
   41.7670   26.7010   31.8340 H   0  0  0  0  0  0  0  0  0  0  0  0
   41.0660   28.1920   31.2240 H   0  0  0  0  0  0  0  0  0  0  0  0
   40.7030   26.5600   30.4660 H   0  0  0  0  0  0  0  0  0  0  0  0
   38.4180   24.8770   36.3730 C   0  0  0  0  0  0  0  0  0  0  0  0
   37.9690   24.5060   37.6310 C   0  0  0  0  0  0  0  0  0  0  0  0
   38.6240   23.4190   38.2010 C   0  0  0  0  0  0  0  0  0  0  0  0
   39.6300   22.8050   37.5220 N   0  0  0  0  0  0  0  0  0  0  0  0
   40.0490   23.1900   36.2890 C   0  0  0  0  0  0  0  0  0  0  0  0
   39.4270   24.2440   35.7140 N   0  0  0  0  0  0  0  0  0  0  0  0
   37.1710   25.0090   38.1470 H   0  0  0  0  0  0  0  0  0  0  0  0
   38.3550   23.0460   39.1790 H   0  0  0  0  0  0  0  0  0  0  0  0
   42.2750   23.4570   35.2830 C   0  0  1  0  0  3  0  0  0  0  0  0
   41.1520   22.4840   35.5900 C   0  0  1  0  0  3  0  0  0  0  0  0
   41.8180   21.4740   36.4590 C   0  0  0  0  0  3  0  0  0  0  0  0
   41.9530   20.5360   35.8810 H   0  0  0  0  0  0  0  0  0  0  0  0
   43.0840   21.9290   36.7940 O   0  0  0  0  0  0  0  0  0  0  0  0
   43.1870   23.2590   36.4530 C   0  0  0  0  0  3  0  0  0  0  0  0
   44.2280   23.4480   36.0690 H   0  0  0  0  0  0  0  0  0  0  0  0
   42.9260   23.1300   34.0870 O   0  0  0  0  0  0  0  0  0  0  0  0
   42.3400   22.5600   33.5260 H   0  0  0  0  0  0  0  0  0  0  0  0
  1  2  1  0  0  0  0
  1  4  1  6  0  0  0
  1 24  1  0  0  0  0
  2  6  1  0  0  0  0
  3  7  1  6  0  0  0
  3  1  1  0  0  0  0
  3  2  1  0  0  0  0
  5  2  1  0  0  0  0
  8 13  1  6  0  0  0
  8 19  1  0  0  0  0
  8  9  1  0  0  0  0
  9 14  1  1  0  0  0
  9  3  1  0  0  0  0
 10  9  1  0  0  0  0
 10 16  1  0  0  0  0
 11 10  1  0  0  0  0
 12 11  1  0  0  0  0
 12  8  1  0  0  0  0
 15 10  1  0  0  0  0
 17 12  1  0  0  0  0
 18 12  1  0  0  0  0
 20 21  1  0  0  0  0
 20 19  1  0  0  0  0
 22 20  1  0  0  0  0
 23 20  1  0  0  0  0
 24 25  1  0  0  0  0
 25 30  1  0  0  0  0
 25 26  2  0  0  0  0
 26 31  1  0  0  0  0
 27 26  1  0  0  0  0
 28 27  2  0  0  0  0
 29 28  1  0  0  0  0
 29 24  2  0  0  0  0
 32 39  1  6  0  0  0
 32 33  1  0  0  0  0
 32 37  1  0  0  0  0
 33 28  1  1  0  0  0
 33 34  1  0  0  0  0
 34 36  1  0  0  0  0
 35 34  1  0  0  0  0
 37 36  1  0  0  0  0
 38 37  1  0  0  0  0
 40 39  1  0  0  0  0
M  END
>  <minimizedAffinity>
-4.99470282

$$$$

 OpenBabel03272500413D

 40 43  0  0  1  0  0  0  0  0999 V2000
   36.7150   24.2270   31.4750 C   0  0  1  0  0  0  0  0  0  0  0  0
   37.6980   23.6960   30.5810 C   0  0  0  0  0  0  0  0  0  0  0  0
   37.1150   22.8200   31.6550 C   0  0  2  0  0  0  0  0  0  0  0  0
   35.7910   24.6080   31.0760 H   0  0  0  0  0  0  0  0  0  0  0  0
   37.4370   23.5040   29.5340 H   0  0  0  0  0  0  0  0  0  0  0  0
   38.7710   23.9830   30.6980 H   0  0  0  0  0  0  0  0  0  0  0  0
   37.7900   22.5490   32.4770 H   0  0  0  0  0  0  0  0  0  0  0  0
   36.9220   20.3800   31.2460 C   0  0  2  0  0  0  0  0  0  0  0  0
   36.2450   21.6830   31.2260 C   0  0  1  0  0  0  0  0  0  0  0  0
   35.1150   21.5320   32.1870 C   0  0  0  0  0  0  0  0  0  0  0  0
   35.4440   20.5020   33.0740 O   0  0  0  0  0  0  0  0  0  0  0  0
   35.9310   19.5640   32.2180 C   0  0  0  0  0  0  0  0  0  0  0  0
   36.9020   19.6120   30.4840 H   0  0  0  0  0  0  0  0  0  0  0  0
   35.9090   21.9070   30.1850 H   0  0  0  0  0  0  0  0  0  0  0  0
   34.3420   21.0190   31.5500 H   0  0  0  0  0  0  0  0  0  0  0  0
   34.5860   22.3620   32.5670 H   0  0  0  0  0  0  0  0  0  0  0  0
   36.3610   18.6640   32.5520 H   0  0  0  0  0  0  0  0  0  0  0  0
   35.0690   19.3400   31.5060 H   0  0  0  0  0  0  0  0  0  0  0  0
   38.0660   20.4150   32.0370 O   0  0  0  0  0  0  0  0  0  0  0  0
   39.0290   19.6070   31.8440 C   0  0  0  0  0  0  0  0  0  0  0  0
   39.8880   19.8520   32.5850 H   0  0  0  0  0  0  0  0  0  0  0  0
   39.5920   19.6810   30.8620 H   0  0  0  0  0  0  0  0  0  0  0  0
   38.9190   18.4970   32.0920 H   0  0  0  0  0  0  0  0  0  0  0  0
   37.0650   25.1110   32.6600 C   0  0  0  0  0  0  0  0  0  0  0  0
   36.7400   26.4550   32.5680 C   0  0  0  0  0  0  0  0  0  0  0  0
   37.1000   27.2320   33.6660 C   0  0  0  0  0  0  0  0  0  0  0  0
   37.7260   26.6530   34.7250 N   0  0  0  0  0  0  0  0  0  0  0  0
   38.0310   25.3310   34.7890 C   0  0  0  0  0  0  0  0  0  0  0  0
   37.6910   24.5570   33.7330 N   0  0  0  0  0  0  0  0  0  0  0  0
   36.2460   26.8880   31.7170 H   0  0  0  0  0  0  0  0  0  0  0  0
   36.8950   28.2920   33.6990 H   0  0  0  0  0  0  0  0  0  0  0  0
   37.6880   24.3030   36.9930 C   0  0  1  0  0  3  0  0  0  0  0  0
   38.7150   24.7490   35.9700 C   0  0  1  0  0  3  0  0  0  0  0  0
   39.4290   23.4830   35.6450 C   0  0  0  0  0  3  0  0  0  0  0  0
   40.4390   23.5120   36.1020 H   0  0  0  0  0  0  0  0  0  0  0  0
   38.7520   22.4200   36.2230 O   0  0  0  0  0  0  0  0  0  0  0  0
   37.5190   22.8550   36.6540 C   0  0  0  0  0  3  0  0  0  0  0  0
   37.2780   22.3360   37.6230 H   0  0  0  0  0  0  0  0  0  0  0  0
   38.1650   24.4530   38.3010 O   0  0  0  0  0  0  0  0  0  0  0  0
   38.9100   25.1060   38.3180 H   0  0  0  0  0  0  0  0  0  0  0  0
  1  4  1  6  0  0  0
  1  3  1  0  0  0  0
  1 24  1  0  0  0  0
  2  6  1  0  0  0  0
  2  1  1  0  0  0  0
  2  3  1  0  0  0  0
  3  7  1  1  0  0  0
  5  2  1  0  0  0  0
  8 13  1  6  0  0  0
  8 19  1  0  0  0  0
  8 12  1  0  0  0  0
  9 14  1  6  0  0  0
  9  8  1  0  0  0  0
  9  3  1  0  0  0  0
  9 10  1  0  0  0  0
 10 16  1  0  0  0  0
 10 11  1  0  0  0  0
 12 17  1  0  0  0  0
 12 11  1  0  0  0  0
 15 10  1  0  0  0  0
 18 12  1  0  0  0  0
 20 19  1  0  0  0  0
 20 23  1  0  0  0  0
 20 21  1  0  0  0  0
 22 20  1  0  0  0  0
 24 29  1  0  0  0  0
 25 24  2  0  0  0  0
 25 26  1  0  0  0  0
 26 31  1  0  0  0  0
 26 27  2  0  0  0  0
 27 28  1  0  0  0  0
 29 28  2  0  0  0  0
 30 25  1  0  0  0  0
 32 39  1  1  0  0  0
 33 28  1  6  0  0  0
 33 32  1  0  0  0  0
 34 33  1  0  0  0  0
 34 35  1  0  0  0  0
 34 36  1  0  0  0  0
 36 37  1  0  0  0  0
 37 32  1  0  0  0  0
 37 38  1  0  0  0  0
 39 40  1  0  0  0  0
M  END
>  <minimizedAffinity>
-4.98172998

$$$$

 OpenBabel03272500413D

 40 43  0  0  1  0  0  0  0  0999 V2000
   40.8250   27.0380   33.7690 C   0  0  1  0  0  0  0  0  0  0  0  0
   41.2170   27.5100   32.4770 C   0  0  0  0  0  0  0  0  0  0  0  0
   40.0550   26.5660   32.6050 C   0  0  2  0  0  0  0  0  0  0  0  0
   40.5250   27.7460   34.5210 H   0  0  0  0  0  0  0  0  0  0  0  0
   41.0310   28.5540   32.1980 H   0  0  0  0  0  0  0  0  0  0  0  0
   42.1380   27.1070   31.9910 H   0  0  0  0  0  0  0  0  0  0  0  0
   40.2150   25.5490   32.2240 H   0  0  0  0  0  0  0  0  0  0  0  0
   37.9560   26.2750   31.3130 C   0  0  2  0  0  0  0  0  0  0  0  0
   38.6940   27.0930   32.2820 C   0  0  1  0  0  0  0  0  0  0  0  0
   37.8490   27.0720   33.5110 C   0  0  0  0  0  0  0  0  0  0  0  0
   37.0480   25.9270   33.4560 O   0  0  0  0  0  0  0  0  0  0  0  0
   36.6250   25.9640   32.1650 C   0  0  0  0  0  0  0  0  0  0  0  0
   37.3960   26.6130   30.4510 H   0  0  0  0  0  0  0  0  0  0  0  0
   38.8350   28.1200   31.8650 H   0  0  0  0  0  0  0  0  0  0  0  0
   37.0900   27.8690   33.2790 H   0  0  0  0  0  0  0  0  0  0  0  0
   38.2190   27.3720   34.4530 H   0  0  0  0  0  0  0  0  0  0  0  0
   36.0550   25.1920   31.7350 H   0  0  0  0  0  0  0  0  0  0  0  0
   36.0700   26.9550   32.0650 H   0  0  0  0  0  0  0  0  0  0  0  0
   38.4900   24.9940   31.2200 O   0  0  0  0  0  0  0  0  0  0  0  0
   38.0070   24.1300   30.4210 C   0  0  0  0  0  0  0  0  0  0  0  0
   38.6390   23.1590   30.4800 H   0  0  0  0  0  0  0  0  0  0  0  0
   38.0760   24.3420   29.3090 H   0  0  0  0  0  0  0  0  0  0  0  0
   36.9820   23.6640   30.6170 H   0  0  0  0  0  0  0  0  0  0  0  0
   41.5580   25.9240   34.4990 C   0  0  0  0  0  0  0  0  0  0  0  0
   42.9180   26.0880   34.7080 C   0  0  0  0  0  0  0  0  0  0  0  0
   43.5520   25.0350   35.3600 C   0  0  0  0  0  0  0  0  0  0  0  0
   42.8320   23.9470   35.7420 N   0  0  0  0  0  0  0  0  0  0  0  0
   41.4980   23.8130   35.5250 C   0  0  0  0  0  0  0  0  0  0  0  0
   40.8600   24.8240   34.8930 N   0  0  0  0  0  0  0  0  0  0  0  0
   43.4640   26.9600   34.3950 H   0  0  0  0  0  0  0  0  0  0  0  0
   44.6110   25.0580   35.5730 H   0  0  0  0  0  0  0  0  0  0  0  0
   40.7510   22.5230   37.4770 C   0  0  1  0  0  3  0  0  0  0  0  0
   40.7590   22.6030   35.9630 C   0  0  1  0  0  3  0  0  0  0  0  0
   39.3090   22.6740   35.6290 C   0  0  0  0  0  3  0  0  0  0  0  0
   38.9930   21.7040   35.1900 H   0  0  0  0  0  0  0  0  0  0  0  0
   38.5830   22.8460   36.7980 O   0  0  0  0  0  0  0  0  0  0  0  0
   39.4470   23.1730   37.8180 C   0  0  0  0  0  3  0  0  0  0  0  0
   39.0890   22.6720   38.7600 H   0  0  0  0  0  0  0  0  0  0  0  0
   40.7740   21.1950   37.9220 O   0  0  0  0  0  0  0  0  0  0  0  0
   41.1180   20.6030   37.2060 H   0  0  0  0  0  0  0  0  0  0  0  0
  1 24  1  0  0  0  0
  1  4  1  1  0  0  0
  2  3  1  0  0  0  0
  2  1  1  0  0  0  0
  3  7  1  6  0  0  0
  3  1  1  0  0  0  0
  5  2  1  0  0  0  0
  6  2  1  0  0  0  0
  8 13  1  6  0  0  0
  8 12  1  0  0  0  0
  8  9  1  0  0  0  0
  9 14  1  6  0  0  0
  9  3  1  0  0  0  0
  9 10  1  0  0  0  0
 10 16  1  0  0  0  0
 11 10  1  0  0  0  0
 12 11  1  0  0  0  0
 15 10  1  0  0  0  0
 17 12  1  0  0  0  0
 18 12  1  0  0  0  0
 19  8  1  0  0  0  0
 20 21  1  0  0  0  0
 20 23  1  0  0  0  0
 20 19  1  0  0  0  0
 22 20  1  0  0  0  0
 24 25  2  0  0  0  0
 24 29  1  0  0  0  0
 25 26  1  0  0  0  0
 26 31  1  0  0  0  0
 26 27  2  0  0  0  0
 28 27  1  0  0  0  0
 29 28  2  0  0  0  0
 30 25  1  0  0  0  0
 32 37  1  0  0  0  0
 32 39  1  6  0  0  0
 33 28  1  1  0  0  0
 33 32  1  0  0  0  0
 34 33  1  0  0  0  0
 34 36  1  0  0  0  0
 35 34  1  0  0  0  0
 36 37  1  0  0  0  0
 37 38  1  0  0  0  0
 40 39  1  0  0  0  0
M  END
>  <minimizedAffinity>
-4.96078539

$$$$
