
 OpenBabel03272507503D

 28 30  0  0  1  0  0  0  0  0999 V2000
   36.6740   29.6020   49.4140 C   0  0  0  0  0  0  0  0  0  0  0  0
   36.5180   30.6130   48.4500 C   0  0  0  0  0  0  0  0  0  0  0  0
   35.4500   30.4870   47.5690 C   0  0  0  0  0  0  0  0  0  0  0  0
   34.6250   29.4240   47.6710 N   0  0  0  0  0  0  0  0  0  0  0  0
   34.8040   28.4650   48.6140 C   0  0  0  0  0  0  0  0  0  0  0  0
   35.8400   28.5470   49.5000 N   0  0  0  0  0  0  0  0  0  0  0  0
   35.3300   31.2700   46.8230 H   0  0  0  0  0  0  0  0  0  0  0  0
   34.0670   27.6630   48.5870 H   0  0  0  0  0  0  0  0  0  0  0  0
   37.4480   31.6790   48.4410 N   0  0  0  0  0  0  0  0  0  0  0  0
   37.4900   32.6110   49.3960 C   0  0  0  0  0  0  0  0  0  0  0  0
   38.4250   33.6460   49.3510 C   0  0  0  0  0  0  0  0  0  0  0  0
   39.2620   33.5890   48.2470 C   0  0  0  0  0  0  0  0  0  0  0  0
   40.1170   34.5310   48.2000 O   0  0  0  0  0  0  0  0  0  0  0  0
   39.2550   32.6790   47.2700 N   0  0  0  0  0  0  0  0  0  0  0  0
   38.3170   31.7160   47.3970 C   0  0  0  0  0  0  0  0  0  0  0  0
   38.3000   30.8440   46.4720 O   0  0  0  0  0  0  0  0  0  0  0  0
   36.8060   32.6060   50.2310 H   0  0  0  0  0  0  0  0  0  0  0  0
   38.4920   34.4070   50.0910 H   0  0  0  0  0  0  0  0  0  0  0  0
   39.9320   32.7300   46.4800 H   0  0  0  0  0  0  0  0  0  0  0  0
   37.3320   30.0070   51.7870 C   0  0  2  0  0  3  0  0  0  0  0  0
   37.7450   29.5490   50.4380 C   0  0  1  0  0  3  0  0  0  0  0  0
   38.2720   28.1690   50.6580 C   0  0  0  0  0  3  0  0  0  0  0  0
   39.2310   28.0050   50.0870 H   0  0  0  0  0  0  0  0  0  0  0  0
   38.5690   28.0190   51.9940 O   0  0  0  0  0  0  0  0  0  0  0  0
   37.8450   28.9420   52.7150 C   0  0  0  0  0  3  0  0  0  0  0  0
   36.9850   28.4720   53.2560 H   0  0  0  0  0  0  0  0  0  0  0  0
   35.9530   30.0940   51.8650 O   0  0  0  0  0  0  0  0  0  0  0  0
   35.6680   29.7580   52.7570 H   0  0  0  0  0  0  0  0  0  0  0  0
  1  6  1  0  0  0  0
  2  1  2  0  0  0  0
  3  4  2  0  0  0  0
  3  2  1  0  0  0  0
  4  5  1  0  0  0  0
  5  6  2  0  0  0  0
  7  3  1  0  0  0  0
  8  5  1  0  0  0  0
  9  2  1  0  0  0  0
  9 10  1  0  0  0  0
 10 17  1  0  0  0  0
 11 10  2  0  0  0  0
 11 18  1  0  0  0  0
 12 11  1  0  0  0  0
 13 12  2  0  0  0  0
 14 15  1  0  0  0  0
 14 12  1  0  0  0  0
 15  9  1  0  0  0  0
 16 15  2  0  0  0  0
 19 14  1  0  0  0  0
 20 27  1  6  0  0  0
 20 25  1  0  0  0  0
 21  1  1  6  0  0  0
 21 22  1  0  0  0  0
 21 20  1  0  0  0  0
 22 24  1  0  0  0  0
 23 22  1  0  0  0  0
 24 25  1  0  0  0  0
 25 26  1  0  0  0  0
 27 28  1  0  0  0  0
M  END
>  <minimizedAffinity>
-3.05806589

>  <minimizedRMSD>
0.8430475

$$$$
