
 OpenBabel03272505263D

 31 33  0  0  1  0  0  0  0  0999 V2000
   37.4590   31.0870   46.9720 N   0  0  0  0  0  0  0  0  0  0  0  0
   36.9290   30.6880   45.7830 C   0  0  0  0  0  0  0  0  0  0  0  0
   37.4340   31.1150   44.5660 C   0  0  0  0  0  0  0  0  0  0  0  0
   38.5330   31.9880   44.5970 C   0  0  0  0  0  0  0  0  0  0  0  0
   39.0170   32.3930   43.5200 O   0  0  0  0  0  0  0  0  0  0  0  0
   39.0660   32.3900   45.7850 N   0  0  0  0  0  0  0  0  0  0  0  0
   38.4880   31.9090   46.8950 C   0  0  0  0  0  0  0  0  0  0  0  0
   39.0080   32.3050   47.9630 O   0  0  0  0  0  0  0  0  0  0  0  0
   36.0780   30.0100   45.7950 H   0  0  0  0  0  0  0  0  0  0  0  0
   37.2380   29.6340   50.3810 C   0  0  0  0  0  0  0  0  0  0  0  0
   37.7540   30.0750   49.1550 C   0  0  0  0  0  0  0  0  0  0  0  0
   36.9400   30.6460   48.1900 C   0  0  0  0  0  0  0  0  0  0  0  0
   35.6080   30.7720   48.4600 N   0  0  0  0  0  0  0  0  0  0  0  0
   35.0980   30.3430   49.6550 C   0  0  0  0  0  0  0  0  0  0  0  0
   35.8980   29.7820   50.6050 N   0  0  0  0  0  0  0  0  0  0  0  0
   37.7980   29.1860   51.1700 H   0  0  0  0  0  0  0  0  0  0  0  0
   38.8100   29.8870   49.1130 H   0  0  0  0  0  0  0  0  0  0  0  0
   34.0450   30.4980   49.7400 H   0  0  0  0  0  0  0  0  0  0  0  0
   35.4450   30.0910   43.6580 C   0  0  2  0  0  3  0  0  0  0  0  0
   36.8140   30.6450   43.3430 C   0  0  2  0  0  3  0  0  0  0  0  0
   37.4810   29.4930   42.6680 C   0  0  0  0  0  3  0  0  0  0  0  0
   38.5710   29.4650   42.7410 H   0  0  0  0  0  0  0  0  0  0  0  0
   36.8630   28.3330   43.1070 O   0  0  0  0  0  0  0  0  0  0  0  0
   35.5380   28.6510   43.2560 C   0  0  0  0  0  3  0  0  0  0  0  0
   34.9500   28.4710   42.3100 H   0  0  0  0  0  0  0  0  0  0  0  0
   34.4770   30.7790   42.8970 O   0  0  0  0  0  0  0  0  0  0  0  0
   34.4900   31.7230   43.1720 H   0  0  0  0  0  0  0  0  0  0  0  0
   40.1960   33.2900   45.8110 C   0  0  0  0  0  0  0  0  0  0  0  0
   40.0200   34.2720   44.8640 F   0  0  0  0  0  0  0  0  0  0  0  0
   41.3930   32.6760   45.5450 F   0  0  0  0  0  0  0  0  0  0  0  0
   40.2280   33.9250   47.0530 F   0  0  0  0  0  0  0  0  0  0  0  0
  1 12  1  0  0  0  0
  2  9  1  0  0  0  0
  2  1  1  0  0  0  0
  3  4  1  0  0  0  0
  3  2  2  0  0  0  0
  4  6  1  0  0  0  0
  5  4  2  0  0  0  0
  6 28  1  0  0  0  0
  6  7  1  0  0  0  0
  7  1  1  0  0  0  0
  7  8  2  0  0  0  0
 10 15  1  0  0  0  0
 10 16  1  0  0  0  0
 11 10  2  0  0  0  0
 12 13  2  0  0  0  0
 12 11  1  0  0  0  0
 13 14  1  0  0  0  0
 14 18  1  0  0  0  0
 14 15  2  0  0  0  0
 17 11  1  0  0  0  0
 19 26  1  6  0  0  0
 20 19  1  0  0  0  0
 20  3  1  1  0  0  0
 21 22  1  0  0  0  0
 21 23  1  0  0  0  0
 21 20  1  0  0  0  0
 23 24  1  0  0  0  0
 24 19  1  0  0  0  0
 25 24  1  0  0  0  0
 26 27  1  0  0  0  0
 28 31  1  0  0  0  0
 29 28  1  0  0  0  0
 30 28  1  0  0  0  0
M  END
>  <minimizedAffinity>
-6.11015129

>  <minimizedRMSD>
1.40339148

$$$$
