
 OpenBabel03272504323D

 40 43  0  0  1  0  0  0  0  0999 V2000
   34.9210   29.5570   47.4940 C   0  0  0  0  0  0  0  0  0  0  0  0
   35.0580   29.9510   46.1630 C   0  0  0  0  0  0  0  0  0  0  0  0
   33.9970   29.7860   45.2910 C   0  0  0  0  0  0  0  0  0  0  0  0
   32.8430   29.2340   45.7820 N   0  0  0  0  0  0  0  0  0  0  0  0
   32.7450   28.8640   47.0780 C   0  0  0  0  0  0  0  0  0  0  0  0
   33.7800   29.0240   47.9320 N   0  0  0  0  0  0  0  0  0  0  0  0
   35.9910   30.3780   45.8410 H   0  0  0  0  0  0  0  0  0  0  0  0
   34.0840   30.0810   44.2700 H   0  0  0  0  0  0  0  0  0  0  0  0
   35.9860   29.7050   48.4410 N   0  0  0  0  0  0  0  0  0  0  0  0
   36.0560   28.8930   49.6450 C   0  0  0  0  0  0  0  0  0  0  0  0
   36.4180   29.6440   50.8830 C   0  0  0  0  0  0  0  0  0  0  0  0
   37.1920   30.8160   50.7540 N   0  0  0  0  0  0  0  0  0  0  0  0
   36.9120   31.5690   49.5400 C   0  0  0  0  0  0  0  0  0  0  0  0
   37.0780   30.5970   48.3860 C   0  0  0  0  0  0  0  0  0  0  0  0
   35.0640   28.3910   49.7870 H   0  0  0  0  0  0  0  0  0  0  0  0
   36.7580   28.0600   49.4430 H   0  0  0  0  0  0  0  0  0  0  0  0
   35.4680   29.8590   51.4480 H   0  0  0  0  0  0  0  0  0  0  0  0
   36.9770   28.9210   51.5480 H   0  0  0  0  0  0  0  0  0  0  0  0
   36.9410   31.4660   51.5580 H   0  0  0  0  0  0  0  0  0  0  0  0
   37.7520   32.3080   49.4270 H   0  0  0  0  0  0  0  0  0  0  0  0
   35.9560   32.0900   49.5390 H   0  0  0  0  0  0  0  0  0  0  0  0
   37.1330   31.1390   47.4070 H   0  0  0  0  0  0  0  0  0  0  0  0
   38.0330   30.0740   48.5330 H   0  0  0  0  0  0  0  0  0  0  0  0
   31.5010   28.2820   47.5620 C   0  0  0  0  0  0  0  0  0  0  0  0
   31.5130   27.2910   48.5210 C   0  0  0  0  0  0  0  0  0  0  0  0
   30.3620   26.6990   49.0200 C   0  0  0  0  0  0  0  0  0  0  0  0
   29.1960   27.1650   48.4940 N   0  0  0  0  0  0  0  0  0  0  0  0
   29.1960   28.1230   47.5660 C   0  0  0  0  0  0  0  0  0  0  0  0
   30.3260   28.7060   47.0750 N   0  0  0  0  0  0  0  0  0  0  0  0
   32.4810   26.9890   48.8770 H   0  0  0  0  0  0  0  0  0  0  0  0
   30.4910   25.9320   49.7710 H   0  0  0  0  0  0  0  0  0  0  0  0
   27.5000   27.6530   45.8760 C   0  0  1  0  0  3  0  0  0  0  0  0
   27.8350   28.5070   47.1070 C   0  0  2  0  0  3  0  0  0  0  0  0
   27.8210   29.8780   46.4780 C   0  0  0  0  0  3  0  0  0  0  0  0
   28.4450   30.5590   47.0950 H   0  0  0  0  0  0  0  0  0  0  0  0
   28.3230   29.7240   45.1980 O   0  0  0  0  0  0  0  0  0  0  0  0
   28.1470   28.4290   44.7820 C   0  0  0  0  0  3  0  0  0  0  0  0
   29.1320   27.9790   44.5020 H   0  0  0  0  0  0  0  0  0  0  0  0
   27.9990   26.3680   46.0250 O   0  0  0  0  0  0  0  0  0  0  0  0
   27.4290   25.8880   46.6720 H   0  0  0  0  0  0  0  0  0  0  0  0
  1  6  1  0  0  0  0
  1  9  1  0  0  0  0
  2  1  2  0  0  0  0
  3  4  2  0  0  0  0
  3  2  1  0  0  0  0
  4  5  1  0  0  0  0
  5 24  1  0  0  0  0
  5  6  2  0  0  0  0
  7  2  1  0  0  0  0
  8  3  1  0  0  0  0
  9 10  1  0  0  0  0
 10 15  1  0  0  0  0
 10 11  1  0  0  0  0
 11 17  1  0  0  0  0
 11 18  1  0  0  0  0
 12 11  1  0  0  0  0
 12 19  1  0  0  0  0
 13 12  1  0  0  0  0
 14  9  1  0  0  0  0
 14 23  1  0  0  0  0
 14 13  1  0  0  0  0
 16 10  1  0  0  0  0
 20 13  1  0  0  0  0
 21 13  1  0  0  0  0
 22 14  1  0  0  0  0
 24 25  1  0  0  0  0
 25 30  1  0  0  0  0
 25 26  2  0  0  0  0
 26 31  1  0  0  0  0
 27 26  1  0  0  0  0
 28 27  2  0  0  0  0
 29 24  2  0  0  0  0
 29 28  1  0  0  0  0
 32 39  1  1  0  0  0
 32 33  1  0  0  0  0
 33 28  1  6  0  0  0
 34 35  1  0  0  0  0
 34 33  1  0  0  0  0
 36 34  1  0  0  0  0
 37 36  1  0  0  0  0
 37 32  1  0  0  0  0
 38 37  1  0  0  0  0
 39 40  1  0  0  0  0
M  END
>  <minimizedAffinity>
-5.07105589

>  <minimizedRMSD>
1.27527273

$$$$
