
 OpenBabel03272504533D

 25 27  0  0  1  0  0  0  0  0999 V2000
   37.1250   31.2840   49.2160 C   0  0  0  0  0  0  0  0  0  0  0  0
   37.3550   32.5440   49.7950 C   0  0  0  0  0  0  0  0  0  0  0  0
   38.3060   33.3310   49.1700 C   0  0  0  0  0  0  0  0  0  0  0  0
   38.9630   32.8760   48.0570 N   0  0  0  0  0  0  0  0  0  0  0  0
   38.7090   31.6480   47.5300 C   0  0  0  0  0  0  0  0  0  0  0  0
   37.7820   30.8520   48.1190 N   0  0  0  0  0  0  0  0  0  0  0  0
   36.8320   32.8750   50.6580 H   0  0  0  0  0  0  0  0  0  0  0  0
   38.5110   34.3080   49.5870 H   0  0  0  0  0  0  0  0  0  0  0  0
   36.0750   30.4130   49.8590 C   0  0  0  0  0  0  0  0  0  0  0  0
   36.0670   28.9700   49.6500 C   0  0  0  0  0  0  0  0  0  0  0  0
   36.6490   29.5020   50.9320 C   0  0  0  0  0  0  0  0  0  0  0  0
   35.1630   30.9950   50.1480 H   0  0  0  0  0  0  0  0  0  0  0  0
   36.8130   28.5740   48.9000 H   0  0  0  0  0  0  0  0  0  0  0  0
   35.1260   28.4040   49.6360 H   0  0  0  0  0  0  0  0  0  0  0  0
   37.7260   29.4840   51.1250 H   0  0  0  0  0  0  0  0  0  0  0  0
   35.9770   29.3710   51.8020 H   0  0  0  0  0  0  0  0  0  0  0  0
   39.8960   32.3790   45.4660 C   0  0  2  0  0  3  0  0  0  0  0  0
   39.4570   31.2130   46.3200 C   0  0  2  0  0  3  0  0  0  0  0  0
   38.6260   30.3810   45.3830 C   0  0  0  0  0  3  0  0  0  0  0  0
   38.7930   29.3130   45.6030 H   0  0  0  0  0  0  0  0  0  0  0  0
   38.9900   30.7190   44.0990 O   0  0  0  0  0  0  0  0  0  0  0  0
   39.3130   32.0810   44.1210 C   0  0  0  0  0  3  0  0  0  0  0  0
   38.4260   32.7190   43.9410 H   0  0  0  0  0  0  0  0  0  0  0  0
   41.2820   32.4600   45.3260 O   0  0  0  0  0  0  0  0  0  0  0  0
   41.6410   31.5430   45.5300 H   0  0  0  0  0  0  0  0  0  0  0  0
  1  2  1  0  0  0  0
  1  9  1  0  0  0  0
  2  7  1  0  0  0  0
  3  8  1  0  0  0  0
  3  2  2  0  0  0  0
  4  3  1  0  0  0  0
  5  4  2  0  0  0  0
  5  6  1  0  0  0  0
  6  1  2  0  0  0  0
  9 12  1  0  0  0  0
  9 11  1  0  0  0  0
 10  9  1  0  0  0  0
 10 11  1  0  0  0  0
 11 15  1  0  0  0  0
 11 16  1  0  0  0  0
 13 10  1  0  0  0  0
 14 10  1  0  0  0  0
 17 24  1  6  0  0  0
 17 18  1  0  0  0  0
 18  5  1  1  0  0  0
 19 20  1  0  0  0  0
 19 18  1  0  0  0  0
 21 22  1  0  0  0  0
 21 19  1  0  0  0  0
 22 17  1  0  0  0  0
 23 22  1  0  0  0  0
 24 25  1  0  0  0  0
M  END
>  <minimizedAffinity>
-5.50735855

>  <minimizedRMSD>
0.613453448

$$$$
