
 OpenBabel03272508183D

 25 27  0  0  1  0  0  0  0  0999 V2000
   36.8360   29.9310   48.8940 C   0  0  0  0  0  0  0  0  0  0  0  0
   37.2280   30.5790   47.7190 C   0  0  0  0  0  0  0  0  0  0  0  0
   36.2720   30.5300   46.6820 C   0  0  0  0  0  0  0  0  0  0  0  0
   35.0780   29.8880   46.8680 N   0  0  0  0  0  0  0  0  0  0  0  0
   34.7560   29.2760   48.0400 C   0  0  0  0  0  0  0  0  0  0  0  0
   35.6410   29.3000   49.0500 N   0  0  0  0  0  0  0  0  0  0  0  0
   36.3340   30.9460   45.7050 H   0  0  0  0  0  0  0  0  0  0  0  0
   33.8070   28.7770   48.1630 H   0  0  0  0  0  0  0  0  0  0  0  0
   37.7910   30.0650   50.0540 C   0  0  0  0  0  0  0  0  0  0  0  0
   37.3170   30.3360   51.3860 C   0  0  0  0  0  0  0  0  0  0  0  0
   37.6190   28.9000   51.0440 C   0  0  0  0  0  0  0  0  0  0  0  0
   38.8550   30.1520   49.7470 H   0  0  0  0  0  0  0  0  0  0  0  0
   36.2090   30.5130   51.5150 H   0  0  0  0  0  0  0  0  0  0  0  0
   37.9710   30.7630   52.1620 H   0  0  0  0  0  0  0  0  0  0  0  0
   38.5630   28.4600   51.4080 H   0  0  0  0  0  0  0  0  0  0  0  0
   36.8090   28.1910   50.8520 H   0  0  0  0  0  0  0  0  0  0  0  0
   38.6990   31.8090   46.0920 C   0  0  2  0  0  0  0  0  0  0  0  0
   38.4790   31.2750   47.4940 C   0  0  1  0  0  0  0  0  0  0  0  0
   38.4560   32.6500   48.1940 C   0  0  0  0  0  0  0  0  0  0  0  0
   37.6080   33.2140   47.7460 H   0  0  0  0  0  0  0  0  0  0  0  0
   39.5950   33.2920   47.6890 O   0  0  0  0  0  0  0  0  0  0  0  0
   39.7930   32.8160   46.4050 C   0  0  0  0  0  0  0  0  0  0  0  0
   39.8790   33.5890   45.6280 H   0  0  0  0  0  0  0  0  0  0  0  0
   37.5840   32.4510   45.6110 O   0  0  0  0  0  0  0  0  0  0  0  0
   37.4930   32.2230   44.6350 H   0  0  0  0  0  0  0  0  0  0  0  0
  1  6  1  0  0  0  0
  1  9  1  0  0  0  0
  2  1  2  0  0  0  0
  3  4  2  0  0  0  0
  3  2  1  0  0  0  0
  4  5  1  0  0  0  0
  5  8  1  0  0  0  0
  5  6  2  0  0  0  0
  7  3  1  0  0  0  0
  9 11  1  0  0  0  0
  9 10  1  0  0  0  0
 10 13  1  0  0  0  0
 10 14  1  0  0  0  0
 11 10  1  0  0  0  0
 11 15  1  0  0  0  0
 12  9  1  0  0  0  0
 16 11  1  0  0  0  0
 17 24  1  1  0  0  0
 17 22  1  0  0  0  0
 17 18  1  0  0  0  0
 18  2  1  6  0  0  0
 18 19  1  0  0  0  0
 20 19  1  0  0  0  0
 21 19  1  0  0  0  0
 22 21  1  0  0  0  0
 23 22  1  0  0  0  0
 25 24  1  0  0  0  0
M  END
>  <minimizedAffinity>
-5.34912491

>  <minimizedRMSD>
4.25478077

$$$$
