
 OpenBabel03262521333D

 25 27  0  0  1  0  0  0  0  0999 V2000
   37.5080   32.2950   48.8580 C   0  0  1  0  0  0  0  0  0  0  0  0
   38.8060   32.9090   49.0730 C   0  0  0  0  0  0  0  0  0  0  0  0
   38.6600   31.8380   47.9850 C   0  0  2  0  0  0  0  0  0  0  0  0
   36.7230   32.9130   48.3480 H   0  0  0  0  0  0  0  0  0  0  0  0
   39.0360   33.9480   48.7850 H   0  0  0  0  0  0  0  0  0  0  0  0
   39.3790   32.5500   49.9510 H   0  0  0  0  0  0  0  0  0  0  0  0
   39.1060   30.8380   48.1870 H   0  0  0  0  0  0  0  0  0  0  0  0
   35.2590   29.6730   50.3210 C   0  0  0  0  0  0  0  0  0  0  0  0
   35.7320   30.6660   49.4580 C   0  0  0  0  0  0  0  0  0  0  0  0
   36.9750   31.2370   49.7310 C   0  0  0  0  0  0  0  0  0  0  0  0
   37.6550   30.7890   50.8290 N   0  0  0  0  0  0  0  0  0  0  0  0
   37.1740   29.8280   51.6470 C   0  0  0  0  0  0  0  0  0  0  0  0
   35.9620   29.2630   51.3920 N   0  0  0  0  0  0  0  0  0  0  0  0
   34.2950   29.1840   50.1670 H   0  0  0  0  0  0  0  0  0  0  0  0
   35.1040   30.9310   48.6250 H   0  0  0  0  0  0  0  0  0  0  0  0
   37.8450   29.5970   52.4690 H   0  0  0  0  0  0  0  0  0  0  0  0
   37.9600   31.7690   45.5460 C   0  0  1  0  0  0  0  0  0  0  0  0
   38.7910   32.4030   46.5940 C   0  0  2  0  0  0  0  0  0  0  0  0
   40.2200   32.1790   46.0700 C   0  0  0  0  0  0  0  0  0  0  0  0
   40.9490   32.2220   46.9100 H   0  0  0  0  0  0  0  0  0  0  0  0
   40.1360   30.9000   45.5800 O   0  0  0  0  0  0  0  0  0  0  0  0
   38.8990   30.7030   45.0030 C   0  0  0  0  0  0  0  0  0  0  0  0
   38.4590   29.7130   45.2500 H   0  0  0  0  0  0  0  0  0  0  0  0
   36.7900   31.2000   46.0190 O   0  0  0  0  0  0  0  0  0  0  0  0
   36.7490   30.2770   45.6810 H   0  0  0  0  0  0  0  0  0  0  0  0
  1  4  1  6  0  0  0
  1  2  1  0  0  0  0
  1 10  1  0  0  0  0
  2  6  1  0  0  0  0
  3  7  1  1  0  0  0
  3  1  1  0  0  0  0
  3  2  1  0  0  0  0
  5  2  1  0  0  0  0
  8 13  1  0  0  0  0
  9 10  1  0  0  0  0
  9  8  2  0  0  0  0
 10 11  2  0  0  0  0
 11 12  1  0  0  0  0
 12 16  1  0  0  0  0
 13 12  2  0  0  0  0
 14  8  1  0  0  0  0
 15  9  1  0  0  0  0
 17 24  1  1  0  0  0
 17 18  1  0  0  0  0
 18 19  1  6  0  0  0
 18  3  1  0  0  0  0
 19 20  1  0  0  0  0
 21 19  1  0  0  0  0
 22 23  1  0  0  0  0
 22 17  1  0  0  0  0
 22 21  1  0  0  0  0
 25 24  1  0  0  0  0
M  END
>  <minimizedAffinity>
-5.43978357

>  <minimizedRMSD>
3.16679406

$$$$
