
 OpenBabel03272500073D

 39 42  0  0  1  0  0  0  0  0999 V2000
   32.3650   26.7990   47.9110 O   0  0  0  0  0  0  0  0  0  0  0  0
   31.0280   27.1410   48.1880 C   0  0  0  0  0  0  0  0  0  0  0  0
   30.8840   27.7240   49.4500 C   0  0  0  0  0  0  0  0  0  0  0  0
   29.6490   28.1270   49.9010 C   0  0  0  0  0  0  0  0  0  0  0  0
   28.5480   27.9430   49.0760 C   0  0  0  0  0  0  0  0  0  0  0  0
   28.7230   27.3680   47.8430 C   0  0  0  0  0  0  0  0  0  0  0  0
   29.9460   26.9510   47.3570 C   0  0  0  0  0  0  0  0  0  0  0  0
   31.7020   27.8950   50.1430 H   0  0  0  0  0  0  0  0  0  0  0  0
   29.5180   28.5790   50.8730 H   0  0  0  0  0  0  0  0  0  0  0  0
   27.5710   28.2600   49.4250 H   0  0  0  0  0  0  0  0  0  0  0  0
   27.8330   27.2510   47.2460 H   0  0  0  0  0  0  0  0  0  0  0  0
   30.4420   27.2990   44.9380 C   0  0  2  0  0  3  0  0  0  0  0  0
   30.1660   26.3240   46.0670 C   0  0  1  0  0  3  0  0  0  0  0  0
   31.5000   25.5610   45.9750 C   0  0  0  0  0  3  0  0  0  0  0  0
   32.3430   26.2360   46.2480 H   0  0  0  0  0  0  0  0  0  0  0  0
   31.6640   25.3200   44.6120 O   0  0  0  0  0  0  0  0  0  0  0  0
   30.9440   26.2730   43.9120 C   0  0  0  0  0  3  0  0  0  0  0  0
   31.5320   26.7640   43.1190 H   0  0  0  0  0  0  0  0  0  0  0  0
   31.4880   28.1290   45.2440 O   0  0  0  0  0  0  0  0  0  0  0  0
   31.1910   29.0450   45.4900 H   0  0  0  0  0  0  0  0  0  0  0  0
   35.2240   28.6180   49.0870 C   0  0  0  0  0  0  0  0  0  0  0  0
   35.1530   29.8330   48.3910 C   0  0  0  0  0  0  0  0  0  0  0  0
   34.0890   30.0030   47.5050 C   0  0  0  0  0  0  0  0  0  0  0  0
   33.1920   28.9900   47.3710 N   0  0  0  0  0  0  0  0  0  0  0  0
   33.2850   27.8440   48.0480 C   0  0  0  0  0  0  0  0  0  0  0  0
   34.3110   27.6460   48.9190 N   0  0  0  0  0  0  0  0  0  0  0  0
   36.0630   28.4910   49.7820 H   0  0  0  0  0  0  0  0  0  0  0  0
   34.0200   30.9260   46.9640 H   0  0  0  0  0  0  0  0  0  0  0  0
   36.1560   30.8080   48.6210 N   0  0  0  0  0  0  0  0  0  0  0  0
   36.2820   31.4420   49.7800 C   0  0  0  0  0  0  0  0  0  0  0  0
   37.2950   32.3890   49.9290 C   0  0  0  0  0  0  0  0  0  0  0  0
   38.0890   32.5860   48.8430 C   0  0  0  0  0  0  0  0  0  0  0  0
   39.0090   33.4390   48.9620 O   0  0  0  0  0  0  0  0  0  0  0  0
   37.9950   31.9740   47.6730 N   0  0  0  0  0  0  0  0  0  0  0  0
   36.9950   31.0520   47.5560 C   0  0  0  0  0  0  0  0  0  0  0  0
   36.8910   30.4560   46.4400 O   0  0  0  0  0  0  0  0  0  0  0  0
   35.6240   31.2470   50.6100 H   0  0  0  0  0  0  0  0  0  0  0  0
   37.3960   32.9040   50.8730 H   0  0  0  0  0  0  0  0  0  0  0  0
   38.6460   32.1810   46.8840 H   0  0  0  0  0  0  0  0  0  0  0  0
  1 25  1  0  0  0  0
  1  2  1  0  0  0  0
  2  3  1  0  0  0  0
  3  4  2  0  0  0  0
  3  8  1  0  0  0  0
  4  9  1  0  0  0  0
  5 10  1  0  0  0  0
  5  4  1  0  0  0  0
  6  5  2  0  0  0  0
  7  6  1  0  0  0  0
  7  2  2  0  0  0  0
 11  6  1  0  0  0  0
 12 19  1  1  0  0  0
 12 13  1  0  0  0  0
 13  7  1  1  0  0  0
 14 13  1  0  0  0  0
 14 15  1  0  0  0  0
 16 14  1  0  0  0  0
 17 16  1  0  0  0  0
 17 12  1  0  0  0  0
 18 17  1  0  0  0  0
 19 20  1  0  0  0  0
 21 27  1  0  0  0  0
 22 29  1  0  0  0  0
 22 21  2  0  0  0  0
 23 22  1  0  0  0  0
 24 23  2  0  0  0  0
 24 25  1  0  0  0  0
 25 26  2  0  0  0  0
 26 21  1  0  0  0  0
 28 23  1  0  0  0  0
 29 30  1  0  0  0  0
 30 31  2  0  0  0  0
 30 37  1  0  0  0  0
 31 38  1  0  0  0  0
 32 33  2  0  0  0  0
 32 31  1  0  0  0  0
 34 32  1  0  0  0  0
 35 34  1  0  0  0  0
 35 29  1  0  0  0  0
 36 35  2  0  0  0  0
 39 34  1  0  0  0  0
M  END
>  <minimizedAffinity>
-5.67477989

>  <minimizedRMSD>
0.91318059

$$$$
