
 OpenBabel03272505253D

 31 33  0  0  1  0  0  0  0  0999 V2000
   37.4530   31.0520   47.1170 N   0  0  0  0  0  0  0  0  0  0  0  0
   36.8900   30.6580   45.9420 C   0  0  0  0  0  0  0  0  0  0  0  0
   37.3620   31.0900   44.7130 C   0  0  0  0  0  0  0  0  0  0  0  0
   38.4620   31.9630   44.7170 C   0  0  0  0  0  0  0  0  0  0  0  0
   38.9160   32.3730   43.6290 O   0  0  0  0  0  0  0  0  0  0  0  0
   39.0270   32.3600   45.8920 N   0  0  0  0  0  0  0  0  0  0  0  0
   38.4800   31.8750   47.0150 C   0  0  0  0  0  0  0  0  0  0  0  0
   39.0280   32.2660   48.0700 O   0  0  0  0  0  0  0  0  0  0  0  0
   36.0390   29.9810   45.9730 H   0  0  0  0  0  0  0  0  0  0  0  0
   37.3280   29.6010   50.5320 C   0  0  0  0  0  0  0  0  0  0  0  0
   37.8100   30.0470   49.2940 C   0  0  0  0  0  0  0  0  0  0  0  0
   36.9670   30.6060   48.3470 C   0  0  0  0  0  0  0  0  0  0  0  0
   35.6400   30.7140   48.6460 N   0  0  0  0  0  0  0  0  0  0  0  0
   35.1630   30.2800   49.8530 C   0  0  0  0  0  0  0  0  0  0  0  0
   35.9910   29.7310   50.7850 N   0  0  0  0  0  0  0  0  0  0  0  0
   37.9110   29.1620   51.3090 H   0  0  0  0  0  0  0  0  0  0  0  0
   38.8680   29.8730   49.2290 H   0  0  0  0  0  0  0  0  0  0  0  0
   34.1100   30.4210   49.9620 H   0  0  0  0  0  0  0  0  0  0  0  0
   35.4050   29.9560   43.8680 C   0  0  2  0  0  3  0  0  0  0  0  0
   36.7090   30.6250   43.5050 C   0  0  2  0  0  3  0  0  0  0  0  0
   37.4200   29.5580   42.7420 C   0  0  0  0  0  3  0  0  0  0  0  0
   38.5110   29.6120   42.7530 H   0  0  0  0  0  0  0  0  0  0  0  0
   36.9170   28.3350   43.1600 O   0  0  0  0  0  0  0  0  0  0  0  0
   35.5830   28.5440   43.3950 C   0  0  0  0  0  3  0  0  0  0  0  0
   34.9550   28.3590   42.4760 H   0  0  0  0  0  0  0  0  0  0  0  0
   34.3460   30.5970   43.1950 O   0  0  0  0  0  0  0  0  0  0  0  0
   34.3050   31.5270   43.5120 H   0  0  0  0  0  0  0  0  0  0  0  0
   40.1580   33.2600   45.8910 C   0  0  0  0  0  0  0  0  0  0  0  0
   39.9660   34.2330   44.9380 F   0  0  0  0  0  0  0  0  0  0  0  0
   41.3490   32.6430   45.6110 F   0  0  0  0  0  0  0  0  0  0  0  0
   40.2100   33.9060   47.1260 F   0  0  0  0  0  0  0  0  0  0  0  0
  1 12  1  0  0  0  0
  2  9  1  0  0  0  0
  2  1  1  0  0  0  0
  3  4  1  0  0  0  0
  3  2  2  0  0  0  0
  4  6  1  0  0  0  0
  5  4  2  0  0  0  0
  6  7  1  0  0  0  0
  7  1  1  0  0  0  0
  7  8  2  0  0  0  0
 10 15  1  0  0  0  0
 10 16  1  0  0  0  0
 11 10  2  0  0  0  0
 12 13  2  0  0  0  0
 12 11  1  0  0  0  0
 13 14  1  0  0  0  0
 14 18  1  0  0  0  0
 14 15  2  0  0  0  0
 17 11  1  0  0  0  0
 19 26  1  6  0  0  0
 20 19  1  0  0  0  0
 20  3  1  1  0  0  0
 21 22  1  0  0  0  0
 21 23  1  0  0  0  0
 21 20  1  0  0  0  0
 23 24  1  0  0  0  0
 24 19  1  0  0  0  0
 25 24  1  0  0  0  0
 26 27  1  0  0  0  0
 28  6  1  0  0  0  0
 28 31  1  0  0  0  0
 29 28  1  0  0  0  0
 30 28  1  0  0  0  0
M  END
>  <minimizedAffinity>
-6.13058949

>  <minimizedRMSD>
0.569091082

$$$$
