
 OpenBabel03262522323D

 27 29  0  0  1  0  0  0  0  0999 V2000
   38.1780   32.1090   49.0600 C   0  0  0  0  0  0  0  0  0  0  0  0
   38.5850   33.2850   49.6330 C   0  0  0  0  0  0  0  0  0  0  0  0
   39.4310   34.1970   49.0380 C   0  0  0  0  0  0  0  0  0  0  0  0
   39.9220   33.9340   47.7770 C   0  0  0  0  0  0  0  0  0  0  0  0
   39.5060   32.7420   47.2060 C   0  0  0  0  0  0  0  0  0  0  0  0
   38.6820   31.8830   47.8170 N   0  0  0  0  0  0  0  0  0  0  0  0
   38.2100   33.5140   50.6270 H   0  0  0  0  0  0  0  0  0  0  0  0
   39.7120   35.1180   49.5580 H   0  0  0  0  0  0  0  0  0  0  0  0
   40.5800   34.5940   47.2580 H   0  0  0  0  0  0  0  0  0  0  0  0
   37.5890   30.4990   50.8980 C   0  0  0  0  0  0  0  0  0  0  0  0
   37.2870   31.1600   49.7010 C   0  0  0  0  0  0  0  0  0  0  0  0
   36.0690   30.8930   49.0940 C   0  0  0  0  0  0  0  0  0  0  0  0
   35.2300   30.0040   49.6910 N   0  0  0  0  0  0  0  0  0  0  0  0
   35.5480   29.3850   50.8420 C   0  0  0  0  0  0  0  0  0  0  0  0
   36.7140   29.6260   51.4440 N   0  0  0  0  0  0  0  0  0  0  0  0
   38.5580   30.7510   51.3250 H   0  0  0  0  0  0  0  0  0  0  0  0
   35.7330   31.3350   48.1830 H   0  0  0  0  0  0  0  0  0  0  0  0
   34.9060   28.6740   51.3440 H   0  0  0  0  0  0  0  0  0  0  0  0
   39.0980   33.0010   44.7640 C   0  0  1  0  0  3  0  0  0  0  0  0
   40.0050   32.4150   45.8540 C   0  0  2  0  0  3  0  0  0  0  0  0
   39.8870   30.9620   45.4880 C   0  0  0  0  0  3  0  0  0  0  0  0
   38.8840   30.5450   45.7100 H   0  0  0  0  0  0  0  0  0  0  0  0
   40.0250   30.9620   44.1090 O   0  0  0  0  0  0  0  0  0  0  0  0
   39.5420   32.1470   43.6010 C   0  0  0  0  0  3  0  0  0  0  0  0
   40.4280   32.6820   43.1530 H   0  0  0  0  0  0  0  0  0  0  0  0
   37.7750   32.7600   45.0800 O   0  0  0  0  0  0  0  0  0  0  0  0
   37.2380   32.6290   44.2340 H   0  0  0  0  0  0  0  0  0  0  0  0
  1  2  1  0  0  0  0
  1 11  1  0  0  0  0
  2  7  1  0  0  0  0
  3  8  1  0  0  0  0
  3  2  2  0  0  0  0
  4  3  1  0  0  0  0
  5  4  2  0  0  0  0
  5  6  1  0  0  0  0
  6  1  2  0  0  0  0
  9  4  1  0  0  0  0
 10 16  1  0  0  0  0
 10 15  1  0  0  0  0
 11 10  2  0  0  0  0
 12 13  2  0  0  0  0
 12 11  1  0  0  0  0
 13 14  1  0  0  0  0
 14 18  1  0  0  0  0
 14 15  2  0  0  0  0
 17 12  1  0  0  0  0
 19 26  1  1  0  0  0
 19 20  1  0  0  0  0
 20  5  1  1  0  0  0
 21 22  1  0  0  0  0
 21 20  1  0  0  0  0
 23 21  1  0  0  0  0
 24 23  1  0  0  0  0
 24 19  1  0  0  0  0
 25 24  1  0  0  0  0
 27 26  1  0  0  0  0
M  END
>  <minimizedAffinity>
-6.48953295

>  <minimizedRMSD>
0.405707538

$$$$
