
 OpenBabel03272507413D

 41 44  0  0  1  0  0  0  0  0999 V2000
   36.7310   31.1910   50.1390 C   0  0  0  0  0  0  0  0  0  0  0  0
   35.6090   30.3880   49.9070 C   0  0  0  0  0  0  0  0  0  0  0  0
   35.4080   29.2320   50.6350 C   0  0  0  0  0  0  0  0  0  0  0  0
   36.3410   28.9170   51.5750 N   0  0  0  0  0  0  0  0  0  0  0  0
   37.4260   29.7070   51.7890 C   0  0  0  0  0  0  0  0  0  0  0  0
   37.6000   30.8170   51.0760 N   0  0  0  0  0  0  0  0  0  0  0  0
   34.5710   28.5700   50.5110 H   0  0  0  0  0  0  0  0  0  0  0  0
   38.1730   29.4670   52.5330 H   0  0  0  0  0  0  0  0  0  0  0  0
   34.1940   29.6010   48.0880 C   0  0  0  0  0  0  0  0  0  0  0  0
   34.6310   28.4110   47.8470 O   0  0  0  0  0  0  0  0  0  0  0  0
   34.6040   30.6420   48.9610 N   0  0  0  0  0  0  0  0  0  0  0  0
   34.1220   31.5340   48.8330 H   0  0  0  0  0  0  0  0  0  0  0  0
   32.7470   29.0290   44.9950 C   0  0  2  0  0  3  0  0  0  0  0  0
   33.3740   30.1580   45.7900 C   0  0  0  0  0  3  0  0  0  0  0  0
   32.9580   31.1330   45.4870 H   0  0  0  0  0  0  0  0  0  0  0  0
   33.0110   29.7690   47.1900 C   0  0  1  0  0  3  0  0  0  0  0  0
   32.2880   28.6010   47.1380 O   0  0  0  0  0  0  0  0  0  0  0  0
   31.5930   28.6720   45.9090 C   0  0  0  0  0  3  0  0  0  0  0  0
   31.0900   27.7400   45.6610 H   0  0  0  0  0  0  0  0  0  0  0  0
   33.6420   27.9700   44.9780 O   0  0  0  0  0  0  0  0  0  0  0  0
   33.4350   27.2850   45.6680 H   0  0  0  0  0  0  0  0  0  0  0  0
   36.7570   32.2780   49.3320 O   0  0  0  0  0  0  0  0  0  0  0  0
   38.2470   32.2630   47.3560 C   0  0  0  0  0  0  0  0  0  0  0  0
   37.8710   32.7040   48.6110 C   0  0  0  0  0  0  0  0  0  0  0  0
   38.6180   33.6560   49.2800 C   0  0  0  0  0  0  0  0  0  0  0  0
   39.7620   34.1730   48.6750 C   0  0  0  0  0  0  0  0  0  0  0  0
   40.1380   33.7330   47.4220 C   0  0  0  0  0  0  0  0  0  0  0  0
   39.3640   32.7850   46.7960 C   0  0  0  0  0  0  0  0  0  0  0  0
   38.3900   34.0390   50.2430 H   0  0  0  0  0  0  0  0  0  0  0  0
   40.3590   34.9220   49.1890 H   0  0  0  0  0  0  0  0  0  0  0  0
   41.0360   34.1600   46.9870 H   0  0  0  0  0  0  0  0  0  0  0  0
   39.7780   32.3210   45.4520 C   0  0  0  0  0  0  0  0  0  0  0  0
   40.6300   31.3150   45.0980 C   0  0  0  0  0  0  0  0  0  0  0  0
   40.6880   31.2750   43.7060 C   0  0  0  0  0  0  0  0  0  0  0  0
   39.8510   32.2840   43.3000 C   0  0  0  0  0  0  0  0  0  0  0  0
   39.3250   32.8850   44.3450 O   0  0  0  0  0  0  0  0  0  0  0  0
   41.1150   30.7190   45.8830 H   0  0  0  0  0  0  0  0  0  0  0  0
   41.3110   30.5450   43.2040 H   0  0  0  0  0  0  0  0  0  0  0  0
   39.6950   32.4920   42.2370 H   0  0  0  0  0  0  0  0  0  0  0  0
   36.7480   30.5020   46.2280 N   0  0  0  0  0  0  0  0  0  0  0  0
   37.4210   31.2770   46.7330 C   0  0  0  0  0  0  0  0  0  0  0  0
  1  6  1  0  0  0  0
  2  1  2  0  0  0  0
  2  3  1  0  0  0  0
  3  4  2  0  0  0  0
  4  5  1  0  0  0  0
  5  8  1  0  0  0  0
  6  5  2  0  0  0  0
  7  3  1  0  0  0  0
  9 11  1  0  0  0  0
 10  9  2  0  0  0  0
 11  2  1  0  0  0  0
 12 11  1  0  0  0  0
 13 20  1  1  0  0  0
 13 14  1  0  0  0  0
 13 18  1  0  0  0  0
 14 16  1  0  0  0  0
 15 14  1  0  0  0  0
 16  9  1  1  0  0  0
 17 16  1  0  0  0  0
 18 17  1  0  0  0  0
 19 18  1  0  0  0  0
 20 21  1  0  0  0  0
 22  1  1  0  0  0  0
 23 24  1  0  0  0  0
 24 25  2  0  0  0  0
 24 22  1  0  0  0  0
 25 29  1  0  0  0  0
 26 30  1  0  0  0  0
 26 25  1  0  0  0  0
 27 26  2  0  0  0  0
 28 23  2  0  0  0  0
 28 27  1  0  0  0  0
 31 27  1  0  0  0  0
 32 28  1  0  0  0  0
 33 32  2  0  0  0  0
 33 37  1  0  0  0  0
 34 33  1  0  0  0  0
 35 34  2  0  0  0  0
 35 36  1  0  0  0  0
 36 32  1  0  0  0  0
 38 34  1  0  0  0  0
 39 35  1  0  0  0  0
 40 41  3  0  0  0  0
 41 23  1  0  0  0  0
M  END
>  <minimizedAffinity>
-5.91770267

>  <minimizedRMSD>
0.311385185

$$$$
