
 OpenBabel03272504033D

 41 44  0  0  1  0  0  0  0  0999 V2000
   34.4280   29.1700   49.0020 C   0  0  0  0  0  0  0  0  0  0  0  0
   33.7160   30.0470   49.0040 H   0  0  0  0  0  0  0  0  0  0  0  0
   34.1220   28.5390   49.8300 H   0  0  0  0  0  0  0  0  0  0  0  0
   35.7670   29.7550   49.1830 C   0  0  0  0  0  0  0  0  0  0  0  0
   36.6820   29.2440   50.1130 C   0  0  0  0  0  0  0  0  0  0  0  0
   37.8140   30.0050   50.0300 C   0  0  0  0  0  0  0  0  0  0  0  0
   37.6000   30.9400   49.0930 N   0  0  0  0  0  0  0  0  0  0  0  0
   36.3880   30.7610   48.6190 N   0  0  0  0  0  0  0  0  0  0  0  0
   36.5430   28.4020   50.7830 H   0  0  0  0  0  0  0  0  0  0  0  0
   38.7480   29.9400   50.5750 H   0  0  0  0  0  0  0  0  0  0  0  0
   38.4130   31.9850   48.5920 C   0  0  0  0  0  0  0  0  0  0  0  0
   38.6410   33.0380   49.4390 C   0  0  0  0  0  0  0  0  0  0  0  0
   39.4160   34.1540   49.1150 C   0  0  0  0  0  0  0  0  0  0  0  0
   39.9730   34.1520   47.8390 C   0  0  0  0  0  0  0  0  0  0  0  0
   39.7560   33.1080   46.9770 C   0  0  0  0  0  0  0  0  0  0  0  0
   38.9840   32.0180   47.3240 C   0  0  0  0  0  0  0  0  0  0  0  0
   38.2240   33.0720   50.4410 H   0  0  0  0  0  0  0  0  0  0  0  0
   39.5780   34.9700   49.8070 H   0  0  0  0  0  0  0  0  0  0  0  0
   40.5830   34.9680   47.5030 H   0  0  0  0  0  0  0  0  0  0  0  0
   40.1450   33.0200   45.9690 H   0  0  0  0  0  0  0  0  0  0  0  0
   38.7720   31.1710   46.7090 H   0  0  0  0  0  0  0  0  0  0  0  0
   34.2510   28.4730   47.7040 C   0  0  0  0  0  0  0  0  0  0  0  0
   35.1330   27.7910   47.5800 H   0  0  0  0  0  0  0  0  0  0  0  0
   33.3880   27.7680   47.8200 H   0  0  0  0  0  0  0  0  0  0  0  0
   33.9830   29.2790   46.5450 C   0  0  0  0  0  0  0  0  0  0  0  0
   32.7240   29.7330   46.2790 C   0  0  0  0  0  0  0  0  0  0  0  0
   32.4640   30.5250   45.1390 C   0  0  0  0  0  0  0  0  0  0  0  0
   33.5500   30.7980   44.3320 N   0  0  0  0  0  0  0  0  0  0  0  0
   34.7790   30.3270   44.6320 C   0  0  0  0  0  0  0  0  0  0  0  0
   34.9710   29.5760   45.7340 N   0  0  0  0  0  0  0  0  0  0  0  0
   31.8830   29.5030   46.9340 H   0  0  0  0  0  0  0  0  0  0  0  0
   31.4680   30.8860   44.9250 H   0  0  0  0  0  0  0  0  0  0  0  0
   36.3250   29.4840   42.8560 C   0  0  2  0  0  3  0  0  0  0  0  0
   35.9370   30.6420   43.7370 C   0  0  1  0  0  3  0  0  0  0  0  0
   35.5040   31.6890   42.7500 C   0  0  0  0  0  3  0  0  0  0  0  0
   34.3910   31.8250   42.7710 H   0  0  0  0  0  0  0  0  0  0  0  0
   35.8650   31.2080   41.4850 O   0  0  0  0  0  0  0  0  0  0  0  0
   35.6230   29.8280   41.5710 C   0  0  0  0  0  3  0  0  0  0  0  0
   34.5430   29.6090   41.6280 H   0  0  0  0  0  0  0  0  0  0  0  0
   35.9880   28.2480   43.3490 O   0  0  0  0  0  0  0  0  0  0  0  0
   36.7850   27.6620   43.5310 H   0  0  0  0  0  0  0  0  0  0  0  0
  1  2  1  0  0  0  0
  1  4  1  0  0  0  0
  1  3  1  0  0  0  0
  4  5  1  0  0  0  0
  5  9  1  0  0  0  0
  6  5  2  0  0  0  0
  6 10  1  0  0  0  0
  7  6  1  0  0  0  0
  8  7  1  0  0  0  0
  8  4  2  0  0  0  0
 11  7  1  0  0  0  0
 11 12  1  0  0  0  0
 12 17  1  0  0  0  0
 13 12  2  0  0  0  0
 13 18  1  0  0  0  0
 14 13  1  0  0  0  0
 15 16  1  0  0  0  0
 15 14  2  0  0  0  0
 16 11  2  0  0  0  0
 19 14  1  0  0  0  0
 20 15  1  0  0  0  0
 21 16  1  0  0  0  0
 22 24  1  0  0  0  0
 22  1  1  0  0  0  0
 23 22  1  0  0  0  0
 25 22  1  0  0  0  0
 26 25  1  0  0  0  0
 26 31  1  0  0  0  0
 27 26  2  0  0  0  0
 28 29  2  0  0  0  0
 28 27  1  0  0  0  0
 29 30  1  0  0  0  0
 30 25  2  0  0  0  0
 32 27  1  0  0  0  0
 33 40  1  1  0  0  0
 33 34  1  0  0  0  0
 34 29  1  1  0  0  0
 35 36  1  0  0  0  0
 35 34  1  0  0  0  0
 37 38  1  0  0  0  0
 37 35  1  0  0  0  0
 38 39  1  0  0  0  0
 38 33  1  0  0  0  0
 40 41  1  0  0  0  0
M  END
>  <minimizedAffinity>
-5.51534176

>  <minimizedRMSD>
0.743839204

$$$$
