
 OpenBabel03272504323D

 40 43  0  0  1  0  0  0  0  0999 V2000
   34.9690   29.5750   47.5370 C   0  0  0  0  0  0  0  0  0  0  0  0
   35.1360   29.9650   46.2080 C   0  0  0  0  0  0  0  0  0  0  0  0
   34.0940   29.8030   45.3130 C   0  0  0  0  0  0  0  0  0  0  0  0
   32.9270   29.2570   45.7800 N   0  0  0  0  0  0  0  0  0  0  0  0
   32.7990   28.8900   47.0740 C   0  0  0  0  0  0  0  0  0  0  0  0
   33.8160   29.0480   47.9500 N   0  0  0  0  0  0  0  0  0  0  0  0
   36.0780   30.3870   45.9060 H   0  0  0  0  0  0  0  0  0  0  0  0
   34.2040   30.0950   44.2930 H   0  0  0  0  0  0  0  0  0  0  0  0
   36.0130   29.7200   48.5070 N   0  0  0  0  0  0  0  0  0  0  0  0
   36.0900   28.8660   49.6810 C   0  0  0  0  0  0  0  0  0  0  0  0
   36.4080   29.5810   50.9520 C   0  0  0  0  0  0  0  0  0  0  0  0
   37.1460   30.7800   50.8790 N   0  0  0  0  0  0  0  0  0  0  0  0
   36.8610   31.5690   49.6890 C   0  0  0  0  0  0  0  0  0  0  0  0
   37.0760   30.6480   48.5030 C   0  0  0  0  0  0  0  0  0  0  0  0
   35.1120   28.3280   49.7860 H   0  0  0  0  0  0  0  0  0  0  0  0
   36.8210   28.0630   49.4600 H   0  0  0  0  0  0  0  0  0  0  0  0
   35.4420   29.7440   51.5080 H   0  0  0  0  0  0  0  0  0  0  0  0
   36.9790   28.8510   51.5990 H   0  0  0  0  0  0  0  0  0  0  0  0
   36.8610   31.3920   51.7030 H   0  0  0  0  0  0  0  0  0  0  0  0
   37.6780   32.3380   49.6180 H   0  0  0  0  0  0  0  0  0  0  0  0
   35.8890   32.0600   49.6910 H   0  0  0  0  0  0  0  0  0  0  0  0
   37.1300   31.2270   47.5460 H   0  0  0  0  0  0  0  0  0  0  0  0
   38.0450   30.1500   48.6470 H   0  0  0  0  0  0  0  0  0  0  0  0
   31.5420   28.3140   47.5320 C   0  0  0  0  0  0  0  0  0  0  0  0
   31.5280   27.3320   48.5000 C   0  0  0  0  0  0  0  0  0  0  0  0
   30.3640   26.7460   48.9750 C   0  0  0  0  0  0  0  0  0  0  0  0
   29.2120   27.2090   48.4160 N   0  0  0  0  0  0  0  0  0  0  0  0
   29.2380   28.1590   47.4790 C   0  0  0  0  0  0  0  0  0  0  0  0
   30.3800   28.7360   47.0120 N   0  0  0  0  0  0  0  0  0  0  0  0
   32.4870   27.0320   48.8820 H   0  0  0  0  0  0  0  0  0  0  0  0
   30.4730   25.9860   49.7360 H   0  0  0  0  0  0  0  0  0  0  0  0
   27.5760   27.6630   45.7630 C   0  0  1  0  0  3  0  0  0  0  0  0
   27.8890   28.5410   46.9820 C   0  0  2  0  0  3  0  0  0  0  0  0
   27.8980   29.8980   46.3240 C   0  0  0  0  0  3  0  0  0  0  0  0
   28.5120   30.5890   46.9390 H   0  0  0  0  0  0  0  0  0  0  0  0
   28.4260   29.7130   45.0590 O   0  0  0  0  0  0  0  0  0  0  0  0
   28.2510   28.4110   44.6670 C   0  0  0  0  0  3  0  0  0  0  0  0
   29.2380   27.9490   44.4180 H   0  0  0  0  0  0  0  0  0  0  0  0
   28.0630   26.3790   45.9510 O   0  0  0  0  0  0  0  0  0  0  0  0
   27.4770   25.9150   46.5950 H   0  0  0  0  0  0  0  0  0  0  0  0
  1  6  1  0  0  0  0
  1  9  1  0  0  0  0
  2  1  2  0  0  0  0
  3  4  2  0  0  0  0
  3  2  1  0  0  0  0
  4  5  1  0  0  0  0
  5 24  1  0  0  0  0
  5  6  2  0  0  0  0
  7  2  1  0  0  0  0
  8  3  1  0  0  0  0
  9 10  1  0  0  0  0
 10 15  1  0  0  0  0
 10 11  1  0  0  0  0
 11 17  1  0  0  0  0
 11 18  1  0  0  0  0
 12 11  1  0  0  0  0
 12 19  1  0  0  0  0
 13 21  1  0  0  0  0
 13 12  1  0  0  0  0
 14  9  1  0  0  0  0
 14 23  1  0  0  0  0
 14 13  1  0  0  0  0
 16 10  1  0  0  0  0
 20 13  1  0  0  0  0
 22 14  1  0  0  0  0
 24 25  1  0  0  0  0
 25 30  1  0  0  0  0
 25 26  2  0  0  0  0
 26 31  1  0  0  0  0
 27 26  1  0  0  0  0
 28 27  2  0  0  0  0
 29 28  1  0  0  0  0
 29 24  2  0  0  0  0
 32 39  1  1  0  0  0
 32 33  1  0  0  0  0
 33 28  1  6  0  0  0
 34 35  1  0  0  0  0
 34 33  1  0  0  0  0
 36 34  1  0  0  0  0
 37 36  1  0  0  0  0
 37 32  1  0  0  0  0
 38 37  1  0  0  0  0
 39 40  1  0  0  0  0
M  END
>  <minimizedAffinity>
-5.07948112

>  <minimizedRMSD>
0.580039799

$$$$
