
 OpenBabel03272502383D

 30 32  0  0  1  0  0  0  0  0999 V2000
   37.8270   25.3580   34.2000 N   0  0  0  0  0  0  0  0  0  0  0  0
   37.8730   26.0730   35.4610 C   0  0  0  0  0  0  0  0  0  0  0  0
   38.1720   24.9560   36.4700 C   0  0  0  0  0  0  0  0  0  0  0  0
   38.2350   23.6930   35.6640 C   0  0  1  0  0  0  0  0  0  0  0  0
   38.7380   24.2210   34.3410 C   0  0  0  0  0  0  0  0  0  0  0  0
   36.8680   26.4730   35.7150 H   0  0  0  0  0  0  0  0  0  0  0  0
   38.6660   26.8440   35.4460 H   0  0  0  0  0  0  0  0  0  0  0  0
   39.1330   25.2270   36.9470 H   0  0  0  0  0  0  0  0  0  0  0  0
   37.4170   24.9360   37.2760 H   0  0  0  0  0  0  0  0  0  0  0  0
   37.2210   23.3100   35.5550 H   0  0  0  0  0  0  0  0  0  0  0  0
   39.7800   24.5340   34.3920 H   0  0  0  0  0  0  0  0  0  0  0  0
   38.5190   23.4940   33.5450 H   0  0  0  0  0  0  0  0  0  0  0  0
   37.0620   25.6800   33.0550 C   0  0  0  0  0  0  0  0  0  0  0  0
   36.7940   27.0270   32.8200 C   0  0  0  0  0  0  0  0  0  0  0  0
   36.0400   27.3800   31.6960 C   0  0  0  0  0  0  0  0  0  0  0  0
   35.6070   26.3490   30.8850 N   0  0  0  0  0  0  0  0  0  0  0  0
   35.8830   25.0540   31.1400 C   0  0  0  0  0  0  0  0  0  0  0  0
   36.6130   24.7250   32.2310 N   0  0  0  0  0  0  0  0  0  0  0  0
   37.1170   27.8550   33.4340 H   0  0  0  0  0  0  0  0  0  0  0  0
   35.7900   28.4040   31.4480 H   0  0  0  0  0  0  0  0  0  0  0  0
   35.5130   24.2940   30.4630 H   0  0  0  0  0  0  0  0  0  0  0  0
   39.7460   22.9450   37.5480 C   0  0  2  0  0  3  0  0  0  0  0  0
   39.0850   22.6220   36.2460 C   0  0  2  0  0  3  0  0  0  0  0  0
   40.2980   22.3260   35.3940 C   0  0  0  0  0  3  0  0  0  0  0  0
   40.0470   21.7550   34.4910 H   0  0  0  0  0  0  0  0  0  0  0  0
   41.2100   21.6830   36.2110 O   0  0  0  0  0  0  0  0  0  0  0  0
   40.8950   21.9470   37.5230 C   0  0  0  0  0  3  0  0  0  0  0  0
   41.8140   22.3850   37.9800 H   0  0  0  0  0  0  0  0  0  0  0  0
   38.8800   22.5860   38.5660 O   0  0  0  0  0  0  0  0  0  0  0  0
   38.8380   23.2800   39.2640 H   0  0  0  0  0  0  0  0  0  0  0  0
  1  5  1  0  0  0  0
  1  2  1  0  0  0  0
  2  6  1  0  0  0  0
  2  3  1  0  0  0  0
  3  8  1  0  0  0  0
  3  9  1  0  0  0  0
  4 10  1  6  0  0  0
  4 23  1  0  0  0  0
  4  3  1  0  0  0  0
  5 11  1  0  0  0  0
  5  4  1  0  0  0  0
  7  2  1  0  0  0  0
 12  5  1  0  0  0  0
 13  1  1  0  0  0  0
 14 13  1  0  0  0  0
 14 19  1  0  0  0  0
 15 14  2  0  0  0  0
 16 17  2  0  0  0  0
 16 15  1  0  0  0  0
 17 18  1  0  0  0  0
 18 13  2  0  0  0  0
 20 15  1  0  0  0  0
 21 17  1  0  0  0  0
 22 29  1  1  0  0  0
 23 24  1  6  0  0  0
 23 22  1  0  0  0  0
 24 26  1  0  0  0  0
 25 24  1  0  0  0  0
 26 27  1  0  0  0  0
 27 22  1  0  0  0  0
 27 28  1  0  0  0  0
 29 30  1  0  0  0  0
M  END
>  <minimizedAffinity>
-5.11034298

$$$$

 OpenBabel03272502383D

 30 32  0  0  1  0  0  0  0  0999 V2000
   37.8450   25.5620   34.3490 N   0  0  0  0  0  0  0  0  0  0  0  0
   37.9180   26.2350   35.6320 C   0  0  0  0  0  0  0  0  0  0  0  0
   38.1730   25.0760   36.6040 C   0  0  0  0  0  0  0  0  0  0  0  0
   38.1870   23.8380   35.7590 C   0  0  1  0  0  0  0  0  0  0  0  0
   38.7100   24.3870   34.4520 C   0  0  0  0  0  0  0  0  0  0  0  0
   36.9290   26.6660   35.8990 H   0  0  0  0  0  0  0  0  0  0  0  0
   38.7400   26.9750   35.6400 H   0  0  0  0  0  0  0  0  0  0  0  0
   39.1440   25.2940   37.0890 H   0  0  0  0  0  0  0  0  0  0  0  0
   37.4170   25.0600   37.4110 H   0  0  0  0  0  0  0  0  0  0  0  0
   37.1590   23.4980   35.6390 H   0  0  0  0  0  0  0  0  0  0  0  0
   39.7640   24.6580   34.5130 H   0  0  0  0  0  0  0  0  0  0  0  0
   38.4630   23.6950   33.6350 H   0  0  0  0  0  0  0  0  0  0  0  0
   37.0920   25.9510   33.2150 C   0  0  0  0  0  0  0  0  0  0  0  0
   36.7280   24.9530   32.3130 C   0  0  0  0  0  0  0  0  0  0  0  0
   35.9840   25.3050   31.1820 C   0  0  0  0  0  0  0  0  0  0  0  0
   35.6580   26.6390   31.0380 N   0  0  0  0  0  0  0  0  0  0  0  0
   36.0250   27.5810   31.9300 C   0  0  0  0  0  0  0  0  0  0  0  0
   36.7460   27.2300   33.0200 N   0  0  0  0  0  0  0  0  0  0  0  0
   36.9680   23.9030   32.3970 H   0  0  0  0  0  0  0  0  0  0  0  0
   35.6650   24.5870   30.4370 H   0  0  0  0  0  0  0  0  0  0  0  0
   35.7360   28.6100   31.7580 H   0  0  0  0  0  0  0  0  0  0  0  0
   39.6830   22.9790   37.6070 C   0  0  2  0  0  3  0  0  0  0  0  0
   38.9940   22.7160   36.3060 C   0  0  2  0  0  3  0  0  0  0  0  0
   40.1840   22.3870   35.4330 C   0  0  0  0  0  3  0  0  0  0  0  0
   39.8970   21.8490   34.5210 H   0  0  0  0  0  0  0  0  0  0  0  0
   41.0750   21.6850   36.2250 O   0  0  0  0  0  0  0  0  0  0  0  0
   40.7860   21.9320   37.5450 C   0  0  0  0  0  3  0  0  0  0  0  0
   41.7290   22.3180   38.0020 H   0  0  0  0  0  0  0  0  0  0  0  0
   38.8130   22.6350   38.6270 O   0  0  0  0  0  0  0  0  0  0  0  0
   38.8100   23.3140   39.3410 H   0  0  0  0  0  0  0  0  0  0  0  0
  1  5  1  0  0  0  0
  1  2  1  0  0  0  0
  2  7  1  0  0  0  0
  2  6  1  0  0  0  0
  2  3  1  0  0  0  0
  3  8  1  0  0  0  0
  3  9  1  0  0  0  0
  4 10  1  6  0  0  0
  4 23  1  0  0  0  0
  4  3  1  0  0  0  0
  5 11  1  0  0  0  0
  5  4  1  0  0  0  0
 12  5  1  0  0  0  0
 13  1  1  0  0  0  0
 14 19  1  0  0  0  0
 14 13  2  0  0  0  0
 15 14  1  0  0  0  0
 16 15  2  0  0  0  0
 16 17  1  0  0  0  0
 17 18  2  0  0  0  0
 18 13  1  0  0  0  0
 20 15  1  0  0  0  0
 21 17  1  0  0  0  0
 22 29  1  1  0  0  0
 23 24  1  6  0  0  0
 23 22  1  0  0  0  0
 24 26  1  0  0  0  0
 25 24  1  0  0  0  0
 26 27  1  0  0  0  0
 27 22  1  0  0  0  0
 27 28  1  0  0  0  0
 29 30  1  0  0  0  0
M  END
>  <minimizedAffinity>
-5.04752827

$$$$

 OpenBabel03272502383D

 30 32  0  0  1  0  0  0  0  0999 V2000
   38.7910   24.7410   34.7560 N   0  0  0  0  0  0  0  0  0  0  0  0
   39.3140   24.1610   33.5340 C   0  0  0  0  0  0  0  0  0  0  0  0
   38.3390   24.6810   32.4710 C   0  0  0  0  0  0  0  0  0  0  0  0
   37.3240   25.4940   33.2180 C   0  0  1  0  0  0  0  0  0  0  0  0
   38.1570   26.0030   34.3720 C   0  0  0  0  0  0  0  0  0  0  0  0
   39.2070   23.0560   33.5540 H   0  0  0  0  0  0  0  0  0  0  0  0
   40.3510   24.5020   33.3510 H   0  0  0  0  0  0  0  0  0  0  0  0
   38.9490   25.2740   31.7620 H   0  0  0  0  0  0  0  0  0  0  0  0
   37.9050   23.8490   31.8880 H   0  0  0  0  0  0  0  0  0  0  0  0
   36.5520   24.8180   33.5830 H   0  0  0  0  0  0  0  0  0  0  0  0
   38.8870   26.7480   34.0540 H   0  0  0  0  0  0  0  0  0  0  0  0
   37.4980   26.3290   35.1880 H   0  0  0  0  0  0  0  0  0  0  0  0
   38.8690   24.2080   36.0640 C   0  0  0  0  0  0  0  0  0  0  0  0
   37.9350   24.6540   36.9970 C   0  0  0  0  0  0  0  0  0  0  0  0
   37.9840   24.1460   38.2990 C   0  0  0  0  0  0  0  0  0  0  0  0
   38.9740   23.2220   38.5720 N   0  0  0  0  0  0  0  0  0  0  0  0
   39.8640   22.8100   37.6460 C   0  0  0  0  0  0  0  0  0  0  0  0
   39.8070   23.3090   36.3900 N   0  0  0  0  0  0  0  0  0  0  0  0
   37.1500   25.3740   36.8140 H   0  0  0  0  0  0  0  0  0  0  0  0
   37.2940   24.4440   39.0780 H   0  0  0  0  0  0  0  0  0  0  0  0
   40.6160   22.0830   37.9260 H   0  0  0  0  0  0  0  0  0  0  0  0
   36.7720   26.4340   30.9380 C   0  0  2  0  0  3  0  0  0  0  0  0
   36.6750   26.5690   32.4240 C   0  0  2  0  0  3  0  0  0  0  0  0
   37.3470   27.9090   32.6180 C   0  0  0  0  0  3  0  0  0  0  0  0
   37.1050   28.3620   33.5880 H   0  0  0  0  0  0  0  0  0  0  0  0
   36.9800   28.6960   31.5410 O   0  0  0  0  0  0  0  0  0  0  0  0
   36.5510   27.8810   30.5210 C   0  0  0  0  0  3  0  0  0  0  0  0
   37.1760   28.1410   29.6330 H   0  0  0  0  0  0  0  0  0  0  0  0
   35.6900   25.6860   30.5070 O   0  0  0  0  0  0  0  0  0  0  0  0
   35.9610   25.0120   29.8420 H   0  0  0  0  0  0  0  0  0  0  0  0
  1 13  1  0  0  0  0
  2  6  1  0  0  0  0
  2  1  1  0  0  0  0
  3  4  1  0  0  0  0
  3  2  1  0  0  0  0
  4 10  1  1  0  0  0
  4  5  1  0  0  0  0
  5  1  1  0  0  0  0
  5 12  1  0  0  0  0
  7  2  1  0  0  0  0
  8  3  1  0  0  0  0
  9  3  1  0  0  0  0
 11  5  1  0  0  0  0
 13 18  2  0  0  0  0
 13 14  1  0  0  0  0
 14 15  2  0  0  0  0
 15 16  1  0  0  0  0
 15 20  1  0  0  0  0
 17 21  1  0  0  0  0
 17 16  2  0  0  0  0
 18 17  1  0  0  0  0
 19 14  1  0  0  0  0
 22 29  1  6  0  0  0
 22 23  1  0  0  0  0
 23 24  1  1  0  0  0
 23  4  1  0  0  0  0
 24 25  1  0  0  0  0
 26 24  1  0  0  0  0
 27 22  1  0  0  0  0
 27 26  1  0  0  0  0
 28 27  1  0  0  0  0
 30 29  1  0  0  0  0
M  END
>  <minimizedAffinity>
-4.62963915

$$$$

 OpenBabel03272502383D

 30 32  0  0  1  0  0  0  0  0999 V2000
   38.1460   26.2150   34.5970 N   0  0  0  0  0  0  0  0  0  0  0  0
   39.2630   26.7120   33.8160 C   0  0  0  0  0  0  0  0  0  0  0  0
   38.5720   27.3010   32.5790 C   0  0  0  0  0  0  0  0  0  0  0  0
   37.1080   27.0440   32.7760 C   0  0  1  0  0  0  0  0  0  0  0  0
   37.0090   27.0820   34.2830 C   0  0  0  0  0  0  0  0  0  0  0  0
   39.8910   25.8680   33.4610 H   0  0  0  0  0  0  0  0  0  0  0  0
   39.8270   27.4770   34.3830 H   0  0  0  0  0  0  0  0  0  0  0  0
   38.8370   28.3760   32.5660 H   0  0  0  0  0  0  0  0  0  0  0  0
   38.9820   26.8660   31.6500 H   0  0  0  0  0  0  0  0  0  0  0  0
   36.8880   26.0420   32.4100 H   0  0  0  0  0  0  0  0  0  0  0  0
   37.1390   28.0890   34.6790 H   0  0  0  0  0  0  0  0  0  0  0  0
   36.0850   26.5810   34.6060 H   0  0  0  0  0  0  0  0  0  0  0  0
   38.1400   25.1160   35.4880 C   0  0  0  0  0  0  0  0  0  0  0  0
   38.2520   23.8420   34.9360 C   0  0  0  0  0  0  0  0  0  0  0  0
   38.2500   22.7340   35.7890 C   0  0  0  0  0  0  0  0  0  0  0  0
   38.1340   22.9860   37.1420 N   0  0  0  0  0  0  0  0  0  0  0  0
   38.0270   24.2330   37.6450 C   0  0  0  0  0  0  0  0  0  0  0  0
   38.0300   25.2980   36.8100 N   0  0  0  0  0  0  0  0  0  0  0  0
   38.3440   23.6110   33.8840 H   0  0  0  0  0  0  0  0  0  0  0  0
   38.3320   21.7130   35.4360 H   0  0  0  0  0  0  0  0  0  0  0  0
   37.9390   24.3620   38.7170 H   0  0  0  0  0  0  0  0  0  0  0  0
   36.7400   28.6240   30.8380 C   0  0  2  0  0  3  0  0  0  0  0  0
   36.2060   28.0060   32.0900 C   0  0  2  0  0  3  0  0  0  0  0  0
   35.9550   29.2460   32.9180 C   0  0  0  0  0  3  0  0  0  0  0  0
   35.2650   29.0610   33.7510 H   0  0  0  0  0  0  0  0  0  0  0  0
   35.5090   30.2220   32.0450 O   0  0  0  0  0  0  0  0  0  0  0  0
   35.8770   29.8770   30.7670 C   0  0  0  0  0  3  0  0  0  0  0  0
   36.4610   30.7410   30.3680 H   0  0  0  0  0  0  0  0  0  0  0  0
   36.4010   27.8010   29.7780 O   0  0  0  0  0  0  0  0  0  0  0  0
   37.1570   27.6820   29.1590 H   0  0  0  0  0  0  0  0  0  0  0  0
  1 13  1  0  0  0  0
  2  7  1  0  0  0  0
  2  1  1  0  0  0  0
  3  4  1  0  0  0  0
  3  2  1  0  0  0  0
  4 10  1  6  0  0  0
  4  5  1  0  0  0  0
  5  1  1  0  0  0  0
  5 12  1  0  0  0  0
  5 11  1  0  0  0  0
  6  2  1  0  0  0  0
  8  3  1  0  0  0  0
  9  3  1  0  0  0  0
 13 18  1  0  0  0  0
 14 13  2  0  0  0  0
 14 15  1  0  0  0  0
 15 16  2  0  0  0  0
 16 17  1  0  0  0  0
 17 21  1  0  0  0  0
 18 17  2  0  0  0  0
 19 14  1  0  0  0  0
 20 15  1  0  0  0  0
 22 29  1  6  0  0  0
 22 23  1  0  0  0  0
 23  4  1  0  0  0  0
 23 24  1  1  0  0  0
 24 25  1  0  0  0  0
 26 24  1  0  0  0  0
 27 22  1  0  0  0  0
 27 26  1  0  0  0  0
 28 27  1  0  0  0  0
 30 29  1  0  0  0  0
M  END
>  <minimizedAffinity>
-4.61697102

$$$$

 OpenBabel03272502383D

 30 32  0  0  1  0  0  0  0  0999 V2000
   38.1220   26.9160   34.1710 N   0  0  0  0  0  0  0  0  0  0  0  0
   38.1570   27.4140   35.5330 C   0  0  0  0  0  0  0  0  0  0  0  0
   38.2850   26.1270   36.3580 C   0  0  0  0  0  0  0  0  0  0  0  0
   38.2790   25.0080   35.3610 C   0  0  1  0  0  0  0  0  0  0  0  0
   38.9110   25.6830   34.1660 C   0  0  0  0  0  0  0  0  0  0  0  0
   37.1810   27.8710   35.8020 H   0  0  0  0  0  0  0  0  0  0  0  0
   39.0190   28.0920   35.6800 H   0  0  0  0  0  0  0  0  0  0  0  0
   39.2360   26.2180   36.9180 H   0  0  0  0  0  0  0  0  0  0  0  0
   37.4830   26.0580   37.1150 H   0  0  0  0  0  0  0  0  0  0  0  0
   37.2420   24.7540   35.1440 H   0  0  0  0  0  0  0  0  0  0  0  0
   39.9730   25.8750   34.3160 H   0  0  0  0  0  0  0  0  0  0  0  0
   38.6740   25.1170   33.2540 H   0  0  0  0  0  0  0  0  0  0  0  0
   37.4640   27.4930   33.0600 C   0  0  0  0  0  0  0  0  0  0  0  0
   38.1150   27.4420   31.8290 C   0  0  0  0  0  0  0  0  0  0  0  0
   37.4900   28.0030   30.7110 C   0  0  0  0  0  0  0  0  0  0  0  0
   36.2510   28.5790   30.9100 N   0  0  0  0  0  0  0  0  0  0  0  0
   35.6470   28.6120   32.1160 C   0  0  0  0  0  0  0  0  0  0  0  0
   36.2610   28.0660   33.1910 N   0  0  0  0  0  0  0  0  0  0  0  0
   39.0830   26.9990   31.6410 H   0  0  0  0  0  0  0  0  0  0  0  0
   37.9330   28.0030   29.7230 H   0  0  0  0  0  0  0  0  0  0  0  0
   34.6740   29.0800   32.2040 H   0  0  0  0  0  0  0  0  0  0  0  0
   38.9130   23.4640   37.2590 C   0  0  2  0  0  3  0  0  0  0  0  0
   38.9850   23.7760   35.7990 C   0  0  2  0  0  3  0  0  0  0  0  0
   40.4830   23.8790   35.6180 C   0  0  0  0  0  3  0  0  0  0  0  0
   40.7860   23.7830   34.5680 H   0  0  0  0  0  0  0  0  0  0  0  0
   41.0480   22.9210   36.4400 O   0  0  0  0  0  0  0  0  0  0  0  0
   40.1350   22.5670   37.4040 C   0  0  0  0  0  3  0  0  0  0  0  0
   40.6390   22.7360   38.3860 H   0  0  0  0  0  0  0  0  0  0  0  0
   37.7820   22.6970   37.4750 O   0  0  0  0  0  0  0  0  0  0  0  0
   37.2890   22.9990   38.2730 H   0  0  0  0  0  0  0  0  0  0  0  0
  1  2  1  0  0  0  0
  2  7  1  0  0  0  0
  2  6  1  0  0  0  0
  2  3  1  0  0  0  0
  3  8  1  0  0  0  0
  3  9  1  0  0  0  0
  4 10  1  6  0  0  0
  4 23  1  0  0  0  0
  4  3  1  0  0  0  0
  5  1  1  0  0  0  0
  5 11  1  0  0  0  0
  5  4  1  0  0  0  0
 12  5  1  0  0  0  0
 13 18  1  0  0  0  0
 13  1  1  0  0  0  0
 14 13  2  0  0  0  0
 15 16  2  0  0  0  0
 15 14  1  0  0  0  0
 16 17  1  0  0  0  0
 17 21  1  0  0  0  0
 17 18  2  0  0  0  0
 19 14  1  0  0  0  0
 20 15  1  0  0  0  0
 22 27  1  0  0  0  0
 22 29  1  6  0  0  0
 23 24  1  1  0  0  0
 23 22  1  0  0  0  0
 24 26  1  0  0  0  0
 25 24  1  0  0  0  0
 26 27  1  0  0  0  0
 27 28  1  0  0  0  0
 29 30  1  0  0  0  0
M  END
>  <minimizedAffinity>
-4.60766602

$$$$

 OpenBabel03272502383D

 30 32  0  0  1  0  0  0  0  0999 V2000
   38.4340   24.8580   34.8450 N   0  0  0  0  0  0  0  0  0  0  0  0
   38.0130   24.1670   33.6410 C   0  0  0  0  0  0  0  0  0  0  0  0
   37.2890   25.2690   32.8570 C   0  0  0  0  0  0  0  0  0  0  0  0
   37.3480   26.4870   33.7280 C   0  0  1  0  0  0  0  0  0  0  0  0
   38.6480   26.2540   34.4620 C   0  0  0  0  0  0  0  0  0  0  0  0
   37.2530   23.3950   33.8840 H   0  0  0  0  0  0  0  0  0  0  0  0
   38.8870   23.7700   33.0910 H   0  0  0  0  0  0  0  0  0  0  0  0
   37.8410   25.3770   31.9040 H   0  0  0  0  0  0  0  0  0  0  0  0
   36.2630   24.9580   32.5900 H   0  0  0  0  0  0  0  0  0  0  0  0
   36.5120   26.4460   34.4250 H   0  0  0  0  0  0  0  0  0  0  0  0
   39.5140   26.3720   33.8110 H   0  0  0  0  0  0  0  0  0  0  0  0
   38.6750   26.8680   35.3730 H   0  0  0  0  0  0  0  0  0  0  0  0
   38.6070   24.3080   36.1370 C   0  0  0  0  0  0  0  0  0  0  0  0
   39.6440   23.3930   36.3120 C   0  0  0  0  0  0  0  0  0  0  0  0
   39.8420   22.8310   37.5770 C   0  0  0  0  0  0  0  0  0  0  0  0
   38.9800   23.2300   38.5800 N   0  0  0  0  0  0  0  0  0  0  0  0
   37.9860   24.1190   38.3780 C   0  0  0  0  0  0  0  0  0  0  0  0
   37.8030   24.6550   37.1500 N   0  0  0  0  0  0  0  0  0  0  0  0
   40.3330   23.0610   35.5490 H   0  0  0  0  0  0  0  0  0  0  0  0
   40.6240   22.1140   37.7910 H   0  0  0  0  0  0  0  0  0  0  0  0
   37.3450   24.3890   39.2080 H   0  0  0  0  0  0  0  0  0  0  0  0
   35.9280   28.2630   32.6230 C   0  0  2  0  0  3  0  0  0  0  0  0
   37.2930   27.7810   33.0000 C   0  0  2  0  0  3  0  0  0  0  0  0
   37.9360   27.6970   31.6340 C   0  0  0  0  0  3  0  0  0  0  0  0
   39.0320   27.6760   31.6870 H   0  0  0  0  0  0  0  0  0  0  0  0
   37.4450   28.7610   30.8990 O   0  0  0  0  0  0  0  0  0  0  0  0
   36.2800   29.2030   31.4780 C   0  0  0  0  0  3  0  0  0  0  0  0
   35.5030   29.1660   30.6780 H   0  0  0  0  0  0  0  0  0  0  0  0
   35.4390   29.0200   33.6730 O   0  0  0  0  0  0  0  0  0  0  0  0
   34.4990   28.8010   33.8670 H   0  0  0  0  0  0  0  0  0  0  0  0
  1 13  1  0  0  0  0
  2  6  1  0  0  0  0
  2  1  1  0  0  0  0
  3  2  1  0  0  0  0
  3  4  1  0  0  0  0
  4 10  1  1  0  0  0
  4  5  1  0  0  0  0
  5  1  1  0  0  0  0
  5 12  1  0  0  0  0
  7  2  1  0  0  0  0
  8  3  1  0  0  0  0
  9  3  1  0  0  0  0
 11  5  1  0  0  0  0
 13 14  2  0  0  0  0
 13 18  1  0  0  0  0
 14 15  1  0  0  0  0
 15 20  1  0  0  0  0
 15 16  2  0  0  0  0
 17 16  1  0  0  0  0
 17 21  1  0  0  0  0
 18 17  2  0  0  0  0
 19 14  1  0  0  0  0
 22 23  1  0  0  0  0
 22 29  1  1  0  0  0
 23 24  1  6  0  0  0
 23  4  1  0  0  0  0
 24 25  1  0  0  0  0
 26 27  1  0  0  0  0
 26 24  1  0  0  0  0
 27 22  1  0  0  0  0
 28 27  1  0  0  0  0
 29 30  1  0  0  0  0
M  END
>  <minimizedAffinity>
-4.53481627

$$$$

 OpenBabel03272502383D

 30 32  0  0  1  0  0  0  0  0999 V2000
   38.3010   24.0300   34.3860 N   0  0  0  0  0  0  0  0  0  0  0  0
   37.8640   23.0840   33.3770 C   0  0  0  0  0  0  0  0  0  0  0  0
   37.1030   23.9770   32.3880 C   0  0  0  0  0  0  0  0  0  0  0  0
   37.1620   25.3590   32.9660 C   0  0  1  0  0  0  0  0  0  0  0  0
   38.4830   25.3090   33.6980 C   0  0  0  0  0  0  0  0  0  0  0  0
   37.1220   22.3770   33.8060 H   0  0  0  0  0  0  0  0  0  0  0  0
   38.7320   22.5850   32.9060 H   0  0  0  0  0  0  0  0  0  0  0  0
   37.6310   23.8770   31.4200 H   0  0  0  0  0  0  0  0  0  0  0  0
   36.0760   23.6030   32.2230 H   0  0  0  0  0  0  0  0  0  0  0  0
   36.3430   25.4640   33.6760 H   0  0  0  0  0  0  0  0  0  0  0  0
   39.3310   25.2890   33.0150 H   0  0  0  0  0  0  0  0  0  0  0  0
   38.5200   26.1100   34.4490 H   0  0  0  0  0  0  0  0  0  0  0  0
   38.5130   23.7820   35.7630 C   0  0  0  0  0  0  0  0  0  0  0  0
   39.6360   23.0360   36.1160 C   0  0  0  0  0  0  0  0  0  0  0  0
   39.8750   22.7740   37.4690 C   0  0  0  0  0  0  0  0  0  0  0  0
   38.9640   23.2820   38.3740 N   0  0  0  0  0  0  0  0  0  0  0  0
   37.8860   24.0020   38.0000 C   0  0  0  0  0  0  0  0  0  0  0  0
   37.6650   24.2490   36.6880 N   0  0  0  0  0  0  0  0  0  0  0  0
   40.3660   22.6260   35.4330 H   0  0  0  0  0  0  0  0  0  0  0  0
   40.7240   22.2030   37.8210 H   0  0  0  0  0  0  0  0  0  0  0  0
   37.2100   24.3710   38.7620 H   0  0  0  0  0  0  0  0  0  0  0  0
   38.3140   26.7480   31.1960 C   0  0  2  0  0  3  0  0  0  0  0  0
   37.0680   26.4580   31.9700 C   0  0  2  0  0  3  0  0  0  0  0  0
   36.8350   27.8020   32.6210 C   0  0  0  0  0  3  0  0  0  0  0  0
   35.8030   27.9220   32.9770 H   0  0  0  0  0  0  0  0  0  0  0  0
   37.2080   28.7610   31.6960 O   0  0  0  0  0  0  0  0  0  0  0  0
   38.0360   28.1820   30.7650 C   0  0  0  0  0  3  0  0  0  0  0  0
   38.9740   28.7870   30.7640 H   0  0  0  0  0  0  0  0  0  0  0  0
   38.3120   25.9460   30.0690 O   0  0  0  0  0  0  0  0  0  0  0  0
   39.1970   25.5420   29.9140 H   0  0  0  0  0  0  0  0  0  0  0  0
  1 13  1  0  0  0  0
  2  6  1  0  0  0  0
  2  1  1  0  0  0  0
  3  4  1  0  0  0  0
  3  2  1  0  0  0  0
  4 10  1  1  0  0  0
  4  5  1  0  0  0  0
  5  1  1  0  0  0  0
  5 12  1  0  0  0  0
  7  2  1  0  0  0  0
  8  3  1  0  0  0  0
  9  3  1  0  0  0  0
 11  5  1  0  0  0  0
 13 14  2  0  0  0  0
 13 18  1  0  0  0  0
 14 15  1  0  0  0  0
 15 20  1  0  0  0  0
 15 16  2  0  0  0  0
 17 16  1  0  0  0  0
 17 21  1  0  0  0  0
 18 17  2  0  0  0  0
 19 14  1  0  0  0  0
 22 29  1  6  0  0  0
 22 23  1  0  0  0  0
 23 24  1  1  0  0  0
 23  4  1  0  0  0  0
 24 25  1  0  0  0  0
 26 24  1  0  0  0  0
 27 22  1  0  0  0  0
 27 26  1  0  0  0  0
 28 27  1  0  0  0  0
 30 29  1  0  0  0  0
M  END
>  <minimizedAffinity>
-4.40681839

$$$$

 OpenBabel03272502383D

 30 32  0  0  1  0  0  0  0  0999 V2000
   36.6380   25.0860   32.2600 N   0  0  0  0  0  0  0  0  0  0  0  0
   37.3380   25.9060   33.2310 C   0  0  0  0  0  0  0  0  0  0  0  0
   37.6030   27.1990   32.4500 C   0  0  0  0  0  0  0  0  0  0  0  0
   37.0430   26.9640   31.0790 C   0  0  1  0  0  0  0  0  0  0  0  0
   35.9110   26.0120   31.3900 C   0  0  0  0  0  0  0  0  0  0  0  0
   38.3290   25.4640   33.4660 H   0  0  0  0  0  0  0  0  0  0  0  0
   36.7070   26.0790   34.1240 H   0  0  0  0  0  0  0  0  0  0  0  0
   37.0860   28.0030   33.0090 H   0  0  0  0  0  0  0  0  0  0  0  0
   38.6780   27.4550   32.4580 H   0  0  0  0  0  0  0  0  0  0  0  0
   37.8040   26.4590   30.4850 H   0  0  0  0  0  0  0  0  0  0  0  0
   35.0910   26.5050   31.9120 H   0  0  0  0  0  0  0  0  0  0  0  0
   35.6150   25.4780   30.4760 H   0  0  0  0  0  0  0  0  0  0  0  0
   36.6470   23.6750   32.1590 C   0  0  0  0  0  0  0  0  0  0  0  0
   35.7150   23.0860   31.3070 C   0  0  0  0  0  0  0  0  0  0  0  0
   35.6980   21.6930   31.1850 C   0  0  0  0  0  0  0  0  0  0  0  0
   36.6220   20.9880   31.9310 N   0  0  0  0  0  0  0  0  0  0  0  0
   37.5130   21.5890   32.7470 C   0  0  0  0  0  0  0  0  0  0  0  0
   37.5200   22.9370   32.8580 N   0  0  0  0  0  0  0  0  0  0  0  0
   34.9800   23.6080   30.7120 H   0  0  0  0  0  0  0  0  0  0  0  0
   35.0040   21.1620   30.5450 H   0  0  0  0  0  0  0  0  0  0  0  0
   38.2110   20.9770   33.3050 H   0  0  0  0  0  0  0  0  0  0  0  0
   37.6660   28.8640   29.5330 C   0  0  2  0  0  3  0  0  0  0  0  0
   36.6160   28.1900   30.3590 C   0  0  2  0  0  3  0  0  0  0  0  0
   36.2540   29.3140   31.3040 C   0  0  0  0  0  3  0  0  0  0  0  0
   35.2820   29.1570   31.7880 H   0  0  0  0  0  0  0  0  0  0  0  0
   36.3160   30.4850   30.5700 O   0  0  0  0  0  0  0  0  0  0  0  0
   37.0850   30.2680   29.4510 C   0  0  0  0  0  3  0  0  0  0  0  0
   37.8940   31.0370   29.4780 H   0  0  0  0  0  0  0  0  0  0  0  0
   37.6350   28.3050   28.2670 O   0  0  0  0  0  0  0  0  0  0  0  0
   38.5430   28.1220   27.9330 H   0  0  0  0  0  0  0  0  0  0  0  0
  1  2  1  0  0  0  0
  2  6  1  0  0  0  0
  2  7  1  0  0  0  0
  3  9  1  0  0  0  0
  3  8  1  0  0  0  0
  3  2  1  0  0  0  0
  4 10  1  6  0  0  0
  4  5  1  0  0  0  0
  4  3  1  0  0  0  0
  5 11  1  0  0  0  0
  5  1  1  0  0  0  0
 12  5  1  0  0  0  0
 13  1  1  0  0  0  0
 13 18  1  0  0  0  0
 14 13  2  0  0  0  0
 15 14  1  0  0  0  0
 15 16  2  0  0  0  0
 16 17  1  0  0  0  0
 17 18  2  0  0  0  0
 17 21  1  0  0  0  0
 19 14  1  0  0  0  0
 20 15  1  0  0  0  0
 22 29  1  6  0  0  0
 22 23  1  0  0  0  0
 23  4  1  0  0  0  0
 23 24  1  1  0  0  0
 24 25  1  0  0  0  0
 26 24  1  0  0  0  0
 27 28  1  0  0  0  0
 27 22  1  0  0  0  0
 27 26  1  0  0  0  0
 30 29  1  0  0  0  0
M  END
>  <minimizedAffinity>
-4.33968735

$$$$

 OpenBabel03272502383D

 30 32  0  0  1  0  0  0  0  0999 V2000
   36.8310   24.4770   30.9750 N   0  0  0  0  0  0  0  0  0  0  0  0
   37.9100   23.6710   30.4350 C   0  0  0  0  0  0  0  0  0  0  0  0
   37.6540   22.2980   31.0720 C   0  0  0  0  0  0  0  0  0  0  0  0
   36.4510   22.4790   31.9490 C   0  0  1  0  0  0  0  0  0  0  0  0
   35.7100   23.5630   31.2000 C   0  0  0  0  0  0  0  0  0  0  0  0
   38.8880   24.0260   30.8220 H   0  0  0  0  0  0  0  0  0  0  0  0
   37.8560   23.6340   29.3310 H   0  0  0  0  0  0  0  0  0  0  0  0
   37.4890   21.5990   30.2300 H   0  0  0  0  0  0  0  0  0  0  0  0
   38.5500   21.9360   31.6090 H   0  0  0  0  0  0  0  0  0  0  0  0
   36.7900   22.8540   32.9140 H   0  0  0  0  0  0  0  0  0  0  0  0
   35.2830   23.1990   30.2660 H   0  0  0  0  0  0  0  0  0  0  0  0
   34.9890   24.0490   31.8720 H   0  0  0  0  0  0  0  0  0  0  0  0
   36.8430   25.8670   31.2360 C   0  0  0  0  0  0  0  0  0  0  0  0
   38.0760   26.5150   31.2100 C   0  0  0  0  0  0  0  0  0  0  0  0
   38.1220   27.8890   31.4640 C   0  0  0  0  0  0  0  0  0  0  0  0
   36.9210   28.5170   31.7280 N   0  0  0  0  0  0  0  0  0  0  0  0
   35.7430   27.8610   31.7460 C   0  0  0  0  0  0  0  0  0  0  0  0
   35.7100   26.5310   31.4990 N   0  0  0  0  0  0  0  0  0  0  0  0
   39.0320   26.0530   31.0080 H   0  0  0  0  0  0  0  0  0  0  0  0
   39.0420   28.4620   31.4620 H   0  0  0  0  0  0  0  0  0  0  0  0
   34.8360   28.4140   31.9590 H   0  0  0  0  0  0  0  0  0  0  0  0
   36.1000   20.3710   33.2980 C   0  0  2  0  0  3  0  0  0  0  0  0
   35.6510   21.2480   32.1740 C   0  0  2  0  0  3  0  0  0  0  0  0
   35.7530   20.2790   31.0180 C   0  0  0  0  0  3  0  0  0  0  0  0
   35.1680   20.6030   30.1470 H   0  0  0  0  0  0  0  0  0  0  0  0
   35.3700   19.0420   31.5030 O   0  0  0  0  0  0  0  0  0  0  0  0
   35.4790   19.0480   32.8730 C   0  0  0  0  0  3  0  0  0  0  0  0
   36.1470   18.1920   33.1350 H   0  0  0  0  0  0  0  0  0  0  0  0
   35.4660   20.7990   34.4520 O   0  0  0  0  0  0  0  0  0  0  0  0
   36.0900   20.8340   35.2130 H   0  0  0  0  0  0  0  0  0  0  0  0
  1  5  1  0  0  0  0
  1 13  1  0  0  0  0
  2  6  1  0  0  0  0
  2  1  1  0  0  0  0
  2  3  1  0  0  0  0
  3  9  1  0  0  0  0
  3  4  1  0  0  0  0
  4 23  1  0  0  0  0
  4 10  1  1  0  0  0
  5 12  1  0  0  0  0
  5  4  1  0  0  0  0
  7  2  1  0  0  0  0
  8  3  1  0  0  0  0
 11  5  1  0  0  0  0
 13 18  1  0  0  0  0
 14 13  2  0  0  0  0
 14 15  1  0  0  0  0
 15 16  2  0  0  0  0
 16 17  1  0  0  0  0
 17 21  1  0  0  0  0
 18 17  2  0  0  0  0
 19 14  1  0  0  0  0
 20 15  1  0  0  0  0
 22 29  1  1  0  0  0
 23 24  1  6  0  0  0
 23 22  1  0  0  0  0
 24 26  1  0  0  0  0
 25 24  1  0  0  0  0
 26 27  1  0  0  0  0
 27 28  1  0  0  0  0
 27 22  1  0  0  0  0
 29 30  1  0  0  0  0
M  END
>  <minimizedAffinity>
-4.33512497

$$$$
