
 OpenBabel03272504533D

 25 27  0  0  1  0  0  0  0  0999 V2000
   36.7820   31.2030   48.9170 C   0  0  0  0  0  0  0  0  0  0  0  0
   37.4220   31.9140   49.9480 C   0  0  0  0  0  0  0  0  0  0  0  0
   38.4780   32.7200   49.5600 C   0  0  0  0  0  0  0  0  0  0  0  0
   38.8490   32.7930   48.2430 N   0  0  0  0  0  0  0  0  0  0  0  0
   38.2000   32.0870   47.2780 C   0  0  0  0  0  0  0  0  0  0  0  0
   37.1610   31.2880   47.6250 N   0  0  0  0  0  0  0  0  0  0  0  0
   37.1160   31.8400   50.9620 H   0  0  0  0  0  0  0  0  0  0  0  0
   38.9960   33.2820   50.3250 H   0  0  0  0  0  0  0  0  0  0  0  0
   35.6110   30.3370   49.3050 C   0  0  0  0  0  0  0  0  0  0  0  0
   35.1970   29.2160   48.4700 C   0  0  0  0  0  0  0  0  0  0  0  0
   36.0290   28.9260   49.6910 C   0  0  0  0  0  0  0  0  0  0  0  0
   34.9200   30.8540   50.0200 H   0  0  0  0  0  0  0  0  0  0  0  0
   35.7310   29.1140   47.4790 H   0  0  0  0  0  0  0  0  0  0  0  0
   34.1440   28.9130   48.4050 H   0  0  0  0  0  0  0  0  0  0  0  0
   37.0760   28.6190   49.6140 H   0  0  0  0  0  0  0  0  0  0  0  0
   35.4390   28.5070   50.5290 H   0  0  0  0  0  0  0  0  0  0  0  0
   37.5970   31.7610   44.8840 C   0  0  2  0  0  3  0  0  0  0  0  0
   38.6530   32.2120   45.8660 C   0  0  2  0  0  3  0  0  0  0  0  0
   39.8300   31.3340   45.5480 C   0  0  0  0  0  3  0  0  0  0  0  0
   40.7590   31.9180   45.6660 H   0  0  0  0  0  0  0  0  0  0  0  0
   39.6620   30.8680   44.2620 O   0  0  0  0  0  0  0  0  0  0  0  0
   38.2840   30.7060   44.0740 C   0  0  0  0  0  3  0  0  0  0  0  0
   37.9400   29.7020   44.3880 H   0  0  0  0  0  0  0  0  0  0  0  0
   37.1950   32.7750   44.0150 O   0  0  0  0  0  0  0  0  0  0  0  0
   37.9330   33.4580   44.0130 H   0  0  0  0  0  0  0  0  0  0  0  0
  1  9  1  0  0  0  0
  1  2  1  0  0  0  0
  2  7  1  0  0  0  0
  3  2  2  0  0  0  0
  3  8  1  0  0  0  0
  4  3  1  0  0  0  0
  5  6  1  0  0  0  0
  5  4  2  0  0  0  0
  6  1  2  0  0  0  0
  9 11  1  0  0  0  0
  9 12  1  0  0  0  0
 10  9  1  0  0  0  0
 10 11  1  0  0  0  0
 11 16  1  0  0  0  0
 13 10  1  0  0  0  0
 14 10  1  0  0  0  0
 15 11  1  0  0  0  0
 17 24  1  6  0  0  0
 17 18  1  0  0  0  0
 18  5  1  1  0  0  0
 19 20  1  0  0  0  0
 19 18  1  0  0  0  0
 21 19  1  0  0  0  0
 22 21  1  0  0  0  0
 22 23  1  0  0  0  0
 22 17  1  0  0  0  0
 25 24  1  0  0  0  0
M  END
>  <minimizedAffinity>
-5.35132599

>  <minimizedRMSD>
1.58612347

$$$$
