
 OpenBabel03262521513D

 22 23  0  0  1  0  0  0  0  0999 V2000
   38.4180   31.3940   49.8810 C   0  0  0  0  0  0  0  0  0  0  0  0
   38.8380   31.8260   50.8360 H   0  0  0  0  0  0  0  0  0  0  0  0
   39.1350   30.5980   49.6060 H   0  0  0  0  0  0  0  0  0  0  0  0
   35.3060   29.3890   49.8590 C   0  0  2  0  0  3  0  0  0  0  0  0
   36.5490   29.9070   49.1180 C   0  0  0  0  0  3  0  0  0  0  0  0
   37.2830   29.0910   48.9700 H   0  0  0  0  0  0  0  0  0  0  0  0
   37.1120   30.7890   50.2430 C   0  0  1  0  0  3  0  0  0  0  0  0
   37.1000   29.9060   51.2840 O   0  0  0  0  0  0  0  0  0  0  0  0
   35.8030   29.4040   51.2770 C   0  0  0  0  0  3  0  0  0  0  0  0
   35.1780   30.0720   51.9370 H   0  0  0  0  0  0  0  0  0  0  0  0
   34.9160   28.1380   49.4040 O   0  0  0  0  0  0  0  0  0  0  0  0
   34.1470   27.8710   49.9860 H   0  0  0  0  0  0  0  0  0  0  0  0
   38.3470   32.7290   48.6830 S   0  0  0  0  0  0  0  0  0  0  0  0
   39.0900   32.1430   47.1750 C   0  0  0  0  0  0  0  0  0  0  0  0
   39.8910   33.1230   46.5720 C   0  0  0  0  0  0  0  0  0  0  0  0
   40.5370   32.7660   45.3680 C   0  0  0  0  0  0  0  0  0  0  0  0
   40.3570   31.5220   44.8660 N   0  0  0  0  0  0  0  0  0  0  0  0
   39.5760   30.6240   45.4920 C   0  0  0  0  0  0  0  0  0  0  0  0
   38.9690   30.9510   46.6190 N   0  0  0  0  0  0  0  0  0  0  0  0
   40.0630   34.1370   46.9420 H   0  0  0  0  0  0  0  0  0  0  0  0
   41.1740   33.4960   44.8570 H   0  0  0  0  0  0  0  0  0  0  0  0
   39.4450   29.6300   45.0690 H   0  0  0  0  0  0  0  0  0  0  0  0
  1  2  1  0  0  0  0
  3  1  1  0  0  0  0
  4 11  1  6  0  0  0
  4  9  1  0  0  0  0
  5  4  1  0  0  0  0
  5  7  1  0  0  0  0
  6  5  1  0  0  0  0
  7  1  1  6  0  0  0
  7  8  1  0  0  0  0
  9  8  1  0  0  0  0
  9 10  1  0  0  0  0
 11 12  1  0  0  0  0
 13  1  1  0  0  0  0
 14 13  1  0  0  0  0
 15 20  1  0  0  0  0
 15 14  2  0  0  0  0
 16 15  1  0  0  0  0
 17 16  2  0  0  0  0
 17 18  1  0  0  0  0
 18 19  2  0  0  0  0
 19 14  1  0  0  0  0
 21 16  1  0  0  0  0
 22 18  1  0  0  0  0
M  END
>  <minimizedAffinity>
-4.67154026

>  <minimizedRMSD>
3.61047721

$$$$
