
 OpenBabel03272506393D

 37 39  0  0  1  0  0  0  0  0999 V2000
   35.5080   28.7600   50.1190 O   0  0  0  0  0  0  0  0  0  0  0  0
   35.2580   29.0960   48.9460 C   0  0  0  0  0  0  0  0  0  0  0  0
   35.9130   30.2330   48.3380 C   0  0  2  0  0  0  0  0  0  0  0  0
   35.4200   30.0980   46.8620 C   0  0  0  0  0  0  0  0  0  0  0  0
   34.1050   29.3930   47.0100 C   0  0  0  0  0  0  0  0  0  0  0  0
   34.3210   28.4270   48.0700 N   0  0  0  0  0  0  0  0  0  0  0  0
   35.6350   31.2310   48.6850 H   0  0  0  0  0  0  0  0  0  0  0  0
   35.3640   31.0910   46.3960 H   0  0  0  0  0  0  0  0  0  0  0  0
   36.1570   29.4840   46.3490 H   0  0  0  0  0  0  0  0  0  0  0  0
   33.2690   30.0870   47.2300 H   0  0  0  0  0  0  0  0  0  0  0  0
   33.9260   28.8320   46.0720 H   0  0  0  0  0  0  0  0  0  0  0  0
   33.7540   27.0950   48.2510 C   0  0  0  0  0  0  0  0  0  0  0  0
   34.5130   26.3350   48.5250 H   0  0  0  0  0  0  0  0  0  0  0  0
   33.0970   27.1710   49.1660 H   0  0  0  0  0  0  0  0  0  0  0  0
   32.3360   24.4630   46.6400 C   0  0  2  0  0  3  0  0  0  0  0  0
   33.4860   25.4320   46.4960 C   0  0  0  0  0  3  0  0  0  0  0  0
   34.3660   25.0690   47.0710 H   0  0  0  0  0  0  0  0  0  0  0  0
   32.9180   26.7030   47.0820 C   0  0  1  0  0  3  0  0  0  0  0  0
   31.6450   26.3800   47.5510 O   0  0  0  0  0  0  0  0  0  0  0  0
   31.1560   25.4020   46.6920 C   0  0  0  0  0  3  0  0  0  0  0  0
   30.2860   24.9480   47.2230 H   0  0  0  0  0  0  0  0  0  0  0  0
   32.4520   23.8450   47.8820 O   0  0  0  0  0  0  0  0  0  0  0  0
   32.1610   24.4930   48.5890 H   0  0  0  0  0  0  0  0  0  0  0  0
   37.3370   30.1340   48.2770 O   0  0  0  0  0  0  0  0  0  0  0  0
   38.0610   31.3190   48.2070 C   0  0  0  0  0  0  0  0  0  0  0  0
   38.2140   32.0230   49.3870 C   0  0  0  0  0  0  0  0  0  0  0  0
   38.9310   33.2120   49.3570 C   0  0  0  0  0  0  0  0  0  0  0  0
   39.4490   33.6320   48.1690 N   0  0  0  0  0  0  0  0  0  0  0  0
   39.2920   32.9380   47.0320 C   0  0  0  0  0  0  0  0  0  0  0  0
   38.6070   31.8050   47.0760 N   0  0  0  0  0  0  0  0  0  0  0  0
   40.7730   32.4890   45.2360 C   0  0  0  0  0  0  0  0  0  0  0  0
   41.1340   31.3620   45.6800 O   0  0  0  0  0  0  0  0  0  0  0  0
   39.8460   33.4090   45.8080 N   0  0  0  0  0  0  0  0  0  0  0  0
   37.8240   31.7340   50.3500 H   0  0  0  0  0  0  0  0  0  0  0  0
   39.0720   33.7880   50.2520 H   0  0  0  0  0  0  0  0  0  0  0  0
   41.2770   32.7110   44.2990 H   0  0  0  0  0  0  0  0  0  0  0  0
   39.6260   34.3180   45.3440 H   0  0  0  0  0  0  0  0  0  0  0  0
  2  1  2  0  0  0  0
  3  7  1  1  0  0  0
  3  2  1  0  0  0  0
  4  5  1  0  0  0  0
  4  3  1  0  0  0  0
  5 10  1  0  0  0  0
  5  6  1  0  0  0  0
  6 12  1  0  0  0  0
  6  2  1  0  0  0  0
  8  4  1  0  0  0  0
  9  4  1  0  0  0  0
 11  5  1  0  0  0  0
 12 13  1  0  0  0  0
 12 14  1  0  0  0  0
 15 20  1  0  0  0  0
 15 22  1  1  0  0  0
 16 15  1  0  0  0  0
 16 17  1  0  0  0  0
 16 18  1  0  0  0  0
 18 19  1  0  0  0  0
 18 12  1  1  0  0  0
 20 21  1  0  0  0  0
 20 19  1  0  0  0  0
 22 23  1  0  0  0  0
 24  3  1  0  0  0  0
 25 24  1  0  0  0  0
 25 26  1  0  0  0  0
 26 34  1  0  0  0  0
 27 26  2  0  0  0  0
 27 35  1  0  0  0  0
 28 27  1  0  0  0  0
 29 30  1  0  0  0  0
 29 28  2  0  0  0  0
 30 25  2  0  0  0  0
 31 32  2  0  0  0  0
 31 33  1  0  0  0  0
 33 29  1  0  0  0  0
 36 31  1  0  0  0  0
 37 33  1  0  0  0  0
M  END
>  <minimizedAffinity>
-5.5714221

>  <minimizedRMSD>
1.25338852

$$$$
