
 OpenBabel03262523493D

 21 22  0  0  1  0  0  0  0  0999 V2000
   37.9900   28.9720   52.6470 C   0  0  0  0  0  0  0  0  0  0  0  0
   37.1750   28.4700   53.2280 H   0  0  0  0  0  0  0  0  0  0  0  0
   38.4460   29.6850   53.3290 H   0  0  0  0  0  0  0  0  0  0  0  0
   37.3360   29.6190   51.4890 C   0  0  0  0  0  0  0  0  0  0  0  0
   38.0910   30.5570   50.7780 C   0  0  0  0  0  0  0  0  0  0  0  0
   37.4810   31.1870   49.6670 C   0  0  0  0  0  0  0  0  0  0  0  0
   36.2050   30.8440   49.3580 N   0  0  0  0  0  0  0  0  0  0  0  0
   35.5180   29.9360   50.0730 C   0  0  0  0  0  0  0  0  0  0  0  0
   36.0810   29.3310   51.1270 N   0  0  0  0  0  0  0  0  0  0  0  0
   39.1160   30.7710   51.1000 H   0  0  0  0  0  0  0  0  0  0  0  0
   38.0660   31.9100   49.1190 H   0  0  0  0  0  0  0  0  0  0  0  0
   34.4990   29.6590   49.8300 H   0  0  0  0  0  0  0  0  0  0  0  0
   39.7800   25.7360   52.4060 C   0  0  1  0  0  3  0  0  0  0  0  0
   38.9890   26.7520   53.2410 C   0  0  0  0  0  3  0  0  0  0  0  0
   37.9800   26.3530   53.4570 H   0  0  0  0  0  0  0  0  0  0  0  0
   38.9350   27.8780   52.2440 C   0  0  1  0  0  3  0  0  0  0  0  0
   38.4890   27.1800   51.1160 O   0  0  0  0  0  0  0  0  0  0  0  0
   39.4150   26.1380   51.0120 C   0  0  0  0  0  3  0  0  0  0  0  0
   38.9690   25.3320   50.4070 H   0  0  0  0  0  0  0  0  0  0  0  0
   41.1470   26.0310   52.6130 O   0  0  0  0  0  0  0  0  0  0  0  0
   41.2870   26.4830   53.4990 H   0  0  0  0  0  0  0  0  0  0  0  0
  1  2  1  0  0  0  0
  1  3  1  0  0  0  0
  4  1  1  0  0  0  0
  5 10  1  0  0  0  0
  5  4  2  0  0  0  0
  6  5  1  0  0  0  0
  7  6  2  0  0  0  0
  7  8  1  0  0  0  0
  8  9  2  0  0  0  0
  9  4  1  0  0  0  0
 11  6  1  0  0  0  0
 12  8  1  0  0  0  0
 13 20  1  6  0  0  0
 13 14  1  0  0  0  0
 14 15  1  0  0  0  0
 16  1  1  1  0  0  0
 16 14  1  0  0  0  0
 17 16  1  0  0  0  0
 18 17  1  0  0  0  0
 18 13  1  0  0  0  0
 19 18  1  0  0  0  0
 20 21  1  0  0  0  0
M  END
>  <minimizedAffinity>
0.882999122

>  <minimizedRMSD>
1.64080369

$$$$
