
 OpenBabel03272509583D

 46 49  0  0  1  0  0  0  0  0999 V2000
   34.3430   28.7270   48.2230 C   0  0  0  0  0  0  0  0  0  0  0  0
   33.7060   29.5870   48.5230 H   0  0  0  0  0  0  0  0  0  0  0  0
   35.0870   29.1480   47.5200 H   0  0  0  0  0  0  0  0  0  0  0  0
   33.5570   27.5880   47.6570 C   0  0  0  0  0  0  0  0  0  0  0  0
   33.8350   26.6090   48.0820 H   0  0  0  0  0  0  0  0  0  0  0  0
   33.8180   27.5390   46.5620 H   0  0  0  0  0  0  0  0  0  0  0  0
   32.0910   27.7860   47.7870 C   0  0  0  0  0  0  0  0  0  0  0  0
   31.5410   27.6250   49.0590 C   0  0  0  0  0  0  0  0  0  0  0  0
   30.1880   27.7870   49.2840 C   0  0  0  0  0  0  0  0  0  0  0  0
   29.3840   28.1070   48.2570 N   0  0  0  0  0  0  0  0  0  0  0  0
   29.9580   28.2570   47.0250 C   0  0  0  0  0  0  0  0  0  0  0  0
   31.2590   28.1090   46.7640 N   0  0  0  0  0  0  0  0  0  0  0  0
   32.1790   27.3670   49.8880 H   0  0  0  0  0  0  0  0  0  0  0  0
   29.7800   27.6580   50.2770 H   0  0  0  0  0  0  0  0  0  0  0  0
   29.0090   28.6020   45.9250 C   0  0  0  0  0  0  0  0  0  0  0  0
   28.0310   28.1230   46.1120 H   0  0  0  0  0  0  0  0  0  0  0  0
   29.3710   28.2130   44.9600 H   0  0  0  0  0  0  0  0  0  0  0  0
   28.8510   31.8720   44.2890 C   0  0  1  0  0  3  0  0  0  0  0  0
   29.7450   30.7460   44.8210 C   0  0  0  0  0  3  0  0  0  0  0  0
   30.1140   30.1320   44.0030 H   0  0  0  0  0  0  0  0  0  0  0  0
   28.8160   30.0820   45.7760 C   0  0  1  0  0  3  0  0  0  0  0  0
   27.5290   30.4400   45.4420 O   0  0  0  0  0  0  0  0  0  0  0  0
   27.6250   31.8050   45.1820 C   0  0  0  0  0  3  0  0  0  0  0  0
   26.7090   32.1250   44.6440 H   0  0  0  0  0  0  0  0  0  0  0  0
   29.4760   33.1130   44.3740 O   0  0  0  0  0  0  0  0  0  0  0  0
   30.2690   33.0760   43.8010 H   0  0  0  0  0  0  0  0  0  0  0  0
   35.0230   28.3310   49.4050 O   0  0  0  0  0  0  0  0  0  0  0  0
   37.3300   30.1770   51.4930 C   0  0  0  0  0  0  0  0  0  0  0  0
   38.0650   30.8710   50.4950 C   0  0  0  0  0  0  0  0  0  0  0  0
   37.7150   30.6560   49.1610 C   0  0  0  0  0  0  0  0  0  0  0  0
   36.6810   29.7830   48.9560 N   0  0  0  0  0  0  0  0  0  0  0  0
   36.0010   29.1380   49.8980 C   0  0  0  0  0  0  0  0  0  0  0  0
   36.3400   29.3470   51.1920 N   0  0  0  0  0  0  0  0  0  0  0  0
   37.6140   30.3560   52.5210 H   0  0  0  0  0  0  0  0  0  0  0  0
   38.8670   31.5470   50.6940 H   0  0  0  0  0  0  0  0  0  0  0  0
   38.9370   33.2730   48.9710 F   0  0  0  0  0  0  0  0  0  0  0  0
   38.9210   32.4790   47.9190 C   0  0  0  0  0  0  0  0  0  0  0  0
   38.3500   31.2730   48.0300 C   0  0  0  0  0  0  0  0  0  0  0  0
   38.3910   30.5140   46.8500 C   0  0  0  0  0  0  0  0  0  0  0  0
   38.9630   30.9700   45.6930 C   0  0  0  0  0  0  0  0  0  0  0  0
   39.5380   32.2240   45.6330 C   0  0  0  0  0  0  0  0  0  0  0  0
   39.5050   32.9710   46.7750 C   0  0  0  0  0  0  0  0  0  0  0  0
   37.9610   29.5090   46.7980 H   0  0  0  0  0  0  0  0  0  0  0  0
   38.9890   30.3750   44.7880 H   0  0  0  0  0  0  0  0  0  0  0  0
   39.9880   32.5750   44.7140 H   0  0  0  0  0  0  0  0  0  0  0  0
   39.9530   33.9530   46.7350 H   0  0  0  0  0  0  0  0  0  0  0  0
  1  2  1  0  0  0  0
  1 27  1  0  0  0  0
  3  1  1  0  0  0  0
  4  7  1  0  0  0  0
  4  5  1  0  0  0  0
  4  1  1  0  0  0  0
  6  4  1  0  0  0  0
  7  8  1  0  0  0  0
  8  9  2  0  0  0  0
  8 13  1  0  0  0  0
  9 14  1  0  0  0  0
 10  9  1  0  0  0  0
 11 10  2  0  0  0  0
 12 11  1  0  0  0  0
 12  7  2  0  0  0  0
 15 16  1  0  0  0  0
 15 11  1  0  0  0  0
 17 15  1  0  0  0  0
 18 25  1  1  0  0  0
 18 19  1  0  0  0  0
 18 23  1  0  0  0  0
 19 21  1  0  0  0  0
 20 19  1  0  0  0  0
 21 15  1  6  0  0  0
 22 21  1  0  0  0  0
 23 22  1  0  0  0  0
 24 23  1  0  0  0  0
 26 25  1  0  0  0  0
 27 32  1  0  0  0  0
 28 34  1  0  0  0  0
 29 35  1  0  0  0  0
 29 28  2  0  0  0  0
 30 29  1  0  0  0  0
 31 30  2  0  0  0  0
 31 32  1  0  0  0  0
 32 33  2  0  0  0  0
 33 28  1  0  0  0  0
 37 38  1  0  0  0  0
 37 36  1  0  0  0  0
 38 30  1  0  0  0  0
 39 38  2  0  0  0  0
 40 39  1  0  0  0  0
 41 40  2  0  0  0  0
 41 42  1  0  0  0  0
 42 37  2  0  0  0  0
 43 39  1  0  0  0  0
 44 40  1  0  0  0  0
 45 41  1  0  0  0  0
 46 42  1  0  0  0  0
M  END
>  <minimizedAffinity>
-6.70337868

>  <minimizedRMSD>
0.79913187

$$$$
