
 OpenBabel03272506393D

 37 39  0  0  1  0  0  0  0  0999 V2000
   35.0920   28.5230   49.7550 O   0  0  0  0  0  0  0  0  0  0  0  0
   35.0200   28.9570   48.5890 C   0  0  0  0  0  0  0  0  0  0  0  0
   35.7550   30.1340   48.1810 C   0  0  2  0  0  0  0  0  0  0  0  0
   35.4880   30.1260   46.6430 C   0  0  0  0  0  0  0  0  0  0  0  0
   34.1670   29.4240   46.5340 C   0  0  0  0  0  0  0  0  0  0  0  0
   34.2250   28.3710   47.5310 N   0  0  0  0  0  0  0  0  0  0  0  0
   35.4260   31.1030   48.5650 H   0  0  0  0  0  0  0  0  0  0  0  0
   35.4990   31.1540   46.2580 H   0  0  0  0  0  0  0  0  0  0  0  0
   36.2950   29.5490   46.1960 H   0  0  0  0  0  0  0  0  0  0  0  0
   33.3060   30.1060   46.6840 H   0  0  0  0  0  0  0  0  0  0  0  0
   34.1310   28.9440   45.5360 H   0  0  0  0  0  0  0  0  0  0  0  0
   33.6410   27.0350   47.5140 C   0  0  0  0  0  0  0  0  0  0  0  0
   33.6860   26.5570   46.5150 H   0  0  0  0  0  0  0  0  0  0  0  0
   34.3230   26.4020   48.1530 H   0  0  0  0  0  0  0  0  0  0  0  0
   30.3490   27.5470   46.8550 C   0  0  2  0  0  3  0  0  0  0  0  0
   31.5120   28.2130   47.5500 C   0  0  0  0  0  3  0  0  0  0  0  0
   32.1190   28.7870   46.8150 H   0  0  0  0  0  0  0  0  0  0  0  0
   32.2760   27.0370   48.1110 C   0  0  1  0  0  3  0  0  0  0  0  0
   31.6100   25.8930   47.6660 O   0  0  0  0  0  0  0  0  0  0  0  0
   30.2650   26.2360   47.5970 C   0  0  0  0  0  3  0  0  0  0  0  0
   29.7860   25.4370   46.9820 H   0  0  0  0  0  0  0  0  0  0  0  0
   30.7340   27.2760   45.5440 O   0  0  0  0  0  0  0  0  0  0  0  0
   31.3480   26.4850   45.5480 H   0  0  0  0  0  0  0  0  0  0  0  0
   37.1730   30.0260   48.3260 O   0  0  0  0  0  0  0  0  0  0  0  0
   37.9130   31.2010   48.2820 C   0  0  0  0  0  0  0  0  0  0  0  0
   38.0740   31.8790   49.4780 C   0  0  0  0  0  0  0  0  0  0  0  0
   38.8070   33.0570   49.4740 C   0  0  0  0  0  0  0  0  0  0  0  0
   39.3350   33.4940   48.2970 N   0  0  0  0  0  0  0  0  0  0  0  0
   39.1710   32.8270   47.1450 C   0  0  0  0  0  0  0  0  0  0  0  0
   38.4690   31.7040   47.1640 N   0  0  0  0  0  0  0  0  0  0  0  0
   40.6510   32.3950   45.3440 C   0  0  0  0  0  0  0  0  0  0  0  0
   40.9940   31.2530   45.7650 O   0  0  0  0  0  0  0  0  0  0  0  0
   39.7350   33.3160   45.9330 N   0  0  0  0  0  0  0  0  0  0  0  0
   37.6760   31.5750   50.4330 H   0  0  0  0  0  0  0  0  0  0  0  0
   38.9540   33.6120   50.3810 H   0  0  0  0  0  0  0  0  0  0  0  0
   41.1610   32.6290   44.4130 H   0  0  0  0  0  0  0  0  0  0  0  0
   39.5300   34.2370   45.4880 H   0  0  0  0  0  0  0  0  0  0  0  0
  2  1  2  0  0  0  0
  3 24  1  0  0  0  0
  3  7  1  1  0  0  0
  3  2  1  0  0  0  0
  4  3  1  0  0  0  0
  5  4  1  0  0  0  0
  5 10  1  0  0  0  0
  5  6  1  0  0  0  0
  6  2  1  0  0  0  0
  8  4  1  0  0  0  0
  9  4  1  0  0  0  0
 11  5  1  0  0  0  0
 12  6  1  0  0  0  0
 12 14  1  0  0  0  0
 13 12  1  0  0  0  0
 15 22  1  6  0  0  0
 15 16  1  0  0  0  0
 15 20  1  0  0  0  0
 16 18  1  0  0  0  0
 17 16  1  0  0  0  0
 18 12  1  6  0  0  0
 19 18  1  0  0  0  0
 20 19  1  0  0  0  0
 21 20  1  0  0  0  0
 22 23  1  0  0  0  0
 25 24  1  0  0  0  0
 25 26  1  0  0  0  0
 26 34  1  0  0  0  0
 27 26  2  0  0  0  0
 27 35  1  0  0  0  0
 28 27  1  0  0  0  0
 29 30  1  0  0  0  0
 29 28  2  0  0  0  0
 30 25  2  0  0  0  0
 31 32  2  0  0  0  0
 31 33  1  0  0  0  0
 33 29  1  0  0  0  0
 36 31  1  0  0  0  0
 37 33  1  0  0  0  0
M  END
>  <minimizedAffinity>
-5.56387568

>  <minimizedRMSD>
0.540489256

$$$$
