
 OpenBabel03262520423D

 21 22  0  0  1  0  0  0  0  0999 V2000
   38.1890   26.2250   36.2550 C   0  0  0  0  0  0  0  0  0  0  0  0
   39.2350   26.5750   36.2520 H   0  0  0  0  0  0  0  0  0  0  0  0
   37.6230   26.8040   37.0240 H   0  0  0  0  0  0  0  0  0  0  0  0
   36.5070   27.8960   33.3320 C   0  0  0  0  0  0  0  0  0  0  0  0
   37.0770   27.6830   34.6240 C   0  0  0  0  0  0  0  0  0  0  0  0
   37.6020   26.4330   34.9150 C   0  0  0  0  0  0  0  0  0  0  0  0
   37.5550   25.4670   33.9680 N   0  0  0  0  0  0  0  0  0  0  0  0
   37.0070   25.6910   32.7400 C   0  0  0  0  0  0  0  0  0  0  0  0
   36.4950   26.8910   32.4400 N   0  0  0  0  0  0  0  0  0  0  0  0
   36.1260   28.8950   33.1990 H   0  0  0  0  0  0  0  0  0  0  0  0
   37.1010   28.4790   35.3670 H   0  0  0  0  0  0  0  0  0  0  0  0
   36.9850   24.8880   31.9960 H   0  0  0  0  0  0  0  0  0  0  0  0
   38.4370   23.2230   38.3870 C   0  0  2  0  0  3  0  0  0  0  0  0
   38.0740   24.6910   38.2000 C   0  0  0  0  0  3  0  0  0  0  0  0
   37.0590   24.8940   38.5410 H   0  0  0  0  0  0  0  0  0  0  0  0
   38.1770   24.7760   36.6740 C   0  0  2  0  0  3  0  0  0  0  0  0
   39.3460   24.1100   36.4170 O   0  0  0  0  0  0  0  0  0  0  0  0
   39.3240   22.9770   37.1900 C   0  0  0  0  0  3  0  0  0  0  0  0
   40.3270   22.7120   37.6140 H   0  0  0  0  0  0  0  0  0  0  0  0
   37.2550   22.4990   38.3290 O   0  0  0  0  0  0  0  0  0  0  0  0
   36.4610   23.0750   38.2240 H   0  0  0  0  0  0  0  0  0  0  0  0
  1  3  1  0  0  0  0
  2  1  1  0  0  0  0
  4  5  1  0  0  0  0
  5  6  2  0  0  0  0
  5 11  1  0  0  0  0
  6  1  1  0  0  0  0
  7  6  1  0  0  0  0
  8  7  2  0  0  0  0
  9  8  1  0  0  0  0
  9  4  2  0  0  0  0
 10  4  1  0  0  0  0
 12  8  1  0  0  0  0
 13 20  1  6  0  0  0
 14 13  1  0  0  0  0
 14 15  1  0  0  0  0
 16  1  1  1  0  0  0
 16 14  1  0  0  0  0
 17 16  1  0  0  0  0
 17 18  1  0  0  0  0
 18 19  1  0  0  0  0
 18 13  1  0  0  0  0
 21 20  1  0  0  0  0
M  END
>  <minimizedAffinity>
-4.20756054

$$$$

 OpenBabel03262520423D

 21 22  0  0  1  0  0  0  0  0999 V2000
   36.9670   22.4160   32.5090 C   0  0  0  0  0  0  0  0  0  0  0  0
   38.0140   22.2790   32.1860 H   0  0  0  0  0  0  0  0  0  0  0  0
   36.9190   22.3000   33.6180 H   0  0  0  0  0  0  0  0  0  0  0  0
   34.9740   25.1430   30.8480 C   0  0  0  0  0  0  0  0  0  0  0  0
   35.4280   23.8470   31.2420 C   0  0  0  0  0  0  0  0  0  0  0  0
   36.5070   23.7610   32.1090 C   0  0  0  0  0  0  0  0  0  0  0  0
   37.0850   24.9040   32.5470 N   0  0  0  0  0  0  0  0  0  0  0  0
   36.6370   26.1310   32.1590 C   0  0  0  0  0  0  0  0  0  0  0  0
   35.5960   26.2350   31.3220 N   0  0  0  0  0  0  0  0  0  0  0  0
   34.1330   25.1070   30.1750 H   0  0  0  0  0  0  0  0  0  0  0  0
   34.9420   22.9440   30.8740 H   0  0  0  0  0  0  0  0  0  0  0  0
   37.1270   27.0370   32.5320 H   0  0  0  0  0  0  0  0  0  0  0  0
   35.2090   19.1940   32.1300 C   0  0  2  0  0  3  0  0  0  0  0  0
   35.6850   20.3510   33.0000 C   0  0  0  0  0  3  0  0  0  0  0  0
   34.8660   20.7720   33.5830 H   0  0  0  0  0  0  0  0  0  0  0  0
   36.1380   21.3150   31.8980 C   0  0  2  0  0  3  0  0  0  0  0  0
   36.8340   20.4930   31.0520 O   0  0  0  0  0  0  0  0  0  0  0  0
   36.0800   19.3560   30.9080 C   0  0  0  0  0  3  0  0  0  0  0  0
   36.6960   18.4220   30.8570 H   0  0  0  0  0  0  0  0  0  0  0  0
   33.8660   19.4140   31.8570 O   0  0  0  0  0  0  0  0  0  0  0  0
   33.5140   20.2210   32.3030 H   0  0  0  0  0  0  0  0  0  0  0  0
  1  3  1  0  0  0  0
  2  1  1  0  0  0  0
  4  5  2  0  0  0  0
  4  9  1  0  0  0  0
  5  6  1  0  0  0  0
  6  1  1  0  0  0  0
  6  7  2  0  0  0  0
  8 12  1  0  0  0  0
  8  7  1  0  0  0  0
  9  8  2  0  0  0  0
 10  4  1  0  0  0  0
 11  5  1  0  0  0  0
 13 20  1  6  0  0  0
 13 14  1  0  0  0  0
 14 15  1  0  0  0  0
 16  1  1  1  0  0  0
 16 14  1  0  0  0  0
 17 16  1  0  0  0  0
 18 17  1  0  0  0  0
 18 13  1  0  0  0  0
 19 18  1  0  0  0  0
 20 21  1  0  0  0  0
M  END
>  <minimizedAffinity>
-3.91995215

$$$$

 OpenBabel03262520423D

 21 22  0  0  1  0  0  0  0  0999 V2000
   38.6900   22.7060   34.3300 C   0  0  0  0  0  0  0  0  0  0  0  0
   39.5590   22.2130   33.8610 H   0  0  0  0  0  0  0  0  0  0  0  0
   38.7610   23.8040   34.1430 H   0  0  0  0  0  0  0  0  0  0  0  0
   35.8190   22.1550   31.9600 C   0  0  0  0  0  0  0  0  0  0  0  0
   37.0190   22.6750   32.5340 C   0  0  0  0  0  0  0  0  0  0  0  0
   37.4480   22.1600   33.7470 C   0  0  0  0  0  0  0  0  0  0  0  0
   36.7150   21.1870   34.3390 N   0  0  0  0  0  0  0  0  0  0  0  0
   35.5730   20.7040   33.7750 C   0  0  0  0  0  0  0  0  0  0  0  0
   35.1420   21.1890   32.6030 N   0  0  0  0  0  0  0  0  0  0  0  0
   35.5680   22.6160   31.0190 H   0  0  0  0  0  0  0  0  0  0  0  0
   37.5880   23.4580   32.0340 H   0  0  0  0  0  0  0  0  0  0  0  0
   35.0030   19.9160   34.2800 H   0  0  0  0  0  0  0  0  0  0  0  0
   38.6950   23.4270   37.9500 C   0  0  2  0  0  3  0  0  0  0  0  0
   38.1820   23.7050   36.5420 C   0  0  0  0  0  3  0  0  0  0  0  0
   37.0920   23.6950   36.5080 H   0  0  0  0  0  0  0  0  0  0  0  0
   38.7740   22.4910   35.8200 C   0  0  2  0  0  3  0  0  0  0  0  0
   40.0530   22.4490   36.3090 O   0  0  0  0  0  0  0  0  0  0  0  0
   39.9580   22.6520   37.6620 C   0  0  0  0  0  3  0  0  0  0  0  0
   40.7910   23.2780   38.0740 H   0  0  0  0  0  0  0  0  0  0  0  0
   37.7340   22.6560   38.5890 O   0  0  0  0  0  0  0  0  0  0  0  0
   36.9390   22.4970   38.0280 H   0  0  0  0  0  0  0  0  0  0  0  0
  2  1  1  0  0  0  0
  3  1  1  0  0  0  0
  4  5  2  0  0  0  0
  4  9  1  0  0  0  0
  5  6  1  0  0  0  0
  6  1  1  0  0  0  0
  6  7  2  0  0  0  0
  8 12  1  0  0  0  0
  8  7  1  0  0  0  0
  9  8  2  0  0  0  0
 10  4  1  0  0  0  0
 11  5  1  0  0  0  0
 13 20  1  1  0  0  0
 14 13  1  0  0  0  0
 15 14  1  0  0  0  0
 16  1  1  6  0  0  0
 16 17  1  0  0  0  0
 16 14  1  0  0  0  0
 17 18  1  0  0  0  0
 18 13  1  0  0  0  0
 18 19  1  0  0  0  0
 21 20  1  0  0  0  0
M  END
>  <minimizedAffinity>
-3.89903688

$$$$

 OpenBabel03262520423D

 21 22  0  0  1  0  0  0  0  0999 V2000
   38.1100   26.5490   35.8610 C   0  0  0  0  0  0  0  0  0  0  0  0
   39.1030   27.0280   35.8730 H   0  0  0  0  0  0  0  0  0  0  0  0
   37.5660   26.8360   36.7930 H   0  0  0  0  0  0  0  0  0  0  0  0
   36.6400   26.5980   32.3960 C   0  0  0  0  0  0  0  0  0  0  0  0
   37.3560   26.1720   33.5560 C   0  0  0  0  0  0  0  0  0  0  0  0
   37.3660   27.0010   34.6680 C   0  0  0  0  0  0  0  0  0  0  0  0
   36.6980   28.1770   34.6110 N   0  0  0  0  0  0  0  0  0  0  0  0
   36.0210   28.5660   33.4940 C   0  0  0  0  0  0  0  0  0  0  0  0
   36.0000   27.7790   32.4100 N   0  0  0  0  0  0  0  0  0  0  0  0
   36.6910   25.8890   31.5860 H   0  0  0  0  0  0  0  0  0  0  0  0
   37.8840   25.2190   33.5740 H   0  0  0  0  0  0  0  0  0  0  0  0
   35.4910   29.5240   33.4800 H   0  0  0  0  0  0  0  0  0  0  0  0
   38.6050   23.1340   37.1710 C   0  0  2  0  0  3  0  0  0  0  0  0
   38.0070   24.5310   37.2980 C   0  0  0  0  0  3  0  0  0  0  0  0
   36.9340   24.4870   37.4860 H   0  0  0  0  0  0  0  0  0  0  0  0
   38.3060   25.0540   35.8900 C   0  0  2  0  0  3  0  0  0  0  0  0
   39.6010   24.6560   35.6920 O   0  0  0  0  0  0  0  0  0  0  0  0
   39.6800   23.3600   36.1350 C   0  0  0  0  0  3  0  0  0  0  0  0
   40.6450   23.1290   36.6550 H   0  0  0  0  0  0  0  0  0  0  0  0
   37.5960   22.2990   36.7130 O   0  0  0  0  0  0  0  0  0  0  0  0
   36.7320   22.7640   36.6130 H   0  0  0  0  0  0  0  0  0  0  0  0
  1  2  1  0  0  0  0
  1  3  1  0  0  0  0
  4  9  2  0  0  0  0
  4  5  1  0  0  0  0
  5 11  1  0  0  0  0
  5  6  2  0  0  0  0
  6  1  1  0  0  0  0
  7  6  1  0  0  0  0
  8  7  2  0  0  0  0
  9  8  1  0  0  0  0
 10  4  1  0  0  0  0
 12  8  1  0  0  0  0
 13 20  1  6  0  0  0
 13 14  1  0  0  0  0
 14 15  1  0  0  0  0
 16  1  1  1  0  0  0
 16 14  1  0  0  0  0
 17 16  1  0  0  0  0
 17 18  1  0  0  0  0
 18 19  1  0  0  0  0
 18 13  1  0  0  0  0
 21 20  1  0  0  0  0
M  END
>  <minimizedAffinity>
-3.88235331

$$$$

 OpenBabel03262520423D

 21 22  0  0  1  0  0  0  0  0999 V2000
   38.9090   24.7260   34.9110 C   0  0  0  0  0  0  0  0  0  0  0  0
   39.9490   24.6970   34.5430 H   0  0  0  0  0  0  0  0  0  0  0  0
   38.6960   25.7530   35.2950 H   0  0  0  0  0  0  0  0  0  0  0  0
   36.4940   25.1160   32.0500 C   0  0  0  0  0  0  0  0  0  0  0  0
   37.3830   25.4310   33.1230 C   0  0  0  0  0  0  0  0  0  0  0  0
   37.9910   24.3870   33.8040 C   0  0  0  0  0  0  0  0  0  0  0  0
   37.7210   23.1160   33.4270 N   0  0  0  0  0  0  0  0  0  0  0  0
   36.8700   22.8360   32.4000 C   0  0  0  0  0  0  0  0  0  0  0  0
   36.2720   23.8300   31.7300 N   0  0  0  0  0  0  0  0  0  0  0  0
   36.0710   25.9910   31.5830 H   0  0  0  0  0  0  0  0  0  0  0  0
   37.5820   26.4640   33.4040 H   0  0  0  0  0  0  0  0  0  0  0  0
   36.6730   21.7960   32.1190 H   0  0  0  0  0  0  0  0  0  0  0  0
   38.4510   23.4850   38.3560 C   0  0  2  0  0  3  0  0  0  0  0  0
   38.1320   24.4880   37.2540 C   0  0  0  0  0  3  0  0  0  0  0  0
   37.0560   24.5870   37.1070 H   0  0  0  0  0  0  0  0  0  0  0  0
   38.7930   23.7710   36.0720 C   0  0  2  0  0  3  0  0  0  0  0  0
   39.9950   23.3790   36.5970 O   0  0  0  0  0  0  0  0  0  0  0  0
   39.7270   22.8650   37.8400 C   0  0  0  0  0  3  0  0  0  0  0  0
   40.5080   23.1190   38.6010 H   0  0  0  0  0  0  0  0  0  0  0  0
   37.4010   22.5790   38.3990 O   0  0  0  0  0  0  0  0  0  0  0  0
   36.6830   22.7960   37.7590 H   0  0  0  0  0  0  0  0  0  0  0  0
  1  3  1  0  0  0  0
  2  1  1  0  0  0  0
  4  5  1  0  0  0  0
  5 11  1  0  0  0  0
  5  6  2  0  0  0  0
  6  1  1  0  0  0  0
  7  6  1  0  0  0  0
  8  7  2  0  0  0  0
  9  4  2  0  0  0  0
  9  8  1  0  0  0  0
 10  4  1  0  0  0  0
 12  8  1  0  0  0  0
 13 20  1  6  0  0  0
 14 13  1  0  0  0  0
 15 14  1  0  0  0  0
 16  1  1  6  0  0  0
 16 17  1  0  0  0  0
 16 14  1  0  0  0  0
 17 18  1  0  0  0  0
 18 13  1  0  0  0  0
 18 19  1  0  0  0  0
 21 20  1  0  0  0  0
M  END
>  <minimizedAffinity>
-3.85143948

$$$$

 OpenBabel03262520423D

 21 22  0  0  1  0  0  0  0  0999 V2000
   38.3320   26.3930   36.0740 C   0  0  0  0  0  0  0  0  0  0  0  0
   38.8550   26.8640   36.9240 H   0  0  0  0  0  0  0  0  0  0  0  0
   37.2920   26.7960   36.0290 H   0  0  0  0  0  0  0  0  0  0  0  0
   39.0280   27.0350   32.4310 C   0  0  0  0  0  0  0  0  0  0  0  0
   38.3350   26.7410   33.6450 C   0  0  0  0  0  0  0  0  0  0  0  0
   39.0600   26.6990   34.8260 C   0  0  0  0  0  0  0  0  0  0  0  0
   40.3920   26.9390   34.7830 N   0  0  0  0  0  0  0  0  0  0  0  0
   41.0350   27.2180   33.6140 C   0  0  0  0  0  0  0  0  0  0  0  0
   40.3520   27.2630   32.4630 N   0  0  0  0  0  0  0  0  0  0  0  0
   38.3820   27.0460   31.5690 H   0  0  0  0  0  0  0  0  0  0  0  0
   37.2620   26.5520   33.6490 H   0  0  0  0  0  0  0  0  0  0  0  0
   42.1140   27.4080   33.6140 H   0  0  0  0  0  0  0  0  0  0  0  0
   38.3330   23.1840   37.8970 C   0  0  2  0  0  3  0  0  0  0  0  0
   38.0420   24.6800   37.8420 C   0  0  0  0  0  3  0  0  0  0  0  0
   37.0180   24.8950   38.1490 H   0  0  0  0  0  0  0  0  0  0  0  0
   38.2360   24.9120   36.3410 C   0  0  2  0  0  3  0  0  0  0  0  0
   39.3880   24.2200   36.0790 O   0  0  0  0  0  0  0  0  0  0  0  0
   39.2750   23.0180   36.7290 C   0  0  0  0  0  3  0  0  0  0  0  0
   40.2400   22.6650   37.1760 H   0  0  0  0  0  0  0  0  0  0  0  0
   37.1260   22.5270   37.7020 O   0  0  0  0  0  0  0  0  0  0  0  0
   36.3640   23.1470   37.6150 H   0  0  0  0  0  0  0  0  0  0  0  0
  1  2  1  0  0  0  0
  3  1  1  0  0  0  0
  4  9  2  0  0  0  0
  4  5  1  0  0  0  0
  5 11  1  0  0  0  0
  5  6  2  0  0  0  0
  6  1  1  0  0  0  0
  7  6  1  0  0  0  0
  8 12  1  0  0  0  0
  8  7  2  0  0  0  0
  9  8  1  0  0  0  0
 10  4  1  0  0  0  0
 13 20  1  6  0  0  0
 14 13  1  0  0  0  0
 14 15  1  0  0  0  0
 16  1  1  1  0  0  0
 16 14  1  0  0  0  0
 17 16  1  0  0  0  0
 17 18  1  0  0  0  0
 18 19  1  0  0  0  0
 18 13  1  0  0  0  0
 21 20  1  0  0  0  0
M  END
>  <minimizedAffinity>
-3.83992314

$$$$

 OpenBabel03262520423D

 21 22  0  0  1  0  0  0  0  0999 V2000
   38.8720   24.6860   34.6340 C   0  0  0  0  0  0  0  0  0  0  0  0
   38.6210   23.8580   33.9480 H   0  0  0  0  0  0  0  0  0  0  0  0
   38.0920   25.4780   34.5350 H   0  0  0  0  0  0  0  0  0  0  0  0
   37.9960   24.1520   38.2560 C   0  0  0  0  0  0  0  0  0  0  0  0
   37.9640   24.6400   36.9140 C   0  0  0  0  0  0  0  0  0  0  0  0
   38.9150   24.1730   36.0190 C   0  0  0  0  0  0  0  0  0  0  0  0
   39.8320   23.2750   36.4490 N   0  0  0  0  0  0  0  0  0  0  0  0
   39.8450   22.8210   37.7340 C   0  0  0  0  0  0  0  0  0  0  0  0
   38.9350   23.2610   38.6140 N   0  0  0  0  0  0  0  0  0  0  0  0
   37.2200   24.5710   38.8750 H   0  0  0  0  0  0  0  0  0  0  0  0
   37.2140   25.3630   36.5950 H   0  0  0  0  0  0  0  0  0  0  0  0
   40.6010   22.0940   38.0510 H   0  0  0  0  0  0  0  0  0  0  0  0
   41.4250   27.2000   33.7520 C   0  0  2  0  0  3  0  0  0  0  0  0
   40.2270   26.7610   34.5870 C   0  0  0  0  0  3  0  0  0  0  0  0
   40.4210   26.8850   35.6520 H   0  0  0  0  0  0  0  0  0  0  0  0
   40.1860   25.2810   34.1950 C   0  0  2  0  0  3  0  0  0  0  0  0
   40.3540   25.3270   32.8370 O   0  0  0  0  0  0  0  0  0  0  0  0
   41.3640   26.2240   32.6010 C   0  0  0  0  0  3  0  0  0  0  0  0
   41.1940   26.8510   31.6890 H   0  0  0  0  0  0  0  0  0  0  0  0
   42.5560   27.0240   34.5360 O   0  0  0  0  0  0  0  0  0  0  0  0
   42.3430   26.7050   35.4450 H   0  0  0  0  0  0  0  0  0  0  0  0
  1  6  1  0  0  0  0
  2  1  1  0  0  0  0
  3  1  1  0  0  0  0
  4  9  1  0  0  0  0
  4 10  1  0  0  0  0
  5  4  2  0  0  0  0
  6  7  2  0  0  0  0
  6  5  1  0  0  0  0
  7  8  1  0  0  0  0
  8 12  1  0  0  0  0
  8  9  2  0  0  0  0
 11  5  1  0  0  0  0
 13 20  1  1  0  0  0
 13 14  1  0  0  0  0
 14 15  1  0  0  0  0
 16 14  1  0  0  0  0
 16  1  1  6  0  0  0
 17 16  1  0  0  0  0
 18 17  1  0  0  0  0
 18 13  1  0  0  0  0
 19 18  1  0  0  0  0
 20 21  1  0  0  0  0
M  END
>  <minimizedAffinity>
-3.8029232

$$$$

 OpenBabel03262520423D

 21 22  0  0  1  0  0  0  0  0999 V2000
   40.1170   25.3450   34.9410 C   0  0  0  0  0  0  0  0  0  0  0  0
   40.6130   24.9560   34.0360 H   0  0  0  0  0  0  0  0  0  0  0  0
   40.8590   25.9440   35.5230 H   0  0  0  0  0  0  0  0  0  0  0  0
   37.3420   27.8830   35.1120 C   0  0  0  0  0  0  0  0  0  0  0  0
   38.4520   27.0640   35.4840 C   0  0  0  0  0  0  0  0  0  0  0  0
   38.9690   26.1860   34.5440 C   0  0  0  0  0  0  0  0  0  0  0  0
   38.4060   26.1390   33.3140 N   0  0  0  0  0  0  0  0  0  0  0  0
   37.3470   26.9290   32.9780 C   0  0  0  0  0  0  0  0  0  0  0  0
   36.8330   27.7840   33.8720 N   0  0  0  0  0  0  0  0  0  0  0  0
   37.0120   28.5310   35.9070 H   0  0  0  0  0  0  0  0  0  0  0  0
   38.8860   27.1240   36.4820 H   0  0  0  0  0  0  0  0  0  0  0  0
   36.9140   26.8670   31.9740 H   0  0  0  0  0  0  0  0  0  0  0  0
   40.2220   22.0500   36.5990 C   0  0  2  0  0  3  0  0  0  0  0  0
   40.9300   23.2890   36.0630 C   0  0  0  0  0  3  0  0  0  0  0  0
   41.5820   23.7300   36.8170 H   0  0  0  0  0  0  0  0  0  0  0  0
   39.7070   24.1720   35.7960 C   0  0  2  0  0  3  0  0  0  0  0  0
   38.8430   23.3070   35.1810 O   0  0  0  0  0  0  0  0  0  0  0  0
   38.8870   22.1390   35.8990 C   0  0  0  0  0  3  0  0  0  0  0  0
   38.8270   21.2230   35.2570 H   0  0  0  0  0  0  0  0  0  0  0  0
   40.1120   22.2050   37.9730 O   0  0  0  0  0  0  0  0  0  0  0  0
   40.5360   23.0340   38.2980 H   0  0  0  0  0  0  0  0  0  0  0  0
  1  3  1  0  0  0  0
  2  1  1  0  0  0  0
  4  5  1  0  0  0  0
  4 10  1  0  0  0  0
  5 11  1  0  0  0  0
  6  1  1  0  0  0  0
  6  5  2  0  0  0  0
  7  6  1  0  0  0  0
  8  7  2  0  0  0  0
  8  9  1  0  0  0  0
  9  4  2  0  0  0  0
 12  8  1  0  0  0  0
 13 20  1  1  0  0  0
 14 13  1  0  0  0  0
 14 15  1  0  0  0  0
 16  1  1  6  0  0  0
 16 14  1  0  0  0  0
 17 16  1  0  0  0  0
 17 18  1  0  0  0  0
 18 13  1  0  0  0  0
 19 18  1  0  0  0  0
 20 21  1  0  0  0  0
M  END
>  <minimizedAffinity>
-3.76760268

$$$$

 OpenBabel03262520423D

 21 22  0  0  1  0  0  0  0  0999 V2000
   37.1430   23.2210   32.2720 C   0  0  0  0  0  0  0  0  0  0  0  0
   37.0480   23.5360   33.3260 H   0  0  0  0  0  0  0  0  0  0  0  0
   38.2250   23.2210   31.9980 H   0  0  0  0  0  0  0  0  0  0  0  0
   36.2590   19.8880   30.7640 C   0  0  0  0  0  0  0  0  0  0  0  0
   36.8090   21.1960   30.9270 C   0  0  0  0  0  0  0  0  0  0  0  0
   36.5690   21.8690   32.1160 C   0  0  0  0  0  0  0  0  0  0  0  0
   35.8270   21.2620   33.0720 N   0  0  0  0  0  0  0  0  0  0  0  0
   35.3120   20.0130   32.8970 C   0  0  0  0  0  0  0  0  0  0  0  0
   35.5320   19.3470   31.7560 N   0  0  0  0  0  0  0  0  0  0  0  0
   36.4990   19.4460   29.8110 H   0  0  0  0  0  0  0  0  0  0  0  0
   37.4030   21.6590   30.1400 H   0  0  0  0  0  0  0  0  0  0  0  0
   34.7150   19.5500   33.6900 H   0  0  0  0  0  0  0  0  0  0  0  0
   35.6080   26.4070   31.2170 C   0  0  2  0  0  3  0  0  0  0  0  0
   36.6520   25.6380   32.0190 C   0  0  0  0  0  3  0  0  0  0  0  0
   37.6560   26.0160   31.8280 H   0  0  0  0  0  0  0  0  0  0  0  0
   36.4530   24.2470   31.4090 C   0  0  2  0  0  3  0  0  0  0  0  0
   35.0900   24.1270   31.3780 O   0  0  0  0  0  0  0  0  0  0  0  0
   34.6060   25.3210   30.9080 C   0  0  0  0  0  3  0  0  0  0  0  0
   33.6570   25.6420   31.4100 H   0  0  0  0  0  0  0  0  0  0  0  0
   36.2400   26.8840   30.0770 O   0  0  0  0  0  0  0  0  0  0  0  0
   37.2020   26.6660   30.0550 H   0  0  0  0  0  0  0  0  0  0  0  0
  1  2  1  0  0  0  0
  3  1  1  0  0  0  0
  4  5  2  0  0  0  0
  4  9  1  0  0  0  0
  5  6  1  0  0  0  0
  6  1  1  0  0  0  0
  6  7  2  0  0  0  0
  8  7  1  0  0  0  0
  8 12  1  0  0  0  0
  9  8  2  0  0  0  0
 10  4  1  0  0  0  0
 11  5  1  0  0  0  0
 13 20  1  6  0  0  0
 13 14  1  0  0  0  0
 15 14  1  0  0  0  0
 16 14  1  0  0  0  0
 16  1  1  1  0  0  0
 17 16  1  0  0  0  0
 18 13  1  0  0  0  0
 18 17  1  0  0  0  0
 18 19  1  0  0  0  0
 21 20  1  0  0  0  0
M  END
>  <minimizedAffinity>
-3.72405362

$$$$
