
 OpenBabel03272509593D

 46 49  0  0  1  0  0  0  0  0999 V2000
   36.2710   26.8500   31.1300 C   0  0  0  0  0  0  0  0  0  0  0  0
   36.0920   27.5580   30.2920 H   0  0  0  0  0  0  0  0  0  0  0  0
   37.3670   26.6890   31.1460 H   0  0  0  0  0  0  0  0  0  0  0  0
   35.4800   25.5860   31.0060 C   0  0  0  0  0  0  0  0  0  0  0  0
   35.2660   25.3040   29.9620 H   0  0  0  0  0  0  0  0  0  0  0  0
   34.4820   25.7920   31.4850 H   0  0  0  0  0  0  0  0  0  0  0  0
   36.1180   24.4440   31.7090 C   0  0  0  0  0  0  0  0  0  0  0  0
   35.5940   23.1750   31.4570 C   0  0  0  0  0  0  0  0  0  0  0  0
   36.1160   22.0480   32.0610 C   0  0  0  0  0  0  0  0  0  0  0  0
   37.1490   22.1760   32.9090 N   0  0  0  0  0  0  0  0  0  0  0  0
   37.6370   23.4330   33.1320 C   0  0  0  0  0  0  0  0  0  0  0  0
   37.1620   24.5480   32.5690 N   0  0  0  0  0  0  0  0  0  0  0  0
   34.7640   23.0640   30.7790 H   0  0  0  0  0  0  0  0  0  0  0  0
   35.6970   21.0730   31.8540 H   0  0  0  0  0  0  0  0  0  0  0  0
   38.7780   23.5080   34.0920 C   0  0  0  0  0  0  0  0  0  0  0  0
   39.2810   24.4870   33.9970 H   0  0  0  0  0  0  0  0  0  0  0  0
   39.5350   22.7410   33.8600 H   0  0  0  0  0  0  0  0  0  0  0  0
   39.0050   23.4220   37.7430 C   0  0  1  0  0  3  0  0  0  0  0  0
   39.3910   22.7550   36.4180 C   0  0  0  0  0  3  0  0  0  0  0  0
   40.4230   22.9860   36.1610 H   0  0  0  0  0  0  0  0  0  0  0  0
   38.3460   23.3070   35.5140 C   0  0  1  0  0  3  0  0  0  0  0  0
   37.8290   24.4420   36.0990 O   0  0  0  0  0  0  0  0  0  0  0  0
   37.6720   24.0820   37.4340 C   0  0  0  0  0  3  0  0  0  0  0  0
   37.5230   25.0030   38.0330 H   0  0  0  0  0  0  0  0  0  0  0  0
   38.8880   22.4960   38.7750 O   0  0  0  0  0  0  0  0  0  0  0  0
   39.7700   22.0910   38.9000 H   0  0  0  0  0  0  0  0  0  0  0  0
   35.9090   27.5560   32.3060 O   0  0  0  0  0  0  0  0  0  0  0  0
   36.3010   31.0490   31.4450 C   0  0  0  0  0  0  0  0  0  0  0  0
   35.7730   31.6530   32.6170 C   0  0  0  0  0  0  0  0  0  0  0  0
   35.3150   30.8120   33.6320 C   0  0  0  0  0  0  0  0  0  0  0  0
   35.4260   29.4720   33.3830 N   0  0  0  0  0  0  0  0  0  0  0  0
   35.9220   28.9170   32.2820 C   0  0  0  0  0  0  0  0  0  0  0  0
   36.3670   29.7320   31.2970 N   0  0  0  0  0  0  0  0  0  0  0  0
   36.6520   31.7140   30.6680 H   0  0  0  0  0  0  0  0  0  0  0  0
   35.7020   32.7060   32.7760 H   0  0  0  0  0  0  0  0  0  0  0  0
   36.6790   31.7430   36.0090 F   0  0  0  0  0  0  0  0  0  0  0  0
   35.3630   31.6860   35.9900 C   0  0  0  0  0  0  0  0  0  0  0  0
   34.7520   31.2530   34.8790 C   0  0  0  0  0  0  0  0  0  0  0  0
   33.3520   31.2330   34.9700 C   0  0  0  0  0  0  0  0  0  0  0  0
   32.6760   31.6230   36.0950 C   0  0  0  0  0  0  0  0  0  0  0  0
   33.3550   32.0630   37.2140 C   0  0  0  0  0  0  0  0  0  0  0  0
   34.7170   32.0860   37.1370 C   0  0  0  0  0  0  0  0  0  0  0  0
   32.7270   30.9000   34.1360 H   0  0  0  0  0  0  0  0  0  0  0  0
   31.5940   31.6040   36.1530 H   0  0  0  0  0  0  0  0  0  0  0  0
   32.8110   32.3690   38.0970 H   0  0  0  0  0  0  0  0  0  0  0  0
   35.2550   32.4290   38.0080 H   0  0  0  0  0  0  0  0  0  0  0  0
  1  3  1  0  0  0  0
  1 27  1  0  0  0  0
  2  1  1  0  0  0  0
  4  1  1  0  0  0  0
  4  6  1  0  0  0  0
  4  7  1  0  0  0  0
  5  4  1  0  0  0  0
  7 12  1  0  0  0  0
  8  7  2  0  0  0  0
  8  9  1  0  0  0  0
  9 10  2  0  0  0  0
 10 11  1  0  0  0  0
 11 15  1  0  0  0  0
 12 11  2  0  0  0  0
 13  8  1  0  0  0  0
 14  9  1  0  0  0  0
 16 15  1  0  0  0  0
 17 15  1  0  0  0  0
 18 25  1  1  0  0  0
 19 18  1  0  0  0  0
 20 19  1  0  0  0  0
 21 15  1  6  0  0  0
 21 22  1  0  0  0  0
 21 19  1  0  0  0  0
 22 23  1  0  0  0  0
 23 18  1  0  0  0  0
 23 24  1  0  0  0  0
 25 26  1  0  0  0  0
 28 29  1  0  0  0  0
 29 35  1  0  0  0  0
 29 30  2  0  0  0  0
 30 38  1  0  0  0  0
 31 30  1  0  0  0  0
 32 27  1  0  0  0  0
 32 31  2  0  0  0  0
 33 28  2  0  0  0  0
 33 32  1  0  0  0  0
 34 28  1  0  0  0  0
 37 36  1  0  0  0  0
 37 42  1  0  0  0  0
 38 39  1  0  0  0  0
 38 37  2  0  0  0  0
 39 40  2  0  0  0  0
 40 44  1  0  0  0  0
 40 41  1  0  0  0  0
 41 45  1  0  0  0  0
 42 41  2  0  0  0  0
 42 46  1  0  0  0  0
 43 39  1  0  0  0  0
M  END
>  <minimizedAffinity>
-6.60658121

$$$$

 OpenBabel03272509593D

 46 49  0  0  1  0  0  0  0  0999 V2000
   38.4660   27.0980   34.5590 C   0  0  0  0  0  0  0  0  0  0  0  0
   39.1860   26.6340   33.8510 H   0  0  0  0  0  0  0  0  0  0  0  0
   38.7250   28.1740   34.5750 H   0  0  0  0  0  0  0  0  0  0  0  0
   38.4780   26.4560   35.9100 C   0  0  0  0  0  0  0  0  0  0  0  0
   37.7690   26.9140   36.6190 H   0  0  0  0  0  0  0  0  0  0  0  0
   39.5050   26.6360   36.3340 H   0  0  0  0  0  0  0  0  0  0  0  0
   38.2400   24.9910   35.8470 C   0  0  0  0  0  0  0  0  0  0  0  0
   37.6450   24.3990   36.9620 C   0  0  0  0  0  0  0  0  0  0  0  0
   37.3820   23.0440   37.0020 C   0  0  0  0  0  0  0  0  0  0  0  0
   37.7060   22.2790   35.9470 N   0  0  0  0  0  0  0  0  0  0  0  0
   38.2870   22.8930   34.8730 C   0  0  0  0  0  0  0  0  0  0  0  0
   38.5590   24.1990   34.7930 N   0  0  0  0  0  0  0  0  0  0  0  0
   37.3820   25.0050   37.8130 H   0  0  0  0  0  0  0  0  0  0  0  0
   36.9200   22.6030   37.8750 H   0  0  0  0  0  0  0  0  0  0  0  0
   38.6320   21.9860   33.7370 C   0  0  0  0  0  0  0  0  0  0  0  0
   38.9730   21.0110   34.1300 H   0  0  0  0  0  0  0  0  0  0  0  0
   39.4670   22.3980   33.1480 H   0  0  0  0  0  0  0  0  0  0  0  0
   35.2090   21.2770   32.6580 C   0  0  1  0  0  3  0  0  0  0  0  0
   36.5170   20.7140   33.2240 C   0  0  0  0  0  3  0  0  0  0  0  0
   36.4270   20.5420   34.2950 H   0  0  0  0  0  0  0  0  0  0  0  0
   37.4780   21.7710   32.8050 C   0  0  1  0  0  3  0  0  0  0  0  0
   36.7640   22.9170   32.5360 O   0  0  0  0  0  0  0  0  0  0  0  0
   35.6620   22.4580   31.8190 C   0  0  0  0  0  3  0  0  0  0  0  0
   34.8980   23.2610   31.7960 H   0  0  0  0  0  0  0  0  0  0  0  0
   34.5300   20.3360   31.8890 O   0  0  0  0  0  0  0  0  0  0  0  0
   34.2950   19.5940   32.4830 H   0  0  0  0  0  0  0  0  0  0  0  0
   37.1920   26.9570   33.9470 O   0  0  0  0  0  0  0  0  0  0  0  0
   35.9000   29.5500   31.7780 C   0  0  0  0  0  0  0  0  0  0  0  0
   35.2850   30.3930   32.7400 C   0  0  0  0  0  0  0  0  0  0  0  0
   35.3580   30.0120   34.0810 C   0  0  0  0  0  0  0  0  0  0  0  0
   36.0250   28.8430   34.3260 N   0  0  0  0  0  0  0  0  0  0  0  0
   36.5970   28.0600   33.4170 C   0  0  0  0  0  0  0  0  0  0  0  0
   36.5280   28.4300   32.1170 N   0  0  0  0  0  0  0  0  0  0  0  0
   35.8360   29.8600   30.7440 H   0  0  0  0  0  0  0  0  0  0  0  0
   34.7720   31.3000   32.5110 H   0  0  0  0  0  0  0  0  0  0  0  0
   36.6770   31.7870   35.9470 F   0  0  0  0  0  0  0  0  0  0  0  0
   35.3830   31.5680   36.0550 C   0  0  0  0  0  0  0  0  0  0  0  0
   34.7920   30.7440   35.1800 C   0  0  0  0  0  0  0  0  0  0  0  0
   33.4140   30.5860   35.3890 C   0  0  0  0  0  0  0  0  0  0  0  0
   32.7380   31.2190   36.3970 C   0  0  0  0  0  0  0  0  0  0  0  0
   33.3960   32.0610   37.2730 C   0  0  0  0  0  0  0  0  0  0  0  0
   34.7370   32.2220   37.0790 C   0  0  0  0  0  0  0  0  0  0  0  0
   32.8060   29.9400   34.7480 H   0  0  0  0  0  0  0  0  0  0  0  0
   31.6730   31.0900   36.5480 H   0  0  0  0  0  0  0  0  0  0  0  0
   32.8520   32.5570   38.0650 H   0  0  0  0  0  0  0  0  0  0  0  0
   35.2580   32.8790   37.7600 H   0  0  0  0  0  0  0  0  0  0  0  0
  1  3  1  0  0  0  0
  1  4  1  0  0  0  0
  2  1  1  0  0  0  0
  4  6  1  0  0  0  0
  4  5  1  0  0  0  0
  7  4  1  0  0  0  0
  7  8  1  0  0  0  0
  8  9  2  0  0  0  0
  8 13  1  0  0  0  0
  9 14  1  0  0  0  0
 10  9  1  0  0  0  0
 11 10  2  0  0  0  0
 12 11  1  0  0  0  0
 12  7  2  0  0  0  0
 15 16  1  0  0  0  0
 15 11  1  0  0  0  0
 17 15  1  0  0  0  0
 18 25  1  6  0  0  0
 18 19  1  0  0  0  0
 19 20  1  0  0  0  0
 21 19  1  0  0  0  0
 21 15  1  1  0  0  0
 22 21  1  0  0  0  0
 23 22  1  0  0  0  0
 23 18  1  0  0  0  0
 24 23  1  0  0  0  0
 25 26  1  0  0  0  0
 27  1  1  0  0  0  0
 28 33  2  0  0  0  0
 28 29  1  0  0  0  0
 29 30  2  0  0  0  0
 30 31  1  0  0  0  0
 30 38  1  0  0  0  0
 32 27  1  0  0  0  0
 32 31  2  0  0  0  0
 33 32  1  0  0  0  0
 34 28  1  0  0  0  0
 35 29  1  0  0  0  0
 36 37  1  0  0  0  0
 37 42  1  0  0  0  0
 38 39  1  0  0  0  0
 38 37  2  0  0  0  0
 39 40  2  0  0  0  0
 40 44  1  0  0  0  0
 40 41  1  0  0  0  0
 41 45  1  0  0  0  0
 42 41  2  0  0  0  0
 42 46  1  0  0  0  0
 43 39  1  0  0  0  0
M  END
>  <minimizedAffinity>
-6.48149061

$$$$

 OpenBabel03272509593D

 46 49  0  0  1  0  0  0  0  0999 V2000
   37.7700   25.0570   36.5820 C   0  0  0  0  0  0  0  0  0  0  0  0
   37.0300   24.5680   35.9120 H   0  0  0  0  0  0  0  0  0  0  0  0
   37.2290   25.2380   37.5300 H   0  0  0  0  0  0  0  0  0  0  0  0
   38.3710   26.2900   35.9870 C   0  0  0  0  0  0  0  0  0  0  0  0
   39.4290   26.1670   35.7000 H   0  0  0  0  0  0  0  0  0  0  0  0
   38.3560   27.0710   36.7990 H   0  0  0  0  0  0  0  0  0  0  0  0
   37.5980   26.7980   34.8250 C   0  0  0  0  0  0  0  0  0  0  0  0
   37.4890   25.9540   33.7200 C   0  0  0  0  0  0  0  0  0  0  0  0
   36.7910   26.3340   32.5900 C   0  0  0  0  0  0  0  0  0  0  0  0
   36.2050   27.5420   32.5540 N   0  0  0  0  0  0  0  0  0  0  0  0
   36.3330   28.3420   33.6550 C   0  0  0  0  0  0  0  0  0  0  0  0
   36.9980   28.0140   34.7660 N   0  0  0  0  0  0  0  0  0  0  0  0
   37.9570   24.9840   33.7400 H   0  0  0  0  0  0  0  0  0  0  0  0
   36.7180   25.6670   31.7430 H   0  0  0  0  0  0  0  0  0  0  0  0
   35.6670   29.6750   33.5480 C   0  0  0  0  0  0  0  0  0  0  0  0
   34.8690   29.6310   32.7860 H   0  0  0  0  0  0  0  0  0  0  0  0
   36.3830   30.4430   33.2120 H   0  0  0  0  0  0  0  0  0  0  0  0
   34.7010   31.9680   36.2310 C   0  0  1  0  0  3  0  0  0  0  0  0
   35.8430   31.2190   35.5330 C   0  0  0  0  0  3  0  0  0  0  0  0
   36.4030   31.8930   34.8880 H   0  0  0  0  0  0  0  0  0  0  0  0
   35.0860   30.1330   34.8520 C   0  0  1  0  0  3  0  0  0  0  0  0
   33.7670   30.5200   34.7620 O   0  0  0  0  0  0  0  0  0  0  0  0
   33.4990   31.0660   36.0150 C   0  0  0  0  0  3  0  0  0  0  0  0
   32.5570   31.6480   35.9510 H   0  0  0  0  0  0  0  0  0  0  0  0
   34.9590   32.1570   37.5850 O   0  0  0  0  0  0  0  0  0  0  0  0
   35.7580   32.7190   37.6510 H   0  0  0  0  0  0  0  0  0  0  0  0
   38.7680   24.0760   36.8210 O   0  0  0  0  0  0  0  0  0  0  0  0
   40.7050   22.2020   34.4070 C   0  0  0  0  0  0  0  0  0  0  0  0
   39.6640   21.7400   33.5590 C   0  0  0  0  0  0  0  0  0  0  0  0
   38.3550   22.1080   33.8770 C   0  0  0  0  0  0  0  0  0  0  0  0
   38.2160   22.8880   34.9930 N   0  0  0  0  0  0  0  0  0  0  0  0
   39.1990   23.3140   35.7790 C   0  0  0  0  0  0  0  0  0  0  0  0
   40.4680   22.9580   35.4710 N   0  0  0  0  0  0  0  0  0  0  0  0
   41.7130   21.9090   34.1460 H   0  0  0  0  0  0  0  0  0  0  0  0
   39.8110   21.1320   32.6950 H   0  0  0  0  0  0  0  0  0  0  0  0
   37.3990   23.1500   31.3520 F   0  0  0  0  0  0  0  0  0  0  0  0
   36.7250   22.1980   31.9650 C   0  0  0  0  0  0  0  0  0  0  0  0
   37.1860   21.7300   33.1320 C   0  0  0  0  0  0  0  0  0  0  0  0
   36.3920   20.7190   33.6940 C   0  0  0  0  0  0  0  0  0  0  0  0
   35.2480   20.2570   33.0990 C   0  0  0  0  0  0  0  0  0  0  0  0
   34.8170   20.7740   31.8930 C   0  0  0  0  0  0  0  0  0  0  0  0
   35.5820   21.7580   31.3370 C   0  0  0  0  0  0  0  0  0  0  0  0
   36.6500   20.2480   34.6470 H   0  0  0  0  0  0  0  0  0  0  0  0
   34.6420   19.4760   33.5420 H   0  0  0  0  0  0  0  0  0  0  0  0
   33.9130   20.4020   31.4310 H   0  0  0  0  0  0  0  0  0  0  0  0
   35.2510   22.1670   30.3940 H   0  0  0  0  0  0  0  0  0  0  0  0
  1 27  1  0  0  0  0
  1  3  1  0  0  0  0
  2  1  1  0  0  0  0
  4  1  1  0  0  0  0
  4  6  1  0  0  0  0
  5  4  1  0  0  0  0
  7  4  1  0  0  0  0
  8 13  1  0  0  0  0
  8  7  2  0  0  0  0
  9  8  1  0  0  0  0
 10  9  2  0  0  0  0
 10 11  1  0  0  0  0
 11 12  2  0  0  0  0
 12  7  1  0  0  0  0
 14  9  1  0  0  0  0
 15 11  1  0  0  0  0
 16 15  1  0  0  0  0
 17 15  1  0  0  0  0
 18 25  1  1  0  0  0
 19 18  1  0  0  0  0
 20 19  1  0  0  0  0
 21 15  1  6  0  0  0
 21 19  1  0  0  0  0
 22 21  1  0  0  0  0
 22 23  1  0  0  0  0
 23 18  1  0  0  0  0
 24 23  1  0  0  0  0
 25 26  1  0  0  0  0
 28 33  1  0  0  0  0
 29 30  1  0  0  0  0
 29 28  2  0  0  0  0
 30 31  2  0  0  0  0
 31 32  1  0  0  0  0
 32 27  1  0  0  0  0
 33 32  2  0  0  0  0
 34 28  1  0  0  0  0
 35 29  1  0  0  0  0
 36 37  1  0  0  0  0
 37 38  1  0  0  0  0
 38 39  2  0  0  0  0
 38 30  1  0  0  0  0
 39 43  1  0  0  0  0
 40 44  1  0  0  0  0
 40 39  1  0  0  0  0
 41 40  2  0  0  0  0
 42 41  1  0  0  0  0
 42 37  2  0  0  0  0
 45 41  1  0  0  0  0
 46 42  1  0  0  0  0
M  END
>  <minimizedAffinity>
-6.23690224

$$$$

 OpenBabel03272509593D

 46 49  0  0  1  0  0  0  0  0999 V2000
   37.3210   26.4690   30.9580 C   0  0  0  0  0  0  0  0  0  0  0  0
   37.4390   26.8380   29.9160 H   0  0  0  0  0  0  0  0  0  0  0  0
   38.2610   25.9310   31.1840 H   0  0  0  0  0  0  0  0  0  0  0  0
   36.0910   25.6390   31.1480 C   0  0  0  0  0  0  0  0  0  0  0  0
   35.5130   25.4930   30.2200 H   0  0  0  0  0  0  0  0  0  0  0  0
   35.4230   26.2200   31.8440 H   0  0  0  0  0  0  0  0  0  0  0  0
   36.3840   24.3190   31.7630 C   0  0  0  0  0  0  0  0  0  0  0  0
   35.4910   23.2820   31.4910 C   0  0  0  0  0  0  0  0  0  0  0  0
   35.6750   22.0180   32.0150 C   0  0  0  0  0  0  0  0  0  0  0  0
   36.7350   21.7810   32.8040 N   0  0  0  0  0  0  0  0  0  0  0  0
   37.5880   22.8210   33.0500 C   0  0  0  0  0  0  0  0  0  0  0  0
   37.4480   24.0570   32.5640 N   0  0  0  0  0  0  0  0  0  0  0  0
   34.6370   23.4640   30.8590 H   0  0  0  0  0  0  0  0  0  0  0  0
   34.9720   21.2270   31.7930 H   0  0  0  0  0  0  0  0  0  0  0  0
   38.7400   22.4950   33.9430 C   0  0  0  0  0  0  0  0  0  0  0  0
   39.5970   23.1490   33.7000 H   0  0  0  0  0  0  0  0  0  0  0  0
   39.0800   21.4590   33.7800 H   0  0  0  0  0  0  0  0  0  0  0  0
   39.2090   23.2320   37.4960 C   0  0  1  0  0  3  0  0  0  0  0  0
   39.4880   22.2650   36.3400 C   0  0  0  0  0  3  0  0  0  0  0  0
   40.5060   22.3890   35.9750 H   0  0  0  0  0  0  0  0  0  0  0  0
   38.4000   22.6410   35.3960 C   0  0  1  0  0  3  0  0  0  0  0  0
   37.9540   23.8990   35.7340 O   0  0  0  0  0  0  0  0  0  0  0  0
   37.8780   23.8590   37.1240 C   0  0  0  0  0  3  0  0  0  0  0  0
   37.7930   24.8970   37.5030 H   0  0  0  0  0  0  0  0  0  0  0  0
   39.1370   22.5690   38.7180 O   0  0  0  0  0  0  0  0  0  0  0  0
   40.0150   22.1670   38.8800 H   0  0  0  0  0  0  0  0  0  0  0  0
   37.2700   27.6340   31.7670 O   0  0  0  0  0  0  0  0  0  0  0  0
   37.5210   27.6780   35.3770 C   0  0  0  0  0  0  0  0  0  0  0  0
   38.8630   27.2420   35.5370 C   0  0  0  0  0  0  0  0  0  0  0  0
   39.5970   26.9610   34.3840 C   0  0  0  0  0  0  0  0  0  0  0  0
   38.9300   27.1390   33.2020 N   0  0  0  0  0  0  0  0  0  0  0  0
   37.6730   27.5470   33.0640 C   0  0  0  0  0  0  0  0  0  0  0  0
   36.9610   27.8210   34.1820 N   0  0  0  0  0  0  0  0  0  0  0  0
   36.9660   27.8930   36.2800 H   0  0  0  0  0  0  0  0  0  0  0  0
   39.3500   27.1150   36.4780 H   0  0  0  0  0  0  0  0  0  0  0  0
   41.8820   28.1610   33.0760 F   0  0  0  0  0  0  0  0  0  0  0  0
   42.0320   27.0470   33.7640 C   0  0  0  0  0  0  0  0  0  0  0  0
   40.9610   26.5100   34.3620 C   0  0  0  0  0  0  0  0  0  0  0  0
   41.2360   25.3280   35.0660 C   0  0  0  0  0  0  0  0  0  0  0  0
   42.4880   24.7780   35.1330 C   0  0  0  0  0  0  0  0  0  0  0  0
   43.5600   25.3740   34.4980 C   0  0  0  0  0  0  0  0  0  0  0  0
   43.3040   26.5250   33.8100 C   0  0  0  0  0  0  0  0  0  0  0  0
   40.4530   24.7820   35.6010 H   0  0  0  0  0  0  0  0  0  0  0  0
   42.6890   23.8650   35.6810 H   0  0  0  0  0  0  0  0  0  0  0  0
   44.5450   24.9320   34.5580 H   0  0  0  0  0  0  0  0  0  0  0  0
   44.1370   26.9960   33.3110 H   0  0  0  0  0  0  0  0  0  0  0  0
  1  4  1  0  0  0  0
  1  3  1  0  0  0  0
  1 27  1  0  0  0  0
  2  1  1  0  0  0  0
  4  7  1  0  0  0  0
  4  6  1  0  0  0  0
  5  4  1  0  0  0  0
  7 12  1  0  0  0  0
  8  7  2  0  0  0  0
  8  9  1  0  0  0  0
  9 10  2  0  0  0  0
 10 11  1  0  0  0  0
 11 15  1  0  0  0  0
 12 11  2  0  0  0  0
 13  8  1  0  0  0  0
 14  9  1  0  0  0  0
 16 15  1  0  0  0  0
 17 15  1  0  0  0  0
 18 25  1  1  0  0  0
 19 18  1  0  0  0  0
 20 19  1  0  0  0  0
 21 15  1  6  0  0  0
 21 22  1  0  0  0  0
 21 19  1  0  0  0  0
 22 23  1  0  0  0  0
 23 18  1  0  0  0  0
 23 24  1  0  0  0  0
 25 26  1  0  0  0  0
 27 32  1  0  0  0  0
 28 29  1  0  0  0  0
 28 34  1  0  0  0  0
 29 35  1  0  0  0  0
 30 29  2  0  0  0  0
 31 30  1  0  0  0  0
 32 31  2  0  0  0  0
 32 33  1  0  0  0  0
 33 28  2  0  0  0  0
 36 37  1  0  0  0  0
 37 42  2  0  0  0  0
 37 38  1  0  0  0  0
 38 30  1  0  0  0  0
 38 39  2  0  0  0  0
 39 40  1  0  0  0  0
 39 43  1  0  0  0  0
 40 44  1  0  0  0  0
 41 45  1  0  0  0  0
 41 40  2  0  0  0  0
 42 41  1  0  0  0  0
 46 42  1  0  0  0  0
M  END
>  <minimizedAffinity>
-6.23489332

$$$$

 OpenBabel03272509593D

 46 49  0  0  1  0  0  0  0  0999 V2000
   38.6020   26.6430   34.4520 C   0  0  0  0  0  0  0  0  0  0  0  0
   39.0560   27.3950   33.7710 H   0  0  0  0  0  0  0  0  0  0  0  0
   38.8570   26.9850   35.4740 H   0  0  0  0  0  0  0  0  0  0  0  0
   39.0430   25.2450   34.1570 C   0  0  0  0  0  0  0  0  0  0  0  0
   38.8310   24.5370   34.9760 H   0  0  0  0  0  0  0  0  0  0  0  0
   40.1650   25.2830   34.0600 H   0  0  0  0  0  0  0  0  0  0  0  0
   38.4740   24.7230   32.8890 C   0  0  0  0  0  0  0  0  0  0  0  0
   39.1260   25.0800   31.7080 C   0  0  0  0  0  0  0  0  0  0  0  0
   38.6760   24.6460   30.4770 C   0  0  0  0  0  0  0  0  0  0  0  0
   37.5870   23.8630   30.4140 N   0  0  0  0  0  0  0  0  0  0  0  0
   36.9730   23.5330   31.5910 C   0  0  0  0  0  0  0  0  0  0  0  0
   37.3750   23.9310   32.8000 N   0  0  0  0  0  0  0  0  0  0  0  0
   40.0010   25.7080   31.7500 H   0  0  0  0  0  0  0  0  0  0  0  0
   39.1950   24.9330   29.5730 H   0  0  0  0  0  0  0  0  0  0  0  0
   35.7620   22.6700   31.4510 C   0  0  0  0  0  0  0  0  0  0  0  0
   35.5010   22.5650   30.3820 H   0  0  0  0  0  0  0  0  0  0  0  0
   34.8920   23.1340   31.9430 H   0  0  0  0  0  0  0  0  0  0  0  0
   35.2900   19.0810   31.9820 C   0  0  1  0  0  3  0  0  0  0  0  0
   34.7170   20.4910   32.1680 C   0  0  0  0  0  3  0  0  0  0  0  0
   33.9390   20.6870   31.4330 H   0  0  0  0  0  0  0  0  0  0  0  0
   35.9550   21.3100   32.0520 C   0  0  1  0  0  3  0  0  0  0  0  0
   36.9110   20.5540   31.4110 O   0  0  0  0  0  0  0  0  0  0  0  0
   36.7920   19.3000   32.0040 C   0  0  0  0  0  3  0  0  0  0  0  0
   37.3230   18.5590   31.3730 H   0  0  0  0  0  0  0  0  0  0  0  0
   34.8850   18.2200   32.9980 O   0  0  0  0  0  0  0  0  0  0  0  0
   33.9100   18.1480   32.9440 H   0  0  0  0  0  0  0  0  0  0  0  0
   37.1990   26.7750   34.2780 O   0  0  0  0  0  0  0  0  0  0  0  0
   36.2610   29.3840   31.9530 C   0  0  0  0  0  0  0  0  0  0  0  0
   35.6050   30.2800   32.8390 C   0  0  0  0  0  0  0  0  0  0  0  0
   35.5290   29.9240   34.1870 C   0  0  0  0  0  0  0  0  0  0  0  0
   36.1060   28.7270   34.5130 N   0  0  0  0  0  0  0  0  0  0  0  0
   36.7170   27.8960   33.6750 C   0  0  0  0  0  0  0  0  0  0  0  0
   36.7920   28.2410   32.3690 N   0  0  0  0  0  0  0  0  0  0  0  0
   36.3110   29.6760   30.9130 H   0  0  0  0  0  0  0  0  0  0  0  0
   35.1660   31.2080   32.5470 H   0  0  0  0  0  0  0  0  0  0  0  0
   36.7420   31.7990   36.0270 F   0  0  0  0  0  0  0  0  0  0  0  0
   35.4440   31.5790   36.0770 C   0  0  0  0  0  0  0  0  0  0  0  0
   34.9040   30.7080   35.2150 C   0  0  0  0  0  0  0  0  0  0  0  0
   33.5160   30.5530   35.3570 C   0  0  0  0  0  0  0  0  0  0  0  0
   32.7860   31.2340   36.2940 C   0  0  0  0  0  0  0  0  0  0  0  0
   33.3930   32.1220   37.1590 C   0  0  0  0  0  0  0  0  0  0  0  0
   34.7420   32.2810   37.0300 C   0  0  0  0  0  0  0  0  0  0  0  0
   32.9460   29.8720   34.7190 H   0  0  0  0  0  0  0  0  0  0  0  0
   31.7140   31.1060   36.3940 H   0  0  0  0  0  0  0  0  0  0  0  0
   32.8070   32.6550   37.8950 H   0  0  0  0  0  0  0  0  0  0  0  0
   35.2240   32.9740   37.7030 H   0  0  0  0  0  0  0  0  0  0  0  0
  1  3  1  0  0  0  0
  2  1  1  0  0  0  0
  4  1  1  0  0  0  0
  4  5  1  0  0  0  0
  6  4  1  0  0  0  0
  7  4  1  0  0  0  0
  8 13  1  0  0  0  0
  8  7  2  0  0  0  0
  9  8  1  0  0  0  0
 10  9  2  0  0  0  0
 10 11  1  0  0  0  0
 11 12  2  0  0  0  0
 12  7  1  0  0  0  0
 14  9  1  0  0  0  0
 15 11  1  0  0  0  0
 15 17  1  0  0  0  0
 16 15  1  0  0  0  0
 18 23  1  0  0  0  0
 18 19  1  0  0  0  0
 18 25  1  1  0  0  0
 20 19  1  0  0  0  0
 21 15  1  6  0  0  0
 21 19  1  0  0  0  0
 22 23  1  0  0  0  0
 22 21  1  0  0  0  0
 24 23  1  0  0  0  0
 26 25  1  0  0  0  0
 27  1  1  0  0  0  0
 28 33  2  0  0  0  0
 28 29  1  0  0  0  0
 29 30  2  0  0  0  0
 30 31  1  0  0  0  0
 30 38  1  0  0  0  0
 32 27  1  0  0  0  0
 32 31  2  0  0  0  0
 33 32  1  0  0  0  0
 34 28  1  0  0  0  0
 35 29  1  0  0  0  0
 36 37  1  0  0  0  0
 37 42  1  0  0  0  0
 38 39  1  0  0  0  0
 38 37  2  0  0  0  0
 39 40  2  0  0  0  0
 40 44  1  0  0  0  0
 40 41  1  0  0  0  0
 41 45  1  0  0  0  0
 42 41  2  0  0  0  0
 42 46  1  0  0  0  0
 43 39  1  0  0  0  0
M  END
>  <minimizedAffinity>
-6.23316383

$$$$

 OpenBabel03272509593D

 46 49  0  0  1  0  0  0  0  0999 V2000
   37.9490   21.7940   33.4890 C   0  0  0  0  0  0  0  0  0  0  0  0
   38.7410   22.5710   33.5520 H   0  0  0  0  0  0  0  0  0  0  0  0
   38.4890   20.8270   33.4880 H   0  0  0  0  0  0  0  0  0  0  0  0
   37.0430   21.9780   32.3130 C   0  0  0  0  0  0  0  0  0  0  0  0
   36.0650   21.4840   32.4320 H   0  0  0  0  0  0  0  0  0  0  0  0
   37.5480   21.4670   31.4440 H   0  0  0  0  0  0  0  0  0  0  0  0
   36.8390   23.4080   31.9680 C   0  0  0  0  0  0  0  0  0  0  0  0
   35.5640   23.7800   31.5410 C   0  0  0  0  0  0  0  0  0  0  0  0
   35.2720   25.0850   31.1970 C   0  0  0  0  0  0  0  0  0  0  0  0
   36.2350   26.0170   31.2760 N   0  0  0  0  0  0  0  0  0  0  0  0
   37.4720   25.6170   31.6990 C   0  0  0  0  0  0  0  0  0  0  0  0
   37.7970   24.3670   32.0400 N   0  0  0  0  0  0  0  0  0  0  0  0
   34.7850   23.0380   31.4730 H   0  0  0  0  0  0  0  0  0  0  0  0
   34.2780   25.3540   30.8670 H   0  0  0  0  0  0  0  0  0  0  0  0
   38.5010   26.6990   31.7550 C   0  0  0  0  0  0  0  0  0  0  0  0
   38.1100   27.6090   31.2670 H   0  0  0  0  0  0  0  0  0  0  0  0
   39.4070   26.4060   31.1990 H   0  0  0  0  0  0  0  0  0  0  0  0
   38.5110   26.6090   35.4130 C   0  0  1  0  0  3  0  0  0  0  0  0
   37.7990   27.0930   34.1450 C   0  0  0  0  0  3  0  0  0  0  0  0
   36.9310   26.4720   33.9330 H   0  0  0  0  0  0  0  0  0  0  0  0
   38.9140   27.0260   33.1590 C   0  0  1  0  0  3  0  0  0  0  0  0
   39.8800   26.1820   33.6610 O   0  0  0  0  0  0  0  0  0  0  0  0
   39.9710   26.5470   35.0020 C   0  0  0  0  0  3  0  0  0  0  0  0
   40.5170   25.7510   35.5480 H   0  0  0  0  0  0  0  0  0  0  0  0
   38.3180   27.4830   36.4800 O   0  0  0  0  0  0  0  0  0  0  0  0
   37.3580   27.4970   36.6710 H   0  0  0  0  0  0  0  0  0  0  0  0
   37.2220   21.8950   34.7040 O   0  0  0  0  0  0  0  0  0  0  0  0
   38.1090   23.3670   37.8890 C   0  0  0  0  0  0  0  0  0  0  0  0
   39.5130   23.1560   37.8750 C   0  0  0  0  0  0  0  0  0  0  0  0
   40.0650   22.5180   36.7640 C   0  0  0  0  0  0  0  0  0  0  0  0
   39.1750   22.1570   35.7890 N   0  0  0  0  0  0  0  0  0  0  0  0
   37.8620   22.3590   35.8120 C   0  0  0  0  0  0  0  0  0  0  0  0
   37.3260   22.9790   36.8890 N   0  0  0  0  0  0  0  0  0  0  0  0
   37.6970   23.8630   38.7570 H   0  0  0  0  0  0  0  0  0  0  0  0
   40.1770   23.4520   38.6570 H   0  0  0  0  0  0  0  0  0  0  0  0
   42.1930   24.2810   35.9030 F   0  0  0  0  0  0  0  0  0  0  0  0
   42.4600   23.0230   36.1900 C   0  0  0  0  0  0  0  0  0  0  0  0
   41.4600   22.2250   36.5870 C   0  0  0  0  0  0  0  0  0  0  0  0
   41.8590   20.9090   36.8660 C   0  0  0  0  0  0  0  0  0  0  0  0
   43.1540   20.4840   36.7410 C   0  0  0  0  0  0  0  0  0  0  0  0
   44.1490   21.3490   36.3280 C   0  0  0  0  0  0  0  0  0  0  0  0
   43.7720   22.6320   36.0540 C   0  0  0  0  0  0  0  0  0  0  0  0
   41.1440   20.1500   37.1980 H   0  0  0  0  0  0  0  0  0  0  0  0
   43.4510   19.4640   36.9590 H   0  0  0  0  0  0  0  0  0  0  0  0
   45.1690   21.0030   36.2330 H   0  0  0  0  0  0  0  0  0  0  0  0
   44.5440   23.3140   35.7300 H   0  0  0  0  0  0  0  0  0  0  0  0
  1  2  1  0  0  0  0
  1 27  1  0  0  0  0
  3  1  1  0  0  0  0
  4  5  1  0  0  0  0
  4  1  1  0  0  0  0
  6  4  1  0  0  0  0
  7 12  1  0  0  0  0
  7  4  1  0  0  0  0
  8  7  2  0  0  0  0
  9 10  2  0  0  0  0
  9  8  1  0  0  0  0
 10 11  1  0  0  0  0
 11 15  1  0  0  0  0
 11 12  2  0  0  0  0
 13  8  1  0  0  0  0
 14  9  1  0  0  0  0
 16 15  1  0  0  0  0
 17 15  1  0  0  0  0
 18 25  1  1  0  0  0
 19 18  1  0  0  0  0
 20 19  1  0  0  0  0
 21 15  1  6  0  0  0
 21 22  1  0  0  0  0
 21 19  1  0  0  0  0
 22 23  1  0  0  0  0
 23 18  1  0  0  0  0
 23 24  1  0  0  0  0
 25 26  1  0  0  0  0
 27 32  1  0  0  0  0
 28 34  1  0  0  0  0
 29 28  1  0  0  0  0
 29 35  1  0  0  0  0
 30 29  2  0  0  0  0
 31 32  2  0  0  0  0
 31 30  1  0  0  0  0
 32 33  1  0  0  0  0
 33 28  2  0  0  0  0
 36 37  1  0  0  0  0
 37 38  1  0  0  0  0
 38 30  1  0  0  0  0
 38 39  2  0  0  0  0
 39 43  1  0  0  0  0
 40 39  1  0  0  0  0
 40 44  1  0  0  0  0
 41 40  2  0  0  0  0
 42 37  2  0  0  0  0
 42 41  1  0  0  0  0
 45 41  1  0  0  0  0
 46 42  1  0  0  0  0
M  END
>  <minimizedAffinity>
-6.15110397

$$$$

 OpenBabel03272509593D

 46 49  0  0  1  0  0  0  0  0999 V2000
   38.1950   26.7540   32.9230 C   0  0  0  0  0  0  0  0  0  0  0  0
   38.8270   26.4040   33.7680 H   0  0  0  0  0  0  0  0  0  0  0  0
   38.7900   27.5430   32.4240 H   0  0  0  0  0  0  0  0  0  0  0  0
   36.8370   27.2060   33.3560 C   0  0  0  0  0  0  0  0  0  0  0  0
   36.7420   27.3230   34.4490 H   0  0  0  0  0  0  0  0  0  0  0  0
   36.1240   26.3840   33.0670 H   0  0  0  0  0  0  0  0  0  0  0  0
   36.4130   28.4610   32.6840 C   0  0  0  0  0  0  0  0  0  0  0  0
   37.0160   28.7590   31.4620 C   0  0  0  0  0  0  0  0  0  0  0  0
   36.6900   29.9010   30.7580 C   0  0  0  0  0  0  0  0  0  0  0  0
   35.7730   30.7430   31.2600 N   0  0  0  0  0  0  0  0  0  0  0  0
   35.2030   30.4190   32.4590 C   0  0  0  0  0  0  0  0  0  0  0  0
   35.4890   29.3270   33.1720 N   0  0  0  0  0  0  0  0  0  0  0  0
   37.7540   28.0880   31.0520 H   0  0  0  0  0  0  0  0  0  0  0  0
   37.1690   30.1150   29.8120 H   0  0  0  0  0  0  0  0  0  0  0  0
   34.1990   31.4020   32.9670 C   0  0  0  0  0  0  0  0  0  0  0  0
   33.2330   30.8930   33.1390 H   0  0  0  0  0  0  0  0  0  0  0  0
   34.0120   32.1910   32.2210 H   0  0  0  0  0  0  0  0  0  0  0  0
   35.3210   31.7300   36.4350 C   0  0  1  0  0  3  0  0  0  0  0  0
   34.1530   31.4290   35.4880 C   0  0  0  0  0  3  0  0  0  0  0  0
   33.9660   30.3590   35.4400 H   0  0  0  0  0  0  0  0  0  0  0  0
   34.6410   32.0700   34.2350 C   0  0  1  0  0  3  0  0  0  0  0  0
   36.0060   32.2190   34.3330 O   0  0  0  0  0  0  0  0  0  0  0  0
   36.1940   32.6790   35.6340 C   0  0  0  0  0  3  0  0  0  0  0  0
   37.2660   32.5680   35.8950 H   0  0  0  0  0  0  0  0  0  0  0  0
   34.8880   32.3140   37.6220 O   0  0  0  0  0  0  0  0  0  0  0  0
   34.3100   31.6620   38.0690 H   0  0  0  0  0  0  0  0  0  0  0  0
   38.0980   25.6460   32.0400 O   0  0  0  0  0  0  0  0  0  0  0  0
   37.2110   22.1860   32.6170 C   0  0  0  0  0  0  0  0  0  0  0  0
   37.5630   22.0660   33.9880 C   0  0  0  0  0  0  0  0  0  0  0  0
   38.0850   23.1920   34.6270 C   0  0  0  0  0  0  0  0  0  0  0  0
   38.2030   24.3100   33.8470 N   0  0  0  0  0  0  0  0  0  0  0  0
   37.8710   24.4110   32.5640 C   0  0  0  0  0  0  0  0  0  0  0  0
   37.3640   23.3200   31.9450 N   0  0  0  0  0  0  0  0  0  0  0  0
   36.8070   21.3050   32.1370 H   0  0  0  0  0  0  0  0  0  0  0  0
   37.4550   21.1740   34.5650 H   0  0  0  0  0  0  0  0  0  0  0  0
   40.3270   21.8860   35.9070 F   0  0  0  0  0  0  0  0  0  0  0  0
   39.5230   22.6510   36.6170 C   0  0  0  0  0  0  0  0  0  0  0  0
   38.4920   23.2460   36.0030 C   0  0  0  0  0  0  0  0  0  0  0  0
   37.7030   24.0370   36.8530 C   0  0  0  0  0  0  0  0  0  0  0  0
   37.9690   24.1830   38.1890 C   0  0  0  0  0  0  0  0  0  0  0  0
   39.0470   23.5460   38.7720 C   0  0  0  0  0  0  0  0  0  0  0  0
   39.8210   22.7750   37.9540 C   0  0  0  0  0  0  0  0  0  0  0  0
   36.8280   24.5790   36.4860 H   0  0  0  0  0  0  0  0  0  0  0  0
   37.3530   24.7960   38.8360 H   0  0  0  0  0  0  0  0  0  0  0  0
   39.2480   23.6690   39.8270 H   0  0  0  0  0  0  0  0  0  0  0  0
   40.6660   22.2750   38.4030 H   0  0  0  0  0  0  0  0  0  0  0  0
  1  4  1  0  0  0  0
  1  2  1  0  0  0  0
  3  1  1  0  0  0  0
  4  5  1  0  0  0  0
  6  4  1  0  0  0  0
  7 12  1  0  0  0  0
  7  4  1  0  0  0  0
  8  7  2  0  0  0  0
  9 10  2  0  0  0  0
  9  8  1  0  0  0  0
 10 11  1  0  0  0  0
 11 15  1  0  0  0  0
 11 12  2  0  0  0  0
 13  8  1  0  0  0  0
 14  9  1  0  0  0  0
 15 16  1  0  0  0  0
 17 15  1  0  0  0  0
 18 25  1  1  0  0  0
 19 18  1  0  0  0  0
 20 19  1  0  0  0  0
 21 15  1  6  0  0  0
 21 22  1  0  0  0  0
 21 19  1  0  0  0  0
 22 23  1  0  0  0  0
 23 24  1  0  0  0  0
 23 18  1  0  0  0  0
 25 26  1  0  0  0  0
 27 32  1  0  0  0  0
 27  1  1  0  0  0  0
 28 29  1  0  0  0  0
 29 35  1  0  0  0  0
 29 30  2  0  0  0  0
 30 38  1  0  0  0  0
 31 30  1  0  0  0  0
 32 31  2  0  0  0  0
 33 32  1  0  0  0  0
 33 28  2  0  0  0  0
 34 28  1  0  0  0  0
 36 37  1  0  0  0  0
 37 42  1  0  0  0  0
 38 37  2  0  0  0  0
 38 39  1  0  0  0  0
 39 40  2  0  0  0  0
 40 41  1  0  0  0  0
 40 44  1  0  0  0  0
 41 45  1  0  0  0  0
 42 46  1  0  0  0  0
 42 41  2  0  0  0  0
 43 39  1  0  0  0  0
M  END
>  <minimizedAffinity>
-6.11969471

$$$$

 OpenBabel03272509593D

 46 49  0  0  1  0  0  0  0  0999 V2000
   37.0340   21.9520   31.6020 C   0  0  0  0  0  0  0  0  0  0  0  0
   37.5080   21.6360   30.6480 H   0  0  0  0  0  0  0  0  0  0  0  0
   37.7420   22.6720   32.0540 H   0  0  0  0  0  0  0  0  0  0  0  0
   36.6940   20.8010   32.4950 C   0  0  0  0  0  0  0  0  0  0  0  0
   37.3320   19.9160   32.3310 H   0  0  0  0  0  0  0  0  0  0  0  0
   35.6480   20.4870   32.2200 H   0  0  0  0  0  0  0  0  0  0  0  0
   36.7170   21.1690   33.9330 C   0  0  0  0  0  0  0  0  0  0  0  0
   35.6650   20.7030   34.7220 C   0  0  0  0  0  0  0  0  0  0  0  0
   35.5940   20.9910   36.0710 C   0  0  0  0  0  0  0  0  0  0  0  0
   36.5580   21.7360   36.6360 N   0  0  0  0  0  0  0  0  0  0  0  0
   37.5730   22.1750   35.8320 C   0  0  0  0  0  0  0  0  0  0  0  0
   37.6790   21.9200   34.5260 N   0  0  0  0  0  0  0  0  0  0  0  0
   34.8860   20.1050   34.2770 H   0  0  0  0  0  0  0  0  0  0  0  0
   34.7710   20.6210   36.6660 H   0  0  0  0  0  0  0  0  0  0  0  0
   38.6070   23.0070   36.5190 C   0  0  0  0  0  0  0  0  0  0  0  0
   38.3500   23.1110   37.5890 H   0  0  0  0  0  0  0  0  0  0  0  0
   38.6310   24.0250   36.0990 H   0  0  0  0  0  0  0  0  0  0  0  0
   42.2640   22.8830   36.5140 C   0  0  1  0  0  3  0  0  0  0  0  0
   40.9950   23.3350   35.7810 C   0  0  0  0  0  3  0  0  0  0  0  0
   40.8330   24.4020   35.9220 H   0  0  0  0  0  0  0  0  0  0  0  0
   39.9850   22.4280   36.3920 C   0  0  1  0  0  3  0  0  0  0  0  0
   40.4960   21.9550   37.5810 O   0  0  0  0  0  0  0  0  0  0  0  0
   41.8170   21.6450   37.2700 C   0  0  0  0  0  3  0  0  0  0  0  0
   42.3810   21.5180   38.2170 H   0  0  0  0  0  0  0  0  0  0  0  0
   43.2980   22.5940   35.6280 O   0  0  0  0  0  0  0  0  0  0  0  0
   43.5140   23.4240   35.1560 H   0  0  0  0  0  0  0  0  0  0  0  0
   35.8610   22.6580   31.2250 O   0  0  0  0  0  0  0  0  0  0  0  0
   35.1610   26.1990   30.9580 C   0  0  0  0  0  0  0  0  0  0  0  0
   36.1580   26.7140   31.8280 C   0  0  0  0  0  0  0  0  0  0  0  0
   37.0110   25.8020   32.4520 C   0  0  0  0  0  0  0  0  0  0  0  0
   36.7890   24.4860   32.1520 N   0  0  0  0  0  0  0  0  0  0  0  0
   35.8520   24.0150   31.3370 C   0  0  0  0  0  0  0  0  0  0  0  0
   35.0250   24.8980   30.7300 N   0  0  0  0  0  0  0  0  0  0  0  0
   34.5090   26.9180   30.4820 H   0  0  0  0  0  0  0  0  0  0  0  0
   36.3020   27.7500   32.0380 H   0  0  0  0  0  0  0  0  0  0  0  0
   36.9070   26.1100   35.3280 F   0  0  0  0  0  0  0  0  0  0  0  0
   38.0450   26.2980   34.6900 C   0  0  0  0  0  0  0  0  0  0  0  0
   38.0700   26.1490   33.3590 C   0  0  0  0  0  0  0  0  0  0  0  0
   39.3320   26.3710   32.7860 C   0  0  0  0  0  0  0  0  0  0  0  0
   40.4330   26.7090   33.5250 C   0  0  0  0  0  0  0  0  0  0  0  0
   40.3530   26.8500   34.8970 C   0  0  0  0  0  0  0  0  0  0  0  0
   39.1310   26.6350   35.4650 C   0  0  0  0  0  0  0  0  0  0  0  0
   39.4960   26.2850   31.7080 H   0  0  0  0  0  0  0  0  0  0  0  0
   41.4030   26.8780   33.0710 H   0  0  0  0  0  0  0  0  0  0  0  0
   41.2290   27.1160   35.4710 H   0  0  0  0  0  0  0  0  0  0  0  0
   39.0590   26.7430   36.5370 H   0  0  0  0  0  0  0  0  0  0  0  0
  1  3  1  0  0  0  0
  1  4  1  0  0  0  0
  2  1  1  0  0  0  0
  4  7  1  0  0  0  0
  5  4  1  0  0  0  0
  6  4  1  0  0  0  0
  7 12  2  0  0  0  0
  7  8  1  0  0  0  0
  8  9  2  0  0  0  0
  9 10  1  0  0  0  0
  9 14  1  0  0  0  0
 11 15  1  0  0  0  0
 11 10  2  0  0  0  0
 12 11  1  0  0  0  0
 13  8  1  0  0  0  0
 15 16  1  0  0  0  0
 17 15  1  0  0  0  0
 18 25  1  6  0  0  0
 18 23  1  0  0  0  0
 19 20  1  0  0  0  0
 19 21  1  0  0  0  0
 19 18  1  0  0  0  0
 21 15  1  1  0  0  0
 21 22  1  0  0  0  0
 23 22  1  0  0  0  0
 23 24  1  0  0  0  0
 26 25  1  0  0  0  0
 27 32  1  0  0  0  0
 27  1  1  0  0  0  0
 28 29  1  0  0  0  0
 29 35  1  0  0  0  0
 29 30  2  0  0  0  0
 30 38  1  0  0  0  0
 31 30  1  0  0  0  0
 32 31  2  0  0  0  0
 33 28  2  0  0  0  0
 33 32  1  0  0  0  0
 34 28  1  0  0  0  0
 37 36  1  0  0  0  0
 37 42  1  0  0  0  0
 38 37  2  0  0  0  0
 39 38  1  0  0  0  0
 39 40  2  0  0  0  0
 40 41  1  0  0  0  0
 41 42  2  0  0  0  0
 41 45  1  0  0  0  0
 42 46  1  0  0  0  0
 43 39  1  0  0  0  0
 44 40  1  0  0  0  0
M  END
>  <minimizedAffinity>
-6.04957438

$$$$

 OpenBabel03272509593D

 46 49  0  0  1  0  0  0  0  0999 V2000
   36.6590   21.6710   32.7070 C   0  0  0  0  0  0  0  0  0  0  0  0
   35.9950   20.8320   33.0050 H   0  0  0  0  0  0  0  0  0  0  0  0
   36.8210   22.2580   33.6320 H   0  0  0  0  0  0  0  0  0  0  0  0
   36.1080   22.4770   31.5730 C   0  0  0  0  0  0  0  0  0  0  0  0
   35.0630   22.2280   31.3250 H   0  0  0  0  0  0  0  0  0  0  0  0
   36.7180   22.2020   30.6670 H   0  0  0  0  0  0  0  0  0  0  0  0
   36.2290   23.9390   31.8010 C   0  0  0  0  0  0  0  0  0  0  0  0
   35.5780   24.7770   30.8950 C   0  0  0  0  0  0  0  0  0  0  0  0
   35.6300   26.1510   31.0200 C   0  0  0  0  0  0  0  0  0  0  0  0
   36.3210   26.6940   32.0340 N   0  0  0  0  0  0  0  0  0  0  0  0
   36.9470   25.8430   32.9030 C   0  0  0  0  0  0  0  0  0  0  0  0
   36.9230   24.5100   32.8180 N   0  0  0  0  0  0  0  0  0  0  0  0
   35.0210   24.3500   30.0770 H   0  0  0  0  0  0  0  0  0  0  0  0
   35.1180   26.7840   30.3080 H   0  0  0  0  0  0  0  0  0  0  0  0
   37.7070   26.5090   34.0020 C   0  0  0  0  0  0  0  0  0  0  0  0
   37.5040   25.9950   34.9590 H   0  0  0  0  0  0  0  0  0  0  0  0
   37.3780   27.5530   34.1290 H   0  0  0  0  0  0  0  0  0  0  0  0
   41.2780   26.0230   34.6360 C   0  0  1  0  0  3  0  0  0  0  0  0
   40.0240   26.8520   34.9360 C   0  0  0  0  0  3  0  0  0  0  0  0
   39.6120   26.5830   35.9070 H   0  0  0  0  0  0  0  0  0  0  0  0
   39.1850   26.5250   33.7500 C   0  0  1  0  0  3  0  0  0  0  0  0
   39.6630   25.3580   33.1960 O   0  0  0  0  0  0  0  0  0  0  0  0
   41.0450   25.5230   33.2220 C   0  0  0  0  0  3  0  0  0  0  0  0
   41.5210   24.5350   33.0530 H   0  0  0  0  0  0  0  0  0  0  0  0
   42.4370   26.7890   34.7210 O   0  0  0  0  0  0  0  0  0  0  0  0
   42.5090   27.1010   35.6460 H   0  0  0  0  0  0  0  0  0  0  0  0
   37.8910   21.0680   32.3430 O   0  0  0  0  0  0  0  0  0  0  0  0
   41.2700   21.5470   33.5450 C   0  0  0  0  0  0  0  0  0  0  0  0
   41.0020   22.1540   34.8000 C   0  0  0  0  0  0  0  0  0  0  0  0
   39.6670   22.3580   35.1520 C   0  0  0  0  0  0  0  0  0  0  0  0
   38.7440   21.9440   34.2300 N   0  0  0  0  0  0  0  0  0  0  0  0
   39.0070   21.3780   33.0570 C   0  0  0  0  0  0  0  0  0  0  0  0
   40.3010   21.1780   32.7160 N   0  0  0  0  0  0  0  0  0  0  0  0
   42.3100   21.3940   33.2870 H   0  0  0  0  0  0  0  0  0  0  0  0
   41.7510   22.4640   35.4950 H   0  0  0  0  0  0  0  0  0  0  0  0
   40.6470   21.9360   37.8420 F   0  0  0  0  0  0  0  0  0  0  0  0
   39.6550   22.7770   37.6310 C   0  0  0  0  0  0  0  0  0  0  0  0
   39.2180   22.9570   36.3780 C   0  0  0  0  0  0  0  0  0  0  0  0
   38.1610   23.8740   36.2710 C   0  0  0  0  0  0  0  0  0  0  0  0
   37.6280   24.5220   37.3530 C   0  0  0  0  0  0  0  0  0  0  0  0
   38.1170   24.2990   38.6250 C   0  0  0  0  0  0  0  0  0  0  0  0
   39.1460   23.4100   38.7410 C   0  0  0  0  0  0  0  0  0  0  0  0
   37.7060   24.1160   35.3060 H   0  0  0  0  0  0  0  0  0  0  0  0
   36.8120   25.2280   37.2580 H   0  0  0  0  0  0  0  0  0  0  0  0
   37.6890   24.8170   39.4730 H   0  0  0  0  0  0  0  0  0  0  0  0
   39.5330   23.2300   39.7330 H   0  0  0  0  0  0  0  0  0  0  0  0
  1  2  1  0  0  0  0
  1  3  1  0  0  0  0
  4  7  1  0  0  0  0
  4  1  1  0  0  0  0
  5  4  1  0  0  0  0
  6  4  1  0  0  0  0
  7 12  1  0  0  0  0
  8  9  1  0  0  0  0
  8  7  2  0  0  0  0
  9 10  2  0  0  0  0
 10 11  1  0  0  0  0
 11 15  1  0  0  0  0
 12 11  2  0  0  0  0
 13  8  1  0  0  0  0
 14  9  1  0  0  0  0
 15 17  1  0  0  0  0
 15 16  1  0  0  0  0
 18 25  1  6  0  0  0
 18 19  1  0  0  0  0
 19 20  1  0  0  0  0
 21 15  1  1  0  0  0
 21 19  1  0  0  0  0
 22 23  1  0  0  0  0
 22 21  1  0  0  0  0
 23 18  1  0  0  0  0
 24 23  1  0  0  0  0
 25 26  1  0  0  0  0
 27  1  1  0  0  0  0
 27 32  1  0  0  0  0
 28 29  1  0  0  0  0
 29 30  2  0  0  0  0
 29 35  1  0  0  0  0
 30 38  1  0  0  0  0
 31 30  1  0  0  0  0
 32 31  2  0  0  0  0
 33 32  1  0  0  0  0
 33 28  2  0  0  0  0
 34 28  1  0  0  0  0
 37 36  1  0  0  0  0
 37 42  1  0  0  0  0
 38 37  2  0  0  0  0
 39 38  1  0  0  0  0
 39 40  2  0  0  0  0
 40 41  1  0  0  0  0
 41 42  2  0  0  0  0
 41 45  1  0  0  0  0
 42 46  1  0  0  0  0
 43 39  1  0  0  0  0
 44 40  1  0  0  0  0
M  END
>  <minimizedAffinity>
-6.04726601

$$$$
