
 OpenBabel03272506393D

 37 39  0  0  1  0  0  0  0  0999 V2000
   36.0190   33.8300   41.2660 O   0  0  0  0  0  0  0  0  0  0  0  0
   35.5320   32.9440   41.9950 C   0  0  0  0  0  0  0  0  0  0  0  0
   34.1530   33.0030   42.4250 C   0  0  2  0  0  0  0  0  0  0  0  0
   34.0030   31.6090   43.1150 C   0  0  0  0  0  0  0  0  0  0  0  0
   35.4000   31.3050   43.5640 C   0  0  0  0  0  0  0  0  0  0  0  0
   36.2490   31.7890   42.4910 N   0  0  0  0  0  0  0  0  0  0  0  0
   33.8760   33.7620   43.1590 H   0  0  0  0  0  0  0  0  0  0  0  0
   33.2590   31.6710   43.9200 H   0  0  0  0  0  0  0  0  0  0  0  0
   33.6640   30.9210   42.3430 H   0  0  0  0  0  0  0  0  0  0  0  0
   35.6450   31.7670   44.5420 H   0  0  0  0  0  0  0  0  0  0  0  0
   35.5000   30.2020   43.6040 H   0  0  0  0  0  0  0  0  0  0  0  0
   37.5190   31.2690   41.9980 C   0  0  0  0  0  0  0  0  0  0  0  0
   38.2930   32.0550   41.8850 H   0  0  0  0  0  0  0  0  0  0  0  0
   37.9150   30.6110   42.8260 H   0  0  0  0  0  0  0  0  0  0  0  0
   37.6810   28.1180   40.7430 C   0  0  2  0  0  3  0  0  0  0  0  0
   38.4350   29.4260   40.7020 C   0  0  0  0  0  3  0  0  0  0  0  0
   39.1190   29.5000   41.5770 H   0  0  0  0  0  0  0  0  0  0  0  0
   37.3250   30.4470   40.7710 C   0  0  1  0  0  3  0  0  0  0  0  0
   36.1410   29.7250   40.9200 O   0  0  0  0  0  0  0  0  0  0  0  0
   36.3260   28.5360   40.2230 C   0  0  0  0  0  3  0  0  0  0  0  0
   35.5160   27.8550   40.5760 H   0  0  0  0  0  0  0  0  0  0  0  0
   37.5360   27.7500   42.0780 O   0  0  0  0  0  0  0  0  0  0  0  0
   36.8240   28.3200   42.4910 H   0  0  0  0  0  0  0  0  0  0  0  0
   33.2010   33.0080   41.3580 O   0  0  0  0  0  0  0  0  0  0  0  0
   32.3300   34.0880   41.2810 C   0  0  0  0  0  0  0  0  0  0  0  0
   32.8530   35.2730   40.7930 C   0  0  0  0  0  0  0  0  0  0  0  0
   32.0140   36.3750   40.7010 C   0  0  0  0  0  0  0  0  0  0  0  0
   30.7160   36.2420   41.0940 N   0  0  0  0  0  0  0  0  0  0  0  0
   30.2230   35.0870   41.5650 C   0  0  0  0  0  0  0  0  0  0  0  0
   31.0350   34.0440   41.6470 N   0  0  0  0  0  0  0  0  0  0  0  0
   28.1420   34.0030   41.2300 C   0  0  0  0  0  0  0  0  0  0  0  0
   28.5650   33.2540   40.3040 O   0  0  0  0  0  0  0  0  0  0  0  0
   28.8620   34.9870   41.9690 N   0  0  0  0  0  0  0  0  0  0  0  0
   33.8700   35.4270   40.4710 H   0  0  0  0  0  0  0  0  0  0  0  0
   32.3820   37.3110   40.3280 H   0  0  0  0  0  0  0  0  0  0  0  0
   27.0900   33.8120   41.4270 H   0  0  0  0  0  0  0  0  0  0  0  0
   28.4010   35.5480   42.7180 H   0  0  0  0  0  0  0  0  0  0  0  0
  1  2  2  0  0  0  0
  2  3  1  0  0  0  0
  2  6  1  0  0  0  0
  3  4  1  0  0  0  0
  3  7  1  1  0  0  0
  4  5  1  0  0  0  0
  4  8  1  0  0  0  0
  5 11  1  0  0  0  0
  5 10  1  0  0  0  0
  6  5  1  0  0  0  0
  9  4  1  0  0  0  0
 12  6  1  0  0  0  0
 12 14  1  0  0  0  0
 13 12  1  0  0  0  0
 15 22  1  1  0  0  0
 16 15  1  0  0  0  0
 16 18  1  0  0  0  0
 16 17  1  0  0  0  0
 18 19  1  0  0  0  0
 18 12  1  1  0  0  0
 20 21  1  0  0  0  0
 20 15  1  0  0  0  0
 20 19  1  0  0  0  0
 22 23  1  0  0  0  0
 24  3  1  0  0  0  0
 25 24  1  0  0  0  0
 25 30  1  0  0  0  0
 26 25  2  0  0  0  0
 27 26  1  0  0  0  0
 27 28  2  0  0  0  0
 28 29  1  0  0  0  0
 29 30  2  0  0  0  0
 29 33  1  0  0  0  0
 31 36  1  0  0  0  0
 31 33  1  0  0  0  0
 32 31  2  0  0  0  0
 33 37  1  0  0  0  0
 34 26  1  0  0  0  0
 35 27  1  0  0  0  0
M  END
>  <minimizedAffinity>
-2.72467494

>  <minimizedRMSD>
9.97314739

$$$$
