
 OpenBabel03272509423D

 38 40  0  0  1  0  0  0  0  0999 V2000
   37.0810   30.9450   49.0300 C   0  0  0  0  0  0  0  0  0  0  0  0
   36.7910   31.8660   50.0370 C   0  0  0  0  0  0  0  0  0  0  0  0
   37.3920   33.1230   50.0790 C   0  0  0  0  0  0  0  0  0  0  0  0
   38.3140   33.4720   49.0820 C   0  0  0  0  0  0  0  0  0  0  0  0
   38.5860   32.5590   48.1060 C   0  0  0  0  0  0  0  0  0  0  0  0
   37.9670   31.3190   48.1010 C   0  0  0  0  0  0  0  0  0  0  0  0
   36.0690   31.5730   50.7970 H   0  0  0  0  0  0  0  0  0  0  0  0
   37.1220   33.7920   50.9020 H   0  0  0  0  0  0  0  0  0  0  0  0
   38.7600   34.4630   49.1550 H   0  0  0  0  0  0  0  0  0  0  0  0
   39.3140   32.9590   47.4010 H   0  0  0  0  0  0  0  0  0  0  0  0
   36.4830   29.6300   49.0060 C   0  0  2  0  0  0  0  0  0  0  0  0
   37.0470   29.0530   48.1730 H   0  0  0  0  0  0  0  0  0  0  0  0
   33.6710   30.1170   46.7570 C   0  0  0  0  0  0  0  0  0  0  0  0
   33.0220   28.8970   46.7590 C   0  0  0  0  0  0  0  0  0  0  0  0
   33.5090   27.9030   47.5900 C   0  0  0  0  0  0  0  0  0  0  0  0
   34.6110   28.1590   48.3770 N   0  0  0  0  0  0  0  0  0  0  0  0
   35.1890   29.3420   48.3290 C   0  0  0  0  0  0  0  0  0  0  0  0
   34.7260   30.3250   47.5240 N   0  0  0  0  0  0  0  0  0  0  0  0
   33.2560   30.8690   46.0880 H   0  0  0  0  0  0  0  0  0  0  0  0
   32.1730   28.6810   46.1530 H   0  0  0  0  0  0  0  0  0  0  0  0
   33.0340   26.9230   47.6320 H   0  0  0  0  0  0  0  0  0  0  0  0
   36.8700   28.8940   49.9910 O   0  0  0  0  0  0  0  0  0  0  0  0
   36.9150   27.8980   49.9070 H   0  0  0  0  0  0  0  0  0  0  0  0
   38.3850   30.4320   47.0330 C   0  0  0  0  0  3  0  0  0  0  0  0
   38.8790   30.8550   45.8680 C   0  0  0  0  0  3  0  0  0  0  0  0
   39.3790   30.0530   44.7370 C   0  0  0  0  0  0  0  0  0  0  0  0
   38.8110   29.1000   44.6630 H   0  0  0  0  0  0  0  0  0  0  0  0
   40.4470   29.7560   44.9050 H   0  0  0  0  0  0  0  0  0  0  0  0
   39.2930   31.0090   43.2170 S   0  0  0  0  0  0  0  0  0  0  0  0
   39.2940   28.6020   41.8380 C   0  0  1  0  0  3  0  0  0  0  0  0
   39.9530   29.9660   41.9070 C   0  0  1  0  0  3  0  0  0  0  0  0
   39.6120   30.4730   40.5160 C   0  0  0  0  0  3  0  0  0  0  0  0
   38.5520   30.8030   40.5450 H   0  0  0  0  0  0  0  0  0  0  0  0
   39.6920   29.3920   39.6590 O   0  0  0  0  0  0  0  0  0  0  0  0
   39.6460   28.2340   40.4080 C   0  0  0  0  0  3  0  0  0  0  0  0
   40.6710   27.7930   40.4170 H   0  0  0  0  0  0  0  0  0  0  0  0
   39.7860   27.7130   42.7620 O   0  0  0  0  0  0  0  0  0  0  0  0
   39.2270   27.8030   43.5970 H   0  0  0  0  0  0  0  0  0  0  0  0
  1  2  1  0  0  0  0
  2  3  2  0  0  0  0
  2  7  1  0  0  0  0
  3  8  1  0  0  0  0
  4  9  1  0  0  0  0
  4  3  1  0  0  0  0
  5  4  2  0  0  0  0
  6  5  1  0  0  0  0
  6  1  2  0  0  0  0
 10  5  1  0  0  0  0
 11 12  1  6  0  0  0
 11  1  1  0  0  0  0
 11 22  1  0  0  0  0
 13 14  2  0  0  0  0
 13 18  1  0  0  0  0
 14 15  1  0  0  0  0
 15 21  1  0  0  0  0
 15 16  2  0  0  0  0
 17 16  1  0  0  0  0
 17 11  1  0  0  0  0
 18 17  2  0  0  0  0
 19 13  1  0  0  0  0
 20 14  1  0  0  0  0
 23 22  1  0  0  0  0
 24  6  1  0  0  0  0
 25 24  2  0  0  0  0
 26 28  1  0  0  0  0
 26 25  1  0  0  0  0
 27 26  1  0  0  0  0
 29 26  1  0  0  0  0
 30 31  1  0  0  0  0
 30 37  1  1  0  0  0
 31 29  1  1  0  0  0
 32 33  1  0  0  0  0
 32 31  1  0  0  0  0
 34 35  1  0  0  0  0
 34 32  1  0  0  0  0
 35 36  1  0  0  0  0
 35 30  1  0  0  0  0
 37 38  1  0  0  0  0
M  END
>  <minimizedAffinity>
-5.5389967

>  <minimizedRMSD>
0.106182896

$$$$
