
 OpenBabel03272509423D

 38 40  0  0  1  0  0  0  0  0999 V2000
   37.0050   30.9140   49.0720 C   0  0  0  0  0  0  0  0  0  0  0  0
   36.6990   31.8040   50.1020 C   0  0  0  0  0  0  0  0  0  0  0  0
   37.2830   33.0670   50.1800 C   0  0  0  0  0  0  0  0  0  0  0  0
   38.2030   33.4560   49.1960 C   0  0  0  0  0  0  0  0  0  0  0  0
   38.4910   32.5730   48.1970 C   0  0  0  0  0  0  0  0  0  0  0  0
   37.8890   31.3250   48.1560 C   0  0  0  0  0  0  0  0  0  0  0  0
   35.9790   31.4810   50.8520 H   0  0  0  0  0  0  0  0  0  0  0  0
   37.0000   33.7100   51.0200 H   0  0  0  0  0  0  0  0  0  0  0  0
   38.6350   34.4500   49.2980 H   0  0  0  0  0  0  0  0  0  0  0  0
   39.2160   33.0020   47.5050 H   0  0  0  0  0  0  0  0  0  0  0  0
   36.4260   29.5910   49.0110 C   0  0  2  0  0  0  0  0  0  0  0  0
   36.9340   29.0770   48.1050 H   0  0  0  0  0  0  0  0  0  0  0  0
   33.5860   29.9850   46.7790 C   0  0  0  0  0  0  0  0  0  0  0  0
   32.8380   28.8410   46.9790 C   0  0  0  0  0  0  0  0  0  0  0  0
   33.2690   27.9420   47.9390 C   0  0  0  0  0  0  0  0  0  0  0  0
   34.4160   28.2140   48.6530 N   0  0  0  0  0  0  0  0  0  0  0  0
   35.0890   29.3210   48.4150 C   0  0  0  0  0  0  0  0  0  0  0  0
   34.6810   30.2110   47.4820 N   0  0  0  0  0  0  0  0  0  0  0  0
   33.2120   30.6640   46.0130 H   0  0  0  0  0  0  0  0  0  0  0  0
   31.9530   28.6120   46.4320 H   0  0  0  0  0  0  0  0  0  0  0  0
   32.7160   27.0250   48.1380 H   0  0  0  0  0  0  0  0  0  0  0  0
   36.8960   28.8050   49.9180 O   0  0  0  0  0  0  0  0  0  0  0  0
   36.9480   27.8170   49.7690 H   0  0  0  0  0  0  0  0  0  0  0  0
   38.3230   30.4730   47.0670 C   0  0  0  0  0  3  0  0  0  0  0  0
   38.8060   30.9330   45.9120 C   0  0  0  0  0  3  0  0  0  0  0  0
   39.3200   30.1690   44.7600 C   0  0  0  0  0  0  0  0  0  0  0  0
   38.4770   29.7110   44.1980 H   0  0  0  0  0  0  0  0  0  0  0  0
   39.9540   29.3120   45.1070 H   0  0  0  0  0  0  0  0  0  0  0  0
   40.3300   31.2300   43.7180 S   0  0  0  0  0  0  0  0  0  0  0  0
   40.7950   28.9740   42.1710 C   0  0  1  0  0  3  0  0  0  0  0  0
   40.4160   30.4410   42.1020 C   0  0  1  0  0  3  0  0  0  0  0  0
   39.0590   30.3100   41.4330 C   0  0  0  0  0  3  0  0  0  0  0  0
   38.3410   29.9940   42.2190 H   0  0  0  0  0  0  0  0  0  0  0  0
   39.1570   29.2840   40.5140 O   0  0  0  0  0  0  0  0  0  0  0  0
   40.2650   28.5230   40.8230 C   0  0  0  0  0  3  0  0  0  0  0  0
   41.0500   28.7410   40.0620 H   0  0  0  0  0  0  0  0  0  0  0  0
   42.1450   28.7680   42.3170 O   0  0  0  0  0  0  0  0  0  0  0  0
   42.3410   28.7380   43.3060 H   0  0  0  0  0  0  0  0  0  0  0  0
  1  2  1  0  0  0  0
  2  3  2  0  0  0  0
  2  7  1  0  0  0  0
  3  8  1  0  0  0  0
  4  9  1  0  0  0  0
  4  3  1  0  0  0  0
  5  4  2  0  0  0  0
  6  5  1  0  0  0  0
  6  1  2  0  0  0  0
 10  5  1  0  0  0  0
 11 12  1  6  0  0  0
 11  1  1  0  0  0  0
 11 22  1  0  0  0  0
 13 14  2  0  0  0  0
 13 18  1  0  0  0  0
 14 15  1  0  0  0  0
 15 21  1  0  0  0  0
 15 16  2  0  0  0  0
 17 16  1  0  0  0  0
 17 11  1  0  0  0  0
 18 17  2  0  0  0  0
 19 13  1  0  0  0  0
 20 14  1  0  0  0  0
 23 22  1  0  0  0  0
 24  6  1  0  0  0  0
 25 24  2  0  0  0  0
 26 28  1  0  0  0  0
 26 25  1  0  0  0  0
 27 26  1  0  0  0  0
 29 26  1  0  0  0  0
 30 37  1  6  0  0  0
 31 30  1  0  0  0  0
 31 29  1  1  0  0  0
 32 31  1  0  0  0  0
 32 33  1  0  0  0  0
 34 35  1  0  0  0  0
 34 32  1  0  0  0  0
 35 30  1  0  0  0  0
 36 35  1  0  0  0  0
 37 38  1  0  0  0  0
M  END
>  <minimizedAffinity>
-6.29470873

>  <minimizedRMSD>
0.523364305

$$$$
