
 OpenBabel03272509423D

 38 40  0  0  1  0  0  0  0  0999 V2000
   37.0190   30.9160   49.0490 C   0  0  0  0  0  0  0  0  0  0  0  0
   36.7230   31.8090   50.0800 C   0  0  0  0  0  0  0  0  0  0  0  0
   37.3130   33.0690   50.1530 C   0  0  0  0  0  0  0  0  0  0  0  0
   38.2300   33.4520   49.1630 C   0  0  0  0  0  0  0  0  0  0  0  0
   38.5080   32.5670   48.1640 C   0  0  0  0  0  0  0  0  0  0  0  0
   37.9000   31.3220   48.1280 C   0  0  0  0  0  0  0  0  0  0  0  0
   36.0050   31.4900   50.8340 H   0  0  0  0  0  0  0  0  0  0  0  0
   37.0390   33.7140   50.9940 H   0  0  0  0  0  0  0  0  0  0  0  0
   38.6680   34.4440   49.2620 H   0  0  0  0  0  0  0  0  0  0  0  0
   39.2310   32.9910   47.4680 H   0  0  0  0  0  0  0  0  0  0  0  0
   36.4320   29.5970   48.9930 C   0  0  2  0  0  0  0  0  0  0  0  0
   36.9580   29.0670   48.1050 H   0  0  0  0  0  0  0  0  0  0  0  0
   33.5820   30.0690   46.7890 C   0  0  0  0  0  0  0  0  0  0  0  0
   32.8780   28.8830   46.8890 C   0  0  0  0  0  0  0  0  0  0  0  0
   33.3430   27.9230   47.7720 C   0  0  0  0  0  0  0  0  0  0  0  0
   34.4770   28.1780   48.5110 N   0  0  0  0  0  0  0  0  0  0  0  0
   35.1070   29.3270   48.3700 C   0  0  0  0  0  0  0  0  0  0  0  0
   34.6670   30.2760   47.5140 N   0  0  0  0  0  0  0  0  0  0  0  0
   33.1820   30.7950   46.0820 H   0  0  0  0  0  0  0  0  0  0  0  0
   32.0030   28.6680   46.3210 H   0  0  0  0  0  0  0  0  0  0  0  0
   32.8250   26.9720   47.8910 H   0  0  0  0  0  0  0  0  0  0  0  0
   36.8760   28.8200   49.9200 O   0  0  0  0  0  0  0  0  0  0  0  0
   36.9250   27.8290   49.7860 H   0  0  0  0  0  0  0  0  0  0  0  0
   38.3230   30.4660   47.0370 C   0  0  0  0  0  3  0  0  0  0  0  0
   38.9150   30.9150   45.9290 C   0  0  0  0  0  3  0  0  0  0  0  0
   39.4300   30.1420   44.7840 C   0  0  0  0  0  0  0  0  0  0  0  0
   38.8100   29.2320   44.6270 H   0  0  0  0  0  0  0  0  0  0  0  0
   40.4660   29.7690   44.9940 H   0  0  0  0  0  0  0  0  0  0  0  0
   39.4910   31.1780   43.3170 S   0  0  0  0  0  0  0  0  0  0  0  0
   38.8550   29.4070   41.2780 C   0  0  1  0  0  3  0  0  0  0  0  0
   40.0080   30.1230   41.9540 C   0  0  1  0  0  3  0  0  0  0  0  0
   40.5400   30.9060   40.7660 C   0  0  0  0  0  3  0  0  0  0  0  0
   39.8660   31.7770   40.6270 H   0  0  0  0  0  0  0  0  0  0  0  0
   40.4100   30.0940   39.6550 O   0  0  0  0  0  0  0  0  0  0  0  0
   39.5120   29.0890   39.9490 C   0  0  0  0  0  3  0  0  0  0  0  0
   40.0880   28.1430   40.0760 H   0  0  0  0  0  0  0  0  0  0  0  0
   38.4370   28.2890   41.9560 O   0  0  0  0  0  0  0  0  0  0  0  0
   37.7180   28.5760   42.6030 H   0  0  0  0  0  0  0  0  0  0  0  0
  1  2  1  0  0  0  0
  2  3  2  0  0  0  0
  2  7  1  0  0  0  0
  3  8  1  0  0  0  0
  4  9  1  0  0  0  0
  4  3  1  0  0  0  0
  5  4  2  0  0  0  0
  6  5  1  0  0  0  0
  6  1  2  0  0  0  0
 10  5  1  0  0  0  0
 11 12  1  6  0  0  0
 11  1  1  0  0  0  0
 11 22  1  0  0  0  0
 13 14  2  0  0  0  0
 13 18  1  0  0  0  0
 14 15  1  0  0  0  0
 15 21  1  0  0  0  0
 15 16  2  0  0  0  0
 17 16  1  0  0  0  0
 17 11  1  0  0  0  0
 18 17  2  0  0  0  0
 19 13  1  0  0  0  0
 20 14  1  0  0  0  0
 23 22  1  0  0  0  0
 24  6  1  0  0  0  0
 25 24  2  0  0  0  0
 26 28  1  0  0  0  0
 26 25  1  0  0  0  0
 27 26  1  0  0  0  0
 29 26  1  0  0  0  0
 30 31  1  0  0  0  0
 30 37  1  1  0  0  0
 31 29  1  1  0  0  0
 32 31  1  0  0  0  0
 33 32  1  0  0  0  0
 34 35  1  0  0  0  0
 34 32  1  0  0  0  0
 35 36  1  0  0  0  0
 35 30  1  0  0  0  0
 37 38  1  0  0  0  0
M  END
>  <minimizedAffinity>
-5.44608736

>  <minimizedRMSD>
0.18746376

$$$$
