
 OpenBabel03272509423D

 38 40  0  0  1  0  0  0  0  0999 V2000
   37.0410   30.9280   49.0610 C   0  0  0  0  0  0  0  0  0  0  0  0
   36.7540   31.8300   50.0860 C   0  0  0  0  0  0  0  0  0  0  0  0
   37.3460   33.0910   50.1420 C   0  0  0  0  0  0  0  0  0  0  0  0
   38.2540   33.4640   49.1420 C   0  0  0  0  0  0  0  0  0  0  0  0
   38.5240   32.5690   48.1480 C   0  0  0  0  0  0  0  0  0  0  0  0
   37.9150   31.3240   48.1290 C   0  0  0  0  0  0  0  0  0  0  0  0
   36.0420   31.5190   50.8490 H   0  0  0  0  0  0  0  0  0  0  0  0
   37.0780   33.7440   50.9790 H   0  0  0  0  0  0  0  0  0  0  0  0
   38.6930   34.4570   49.2280 H   0  0  0  0  0  0  0  0  0  0  0  0
   39.2420   32.9870   47.4420 H   0  0  0  0  0  0  0  0  0  0  0  0
   36.4540   29.6080   49.0220 C   0  0  2  0  0  0  0  0  0  0  0  0
   36.9610   29.0750   48.1250 H   0  0  0  0  0  0  0  0  0  0  0  0
   33.6050   30.0060   46.8020 C   0  0  0  0  0  0  0  0  0  0  0  0
   32.8640   28.8560   46.9950 C   0  0  0  0  0  0  0  0  0  0  0  0
   33.3030   27.9510   47.9470 C   0  0  0  0  0  0  0  0  0  0  0  0
   34.4500   28.2230   48.6590 N   0  0  0  0  0  0  0  0  0  0  0  0
   35.1170   29.3360   48.4270 C   0  0  0  0  0  0  0  0  0  0  0  0
   34.7010   30.2310   47.5040 N   0  0  0  0  0  0  0  0  0  0  0  0
   33.2240   30.6890   46.0440 H   0  0  0  0  0  0  0  0  0  0  0  0
   31.9780   28.6270   46.4490 H   0  0  0  0  0  0  0  0  0  0  0  0
   32.7550   27.0290   48.1400 H   0  0  0  0  0  0  0  0  0  0  0  0
   36.9170   28.8350   49.9420 O   0  0  0  0  0  0  0  0  0  0  0  0
   36.9640   27.8430   49.8110 H   0  0  0  0  0  0  0  0  0  0  0  0
   38.3290   30.4590   47.0430 C   0  0  0  0  0  3  0  0  0  0  0  0
   38.8640   30.9010   45.9040 C   0  0  0  0  0  3  0  0  0  0  0  0
   39.3650   30.1200   44.7590 C   0  0  0  0  0  0  0  0  0  0  0  0
   38.7350   29.2160   44.6070 H   0  0  0  0  0  0  0  0  0  0  0  0
   40.3990   29.7370   44.9640 H   0  0  0  0  0  0  0  0  0  0  0  0
   39.4290   31.1520   43.2880 S   0  0  0  0  0  0  0  0  0  0  0  0
   38.8080   29.4310   41.2040 C   0  0  1  0  0  3  0  0  0  0  0  0
   39.9590   30.0940   41.9320 C   0  0  1  0  0  3  0  0  0  0  0  0
   40.5640   30.8710   40.7750 C   0  0  0  0  0  3  0  0  0  0  0  0
   39.9300   31.7690   40.6230 H   0  0  0  0  0  0  0  0  0  0  0  0
   40.4480   30.0790   39.6500 O   0  0  0  0  0  0  0  0  0  0  0  0
   39.5040   29.1040   39.8950 C   0  0  0  0  0  3  0  0  0  0  0  0
   40.0400   28.1360   40.0310 H   0  0  0  0  0  0  0  0  0  0  0  0
   38.3240   28.3200   41.8500 O   0  0  0  0  0  0  0  0  0  0  0  0
   37.5920   28.6260   42.4720 H   0  0  0  0  0  0  0  0  0  0  0  0
  1  2  1  0  0  0  0
  2  3  2  0  0  0  0
  2  7  1  0  0  0  0
  3  8  1  0  0  0  0
  4  9  1  0  0  0  0
  4  3  1  0  0  0  0
  5  4  2  0  0  0  0
  6  5  1  0  0  0  0
  6  1  2  0  0  0  0
 10  5  1  0  0  0  0
 11 12  1  6  0  0  0
 11  1  1  0  0  0  0
 11 22  1  0  0  0  0
 13 14  2  0  0  0  0
 13 18  1  0  0  0  0
 14 15  1  0  0  0  0
 15 21  1  0  0  0  0
 15 16  2  0  0  0  0
 17 16  1  0  0  0  0
 17 11  1  0  0  0  0
 18 17  2  0  0  0  0
 19 13  1  0  0  0  0
 20 14  1  0  0  0  0
 23 22  1  0  0  0  0
 24  6  1  0  0  0  0
 25 24  2  0  0  0  0
 26 28  1  0  0  0  0
 26 25  1  0  0  0  0
 27 26  1  0  0  0  0
 29 26  1  0  0  0  0
 30 37  1  1  0  0  0
 30 31  1  0  0  0  0
 31 29  1  1  0  0  0
 32 31  1  0  0  0  0
 33 32  1  0  0  0  0
 34 35  1  0  0  0  0
 34 32  1  0  0  0  0
 35 36  1  0  0  0  0
 35 30  1  0  0  0  0
 37 38  1  0  0  0  0
M  END
>  <minimizedAffinity>
-5.44759893

>  <minimizedRMSD>
0.237627581

$$$$
