
 OpenBabel03262520363D

 42 44  0  0  1  0  0  0  0  0999 V2000
   37.4100   22.4950   33.3930 C   0  0  0  0  0  0  0  0  0  0  0  0
   36.8120   22.9130   32.1950 C   0  0  0  0  0  0  0  0  0  0  0  0
   35.7070   22.2840   31.6910 C   0  0  0  0  0  0  0  0  0  0  0  0
   35.1680   21.2160   32.3690 C   0  0  0  0  0  0  0  0  0  0  0  0
   35.7410   20.8040   33.5280 C   0  0  0  0  0  0  0  0  0  0  0  0
   36.8470   21.4030   34.0710 C   0  0  0  0  0  0  0  0  0  0  0  0
   35.2990   22.6640   30.7600 H   0  0  0  0  0  0  0  0  0  0  0  0
   34.2970   20.7770   31.9010 H   0  0  0  0  0  0  0  0  0  0  0  0
   35.2600   19.9580   34.0030 H   0  0  0  0  0  0  0  0  0  0  0  0
   37.2210   21.0010   34.9980 H   0  0  0  0  0  0  0  0  0  0  0  0
   38.8070   23.2570   34.0930 S   0  0  0  0  0  0  0  0  0  0  0  0
   39.8410   23.5440   33.0590 O   0  0  0  0  0  0  0  0  0  0  0  0
   38.3630   24.5400   34.7940 O   0  0  0  0  0  0  0  0  0  0  0  0
   39.3130   22.9560   36.7160 C   0  0  2  0  0  3  0  0  0  0  0  0
   39.5370   22.2650   35.3520 C   0  0  2  0  0  3  0  0  0  0  0  0
   41.0450   22.2880   35.3450 C   0  0  0  0  0  3  0  0  0  0  0  0
   41.5050   21.5560   34.6710 H   0  0  0  0  0  0  0  0  0  0  0  0
   41.4900   22.1410   36.6490 O   0  0  0  0  0  0  0  0  0  0  0  0
   40.4120   22.2850   37.4950 C   0  0  0  0  0  3  0  0  0  0  0  0
   40.6550   22.7640   38.4520 H   0  0  0  0  0  0  0  0  0  0  0  0
   38.0460   22.6560   37.2030 O   0  0  0  0  0  0  0  0  0  0  0  0
   37.4260   23.3960   36.9560 H   0  0  0  0  0  0  0  0  0  0  0  0
   37.4630   23.9860   31.6390 O   0  0  0  0  0  0  0  0  0  0  0  0
   37.9540   26.4780   30.8730 O   0  0  0  0  0  0  0  0  0  0  0  0
   36.8600   25.5570   31.4280 P   0  0  1  0  0  0  0  0  0  0  0  0
   35.4860   25.5420   30.4420 O   0  0  0  0  0  0  0  0  0  0  0  0
   35.1840   24.6380   30.2520 H   0  0  0  0  0  0  0  0  0  0  0  0
   36.4450   26.2630   32.9290 O   0  0  0  0  0  0  0  0  0  0  0  0
   36.9990   27.5530   32.9660 C   0  0  0  0  0  0  0  0  0  0  0  0
   37.0060   27.9760   31.9650 H   0  0  0  0  0  0  0  0  0  0  0  0
   38.0390   27.4020   33.3780 H   0  0  0  0  0  0  0  0  0  0  0  0
   35.6410   29.4950   33.6460 C   0  0  0  0  0  3  0  0  0  0  0  0
   36.3160   28.4200   33.9530 C   0  0  0  0  0  3  0  0  0  0  0  0
   33.2080   30.8780   36.0090 C   0  0  0  0  0  0  0  0  0  0  0  0
   34.0000   31.7530   36.7670 C   0  0  0  0  0  0  0  0  0  0  0  0
   35.3630   31.8530   36.4510 C   0  0  0  0  0  0  0  0  0  0  0  0
   35.7880   31.0670   35.4080 N   0  0  0  0  0  0  0  0  0  0  0  0
   35.0170   30.2530   34.7150 C   0  0  0  0  0  0  0  0  0  0  0  0
   33.7270   30.1700   35.0270 N   0  0  0  0  0  0  0  0  0  0  0  0
   32.1480   30.7310   36.1750 H   0  0  0  0  0  0  0  0  0  0  0  0
   33.5360   32.3050   37.5520 H   0  0  0  0  0  0  0  0  0  0  0  0
   35.9860   32.5080   37.0090 H   0  0  0  0  0  0  0  0  0  0  0  0
  1  6  1  0  0  0  0
  1 11  1  0  0  0  0
  2  1  2  0  0  0  0
  3  2  1  0  0  0  0
  3  4  2  0  0  0  0
  4  5  1  0  0  0  0
  5  9  1  0  0  0  0
  5  6  2  0  0  0  0
  6 10  1  0  0  0  0
  7  3  1  0  0  0  0
  8  4  1  0  0  0  0
 11 13  2  0  0  0  0
 12 11  2  0  0  0  0
 14 21  1  1  0  0  0
 14 19  1  0  0  0  0
 15 11  1  6  0  0  0
 15 14  1  0  0  0  0
 16 15  1  0  0  0  0
 16 18  1  0  0  0  0
 17 16  1  0  0  0  0
 18 19  1  0  0  0  0
 19 20  1  0  0  0  0
 22 21  1  0  0  0  0
 23  2  1  0  0  0  0
 25 24  2  6  0  0  0
 25 23  1  0  0  0  0
 25 28  1  0  0  0  0
 26 25  1  0  0  0  0
 27 26  1  0  0  0  0
 28 29  1  0  0  0  0
 29 31  1  0  0  0  0
 29 33  1  0  0  0  0
 30 29  1  0  0  0  0
 32 33  2  0  0  0  0
 32 38  1  0  0  0  0
 34 40  1  0  0  0  0
 34 35  1  0  0  0  0
 35 41  1  0  0  0  0
 36 35  2  0  0  0  0
 36 42  1  0  0  0  0
 37 36  1  0  0  0  0
 38 39  1  0  0  0  0
 38 37  2  0  0  0  0
 39 34  2  0  0  0  0
M  END
>  <minimizedAffinity>
-6.00865984

$$$$

 OpenBabel03262520363D

 42 44  0  0  1  0  0  0  0  0999 V2000
   37.5390   23.6900   33.1290 C   0  0  0  0  0  0  0  0  0  0  0  0
   36.7080   24.4280   32.2730 C   0  0  0  0  0  0  0  0  0  0  0  0
   35.8580   23.8110   31.3960 C   0  0  0  0  0  0  0  0  0  0  0  0
   35.8140   22.4370   31.3500 C   0  0  0  0  0  0  0  0  0  0  0  0
   36.6150   21.7160   32.1740 C   0  0  0  0  0  0  0  0  0  0  0  0
   37.4810   22.2900   33.0670 C   0  0  0  0  0  0  0  0  0  0  0  0
   35.2460   24.4470   30.7660 H   0  0  0  0  0  0  0  0  0  0  0  0
   35.1160   22.0330   30.6290 H   0  0  0  0  0  0  0  0  0  0  0  0
   36.5240   20.6410   32.0780 H   0  0  0  0  0  0  0  0  0  0  0  0
   38.0690   21.6270   33.6800 H   0  0  0  0  0  0  0  0  0  0  0  0
   38.6320   24.4110   34.2730 S   0  0  0  0  0  0  0  0  0  0  0  0
   39.6380   25.2720   33.5890 O   0  0  0  0  0  0  0  0  0  0  0  0
   37.8190   25.2180   35.2850 O   0  0  0  0  0  0  0  0  0  0  0  0
   38.9820   23.2670   36.6800 C   0  0  2  0  0  3  0  0  0  0  0  0
   39.4880   23.1980   35.2210 C   0  0  2  0  0  3  0  0  0  0  0  0
   40.9340   23.5390   35.4790 C   0  0  0  0  0  3  0  0  0  0  0  0
   41.6200   23.2250   34.6840 H   0  0  0  0  0  0  0  0  0  0  0  0
   41.2940   23.0130   36.7100 O   0  0  0  0  0  0  0  0  0  0  0  0
   40.1500   22.6010   37.3580 C   0  0  0  0  0  3  0  0  0  0  0  0
   40.1830   22.7270   38.4470 H   0  0  0  0  0  0  0  0  0  0  0  0
   37.8000   22.5480   36.8120 O   0  0  0  0  0  0  0  0  0  0  0  0
   37.0330   23.1780   36.7320 H   0  0  0  0  0  0  0  0  0  0  0  0
   36.8660   25.7810   32.4380 O   0  0  0  0  0  0  0  0  0  0  0  0
   38.6300   26.6350   30.6490 O   0  0  0  0  0  0  0  0  0  0  0  0
   37.2470   26.9250   31.2450 P   0  0  1  0  0  0  0  0  0  0  0  0
   36.0440   26.9720   30.0580 O   0  0  0  0  0  0  0  0  0  0  0  0
   35.2710   26.4350   30.3010 H   0  0  0  0  0  0  0  0  0  0  0  0
   37.4050   28.4880   31.9210 O   0  0  0  0  0  0  0  0  0  0  0  0
   36.2670   29.2290   31.5650 C   0  0  0  0  0  0  0  0  0  0  0  0
   35.5340   28.5730   31.1040 H   0  0  0  0  0  0  0  0  0  0  0  0
   36.6530   30.0140   30.8510 H   0  0  0  0  0  0  0  0  0  0  0  0
   35.6250   29.5190   33.9270 C   0  0  0  0  0  3  0  0  0  0  0  0
   35.7200   29.9890   32.7130 C   0  0  0  0  0  3  0  0  0  0  0  0
   35.2430   31.9640   36.6270 C   0  0  0  0  0  0  0  0  0  0  0  0
   33.8620   31.9210   36.8690 C   0  0  0  0  0  0  0  0  0  0  0  0
   33.0830   31.0480   36.0970 C   0  0  0  0  0  0  0  0  0  0  0  0
   33.7700   30.3100   35.1650 N   0  0  0  0  0  0  0  0  0  0  0  0
   35.0700   30.3740   34.9610 C   0  0  0  0  0  0  0  0  0  0  0  0
   35.7950   31.2070   35.7020 N   0  0  0  0  0  0  0  0  0  0  0  0
   35.9280   32.6040   37.1700 H   0  0  0  0  0  0  0  0  0  0  0  0
   33.4620   32.5530   37.6290 H   0  0  0  0  0  0  0  0  0  0  0  0
   32.0350   30.9950   36.2590 H   0  0  0  0  0  0  0  0  0  0  0  0
  1 11  1  0  0  0  0
  2 23  1  0  0  0  0
  2  1  2  0  0  0  0
  3  2  1  0  0  0  0
  4  3  2  0  0  0  0
  4  5  1  0  0  0  0
  5  6  2  0  0  0  0
  6  1  1  0  0  0  0
  6 10  1  0  0  0  0
  7  3  1  0  0  0  0
  8  4  1  0  0  0  0
  9  5  1  0  0  0  0
 11 13  2  0  0  0  0
 12 11  2  0  0  0  0
 14 21  1  6  0  0  0
 14 19  1  0  0  0  0
 15 11  1  6  0  0  0
 15 16  1  0  0  0  0
 15 14  1  0  0  0  0
 16 18  1  0  0  0  0
 17 16  1  0  0  0  0
 18 19  1  0  0  0  0
 19 20  1  0  0  0  0
 22 21  1  0  0  0  0
 25 24  2  6  0  0  0
 25 28  1  0  0  0  0
 25 23  1  0  0  0  0
 26 27  1  0  0  0  0
 26 25  1  0  0  0  0
 29 28  1  0  0  0  0
 29 33  1  0  0  0  0
 30 29  1  0  0  0  0
 31 29  1  0  0  0  0
 32 38  1  0  0  0  0
 33 32  2  0  0  0  0
 34 35  1  0  0  0  0
 34 40  1  0  0  0  0
 35 41  1  0  0  0  0
 36 42  1  0  0  0  0
 36 35  2  0  0  0  0
 37 36  1  0  0  0  0
 38 37  2  0  0  0  0
 38 39  1  0  0  0  0
 39 34  2  0  0  0  0
M  END
>  <minimizedAffinity>
-5.87482834

$$$$

 OpenBabel03262520363D

 42 44  0  0  1  0  0  0  0  0999 V2000
   38.2590   24.7690   35.2700 C   0  0  0  0  0  0  0  0  0  0  0  0
   38.1930   25.3660   34.0020 C   0  0  0  0  0  0  0  0  0  0  0  0
   38.1870   26.7250   33.8520 C   0  0  0  0  0  0  0  0  0  0  0  0
   38.2450   27.5290   34.9670 C   0  0  0  0  0  0  0  0  0  0  0  0
   38.3090   26.9610   36.1960 C   0  0  0  0  0  0  0  0  0  0  0  0
   38.3180   25.6050   36.3950 C   0  0  0  0  0  0  0  0  0  0  0  0
   38.1340   27.1140   32.8400 H   0  0  0  0  0  0  0  0  0  0  0  0
   38.2350   28.5910   34.7570 H   0  0  0  0  0  0  0  0  0  0  0  0
   38.3520   27.6590   37.0230 H   0  0  0  0  0  0  0  0  0  0  0  0
   38.3750   25.2560   37.4130 H   0  0  0  0  0  0  0  0  0  0  0  0
   38.2820   23.0500   35.5300 S   0  0  0  0  0  0  0  0  0  0  0  0
   37.6050   22.6880   36.8060 O   0  0  0  0  0  0  0  0  0  0  0  0
   37.6090   22.3670   34.3410 O   0  0  0  0  0  0  0  0  0  0  0  0
   40.5490   22.7440   36.9420 C   0  0  2  0  0  3  0  0  0  0  0  0
   39.9230   22.4110   35.5680 C   0  0  2  0  0  3  0  0  0  0  0  0
   40.8910   23.1750   34.7000 C   0  0  0  0  0  3  0  0  0  0  0  0
   40.9180   22.8450   33.6550 H   0  0  0  0  0  0  0  0  0  0  0  0
   42.1440   23.1210   35.2910 O   0  0  0  0  0  0  0  0  0  0  0  0
   42.0010   22.6190   36.5670 C   0  0  0  0  0  3  0  0  0  0  0  0
   42.7030   23.0440   37.2950 H   0  0  0  0  0  0  0  0  0  0  0  0
   40.1540   21.8060   37.8880 O   0  0  0  0  0  0  0  0  0  0  0  0
   39.3700   22.1670   38.3860 H   0  0  0  0  0  0  0  0  0  0  0  0
   38.1400   24.4350   32.9950 O   0  0  0  0  0  0  0  0  0  0  0  0
   37.8690   23.6610   30.4720 O   0  0  0  0  0  0  0  0  0  0  0  0
   37.2200   24.5100   31.5720 P   0  0  1  0  0  0  0  0  0  0  0  0
   35.6220   24.0470   31.8690 O   0  0  0  0  0  0  0  0  0  0  0  0
   35.4470   23.9300   32.8180 H   0  0  0  0  0  0  0  0  0  0  0  0
   37.2170   26.0940   30.9260 O   0  0  0  0  0  0  0  0  0  0  0  0
   35.8920   26.5590   30.9310 C   0  0  0  0  0  0  0  0  0  0  0  0
   35.2170   25.7340   31.1450 H   0  0  0  0  0  0  0  0  0  0  0  0
   35.7390   26.9850   29.8970 H   0  0  0  0  0  0  0  0  0  0  0  0
   36.1310   28.9170   31.6080 C   0  0  0  0  0  3  0  0  0  0  0  0
   35.7110   27.7050   31.8510 C   0  0  0  0  0  3  0  0  0  0  0  0
   35.2750   30.6770   34.7030 C   0  0  0  0  0  0  0  0  0  0  0  0
   35.4650   32.0190   34.3400 C   0  0  0  0  0  0  0  0  0  0  0  0
   35.8850   32.2960   33.0310 C   0  0  0  0  0  0  0  0  0  0  0  0
   36.0700   31.2000   32.2250 N   0  0  0  0  0  0  0  0  0  0  0  0
   35.8830   29.9500   32.5970 C   0  0  0  0  0  0  0  0  0  0  0  0
   35.4850   29.7040   33.8410 N   0  0  0  0  0  0  0  0  0  0  0  0
   34.9530   30.3610   35.6880 H   0  0  0  0  0  0  0  0  0  0  0  0
   35.2830   32.7720   35.0730 H   0  0  0  0  0  0  0  0  0  0  0  0
   36.0360   33.3030   32.7290 H   0  0  0  0  0  0  0  0  0  0  0  0
  1 11  1  0  0  0  0
  1  6  1  0  0  0  0
  2  1  2  0  0  0  0
  3  2  1  0  0  0  0
  3  4  2  0  0  0  0
  4  5  1  0  0  0  0
  5  6  2  0  0  0  0
  5  9  1  0  0  0  0
  6 10  1  0  0  0  0
  7  3  1  0  0  0  0
  8  4  1  0  0  0  0
 11 12  2  0  0  0  0
 13 11  2  0  0  0  0
 14 21  1  1  0  0  0
 15 11  1  1  0  0  0
 15 14  1  0  0  0  0
 16 18  1  0  0  0  0
 16 15  1  0  0  0  0
 17 16  1  0  0  0  0
 18 19  1  0  0  0  0
 19 14  1  0  0  0  0
 19 20  1  0  0  0  0
 21 22  1  0  0  0  0
 23  2  1  0  0  0  0
 25 24  2  6  0  0  0
 25 26  1  0  0  0  0
 25 23  1  0  0  0  0
 26 27  1  0  0  0  0
 28 29  1  0  0  0  0
 28 25  1  0  0  0  0
 29 30  1  0  0  0  0
 29 33  1  0  0  0  0
 31 29  1  0  0  0  0
 32 33  2  0  0  0  0
 32 38  1  0  0  0  0
 34 40  1  0  0  0  0
 35 34  1  0  0  0  0
 35 41  1  0  0  0  0
 36 35  2  0  0  0  0
 37 38  2  0  0  0  0
 37 36  1  0  0  0  0
 38 39  1  0  0  0  0
 39 34  2  0  0  0  0
 42 36  1  0  0  0  0
M  END
>  <minimizedAffinity>
-5.62203264

$$$$

 OpenBabel03262520363D

 42 44  0  0  1  0  0  0  0  0999 V2000
   37.5370   23.3780   32.7840 C   0  0  0  0  0  0  0  0  0  0  0  0
   36.5570   24.1310   32.1210 C   0  0  0  0  0  0  0  0  0  0  0  0
   35.6230   23.5380   31.3170 C   0  0  0  0  0  0  0  0  0  0  0  0
   35.6420   22.1730   31.1510 C   0  0  0  0  0  0  0  0  0  0  0  0
   36.5870   21.4370   31.7870 C   0  0  0  0  0  0  0  0  0  0  0  0
   37.5410   21.9870   32.6020 C   0  0  0  0  0  0  0  0  0  0  0  0
   34.8960   24.1860   30.8370 H   0  0  0  0  0  0  0  0  0  0  0  0
   34.8690   21.7880   30.4990 H   0  0  0  0  0  0  0  0  0  0  0  0
   36.5370   20.3700   31.6060 H   0  0  0  0  0  0  0  0  0  0  0  0
   38.2440   21.3130   33.0640 H   0  0  0  0  0  0  0  0  0  0  0  0
   38.7450   24.0670   33.8280 S   0  0  0  0  0  0  0  0  0  0  0  0
   39.2780   23.0520   34.7790 O   0  0  0  0  0  0  0  0  0  0  0  0
   39.8630   24.6490   32.9640 O   0  0  0  0  0  0  0  0  0  0  0  0
   39.1830   26.5430   34.7790 C   0  0  2  0  0  3  0  0  0  0  0  0
   38.1160   25.4260   34.7560 C   0  0  2  0  0  3  0  0  0  0  0  0
   38.0440   25.1660   36.2390 C   0  0  0  0  0  3  0  0  0  0  0  0
   37.1220   24.6720   36.5680 H   0  0  0  0  0  0  0  0  0  0  0  0
   38.2530   26.3650   36.9030 O   0  0  0  0  0  0  0  0  0  0  0  0
   38.7000   27.2950   35.9900 C   0  0  0  0  0  3  0  0  0  0  0  0
   39.4180   28.0150   36.4010 H   0  0  0  0  0  0  0  0  0  0  0  0
   39.1140   27.2970   33.6130 O   0  0  0  0  0  0  0  0  0  0  0  0
   39.7870   26.9470   32.9670 H   0  0  0  0  0  0  0  0  0  0  0  0
   36.6690   25.4730   32.3860 O   0  0  0  0  0  0  0  0  0  0  0  0
   38.3590   26.6540   30.7150 O   0  0  0  0  0  0  0  0  0  0  0  0
   36.9310   26.7240   31.2710 P   0  0  1  0  0  0  0  0  0  0  0  0
   35.7710   26.6790   30.0410 O   0  0  0  0  0  0  0  0  0  0  0  0
   35.0710   26.0310   30.2250 H   0  0  0  0  0  0  0  0  0  0  0  0
   36.8560   28.2530   32.0340 O   0  0  0  0  0  0  0  0  0  0  0  0
   35.5890   28.3780   32.6250 C   0  0  0  0  0  0  0  0  0  0  0  0
   35.2930   27.4270   33.0590 H   0  0  0  0  0  0  0  0  0  0  0  0
   34.9120   28.6940   31.7780 H   0  0  0  0  0  0  0  0  0  0  0  0
   34.5470   29.7120   34.4160 C   0  0  0  0  0  3  0  0  0  0  0  0
   35.5390   29.4950   33.5960 C   0  0  0  0  0  3  0  0  0  0  0  0
   35.6800   32.7060   36.1960 C   0  0  0  0  0  0  0  0  0  0  0  0
   34.6220   32.9350   37.0880 C   0  0  0  0  0  0  0  0  0  0  0  0
   33.5330   32.0510   37.0640 C   0  0  0  0  0  0  0  0  0  0  0  0
   33.6200   31.0320   36.1480 N   0  0  0  0  0  0  0  0  0  0  0  0
   34.6290   30.8450   35.3210 C   0  0  0  0  0  0  0  0  0  0  0  0
   35.6530   31.6910   35.3570 N   0  0  0  0  0  0  0  0  0  0  0  0
   36.5630   33.3310   36.1380 H   0  0  0  0  0  0  0  0  0  0  0  0
   34.6880   33.7700   37.7480 H   0  0  0  0  0  0  0  0  0  0  0  0
   32.7190   32.2010   37.7280 H   0  0  0  0  0  0  0  0  0  0  0  0
  1 11  1  0  0  0  0
  2 23  1  0  0  0  0
  2  1  2  0  0  0  0
  3  2  1  0  0  0  0
  4  3  2  0  0  0  0
  4  5  1  0  0  0  0
  5  6  2  0  0  0  0
  6  1  1  0  0  0  0
  6 10  1  0  0  0  0
  7  3  1  0  0  0  0
  8  4  1  0  0  0  0
  9  5  1  0  0  0  0
 11 12  2  0  0  0  0
 13 11  2  0  0  0  0
 14 21  1  6  0  0  0
 14 19  1  0  0  0  0
 15 11  1  6  0  0  0
 15 14  1  0  0  0  0
 15 16  1  0  0  0  0
 16 17  1  0  0  0  0
 16 18  1  0  0  0  0
 19 20  1  0  0  0  0
 19 18  1  0  0  0  0
 22 21  1  0  0  0  0
 25 24  2  6  0  0  0
 25 28  1  0  0  0  0
 25 23  1  0  0  0  0
 26 27  1  0  0  0  0
 26 25  1  0  0  0  0
 28 29  1  0  0  0  0
 29 30  1  0  0  0  0
 29 33  1  0  0  0  0
 31 29  1  0  0  0  0
 32 38  1  0  0  0  0
 33 32  2  0  0  0  0
 34 35  1  0  0  0  0
 35 41  1  0  0  0  0
 36 35  2  0  0  0  0
 36 42  1  0  0  0  0
 37 36  1  0  0  0  0
 38 39  1  0  0  0  0
 38 37  2  0  0  0  0
 39 34  2  0  0  0  0
 40 34  1  0  0  0  0
M  END
>  <minimizedAffinity>
-5.58854389

$$$$

 OpenBabel03262520363D

 42 44  0  0  1  0  0  0  0  0999 V2000
   39.7080   26.6280   33.9520 C   0  0  0  0  0  0  0  0  0  0  0  0
   38.5900   26.6640   33.1050 C   0  0  0  0  0  0  0  0  0  0  0  0
   37.3460   26.9830   33.5770 C   0  0  0  0  0  0  0  0  0  0  0  0
   37.1840   27.2740   34.9120 C   0  0  0  0  0  0  0  0  0  0  0  0
   38.2590   27.2410   35.7380 C   0  0  0  0  0  0  0  0  0  0  0  0
   39.5220   26.9270   35.3100 C   0  0  0  0  0  0  0  0  0  0  0  0
   36.5300   26.9920   32.8630 H   0  0  0  0  0  0  0  0  0  0  0  0
   36.1690   27.5150   35.1990 H   0  0  0  0  0  0  0  0  0  0  0  0
   38.0500   27.4810   36.7730 H   0  0  0  0  0  0  0  0  0  0  0  0
   40.3090   26.9330   36.0470 H   0  0  0  0  0  0  0  0  0  0  0  0
   41.3160   26.2420   33.4150 S   0  0  0  0  0  0  0  0  0  0  0  0
   41.3220   25.0140   32.5720 O   0  0  0  0  0  0  0  0  0  0  0  0
   41.8730   27.4370   32.6440 O   0  0  0  0  0  0  0  0  0  0  0  0
   43.8460   26.3880   34.3110 C   0  0  2  0  0  3  0  0  0  0  0  0
   42.4210   25.9980   34.7650 C   0  0  2  0  0  3  0  0  0  0  0  0
   42.6840   24.5470   35.0790 C   0  0  0  0  0  3  0  0  0  0  0  0
   41.9520   24.0910   35.7550 H   0  0  0  0  0  0  0  0  0  0  0  0
   43.9770   24.4340   35.5650 O   0  0  0  0  0  0  0  0  0  0  0  0
   44.6310   25.6270   35.3460 C   0  0  0  0  0  3  0  0  0  0  0  0
   45.6990   25.5170   35.1230 H   0  0  0  0  0  0  0  0  0  0  0  0
   44.0200   27.7640   34.4060 O   0  0  0  0  0  0  0  0  0  0  0  0
   43.8450   28.1690   33.5130 H   0  0  0  0  0  0  0  0  0  0  0  0
   38.9140   26.3520   31.8090 O   0  0  0  0  0  0  0  0  0  0  0  0
   36.7300   25.1680   30.8760 O   0  0  0  0  0  0  0  0  0  0  0  0
   38.2620   25.1080   30.8570 P   0  0  1  0  0  0  0  0  0  0  0  0
   38.8780   25.1730   29.2840 O   0  0  0  0  0  0  0  0  0  0  0  0
   39.5930   25.8260   29.2010 H   0  0  0  0  0  0  0  0  0  0  0  0
   38.6250   23.5740   31.5210 O   0  0  0  0  0  0  0  0  0  0  0  0
   37.4930   23.1280   32.2220 C   0  0  0  0  0  0  0  0  0  0  0  0
   37.2060   22.1430   31.8640 H   0  0  0  0  0  0  0  0  0  0  0  0
   36.7050   23.9090   32.0110 H   0  0  0  0  0  0  0  0  0  0  0  0
   38.8630   23.1110   34.2700 C   0  0  0  0  0  3  0  0  0  0  0  0
   37.6970   23.1720   33.6880 C   0  0  0  0  0  3  0  0  0  0  0  0
   39.9270   22.7510   37.7560 C   0  0  0  0  0  0  0  0  0  0  0  0
   38.8720   23.3630   38.4500 C   0  0  0  0  0  0  0  0  0  0  0  0
   37.8080   23.8910   37.7030 C   0  0  0  0  0  0  0  0  0  0  0  0
   37.9140   23.7490   36.3420 N   0  0  0  0  0  0  0  0  0  0  0  0
   38.9200   23.1680   35.7200 C   0  0  0  0  0  0  0  0  0  0  0  0
   39.9210   22.6730   36.4420 N   0  0  0  0  0  0  0  0  0  0  0  0
   40.7910   22.3150   38.2420 H   0  0  0  0  0  0  0  0  0  0  0  0
   38.9220   23.4030   39.5140 H   0  0  0  0  0  0  0  0  0  0  0  0
   36.9960   24.3600   38.2020 H   0  0  0  0  0  0  0  0  0  0  0  0
  1  6  1  0  0  0  0
  2  3  1  0  0  0  0
  2  1  2  0  0  0  0
  3  4  2  0  0  0  0
  4  8  1  0  0  0  0
  4  5  1  0  0  0  0
  5  9  1  0  0  0  0
  6  5  2  0  0  0  0
  6 10  1  0  0  0  0
  7  3  1  0  0  0  0
 11  1  1  0  0  0  0
 12 11  2  0  0  0  0
 13 11  2  0  0  0  0
 14 21  1  1  0  0  0
 14 15  1  0  0  0  0
 14 19  1  0  0  0  0
 15 11  1  6  0  0  0
 15 16  1  0  0  0  0
 16 18  1  0  0  0  0
 16 17  1  0  0  0  0
 19 18  1  0  0  0  0
 20 19  1  0  0  0  0
 22 21  1  0  0  0  0
 23  2  1  0  0  0  0
 25 24  2  6  0  0  0
 25 28  1  0  0  0  0
 25 23  1  0  0  0  0
 26 25  1  0  0  0  0
 27 26  1  0  0  0  0
 28 29  1  0  0  0  0
 29 33  1  0  0  0  0
 30 29  1  0  0  0  0
 31 29  1  0  0  0  0
 32 38  1  0  0  0  0
 33 32  2  0  0  0  0
 34 40  1  0  0  0  0
 34 35  1  0  0  0  0
 35 41  1  0  0  0  0
 36 42  1  0  0  0  0
 36 35  2  0  0  0  0
 37 36  1  0  0  0  0
 38 37  2  0  0  0  0
 38 39  1  0  0  0  0
 39 34  2  0  0  0  0
M  END
>  <minimizedAffinity>
-5.56411552

$$$$

 OpenBabel03262520363D

 42 44  0  0  1  0  0  0  0  0999 V2000
   40.8280   25.1930   34.1610 C   0  0  0  0  0  0  0  0  0  0  0  0
   40.1180   25.6840   33.0550 C   0  0  0  0  0  0  0  0  0  0  0  0
   40.5040   26.8260   32.4090 C   0  0  0  0  0  0  0  0  0  0  0  0
   41.6120   27.5120   32.8490 C   0  0  0  0  0  0  0  0  0  0  0  0
   42.3040   27.0440   33.9180 C   0  0  0  0  0  0  0  0  0  0  0  0
   41.9560   25.9060   34.5960 C   0  0  0  0  0  0  0  0  0  0  0  0
   39.9050   27.1440   31.5610 H   0  0  0  0  0  0  0  0  0  0  0  0
   41.8450   28.4030   32.2810 H   0  0  0  0  0  0  0  0  0  0  0  0
   43.1620   27.6390   34.2040 H   0  0  0  0  0  0  0  0  0  0  0  0
   42.5750   25.6180   35.4290 H   0  0  0  0  0  0  0  0  0  0  0  0
   40.3990   23.7430   35.0190 S   0  0  0  0  0  0  0  0  0  0  0  0
   39.6300   22.8090   34.1490 O   0  0  0  0  0  0  0  0  0  0  0  0
   41.6770   23.0840   35.5350 O   0  0  0  0  0  0  0  0  0  0  0  0
   39.0430   22.7480   37.1160 C   0  0  2  0  0  3  0  0  0  0  0  0
   39.4380   24.0880   36.4550 C   0  0  2  0  0  3  0  0  0  0  0  0
   38.0510   24.5940   36.1490 C   0  0  0  0  0  3  0  0  0  0  0  0
   37.9900   25.6780   35.9960 H   0  0  0  0  0  0  0  0  0  0  0  0
   37.1980   24.1640   37.1530 O   0  0  0  0  0  0  0  0  0  0  0  0
   37.8630   23.2290   37.9170 C   0  0  0  0  0  3  0  0  0  0  0  0
   37.2180   22.4320   38.3090 H   0  0  0  0  0  0  0  0  0  0  0  0
   40.0820   22.2820   37.9130 O   0  0  0  0  0  0  0  0  0  0  0  0
   40.6200   21.6290   37.3870 H   0  0  0  0  0  0  0  0  0  0  0  0
   39.0430   24.8920   32.7380 O   0  0  0  0  0  0  0  0  0  0  0  0
   37.5250   26.3290   31.1030 O   0  0  0  0  0  0  0  0  0  0  0  0
   37.4790   25.4000   32.3230 P   0  0  1  0  0  0  0  0  0  0  0  0
   36.4670   24.0700   32.0670 O   0  0  0  0  0  0  0  0  0  0  0  0
   36.8960   23.2340   32.3140 H   0  0  0  0  0  0  0  0  0  0  0  0
   36.8000   26.3710   33.5570 O   0  0  0  0  0  0  0  0  0  0  0  0
   36.7120   27.6850   33.0710 C   0  0  0  0  0  0  0  0  0  0  0  0
   36.1350   27.6970   32.1510 H   0  0  0  0  0  0  0  0  0  0  0  0
   37.7840   28.0000   32.9120 H   0  0  0  0  0  0  0  0  0  0  0  0
   35.3460   29.5870   33.8410 C   0  0  0  0  0  3  0  0  0  0  0  0
   36.1840   28.6190   34.0930 C   0  0  0  0  0  3  0  0  0  0  0  0
   35.2620   31.9820   36.6120 C   0  0  0  0  0  0  0  0  0  0  0  0
   33.9110   31.9520   36.9850 C   0  0  0  0  0  0  0  0  0  0  0  0
   33.0480   31.1040   36.2760 C   0  0  0  0  0  0  0  0  0  0  0  0
   33.6300   30.3760   35.2670 N   0  0  0  0  0  0  0  0  0  0  0  0
   34.9060   30.4280   34.9400 C   0  0  0  0  0  0  0  0  0  0  0  0
   35.7110   31.2370   35.6230 N   0  0  0  0  0  0  0  0  0  0  0  0
   36.0060   32.6020   37.0970 H   0  0  0  0  0  0  0  0  0  0  0  0
   33.5940   32.5730   37.7920 H   0  0  0  0  0  0  0  0  0  0  0  0
   32.0190   31.0610   36.5370 H   0  0  0  0  0  0  0  0  0  0  0  0
  1  6  1  0  0  0  0
  1 11  1  0  0  0  0
  2  1  2  0  0  0  0
  3  4  2  0  0  0  0
  3  2  1  0  0  0  0
  4  5  1  0  0  0  0
  5  9  1  0  0  0  0
  5  6  2  0  0  0  0
  6 10  1  0  0  0  0
  7  3  1  0  0  0  0
  8  4  1  0  0  0  0
 11 13  2  0  0  0  0
 12 11  2  0  0  0  0
 14 21  1  1  0  0  0
 14 19  1  0  0  0  0
 15 11  1  6  0  0  0
 15 14  1  0  0  0  0
 16 15  1  0  0  0  0
 16 18  1  0  0  0  0
 17 16  1  0  0  0  0
 18 19  1  0  0  0  0
 19 20  1  0  0  0  0
 22 21  1  0  0  0  0
 23  2  1  0  0  0  0
 25 24  2  6  0  0  0
 25 23  1  0  0  0  0
 25 28  1  0  0  0  0
 26 27  1  0  0  0  0
 26 25  1  0  0  0  0
 29 28  1  0  0  0  0
 29 33  1  0  0  0  0
 30 29  1  0  0  0  0
 31 29  1  0  0  0  0
 32 33  2  0  0  0  0
 32 38  1  0  0  0  0
 34 35  1  0  0  0  0
 34 40  1  0  0  0  0
 35 41  1  0  0  0  0
 36 42  1  0  0  0  0
 36 35  2  0  0  0  0
 37 36  1  0  0  0  0
 38 37  2  0  0  0  0
 38 39  1  0  0  0  0
 39 34  2  0  0  0  0
M  END
>  <minimizedAffinity>
-5.56325054

$$$$

 OpenBabel03262520363D

 42 44  0  0  1  0  0  0  0  0999 V2000
   38.4420   25.4620   33.8620 C   0  0  0  0  0  0  0  0  0  0  0  0
   37.3500   26.3360   33.7510 C   0  0  0  0  0  0  0  0  0  0  0  0
   37.1850   27.3850   34.6120 C   0  0  0  0  0  0  0  0  0  0  0  0
   38.1060   27.5920   35.6120 C   0  0  0  0  0  0  0  0  0  0  0  0
   39.1650   26.7510   35.7270 C   0  0  0  0  0  0  0  0  0  0  0  0
   39.3720   25.6880   34.8880 C   0  0  0  0  0  0  0  0  0  0  0  0
   36.3160   28.0190   34.4640 H   0  0  0  0  0  0  0  0  0  0  0  0
   37.8990   28.4430   36.2470 H   0  0  0  0  0  0  0  0  0  0  0  0
   39.8450   26.9790   36.5380 H   0  0  0  0  0  0  0  0  0  0  0  0
   40.2470   25.0840   35.0630 H   0  0  0  0  0  0  0  0  0  0  0  0
   38.7170   24.1170   32.7940 S   0  0  0  0  0  0  0  0  0  0  0  0
   39.0760   24.5810   31.4250 O   0  0  0  0  0  0  0  0  0  0  0  0
   39.8230   23.2440   33.3840 O   0  0  0  0  0  0  0  0  0  0  0  0
   37.6620   21.6940   33.2830 C   0  0  2  0  0  3  0  0  0  0  0  0
   37.3060   23.0700   32.6770 C   0  0  2  0  0  3  0  0  0  0  0  0
   37.0040   22.6140   31.2720 C   0  0  0  0  0  3  0  0  0  0  0  0
   36.3840   23.3100   30.6940 H   0  0  0  0  0  0  0  0  0  0  0  0
   36.4400   21.3490   31.3350 O   0  0  0  0  0  0  0  0  0  0  0  0
   36.5960   20.8680   32.6160 C   0  0  0  0  0  3  0  0  0  0  0  0
   36.7530   19.7830   32.6700 H   0  0  0  0  0  0  0  0  0  0  0  0
   37.5300   21.7300   34.6660 O   0  0  0  0  0  0  0  0  0  0  0  0
   38.4240   21.9110   35.0670 H   0  0  0  0  0  0  0  0  0  0  0  0
   36.5230   25.9990   32.7080 O   0  0  0  0  0  0  0  0  0  0  0  0
   37.4370   27.5750   30.7790 O   0  0  0  0  0  0  0  0  0  0  0  0
   36.1610   26.9340   31.3400 P   0  0  1  0  0  0  0  0  0  0  0  0
   35.3570   26.0050   30.1780 O   0  0  0  0  0  0  0  0  0  0  0  0
   35.1190   25.1260   30.5160 H   0  0  0  0  0  0  0  0  0  0  0  0
   35.1720   28.2670   31.7510 O   0  0  0  0  0  0  0  0  0  0  0  0
   35.9610   29.4270   31.6800 C   0  0  0  0  0  0  0  0  0  0  0  0
   35.7520   29.9540   30.7520 H   0  0  0  0  0  0  0  0  0  0  0  0
   37.0240   29.0490   31.7320 H   0  0  0  0  0  0  0  0  0  0  0  0
   34.8670   30.1170   33.7770 C   0  0  0  0  0  3  0  0  0  0  0  0
   35.7970   30.2830   32.8770 C   0  0  0  0  0  3  0  0  0  0  0  0
   35.6310   32.7930   36.1580 C   0  0  0  0  0  0  0  0  0  0  0  0
   34.5880   32.6670   37.0870 C   0  0  0  0  0  0  0  0  0  0  0  0
   33.6350   31.6580   36.8780 C   0  0  0  0  0  0  0  0  0  0  0  0
   33.8300   30.8840   35.7610 N   0  0  0  0  0  0  0  0  0  0  0  0
   34.8220   31.0290   34.9060 C   0  0  0  0  0  0  0  0  0  0  0  0
   35.7170   31.9890   35.1190 N   0  0  0  0  0  0  0  0  0  0  0  0
   36.4140   33.5380   36.2320 H   0  0  0  0  0  0  0  0  0  0  0  0
   34.5600   33.3410   37.9120 H   0  0  0  0  0  0  0  0  0  0  0  0
   32.8350   31.5400   37.5660 H   0  0  0  0  0  0  0  0  0  0  0  0
  1  6  1  0  0  0  0
  2  1  2  0  0  0  0
  2  3  1  0  0  0  0
  3  4  2  0  0  0  0
  4  5  1  0  0  0  0
  4  8  1  0  0  0  0
  5  9  1  0  0  0  0
  6 10  1  0  0  0  0
  6  5  2  0  0  0  0
  7  3  1  0  0  0  0
 11 13  2  0  0  0  0
 11  1  1  0  0  0  0
 12 11  2  0  0  0  0
 14 21  1  1  0  0  0
 15 11  1  6  0  0  0
 15 14  1  0  0  0  0
 16 18  1  0  0  0  0
 16 15  1  0  0  0  0
 17 16  1  0  0  0  0
 18 19  1  0  0  0  0
 19 20  1  0  0  0  0
 19 14  1  0  0  0  0
 21 22  1  0  0  0  0
 23  2  1  0  0  0  0
 25 24  2  6  0  0  0
 25 28  1  0  0  0  0
 25 23  1  0  0  0  0
 26 27  1  0  0  0  0
 26 25  1  0  0  0  0
 29 31  1  0  0  0  0
 29 28  1  0  0  0  0
 29 33  1  0  0  0  0
 30 29  1  0  0  0  0
 32 38  1  0  0  0  0
 33 32  2  0  0  0  0
 34 40  1  0  0  0  0
 34 35  1  0  0  0  0
 35 41  1  0  0  0  0
 36 35  2  0  0  0  0
 36 42  1  0  0  0  0
 37 36  1  0  0  0  0
 38 39  1  0  0  0  0
 38 37  2  0  0  0  0
 39 34  2  0  0  0  0
M  END
>  <minimizedAffinity>
-5.53644753

$$$$

 OpenBabel03262520363D

 42 44  0  0  1  0  0  0  0  0999 V2000
   37.8120   27.0930   33.1240 C   0  0  0  0  0  0  0  0  0  0  0  0
   39.2110   26.9960   33.1200 C   0  0  0  0  0  0  0  0  0  0  0  0
   39.9350   27.0600   34.2780 C   0  0  0  0  0  0  0  0  0  0  0  0
   39.2800   27.2220   35.4770 C   0  0  0  0  0  0  0  0  0  0  0  0
   37.9270   27.3170   35.4900 C   0  0  0  0  0  0  0  0  0  0  0  0
   37.1610   27.2590   34.3560 C   0  0  0  0  0  0  0  0  0  0  0  0
   41.0140   26.9770   34.1960 H   0  0  0  0  0  0  0  0  0  0  0  0
   39.9280   27.2630   36.3420 H   0  0  0  0  0  0  0  0  0  0  0  0
   37.4850   27.4450   36.4710 H   0  0  0  0  0  0  0  0  0  0  0  0
   36.0930   27.3400   34.4760 H   0  0  0  0  0  0  0  0  0  0  0  0
   36.8320   27.0080   31.6890 S   0  0  0  0  0  0  0  0  0  0  0  0
   35.4860   27.6040   31.9200 O   0  0  0  0  0  0  0  0  0  0  0  0
   37.5620   27.7270   30.5560 O   0  0  0  0  0  0  0  0  0  0  0  0
   35.1090   25.0340   31.0890 C   0  0  2  0  0  3  0  0  0  0  0  0
   36.6210   25.3510   31.1320 C   0  0  2  0  0  3  0  0  0  0  0  0
   37.0300   24.3130   32.1480 C   0  0  0  0  0  3  0  0  0  0  0  0
   38.0950   24.0550   32.1270 H   0  0  0  0  0  0  0  0  0  0  0  0
   36.2250   23.1970   31.9790 O   0  0  0  0  0  0  0  0  0  0  0  0
   35.1890   23.5320   31.1330 C   0  0  0  0  0  3  0  0  0  0  0  0
   34.2430   23.0270   31.3640 H   0  0  0  0  0  0  0  0  0  0  0  0
   34.5530   25.5100   29.9080 O   0  0  0  0  0  0  0  0  0  0  0  0
   34.1530   26.4060   30.0820 H   0  0  0  0  0  0  0  0  0  0  0  0
   39.7140   26.8360   31.8530 O   0  0  0  0  0  0  0  0  0  0  0  0
   40.9310   25.6600   29.8090 O   0  0  0  0  0  0  0  0  0  0  0  0
   40.8730   25.7090   31.3410 P   0  0  1  0  0  0  0  0  0  0  0  0
   42.3830   26.0540   32.0190 O   0  0  0  0  0  0  0  0  0  0  0  0
   42.3300   26.7600   32.6850 H   0  0  0  0  0  0  0  0  0  0  0  0
   40.4250   24.1210   31.7900 O   0  0  0  0  0  0  0  0  0  0  0  0
   41.3820   23.6440   32.7000 C   0  0  0  0  0  0  0  0  0  0  0  0
   42.2880   24.2390   32.6220 H   0  0  0  0  0  0  0  0  0  0  0  0
   41.5460   22.5680   32.4000 H   0  0  0  0  0  0  0  0  0  0  0  0
   39.5820   23.5170   34.3780 C   0  0  0  0  0  3  0  0  0  0  0  0
   40.8510   23.5820   34.0810 C   0  0  0  0  0  3  0  0  0  0  0  0
   37.6980   23.7340   37.5120 C   0  0  0  0  0  0  0  0  0  0  0  0
   38.6370   23.2830   38.4510 C   0  0  0  0  0  0  0  0  0  0  0  0
   39.9090   22.9110   37.9890 C   0  0  0  0  0  0  0  0  0  0  0  0
   40.1040   23.0310   36.6350 N   0  0  0  0  0  0  0  0  0  0  0  0
   39.1980   23.4580   35.7780 C   0  0  0  0  0  0  0  0  0  0  0  0
   37.9980   23.8070   36.2320 N   0  0  0  0  0  0  0  0  0  0  0  0
   36.6920   24.0420   37.7690 H   0  0  0  0  0  0  0  0  0  0  0  0
   38.3480   23.2400   39.4760 H   0  0  0  0  0  0  0  0  0  0  0  0
   40.6390   22.5660   38.6780 H   0  0  0  0  0  0  0  0  0  0  0  0
  1  6  1  0  0  0  0
  2  1  2  0  0  0  0
  2  3  1  0  0  0  0
  3  4  2  0  0  0  0
  4  5  1  0  0  0  0
  4  8  1  0  0  0  0
  5  9  1  0  0  0  0
  6 10  1  0  0  0  0
  6  5  2  0  0  0  0
  7  3  1  0  0  0  0
 11 12  2  0  0  0  0
 11  1  1  0  0  0  0
 13 11  2  0  0  0  0
 14 21  1  6  0  0  0
 14 15  1  0  0  0  0
 14 19  1  0  0  0  0
 15 11  1  1  0  0  0
 15 16  1  0  0  0  0
 17 16  1  0  0  0  0
 18 16  1  0  0  0  0
 19 20  1  0  0  0  0
 19 18  1  0  0  0  0
 21 22  1  0  0  0  0
 23  2  1  0  0  0  0
 25 24  2  6  0  0  0
 25 28  1  0  0  0  0
 25 23  1  0  0  0  0
 25 26  1  0  0  0  0
 26 27  1  0  0  0  0
 28 29  1  0  0  0  0
 29 33  1  0  0  0  0
 30 29  1  0  0  0  0
 31 29  1  0  0  0  0
 32 38  1  0  0  0  0
 33 32  2  0  0  0  0
 34 40  1  0  0  0  0
 34 35  1  0  0  0  0
 35 41  1  0  0  0  0
 36 35  2  0  0  0  0
 36 42  1  0  0  0  0
 37 36  1  0  0  0  0
 38 39  1  0  0  0  0
 38 37  2  0  0  0  0
 39 34  2  0  0  0  0
M  END
>  <minimizedAffinity>
-5.52696323

$$$$

 OpenBabel03262520363D

 42 44  0  0  1  0  0  0  0  0999 V2000
   40.0350   23.4180   36.5180 C   0  0  0  0  0  0  0  0  0  0  0  0
   39.0400   24.2840   36.0400 C   0  0  0  0  0  0  0  0  0  0  0  0
   37.9360   24.5860   36.7890 C   0  0  0  0  0  0  0  0  0  0  0  0
   37.7940   24.0300   38.0390 C   0  0  0  0  0  0  0  0  0  0  0  0
   38.7510   23.1910   38.5090 C   0  0  0  0  0  0  0  0  0  0  0  0
   39.8730   22.8600   37.7950 C   0  0  0  0  0  0  0  0  0  0  0  0
   37.2100   25.2640   36.3540 H   0  0  0  0  0  0  0  0  0  0  0  0
   36.8930   24.3220   38.5620 H   0  0  0  0  0  0  0  0  0  0  0  0
   38.5680   22.7940   39.4990 H   0  0  0  0  0  0  0  0  0  0  0  0
   40.5740   22.1880   38.2610 H   0  0  0  0  0  0  0  0  0  0  0  0
   41.4660   23.0020   35.6220 S   0  0  0  0  0  0  0  0  0  0  0  0
   41.8840   21.5980   35.8950 O   0  0  0  0  0  0  0  0  0  0  0  0
   41.1890   23.2100   34.1340 O   0  0  0  0  0  0  0  0  0  0  0  0
   42.9700   25.0930   34.8530 C   0  0  2  0  0  3  0  0  0  0  0  0
   42.8140   24.0700   36.0010 C   0  0  2  0  0  3  0  0  0  0  0  0
   44.1640   23.4070   35.8850 C   0  0  0  0  0  3  0  0  0  0  0  0
   44.4880   22.8790   36.7880 H   0  0  0  0  0  0  0  0  0  0  0  0
   45.0860   24.3630   35.4870 O   0  0  0  0  0  0  0  0  0  0  0  0
   44.4000   25.4940   35.0980 C   0  0  0  0  0  3  0  0  0  0  0  0
   44.8720   26.0410   34.2720 H   0  0  0  0  0  0  0  0  0  0  0  0
   42.0780   26.1450   35.0240 O   0  0  0  0  0  0  0  0  0  0  0  0
   41.2640   25.9640   34.4790 H   0  0  0  0  0  0  0  0  0  0  0  0
   39.3250   24.7550   34.7830 O   0  0  0  0  0  0  0  0  0  0  0  0
   39.1710   27.3650   35.2350 O   0  0  0  0  0  0  0  0  0  0  0  0
   38.9750   26.2920   34.1570 P   0  0  1  0  0  0  0  0  0  0  0  0
   39.9050   26.6020   32.7800 O   0  0  0  0  0  0  0  0  0  0  0  0
   40.3990   25.8170   32.4900 H   0  0  0  0  0  0  0  0  0  0  0  0
   37.3220   26.4220   33.7380 O   0  0  0  0  0  0  0  0  0  0  0  0
   37.1700   25.9390   32.4280 C   0  0  0  0  0  0  0  0  0  0  0  0
   38.0680   26.1540   31.8530 H   0  0  0  0  0  0  0  0  0  0  0  0
   36.2640   26.4820   32.0300 H   0  0  0  0  0  0  0  0  0  0  0  0
   36.5670   23.8240   31.3170 C   0  0  0  0  0  3  0  0  0  0  0  0
   36.8010   24.5050   32.4050 C   0  0  0  0  0  3  0  0  0  0  0  0
   34.9000   20.6880   32.2160 C   0  0  0  0  0  0  0  0  0  0  0  0
   35.6950   19.7350   31.5620 C   0  0  0  0  0  0  0  0  0  0  0  0
   36.7960   20.1890   30.8200 C   0  0  0  0  0  0  0  0  0  0  0  0
   36.9840   21.5490   30.8130 N   0  0  0  0  0  0  0  0  0  0  0  0
   36.2170   22.4190   31.4390 C   0  0  0  0  0  0  0  0  0  0  0  0
   35.1770   21.9730   32.1380 N   0  0  0  0  0  0  0  0  0  0  0  0
   34.0310   20.4380   32.8110 H   0  0  0  0  0  0  0  0  0  0  0  0
   35.4310   18.7060   31.6540 H   0  0  0  0  0  0  0  0  0  0  0  0
   37.4140   19.4900   30.3150 H   0  0  0  0  0  0  0  0  0  0  0  0
  1  6  1  0  0  0  0
  2  1  2  0  0  0  0
  2  3  1  0  0  0  0
  3  4  2  0  0  0  0
  4  5  1  0  0  0  0
  4  8  1  0  0  0  0
  5  9  1  0  0  0  0
  6 10  1  0  0  0  0
  6  5  2  0  0  0  0
  7  3  1  0  0  0  0
 11 12  2  0  0  0  0
 11  1  1  0  0  0  0
 13 11  2  0  0  0  0
 14 21  1  1  0  0  0
 14 19  1  0  0  0  0
 14 15  1  0  0  0  0
 15 11  1  6  0  0  0
 16 15  1  0  0  0  0
 16 17  1  0  0  0  0
 18 16  1  0  0  0  0
 19 18  1  0  0  0  0
 20 19  1  0  0  0  0
 22 21  1  0  0  0  0
 23  2  1  0  0  0  0
 25 23  1  0  0  0  0
 25 24  2  1  0  0  0
 26 25  1  0  0  0  0
 27 26  1  0  0  0  0
 28 25  1  0  0  0  0
 29 28  1  0  0  0  0
 30 29  1  0  0  0  0
 31 29  1  0  0  0  0
 32 38  1  0  0  0  0
 32 33  2  0  0  0  0
 33 29  1  0  0  0  0
 34 40  1  0  0  0  0
 35 41  1  0  0  0  0
 35 34  2  0  0  0  0
 36 35  1  0  0  0  0
 37 36  2  0  0  0  0
 37 38  1  0  0  0  0
 38 39  2  0  0  0  0
 39 34  1  0  0  0  0
 42 36  1  0  0  0  0
M  END
>  <minimizedAffinity>
-5.48333693

$$$$
