
 OpenBabel03272509423D

 38 40  0  0  1  0  0  0  0  0999 V2000
   37.0850   30.9480   49.0340 C   0  0  0  0  0  0  0  0  0  0  0  0
   36.8040   31.8760   50.0360 C   0  0  0  0  0  0  0  0  0  0  0  0
   37.3940   33.1390   50.0560 C   0  0  0  0  0  0  0  0  0  0  0  0
   38.2950   33.4860   49.0400 C   0  0  0  0  0  0  0  0  0  0  0  0
   38.5590   32.5660   48.0680 C   0  0  0  0  0  0  0  0  0  0  0  0
   37.9520   31.3210   48.0860 C   0  0  0  0  0  0  0  0  0  0  0  0
   36.0970   31.5840   50.8120 H   0  0  0  0  0  0  0  0  0  0  0  0
   37.1310   33.8130   50.8770 H   0  0  0  0  0  0  0  0  0  0  0  0
   38.7330   34.4810   49.0970 H   0  0  0  0  0  0  0  0  0  0  0  0
   39.2720   32.9660   47.3470 H   0  0  0  0  0  0  0  0  0  0  0  0
   36.4990   29.6270   49.0330 C   0  0  2  0  0  0  0  0  0  0  0  0
   36.9930   29.0740   48.1410 H   0  0  0  0  0  0  0  0  0  0  0  0
   33.6180   29.9670   46.8460 C   0  0  0  0  0  0  0  0  0  0  0  0
   32.8790   28.8230   47.0810 C   0  0  0  0  0  0  0  0  0  0  0  0
   33.3310   27.9440   48.0500 C   0  0  0  0  0  0  0  0  0  0  0  0
   34.4900   28.2340   48.7370 N   0  0  0  0  0  0  0  0  0  0  0  0
   35.1530   29.3400   48.4660 C   0  0  0  0  0  0  0  0  0  0  0  0
   34.7240   30.2100   47.5250 N   0  0  0  0  0  0  0  0  0  0  0  0
   33.2260   30.6290   46.0750 H   0  0  0  0  0  0  0  0  0  0  0  0
   31.9850   28.5810   46.5540 H   0  0  0  0  0  0  0  0  0  0  0  0
   32.7860   27.0280   48.2760 H   0  0  0  0  0  0  0  0  0  0  0  0
   36.9780   28.8740   49.9630 O   0  0  0  0  0  0  0  0  0  0  0  0
   37.0240   27.8800   49.8530 H   0  0  0  0  0  0  0  0  0  0  0  0
   38.3600   30.4270   47.0200 C   0  0  0  0  0  3  0  0  0  0  0  0
   39.0020   30.8270   45.9220 C   0  0  0  0  0  3  0  0  0  0  0  0
   39.5070   30.0100   44.8030 C   0  0  0  0  0  0  0  0  0  0  0  0
   39.2220   28.9460   44.9480 H   0  0  0  0  0  0  0  0  0  0  0  0
   40.6280   30.0230   44.7800 H   0  0  0  0  0  0  0  0  0  0  0  0
   38.9060   30.6650   43.2400 S   0  0  0  0  0  0  0  0  0  0  0  0
   40.8580   29.4280   41.7070 C   0  0  1  0  0  3  0  0  0  0  0  0
   40.3270   30.7800   42.1420 C   0  0  1  0  0  3  0  0  0  0  0  0
   39.9790   31.3540   40.7800 C   0  0  0  0  0  3  0  0  0  0  0  0
   39.0170   30.8930   40.4720 H   0  0  0  0  0  0  0  0  0  0  0  0
   40.9520   30.9260   39.8980 O   0  0  0  0  0  0  0  0  0  0  0  0
   41.6110   29.8530   40.4600 C   0  0  0  0  0  3  0  0  0  0  0  0
   42.6210   30.2020   40.7790 H   0  0  0  0  0  0  0  0  0  0  0  0
   41.6620   28.8310   42.6470 O   0  0  0  0  0  0  0  0  0  0  0  0
   41.0710   28.2700   43.2400 H   0  0  0  0  0  0  0  0  0  0  0  0
  1  2  1  0  0  0  0
  2  3  2  0  0  0  0
  2  7  1  0  0  0  0
  3  8  1  0  0  0  0
  4  9  1  0  0  0  0
  4  3  1  0  0  0  0
  5  6  1  0  0  0  0
  5  4  2  0  0  0  0
  6  1  2  0  0  0  0
 10  5  1  0  0  0  0
 11 12  1  6  0  0  0
 11  1  1  0  0  0  0
 11 22  1  0  0  0  0
 13 14  2  0  0  0  0
 13 18  1  0  0  0  0
 14 15  1  0  0  0  0
 15 21  1  0  0  0  0
 15 16  2  0  0  0  0
 17 16  1  0  0  0  0
 17 11  1  0  0  0  0
 18 17  2  0  0  0  0
 19 13  1  0  0  0  0
 20 14  1  0  0  0  0
 23 22  1  0  0  0  0
 24  6  1  0  0  0  0
 25 24  2  0  0  0  0
 26 27  1  0  0  0  0
 26 25  1  0  0  0  0
 28 26  1  0  0  0  0
 29 26  1  0  0  0  0
 30 31  1  0  0  0  0
 30 37  1  1  0  0  0
 31 29  1  1  0  0  0
 32 31  1  0  0  0  0
 33 32  1  0  0  0  0
 34 35  1  0  0  0  0
 34 32  1  0  0  0  0
 35 36  1  0  0  0  0
 35 30  1  0  0  0  0
 37 38  1  0  0  0  0
M  END
>  <minimizedAffinity>
-6.1666379

>  <minimizedRMSD>
0.996635318

$$$$
