
 OpenBabel03272509413D

 38 40  0  0  1  0  0  0  0  0999 V2000
   37.0660   30.9320   49.0680 C   0  0  0  0  0  0  0  0  0  0  0  0
   36.7960   31.8660   50.0670 C   0  0  0  0  0  0  0  0  0  0  0  0
   37.3940   33.1250   50.0780 C   0  0  0  0  0  0  0  0  0  0  0  0
   38.2930   33.4620   49.0560 C   0  0  0  0  0  0  0  0  0  0  0  0
   38.5460   32.5360   48.0880 C   0  0  0  0  0  0  0  0  0  0  0  0
   37.9310   31.2940   48.1140 C   0  0  0  0  0  0  0  0  0  0  0  0
   36.0910   31.5820   50.8480 H   0  0  0  0  0  0  0  0  0  0  0  0
   37.1400   33.8040   50.8980 H   0  0  0  0  0  0  0  0  0  0  0  0
   38.7380   34.4550   49.1060 H   0  0  0  0  0  0  0  0  0  0  0  0
   39.2580   32.9280   47.3610 H   0  0  0  0  0  0  0  0  0  0  0  0
   36.4720   29.6140   49.0760 C   0  0  2  0  0  0  0  0  0  0  0  0
   36.9730   29.0480   48.1970 H   0  0  0  0  0  0  0  0  0  0  0  0
   33.6130   29.9570   46.8600 C   0  0  0  0  0  0  0  0  0  0  0  0
   32.8700   28.8150   47.0880 C   0  0  0  0  0  0  0  0  0  0  0  0
   33.3110   27.9350   48.0620 C   0  0  0  0  0  0  0  0  0  0  0  0
   34.4630   28.2240   48.7610 N   0  0  0  0  0  0  0  0  0  0  0  0
   35.1310   29.3290   48.4960 C   0  0  0  0  0  0  0  0  0  0  0  0
   34.7130   30.2000   47.5490 N   0  0  0  0  0  0  0  0  0  0  0  0
   33.2300   30.6200   46.0850 H   0  0  0  0  0  0  0  0  0  0  0  0
   31.9810   28.5740   46.5530 H   0  0  0  0  0  0  0  0  0  0  0  0
   32.7630   27.0210   48.2830 H   0  0  0  0  0  0  0  0  0  0  0  0
   36.9340   28.8710   50.0210 O   0  0  0  0  0  0  0  0  0  0  0  0
   36.9750   27.8750   49.9240 H   0  0  0  0  0  0  0  0  0  0  0  0
   38.3270   30.3940   47.0500 C   0  0  0  0  0  3  0  0  0  0  0  0
   38.7880   30.8010   45.8660 C   0  0  0  0  0  3  0  0  0  0  0  0
   39.2650   29.9840   44.7350 C   0  0  0  0  0  0  0  0  0  0  0  0
   38.4010   29.5880   44.1580 H   0  0  0  0  0  0  0  0  0  0  0  0
   39.8200   29.0830   45.1050 H   0  0  0  0  0  0  0  0  0  0  0  0
   40.3790   30.9480   43.7050 S   0  0  0  0  0  0  0  0  0  0  0  0
   39.6690   31.7500   41.1460 C   0  0  1  0  0  3  0  0  0  0  0  0
   39.9940   30.5380   41.9950 C   0  0  1  0  0  3  0  0  0  0  0  0
   41.1970   30.0170   41.2250 C   0  0  0  0  0  3  0  0  0  0  0  0
   42.0620   30.6510   41.5110 H   0  0  0  0  0  0  0  0  0  0  0  0
   40.9430   30.2290   39.8840 O   0  0  0  0  0  0  0  0  0  0  0  0
   39.9330   31.1630   39.7720 C   0  0  0  0  0  3  0  0  0  0  0  0
   39.0090   30.6280   39.4510 H   0  0  0  0  0  0  0  0  0  0  0  0
   38.3790   32.1940   41.3060 O   0  0  0  0  0  0  0  0  0  0  0  0
   38.3820   32.8710   42.0520 H   0  0  0  0  0  0  0  0  0  0  0  0
  1 11  1  0  0  0  0
  1  2  1  0  0  0  0
  2  3  2  0  0  0  0
  2  7  1  0  0  0  0
  3  8  1  0  0  0  0
  4  9  1  0  0  0  0
  4  3  1  0  0  0  0
  5  6  1  0  0  0  0
  5  4  2  0  0  0  0
  6  1  2  0  0  0  0
 10  5  1  0  0  0  0
 11 12  1  6  0  0  0
 11 22  1  0  0  0  0
 13 14  2  0  0  0  0
 13 18  1  0  0  0  0
 14 15  1  0  0  0  0
 15 21  1  0  0  0  0
 15 16  2  0  0  0  0
 17 16  1  0  0  0  0
 17 11  1  0  0  0  0
 18 17  2  0  0  0  0
 19 13  1  0  0  0  0
 20 14  1  0  0  0  0
 23 22  1  0  0  0  0
 24  6  1  0  0  0  0
 25 24  2  0  0  0  0
 26 28  1  0  0  0  0
 26 25  1  0  0  0  0
 27 26  1  0  0  0  0
 29 26  1  0  0  0  0
 30 37  1  6  0  0  0
 30 31  1  0  0  0  0
 31 29  1  1  0  0  0
 32 33  1  0  0  0  0
 32 31  1  0  0  0  0
 34 32  1  0  0  0  0
 35 34  1  0  0  0  0
 35 30  1  0  0  0  0
 36 35  1  0  0  0  0
 37 38  1  0  0  0  0
M  END
>  <minimizedAffinity>
-5.66264677

>  <minimizedRMSD>
0.867112875

$$$$
