
 OpenBabel03272509423D

 38 40  0  0  1  0  0  0  0  0999 V2000
   37.1110   30.9340   49.0260 C   0  0  0  0  0  0  0  0  0  0  0  0
   36.8650   31.8830   50.0180 C   0  0  0  0  0  0  0  0  0  0  0  0
   37.4740   33.1370   50.0030 C   0  0  0  0  0  0  0  0  0  0  0  0
   38.3580   33.4540   48.9630 C   0  0  0  0  0  0  0  0  0  0  0  0
   38.5880   32.5130   48.0020 C   0  0  0  0  0  0  0  0  0  0  0  0
   37.9630   31.2770   48.0540 C   0  0  0  0  0  0  0  0  0  0  0  0
   36.1710   31.6150   50.8130 H   0  0  0  0  0  0  0  0  0  0  0  0
   37.2390   33.8290   50.8180 H   0  0  0  0  0  0  0  0  0  0  0  0
   38.8120   34.4430   48.9930 H   0  0  0  0  0  0  0  0  0  0  0  0
   39.2910   32.8900   47.2590 H   0  0  0  0  0  0  0  0  0  0  0  0
   36.5050   29.6220   49.0610 C   0  0  2  0  0  0  0  0  0  0  0  0
   36.9990   29.0350   48.1900 H   0  0  0  0  0  0  0  0  0  0  0  0
   33.6310   29.9650   46.8650 C   0  0  0  0  0  0  0  0  0  0  0  0
   32.8890   28.8240   47.1000 C   0  0  0  0  0  0  0  0  0  0  0  0
   33.3360   27.9450   48.0710 C   0  0  0  0  0  0  0  0  0  0  0  0
   34.4930   28.2330   48.7610 N   0  0  0  0  0  0  0  0  0  0  0  0
   35.1600   29.3370   48.4900 C   0  0  0  0  0  0  0  0  0  0  0  0
   34.7360   30.2070   47.5460 N   0  0  0  0  0  0  0  0  0  0  0  0
   33.2430   30.6280   46.0920 H   0  0  0  0  0  0  0  0  0  0  0  0
   31.9960   28.5830   46.5710 H   0  0  0  0  0  0  0  0  0  0  0  0
   32.7880   27.0310   48.2970 H   0  0  0  0  0  0  0  0  0  0  0  0
   36.9650   28.8920   50.0180 O   0  0  0  0  0  0  0  0  0  0  0  0
   36.9970   27.8950   49.9390 H   0  0  0  0  0  0  0  0  0  0  0  0
   38.3340   30.3600   46.9950 C   0  0  0  0  0  3  0  0  0  0  0  0
   38.7080   30.7470   45.7750 C   0  0  0  0  0  3  0  0  0  0  0  0
   39.1520   29.9150   44.6420 C   0  0  0  0  0  0  0  0  0  0  0  0
   38.2720   29.5170   44.0910 H   0  0  0  0  0  0  0  0  0  0  0  0
   39.7120   29.0160   45.0080 H   0  0  0  0  0  0  0  0  0  0  0  0
   40.2450   30.8610   43.5730 S   0  0  0  0  0  0  0  0  0  0  0  0
   40.7000   30.8170   40.8370 C   0  0  1  0  0  3  0  0  0  0  0  0
   40.3930   29.9410   42.0330 C   0  0  1  0  0  3  0  0  0  0  0  0
   41.6170   29.0400   41.9960 C   0  0  0  0  0  3  0  0  0  0  0  0
   42.4560   29.6200   42.4320 H   0  0  0  0  0  0  0  0  0  0  0  0
   41.9090   28.8090   40.6660 O   0  0  0  0  0  0  0  0  0  0  0  0
   41.2720   29.7660   39.9040 C   0  0  0  0  0  3  0  0  0  0  0  0
   40.4150   29.2740   39.3860 H   0  0  0  0  0  0  0  0  0  0  0  0
   39.5930   31.4480   40.3250 O   0  0  0  0  0  0  0  0  0  0  0  0
   39.5030   32.3350   40.7970 H   0  0  0  0  0  0  0  0  0  0  0  0
  1 11  1  0  0  0  0
  1  2  1  0  0  0  0
  2  7  1  0  0  0  0
  3  2  2  0  0  0  0
  3  8  1  0  0  0  0
  4  9  1  0  0  0  0
  4  3  1  0  0  0  0
  5  6  1  0  0  0  0
  5  4  2  0  0  0  0
  6  1  2  0  0  0  0
 10  5  1  0  0  0  0
 11 12  1  6  0  0  0
 11 22  1  0  0  0  0
 13 14  2  0  0  0  0
 13 18  1  0  0  0  0
 14 15  1  0  0  0  0
 15 21  1  0  0  0  0
 15 16  2  0  0  0  0
 17 16  1  0  0  0  0
 17 11  1  0  0  0  0
 18 17  2  0  0  0  0
 19 13  1  0  0  0  0
 20 14  1  0  0  0  0
 23 22  1  0  0  0  0
 24  6  1  0  0  0  0
 25 24  2  0  0  0  0
 26 28  1  0  0  0  0
 26 25  1  0  0  0  0
 27 26  1  0  0  0  0
 29 26  1  0  0  0  0
 30 37  1  6  0  0  0
 30 31  1  0  0  0  0
 31 29  1  1  0  0  0
 32 31  1  0  0  0  0
 32 33  1  0  0  0  0
 34 32  1  0  0  0  0
 35 34  1  0  0  0  0
 35 30  1  0  0  0  0
 36 35  1  0  0  0  0
 37 38  1  0  0  0  0
M  END
>  <minimizedAffinity>
-5.95840502

>  <minimizedRMSD>
0.578352511

$$$$
