
 OpenBabel03262522273D

 46 49  0  0  1  0  0  0  0  0999 V2000
   36.6610   30.3200   49.8490 S   0  0  0  0  0  0  0  0  0  0  0  0
   39.0700   32.8650   47.8500 C   0  0  0  0  0  0  0  0  0  0  0  0
   39.3630   32.1200   46.6940 C   0  0  0  0  0  0  0  0  0  0  0  0
   38.7970   30.8750   46.6000 C   0  0  0  0  0  0  0  0  0  0  0  0
   37.9970   30.4470   47.6240 N   0  0  0  0  0  0  0  0  0  0  0  0
   37.7520   31.1640   48.6720 C   0  0  0  0  0  0  0  0  0  0  0  0
   38.2780   32.4200   48.8450 N   0  0  0  0  0  0  0  0  0  0  0  0
   39.4740   33.8530   48.0060 H   0  0  0  0  0  0  0  0  0  0  0  0
   39.0080   30.2860   45.7230 H   0  0  0  0  0  0  0  0  0  0  0  0
   40.1710   32.6820   45.7720 O   0  0  0  0  0  0  0  0  0  0  0  0
   40.1240   32.2150   44.4590 C   0  0  0  0  0  0  0  0  0  0  0  0
   40.6580   31.0300   43.9670 C   0  0  0  0  0  0  0  0  0  0  0  0
   40.5140   30.7450   42.6600 C   0  0  0  0  0  0  0  0  0  0  0  0
   39.8490   31.6240   41.8500 C   0  0  0  0  0  0  0  0  0  0  0  0
   39.3210   32.8060   42.3640 C   0  0  0  0  0  0  0  0  0  0  0  0
   39.4740   33.0780   43.6810 N   0  0  0  0  0  0  0  0  0  0  0  0
   41.1490   30.4640   44.7670 H   0  0  0  0  0  0  0  0  0  0  0  0
   40.9570   29.7990   42.3430 H   0  0  0  0  0  0  0  0  0  0  0  0
   39.7450   31.3720   40.8000 H   0  0  0  0  0  0  0  0  0  0  0  0
   38.5860   33.7570   41.4450 C   0  0  0  0  0  0  0  0  0  0  0  0
   38.2100   34.5800   42.0520 H   0  0  0  0  0  0  0  0  0  0  0  0
   39.3420   34.1080   40.6860 H   0  0  0  0  0  0  0  0  0  0  0  0
   37.7860   33.2080   40.9150 H   0  0  0  0  0  0  0  0  0  0  0  0
   34.9770   30.8690   49.3830 C   0  0  0  0  0  0  0  0  0  0  0  0
   34.3320   30.9110   50.2600 H   0  0  0  0  0  0  0  0  0  0  0  0
   35.0490   31.8590   48.8480 H   0  0  0  0  0  0  0  0  0  0  0  0
   33.4530   28.7260   50.1930 F   0  0  0  0  0  0  0  0  0  0  0  0
   33.7370   28.8690   48.8630 C   0  0  0  0  0  0  0  0  0  0  0  0
   34.4900   29.9070   48.3350 C   0  0  0  0  0  0  0  0  0  0  0  0
   34.7440   30.0070   47.0070 C   0  0  0  0  0  0  0  0  0  0  0  0
   34.2380   29.0420   46.1210 C   0  0  0  0  0  0  0  0  0  0  0  0
   33.4890   28.0040   46.6230 C   0  0  0  0  0  0  0  0  0  0  0  0
   33.2400   27.9200   47.9920 C   0  0  0  0  0  0  0  0  0  0  0  0
   35.3340   30.8400   46.6740 H   0  0  0  0  0  0  0  0  0  0  0  0
   34.4820   29.1930   45.0980 H   0  0  0  0  0  0  0  0  0  0  0  0
   33.1610   27.3400   45.8570 H   0  0  0  0  0  0  0  0  0  0  0  0
   32.4870   26.8630   48.4250 O   0  0  0  0  0  0  0  0  0  0  0  0
   30.1510   27.4470   48.8370 C   0  0  2  0  0  0  0  0  0  0  0  0
   31.1900   26.5280   48.2870 C   0  0  1  0  0  0  0  0  0  0  0  0
   30.7050   26.4170   46.8350 C   0  0  0  0  0  0  0  0  0  0  0  0
   31.5720   26.2550   46.1530 H   0  0  0  0  0  0  0  0  0  0  0  0
   29.9850   27.5590   46.5840 O   0  0  0  0  0  0  0  0  0  0  0  0
   30.0430   28.4140   47.6500 C   0  0  0  0  0  0  0  0  0  0  0  0
   29.1730   29.0730   47.7180 H   0  0  0  0  0  0  0  0  0  0  0  0
   30.5050   28.2110   49.9140 O   0  0  0  0  0  0  0  0  0  0  0  0
   30.9270   29.0890   49.6480 H   0  0  0  0  0  0  0  0  0  0  0  0
  2  8  1  0  0  0  0
  2  7  1  0  0  0  0
  3  2  2  0  0  0  0
  4  3  1  0  0  0  0
  4  5  2  0  0  0  0
  5  6  1  0  0  0  0
  6  7  2  0  0  0  0
  6  1  1  0  0  0  0
  9  4  1  0  0  0  0
 10  3  1  0  0  0  0
 11 10  1  0  0  0  0
 12 11  1  0  0  0  0
 12 17  1  0  0  0  0
 13 12  2  0  0  0  0
 14 15  2  0  0  0  0
 14 13  1  0  0  0  0
 15 16  1  0  0  0  0
 16 11  2  0  0  0  0
 18 13  1  0  0  0  0
 19 14  1  0  0  0  0
 20 21  1  0  0  0  0
 20 15  1  0  0  0  0
 22 20  1  0  0  0  0
 23 20  1  0  0  0  0
 24  1  1  0  0  0  0
 24 25  1  0  0  0  0
 26 24  1  0  0  0  0
 28 27  1  0  0  0  0
 29 28  1  0  0  0  0
 29 24  1  0  0  0  0
 30 29  2  0  0  0  0
 31 32  2  0  0  0  0
 31 30  1  0  0  0  0
 32 33  1  0  0  0  0
 33 37  1  0  0  0  0
 33 28  2  0  0  0  0
 34 30  1  0  0  0  0
 35 31  1  0  0  0  0
 36 32  1  0  0  0  0
 38 45  1  1  0  0  0
 39 37  1  6  0  0  0
 39 38  1  0  0  0  0
 40 39  1  0  0  0  0
 41 40  1  0  0  0  0
 42 40  1  0  0  0  0
 42 43  1  0  0  0  0
 43 44  1  0  0  0  0
 43 38  1  0  0  0  0
 46 45  1  0  0  0  0
M  END
>  <minimizedAffinity>
-6.34974909

>  <minimizedRMSD>
2.15580034

$$$$
