
 OpenBabel03272503393D

 29 31  0  0  1  0  0  0  0  0999 V2000
   36.9890   27.8740   34.1250 C   0  0  0  0  0  0  0  0  0  0  0  0
   36.7110   28.0840   32.8110 C   0  0  0  0  0  0  0  0  0  0  0  0
   35.7870   29.1340   32.8120 C   0  0  0  0  0  0  0  0  0  0  0  0
   35.5440   29.5110   34.0740 N   0  0  0  0  0  0  0  0  0  0  0  0
   36.2800   28.7410   34.8900 N   0  0  0  0  0  0  0  0  0  0  0  0
   37.1440   27.5270   31.9900 H   0  0  0  0  0  0  0  0  0  0  0  0
   35.3920   29.5050   31.8550 H   0  0  0  0  0  0  0  0  0  0  0  0
   38.4230   24.9240   35.9420 C   0  0  0  0  0  0  0  0  0  0  0  0
   37.5070   25.8480   35.4720 C   0  0  0  0  0  0  0  0  0  0  0  0
   37.9050   26.8760   34.6470 C   0  0  0  0  0  0  0  0  0  0  0  0
   39.2200   26.9360   34.3230 N   0  0  0  0  0  0  0  0  0  0  0  0
   40.1080   26.0150   34.7950 C   0  0  0  0  0  0  0  0  0  0  0  0
   39.7280   25.0280   35.5880 N   0  0  0  0  0  0  0  0  0  0  0  0
   36.4410   25.8570   35.6950 H   0  0  0  0  0  0  0  0  0  0  0  0
   41.1690   26.0640   34.5330 H   0  0  0  0  0  0  0  0  0  0  0  0
   37.8460   23.9570   36.7620 O   0  0  0  0  0  0  0  0  0  0  0  0
   38.1770   23.7930   38.1190 C   0  0  0  0  0  0  0  0  0  0  0  0
   39.4780   23.3390   38.2870 F   0  0  0  0  0  0  0  0  0  0  0  0
   37.2790   22.9340   38.6920 F   0  0  0  0  0  0  0  0  0  0  0  0
   38.0430   25.0190   38.7460 F   0  0  0  0  0  0  0  0  0  0  0  0
   34.9730   31.1750   35.7760 C   0  0  2  0  0  3  0  0  0  0  0  0
   34.6320   30.5730   34.4060 C   0  0  1  0  0  3  0  0  0  0  0  0
   34.8400   31.8010   33.5610 C   0  0  0  0  0  3  0  0  0  0  0  0
   35.9460   31.8460   33.3480 H   0  0  0  0  0  0  0  0  0  0  0  0
   34.4320   32.8880   34.3030 O   0  0  0  0  0  0  0  0  0  0  0  0
   34.2480   32.5150   35.6090 C   0  0  0  0  0  3  0  0  0  0  0  0
   33.1560   32.3130   35.8130 H   0  0  0  0  0  0  0  0  0  0  0  0
   36.3450   31.4010   35.7770 O   0  0  0  0  0  0  0  0  0  0  0  0
   36.5550   32.3800   35.6740 H   0  0  0  0  0  0  0  0  0  0  0  0
  1 10  1  0  0  0  0
  1  5  2  0  0  0  0
  2  3  2  0  0  0  0
  2  1  1  0  0  0  0
  3  4  1  0  0  0  0
  4  5  1  0  0  0  0
  6  2  1  0  0  0  0
  7  3  1  0  0  0  0
  8 16  1  0  0  0  0
  9 14  1  0  0  0  0
  9  8  2  0  0  0  0
 10  9  1  0  0  0  0
 11 10  2  0  0  0  0
 11 12  1  0  0  0  0
 12 13  2  0  0  0  0
 13  8  1  0  0  0  0
 15 12  1  0  0  0  0
 16 17  1  0  0  0  0
 17 18  1  0  0  0  0
 17 19  1  0  0  0  0
 17 20  1  0  0  0  0
 21 28  1  6  0  0  0
 22  4  1  6  0  0  0
 22 21  1  0  0  0  0
 23 25  1  0  0  0  0
 23 22  1  0  0  0  0
 24 23  1  0  0  0  0
 25 26  1  0  0  0  0
 26 21  1  0  0  0  0
 26 27  1  0  0  0  0
 29 28  1  0  0  0  0
M  END
>  <minimizedAffinity>
-5.23450422

$$$$

 OpenBabel03272503393D

 29 31  0  0  1  0  0  0  0  0999 V2000
   36.7800   27.3480   33.5520 C   0  0  0  0  0  0  0  0  0  0  0  0
   36.5140   27.7590   32.2840 C   0  0  0  0  0  0  0  0  0  0  0  0
   35.9970   29.0500   32.4380 C   0  0  0  0  0  0  0  0  0  0  0  0
   35.9670   29.3660   33.7390 N   0  0  0  0  0  0  0  0  0  0  0  0
   36.4470   28.3230   34.4330 N   0  0  0  0  0  0  0  0  0  0  0  0
   36.6880   27.1720   31.3930 H   0  0  0  0  0  0  0  0  0  0  0  0
   35.6960   29.6190   31.5450 H   0  0  0  0  0  0  0  0  0  0  0  0
   38.3950   24.5550   35.4650 C   0  0  0  0  0  0  0  0  0  0  0  0
   37.8760   25.8020   35.1640 C   0  0  0  0  0  0  0  0  0  0  0  0
   37.3360   26.0590   33.9230 C   0  0  0  0  0  0  0  0  0  0  0  0
   37.3380   25.0430   33.0250 N   0  0  0  0  0  0  0  0  0  0  0  0
   37.8520   23.8200   33.3410 C   0  0  0  0  0  0  0  0  0  0  0  0
   38.3720   23.5720   34.5310 N   0  0  0  0  0  0  0  0  0  0  0  0
   37.8450   26.6570   35.8380 H   0  0  0  0  0  0  0  0  0  0  0  0
   37.8530   23.0010   32.6160 H   0  0  0  0  0  0  0  0  0  0  0  0
   38.8980   24.4760   36.7620 O   0  0  0  0  0  0  0  0  0  0  0  0
   38.1870   23.9090   37.8350 C   0  0  0  0  0  0  0  0  0  0  0  0
   37.0610   23.2190   37.4090 F   0  0  0  0  0  0  0  0  0  0  0  0
   37.8520   24.9010   38.7160 F   0  0  0  0  0  0  0  0  0  0  0  0
   39.0300   23.0310   38.4940 F   0  0  0  0  0  0  0  0  0  0  0  0
   33.9580   30.6140   34.3660 C   0  0  2  0  0  3  0  0  0  0  0  0
   35.4850   30.6330   34.2200 C   0  0  1  0  0  3  0  0  0  0  0  0
   35.8470   30.8820   35.6590 C   0  0  0  0  0  3  0  0  0  0  0  0
   35.8340   29.8720   36.1610 H   0  0  0  0  0  0  0  0  0  0  0  0
   34.8850   31.7140   36.1910 O   0  0  0  0  0  0  0  0  0  0  0  0
   33.8190   31.7950   35.3330 C   0  0  0  0  0  3  0  0  0  0  0  0
   33.8880   32.7300   34.7040 H   0  0  0  0  0  0  0  0  0  0  0  0
   33.6400   29.4400   35.0400 O   0  0  0  0  0  0  0  0  0  0  0  0
   33.3880   29.6230   35.9970 H   0  0  0  0  0  0  0  0  0  0  0  0
  1 10  1  0  0  0  0
  1  5  2  0  0  0  0
  2  3  2  0  0  0  0
  2  1  1  0  0  0  0
  3  4  1  0  0  0  0
  4  5  1  0  0  0  0
  6  2  1  0  0  0  0
  7  3  1  0  0  0  0
  8 16  1  0  0  0  0
  9  8  1  0  0  0  0
  9 14  1  0  0  0  0
 10  9  2  0  0  0  0
 11 12  2  0  0  0  0
 11 10  1  0  0  0  0
 12 13  1  0  0  0  0
 13  8  2  0  0  0  0
 15 12  1  0  0  0  0
 16 17  1  0  0  0  0
 17 20  1  0  0  0  0
 17 19  1  0  0  0  0
 18 17  1  0  0  0  0
 21 28  1  1  0  0  0
 21 26  1  0  0  0  0
 22  4  1  1  0  0  0
 22 21  1  0  0  0  0
 22 23  1  0  0  0  0
 23 24  1  0  0  0  0
 23 25  1  0  0  0  0
 26 25  1  0  0  0  0
 27 26  1  0  0  0  0
 28 29  1  0  0  0  0
M  END
>  <minimizedAffinity>
-5.20918989

$$$$

 OpenBabel03272503393D

 29 31  0  0  1  0  0  0  0  0999 V2000
   34.8220   30.0910   34.1510 C   0  0  0  0  0  0  0  0  0  0  0  0
   33.4720   29.9400   34.0870 C   0  0  0  0  0  0  0  0  0  0  0  0
   32.9630   31.0790   34.7210 C   0  0  0  0  0  0  0  0  0  0  0  0
   33.9780   31.8510   35.1320 N   0  0  0  0  0  0  0  0  0  0  0  0
   35.1260   31.2500   34.7850 N   0  0  0  0  0  0  0  0  0  0  0  0
   32.9630   29.1010   33.6310 H   0  0  0  0  0  0  0  0  0  0  0  0
   31.8740   31.2050   34.8070 H   0  0  0  0  0  0  0  0  0  0  0  0
   37.2790   27.2780   33.8160 C   0  0  0  0  0  0  0  0  0  0  0  0
   36.3460   28.1370   34.3690 C   0  0  0  0  0  0  0  0  0  0  0  0
   35.8020   29.1600   33.6230 C   0  0  0  0  0  0  0  0  0  0  0  0
   36.2210   29.2790   32.3390 N   0  0  0  0  0  0  0  0  0  0  0  0
   37.1400   28.4210   31.8110 C   0  0  0  0  0  0  0  0  0  0  0  0
   37.6640   27.4400   32.5260 N   0  0  0  0  0  0  0  0  0  0  0  0
   35.9700   28.0960   35.3900 H   0  0  0  0  0  0  0  0  0  0  0  0
   37.4770   28.5180   30.7750 H   0  0  0  0  0  0  0  0  0  0  0  0
   37.7200   26.3070   34.7120 O   0  0  0  0  0  0  0  0  0  0  0  0
   38.7530   26.5220   35.6420 C   0  0  0  0  0  0  0  0  0  0  0  0
   38.2730   26.9980   36.8540 F   0  0  0  0  0  0  0  0  0  0  0  0
   39.6620   27.3890   35.0990 F   0  0  0  0  0  0  0  0  0  0  0  0
   39.3990   25.3170   35.8550 F   0  0  0  0  0  0  0  0  0  0  0  0
   33.8130   32.8900   37.3410 C   0  0  2  0  0  3  0  0  0  0  0  0
   33.7770   33.0970   35.8220 C   0  0  1  0  0  3  0  0  0  0  0  0
   34.9520   34.0270   35.6910 C   0  0  0  0  0  3  0  0  0  0  0  0
   35.8660   33.3690   35.6530 H   0  0  0  0  0  0  0  0  0  0  0  0
   34.9670   34.8350   36.8080 O   0  0  0  0  0  0  0  0  0  0  0  0
   34.1030   34.3380   37.7490 C   0  0  0  0  0  3  0  0  0  0  0  0
   33.1150   34.8840   37.7060 H   0  0  0  0  0  0  0  0  0  0  0  0
   34.9360   32.1130   37.6080 O   0  0  0  0  0  0  0  0  0  0  0  0
   35.6770   32.6650   38.0070 H   0  0  0  0  0  0  0  0  0  0  0  0
  1  5  2  0  0  0  0
  2  1  1  0  0  0  0
  2  3  2  0  0  0  0
  3  7  1  0  0  0  0
  3  4  1  0  0  0  0
  5  4  1  0  0  0  0
  6  2  1  0  0  0  0
  8  9  1  0  0  0  0
  8 16  1  0  0  0  0
  9 14  1  0  0  0  0
 10  1  1  0  0  0  0
 10  9  2  0  0  0  0
 11 10  1  0  0  0  0
 12 11  2  0  0  0  0
 12 13  1  0  0  0  0
 13  8  2  0  0  0  0
 15 12  1  0  0  0  0
 16 17  1  0  0  0  0
 17 20  1  0  0  0  0
 17 18  1  0  0  0  0
 19 17  1  0  0  0  0
 21 28  1  6  0  0  0
 21 26  1  0  0  0  0
 22  4  1  6  0  0  0
 22 21  1  0  0  0  0
 23 22  1  0  0  0  0
 23 25  1  0  0  0  0
 24 23  1  0  0  0  0
 25 26  1  0  0  0  0
 27 26  1  0  0  0  0
 28 29  1  0  0  0  0
M  END
>  <minimizedAffinity>
-5.20031691

$$$$

 OpenBabel03272503393D

 29 31  0  0  1  0  0  0  0  0999 V2000
   37.1920   26.6520   33.5380 C   0  0  0  0  0  0  0  0  0  0  0  0
   37.0200   25.5940   32.7020 C   0  0  0  0  0  0  0  0  0  0  0  0
   37.7500   24.5590   33.2960 C   0  0  0  0  0  0  0  0  0  0  0  0
   38.3170   25.0040   34.4250 N   0  0  0  0  0  0  0  0  0  0  0  0
   37.9780   26.2920   34.5820 N   0  0  0  0  0  0  0  0  0  0  0  0
   36.4350   25.6110   31.7920 H   0  0  0  0  0  0  0  0  0  0  0  0
   37.7780   23.5720   32.8100 H   0  0  0  0  0  0  0  0  0  0  0  0
   35.4830   29.9360   34.1350 C   0  0  0  0  0  0  0  0  0  0  0  0
   36.0080   28.6780   34.3660 C   0  0  0  0  0  0  0  0  0  0  0  0
   36.6230   27.9760   33.3530 C   0  0  0  0  0  0  0  0  0  0  0  0
   36.6870   28.5710   32.1370 N   0  0  0  0  0  0  0  0  0  0  0  0
   36.1640   29.8130   31.9290 C   0  0  0  0  0  0  0  0  0  0  0  0
   35.5720   30.4880   32.9000 N   0  0  0  0  0  0  0  0  0  0  0  0
   35.9900   28.1450   35.3160 H   0  0  0  0  0  0  0  0  0  0  0  0
   36.2150   30.2930   30.9470 H   0  0  0  0  0  0  0  0  0  0  0  0
   34.9000   30.4970   35.2700 O   0  0  0  0  0  0  0  0  0  0  0  0
   35.4060   31.6390   35.9170 C   0  0  0  0  0  0  0  0  0  0  0  0
   35.0770   32.8080   35.2450 F   0  0  0  0  0  0  0  0  0  0  0  0
   36.7620   31.5100   36.0440 F   0  0  0  0  0  0  0  0  0  0  0  0
   34.8680   31.6860   37.1910 F   0  0  0  0  0  0  0  0  0  0  0  0
   38.7200   24.3080   36.7360 C   0  0  2  0  0  3  0  0  0  0  0  0
   39.1350   24.1710   35.2650 C   0  0  1  0  0  3  0  0  0  0  0  0
   38.8470   22.7050   35.0840 C   0  0  0  0  0  3  0  0  0  0  0  0
   37.7450   22.6310   34.8570 H   0  0  0  0  0  0  0  0  0  0  0  0
   39.1530   22.0730   36.2700 O   0  0  0  0  0  0  0  0  0  0  0  0
   39.3400   23.0070   37.2570 C   0  0  0  0  0  3  0  0  0  0  0  0
   40.4400   23.2140   37.4020 H   0  0  0  0  0  0  0  0  0  0  0  0
   37.3350   24.1920   36.7680 O   0  0  0  0  0  0  0  0  0  0  0  0
   37.0500   23.2950   37.1250 H   0  0  0  0  0  0  0  0  0  0  0  0
  1  5  2  0  0  0  0
  2  3  2  0  0  0  0
  2  1  1  0  0  0  0
  3  4  1  0  0  0  0
  4  5  1  0  0  0  0
  6  2  1  0  0  0  0
  7  3  1  0  0  0  0
  8  9  1  0  0  0  0
  8 16  1  0  0  0  0
  9 14  1  0  0  0  0
 10  1  1  0  0  0  0
 10  9  2  0  0  0  0
 11 10  1  0  0  0  0
 12 11  2  0  0  0  0
 12 13  1  0  0  0  0
 13  8  2  0  0  0  0
 15 12  1  0  0  0  0
 16 17  1  0  0  0  0
 17 19  1  0  0  0  0
 17 20  1  0  0  0  0
 18 17  1  0  0  0  0
 21 28  1  6  0  0  0
 21 26  1  0  0  0  0
 22  4  1  6  0  0  0
 22 21  1  0  0  0  0
 23 22  1  0  0  0  0
 23 25  1  0  0  0  0
 24 23  1  0  0  0  0
 25 26  1  0  0  0  0
 26 27  1  0  0  0  0
 28 29  1  0  0  0  0
M  END
>  <minimizedAffinity>
-5.18246937

$$$$

 OpenBabel03272503393D

 29 31  0  0  1  0  0  0  0  0999 V2000
   37.0630   24.7780   32.4530 C   0  0  0  0  0  0  0  0  0  0  0  0
   36.0320   24.3570   31.6750 C   0  0  0  0  0  0  0  0  0  0  0  0
   35.7140   25.4690   30.8870 C   0  0  0  0  0  0  0  0  0  0  0  0
   36.5280   26.4850   31.2010 N   0  0  0  0  0  0  0  0  0  0  0  0
   37.3630   26.0680   32.1650 N   0  0  0  0  0  0  0  0  0  0  0  0
   35.5960   23.3670   31.7040 H   0  0  0  0  0  0  0  0  0  0  0  0
   34.8950   25.3940   30.1560 H   0  0  0  0  0  0  0  0  0  0  0  0
   38.6950   23.6260   35.6280 C   0  0  0  0  0  0  0  0  0  0  0  0
   38.0350   24.4320   34.7170 C   0  0  0  0  0  0  0  0  0  0  0  0
   37.7520   23.9760   33.4490 C   0  0  0  0  0  0  0  0  0  0  0  0
   38.1460   22.7150   33.1430 N   0  0  0  0  0  0  0  0  0  0  0  0
   38.7940   21.9350   34.0540 C   0  0  0  0  0  0  0  0  0  0  0  0
   39.0670   22.3720   35.2720 N   0  0  0  0  0  0  0  0  0  0  0  0
   37.6940   25.4500   34.9000 H   0  0  0  0  0  0  0  0  0  0  0  0
   39.1110   20.9180   33.8060 H   0  0  0  0  0  0  0  0  0  0  0  0
   38.8970   24.2490   36.8570 O   0  0  0  0  0  0  0  0  0  0  0  0
   38.3210   23.7980   38.0590 C   0  0  0  0  0  0  0  0  0  0  0  0
   37.1920   23.0230   37.8370 F   0  0  0  0  0  0  0  0  0  0  0  0
   38.0280   24.8810   38.8420 F   0  0  0  0  0  0  0  0  0  0  0  0
   39.2640   23.0390   38.7300 F   0  0  0  0  0  0  0  0  0  0  0  0
   35.8330   28.8110   31.5030 C   0  0  2  0  0  3  0  0  0  0  0  0
   36.4500   27.7700   30.5610 C   0  0  1  0  0  3  0  0  0  0  0  0
   37.8000   28.4070   30.3730 C   0  0  0  0  0  3  0  0  0  0  0  0
   38.4220   28.0830   31.2560 H   0  0  0  0  0  0  0  0  0  0  0  0
   37.6170   29.7730   30.3690 O   0  0  0  0  0  0  0  0  0  0  0  0
   36.3510   30.0710   30.8030 C   0  0  0  0  0  3  0  0  0  0  0  0
   35.6650   30.2530   29.9260 H   0  0  0  0  0  0  0  0  0  0  0  0
   36.4840   28.6730   32.7250 O   0  0  0  0  0  0  0  0  0  0  0  0
   37.1390   29.4230   32.8780 H   0  0  0  0  0  0  0  0  0  0  0  0
  1 10  1  0  0  0  0
  2  6  1  0  0  0  0
  2  1  1  0  0  0  0
  3  4  1  0  0  0  0
  3  2  2  0  0  0  0
  4  5  1  0  0  0  0
  5  1  2  0  0  0  0
  7  3  1  0  0  0  0
  8 16  1  0  0  0  0
  9 14  1  0  0  0  0
  9  8  2  0  0  0  0
 10  9  1  0  0  0  0
 11 10  2  0  0  0  0
 11 12  1  0  0  0  0
 12 13  2  0  0  0  0
 13  8  1  0  0  0  0
 15 12  1  0  0  0  0
 16 17  1  0  0  0  0
 17 20  1  0  0  0  0
 17 19  1  0  0  0  0
 18 17  1  0  0  0  0
 21 28  1  1  0  0  0
 22  4  1  1  0  0  0
 22 21  1  0  0  0  0
 23 22  1  0  0  0  0
 23 24  1  0  0  0  0
 25 23  1  0  0  0  0
 25 26  1  0  0  0  0
 26 21  1  0  0  0  0
 27 26  1  0  0  0  0
 28 29  1  0  0  0  0
M  END
>  <minimizedAffinity>
-5.11906576

$$$$

 OpenBabel03272503393D

 29 31  0  0  1  0  0  0  0  0999 V2000
   37.2400   26.2980   33.1040 C   0  0  0  0  0  0  0  0  0  0  0  0
   36.6050   25.7140   32.0530 C   0  0  0  0  0  0  0  0  0  0  0  0
   35.7980   26.7280   31.5260 C   0  0  0  0  0  0  0  0  0  0  0  0
   35.9620   27.8470   32.2450 N   0  0  0  0  0  0  0  0  0  0  0  0
   36.8490   27.5910   33.2180 N   0  0  0  0  0  0  0  0  0  0  0  0
   36.7370   24.6870   31.7420 H   0  0  0  0  0  0  0  0  0  0  0  0
   35.1660   26.5140   30.6510 H   0  0  0  0  0  0  0  0  0  0  0  0
   38.7790   24.2060   35.8100 C   0  0  0  0  0  0  0  0  0  0  0  0
   37.8260   24.8000   35.0020 C   0  0  0  0  0  0  0  0  0  0  0  0
   38.1960   25.6460   33.9810 C   0  0  0  0  0  0  0  0  0  0  0  0
   39.5230   25.8650   33.8090 N   0  0  0  0  0  0  0  0  0  0  0  0
   40.4490   25.2690   34.6140 C   0  0  0  0  0  0  0  0  0  0  0  0
   40.0940   24.4570   35.5960 N   0  0  0  0  0  0  0  0  0  0  0  0
   36.7480   24.6680   35.0880 H   0  0  0  0  0  0  0  0  0  0  0  0
   41.5190   25.4460   34.4750 H   0  0  0  0  0  0  0  0  0  0  0  0
   38.2250   23.3840   36.7880 O   0  0  0  0  0  0  0  0  0  0  0  0
   38.3170   23.6490   38.1660 C   0  0  0  0  0  0  0  0  0  0  0  0
   38.0450   24.9770   38.4610 F   0  0  0  0  0  0  0  0  0  0  0  0
   39.5650   23.2940   38.6020 F   0  0  0  0  0  0  0  0  0  0  0  0
   37.4010   22.8450   38.8220 F   0  0  0  0  0  0  0  0  0  0  0  0
   34.1680   29.3340   32.9880 C   0  0  2  0  0  3  0  0  0  0  0  0
   35.2650   29.0700   31.9500 C   0  0  1  0  0  3  0  0  0  0  0  0
   36.1090   30.2910   32.1940 C   0  0  0  0  0  3  0  0  0  0  0  0
   36.7740   30.0390   33.0690 H   0  0  0  0  0  0  0  0  0  0  0  0
   35.2560   31.3290   32.5020 O   0  0  0  0  0  0  0  0  0  0  0  0
   33.9990   30.8380   32.7450 C   0  0  0  0  0  3  0  0  0  0  0  0
   33.3500   30.9410   31.8270 H   0  0  0  0  0  0  0  0  0  0  0  0
   34.7500   29.1420   34.2360 O   0  0  0  0  0  0  0  0  0  0  0  0
   34.9250   30.0190   34.6980 H   0  0  0  0  0  0  0  0  0  0  0  0
  1  5  2  0  0  0  0
  1 10  1  0  0  0  0
  2  1  1  0  0  0  0
  3  2  2  0  0  0  0
  3  4  1  0  0  0  0
  4  5  1  0  0  0  0
  6  2  1  0  0  0  0
  7  3  1  0  0  0  0
  8 16  1  0  0  0  0
  9 14  1  0  0  0  0
  9  8  2  0  0  0  0
 10  9  1  0  0  0  0
 11 10  2  0  0  0  0
 11 12  1  0  0  0  0
 12 13  2  0  0  0  0
 13  8  1  0  0  0  0
 15 12  1  0  0  0  0
 16 17  1  0  0  0  0
 17 18  1  0  0  0  0
 17 19  1  0  0  0  0
 17 20  1  0  0  0  0
 21 28  1  1  0  0  0
 22 23  1  0  0  0  0
 22  4  1  1  0  0  0
 22 21  1  0  0  0  0
 23 25  1  0  0  0  0
 23 24  1  0  0  0  0
 25 26  1  0  0  0  0
 26 21  1  0  0  0  0
 27 26  1  0  0  0  0
 28 29  1  0  0  0  0
M  END
>  <minimizedAffinity>
-5.00935078

$$$$

 OpenBabel03272503393D

 29 31  0  0  1  0  0  0  0  0999 V2000
   37.0130   26.9500   33.5570 C   0  0  0  0  0  0  0  0  0  0  0  0
   37.4870   26.4490   34.7280 C   0  0  0  0  0  0  0  0  0  0  0  0
   37.9040   25.1520   34.4090 C   0  0  0  0  0  0  0  0  0  0  0  0
   37.6780   24.9180   33.1100 N   0  0  0  0  0  0  0  0  0  0  0  0
   37.1290   26.0200   32.5770 N   0  0  0  0  0  0  0  0  0  0  0  0
   37.5120   26.9850   35.6670 H   0  0  0  0  0  0  0  0  0  0  0  0
   38.3360   24.5160   35.1960 H   0  0  0  0  0  0  0  0  0  0  0  0
   35.3280   30.2490   34.1400 C   0  0  0  0  0  0  0  0  0  0  0  0
   35.8370   28.9840   34.3740 C   0  0  0  0  0  0  0  0  0  0  0  0
   36.4610   28.2800   33.3690 C   0  0  0  0  0  0  0  0  0  0  0  0
   36.5510   28.8790   32.1560 N   0  0  0  0  0  0  0  0  0  0  0  0
   36.0440   30.1280   31.9450 C   0  0  0  0  0  0  0  0  0  0  0  0
   35.4440   30.8050   32.9090 N   0  0  0  0  0  0  0  0  0  0  0  0
   35.7970   28.4480   35.3210 H   0  0  0  0  0  0  0  0  0  0  0  0
   36.1170   30.6110   30.9660 H   0  0  0  0  0  0  0  0  0  0  0  0
   34.7320   30.8110   35.2670 O   0  0  0  0  0  0  0  0  0  0  0  0
   35.3310   31.8260   36.0360 C   0  0  0  0  0  0  0  0  0  0  0  0
   34.8500   31.8460   37.3370 F   0  0  0  0  0  0  0  0  0  0  0  0
   35.1260   33.0280   35.4170 F   0  0  0  0  0  0  0  0  0  0  0  0
   36.6950   31.5960   36.0640 F   0  0  0  0  0  0  0  0  0  0  0  0
   36.7390   22.8180   32.2770 C   0  0  2  0  0  3  0  0  0  0  0  0
   38.0000   23.6670   32.4770 C   0  0  1  0  0  3  0  0  0  0  0  0
   38.3940   23.8330   31.0340 C   0  0  0  0  0  3  0  0  0  0  0  0
   37.7840   24.6970   30.6440 H   0  0  0  0  0  0  0  0  0  0  0  0
   38.0720   22.6630   30.3800 O   0  0  0  0  0  0  0  0  0  0  0  0
   37.2770   21.8880   31.1840 C   0  0  0  0  0  3  0  0  0  0  0  0
   37.8930   21.1010   31.7100 H   0  0  0  0  0  0  0  0  0  0  0  0
   35.7800   23.6580   31.7220 O   0  0  0  0  0  0  0  0  0  0  0  0
   35.6500   23.4700   30.7410 H   0  0  0  0  0  0  0  0  0  0  0  0
  1  2  1  0  0  0  0
  2  6  1  0  0  0  0
  3  2  2  0  0  0  0
  3  7  1  0  0  0  0
  4  3  1  0  0  0  0
  5  4  1  0  0  0  0
  5  1  2  0  0  0  0
  8  9  1  0  0  0  0
  8 16  1  0  0  0  0
  9 14  1  0  0  0  0
 10  1  1  0  0  0  0
 10  9  2  0  0  0  0
 11 10  1  0  0  0  0
 12 11  2  0  0  0  0
 12 13  1  0  0  0  0
 13  8  2  0  0  0  0
 15 12  1  0  0  0  0
 16 17  1  0  0  0  0
 17 20  1  0  0  0  0
 17 18  1  0  0  0  0
 19 17  1  0  0  0  0
 21 28  1  6  0  0  0
 21 22  1  0  0  0  0
 22  4  1  6  0  0  0
 23 22  1  0  0  0  0
 24 23  1  0  0  0  0
 25 23  1  0  0  0  0
 25 26  1  0  0  0  0
 26 27  1  0  0  0  0
 26 21  1  0  0  0  0
 29 28  1  0  0  0  0
M  END
>  <minimizedAffinity>
-4.84704781

$$$$

 OpenBabel03272503393D

 29 31  0  0  1  0  0  0  0  0999 V2000
   37.6550   24.7800   33.6600 C   0  0  0  0  0  0  0  0  0  0  0  0
   37.7950   23.6630   32.8980 C   0  0  0  0  0  0  0  0  0  0  0  0
   38.3340   22.7110   33.7700 C   0  0  0  0  0  0  0  0  0  0  0  0
   38.4970   23.2580   34.9820 N   0  0  0  0  0  0  0  0  0  0  0  0
   38.0810   24.5330   34.9230 N   0  0  0  0  0  0  0  0  0  0  0  0
   37.5290   23.5890   31.8520 H   0  0  0  0  0  0  0  0  0  0  0  0
   38.5490   21.6990   33.3960 H   0  0  0  0  0  0  0  0  0  0  0  0
   36.4300   28.3230   33.5530 C   0  0  0  0  0  0  0  0  0  0  0  0
   36.9350   27.1310   34.0400 C   0  0  0  0  0  0  0  0  0  0  0  0
   37.1280   26.0540   33.2040 C   0  0  0  0  0  0  0  0  0  0  0  0
   36.8020   26.2180   31.8980 N   0  0  0  0  0  0  0  0  0  0  0  0
   36.3060   27.4010   31.4360 C   0  0  0  0  0  0  0  0  0  0  0  0
   36.1200   28.4350   32.2370 N   0  0  0  0  0  0  0  0  0  0  0  0
   37.2160   26.9350   35.0740 H   0  0  0  0  0  0  0  0  0  0  0  0
   36.0430   27.5320   30.3820 H   0  0  0  0  0  0  0  0  0  0  0  0
   36.3010   29.3000   34.5370 O   0  0  0  0  0  0  0  0  0  0  0  0
   35.1650   30.1180   34.6730 C   0  0  0  0  0  0  0  0  0  0  0  0
   35.0750   31.0600   33.6580 F   0  0  0  0  0  0  0  0  0  0  0  0
   35.1990   30.7210   35.9010 F   0  0  0  0  0  0  0  0  0  0  0  0
   34.0440   29.3080   34.6350 F   0  0  0  0  0  0  0  0  0  0  0  0
   40.5640   22.4540   36.0150 C   0  0  2  0  0  3  0  0  0  0  0  0
   39.0340   22.5290   36.0990 C   0  0  1  0  0  3  0  0  0  0  0  0
   38.9150   23.2840   37.3950 C   0  0  0  0  0  3  0  0  0  0  0  0
   39.0280   24.3740   37.1310 H   0  0  0  0  0  0  0  0  0  0  0  0
   39.9400   22.8630   38.2150 O   0  0  0  0  0  0  0  0  0  0  0  0
   40.8460   22.1350   37.4870 C   0  0  0  0  0  3  0  0  0  0  0  0
   40.6580   21.0300   37.6150 H   0  0  0  0  0  0  0  0  0  0  0  0
   41.0080   23.7420   35.7390 O   0  0  0  0  0  0  0  0  0  0  0  0
   41.4140   24.1720   36.5530 H   0  0  0  0  0  0  0  0  0  0  0  0
  1  5  2  0  0  0  0
  2  1  1  0  0  0  0
  2  3  2  0  0  0  0
  3  4  1  0  0  0  0
  5  4  1  0  0  0  0
  6  2  1  0  0  0  0
  7  3  1  0  0  0  0
  8  9  1  0  0  0  0
  8 16  1  0  0  0  0
  9 14  1  0  0  0  0
 10  1  1  0  0  0  0
 10  9  2  0  0  0  0
 11 10  1  0  0  0  0
 12 11  2  0  0  0  0
 12 13  1  0  0  0  0
 13  8  2  0  0  0  0
 15 12  1  0  0  0  0
 16 17  1  0  0  0  0
 17 19  1  0  0  0  0
 18 17  1  0  0  0  0
 20 17  1  0  0  0  0
 21 28  1  1  0  0  0
 21 22  1  0  0  0  0
 21 26  1  0  0  0  0
 22  4  1  6  0  0  0
 22 23  1  0  0  0  0
 23 25  1  0  0  0  0
 24 23  1  0  0  0  0
 26 27  1  0  0  0  0
 26 25  1  0  0  0  0
 28 29  1  0  0  0  0
M  END
>  <minimizedAffinity>
-4.81896496

$$$$

 OpenBabel03272503393D

 29 31  0  0  1  0  0  0  0  0999 V2000
   37.9260   25.5060   32.8800 C   0  0  0  0  0  0  0  0  0  0  0  0
   37.0350   26.5100   33.0950 C   0  0  0  0  0  0  0  0  0  0  0  0
   37.3620   27.4770   32.1380 C   0  0  0  0  0  0  0  0  0  0  0  0
   38.3960   27.0450   31.4040 N   0  0  0  0  0  0  0  0  0  0  0  0
   38.7500   25.8320   31.8540 N   0  0  0  0  0  0  0  0  0  0  0  0
   36.2660   26.5040   33.8560 H   0  0  0  0  0  0  0  0  0  0  0  0
   36.7820   28.4100   32.0960 H   0  0  0  0  0  0  0  0  0  0  0  0
   37.5370   21.9280   33.9350 C   0  0  0  0  0  0  0  0  0  0  0  0
   37.4430   23.0840   33.1810 C   0  0  0  0  0  0  0  0  0  0  0  0
   37.9950   24.2630   33.6280 C   0  0  0  0  0  0  0  0  0  0  0  0
   38.6270   24.2350   34.8280 N   0  0  0  0  0  0  0  0  0  0  0  0
   38.7110   23.0850   35.5570 C   0  0  0  0  0  0  0  0  0  0  0  0
   38.1800   21.9520   35.1280 N   0  0  0  0  0  0  0  0  0  0  0  0
   36.9510   23.1740   32.2130 H   0  0  0  0  0  0  0  0  0  0  0  0
   39.2200   23.0630   36.5240 H   0  0  0  0  0  0  0  0  0  0  0  0
   36.9240   20.8330   33.3290 O   0  0  0  0  0  0  0  0  0  0  0  0
   35.6080   20.4260   33.6150 C   0  0  0  0  0  0  0  0  0  0  0  0
   35.4440   19.0550   33.4730 F   0  0  0  0  0  0  0  0  0  0  0  0
   34.7470   21.1110   32.8020 F   0  0  0  0  0  0  0  0  0  0  0  0
   35.3220   20.7800   34.9220 F   0  0  0  0  0  0  0  0  0  0  0  0
   39.6920   26.9110   29.3340 C   0  0  2  0  0  3  0  0  0  0  0  0
   38.9670   27.8190   30.3340 C   0  0  1  0  0  3  0  0  0  0  0  0
   37.9240   28.3870   29.4100 C   0  0  0  0  0  3  0  0  0  0  0  0
   37.0900   27.6290   29.3810 H   0  0  0  0  0  0  0  0  0  0  0  0
   38.5060   28.5340   28.1690 O   0  0  0  0  0  0  0  0  0  0  0  0
   39.7060   27.8720   28.1400 C   0  0  0  0  0  3  0  0  0  0  0  0
   40.5580   28.5910   28.3200 H   0  0  0  0  0  0  0  0  0  0  0  0
   38.8270   25.8580   29.0550 O   0  0  0  0  0  0  0  0  0  0  0  0
   38.4110   25.9570   28.1440 H   0  0  0  0  0  0  0  0  0  0  0  0
  1  2  1  0  0  0  0
  1 10  1  0  0  0  0
  2  6  1  0  0  0  0
  3  2  2  0  0  0  0
  4  5  1  0  0  0  0
  4  3  1  0  0  0  0
  5  1  2  0  0  0  0
  7  3  1  0  0  0  0
  8 13  1  0  0  0  0
  9 10  1  0  0  0  0
  9  8  2  0  0  0  0
 10 11  2  0  0  0  0
 11 12  1  0  0  0  0
 12 15  1  0  0  0  0
 13 12  2  0  0  0  0
 14  9  1  0  0  0  0
 16 17  1  0  0  0  0
 16  8  1  0  0  0  0
 17 20  1  0  0  0  0
 18 17  1  0  0  0  0
 19 17  1  0  0  0  0
 21 28  1  6  0  0  0
 21 22  1  0  0  0  0
 22  4  1  1  0  0  0
 23 22  1  0  0  0  0
 24 23  1  0  0  0  0
 25 23  1  0  0  0  0
 26 25  1  0  0  0  0
 26 27  1  0  0  0  0
 26 21  1  0  0  0  0
 29 28  1  0  0  0  0
M  END
>  <minimizedAffinity>
-4.80796623

$$$$
