
 OpenBabel03272503393D

 29 31  0  0  1  0  0  0  0  0999 V2000
   38.4990   31.1400   45.9710 C   0  0  0  0  0  0  0  0  0  0  0  0
   39.8130   31.1980   46.3110 C   0  0  0  0  0  0  0  0  0  0  0  0
   40.4690   31.5220   45.1180 C   0  0  0  0  0  0  0  0  0  0  0  0
   39.5680   31.6440   44.1340 N   0  0  0  0  0  0  0  0  0  0  0  0
   38.3520   31.4110   44.6500 N   0  0  0  0  0  0  0  0  0  0  0  0
   40.2050   31.0230   47.3040 H   0  0  0  0  0  0  0  0  0  0  0  0
   41.5630   31.6310   45.1180 H   0  0  0  0  0  0  0  0  0  0  0  0
   36.4370   30.6250   49.0610 C   0  0  0  0  0  0  0  0  0  0  0  0
   37.5120   30.9280   48.2450 C   0  0  0  0  0  0  0  0  0  0  0  0
   37.4040   30.8360   46.8750 C   0  0  0  0  0  0  0  0  0  0  0  0
   36.2080   30.4390   46.3730 N   0  0  0  0  0  0  0  0  0  0  0  0
   35.1590   30.1450   47.1940 C   0  0  0  0  0  0  0  0  0  0  0  0
   35.2620   30.2320   48.5090 N   0  0  0  0  0  0  0  0  0  0  0  0
   38.4960   31.2500   48.5830 H   0  0  0  0  0  0  0  0  0  0  0  0
   34.1950   29.8250   46.7890 H   0  0  0  0  0  0  0  0  0  0  0  0
   36.7260   30.7730   50.4160 O   0  0  0  0  0  0  0  0  0  0  0  0
   36.7940   29.6940   51.3160 C   0  0  0  0  0  0  0  0  0  0  0  0
   35.5370   29.1960   51.6290 F   0  0  0  0  0  0  0  0  0  0  0  0
   37.4560   30.1000   52.4420 F   0  0  0  0  0  0  0  0  0  0  0  0
   37.5430   28.6890   50.7290 F   0  0  0  0  0  0  0  0  0  0  0  0
   39.9250   30.7210   41.8970 C   0  0  2  0  0  0  0  0  0  0  0  0
   39.9330   31.9730   42.7820 C   0  0  1  0  0  0  0  0  0  0  0  0
   38.8680   32.7620   42.0700 C   0  0  0  0  0  0  0  0  0  0  0  0
   37.8840   32.3920   42.4770 H   0  0  0  0  0  0  0  0  0  0  0  0
   38.9830   32.4910   40.7240 O   0  0  0  0  0  0  0  0  0  0  0  0
   39.8170   31.4190   40.5370 C   0  0  0  0  0  0  0  0  0  0  0  0
   40.8580   31.7680   40.2750 H   0  0  0  0  0  0  0  0  0  0  0  0
   38.7300   30.0590   42.1600 O   0  0  0  0  0  0  0  0  0  0  0  0
   38.0710   30.1790   41.4090 H   0  0  0  0  0  0  0  0  0  0  0  0
  1  2  1  0  0  0  0
  1 10  1  0  0  0  0
  2  6  1  0  0  0  0
  3  7  1  0  0  0  0
  3  2  2  0  0  0  0
  4  5  1  0  0  0  0
  4  3  1  0  0  0  0
  5  1  2  0  0  0  0
  8 16  1  0  0  0  0
  9 14  1  0  0  0  0
  9  8  2  0  0  0  0
 10  9  1  0  0  0  0
 11 10  2  0  0  0  0
 11 12  1  0  0  0  0
 12 13  2  0  0  0  0
 13  8  1  0  0  0  0
 15 12  1  0  0  0  0
 16 17  1  0  0  0  0
 17 18  1  0  0  0  0
 17 19  1  0  0  0  0
 20 17  1  0  0  0  0
 21 28  1  1  0  0  0
 21 22  1  0  0  0  0
 22  4  1  1  0  0  0
 23 24  1  0  0  0  0
 23 22  1  0  0  0  0
 25 23  1  0  0  0  0
 26 25  1  0  0  0  0
 26 21  1  0  0  0  0
 27 26  1  0  0  0  0
 29 28  1  0  0  0  0
M  END
>  <minimizedAffinity>
-5.96579838

>  <minimizedRMSD>
2.8001287

$$$$
