
 OpenBabel03272507523D

 32 34  0  0  1  0  0  0  0  0999 V2000
   36.6440   31.2010   48.5970 N   0  0  0  0  0  0  0  0  0  0  0  0
   37.0370   32.0910   49.5080 C   0  0  0  0  0  0  0  0  0  0  0  0
   38.1250   32.9220   49.2150 C   0  0  0  0  0  0  0  0  0  0  0  0
   38.6900   32.7300   47.9900 C   0  0  0  0  0  0  0  0  0  0  0  0
   39.6730   33.5100   47.7830 O   0  0  0  0  0  0  0  0  0  0  0  0
   38.3290   31.8510   47.0480 N   0  0  0  0  0  0  0  0  0  0  0  0
   37.2700   31.0720   47.3850 C   0  0  0  0  0  0  0  0  0  0  0  0
   36.9050   30.2290   46.5110 O   0  0  0  0  0  0  0  0  0  0  0  0
   36.5180   32.1570   50.4410 H   0  0  0  0  0  0  0  0  0  0  0  0
   38.4390   33.6330   49.9440 H   0  0  0  0  0  0  0  0  0  0  0  0
   35.4260   29.7250   50.0990 C   0  0  0  0  0  0  0  0  0  0  0  0
   35.5470   30.3030   48.8160 C   0  0  0  0  0  0  0  0  0  0  0  0
   34.6010   29.9710   47.8390 C   0  0  0  0  0  0  0  0  0  0  0  0
   33.6140   29.1080   48.1740 N   0  0  0  0  0  0  0  0  0  0  0  0
   33.5040   28.5680   49.3770 C   0  0  0  0  0  0  0  0  0  0  0  0
   34.4010   28.8740   50.3300 N   0  0  0  0  0  0  0  0  0  0  0  0
   34.7130   30.4260   46.8640 H   0  0  0  0  0  0  0  0  0  0  0  0
   32.7230   27.8750   49.6700 H   0  0  0  0  0  0  0  0  0  0  0  0
   37.5080   29.3420   51.6220 C   0  0  0  0  0  0  0  0  0  0  0  0
   37.9730   28.3380   51.0380 O   0  0  0  0  0  0  0  0  0  0  0  0
   36.3130   29.9980   51.1620 N   0  0  0  0  0  0  0  0  0  0  0  0
   38.0590   29.6780   52.4860 H   0  0  0  0  0  0  0  0  0  0  0  0
   36.1050   30.8420   51.7730 H   0  0  0  0  0  0  0  0  0  0  0  0
   39.0590   33.0210   44.9950 C   0  0  1  0  0  3  0  0  0  0  0  0
   38.9920   31.7260   45.7830 C   0  0  1  0  0  3  0  0  0  0  0  0
   40.4390   31.3720   45.8830 C   0  0  0  0  0  3  0  0  0  0  0  0
   40.6180   30.2650   45.9470 H   0  0  0  0  0  0  0  0  0  0  0  0
   40.9130   31.6950   44.5890 O   0  0  0  0  0  0  0  0  0  0  0  0
   40.4720   33.0070   44.4030 C   0  0  0  0  0  3  0  0  0  0  0  0
   41.1410   33.7430   44.9200 H   0  0  0  0  0  0  0  0  0  0  0  0
   38.1690   32.9610   43.9240 O   0  0  0  0  0  0  0  0  0  0  0  0
   37.9660   32.0210   43.6940 H   0  0  0  0  0  0  0  0  0  0  0  0
  1 12  1  0  0  0  0
  1  2  1  0  0  0  0
  2  9  1  0  0  0  0
  3  2  2  0  0  0  0
  3 10  1  0  0  0  0
  4  3  1  0  0  0  0
  5  4  2  0  0  0  0
  6  7  1  0  0  0  0
  6  4  1  0  0  0  0
  7  1  1  0  0  0  0
  8  7  2  0  0  0  0
 11 16  1  0  0  0  0
 11 21  1  0  0  0  0
 12 11  2  0  0  0  0
 13 14  2  0  0  0  0
 13 12  1  0  0  0  0
 14 15  1  0  0  0  0
 15 18  1  0  0  0  0
 15 16  2  0  0  0  0
 17 13  1  0  0  0  0
 19 22  1  0  0  0  0
 20 19  2  0  0  0  0
 21 19  1  0  0  0  0
 21 23  1  0  0  0  0
 24 31  1  6  0  0  0
 24 25  1  0  0  0  0
 25 26  1  0  0  0  0
 25  6  1  1  0  0  0
 26 27  1  0  0  0  0
 28 26  1  0  0  0  0
 29 28  1  0  0  0  0
 29 30  1  0  0  0  0
 29 24  1  0  0  0  0
 32 31  1  0  0  0  0
M  END
>  <minimizedAffinity>
-5.91160583

>  <minimizedRMSD>
1.69560313

$$$$
