
 OpenBabel03272505243D

 28 30  0  0  1  0  0  0  0  0999 V2000
   36.6120   29.2070   50.5570 C   0  0  0  0  0  0  0  0  0  0  0  0
   36.8880   29.4400   49.1780 C   0  0  0  0  0  0  0  0  0  0  0  0
   35.8520   29.9170   48.3820 C   0  0  0  0  0  0  0  0  0  0  0  0
   34.6210   30.1410   48.9390 N   0  0  0  0  0  0  0  0  0  0  0  0
   34.3870   29.9080   50.2610 C   0  0  0  0  0  0  0  0  0  0  0  0
   35.3730   29.4460   51.0580 N   0  0  0  0  0  0  0  0  0  0  0  0
   36.0380   30.1900   47.0100 N   0  0  0  0  0  0  0  0  0  0  0  0
   35.0610   30.0180   46.1010 C   0  0  0  0  0  0  0  0  0  0  0  0
   35.2700   30.3180   44.7460 C   0  0  0  0  0  0  0  0  0  0  0  0
   36.5080   30.7970   44.3540 C   0  0  0  0  0  0  0  0  0  0  0  0
   36.7190   31.0690   43.1650 O   0  0  0  0  0  0  0  0  0  0  0  0
   37.4540   30.9530   45.2860 N   0  0  0  0  0  0  0  0  0  0  0  0
   37.1970   30.6510   46.5630 C   0  0  0  0  0  0  0  0  0  0  0  0
   38.1350   30.8210   47.3860 O   0  0  0  0  0  0  0  0  0  0  0  0
   37.3650   28.8410   51.2300 H   0  0  0  0  0  0  0  0  0  0  0  0
   37.8940   29.2070   48.8810 H   0  0  0  0  0  0  0  0  0  0  0  0
   33.3720   30.1290   50.5600 H   0  0  0  0  0  0  0  0  0  0  0  0
   34.0970   29.6450   46.4080 H   0  0  0  0  0  0  0  0  0  0  0  0
   34.4620   30.1690   44.0410 H   0  0  0  0  0  0  0  0  0  0  0  0
   39.5530   32.1120   45.9100 C   0  0  1  0  0  0  0  0  0  0  0  0
   38.7070   31.4450   44.8510 C   0  0  1  0  0  0  0  0  0  0  0  0
   39.6810   30.5270   44.2250 C   0  0  0  0  0  0  0  0  0  0  0  0
   40.1980   29.8180   44.9060 H   0  0  0  0  0  0  0  0  0  0  0  0
   40.7190   31.4720   43.9810 O   0  0  0  0  0  0  0  0  0  0  0  0
   40.9490   31.8270   45.3320 C   0  0  0  0  0  0  0  0  0  0  0  0
   41.5610   32.7370   45.4170 H   0  0  0  0  0  0  0  0  0  0  0  0
   39.3270   33.4860   45.9690 O   0  0  0  0  0  0  0  0  0  0  0  0
   39.0730   33.7460   46.9020 H   0  0  0  0  0  0  0  0  0  0  0  0
  1  6  1  0  0  0  0
  1 15  1  0  0  0  0
  2  1  2  0  0  0  0
  3  4  2  0  0  0  0
  3  2  1  0  0  0  0
  4  5  1  0  0  0  0
  5 17  1  0  0  0  0
  5  6  2  0  0  0  0
  7  3  1  0  0  0  0
  8 18  1  0  0  0  0
  8  7  1  0  0  0  0
  9  8  2  0  0  0  0
 10  9  1  0  0  0  0
 10 12  1  0  0  0  0
 11 10  2  0  0  0  0
 12 13  1  0  0  0  0
 13  7  1  0  0  0  0
 13 14  2  0  0  0  0
 16  2  1  0  0  0  0
 19  9  1  0  0  0  0
 20 27  1  6  0  0  0
 21 12  1  1  0  0  0
 21 20  1  0  0  0  0
 22 21  1  0  0  0  0
 22 23  1  0  0  0  0
 24 22  1  0  0  0  0
 24 25  1  0  0  0  0
 25 26  1  0  0  0  0
 25 20  1  0  0  0  0
 27 28  1  0  0  0  0
M  END
>  <minimizedAffinity>
-5.53514814

>  <minimizedRMSD>
3.79067731

$$$$
