
 OpenBabel03272504403D

 45 47  0  0  1  0  0  0  0  0999 V2000
   34.7450   29.4160   48.7880 C   0  0  0  0  0  0  0  0  0  0  0  0
   35.6380   29.4880   49.4760 H   0  0  0  0  0  0  0  0  0  0  0  0
   34.0780   30.2370   49.1860 H   0  0  0  0  0  0  0  0  0  0  0  0
   37.5030   30.4870   48.5180 Cl  0  0  0  0  0  0  0  0  0  0  0  0
   36.3790   30.3030   47.1790 C   0  0  0  0  0  0  0  0  0  0  0  0
   36.7750   30.6730   45.9300 C   0  0  0  0  0  0  0  0  0  0  0  0
   35.9080   30.5380   44.8680 C   0  0  0  0  0  0  0  0  0  0  0  0
   34.6410   30.0240   45.1030 C   0  0  0  0  0  0  0  0  0  0  0  0
   34.3020   29.6630   46.4170 C   0  0  0  0  0  0  0  0  0  0  0  0
   35.1380   29.7900   47.4620 C   0  0  0  0  0  0  0  0  0  0  0  0
   36.2430   30.8410   43.8680 H   0  0  0  0  0  0  0  0  0  0  0  0
   34.0280   29.9510   44.2200 H   0  0  0  0  0  0  0  0  0  0  0  0
   33.3410   29.3060   46.4110 H   0  0  0  0  0  0  0  0  0  0  0  0
   39.7670   32.8320   46.0130 C   0  0  0  0  0  0  0  0  0  0  0  0
   40.6380   32.1000   45.1300 C   0  0  0  0  0  0  0  0  0  0  0  0
   40.1590   30.9090   44.5530 C   0  0  0  0  0  0  0  0  0  0  0  0
   38.9000   30.5030   44.8540 N   0  0  0  0  0  0  0  0  0  0  0  0
   38.1020   31.2120   45.6880 C   0  0  0  0  0  0  0  0  0  0  0  0
   38.5380   32.3520   46.2490 N   0  0  0  0  0  0  0  0  0  0  0  0
   40.1390   33.7380   46.4480 H   0  0  0  0  0  0  0  0  0  0  0  0
   41.6100   32.5330   44.9770 H   0  0  0  0  0  0  0  0  0  0  0  0
   41.0400   30.2330   43.7030 N   0  0  0  0  0  0  0  0  0  0  0  0
   41.9840   29.8480   43.8280 H   0  0  0  0  0  0  0  0  0  0  0  0
   40.8220   30.0010   42.6930 H   0  0  0  0  0  0  0  0  0  0  0  0
   34.1160   28.1220   49.0320 C   0  0  0  0  0  0  0  0  0  0  0  0
   34.2580   27.4770   48.1170 H   0  0  0  0  0  0  0  0  0  0  0  0
   34.5690   27.5400   49.8620 H   0  0  0  0  0  0  0  0  0  0  0  0
   32.7750   28.2650   49.3080 O   0  0  0  0  0  0  0  0  0  0  0  0
   32.7280   26.4300   47.4380 O   0  0  0  0  0  0  0  0  0  0  0  0
   31.8490   27.3860   48.2310 P   0  0  2  0  0  0  0  0  0  0  0  0
   31.1030   28.5190   47.1870 O   0  0  0  0  0  0  0  0  0  0  0  0
   30.0480   26.9430   45.6210 C   0  0  2  0  0  3  0  0  0  0  0  0
   30.8930   28.1360   45.9220 C   0  0  1  0  0  3  0  0  0  0  0  0
   30.1460   29.1910   45.0930 C   0  0  0  0  0  3  0  0  0  0  0  0
   30.8490   29.8850   44.5870 H   0  0  0  0  0  0  0  0  0  0  0  0
   29.4240   28.5250   44.1360 O   0  0  0  0  0  0  0  0  0  0  0  0
   29.7430   27.1940   44.1350 C   0  0  0  0  0  3  0  0  0  0  0  0
   28.8520   26.5950   43.8320 H   0  0  0  0  0  0  0  0  0  0  0  0
   28.8430   26.8740   46.2610 O   0  0  0  0  0  0  0  0  0  0  0  0
   28.5930   25.9280   46.4100 H   0  0  0  0  0  0  0  0  0  0  0  0
   30.6510   26.5300   48.9870 O   0  0  0  0  0  0  0  0  0  0  0  0
   29.8720   27.3630   49.7690 C   0  0  0  0  0  0  0  0  0  0  0  0
   29.3090   26.6800   50.8500 F   0  0  0  0  0  0  0  0  0  0  0  0
   30.6200   28.3930   50.3060 F   0  0  0  0  0  0  0  0  0  0  0  0
   28.8500   27.8960   49.0310 F   0  0  0  0  0  0  0  0  0  0  0  0
  1 25  1  0  0  0  0
  1  3  1  0  0  0  0
  1  2  1  0  0  0  0
  5 10  1  0  0  0  0
  5  4  1  0  0  0  0
  6  5  2  0  0  0  0
  7  8  2  0  0  0  0
  7  6  1  0  0  0  0
  8  9  1  0  0  0  0
  9 10  2  0  0  0  0
 10  1  1  0  0  0  0
 11  7  1  0  0  0  0
 12  8  1  0  0  0  0
 13  9  1  0  0  0  0
 14 19  1  0  0  0  0
 14 20  1  0  0  0  0
 15 14  2  0  0  0  0
 16 17  2  0  0  0  0
 16 15  1  0  0  0  0
 17 18  1  0  0  0  0
 18  6  1  0  0  0  0
 18 19  2  0  0  0  0
 21 15  1  0  0  0  0
 22 23  1  0  0  0  0
 22 16  1  0  0  0  0
 24 22  1  0  0  0  0
 25 28  1  0  0  0  0
 25 27  1  0  0  0  0
 26 25  1  0  0  0  0
 30 29  2  6  0  0  0
 30 41  1  0  0  0  0
 30 28  1  0  0  0  0
 31 30  1  0  0  0  0
 32 33  1  0  0  0  0
 32 39  1  1  0  0  0
 33 31  1  1  0  0  0
 34 33  1  0  0  0  0
 35 34  1  0  0  0  0
 36 34  1  0  0  0  0
 37 36  1  0  0  0  0
 37 32  1  0  0  0  0
 38 37  1  0  0  0  0
 39 40  1  0  0  0  0
 41 42  1  0  0  0  0
 42 44  1  0  0  0  0
 42 43  1  0  0  0  0
 45 42  1  0  0  0  0
M  END
>  <minimizedAffinity>
-5.73664618

>  <minimizedRMSD>
0.461577743

$$$$
