
 OpenBabel03272504403D

 45 47  0  0  1  0  0  0  0  0999 V2000
   34.7510   29.3700   48.7830 C   0  0  0  0  0  0  0  0  0  0  0  0
   35.6530   29.3990   49.4620 H   0  0  0  0  0  0  0  0  0  0  0  0
   34.1110   30.1970   49.2100 H   0  0  0  0  0  0  0  0  0  0  0  0
   37.5110   30.4340   48.5190 Cl  0  0  0  0  0  0  0  0  0  0  0  0
   36.3800   30.2820   47.1830 C   0  0  0  0  0  0  0  0  0  0  0  0
   36.7700   30.6740   45.9390 C   0  0  0  0  0  0  0  0  0  0  0  0
   35.8970   30.5630   44.8790 C   0  0  0  0  0  0  0  0  0  0  0  0
   34.6290   30.0490   45.1110 C   0  0  0  0  0  0  0  0  0  0  0  0
   34.2950   29.6650   46.4190 C   0  0  0  0  0  0  0  0  0  0  0  0
   35.1380   29.7680   47.4630 C   0  0  0  0  0  0  0  0  0  0  0  0
   36.2270   30.8850   43.8840 H   0  0  0  0  0  0  0  0  0  0  0  0
   34.0110   29.9970   44.2300 H   0  0  0  0  0  0  0  0  0  0  0  0
   33.3330   29.3110   46.4120 H   0  0  0  0  0  0  0  0  0  0  0  0
   39.7640   32.8290   46.0330 C   0  0  0  0  0  0  0  0  0  0  0  0
   40.6360   32.1000   45.1480 C   0  0  0  0  0  0  0  0  0  0  0  0
   40.1550   30.9120   44.5660 C   0  0  0  0  0  0  0  0  0  0  0  0
   38.8960   30.5060   44.8640 N   0  0  0  0  0  0  0  0  0  0  0  0
   38.0980   31.2120   45.7000 C   0  0  0  0  0  0  0  0  0  0  0  0
   38.5350   32.3500   46.2660 N   0  0  0  0  0  0  0  0  0  0  0  0
   40.1380   33.7340   46.4720 H   0  0  0  0  0  0  0  0  0  0  0  0
   41.6080   32.5320   44.9980 H   0  0  0  0  0  0  0  0  0  0  0  0
   41.0360   30.2380   43.7140 N   0  0  0  0  0  0  0  0  0  0  0  0
   41.9800   29.8520   43.8380 H   0  0  0  0  0  0  0  0  0  0  0  0
   40.8190   30.0100   42.7030 H   0  0  0  0  0  0  0  0  0  0  0  0
   34.0900   28.0870   49.0010 C   0  0  0  0  0  0  0  0  0  0  0  0
   34.1920   27.4680   48.0630 H   0  0  0  0  0  0  0  0  0  0  0  0
   34.5450   27.4660   49.8010 H   0  0  0  0  0  0  0  0  0  0  0  0
   32.7610   28.2580   49.3130 O   0  0  0  0  0  0  0  0  0  0  0  0
   32.6240   26.5430   47.3370 O   0  0  0  0  0  0  0  0  0  0  0  0
   31.7850   27.4480   48.2260 P   0  0  2  0  0  0  0  0  0  0  0  0
   30.9950   28.6430   47.2900 O   0  0  0  0  0  0  0  0  0  0  0  0
   28.9580   28.6160   45.9120 C   0  0  2  0  0  3  0  0  0  0  0  0
   30.3780   28.2340   46.1740 C   0  0  1  0  0  3  0  0  0  0  0  0
   31.0290   28.7800   44.8960 C   0  0  0  0  0  3  0  0  0  0  0  0
   31.8100   28.0940   44.5110 H   0  0  0  0  0  0  0  0  0  0  0  0
   30.0410   28.8950   43.9500 O   0  0  0  0  0  0  0  0  0  0  0  0
   28.8780   28.3350   44.4010 C   0  0  0  0  0  3  0  0  0  0  0  0
   28.0060   28.8790   43.9690 H   0  0  0  0  0  0  0  0  0  0  0  0
   28.6410   29.9330   46.0800 O   0  0  0  0  0  0  0  0  0  0  0  0
   27.6990   30.0210   46.3680 H   0  0  0  0  0  0  0  0  0  0  0  0
   30.6200   26.5460   48.9820 O   0  0  0  0  0  0  0  0  0  0  0  0
   29.8230   27.3440   49.7810 C   0  0  0  0  0  0  0  0  0  0  0  0
   29.3340   26.6440   50.8870 F   0  0  0  0  0  0  0  0  0  0  0  0
   30.5320   28.4200   50.2830 F   0  0  0  0  0  0  0  0  0  0  0  0
   28.7500   27.8130   49.0730 F   0  0  0  0  0  0  0  0  0  0  0  0
  1 25  1  0  0  0  0
  1  3  1  0  0  0  0
  1  2  1  0  0  0  0
  5 10  1  0  0  0  0
  5  4  1  0  0  0  0
  6  5  2  0  0  0  0
  7  8  2  0  0  0  0
  7  6  1  0  0  0  0
  8  9  1  0  0  0  0
  9 10  2  0  0  0  0
 10  1  1  0  0  0  0
 11  7  1  0  0  0  0
 12  8  1  0  0  0  0
 13  9  1  0  0  0  0
 14 19  1  0  0  0  0
 14 20  1  0  0  0  0
 15 14  2  0  0  0  0
 16 17  2  0  0  0  0
 16 15  1  0  0  0  0
 17 18  1  0  0  0  0
 18  6  1  0  0  0  0
 18 19  2  0  0  0  0
 21 15  1  0  0  0  0
 22 23  1  0  0  0  0
 22 16  1  0  0  0  0
 24 22  1  0  0  0  0
 25 28  1  0  0  0  0
 25 27  1  0  0  0  0
 26 25  1  0  0  0  0
 30 29  2  6  0  0  0
 30 41  1  0  0  0  0
 30 28  1  0  0  0  0
 31 30  1  0  0  0  0
 32 39  1  6  0  0  0
 32 33  1  0  0  0  0
 33 31  1  1  0  0  0
 34 33  1  0  0  0  0
 35 34  1  0  0  0  0
 36 37  1  0  0  0  0
 36 34  1  0  0  0  0
 37 32  1  0  0  0  0
 38 37  1  0  0  0  0
 39 40  1  0  0  0  0
 41 42  1  0  0  0  0
 42 44  1  0  0  0  0
 42 43  1  0  0  0  0
 45 42  1  0  0  0  0
M  END
>  <minimizedAffinity>
-5.75953341

>  <minimizedRMSD>
0.289684653

$$$$
