
 OpenBabel03272504403D

 45 47  0  0  1  0  0  0  0  0999 V2000
   34.7740   29.3770   48.8130 C   0  0  0  0  0  0  0  0  0  0  0  0
   35.6820   29.4020   49.4850 H   0  0  0  0  0  0  0  0  0  0  0  0
   34.1390   30.2040   49.2480 H   0  0  0  0  0  0  0  0  0  0  0  0
   37.5380   30.4290   48.5330 Cl  0  0  0  0  0  0  0  0  0  0  0  0
   36.3950   30.2910   47.2040 C   0  0  0  0  0  0  0  0  0  0  0  0
   36.7780   30.6880   45.9600 C   0  0  0  0  0  0  0  0  0  0  0  0
   35.8960   30.5880   44.9070 C   0  0  0  0  0  0  0  0  0  0  0  0
   34.6270   30.0800   45.1460 C   0  0  0  0  0  0  0  0  0  0  0  0
   34.3020   29.6890   46.4540 C   0  0  0  0  0  0  0  0  0  0  0  0
   35.1530   29.7810   47.4910 C   0  0  0  0  0  0  0  0  0  0  0  0
   36.2200   30.9150   43.9110 H   0  0  0  0  0  0  0  0  0  0  0  0
   34.0020   30.0360   44.2690 H   0  0  0  0  0  0  0  0  0  0  0  0
   33.3380   29.3410   46.4530 H   0  0  0  0  0  0  0  0  0  0  0  0
   39.7810   32.8310   46.0370 C   0  0  0  0  0  0  0  0  0  0  0  0
   40.6450   32.0980   45.1480 C   0  0  0  0  0  0  0  0  0  0  0  0
   40.1570   30.9110   44.5690 C   0  0  0  0  0  0  0  0  0  0  0  0
   38.8970   30.5110   44.8740 N   0  0  0  0  0  0  0  0  0  0  0  0
   38.1070   31.2210   45.7140 C   0  0  0  0  0  0  0  0  0  0  0  0
   38.5510   32.3570   46.2770 N   0  0  0  0  0  0  0  0  0  0  0  0
   40.1610   33.7350   46.4730 H   0  0  0  0  0  0  0  0  0  0  0  0
   41.6190   32.5260   44.9930 H   0  0  0  0  0  0  0  0  0  0  0  0
   41.0300   30.2340   43.7130 N   0  0  0  0  0  0  0  0  0  0  0  0
   41.9730   29.8440   43.8330 H   0  0  0  0  0  0  0  0  0  0  0  0
   40.8070   30.0060   42.7030 H   0  0  0  0  0  0  0  0  0  0  0  0
   34.1130   28.0950   49.0280 C   0  0  0  0  0  0  0  0  0  0  0  0
   34.2620   27.4560   48.1110 H   0  0  0  0  0  0  0  0  0  0  0  0
   34.5350   27.4950   49.8620 H   0  0  0  0  0  0  0  0  0  0  0  0
   32.7690   28.2630   49.2750 O   0  0  0  0  0  0  0  0  0  0  0  0
   32.7390   26.3290   47.5070 O   0  0  0  0  0  0  0  0  0  0  0  0
   31.8520   27.3230   48.2430 P   0  0  2  0  0  0  0  0  0  0  0  0
   31.1070   28.3940   47.1360 O   0  0  0  0  0  0  0  0  0  0  0  0
   31.1870   27.7750   44.7570 C   0  0  2  0  0  3  0  0  0  0  0  0
   30.4940   27.8490   46.0780 C   0  0  1  0  0  3  0  0  0  0  0  0
   30.1650   26.3620   46.2760 C   0  0  0  0  0  3  0  0  0  0  0  0
   29.1560   26.2230   46.7180 H   0  0  0  0  0  0  0  0  0  0  0  0
   30.1880   25.7690   45.0400 O   0  0  0  0  0  0  0  0  0  0  0  0
   30.3220   26.7120   44.0580 C   0  0  0  0  0  3  0  0  0  0  0  0
   30.8870   26.2820   43.1980 H   0  0  0  0  0  0  0  0  0  0  0  0
   32.4640   27.2920   44.7670 O   0  0  0  0  0  0  0  0  0  0  0  0
   32.9890   27.7080   44.0380 H   0  0  0  0  0  0  0  0  0  0  0  0
   30.6550   26.5030   49.0390 O   0  0  0  0  0  0  0  0  0  0  0  0
   29.8730   27.3720   49.7780 C   0  0  0  0  0  0  0  0  0  0  0  0
   29.2920   26.7370   50.8780 F   0  0  0  0  0  0  0  0  0  0  0  0
   30.6230   28.4180   50.2830 F   0  0  0  0  0  0  0  0  0  0  0  0
   28.8640   27.8830   49.0070 F   0  0  0  0  0  0  0  0  0  0  0  0
  1 25  1  0  0  0  0
  1  3  1  0  0  0  0
  1  2  1  0  0  0  0
  5 10  1  0  0  0  0
  5  4  1  0  0  0  0
  6  5  2  0  0  0  0
  7  8  2  0  0  0  0
  7  6  1  0  0  0  0
  8  9  1  0  0  0  0
  9 10  2  0  0  0  0
 10  1  1  0  0  0  0
 11  7  1  0  0  0  0
 12  8  1  0  0  0  0
 13  9  1  0  0  0  0
 14 19  1  0  0  0  0
 14 20  1  0  0  0  0
 15 14  2  0  0  0  0
 16 17  2  0  0  0  0
 16 15  1  0  0  0  0
 17 18  1  0  0  0  0
 18  6  1  0  0  0  0
 18 19  2  0  0  0  0
 21 15  1  0  0  0  0
 22 23  1  0  0  0  0
 22 16  1  0  0  0  0
 24 22  1  0  0  0  0
 25 28  1  0  0  0  0
 25 27  1  0  0  0  0
 26 25  1  0  0  0  0
 30 29  2  6  0  0  0
 30 41  1  0  0  0  0
 30 28  1  0  0  0  0
 31 30  1  0  0  0  0
 32 39  1  1  0  0  0
 32 33  1  0  0  0  0
 33 34  1  0  0  0  0
 33 31  1  1  0  0  0
 34 35  1  0  0  0  0
 36 34  1  0  0  0  0
 37 32  1  0  0  0  0
 37 36  1  0  0  0  0
 38 37  1  0  0  0  0
 40 39  1  0  0  0  0
 41 42  1  0  0  0  0
 42 44  1  0  0  0  0
 42 43  1  0  0  0  0
 45 42  1  0  0  0  0
M  END
>  <minimizedAffinity>
-5.67463589

>  <minimizedRMSD>
0.327691793

$$$$
