
 OpenBabel03272504433D

 45 47  0  0  1  0  0  0  0  0999 V2000
   36.6930   28.2420   34.2670 C   0  0  0  0  0  0  0  0  0  0  0  0
   36.0020   28.2330   35.1600 H   0  0  0  0  0  0  0  0  0  0  0  0
   37.5930   28.7910   34.6740 H   0  0  0  0  0  0  0  0  0  0  0  0
   38.3510   26.9280   36.3530 Cl  0  0  0  0  0  0  0  0  0  0  0  0
   37.8800   26.1650   34.8410 C   0  0  0  0  0  0  0  0  0  0  0  0
   38.2930   24.8930   34.5860 C   0  0  0  0  0  0  0  0  0  0  0  0
   37.9340   24.2790   33.4060 C   0  0  0  0  0  0  0  0  0  0  0  0
   37.1540   24.9820   32.4990 C   0  0  0  0  0  0  0  0  0  0  0  0
   36.7650   26.2900   32.8290 C   0  0  0  0  0  0  0  0  0  0  0  0
   37.1080   26.9010   33.9770 C   0  0  0  0  0  0  0  0  0  0  0  0
   38.2760   23.2550   33.2160 H   0  0  0  0  0  0  0  0  0  0  0  0
   36.9200   24.4300   31.6040 H   0  0  0  0  0  0  0  0  0  0  0  0
   36.2000   26.6590   32.0570 H   0  0  0  0  0  0  0  0  0  0  0  0
   41.1340   23.1750   36.1970 C   0  0  0  0  0  0  0  0  0  0  0  0
   40.5220   22.7700   37.4370 C   0  0  0  0  0  0  0  0  0  0  0  0
   39.1720   23.1040   37.6560 C   0  0  0  0  0  0  0  0  0  0  0  0
   38.5090   23.7930   36.6940 N   0  0  0  0  0  0  0  0  0  0  0  0
   39.1100   24.1610   35.5380 C   0  0  0  0  0  0  0  0  0  0  0  0
   40.3970   23.8520   35.3060 N   0  0  0  0  0  0  0  0  0  0  0  0
   42.1620   22.9170   36.0370 H   0  0  0  0  0  0  0  0  0  0  0  0
   41.1600   22.2300   38.1120 H   0  0  0  0  0  0  0  0  0  0  0  0
   38.6210   22.6900   38.8730 N   0  0  0  0  0  0  0  0  0  0  0  0
   38.8720   22.8590   39.8550 H   0  0  0  0  0  0  0  0  0  0  0  0
   37.7660   22.0700   38.9520 H   0  0  0  0  0  0  0  0  0  0  0  0
   36.0560   29.0540   33.2360 C   0  0  0  0  0  0  0  0  0  0  0  0
   36.4340   30.1130   33.3290 H   0  0  0  0  0  0  0  0  0  0  0  0
   36.3050   28.7550   32.1960 H   0  0  0  0  0  0  0  0  0  0  0  0
   34.6850   29.0280   33.3590 O   0  0  0  0  0  0  0  0  0  0  0  0
   33.9590   30.6390   31.4240 O   0  0  0  0  0  0  0  0  0  0  0  0
   34.0220   30.5020   32.9380 P   0  0  2  0  0  0  0  0  0  0  0  0
   35.0380   31.7060   33.6070 O   0  0  0  0  0  0  0  0  0  0  0  0
   35.0650   31.5440   36.0610 C   0  0  2  0  0  3  0  0  0  0  0  0
   34.6760   32.2220   34.7870 C   0  0  1  0  0  3  0  0  0  0  0  0
   35.2780   33.6110   35.0440 C   0  0  0  0  0  3  0  0  0  0  0  0
   34.6100   34.4180   34.6790 H   0  0  0  0  0  0  0  0  0  0  0  0
   35.4290   33.7480   36.4000 O   0  0  0  0  0  0  0  0  0  0  0  0
   34.8480   32.6970   37.0570 C   0  0  0  0  0  3  0  0  0  0  0  0
   35.4080   32.4840   37.9970 H   0  0  0  0  0  0  0  0  0  0  0  0
   36.3730   31.1710   36.1760 O   0  0  0  0  0  0  0  0  0  0  0  0
   36.4460   30.3620   36.7410 H   0  0  0  0  0  0  0  0  0  0  0  0
   32.5060   30.7100   33.5700 O   0  0  0  0  0  0  0  0  0  0  0  0
   31.9080   29.4900   33.8230 C   0  0  0  0  0  0  0  0  0  0  0  0
   32.0480   28.6120   32.7450 F   0  0  0  0  0  0  0  0  0  0  0  0
   32.4840   28.8640   34.9120 F   0  0  0  0  0  0  0  0  0  0  0  0
   30.5700   29.6520   34.0630 F   0  0  0  0  0  0  0  0  0  0  0  0
  1  3  1  0  0  0  0
  1  2  1  0  0  0  0
  5  4  1  0  0  0  0
  6  5  1  0  0  0  0
  6 18  1  0  0  0  0
  7  6  2  0  0  0  0
  8  9  2  0  0  0  0
  8  7  1  0  0  0  0
  9 10  1  0  0  0  0
 10  1  1  0  0  0  0
 10  5  2  0  0  0  0
 11  7  1  0  0  0  0
 12  8  1  0  0  0  0
 13  9  1  0  0  0  0
 14 15  1  0  0  0  0
 15 16  2  0  0  0  0
 15 21  1  0  0  0  0
 16 22  1  0  0  0  0
 17 16  1  0  0  0  0
 18 17  2  0  0  0  0
 19 18  1  0  0  0  0
 19 14  2  0  0  0  0
 20 14  1  0  0  0  0
 22 24  1  0  0  0  0
 22 23  1  0  0  0  0
 25 26  1  0  0  0  0
 25 28  1  0  0  0  0
 25  1  1  0  0  0  0
 27 25  1  0  0  0  0
 30 29  2  6  0  0  0
 30 28  1  0  0  0  0
 30 41  1  0  0  0  0
 30 31  1  0  0  0  0
 32 39  1  6  0  0  0
 32 37  1  0  0  0  0
 33 31  1  6  0  0  0
 33 34  1  0  0  0  0
 33 32  1  0  0  0  0
 34 36  1  0  0  0  0
 35 34  1  0  0  0  0
 36 37  1  0  0  0  0
 37 38  1  0  0  0  0
 39 40  1  0  0  0  0
 41 42  1  0  0  0  0
 42 45  1  0  0  0  0
 42 44  1  0  0  0  0
 43 42  1  0  0  0  0
M  END
>  <minimizedAffinity>
-6.10940838

$$$$

 OpenBabel03272504433D

 45 47  0  0  1  0  0  0  0  0999 V2000
   37.4800   27.5830   32.7700 C   0  0  0  0  0  0  0  0  0  0  0  0
   37.9430   28.2340   33.5690 H   0  0  0  0  0  0  0  0  0  0  0  0
   38.1370   27.8050   31.8790 H   0  0  0  0  0  0  0  0  0  0  0  0
   37.9740   27.0280   35.6460 Cl  0  0  0  0  0  0  0  0  0  0  0  0
   37.9150   25.7910   34.3980 C   0  0  0  0  0  0  0  0  0  0  0  0
   38.1100   24.4900   34.7470 C   0  0  0  0  0  0  0  0  0  0  0  0
   38.0680   23.5080   33.7830 C   0  0  0  0  0  0  0  0  0  0  0  0
   37.8270   23.8750   32.4660 C   0  0  0  0  0  0  0  0  0  0  0  0
   37.6350   25.2360   32.1800 C   0  0  0  0  0  0  0  0  0  0  0  0
   37.6730   26.2050   33.1110 C   0  0  0  0  0  0  0  0  0  0  0  0
   38.2280   22.4640   34.0810 H   0  0  0  0  0  0  0  0  0  0  0  0
   37.8110   23.0470   31.7780 H   0  0  0  0  0  0  0  0  0  0  0  0
   37.4710   25.3290   31.1720 H   0  0  0  0  0  0  0  0  0  0  0  0
   37.9300   24.2640   38.4260 C   0  0  0  0  0  0  0  0  0  0  0  0
   38.9590   23.2870   38.6760 C   0  0  0  0  0  0  0  0  0  0  0  0
   39.6590   22.7580   37.5760 C   0  0  0  0  0  0  0  0  0  0  0  0
   39.3350   23.1890   36.3310 N   0  0  0  0  0  0  0  0  0  0  0  0
   38.3630   24.1090   36.1260 C   0  0  0  0  0  0  0  0  0  0  0  0
   37.6820   24.6290   37.1610 N   0  0  0  0  0  0  0  0  0  0  0  0
   37.4020   24.6630   39.2700 H   0  0  0  0  0  0  0  0  0  0  0  0
   39.1140   23.0340   39.7090 H   0  0  0  0  0  0  0  0  0  0  0  0
   40.6480   21.8130   37.8660 N   0  0  0  0  0  0  0  0  0  0  0  0
   40.6380   20.9090   38.3560 H   0  0  0  0  0  0  0  0  0  0  0  0
   41.6640   21.9180   37.5860 H   0  0  0  0  0  0  0  0  0  0  0  0
   36.1370   28.0970   32.5210 C   0  0  0  0  0  0  0  0  0  0  0  0
   35.7780   27.6950   31.5300 H   0  0  0  0  0  0  0  0  0  0  0  0
   35.3740   27.7630   33.2550 H   0  0  0  0  0  0  0  0  0  0  0  0
   36.1260   29.4740   32.5060 O   0  0  0  0  0  0  0  0  0  0  0  0
   34.2580   31.1260   31.7010 O   0  0  0  0  0  0  0  0  0  0  0  0
   34.5780   30.0580   32.7360 P   0  0  2  0  0  0  0  0  0  0  0  0
   34.5340   30.7210   34.3130 O   0  0  0  0  0  0  0  0  0  0  0  0
   35.9360   32.7070   33.9420 C   0  0  2  0  0  3  0  0  0  0  0  0
   35.5800   31.4650   34.6910 C   0  0  1  0  0  3  0  0  0  0  0  0
   35.4180   32.0560   36.0990 C   0  0  0  0  0  3  0  0  0  0  0  0
   35.8340   31.3810   36.8750 H   0  0  0  0  0  0  0  0  0  0  0  0
   36.1110   33.2390   36.1300 O   0  0  0  0  0  0  0  0  0  0  0  0
   36.8350   33.4010   34.9800 C   0  0  0  0  0  3  0  0  0  0  0  0
   36.9140   34.4860   34.7360 H   0  0  0  0  0  0  0  0  0  0  0  0
   34.9130   33.5710   33.6730 O   0  0  0  0  0  0  0  0  0  0  0  0
   35.0890   34.0530   32.8280 H   0  0  0  0  0  0  0  0  0  0  0  0
   33.4380   28.8600   32.6590 O   0  0  0  0  0  0  0  0  0  0  0  0
   32.3190   29.1990   33.3970 C   0  0  0  0  0  0  0  0  0  0  0  0
   31.9800   30.5450   33.2350 F   0  0  0  0  0  0  0  0  0  0  0  0
   31.2150   28.4690   32.9990 F   0  0  0  0  0  0  0  0  0  0  0  0
   32.5380   28.9790   34.7300 F   0  0  0  0  0  0  0  0  0  0  0  0
  1 10  1  0  0  0  0
  1  2  1  0  0  0  0
  3  1  1  0  0  0  0
  5  6  1  0  0  0  0
  5  4  1  0  0  0  0
  6 18  1  0  0  0  0
  7 11  1  0  0  0  0
  7  6  2  0  0  0  0
  8  7  1  0  0  0  0
  9  8  2  0  0  0  0
  9 10  1  0  0  0  0
 10  5  2  0  0  0  0
 12  8  1  0  0  0  0
 13  9  1  0  0  0  0
 14 15  1  0  0  0  0
 14 20  1  0  0  0  0
 15 21  1  0  0  0  0
 16 22  1  0  0  0  0
 16 15  2  0  0  0  0
 17 16  1  0  0  0  0
 18 17  2  0  0  0  0
 18 19  1  0  0  0  0
 19 14  2  0  0  0  0
 22 23  1  0  0  0  0
 24 22  1  0  0  0  0
 25  1  1  0  0  0  0
 25 27  1  0  0  0  0
 26 25  1  0  0  0  0
 28 25  1  0  0  0  0
 28 30  1  0  0  0  0
 30 29  2  6  0  0  0
 30 31  1  0  0  0  0
 32 39  1  1  0  0  0
 32 33  1  0  0  0  0
 32 37  1  0  0  0  0
 33 31  1  6  0  0  0
 33 34  1  0  0  0  0
 34 36  1  0  0  0  0
 34 35  1  0  0  0  0
 37 36  1  0  0  0  0
 38 37  1  0  0  0  0
 40 39  1  0  0  0  0
 41 30  1  0  0  0  0
 41 42  1  0  0  0  0
 42 45  1  0  0  0  0
 43 42  1  0  0  0  0
 44 42  1  0  0  0  0
M  END
>  <minimizedAffinity>
-5.88056755

$$$$

 OpenBabel03272504433D

 45 47  0  0  1  0  0  0  0  0999 V2000
   39.1120   26.1040   33.6790 C   0  0  0  0  0  0  0  0  0  0  0  0
   40.2210   26.3080   33.6080 H   0  0  0  0  0  0  0  0  0  0  0  0
   38.8890   26.3990   34.7470 H   0  0  0  0  0  0  0  0  0  0  0  0
   36.7810   27.4720   34.9110 Cl  0  0  0  0  0  0  0  0  0  0  0  0
   37.3090   27.7210   33.2530 C   0  0  0  0  0  0  0  0  0  0  0  0
   36.6180   28.5880   32.4630 C   0  0  0  0  0  0  0  0  0  0  0  0
   37.0160   28.7950   31.1610 C   0  0  0  0  0  0  0  0  0  0  0  0
   38.1220   28.1060   30.6840 C   0  0  0  0  0  0  0  0  0  0  0  0
   38.7860   27.2280   31.5550 C   0  0  0  0  0  0  0  0  0  0  0  0
   38.4080   27.0170   32.8280 C   0  0  0  0  0  0  0  0  0  0  0  0
   36.4470   29.4960   30.5380 H   0  0  0  0  0  0  0  0  0  0  0  0
   38.3640   28.3260   29.6580 H   0  0  0  0  0  0  0  0  0  0  0  0
   39.5700   26.8080   31.0470 H   0  0  0  0  0  0  0  0  0  0  0  0
   34.4810   31.0600   34.1780 C   0  0  0  0  0  0  0  0  0  0  0  0
   33.1760   30.5530   33.8390 C   0  0  0  0  0  0  0  0  0  0  0  0
   33.0940   29.3950   33.0430 C   0  0  0  0  0  0  0  0  0  0  0  0
   34.2460   28.8080   32.6310 N   0  0  0  0  0  0  0  0  0  0  0  0
   35.4600   29.3070   32.9650 C   0  0  0  0  0  0  0  0  0  0  0  0
   35.5620   30.4110   33.7250 N   0  0  0  0  0  0  0  0  0  0  0  0
   34.5340   31.9430   34.7850 H   0  0  0  0  0  0  0  0  0  0  0  0
   32.3470   31.1140   34.2310 H   0  0  0  0  0  0  0  0  0  0  0  0
   31.8070   28.9410   32.7400 N   0  0  0  0  0  0  0  0  0  0  0  0
   30.9980   29.3720   32.2780 H   0  0  0  0  0  0  0  0  0  0  0  0
   31.4540   27.9700   32.9770 H   0  0  0  0  0  0  0  0  0  0  0  0
   38.9270   24.6650   33.5270 C   0  0  0  0  0  0  0  0  0  0  0  0
   38.7590   24.4390   32.4340 H   0  0  0  0  0  0  0  0  0  0  0  0
   39.8120   24.0560   33.8080 H   0  0  0  0  0  0  0  0  0  0  0  0
   37.8600   24.2180   34.2730 O   0  0  0  0  0  0  0  0  0  0  0  0
   39.8170   22.8750   35.3840 O   0  0  0  0  0  0  0  0  0  0  0  0
   38.3050   22.9220   35.2290 P   0  0  2  0  0  0  0  0  0  0  0  0
   37.7400   21.5130   34.4390 O   0  0  0  0  0  0  0  0  0  0  0  0
   37.0250   21.4900   32.0850 C   0  0  2  0  0  3  0  0  0  0  0  0
   36.7570   21.6690   33.5440 C   0  0  1  0  0  3  0  0  0  0  0  0
   35.6200   20.6520   33.7200 C   0  0  0  0  0  3  0  0  0  0  0  0
   34.8320   21.0350   34.3990 H   0  0  0  0  0  0  0  0  0  0  0  0
   35.0670   20.4380   32.4830 O   0  0  0  0  0  0  0  0  0  0  0  0
   35.5880   21.3100   31.5660 C   0  0  0  0  0  3  0  0  0  0  0  0
   35.6150   20.8280   30.5620 H   0  0  0  0  0  0  0  0  0  0  0  0
   37.7130   20.3670   31.7270 O   0  0  0  0  0  0  0  0  0  0  0  0
   38.2520   20.5440   30.9160 H   0  0  0  0  0  0  0  0  0  0  0  0
   37.6020   22.9780   36.7270 O   0  0  0  0  0  0  0  0  0  0  0  0
   38.2440   23.8970   37.5370 C   0  0  0  0  0  0  0  0  0  0  0  0
   38.5600   25.0670   36.8420 F   0  0  0  0  0  0  0  0  0  0  0  0
   37.4440   24.2770   38.5980 F   0  0  0  0  0  0  0  0  0  0  0  0
   39.4090   23.3710   38.0270 F   0  0  0  0  0  0  0  0  0  0  0  0
  1  3  1  0  0  0  0
  2  1  1  0  0  0  0
  5  4  1  0  0  0  0
  6 18  1  0  0  0  0
  6  5  2  0  0  0  0
  7  6  1  0  0  0  0
  8  7  2  0  0  0  0
  8  9  1  0  0  0  0
  9 10  2  0  0  0  0
 10  5  1  0  0  0  0
 10  1  1  0  0  0  0
 11  7  1  0  0  0  0
 12  8  1  0  0  0  0
 13  9  1  0  0  0  0
 14 20  1  0  0  0  0
 15 14  1  0  0  0  0
 15 21  1  0  0  0  0
 16 15  2  0  0  0  0
 17 18  2  0  0  0  0
 17 16  1  0  0  0  0
 18 19  1  0  0  0  0
 19 14  2  0  0  0  0
 22 24  1  0  0  0  0
 22 16  1  0  0  0  0
 23 22  1  0  0  0  0
 25  1  1  0  0  0  0
 25 27  1  0  0  0  0
 25 28  1  0  0  0  0
 26 25  1  0  0  0  0
 28 30  1  0  0  0  0
 30 29  2  1  0  0  0
 30 41  1  0  0  0  0
 31 30  1  0  0  0  0
 32 39  1  1  0  0  0
 32 33  1  0  0  0  0
 33 34  1  0  0  0  0
 33 31  1  1  0  0  0
 34 35  1  0  0  0  0
 36 34  1  0  0  0  0
 37 32  1  0  0  0  0
 37 36  1  0  0  0  0
 38 37  1  0  0  0  0
 40 39  1  0  0  0  0
 41 42  1  0  0  0  0
 42 45  1  0  0  0  0
 42 44  1  0  0  0  0
 43 42  1  0  0  0  0
M  END
>  <minimizedAffinity>
-5.80045891

$$$$

 OpenBabel03272504433D

 45 47  0  0  1  0  0  0  0  0999 V2000
   39.8050   26.9190   31.7720 C   0  0  0  0  0  0  0  0  0  0  0  0
   40.3480   27.4790   32.5890 H   0  0  0  0  0  0  0  0  0  0  0  0
   40.6290   26.7550   31.0150 H   0  0  0  0  0  0  0  0  0  0  0  0
   39.7300   26.6360   34.7280 Cl  0  0  0  0  0  0  0  0  0  0  0  0
   39.3350   25.3450   33.6020 C   0  0  0  0  0  0  0  0  0  0  0  0
   38.9740   24.1280   34.0930 C   0  0  0  0  0  0  0  0  0  0  0  0
   38.6620   23.1030   33.2260 C   0  0  0  0  0  0  0  0  0  0  0  0
   38.7270   23.3420   31.8610 C   0  0  0  0  0  0  0  0  0  0  0  0
   39.1070   24.6220   31.4270 C   0  0  0  0  0  0  0  0  0  0  0  0
   39.4140   25.6310   32.2620 C   0  0  0  0  0  0  0  0  0  0  0  0
   38.3740   22.1290   33.6390 H   0  0  0  0  0  0  0  0  0  0  0  0
   38.4680   22.4900   31.2560 H   0  0  0  0  0  0  0  0  0  0  0  0
   39.1030   24.6250   30.4010 H   0  0  0  0  0  0  0  0  0  0  0  0
   37.9840   24.2590   37.6460 C   0  0  0  0  0  0  0  0  0  0  0  0
   38.9080   23.3070   38.2070 C   0  0  0  0  0  0  0  0  0  0  0  0
   39.8190   22.6710   37.3440 C   0  0  0  0  0  0  0  0  0  0  0  0
   39.7880   22.9810   36.0230 N   0  0  0  0  0  0  0  0  0  0  0  0
   38.9080   23.8810   35.5230 C   0  0  0  0  0  0  0  0  0  0  0  0
   38.0290   24.5010   36.3290 N   0  0  0  0  0  0  0  0  0  0  0  0
   37.2930   24.7400   38.3110 H   0  0  0  0  0  0  0  0  0  0  0  0
   38.8260   23.1540   39.2680 H   0  0  0  0  0  0  0  0  0  0  0  0
   40.6960   21.7550   37.9330 N   0  0  0  0  0  0  0  0  0  0  0  0
   40.5560   20.9030   38.4900 H   0  0  0  0  0  0  0  0  0  0  0  0
   41.7510   21.8290   37.8760 H   0  0  0  0  0  0  0  0  0  0  0  0
   38.8090   27.8270   31.2140 C   0  0  0  0  0  0  0  0  0  0  0  0
   39.3050   28.8180   31.0030 H   0  0  0  0  0  0  0  0  0  0  0  0
   38.3920   27.5060   30.2360 H   0  0  0  0  0  0  0  0  0  0  0  0
   37.7530   28.0000   32.0790 O   0  0  0  0  0  0  0  0  0  0  0  0
   36.2920   29.3190   30.3500 O   0  0  0  0  0  0  0  0  0  0  0  0
   36.3080   28.0890   31.2450 P   0  0  2  0  0  0  0  0  0  0  0  0
   35.0680   28.1870   32.4200 O   0  0  0  0  0  0  0  0  0  0  0  0
   33.3480   29.9450   32.4340 C   0  0  2  0  0  3  0  0  0  0  0  0
   34.6920   29.4110   32.8100 C   0  0  1  0  0  3  0  0  0  0  0  0
   34.6050   29.5540   34.3360 C   0  0  0  0  0  3  0  0  0  0  0  0
   35.5670   29.8970   34.7680 H   0  0  0  0  0  0  0  0  0  0  0  0
   33.6430   30.4930   34.6060 O   0  0  0  0  0  0  0  0  0  0  0  0
   33.2210   31.0940   33.4500 C   0  0  0  0  0  3  0  0  0  0  0  0
   32.1500   31.3840   33.5480 H   0  0  0  0  0  0  0  0  0  0  0  0
   32.2840   29.1170   32.6470 O   0  0  0  0  0  0  0  0  0  0  0  0
   31.5770   29.2950   31.9770 H   0  0  0  0  0  0  0  0  0  0  0  0
   36.0310   26.7400   30.3280 O   0  0  0  0  0  0  0  0  0  0  0  0
   35.5840   25.6950   31.1140 C   0  0  0  0  0  0  0  0  0  0  0  0
   36.1180   25.7520   32.4040 F   0  0  0  0  0  0  0  0  0  0  0  0
   34.2090   25.7280   31.2600 F   0  0  0  0  0  0  0  0  0  0  0  0
   35.9410   24.4930   30.5640 F   0  0  0  0  0  0  0  0  0  0  0  0
  1 10  1  0  0  0  0
  1  2  1  0  0  0  0
  3  1  1  0  0  0  0
  5  6  1  0  0  0  0
  5  4  1  0  0  0  0
  6 18  1  0  0  0  0
  7 11  1  0  0  0  0
  7  6  2  0  0  0  0
  8  7  1  0  0  0  0
  9  8  2  0  0  0  0
  9 10  1  0  0  0  0
 10  5  2  0  0  0  0
 12  8  1  0  0  0  0
 13  9  1  0  0  0  0
 14 15  1  0  0  0  0
 14 20  1  0  0  0  0
 15 21  1  0  0  0  0
 16 22  1  0  0  0  0
 16 15  2  0  0  0  0
 17 16  1  0  0  0  0
 18 17  2  0  0  0  0
 18 19  1  0  0  0  0
 19 14  2  0  0  0  0
 22 23  1  0  0  0  0
 24 22  1  0  0  0  0
 25  1  1  0  0  0  0
 25 28  1  0  0  0  0
 26 25  1  0  0  0  0
 27 25  1  0  0  0  0
 30 29  2  6  0  0  0
 30 28  1  0  0  0  0
 30 31  1  0  0  0  0
 32 39  1  1  0  0  0
 32 33  1  0  0  0  0
 32 37  1  0  0  0  0
 33 31  1  1  0  0  0
 33 34  1  0  0  0  0
 34 36  1  0  0  0  0
 34 35  1  0  0  0  0
 37 38  1  0  0  0  0
 37 36  1  0  0  0  0
 40 39  1  0  0  0  0
 41 42  1  0  0  0  0
 41 30  1  0  0  0  0
 42 44  1  0  0  0  0
 42 43  1  0  0  0  0
 45 42  1  0  0  0  0
M  END
>  <minimizedAffinity>
-5.773417

$$$$

 OpenBabel03272504433D

 45 47  0  0  1  0  0  0  0  0999 V2000
   38.8700   26.8700   35.2010 C   0  0  0  0  0  0  0  0  0  0  0  0
   38.6640   27.6310   36.0100 H   0  0  0  0  0  0  0  0  0  0  0  0
   39.9640   27.0510   34.9840 H   0  0  0  0  0  0  0  0  0  0  0  0
   41.1810   25.0690   34.7130 Cl  0  0  0  0  0  0  0  0  0  0  0  0
   39.7400   24.6060   35.6070 C   0  0  0  0  0  0  0  0  0  0  0  0
   39.6540   23.3450   36.1130 C   0  0  0  0  0  0  0  0  0  0  0  0
   38.5320   22.9630   36.8150 C   0  0  0  0  0  0  0  0  0  0  0  0
   37.5080   23.8840   36.9880 C   0  0  0  0  0  0  0  0  0  0  0  0
   37.6660   25.1660   36.4390 C   0  0  0  0  0  0  0  0  0  0  0  0
   38.7560   25.5520   35.7510 C   0  0  0  0  0  0  0  0  0  0  0  0
   38.4780   21.9430   37.2140 H   0  0  0  0  0  0  0  0  0  0  0  0
   36.6690   23.5040   37.5470 H   0  0  0  0  0  0  0  0  0  0  0  0
   36.8270   25.7120   36.6580 H   0  0  0  0  0  0  0  0  0  0  0  0
   42.2860   21.2570   34.5860 C   0  0  0  0  0  0  0  0  0  0  0  0
   42.7460   20.5330   35.7430 C   0  0  0  0  0  0  0  0  0  0  0  0
   42.1330   20.7960   36.9830 C   0  0  0  0  0  0  0  0  0  0  0  0
   41.1390   21.7180   37.0330 N   0  0  0  0  0  0  0  0  0  0  0  0
   40.7270   22.3840   35.9290 C   0  0  0  0  0  0  0  0  0  0  0  0
   41.2970   22.1480   34.7340 N   0  0  0  0  0  0  0  0  0  0  0  0
   42.7570   21.0510   33.6450 H   0  0  0  0  0  0  0  0  0  0  0  0
   43.5400   19.8320   35.5640 H   0  0  0  0  0  0  0  0  0  0  0  0
   42.6120   20.0700   38.0780 N   0  0  0  0  0  0  0  0  0  0  0  0
   43.5410   19.9690   38.5040 H   0  0  0  0  0  0  0  0  0  0  0  0
   42.0050   19.4510   38.6860 H   0  0  0  0  0  0  0  0  0  0  0  0
   38.0760   27.2520   34.0380 C   0  0  0  0  0  0  0  0  0  0  0  0
   37.1750   26.5750   33.9810 H   0  0  0  0  0  0  0  0  0  0  0  0
   37.6560   28.2790   34.0870 H   0  0  0  0  0  0  0  0  0  0  0  0
   38.8140   27.1590   32.8800 O   0  0  0  0  0  0  0  0  0  0  0  0
   39.1310   24.8330   31.7160 O   0  0  0  0  0  0  0  0  0  0  0  0
   38.1720   26.0050   31.8570 P   0  0  2  0  0  0  0  0  0  0  0  0
   37.9340   26.7690   30.3440 O   0  0  0  0  0  0  0  0  0  0  0  0
   38.4260   28.8260   29.0890 C   0  0  2  0  0  3  0  0  0  0  0  0
   37.9850   28.1060   30.3210 C   0  0  1  0  0  3  0  0  0  0  0  0
   36.6100   28.7620   30.5200 C   0  0  0  0  0  3  0  0  0  0  0  0
   36.4040   28.9570   31.5920 H   0  0  0  0  0  0  0  0  0  0  0  0
   36.6270   29.9590   29.8510 O   0  0  0  0  0  0  0  0  0  0  0  0
   37.8860   30.2350   29.3910 C   0  0  0  0  0  3  0  0  0  0  0  0
   37.8200   30.8170   28.4430 H   0  0  0  0  0  0  0  0  0  0  0  0
   37.8510   28.4320   27.9150 O   0  0  0  0  0  0  0  0  0  0  0  0
   38.4850   28.5620   27.1660 H   0  0  0  0  0  0  0  0  0  0  0  0
   36.7020   25.4520   32.3810 O   0  0  0  0  0  0  0  0  0  0  0  0
   36.0120   24.8390   31.3500 C   0  0  0  0  0  0  0  0  0  0  0  0
   35.2690   25.7590   30.6070 F   0  0  0  0  0  0  0  0  0  0  0  0
   36.8760   24.2270   30.4620 F   0  0  0  0  0  0  0  0  0  0  0  0
   35.1470   23.9010   31.8440 F   0  0  0  0  0  0  0  0  0  0  0  0
  1 10  1  0  0  0  0
  1  2  1  0  0  0  0
  3  1  1  0  0  0  0
  4  5  1  0  0  0  0
  5 10  2  0  0  0  0
  5  6  1  0  0  0  0
  6  7  2  0  0  0  0
  7  8  1  0  0  0  0
  7 11  1  0  0  0  0
  8 12  1  0  0  0  0
  9 13  1  0  0  0  0
  9  8  2  0  0  0  0
 10  9  1  0  0  0  0
 14 19  2  0  0  0  0
 14 15  1  0  0  0  0
 15 16  2  0  0  0  0
 16 17  1  0  0  0  0
 16 22  1  0  0  0  0
 18  6  1  0  0  0  0
 18 17  2  0  0  0  0
 19 18  1  0  0  0  0
 20 14  1  0  0  0  0
 21 15  1  0  0  0  0
 22 23  1  0  0  0  0
 22 24  1  0  0  0  0
 25 27  1  0  0  0  0
 25  1  1  0  0  0  0
 26 25  1  0  0  0  0
 28 25  1  0  0  0  0
 30 29  2  6  0  0  0
 30 41  1  0  0  0  0
 30 28  1  0  0  0  0
 31 30  1  0  0  0  0
 32 39  1  6  0  0  0
 32 37  1  0  0  0  0
 32 33  1  0  0  0  0
 33 31  1  6  0  0  0
 33 34  1  0  0  0  0
 34 35  1  0  0  0  0
 36 34  1  0  0  0  0
 37 36  1  0  0  0  0
 38 37  1  0  0  0  0
 40 39  1  0  0  0  0
 42 45  1  0  0  0  0
 42 41  1  0  0  0  0
 43 42  1  0  0  0  0
 44 42  1  0  0  0  0
M  END
>  <minimizedAffinity>
-5.76649332

$$$$

 OpenBabel03272504433D

 45 47  0  0  1  0  0  0  0  0999 V2000
   41.5760   26.2320   34.1970 C   0  0  0  0  0  0  0  0  0  0  0  0
   41.8470   26.7380   33.2250 H   0  0  0  0  0  0  0  0  0  0  0  0
   42.1170   26.8740   34.9530 H   0  0  0  0  0  0  0  0  0  0  0  0
   39.7960   25.3920   31.9720 Cl  0  0  0  0  0  0  0  0  0  0  0  0
   39.2240   26.0440   33.5010 C   0  0  0  0  0  0  0  0  0  0  0  0
   37.8850   26.1870   33.6990 C   0  0  0  0  0  0  0  0  0  0  0  0
   37.4180   26.6970   34.8900 C   0  0  0  0  0  0  0  0  0  0  0  0
   38.3360   27.0570   35.8670 C   0  0  0  0  0  0  0  0  0  0  0  0
   39.7020   26.8820   35.5930 C   0  0  0  0  0  0  0  0  0  0  0  0
   40.1710   26.3850   34.4350 C   0  0  0  0  0  0  0  0  0  0  0  0
   36.3360   26.8060   35.0320 H   0  0  0  0  0  0  0  0  0  0  0  0
   37.8880   27.4460   36.7650 H   0  0  0  0  0  0  0  0  0  0  0  0
   40.2340   27.1940   36.4120 H   0  0  0  0  0  0  0  0  0  0  0  0
   35.3690   26.3430   31.0030 C   0  0  0  0  0  0  0  0  0  0  0  0
   35.1500   24.9380   30.7730 C   0  0  0  0  0  0  0  0  0  0  0  0
   35.8710   24.0120   31.5500 C   0  0  0  0  0  0  0  0  0  0  0  0
   36.7410   24.4820   32.4790 N   0  0  0  0  0  0  0  0  0  0  0  0
   36.9270   25.8090   32.6740 C   0  0  0  0  0  0  0  0  0  0  0  0
   36.2490   26.7110   31.9440 N   0  0  0  0  0  0  0  0  0  0  0  0
   34.8160   27.0410   30.4070 H   0  0  0  0  0  0  0  0  0  0  0  0
   34.4330   24.7020   30.0070 H   0  0  0  0  0  0  0  0  0  0  0  0
   35.6240   22.6600   31.2920 N   0  0  0  0  0  0  0  0  0  0  0  0
   35.6960   22.0790   30.4480 H   0  0  0  0  0  0  0  0  0  0  0  0
   35.2890   21.9720   32.0240 H   0  0  0  0  0  0  0  0  0  0  0  0
   42.1770   24.9020   34.1730 C   0  0  0  0  0  0  0  0  0  0  0  0
   41.8560   24.3810   33.2260 H   0  0  0  0  0  0  0  0  0  0  0  0
   43.2860   24.9010   34.1350 H   0  0  0  0  0  0  0  0  0  0  0  0
   41.7980   24.1650   35.2730 O   0  0  0  0  0  0  0  0  0  0  0  0
   40.9200   22.5600   33.3970 O   0  0  0  0  0  0  0  0  0  0  0  0
   41.4140   22.5990   34.8350 P   0  0  2  0  0  0  0  0  0  0  0  0
   40.1840   22.0790   35.9050 O   0  0  0  0  0  0  0  0  0  0  0  0
   37.9160   22.9960   36.1620 C   0  0  2  0  0  3  0  0  0  0  0  0
   39.3870   23.0210   36.4230 C   0  0  1  0  0  3  0  0  0  0  0  0
   39.3730   23.0170   37.9580 C   0  0  0  0  0  3  0  0  0  0  0  0
   40.1520   23.6880   38.3740 H   0  0  0  0  0  0  0  0  0  0  0  0
   38.1430   23.4730   38.3580 O   0  0  0  0  0  0  0  0  0  0  0  0
   37.4270   23.9280   37.2840 C   0  0  0  0  0  3  0  0  0  0  0  0
   36.3390   23.7580   37.4580 H   0  0  0  0  0  0  0  0  0  0  0  0
   37.2860   21.7990   36.3470 O   0  0  0  0  0  0  0  0  0  0  0  0
   36.5160   21.7220   35.7310 H   0  0  0  0  0  0  0  0  0  0  0  0
   42.6990   21.5690   35.0010 O   0  0  0  0  0  0  0  0  0  0  0  0
   43.3590   21.7960   36.1950 C   0  0  0  0  0  0  0  0  0  0  0  0
   42.4660   21.9910   37.2510 F   0  0  0  0  0  0  0  0  0  0  0  0
   44.1480   20.7170   36.5460 F   0  0  0  0  0  0  0  0  0  0  0  0
   44.1490   22.9100   36.1020 F   0  0  0  0  0  0  0  0  0  0  0  0
  1 10  1  0  0  0  0
  1  3  1  0  0  0  0
  2  1  1  0  0  0  0
  4  5  1  0  0  0  0
  5  6  2  0  0  0  0
  5 10  1  0  0  0  0
  6  7  1  0  0  0  0
  7 11  1  0  0  0  0
  7  8  2  0  0  0  0
  8 12  1  0  0  0  0
  9  8  1  0  0  0  0
  9 13  1  0  0  0  0
 10  9  2  0  0  0  0
 14 19  1  0  0  0  0
 15 14  2  0  0  0  0
 15 16  1  0  0  0  0
 16 17  2  0  0  0  0
 17 18  1  0  0  0  0
 18  6  1  0  0  0  0
 19 18  2  0  0  0  0
 20 14  1  0  0  0  0
 21 15  1  0  0  0  0
 22 16  1  0  0  0  0
 22 24  1  0  0  0  0
 23 22  1  0  0  0  0
 25  1  1  0  0  0  0
 25 28  1  0  0  0  0
 26 25  1  0  0  0  0
 27 25  1  0  0  0  0
 30 29  2  6  0  0  0
 30 41  1  0  0  0  0
 30 28  1  0  0  0  0
 30 31  1  0  0  0  0
 32 39  1  1  0  0  0
 32 33  1  0  0  0  0
 32 37  1  0  0  0  0
 33 31  1  6  0  0  0
 33 34  1  0  0  0  0
 34 36  1  0  0  0  0
 34 35  1  0  0  0  0
 37 38  1  0  0  0  0
 37 36  1  0  0  0  0
 40 39  1  0  0  0  0
 41 42  1  0  0  0  0
 42 44  1  0  0  0  0
 42 43  1  0  0  0  0
 45 42  1  0  0  0  0
M  END
>  <minimizedAffinity>
-5.72509432

$$$$

 OpenBabel03272504433D

 45 47  0  0  1  0  0  0  0  0999 V2000
   37.0840   28.1050   33.6080 C   0  0  0  0  0  0  0  0  0  0  0  0
   38.0150   28.6220   33.9820 H   0  0  0  0  0  0  0  0  0  0  0  0
   37.0120   28.4900   32.5480 H   0  0  0  0  0  0  0  0  0  0  0  0
   38.7780   26.9730   35.7690 Cl  0  0  0  0  0  0  0  0  0  0  0  0
   38.0900   26.0270   34.4570 C   0  0  0  0  0  0  0  0  0  0  0  0
   38.3390   24.6900   34.4050 C   0  0  0  0  0  0  0  0  0  0  0  0
   37.8090   23.9330   33.3830 C   0  0  0  0  0  0  0  0  0  0  0  0
   37.0280   24.5610   32.4240 C   0  0  0  0  0  0  0  0  0  0  0  0
   36.8130   25.9430   32.5420 C   0  0  0  0  0  0  0  0  0  0  0  0
   37.3240   26.6940   33.5330 C   0  0  0  0  0  0  0  0  0  0  0  0
   38.0210   22.8570   33.3560 H   0  0  0  0  0  0  0  0  0  0  0  0
   36.6540   23.8970   31.6630 H   0  0  0  0  0  0  0  0  0  0  0  0
   36.2210   26.2410   31.7590 H   0  0  0  0  0  0  0  0  0  0  0  0
   41.1980   23.1520   36.1610 C   0  0  0  0  0  0  0  0  0  0  0  0
   40.5730   22.7960   37.4090 C   0  0  0  0  0  0  0  0  0  0  0  0
   39.2100   23.0990   37.5850 C   0  0  0  0  0  0  0  0  0  0  0  0
   38.5460   23.7130   36.5740 N   0  0  0  0  0  0  0  0  0  0  0  0
   39.1590   24.0360   35.4100 C   0  0  0  0  0  0  0  0  0  0  0  0
   40.4590   23.7550   35.2200 N   0  0  0  0  0  0  0  0  0  0  0  0
   42.2360   22.9160   36.0340 H   0  0  0  0  0  0  0  0  0  0  0  0
   41.2140   22.3130   38.1240 H   0  0  0  0  0  0  0  0  0  0  0  0
   38.6470   22.7350   38.8120 N   0  0  0  0  0  0  0  0  0  0  0  0
   38.8730   22.9650   39.7870 H   0  0  0  0  0  0  0  0  0  0  0  0
   37.8100   22.0940   38.9090 H   0  0  0  0  0  0  0  0  0  0  0  0
   35.9630   28.6200   34.3870 C   0  0  0  0  0  0  0  0  0  0  0  0
   35.5590   27.7850   35.0290 H   0  0  0  0  0  0  0  0  0  0  0  0
   36.2320   29.4230   35.1040 H   0  0  0  0  0  0  0  0  0  0  0  0
   34.9710   29.1100   33.5670 O   0  0  0  0  0  0  0  0  0  0  0  0
   35.9160   31.5430   33.3330 O   0  0  0  0  0  0  0  0  0  0  0  0
   34.7270   30.7400   33.8390 P   0  0  2  0  0  0  0  0  0  0  0  0
   34.5490   30.9340   35.5300 O   0  0  0  0  0  0  0  0  0  0  0  0
   32.5960   31.9240   36.6500 C   0  0  2  0  0  3  0  0  0  0  0  0
   33.9130   32.0330   35.9540 C   0  0  1  0  0  3  0  0  0  0  0  0
   34.7010   32.8080   37.0200 C   0  0  0  0  0  3  0  0  0  0  0  0
   35.3610   33.5730   36.5630 H   0  0  0  0  0  0  0  0  0  0  0  0
   33.7890   33.4410   37.8250 O   0  0  0  0  0  0  0  0  0  0  0  0
   32.5250   33.3110   37.3140 C   0  0  0  0  0  3  0  0  0  0  0  0
   31.7840   33.2870   38.1450 H   0  0  0  0  0  0  0  0  0  0  0  0
   32.5140   31.0060   37.6580 O   0  0  0  0  0  0  0  0  0  0  0  0
   31.5920   30.6520   37.7200 H   0  0  0  0  0  0  0  0  0  0  0  0
   33.3440   31.2950   33.1180 O   0  0  0  0  0  0  0  0  0  0  0  0
   33.0380   30.5420   31.9990 C   0  0  0  0  0  0  0  0  0  0  0  0
   34.1590   30.3360   31.1920 F   0  0  0  0  0  0  0  0  0  0  0  0
   32.5740   29.2880   32.3500 F   0  0  0  0  0  0  0  0  0  0  0  0
   32.0860   31.1710   31.2440 F   0  0  0  0  0  0  0  0  0  0  0  0
  1  2  1  0  0  0  0
  1 25  1  0  0  0  0
  3  1  1  0  0  0  0
  5  4  1  0  0  0  0
  6  5  1  0  0  0  0
  6 18  1  0  0  0  0
  7  6  2  0  0  0  0
  8  9  2  0  0  0  0
  8  7  1  0  0  0  0
  9 10  1  0  0  0  0
 10  1  1  0  0  0  0
 10  5  2  0  0  0  0
 11  7  1  0  0  0  0
 12  8  1  0  0  0  0
 13  9  1  0  0  0  0
 14 15  1  0  0  0  0
 15 16  2  0  0  0  0
 15 21  1  0  0  0  0
 16 22  1  0  0  0  0
 17 16  1  0  0  0  0
 18 17  2  0  0  0  0
 19 18  1  0  0  0  0
 19 14  2  0  0  0  0
 20 14  1  0  0  0  0
 22 24  1  0  0  0  0
 22 23  1  0  0  0  0
 25 26  1  0  0  0  0
 25 27  1  0  0  0  0
 28 30  1  0  0  0  0
 28 25  1  0  0  0  0
 30 29  2  6  0  0  0
 30 31  1  0  0  0  0
 32 37  1  0  0  0  0
 32 39  1  1  0  0  0
 33 31  1  1  0  0  0
 33 32  1  0  0  0  0
 33 34  1  0  0  0  0
 34 36  1  0  0  0  0
 35 34  1  0  0  0  0
 37 36  1  0  0  0  0
 37 38  1  0  0  0  0
 39 40  1  0  0  0  0
 41 30  1  0  0  0  0
 42 44  1  0  0  0  0
 42 41  1  0  0  0  0
 43 42  1  0  0  0  0
 45 42  1  0  0  0  0
M  END
>  <minimizedAffinity>
-5.71528196

$$$$

 OpenBabel03272504433D

 45 47  0  0  1  0  0  0  0  0999 V2000
   38.8570   26.2680   33.2230 C   0  0  0  0  0  0  0  0  0  0  0  0
   39.8760   26.6130   32.8800 H   0  0  0  0  0  0  0  0  0  0  0  0
   38.9190   26.4340   34.3390 H   0  0  0  0  0  0  0  0  0  0  0  0
   37.2550   27.7090   35.2680 Cl  0  0  0  0  0  0  0  0  0  0  0  0
   37.0370   27.8920   33.5330 C   0  0  0  0  0  0  0  0  0  0  0  0
   36.0760   28.7400   33.0740 C   0  0  0  0  0  0  0  0  0  0  0  0
   35.8900   28.8960   31.7180 C   0  0  0  0  0  0  0  0  0  0  0  0
   36.6950   28.1760   30.8470 C   0  0  0  0  0  0  0  0  0  0  0  0
   37.6660   27.3210   31.3920 C   0  0  0  0  0  0  0  0  0  0  0  0
   37.8580   27.1590   32.7130 C   0  0  0  0  0  0  0  0  0  0  0  0
   35.1100   29.5820   31.3660 H   0  0  0  0  0  0  0  0  0  0  0  0
   36.4840   28.3570   29.8070 H   0  0  0  0  0  0  0  0  0  0  0  0
   38.1660   26.8720   30.6170 H   0  0  0  0  0  0  0  0  0  0  0  0
   33.1490   29.9980   34.9360 C   0  0  0  0  0  0  0  0  0  0  0  0
   33.7790   30.9930   35.7670 C   0  0  0  0  0  0  0  0  0  0  0  0
   35.1680   31.1820   35.6460 C   0  0  0  0  0  0  0  0  0  0  0  0
   35.8520   30.4190   34.7570 N   0  0  0  0  0  0  0  0  0  0  0  0
   35.2340   29.4910   33.9890 C   0  0  0  0  0  0  0  0  0  0  0  0
   33.9080   29.2940   34.0860 N   0  0  0  0  0  0  0  0  0  0  0  0
   32.0900   29.8610   35.0340 H   0  0  0  0  0  0  0  0  0  0  0  0
   33.1200   31.5260   36.4280 H   0  0  0  0  0  0  0  0  0  0  0  0
   35.7350   32.1580   36.4710 N   0  0  0  0  0  0  0  0  0  0  0  0
   35.7560   32.2950   37.4890 H   0  0  0  0  0  0  0  0  0  0  0  0
   36.2850   32.9880   36.1100 H   0  0  0  0  0  0  0  0  0  0  0  0
   38.7730   24.8360   32.9520 C   0  0  0  0  0  0  0  0  0  0  0  0
   38.4320   24.6930   31.8870 H   0  0  0  0  0  0  0  0  0  0  0  0
   39.7430   24.3000   33.0130 H   0  0  0  0  0  0  0  0  0  0  0  0
   37.9000   24.2160   33.8170 O   0  0  0  0  0  0  0  0  0  0  0  0
   40.0870   22.8210   34.1860 O   0  0  0  0  0  0  0  0  0  0  0  0
   38.5970   22.8570   34.4930 P   0  0  2  0  0  0  0  0  0  0  0  0
   37.8100   21.5050   33.8010 O   0  0  0  0  0  0  0  0  0  0  0  0
   36.9290   21.6190   31.5070 C   0  0  2  0  0  3  0  0  0  0  0  0
   36.7760   21.7530   32.9870 C   0  0  1  0  0  3  0  0  0  0  0  0
   35.5960   20.7950   33.2080 C   0  0  0  0  0  3  0  0  0  0  0  0
   34.8830   21.1950   33.9580 H   0  0  0  0  0  0  0  0  0  0  0  0
   34.9450   20.6640   32.0090 O   0  0  0  0  0  0  0  0  0  0  0  0
   35.4500   21.5420   31.0880 C   0  0  0  0  0  3  0  0  0  0  0  0
   35.3760   21.1010   30.0680 H   0  0  0  0  0  0  0  0  0  0  0  0
   37.5210   20.4740   31.0570 O   0  0  0  0  0  0  0  0  0  0  0  0
   38.0100   20.6530   30.2160 H   0  0  0  0  0  0  0  0  0  0  0  0
   38.3740   22.7880   36.1320 O   0  0  0  0  0  0  0  0  0  0  0  0
   38.4550   24.0500   36.6920 C   0  0  0  0  0  0  0  0  0  0  0  0
   37.2790   24.7780   36.4980 F   0  0  0  0  0  0  0  0  0  0  0  0
   38.6490   23.9810   38.0590 F   0  0  0  0  0  0  0  0  0  0  0  0
   39.4840   24.7570   36.1340 F   0  0  0  0  0  0  0  0  0  0  0  0
  1  3  1  0  0  0  0
  2  1  1  0  0  0  0
  5  4  1  0  0  0  0
  6  5  1  0  0  0  0
  6 18  1  0  0  0  0
  7  6  2  0  0  0  0
  8  9  2  0  0  0  0
  8  7  1  0  0  0  0
  9 10  1  0  0  0  0
 10  1  1  0  0  0  0
 10  5  2  0  0  0  0
 11  7  1  0  0  0  0
 12  8  1  0  0  0  0
 13  9  1  0  0  0  0
 14 20  1  0  0  0  0
 14 15  1  0  0  0  0
 15 21  1  0  0  0  0
 16 15  2  0  0  0  0
 16 22  1  0  0  0  0
 17 16  1  0  0  0  0
 18 19  1  0  0  0  0
 18 17  2  0  0  0  0
 19 14  2  0  0  0  0
 22 23  1  0  0  0  0
 24 22  1  0  0  0  0
 25 27  1  0  0  0  0
 25  1  1  0  0  0  0
 25 28  1  0  0  0  0
 26 25  1  0  0  0  0
 28 30  1  0  0  0  0
 30 29  2  6  0  0  0
 30 41  1  0  0  0  0
 31 30  1  0  0  0  0
 32 39  1  1  0  0  0
 32 33  1  0  0  0  0
 33 34  1  0  0  0  0
 33 31  1  1  0  0  0
 34 35  1  0  0  0  0
 36 34  1  0  0  0  0
 37 32  1  0  0  0  0
 37 36  1  0  0  0  0
 38 37  1  0  0  0  0
 40 39  1  0  0  0  0
 41 42  1  0  0  0  0
 42 44  1  0  0  0  0
 43 42  1  0  0  0  0
 45 42  1  0  0  0  0
M  END
>  <minimizedAffinity>
-5.68865299

$$$$

 OpenBabel03272504433D

 45 47  0  0  1  0  0  0  0  0999 V2000
   37.1240   27.9110   33.5060 C   0  0  0  0  0  0  0  0  0  0  0  0
   38.0310   28.4410   33.9200 H   0  0  0  0  0  0  0  0  0  0  0  0
   37.1140   28.2690   32.4340 H   0  0  0  0  0  0  0  0  0  0  0  0
   38.8170   26.8640   35.7110 Cl  0  0  0  0  0  0  0  0  0  0  0  0
   38.1380   25.8700   34.4300 C   0  0  0  0  0  0  0  0  0  0  0  0
   38.3940   24.5330   34.4260 C   0  0  0  0  0  0  0  0  0  0  0  0
   37.8710   23.7370   33.4300 C   0  0  0  0  0  0  0  0  0  0  0  0
   37.0900   24.3270   32.4470 C   0  0  0  0  0  0  0  0  0  0  0  0
   36.8670   25.7120   32.5150 C   0  0  0  0  0  0  0  0  0  0  0  0
   37.3720   26.5000   33.4820 C   0  0  0  0  0  0  0  0  0  0  0  0
   38.0880   22.6620   33.4410 H   0  0  0  0  0  0  0  0  0  0  0  0
   36.7210   23.6350   31.7080 H   0  0  0  0  0  0  0  0  0  0  0  0
   36.2770   25.9790   31.7210 H   0  0  0  0  0  0  0  0  0  0  0  0
   41.2600   23.0940   36.2520 C   0  0  0  0  0  0  0  0  0  0  0  0
   40.6260   22.7520   37.5000 C   0  0  0  0  0  0  0  0  0  0  0  0
   39.2550   23.0300   37.6510 C   0  0  0  0  0  0  0  0  0  0  0  0
   38.5920   23.6080   36.6190 N   0  0  0  0  0  0  0  0  0  0  0  0
   39.2130   23.9180   35.4560 C   0  0  0  0  0  0  0  0  0  0  0  0
   40.5220   23.6610   35.2890 N   0  0  0  0  0  0  0  0  0  0  0  0
   42.3050   22.8780   36.1440 H   0  0  0  0  0  0  0  0  0  0  0  0
   41.2670   22.2990   38.2340 H   0  0  0  0  0  0  0  0  0  0  0  0
   38.6830   22.6810   38.8790 N   0  0  0  0  0  0  0  0  0  0  0  0
   38.8920   22.9370   39.8520 H   0  0  0  0  0  0  0  0  0  0  0  0
   37.8580   22.0250   38.9790 H   0  0  0  0  0  0  0  0  0  0  0  0
   35.9580   28.4410   34.2040 C   0  0  0  0  0  0  0  0  0  0  0  0
   35.4490   27.5930   34.7470 H   0  0  0  0  0  0  0  0  0  0  0  0
   36.1950   29.1820   34.9970 H   0  0  0  0  0  0  0  0  0  0  0  0
   35.0810   29.0370   33.3270 O   0  0  0  0  0  0  0  0  0  0  0  0
   35.4100   31.0400   34.9840 O   0  0  0  0  0  0  0  0  0  0  0  0
   35.0530   30.6930   33.5470 P   0  0  2  0  0  0  0  0  0  0  0  0
   33.4620   31.2090   33.1830 O   0  0  0  0  0  0  0  0  0  0  0  0
   31.6120   29.5910   33.2730 C   0  0  2  0  0  3  0  0  0  0  0  0
   32.4660   30.6540   33.8840 C   0  0  1  0  0  3  0  0  0  0  0  0
   32.9550   29.9030   35.1300 C   0  0  0  0  0  3  0  0  0  0  0  0
   32.9850   30.5650   36.0200 H   0  0  0  0  0  0  0  0  0  0  0  0
   32.0680   28.8850   35.3700 O   0  0  0  0  0  0  0  0  0  0  0  0
   30.9830   28.9890   34.5420 C   0  0  0  0  0  3  0  0  0  0  0  0
   30.5870   27.9720   34.3120 H   0  0  0  0  0  0  0  0  0  0  0  0
   32.2660   28.5730   32.6420 O   0  0  0  0  0  0  0  0  0  0  0  0
   31.7130   28.2250   31.8980 H   0  0  0  0  0  0  0  0  0  0  0  0
   36.0870   31.4790   32.5200 O   0  0  0  0  0  0  0  0  0  0  0  0
   36.0260   30.9340   31.2510 C   0  0  0  0  0  0  0  0  0  0  0  0
   36.9410   29.8910   31.0910 F   0  0  0  0  0  0  0  0  0  0  0  0
   34.7770   30.4010   30.9920 F   0  0  0  0  0  0  0  0  0  0  0  0
   36.3040   31.8860   30.3070 F   0  0  0  0  0  0  0  0  0  0  0  0
  1  2  1  0  0  0  0
  1 25  1  0  0  0  0
  3  1  1  0  0  0  0
  5  4  1  0  0  0  0
  6  5  1  0  0  0  0
  6 18  1  0  0  0  0
  7 11  1  0  0  0  0
  7  6  2  0  0  0  0
  8  9  2  0  0  0  0
  8  7  1  0  0  0  0
  9 10  1  0  0  0  0
 10  1  1  0  0  0  0
 10  5  2  0  0  0  0
 12  8  1  0  0  0  0
 13  9  1  0  0  0  0
 14 15  1  0  0  0  0
 15 16  2  0  0  0  0
 15 21  1  0  0  0  0
 16 22  1  0  0  0  0
 17 16  1  0  0  0  0
 18 17  2  0  0  0  0
 19 18  1  0  0  0  0
 19 14  2  0  0  0  0
 20 14  1  0  0  0  0
 22 24  1  0  0  0  0
 22 23  1  0  0  0  0
 25 26  1  0  0  0  0
 25 27  1  0  0  0  0
 28 30  1  0  0  0  0
 28 25  1  0  0  0  0
 30 29  2  1  0  0  0
 31 30  1  0  0  0  0
 32 39  1  1  0  0  0
 32 33  1  0  0  0  0
 32 37  1  0  0  0  0
 33 31  1  6  0  0  0
 33 34  1  0  0  0  0
 34 36  1  0  0  0  0
 34 35  1  0  0  0  0
 37 36  1  0  0  0  0
 38 37  1  0  0  0  0
 40 39  1  0  0  0  0
 41 30  1  0  0  0  0
 42 41  1  0  0  0  0
 43 42  1  0  0  0  0
 44 42  1  0  0  0  0
 45 42  1  0  0  0  0
M  END
>  <minimizedAffinity>
-5.6870265

$$$$
