
 OpenBabel03272504403D

 45 47  0  0  1  0  0  0  0  0999 V2000
   34.7470   29.3750   48.7730 C   0  0  0  0  0  0  0  0  0  0  0  0
   35.6470   29.4110   49.4540 H   0  0  0  0  0  0  0  0  0  0  0  0
   34.1020   30.2010   49.1950 H   0  0  0  0  0  0  0  0  0  0  0  0
   37.5070   30.4410   48.5120 Cl  0  0  0  0  0  0  0  0  0  0  0  0
   36.3780   30.2840   47.1730 C   0  0  0  0  0  0  0  0  0  0  0  0
   36.7700   30.6730   45.9290 C   0  0  0  0  0  0  0  0  0  0  0  0
   35.8990   30.5590   44.8680 C   0  0  0  0  0  0  0  0  0  0  0  0
   34.6310   30.0450   45.0990 C   0  0  0  0  0  0  0  0  0  0  0  0
   34.2960   29.6630   46.4080 C   0  0  0  0  0  0  0  0  0  0  0  0
   35.1360   29.7700   47.4520 C   0  0  0  0  0  0  0  0  0  0  0  0
   36.2320   30.8790   43.8730 H   0  0  0  0  0  0  0  0  0  0  0  0
   34.0150   29.9900   44.2170 H   0  0  0  0  0  0  0  0  0  0  0  0
   33.3340   29.3090   46.4000 H   0  0  0  0  0  0  0  0  0  0  0  0
   39.7640   32.8300   46.0250 C   0  0  0  0  0  0  0  0  0  0  0  0
   40.6370   32.1000   45.1420 C   0  0  0  0  0  0  0  0  0  0  0  0
   40.1570   30.9110   44.5600 C   0  0  0  0  0  0  0  0  0  0  0  0
   38.8980   30.5050   44.8570 N   0  0  0  0  0  0  0  0  0  0  0  0
   38.0980   31.2120   45.6920 C   0  0  0  0  0  0  0  0  0  0  0  0
   38.5350   32.3500   46.2580 N   0  0  0  0  0  0  0  0  0  0  0  0
   40.1360   33.7350   46.4640 H   0  0  0  0  0  0  0  0  0  0  0  0
   41.6090   32.5320   44.9930 H   0  0  0  0  0  0  0  0  0  0  0  0
   41.0390   30.2370   43.7100 N   0  0  0  0  0  0  0  0  0  0  0  0
   41.9830   29.8510   43.8350 H   0  0  0  0  0  0  0  0  0  0  0  0
   40.8240   30.0080   42.6980 H   0  0  0  0  0  0  0  0  0  0  0  0
   34.0910   28.0900   48.9930 C   0  0  0  0  0  0  0  0  0  0  0  0
   34.1930   27.4710   48.0560 H   0  0  0  0  0  0  0  0  0  0  0  0
   34.5510   27.4710   49.7920 H   0  0  0  0  0  0  0  0  0  0  0  0
   32.7620   28.2570   49.3100 O   0  0  0  0  0  0  0  0  0  0  0  0
   32.6240   26.5410   47.3340 O   0  0  0  0  0  0  0  0  0  0  0  0
   31.7850   27.4470   48.2230 P   0  0  2  0  0  0  0  0  0  0  0  0
   30.9970   28.6430   47.2870 O   0  0  0  0  0  0  0  0  0  0  0  0
   28.9580   28.6160   45.9120 C   0  0  2  0  0  0  0  0  0  0  0  0
   30.3790   28.2350   46.1720 C   0  0  1  0  0  0  0  0  0  0  0  0
   31.0280   28.7800   44.8930 C   0  0  0  0  0  0  0  0  0  0  0  0
   31.8090   28.0930   44.5070 H   0  0  0  0  0  0  0  0  0  0  0  0
   30.0400   28.8940   43.9480 O   0  0  0  0  0  0  0  0  0  0  0  0
   28.8750   28.3350   44.4010 C   0  0  0  0  0  0  0  0  0  0  0  0
   28.0040   28.8790   43.9700 H   0  0  0  0  0  0  0  0  0  0  0  0
   28.6420   29.9340   46.0800 O   0  0  0  0  0  0  0  0  0  0  0  0
   27.7000   30.0220   46.3700 H   0  0  0  0  0  0  0  0  0  0  0  0
   30.6200   26.5470   48.9790 O   0  0  0  0  0  0  0  0  0  0  0  0
   29.8250   27.3450   49.7800 C   0  0  0  0  0  0  0  0  0  0  0  0
   29.3340   26.6450   50.8850 F   0  0  0  0  0  0  0  0  0  0  0  0
   30.5360   28.4190   50.2830 F   0  0  0  0  0  0  0  0  0  0  0  0
   28.7530   27.8180   49.0720 F   0  0  0  0  0  0  0  0  0  0  0  0
  1 25  1  0  0  0  0
  1  3  1  0  0  0  0
  1  2  1  0  0  0  0
  5 10  1  0  0  0  0
  5  4  1  0  0  0  0
  6  5  2  0  0  0  0
  7  8  2  0  0  0  0
  7  6  1  0  0  0  0
  8  9  1  0  0  0  0
  9 10  2  0  0  0  0
 10  1  1  0  0  0  0
 11  7  1  0  0  0  0
 12  8  1  0  0  0  0
 13  9  1  0  0  0  0
 14 19  1  0  0  0  0
 14 20  1  0  0  0  0
 15 14  2  0  0  0  0
 16 17  2  0  0  0  0
 16 15  1  0  0  0  0
 17 18  1  0  0  0  0
 18  6  1  0  0  0  0
 18 19  2  0  0  0  0
 21 15  1  0  0  0  0
 22 23  1  0  0  0  0
 22 16  1  0  0  0  0
 24 22  1  0  0  0  0
 25 28  1  0  0  0  0
 25 27  1  0  0  0  0
 26 25  1  0  0  0  0
 30 29  2  6  0  0  0
 30 41  1  0  0  0  0
 30 28  1  0  0  0  0
 31 30  1  0  0  0  0
 32 39  1  6  0  0  0
 32 33  1  0  0  0  0
 33 31  1  1  0  0  0
 34 33  1  0  0  0  0
 35 34  1  0  0  0  0
 36 37  1  0  0  0  0
 36 34  1  0  0  0  0
 37 32  1  0  0  0  0
 38 37  1  0  0  0  0
 39 40  1  0  0  0  0
 41 42  1  0  0  0  0
 42 44  1  0  0  0  0
 42 43  1  0  0  0  0
 45 42  1  0  0  0  0
M  END
>  <minimizedAffinity>
-5.76084185

>  <minimizedRMSD>
0.706881464

$$$$
