
 OpenBabel03272506153D

 28 30  0  0  1  0  0  0  0  0999 V2000
   36.4250   29.3440   50.6330 C   0  0  0  0  0  0  0  0  0  0  0  0
   37.4140   30.1010   51.2720 C   0  0  0  0  0  0  0  0  0  0  0  0
   38.1680   31.0090   50.4850 C   0  0  0  0  0  0  0  0  0  0  0  0
   37.8870   31.0890   49.1560 N   0  0  0  0  0  0  0  0  0  0  0  0
   36.9220   30.3360   48.5940 C   0  0  0  0  0  0  0  0  0  0  0  0
   36.2060   29.4780   49.3240 N   0  0  0  0  0  0  0  0  0  0  0  0
   36.6160   30.4100   47.1990 N   0  0  0  0  0  0  0  0  0  0  0  0
   37.5540   30.8570   46.3530 C   0  0  0  0  0  0  0  0  0  0  0  0
   37.1730   30.8950   45.0360 C   0  0  0  0  0  0  0  0  0  0  0  0
   35.9290   30.5120   44.5680 C   0  0  0  0  0  0  0  0  0  0  0  0
   35.6160   30.5600   43.3520 O   0  0  0  0  0  0  0  0  0  0  0  0
   35.0230   30.0680   45.4720 N   0  0  0  0  0  0  0  0  0  0  0  0
   35.3870   30.0280   46.7710 C   0  0  0  0  0  0  0  0  0  0  0  0
   34.5730   29.6200   47.6480 O   0  0  0  0  0  0  0  0  0  0  0  0
   35.8090   28.6320   51.1670 H   0  0  0  0  0  0  0  0  0  0  0  0
   37.5700   29.9730   52.3370 H   0  0  0  0  0  0  0  0  0  0  0  0
   38.9300   31.5940   50.9700 H   0  0  0  0  0  0  0  0  0  0  0  0
   38.5380   31.1640   46.6910 H   0  0  0  0  0  0  0  0  0  0  0  0
   37.8850   31.2470   44.2930 H   0  0  0  0  0  0  0  0  0  0  0  0
   32.6660   30.7100   45.4140 C   0  0  1  0  0  0  0  0  0  0  0  0
   33.7100   29.6580   45.0220 C   0  0  1  0  0  0  0  0  0  0  0  0
   33.5540   29.5890   43.5410 C   0  0  0  0  0  0  0  0  0  0  0  0
   33.0070   28.6400   43.3090 H   0  0  0  0  0  0  0  0  0  0  0  0
   32.7550   30.6800   43.1520 O   0  0  0  0  0  0  0  0  0  0  0  0
   31.8070   30.7480   44.1850 C   0  0  0  0  0  0  0  0  0  0  0  0
   31.1120   29.8890   44.1290 H   0  0  0  0  0  0  0  0  0  0  0  0
   31.9080   30.3040   46.4910 O   0  0  0  0  0  0  0  0  0  0  0  0
   32.5500   29.9820   47.2010 H   0  0  0  0  0  0  0  0  0  0  0  0
  1 15  1  0  0  0  0
  1  2  1  0  0  0  0
  2 16  1  0  0  0  0
  3 17  1  0  0  0  0
  3  2  2  0  0  0  0
  4  3  1  0  0  0  0
  5  4  2  0  0  0  0
  5  6  1  0  0  0  0
  6  1  2  0  0  0  0
  7  5  1  0  0  0  0
  8 18  1  0  0  0  0
  8  7  1  0  0  0  0
  9  8  2  0  0  0  0
 10  9  1  0  0  0  0
 10 12  1  0  0  0  0
 11 10  2  0  0  0  0
 12 13  1  0  0  0  0
 13  7  1  0  0  0  0
 13 14  2  0  0  0  0
 19  9  1  0  0  0  0
 20 27  1  1  0  0  0
 21 20  1  0  0  0  0
 21 12  1  6  0  0  0
 22 21  1  0  0  0  0
 23 22  1  0  0  0  0
 24 22  1  0  0  0  0
 24 25  1  0  0  0  0
 25 20  1  0  0  0  0
 26 25  1  0  0  0  0
 27 28  1  0  0  0  0
M  END
>  <minimizedAffinity>
-5.04208946

>  <minimizedRMSD>
4.71717501

$$$$
