
 OpenBabel03272504403D

 45 47  0  0  1  0  0  0  0  0999 V2000
   34.7530   29.3700   48.7870 C   0  0  0  0  0  0  0  0  0  0  0  0
   35.6550   29.3990   49.4650 H   0  0  0  0  0  0  0  0  0  0  0  0
   34.1130   30.1980   49.2150 H   0  0  0  0  0  0  0  0  0  0  0  0
   37.5130   30.4350   48.5220 Cl  0  0  0  0  0  0  0  0  0  0  0  0
   36.3810   30.2820   47.1860 C   0  0  0  0  0  0  0  0  0  0  0  0
   36.7710   30.6750   45.9420 C   0  0  0  0  0  0  0  0  0  0  0  0
   35.8970   30.5640   44.8820 C   0  0  0  0  0  0  0  0  0  0  0  0
   34.6290   30.0510   45.1150 C   0  0  0  0  0  0  0  0  0  0  0  0
   34.2960   29.6660   46.4230 C   0  0  0  0  0  0  0  0  0  0  0  0
   35.1390   29.7690   47.4660 C   0  0  0  0  0  0  0  0  0  0  0  0
   36.2270   30.8860   43.8870 H   0  0  0  0  0  0  0  0  0  0  0  0
   34.0110   29.9980   44.2340 H   0  0  0  0  0  0  0  0  0  0  0  0
   33.3340   29.3130   46.4170 H   0  0  0  0  0  0  0  0  0  0  0  0
   39.7650   32.8290   46.0350 C   0  0  0  0  0  0  0  0  0  0  0  0
   40.6370   32.1000   45.1500 C   0  0  0  0  0  0  0  0  0  0  0  0
   40.1550   30.9120   44.5670 C   0  0  0  0  0  0  0  0  0  0  0  0
   38.8960   30.5070   44.8660 N   0  0  0  0  0  0  0  0  0  0  0  0
   38.0990   31.2130   45.7020 C   0  0  0  0  0  0  0  0  0  0  0  0
   38.5360   32.3500   46.2690 N   0  0  0  0  0  0  0  0  0  0  0  0
   40.1390   33.7340   46.4740 H   0  0  0  0  0  0  0  0  0  0  0  0
   41.6090   32.5320   44.9990 H   0  0  0  0  0  0  0  0  0  0  0  0
   41.0360   30.2390   43.7150 N   0  0  0  0  0  0  0  0  0  0  0  0
   41.9800   29.8520   43.8390 H   0  0  0  0  0  0  0  0  0  0  0  0
   40.8180   30.0110   42.7040 H   0  0  0  0  0  0  0  0  0  0  0  0
   34.0910   28.0880   49.0040 C   0  0  0  0  0  0  0  0  0  0  0  0
   34.1940   27.4680   48.0680 H   0  0  0  0  0  0  0  0  0  0  0  0
   34.5450   27.4670   49.8050 H   0  0  0  0  0  0  0  0  0  0  0  0
   32.7610   28.2600   49.3150 O   0  0  0  0  0  0  0  0  0  0  0  0
   32.6270   26.5440   47.3390 O   0  0  0  0  0  0  0  0  0  0  0  0
   31.7870   27.4490   48.2270 P   0  0  2  0  0  0  0  0  0  0  0  0
   30.9970   28.6430   47.2900 O   0  0  0  0  0  0  0  0  0  0  0  0
   28.9600   28.6140   45.9120 C   0  0  2  0  0  3  0  0  0  0  0  0
   30.3810   28.2340   46.1750 C   0  0  1  0  0  3  0  0  0  0  0  0
   31.0310   28.7810   44.8960 C   0  0  0  0  0  3  0  0  0  0  0  0
   31.8150   28.0960   44.5110 H   0  0  0  0  0  0  0  0  0  0  0  0
   30.0440   28.8950   43.9510 O   0  0  0  0  0  0  0  0  0  0  0  0
   28.8810   28.3320   44.4020 C   0  0  0  0  0  3  0  0  0  0  0  0
   28.0080   28.8760   43.9690 H   0  0  0  0  0  0  0  0  0  0  0  0
   28.6420   29.9310   46.0800 O   0  0  0  0  0  0  0  0  0  0  0  0
   27.6990   30.0180   46.3690 H   0  0  0  0  0  0  0  0  0  0  0  0
   30.6220   26.5470   48.9820 O   0  0  0  0  0  0  0  0  0  0  0  0
   29.8240   27.3450   49.7810 C   0  0  0  0  0  0  0  0  0  0  0  0
   29.3340   26.6440   50.8860 F   0  0  0  0  0  0  0  0  0  0  0  0
   30.5320   28.4200   50.2840 F   0  0  0  0  0  0  0  0  0  0  0  0
   28.7520   27.8140   49.0710 F   0  0  0  0  0  0  0  0  0  0  0  0
  1 25  1  0  0  0  0
  1  3  1  0  0  0  0
  1  2  1  0  0  0  0
  5 10  1  0  0  0  0
  5  4  1  0  0  0  0
  6  5  2  0  0  0  0
  7  8  2  0  0  0  0
  7  6  1  0  0  0  0
  8  9  1  0  0  0  0
  9 10  2  0  0  0  0
 10  1  1  0  0  0  0
 11  7  1  0  0  0  0
 12  8  1  0  0  0  0
 13  9  1  0  0  0  0
 14 19  1  0  0  0  0
 14 20  1  0  0  0  0
 15 14  2  0  0  0  0
 16 17  2  0  0  0  0
 16 15  1  0  0  0  0
 17 18  1  0  0  0  0
 18  6  1  0  0  0  0
 18 19  2  0  0  0  0
 21 15  1  0  0  0  0
 22 23  1  0  0  0  0
 22 16  1  0  0  0  0
 24 22  1  0  0  0  0
 25 28  1  0  0  0  0
 25 27  1  0  0  0  0
 26 25  1  0  0  0  0
 30 29  2  6  0  0  0
 30 41  1  0  0  0  0
 30 28  1  0  0  0  0
 31 30  1  0  0  0  0
 32 39  1  6  0  0  0
 32 33  1  0  0  0  0
 33 31  1  1  0  0  0
 34 33  1  0  0  0  0
 35 34  1  0  0  0  0
 36 37  1  0  0  0  0
 36 34  1  0  0  0  0
 37 32  1  0  0  0  0
 38 37  1  0  0  0  0
 39 40  1  0  0  0  0
 41 42  1  0  0  0  0
 42 44  1  0  0  0  0
 42 43  1  0  0  0  0
 45 42  1  0  0  0  0
M  END
>  <minimizedAffinity>
-5.75921106

>  <minimizedRMSD>
0.571989238

$$$$
