
 OpenBabel03272504403D

 45 47  0  0  1  0  0  0  0  0999 V2000
   34.7720   29.3770   48.8120 C   0  0  0  0  0  0  0  0  0  0  0  0
   35.6790   29.4020   49.4840 H   0  0  0  0  0  0  0  0  0  0  0  0
   34.1370   30.2030   49.2480 H   0  0  0  0  0  0  0  0  0  0  0  0
   37.5370   30.4280   48.5330 Cl  0  0  0  0  0  0  0  0  0  0  0  0
   36.3940   30.2900   47.2040 C   0  0  0  0  0  0  0  0  0  0  0  0
   36.7760   30.6880   45.9600 C   0  0  0  0  0  0  0  0  0  0  0  0
   35.8940   30.5890   44.9060 C   0  0  0  0  0  0  0  0  0  0  0  0
   34.6250   30.0810   45.1450 C   0  0  0  0  0  0  0  0  0  0  0  0
   34.3000   29.6890   46.4540 C   0  0  0  0  0  0  0  0  0  0  0  0
   35.1510   29.7810   47.4910 C   0  0  0  0  0  0  0  0  0  0  0  0
   36.2180   30.9150   43.9110 H   0  0  0  0  0  0  0  0  0  0  0  0
   34.0000   30.0370   44.2690 H   0  0  0  0  0  0  0  0  0  0  0  0
   33.3360   29.3410   46.4520 H   0  0  0  0  0  0  0  0  0  0  0  0
   39.7800   32.8310   46.0370 C   0  0  0  0  0  0  0  0  0  0  0  0
   40.6440   32.0970   45.1480 C   0  0  0  0  0  0  0  0  0  0  0  0
   40.1550   30.9110   44.5690 C   0  0  0  0  0  0  0  0  0  0  0  0
   38.8960   30.5110   44.8740 N   0  0  0  0  0  0  0  0  0  0  0  0
   38.1050   31.2210   45.7140 C   0  0  0  0  0  0  0  0  0  0  0  0
   38.5500   32.3570   46.2770 N   0  0  0  0  0  0  0  0  0  0  0  0
   40.1590   33.7340   46.4730 H   0  0  0  0  0  0  0  0  0  0  0  0
   41.6170   32.5260   44.9930 H   0  0  0  0  0  0  0  0  0  0  0  0
   41.0290   30.2330   43.7140 N   0  0  0  0  0  0  0  0  0  0  0  0
   41.9720   29.8430   43.8330 H   0  0  0  0  0  0  0  0  0  0  0  0
   40.8060   30.0050   42.7040 H   0  0  0  0  0  0  0  0  0  0  0  0
   34.1120   28.0940   49.0270 C   0  0  0  0  0  0  0  0  0  0  0  0
   34.2610   27.4550   48.1090 H   0  0  0  0  0  0  0  0  0  0  0  0
   34.5340   27.4940   49.8600 H   0  0  0  0  0  0  0  0  0  0  0  0
   32.7680   28.2610   49.2750 O   0  0  0  0  0  0  0  0  0  0  0  0
   32.7370   26.3280   47.5060 O   0  0  0  0  0  0  0  0  0  0  0  0
   31.8510   27.3220   48.2430 P   0  0  2  0  0  0  0  0  0  0  0  0
   31.1050   28.3930   47.1370 O   0  0  0  0  0  0  0  0  0  0  0  0
   31.1860   27.7740   44.7570 C   0  0  2  0  0  3  0  0  0  0  0  0
   30.4930   27.8480   46.0780 C   0  0  1  0  0  3  0  0  0  0  0  0
   30.1640   26.3610   46.2760 C   0  0  0  0  0  3  0  0  0  0  0  0
   29.1550   26.2210   46.7170 H   0  0  0  0  0  0  0  0  0  0  0  0
   30.1870   25.7680   45.0400 O   0  0  0  0  0  0  0  0  0  0  0  0
   30.3210   26.7110   44.0570 C   0  0  0  0  0  3  0  0  0  0  0  0
   30.8850   26.2820   43.1980 H   0  0  0  0  0  0  0  0  0  0  0  0
   32.4630   27.2930   44.7670 O   0  0  0  0  0  0  0  0  0  0  0  0
   32.9870   27.7090   44.0380 H   0  0  0  0  0  0  0  0  0  0  0  0
   30.6530   26.5020   49.0390 O   0  0  0  0  0  0  0  0  0  0  0  0
   29.8710   27.3710   49.7780 C   0  0  0  0  0  0  0  0  0  0  0  0
   29.2920   26.7360   50.8790 F   0  0  0  0  0  0  0  0  0  0  0  0
   30.6210   28.4180   50.2810 F   0  0  0  0  0  0  0  0  0  0  0  0
   28.8620   27.8800   49.0070 F   0  0  0  0  0  0  0  0  0  0  0  0
  1 25  1  0  0  0  0
  1  3  1  0  0  0  0
  1  2  1  0  0  0  0
  5 10  1  0  0  0  0
  5  4  1  0  0  0  0
  6  5  2  0  0  0  0
  7  8  2  0  0  0  0
  7  6  1  0  0  0  0
  8  9  1  0  0  0  0
  9 10  2  0  0  0  0
 10  1  1  0  0  0  0
 11  7  1  0  0  0  0
 12  8  1  0  0  0  0
 13  9  1  0  0  0  0
 14 19  1  0  0  0  0
 14 20  1  0  0  0  0
 15 14  2  0  0  0  0
 16 17  2  0  0  0  0
 16 15  1  0  0  0  0
 17 18  1  0  0  0  0
 18  6  1  0  0  0  0
 18 19  2  0  0  0  0
 21 15  1  0  0  0  0
 22 23  1  0  0  0  0
 22 16  1  0  0  0  0
 24 22  1  0  0  0  0
 25 28  1  0  0  0  0
 25 27  1  0  0  0  0
 26 25  1  0  0  0  0
 30 29  2  6  0  0  0
 30 41  1  0  0  0  0
 30 28  1  0  0  0  0
 31 30  1  0  0  0  0
 32 39  1  1  0  0  0
 32 33  1  0  0  0  0
 33 34  1  0  0  0  0
 33 31  1  1  0  0  0
 34 35  1  0  0  0  0
 36 34  1  0  0  0  0
 37 32  1  0  0  0  0
 37 36  1  0  0  0  0
 38 37  1  0  0  0  0
 40 39  1  0  0  0  0
 41 42  1  0  0  0  0
 42 44  1  0  0  0  0
 42 43  1  0  0  0  0
 45 42  1  0  0  0  0
M  END
>  <minimizedAffinity>
-5.67172766

>  <minimizedRMSD>
0.41915518

$$$$
