
 OpenBabel03272504403D

 45 47  0  0  1  0  0  0  0  0999 V2000
   34.7460   29.4120   48.7870 C   0  0  0  0  0  0  0  0  0  0  0  0
   35.6390   29.4800   49.4740 H   0  0  0  0  0  0  0  0  0  0  0  0
   34.0820   30.2340   49.1870 H   0  0  0  0  0  0  0  0  0  0  0  0
   37.5040   30.4820   48.5180 Cl  0  0  0  0  0  0  0  0  0  0  0  0
   36.3800   30.3020   47.1780 C   0  0  0  0  0  0  0  0  0  0  0  0
   36.7750   30.6740   45.9300 C   0  0  0  0  0  0  0  0  0  0  0  0
   35.9080   30.5420   44.8680 C   0  0  0  0  0  0  0  0  0  0  0  0
   34.6400   30.0280   45.1020 C   0  0  0  0  0  0  0  0  0  0  0  0
   34.3020   29.6650   46.4160 C   0  0  0  0  0  0  0  0  0  0  0  0
   35.1380   29.7890   47.4610 C   0  0  0  0  0  0  0  0  0  0  0  0
   36.2420   30.8480   43.8690 H   0  0  0  0  0  0  0  0  0  0  0  0
   34.0270   29.9580   44.2190 H   0  0  0  0  0  0  0  0  0  0  0  0
   33.3400   29.3080   46.4100 H   0  0  0  0  0  0  0  0  0  0  0  0
   39.7680   32.8320   46.0160 C   0  0  0  0  0  0  0  0  0  0  0  0
   40.6400   32.1000   45.1330 C   0  0  0  0  0  0  0  0  0  0  0  0
   40.1600   30.9100   44.5540 C   0  0  0  0  0  0  0  0  0  0  0  0
   38.9000   30.5040   44.8550 N   0  0  0  0  0  0  0  0  0  0  0  0
   38.1030   31.2120   45.6890 C   0  0  0  0  0  0  0  0  0  0  0  0
   38.5390   32.3520   46.2510 N   0  0  0  0  0  0  0  0  0  0  0  0
   40.1410   33.7380   46.4520 H   0  0  0  0  0  0  0  0  0  0  0  0
   41.6120   32.5330   44.9810 H   0  0  0  0  0  0  0  0  0  0  0  0
   41.0400   30.2340   43.7040 N   0  0  0  0  0  0  0  0  0  0  0  0
   41.9850   29.8490   43.8290 H   0  0  0  0  0  0  0  0  0  0  0  0
   40.8230   30.0030   42.6940 H   0  0  0  0  0  0  0  0  0  0  0  0
   34.1130   28.1200   49.0270 C   0  0  0  0  0  0  0  0  0  0  0  0
   34.2430   27.4810   48.1060 H   0  0  0  0  0  0  0  0  0  0  0  0
   34.5730   27.5290   49.8480 H   0  0  0  0  0  0  0  0  0  0  0  0
   32.7760   28.2660   49.3180 O   0  0  0  0  0  0  0  0  0  0  0  0
   32.6980   26.4850   47.3980 O   0  0  0  0  0  0  0  0  0  0  0  0
   31.8330   27.4230   48.2270 P   0  0  2  0  0  0  0  0  0  0  0  0
   31.0820   28.5880   47.2240 O   0  0  0  0  0  0  0  0  0  0  0  0
   30.0110   27.0630   45.6200 C   0  0  2  0  0  3  0  0  0  0  0  0
   30.8610   28.2450   45.9490 C   0  0  1  0  0  3  0  0  0  0  0  0
   30.1100   29.3250   45.1590 C   0  0  0  0  0  3  0  0  0  0  0  0
   30.8090   30.0340   44.6700 H   0  0  0  0  0  0  0  0  0  0  0  0
   29.3780   28.6900   44.1890 O   0  0  0  0  0  0  0  0  0  0  0  0
   29.6940   27.3600   44.1440 C   0  0  0  0  0  3  0  0  0  0  0  0
   28.8000   26.7710   43.8310 H   0  0  0  0  0  0  0  0  0  0  0  0
   28.8110   26.9760   46.2670 O   0  0  0  0  0  0  0  0  0  0  0  0
   28.5600   26.0270   46.3890 H   0  0  0  0  0  0  0  0  0  0  0  0
   30.6400   26.5520   48.9720 O   0  0  0  0  0  0  0  0  0  0  0  0
   29.8640   27.3680   49.7750 C   0  0  0  0  0  0  0  0  0  0  0  0
   29.3190   26.6660   50.8530 F   0  0  0  0  0  0  0  0  0  0  0  0
   30.6130   28.3960   50.3180 F   0  0  0  0  0  0  0  0  0  0  0  0
   28.8310   27.9050   49.0570 F   0  0  0  0  0  0  0  0  0  0  0  0
  1 25  1  0  0  0  0
  1  3  1  0  0  0  0
  1  2  1  0  0  0  0
  5 10  1  0  0  0  0
  5  4  1  0  0  0  0
  6  5  2  0  0  0  0
  7  8  2  0  0  0  0
  7  6  1  0  0  0  0
  8  9  1  0  0  0  0
  9 10  2  0  0  0  0
 10  1  1  0  0  0  0
 11  7  1  0  0  0  0
 12  8  1  0  0  0  0
 13  9  1  0  0  0  0
 14 19  1  0  0  0  0
 14 20  1  0  0  0  0
 15 14  2  0  0  0  0
 16 17  2  0  0  0  0
 16 15  1  0  0  0  0
 17 18  1  0  0  0  0
 18  6  1  0  0  0  0
 18 19  2  0  0  0  0
 21 15  1  0  0  0  0
 22 23  1  0  0  0  0
 22 16  1  0  0  0  0
 24 22  1  0  0  0  0
 25 28  1  0  0  0  0
 25 27  1  0  0  0  0
 26 25  1  0  0  0  0
 30 29  2  6  0  0  0
 30 41  1  0  0  0  0
 30 28  1  0  0  0  0
 31 30  1  0  0  0  0
 32 33  1  0  0  0  0
 32 39  1  1  0  0  0
 33 31  1  1  0  0  0
 34 33  1  0  0  0  0
 35 34  1  0  0  0  0
 36 34  1  0  0  0  0
 37 36  1  0  0  0  0
 37 32  1  0  0  0  0
 38 37  1  0  0  0  0
 39 40  1  0  0  0  0
 41 42  1  0  0  0  0
 42 44  1  0  0  0  0
 42 43  1  0  0  0  0
 45 42  1  0  0  0  0
M  END
>  <minimizedAffinity>
-5.74354315

>  <minimizedRMSD>
0.501755178

$$$$
