
 OpenBabel03272506403D

 19 20  0  0  1  0  0  0  0  0999 V2000
   33.0010   28.4110   49.0670 S   0  0  0  0  0  0  0  0  0  0  0  0
   36.8230   29.1350   49.7940 C   0  0  0  0  0  0  0  0  0  0  0  0
   37.1720   30.1820   48.9390 C   0  0  0  0  0  0  0  0  0  0  0  0
   36.1800   30.6930   48.0920 C   0  0  0  0  0  0  0  0  0  0  0  0
   34.9370   30.1340   48.1600 N   0  0  0  0  0  0  0  0  0  0  0  0
   34.6400   29.1320   48.9930 C   0  0  0  0  0  0  0  0  0  0  0  0
   35.5730   28.6320   49.8070 N   0  0  0  0  0  0  0  0  0  0  0  0
   37.5780   28.7260   50.4560 H   0  0  0  0  0  0  0  0  0  0  0  0
   38.1810   30.5900   48.9270 H   0  0  0  0  0  0  0  0  0  0  0  0
   36.4240   31.5050   47.4200 H   0  0  0  0  0  0  0  0  0  0  0  0
   33.8000   27.0620   46.7620 C   0  0  2  0  0  3  0  0  0  0  0  0
   32.6400   27.7190   47.4780 C   0  0  2  0  0  3  0  0  0  0  0  0
   32.2890   28.7620   46.4230 C   0  0  0  0  0  3  0  0  0  0  0  0
   31.2740   29.1610   46.6300 H   0  0  0  0  0  0  0  0  0  0  0  0
   32.4050   28.1120   45.2020 O   0  0  0  0  0  0  0  0  0  0  0  0
   33.1260   26.9400   45.3910 C   0  0  0  0  0  3  0  0  0  0  0  0
   33.8170   26.6800   44.5900 H   0  0  0  0  0  0  0  0  0  0  0  0
   34.0720   25.7850   47.1940 O   0  0  0  0  0  0  0  0  0  0  0  0
   33.8620   25.7090   48.1630 H   0  0  0  0  0  0  0  0  0  0  0  0
  2  7  1  0  0  0  0
  2  8  1  0  0  0  0
  3  2  2  0  0  0  0
  4  5  2  0  0  0  0
  4  3  1  0  0  0  0
  5  6  1  0  0  0  0
  6  1  1  0  0  0  0
  6  7  2  0  0  0  0
  9  3  1  0  0  0  0
 10  4  1  0  0  0  0
 11 18  1  1  0  0  0
 11 12  1  0  0  0  0
 12  1  1  1  0  0  0
 13 14  1  0  0  0  0
 13 12  1  0  0  0  0
 15 16  1  0  0  0  0
 15 13  1  0  0  0  0
 16 11  1  0  0  0  0
 17 16  1  0  0  0  0
 18 19  1  0  0  0  0
M  END
>  <minimizedAffinity>
-2.83225965

>  <minimizedRMSD>
1.99453056

$$$$
