
 OpenBabel03262521443D

 46 49  0  0  1  0  0  0  0  0999 V2000
   39.6470   26.3730   34.1820 C   0  0  2  0  0  0  0  0  0  0  0  0
   38.8690   25.6860   35.2850 C   0  0  2  0  0  0  0  0  0  0  0  0
   38.2050   26.7410   36.1060 C   0  0  0  0  0  0  0  0  0  0  0  0
   37.8670   27.8260   35.3480 O   0  0  0  0  0  0  0  0  0  0  0  0
   37.3950   27.3990   34.1180 C   0  0  0  0  0  0  0  0  0  0  0  0
   38.5510   26.9890   33.2690 C   0  0  2  0  0  0  0  0  0  0  0  0
   40.2430   27.2080   34.6050 H   0  0  0  0  0  0  0  0  0  0  0  0
   38.0790   25.2570   34.6460 H   0  0  0  0  0  0  0  0  0  0  0  0
   37.2700   26.3690   36.6100 H   0  0  0  0  0  0  0  0  0  0  0  0
   38.8880   27.0990   36.9110 H   0  0  0  0  0  0  0  0  0  0  0  0
   36.9190   28.2770   33.6320 H   0  0  0  0  0  0  0  0  0  0  0  0
   36.6230   26.6580   34.3010 H   0  0  0  0  0  0  0  0  0  0  0  0
   38.9970   27.8700   32.7800 H   0  0  0  0  0  0  0  0  0  0  0  0
   40.3900   25.5870   33.3670 O   0  0  0  0  0  0  0  0  0  0  0  0
   40.5350   25.9280   32.4630 H   0  0  0  0  0  0  0  0  0  0  0  0
   39.5450   24.7660   36.0300 O   0  0  0  0  0  0  0  0  0  0  0  0
   39.1450   23.5190   35.7600 C   0  0  1  0  0  0  0  0  0  0  0  0
   40.1210   22.4430   36.1580 C   0  0  2  0  0  0  0  0  0  0  0  0
   40.1330   22.7270   37.6670 C   0  0  0  0  0  0  0  0  0  0  0  0
   38.8300   22.9640   38.0330 O   0  0  0  0  0  0  0  0  0  0  0  0
   38.1390   23.1900   36.9100 C   0  0  0  0  0  0  0  0  0  0  0  0
   38.4180   23.3790   34.9260 H   0  0  0  0  0  0  0  0  0  0  0  0
   39.6780   21.4610   35.9290 H   0  0  0  0  0  0  0  0  0  0  0  0
   40.6970   23.6720   37.7850 H   0  0  0  0  0  0  0  0  0  0  0  0
   40.5580   21.8860   38.2240 H   0  0  0  0  0  0  0  0  0  0  0  0
   37.9850   22.0800   36.5910 H   0  0  0  0  0  0  0  0  0  0  0  0
   37.1440   23.4510   36.8350 H   0  0  0  0  0  0  0  0  0  0  0  0
   41.4450   22.6430   35.5560 C   0  0  0  0  0  0  0  0  0  0  0  0
   42.5430   22.7400   36.4160 C   0  0  0  0  0  0  0  0  0  0  0  0
   43.8070   22.9520   35.8030 C   0  0  0  0  0  0  0  0  0  0  0  0
   43.8750   23.0470   34.4370 N   0  0  0  0  0  0  0  0  0  0  0  0
   42.7810   22.9470   33.6470 C   0  0  0  0  0  0  0  0  0  0  0  0
   41.5740   22.7460   34.2140 N   0  0  0  0  0  0  0  0  0  0  0  0
   42.4810   22.6630   37.4790 H   0  0  0  0  0  0  0  0  0  0  0  0
   44.7030   23.0380   36.3800 H   0  0  0  0  0  0  0  0  0  0  0  0
   42.8810   23.0290   32.5730 H   0  0  0  0  0  0  0  0  0  0  0  0
   38.0980   26.0190   32.3780 O   0  0  0  0  0  0  0  0  0  0  0  0
   35.8670   25.7770   31.4400 C   0  0  2  0  0  3  0  0  0  0  0  0
   36.8500   25.5420   32.5370 C   0  0  1  0  0  3  0  0  0  0  0  0
   36.9780   24.0100   32.5200 C   0  0  0  0  0  3  0  0  0  0  0  0
   36.1810   23.5410   33.1290 H   0  0  0  0  0  0  0  0  0  0  0  0
   36.8290   23.7440   31.1620 O   0  0  0  0  0  0  0  0  0  0  0  0
   35.5980   24.3580   30.9210 C   0  0  0  0  0  3  0  0  0  0  0  0
   34.8780   23.8360   31.5840 H   0  0  0  0  0  0  0  0  0  0  0  0
   36.3280   26.5930   30.4110 O   0  0  0  0  0  0  0  0  0  0  0  0
   35.5370   26.8510   29.8830 H   0  0  0  0  0  0  0  0  0  0  0  0
  1  7  1  1  0  0  0
  1  2  1  0  0  0  0
  2  8  1  6  0  0  0
  2 16  1  0  0  0  0
  2  3  1  0  0  0  0
  3  9  1  0  0  0  0
  3 10  1  0  0  0  0
  4  3  1  0  0  0  0
  5 12  1  0  0  0  0
  5  4  1  0  0  0  0
  6 13  1  6  0  0  0
  6  5  1  0  0  0  0
  6  1  1  0  0  0  0
 11  5  1  0  0  0  0
 14  1  1  0  0  0  0
 15 14  1  0  0  0  0
 17 22  1  6  0  0  0
 17 16  1  0  0  0  0
 17 18  1  0  0  0  0
 17 21  1  0  0  0  0
 18 23  1  6  0  0  0
 18 19  1  0  0  0  0
 19 24  1  0  0  0  0
 19 20  1  0  0  0  0
 19 25  1  0  0  0  0
 21 20  1  0  0  0  0
 26 21  1  0  0  0  0
 27 21  1  0  0  0  0
 28 18  1  0  0  0  0
 28 29  1  0  0  0  0
 29 34  1  0  0  0  0
 30 35  1  0  0  0  0
 30 29  2  0  0  0  0
 31 30  1  0  0  0  0
 32 33  1  0  0  0  0
 32 31  2  0  0  0  0
 33 28  2  0  0  0  0
 36 32  1  0  0  0  0
 37  6  1  0  0  0  0
 38 45  1  6  0  0  0
 38 39  1  0  0  0  0
 39 37  1  6  0  0  0
 40 39  1  0  0  0  0
 40 41  1  0  0  0  0
 42 40  1  0  0  0  0
 43 42  1  0  0  0  0
 43 38  1  0  0  0  0
 43 44  1  0  0  0  0
 46 45  1  0  0  0  0
M  END
>  <minimizedAffinity>
-5.14123535

$$$$

 OpenBabel03262521443D

 46 49  0  0  1  0  0  0  0  0999 V2000
   38.4670   23.4540   32.4960 C   0  0  2  0  0  0  0  0  0  0  0  0
   37.1960   24.1820   32.1080 C   0  0  2  0  0  0  0  0  0  0  0  0
   36.3170   23.2180   31.3820 C   0  0  0  0  0  0  0  0  0  0  0  0
   36.4840   21.9430   31.8440 O   0  0  0  0  0  0  0  0  0  0  0  0
   36.6250   21.9670   33.2200 C   0  0  0  0  0  0  0  0  0  0  0  0
   38.0050   22.4220   33.5600 C   0  0  2  0  0  0  0  0  0  0  0  0
   38.8580   22.8890   31.6250 H   0  0  0  0  0  0  0  0  0  0  0  0
   36.7750   24.2700   33.1240 H   0  0  0  0  0  0  0  0  0  0  0  0
   35.2260   23.4770   31.4750 H   0  0  0  0  0  0  0  0  0  0  0  0
   36.5590   23.2110   30.2930 H   0  0  0  0  0  0  0  0  0  0  0  0
   36.5220   20.9190   33.5740 H   0  0  0  0  0  0  0  0  0  0  0  0
   35.7980   22.5390   33.6260 H   0  0  0  0  0  0  0  0  0  0  0  0
   38.7080   21.5750   33.5140 H   0  0  0  0  0  0  0  0  0  0  0  0
   39.4360   24.1820   33.1010 O   0  0  0  0  0  0  0  0  0  0  0  0
   40.0270   23.6870   33.7020 H   0  0  0  0  0  0  0  0  0  0  0  0
   37.3450   25.3720   31.4610 O   0  0  0  0  0  0  0  0  0  0  0  0
   36.5740   26.3250   31.9940 C   0  0  1  0  0  0  0  0  0  0  0  0
   37.3140   27.5550   32.4520 C   0  0  2  0  0  0  0  0  0  0  0  0
   37.8810   27.9710   31.0860 C   0  0  0  0  0  0  0  0  0  0  0  0
   36.8710   27.7980   30.1710 O   0  0  0  0  0  0  0  0  0  0  0  0
   35.9390   27.0330   30.7520 C   0  0  0  0  0  0  0  0  0  0  0  0
   35.6080   26.0110   32.4540 H   0  0  0  0  0  0  0  0  0  0  0  0
   36.5850   28.2850   32.8330 H   0  0  0  0  0  0  0  0  0  0  0  0
   38.6760   27.2350   30.8600 H   0  0  0  0  0  0  0  0  0  0  0  0
   38.2310   29.0080   31.1030 H   0  0  0  0  0  0  0  0  0  0  0  0
   35.4120   27.8660   31.3730 H   0  0  0  0  0  0  0  0  0  0  0  0
   35.0750   26.6720   30.3200 H   0  0  0  0  0  0  0  0  0  0  0  0
   38.3810   27.2350   33.4090 C   0  0  0  0  0  0  0  0  0  0  0  0
   38.0090   26.9320   34.7210 C   0  0  0  0  0  0  0  0  0  0  0  0
   39.0660   26.6460   35.6260 C   0  0  0  0  0  0  0  0  0  0  0  0
   40.3590   26.6820   35.1710 N   0  0  0  0  0  0  0  0  0  0  0  0
   40.6680   26.9820   33.8880 C   0  0  0  0  0  0  0  0  0  0  0  0
   39.6750   27.2560   33.0160 N   0  0  0  0  0  0  0  0  0  0  0  0
   36.9990   26.9050   35.0680 H   0  0  0  0  0  0  0  0  0  0  0  0
   38.8780   26.4030   36.6500 H   0  0  0  0  0  0  0  0  0  0  0  0
   41.7010   27.0000   33.5710 H   0  0  0  0  0  0  0  0  0  0  0  0
   37.9500   23.0410   34.8070 O   0  0  0  0  0  0  0  0  0  0  0  0
   39.6230   22.6030   36.5170 C   0  0  2  0  0  3  0  0  0  0  0  0
   38.2990   22.3240   35.8900 C   0  0  1  0  0  3  0  0  0  0  0  0
   37.3290   22.7440   37.0060 C   0  0  0  0  0  3  0  0  0  0  0  0
   37.1690   21.9150   37.7230 H   0  0  0  0  0  0  0  0  0  0  0  0
   38.0230   23.8070   37.5770 O   0  0  0  0  0  0  0  0  0  0  0  0
   39.2320   23.1800   37.8850 C   0  0  0  0  0  3  0  0  0  0  0  0
   38.9660   22.3620   38.5850 H   0  0  0  0  0  0  0  0  0  0  0  0
   40.4190   23.5050   35.8170 O   0  0  0  0  0  0  0  0  0  0  0  0
   41.3260   23.4310   36.1960 H   0  0  0  0  0  0  0  0  0  0  0  0
  1  7  1  6  0  0  0
  1 14  1  0  0  0  0
  1  6  1  0  0  0  0
  2  1  1  0  0  0  0
  2  8  1  1  0  0  0
  3  9  1  0  0  0  0
  3  4  1  0  0  0  0
  3  2  1  0  0  0  0
  4  5  1  0  0  0  0
  5  6  1  0  0  0  0
  5 11  1  0  0  0  0
  5 12  1  0  0  0  0
  6 13  1  1  0  0  0
  6 37  1  0  0  0  0
 10  3  1  0  0  0  0
 14 15  1  0  0  0  0
 16 17  1  0  0  0  0
 16  2  1  0  0  0  0
 17 18  1  0  0  0  0
 17 22  1  1  0  0  0
 18 23  1  1  0  0  0
 18 28  1  0  0  0  0
 19 25  1  0  0  0  0
 19 18  1  0  0  0  0
 20 21  1  0  0  0  0
 20 19  1  0  0  0  0
 21 26  1  0  0  0  0
 21 17  1  0  0  0  0
 24 19  1  0  0  0  0
 27 21  1  0  0  0  0
 28 29  1  0  0  0  0
 29 34  1  0  0  0  0
 29 30  2  0  0  0  0
 30 35  1  0  0  0  0
 31 30  1  0  0  0  0
 32 31  2  0  0  0  0
 33 28  2  0  0  0  0
 33 32  1  0  0  0  0
 36 32  1  0  0  0  0
 38 45  1  6  0  0  0
 38 43  1  0  0  0  0
 39 37  1  6  0  0  0
 39 38  1  0  0  0  0
 39 40  1  0  0  0  0
 40 42  1  0  0  0  0
 40 41  1  0  0  0  0
 42 43  1  0  0  0  0
 43 44  1  0  0  0  0
 45 46  1  0  0  0  0
M  END
>  <minimizedAffinity>
-5.11335468

$$$$

 OpenBabel03262521443D

 46 49  0  0  1  0  0  0  0  0999 V2000
   38.6400   22.9040   35.6500 C   0  0  2  0  0  0  0  0  0  0  0  0
   38.5350   24.3260   36.1620 C   0  0  2  0  0  0  0  0  0  0  0  0
   38.0010   24.2750   37.5550 C   0  0  0  0  0  0  0  0  0  0  0  0
   38.4060   23.1420   38.2050 O   0  0  0  0  0  0  0  0  0  0  0  0
   39.7220   22.8690   37.8770 C   0  0  0  0  0  0  0  0  0  0  0  0
   39.7690   22.2720   36.5100 C   0  0  2  0  0  0  0  0  0  0  0  0
   37.7020   22.3540   35.8670 H   0  0  0  0  0  0  0  0  0  0  0  0
   39.6180   24.5160   36.2600 H   0  0  0  0  0  0  0  0  0  0  0  0
   38.3230   25.1580   38.1730 H   0  0  0  0  0  0  0  0  0  0  0  0
   36.8860   24.2720   37.5480 H   0  0  0  0  0  0  0  0  0  0  0  0
   40.0800   22.0970   38.5910 H   0  0  0  0  0  0  0  0  0  0  0  0
   40.2980   23.7730   38.0450 H   0  0  0  0  0  0  0  0  0  0  0  0
   39.5690   21.1900   36.5600 H   0  0  0  0  0  0  0  0  0  0  0  0
   39.0350   22.7380   34.3650 O   0  0  0  0  0  0  0  0  0  0  0  0
   39.4940   21.8980   34.1660 H   0  0  0  0  0  0  0  0  0  0  0  0
   37.8820   25.2170   35.3650 O   0  0  0  0  0  0  0  0  0  0  0  0
   38.7280   26.0710   34.7800 C   0  0  1  0  0  0  0  0  0  0  0  0
   38.1960   26.7380   33.5380 C   0  0  2  0  0  0  0  0  0  0  0  0
   37.0080   27.4620   34.1900 C   0  0  0  0  0  0  0  0  0  0  0  0
   37.4640   27.9740   35.3810 O   0  0  0  0  0  0  0  0  0  0  0  0
   38.6230   27.3630   35.6550 C   0  0  0  0  0  0  0  0  0  0  0  0
   39.8190   25.9100   34.9430 H   0  0  0  0  0  0  0  0  0  0  0  0
   38.9520   27.4450   33.1650 H   0  0  0  0  0  0  0  0  0  0  0  0
   36.2690   26.6700   34.4200 H   0  0  0  0  0  0  0  0  0  0  0  0
   36.6200   28.2520   33.5380 H   0  0  0  0  0  0  0  0  0  0  0  0
   39.3090   28.0050   34.9660 H   0  0  0  0  0  0  0  0  0  0  0  0
   39.2000   27.4790   36.5020 H   0  0  0  0  0  0  0  0  0  0  0  0
   37.7530   25.7650   32.5320 C   0  0  0  0  0  0  0  0  0  0  0  0
   36.4280   25.8390   32.0940 C   0  0  0  0  0  0  0  0  0  0  0  0
   36.0270   24.8710   31.1340 C   0  0  0  0  0  0  0  0  0  0  0  0
   36.9410   23.9440   30.7030 N   0  0  0  0  0  0  0  0  0  0  0  0
   38.2150   23.9150   31.1590 C   0  0  0  0  0  0  0  0  0  0  0  0
   38.6100   24.8260   32.0710 N   0  0  0  0  0  0  0  0  0  0  0  0
   35.7220   26.5650   32.4340 H   0  0  0  0  0  0  0  0  0  0  0  0
   35.0340   24.8500   30.7400 H   0  0  0  0  0  0  0  0  0  0  0  0
   38.9020   23.1650   30.7930 H   0  0  0  0  0  0  0  0  0  0  0  0
   41.0050   22.5900   35.9520 O   0  0  0  0  0  0  0  0  0  0  0  0
   42.3580   20.9950   34.7110 C   0  0  2  0  0  3  0  0  0  0  0  0
   41.9780   21.6630   35.9890 C   0  0  1  0  0  3  0  0  0  0  0  0
   43.2690   22.4200   36.3430 C   0  0  0  0  0  3  0  0  0  0  0  0
   43.9740   21.7640   36.8900 H   0  0  0  0  0  0  0  0  0  0  0  0
   43.7380   22.7550   35.0750 O   0  0  0  0  0  0  0  0  0  0  0  0
   43.7940   21.4900   34.4870 C   0  0  0  0  0  3  0  0  0  0  0  0
   44.5020   20.9090   35.1120 H   0  0  0  0  0  0  0  0  0  0  0  0
   41.5530   21.3230   33.6240 O   0  0  0  0  0  0  0  0  0  0  0  0
   41.7550   20.6640   32.9180 H   0  0  0  0  0  0  0  0  0  0  0  0
  1  7  1  1  0  0  0
  1  2  1  0  0  0  0
  1  6  1  0  0  0  0
  2  8  1  1  0  0  0
  2  3  1  0  0  0  0
  3  9  1  0  0  0  0
  3  4  1  0  0  0  0
  5 12  1  0  0  0  0
  5  4  1  0  0  0  0
  5 11  1  0  0  0  0
  6 13  1  1  0  0  0
  6  5  1  0  0  0  0
 10  3  1  0  0  0  0
 14  1  1  0  0  0  0
 15 14  1  0  0  0  0
 16  2  1  0  0  0  0
 17 22  1  6  0  0  0
 17 16  1  0  0  0  0
 17 21  1  0  0  0  0
 18 23  1  6  0  0  0
 18 19  1  0  0  0  0
 18 17  1  0  0  0  0
 19 24  1  0  0  0  0
 19 20  1  0  0  0  0
 20 21  1  0  0  0  0
 21 27  1  0  0  0  0
 25 19  1  0  0  0  0
 26 21  1  0  0  0  0
 28 18  1  0  0  0  0
 29 34  1  0  0  0  0
 29 28  1  0  0  0  0
 30 29  2  0  0  0  0
 31 30  1  0  0  0  0
 31 32  2  0  0  0  0
 32 33  1  0  0  0  0
 33 28  2  0  0  0  0
 35 30  1  0  0  0  0
 36 32  1  0  0  0  0
 37  6  1  0  0  0  0
 38 45  1  6  0  0  0
 38 39  1  0  0  0  0
 39 37  1  6  0  0  0
 39 40  1  0  0  0  0
 40 41  1  0  0  0  0
 42 40  1  0  0  0  0
 43 38  1  0  0  0  0
 43 42  1  0  0  0  0
 43 44  1  0  0  0  0
 46 45  1  0  0  0  0
M  END
>  <minimizedAffinity>
-5.08727074

$$$$

 OpenBabel03262521443D

 46 49  0  0  1  0  0  0  0  0999 V2000
   38.9290   25.9710   34.1690 C   0  0  2  0  0  0  0  0  0  0  0  0
   38.4010   25.6420   35.5500 C   0  0  2  0  0  0  0  0  0  0  0  0
   38.2360   26.9240   36.2970 C   0  0  0  0  0  0  0  0  0  0  0  0
   37.9030   27.9510   35.4590 O   0  0  0  0  0  0  0  0  0  0  0  0
   37.0090   27.4960   34.5060 C   0  0  0  0  0  0  0  0  0  0  0  0
   37.7510   26.7100   33.4780 C   0  0  2  0  0  0  0  0  0  0  0  0
   39.7750   26.6830   34.2480 H   0  0  0  0  0  0  0  0  0  0  0  0
   37.3870   25.3390   35.2400 H   0  0  0  0  0  0  0  0  0  0  0  0
   37.4430   26.8590   37.0920 H   0  0  0  0  0  0  0  0  0  0  0  0
   39.1870   27.2070   36.8070 H   0  0  0  0  0  0  0  0  0  0  0  0
   36.5890   28.3930   34.0020 H   0  0  0  0  0  0  0  0  0  0  0  0
   36.1990   26.9960   35.0260 H   0  0  0  0  0  0  0  0  0  0  0  0
   38.1920   27.3850   32.7260 H   0  0  0  0  0  0  0  0  0  0  0  0
   39.2230   24.9280   33.3550 O   0  0  0  0  0  0  0  0  0  0  0  0
   39.1510   25.1030   32.3970 H   0  0  0  0  0  0  0  0  0  0  0  0
   39.0770   24.6890   36.2540 O   0  0  0  0  0  0  0  0  0  0  0  0
   38.2910   23.6550   36.5680 C   0  0  1  0  0  0  0  0  0  0  0  0
   38.9280   22.3010   36.3930 C   0  0  2  0  0  0  0  0  0  0  0  0
   40.0700   22.4820   37.4030 C   0  0  0  0  0  0  0  0  0  0  0  0
   39.5300   23.1050   38.5020 O   0  0  0  0  0  0  0  0  0  0  0  0
   38.3450   23.6030   38.1310 C   0  0  0  0  0  0  0  0  0  0  0  0
   37.1880   23.8040   36.4960 H   0  0  0  0  0  0  0  0  0  0  0  0
   38.2130   21.5290   36.7160 H   0  0  0  0  0  0  0  0  0  0  0  0
   40.7780   23.1870   36.9260 H   0  0  0  0  0  0  0  0  0  0  0  0
   40.5190   21.5190   37.6690 H   0  0  0  0  0  0  0  0  0  0  0  0
   37.7240   22.6210   38.2180 H   0  0  0  0  0  0  0  0  0  0  0  0
   37.7050   24.1740   38.7030 H   0  0  0  0  0  0  0  0  0  0  0  0
   39.4340   22.0990   35.0300 C   0  0  0  0  0  0  0  0  0  0  0  0
   40.8180   22.1390   34.8370 C   0  0  0  0  0  0  0  0  0  0  0  0
   41.2740   21.9570   33.5040 C   0  0  0  0  0  0  0  0  0  0  0  0
   40.3530   21.7570   32.5080 N   0  0  0  0  0  0  0  0  0  0  0  0
   39.0210   21.7260   32.7470 C   0  0  0  0  0  0  0  0  0  0  0  0
   38.5730   21.8980   34.0070 N   0  0  0  0  0  0  0  0  0  0  0  0
   41.5290   22.2950   35.6180 H   0  0  0  0  0  0  0  0  0  0  0  0
   42.3150   21.9720   33.2590 H   0  0  0  0  0  0  0  0  0  0  0  0
   38.3300   21.5660   31.9310 H   0  0  0  0  0  0  0  0  0  0  0  0
   36.8700   25.7730   32.9440 O   0  0  0  0  0  0  0  0  0  0  0  0
   36.1110   24.5230   31.0010 C   0  0  2  0  0  3  0  0  0  0  0  0
   36.6890   25.7550   31.6120 C   0  0  1  0  0  3  0  0  0  0  0  0
   35.5920   26.7930   31.3210 C   0  0  0  0  0  3  0  0  0  0  0  0
   35.7200   27.2290   30.3100 H   0  0  0  0  0  0  0  0  0  0  0  0
   34.4470   26.0050   31.4130 O   0  0  0  0  0  0  0  0  0  0  0  0
   34.7520   25.0110   30.4800 C   0  0  0  0  0  3  0  0  0  0  0  0
   34.8790   25.5450   29.5170 H   0  0  0  0  0  0  0  0  0  0  0  0
   35.9430   23.4610   31.8840 O   0  0  0  0  0  0  0  0  0  0  0  0
   35.7780   22.6610   31.3310 H   0  0  0  0  0  0  0  0  0  0  0  0
  1  7  1  1  0  0  0
  1  2  1  0  0  0  0
  2  8  1  6  0  0  0
  2 16  1  0  0  0  0
  2  3  1  0  0  0  0
  3 10  1  0  0  0  0
  3  9  1  0  0  0  0
  4  3  1  0  0  0  0
  5 12  1  0  0  0  0
  5  4  1  0  0  0  0
  6 13  1  6  0  0  0
  6  1  1  0  0  0  0
  6  5  1  0  0  0  0
 11  5  1  0  0  0  0
 14  1  1  0  0  0  0
 15 14  1  0  0  0  0
 16 17  1  0  0  0  0
 17 22  1  6  0  0  0
 17 21  1  0  0  0  0
 18 17  1  0  0  0  0
 18 23  1  1  0  0  0
 18 19  1  0  0  0  0
 19 25  1  0  0  0  0
 19 20  1  0  0  0  0
 21 26  1  0  0  0  0
 21 20  1  0  0  0  0
 21 27  1  0  0  0  0
 24 19  1  0  0  0  0
 28 18  1  0  0  0  0
 29 28  1  0  0  0  0
 29 34  1  0  0  0  0
 30 29  2  0  0  0  0
 31 32  2  0  0  0  0
 31 30  1  0  0  0  0
 32 33  1  0  0  0  0
 33 28  2  0  0  0  0
 35 30  1  0  0  0  0
 36 32  1  0  0  0  0
 37  6  1  0  0  0  0
 38 39  1  0  0  0  0
 38 45  1  1  0  0  0
 39 37  1  1  0  0  0
 40 42  1  0  0  0  0
 40 39  1  0  0  0  0
 41 40  1  0  0  0  0
 43 38  1  0  0  0  0
 43 42  1  0  0  0  0
 44 43  1  0  0  0  0
 46 45  1  0  0  0  0
M  END
>  <minimizedAffinity>
-5.00869989

$$$$

 OpenBabel03262521443D

 46 49  0  0  1  0  0  0  0  0999 V2000
   37.5830   24.7580   31.5230 C   0  0  2  0  0  0  0  0  0  0  0  0
   36.9280   25.6400   32.5660 C   0  0  2  0  0  0  0  0  0  0  0  0
   36.0070   26.5810   31.8620 C   0  0  0  0  0  0  0  0  0  0  0  0
   35.4700   26.0100   30.7420 O   0  0  0  0  0  0  0  0  0  0  0  0
   35.1630   24.6850   31.0020 C   0  0  0  0  0  0  0  0  0  0  0  0
   36.4200   23.8820   30.9820 C   0  0  2  0  0  0  0  0  0  0  0  0
   37.9560   25.3800   30.6840 H   0  0  0  0  0  0  0  0  0  0  0  0
   36.2840   24.8640   33.0150 H   0  0  0  0  0  0  0  0  0  0  0  0
   35.1570   26.9210   32.5150 H   0  0  0  0  0  0  0  0  0  0  0  0
   36.5550   27.4960   31.5370 H   0  0  0  0  0  0  0  0  0  0  0  0
   34.5260   24.3300   30.1650 H   0  0  0  0  0  0  0  0  0  0  0  0
   34.5690   24.6570   31.9100 H   0  0  0  0  0  0  0  0  0  0  0  0
   36.6790   23.6060   29.9470 H   0  0  0  0  0  0  0  0  0  0  0  0
   38.5200   23.8810   31.9550 O   0  0  0  0  0  0  0  0  0  0  0  0
   38.6260   23.0720   31.4170 H   0  0  0  0  0  0  0  0  0  0  0  0
   37.7570   26.2580   33.4540 O   0  0  0  0  0  0  0  0  0  0  0  0
   37.3170   26.1360   34.7110 C   0  0  1  0  0  0  0  0  0  0  0  0
   38.3190   25.5620   35.6780 C   0  0  2  0  0  0  0  0  0  0  0  0
   39.3820   26.6630   35.5460 C   0  0  0  0  0  0  0  0  0  0  0  0
   38.7100   27.8600   35.5270 O   0  0  0  0  0  0  0  0  0  0  0  0
   37.4220   27.5860   35.2880 C   0  0  0  0  0  0  0  0  0  0  0  0
   36.2180   26.0290   34.8650 H   0  0  0  0  0  0  0  0  0  0  0  0
   37.8700   25.5430   36.6830 H   0  0  0  0  0  0  0  0  0  0  0  0
   39.8410   26.5130   34.5500 H   0  0  0  0  0  0  0  0  0  0  0  0
   40.1000   26.6200   36.3720 H   0  0  0  0  0  0  0  0  0  0  0  0
   37.1190   27.2820   36.3710 H   0  0  0  0  0  0  0  0  0  0  0  0
   36.6560   28.2640   35.1590 H   0  0  0  0  0  0  0  0  0  0  0  0
   38.8300   24.2570   35.2390 C   0  0  0  0  0  0  0  0  0  0  0  0
   40.1980   24.1500   34.9710 C   0  0  0  0  0  0  0  0  0  0  0  0
   40.6560   22.8790   34.5310 C   0  0  0  0  0  0  0  0  0  0  0  0
   39.7530   21.8570   34.3980 N   0  0  0  0  0  0  0  0  0  0  0  0
   38.4360   22.0110   34.6700 C   0  0  0  0  0  0  0  0  0  0  0  0
   37.9850   23.2120   35.0890 N   0  0  0  0  0  0  0  0  0  0  0  0
   40.8950   24.9520   35.0780 H   0  0  0  0  0  0  0  0  0  0  0  0
   41.6850   22.7020   34.3030 H   0  0  0  0  0  0  0  0  0  0  0  0
   37.7580   21.1780   34.5500 H   0  0  0  0  0  0  0  0  0  0  0  0
   36.2370   22.7890   31.8250 O   0  0  0  0  0  0  0  0  0  0  0  0
   36.9940   20.5700   31.1780 C   0  0  2  0  0  3  0  0  0  0  0  0
   35.9230   21.6030   31.2730 C   0  0  1  0  0  3  0  0  0  0  0  0
   34.9300   20.9370   32.2400 C   0  0  0  0  0  3  0  0  0  0  0  0
   34.2390   20.2650   31.6940 H   0  0  0  0  0  0  0  0  0  0  0  0
   35.7970   20.2360   33.0730 O   0  0  0  0  0  0  0  0  0  0  0  0
   36.4910   19.4750   32.1290 C   0  0  0  0  0  3  0  0  0  0  0  0
   35.7170   18.8570   31.6290 H   0  0  0  0  0  0  0  0  0  0  0  0
   38.2580   21.0070   31.5630 O   0  0  0  0  0  0  0  0  0  0  0  0
   38.8980   20.3270   31.2460 H   0  0  0  0  0  0  0  0  0  0  0  0
  1  7  1  6  0  0  0
  1 14  1  0  0  0  0
  1  2  1  0  0  0  0
  2  8  1  1  0  0  0
  2 16  1  0  0  0  0
  3  9  1  0  0  0  0
  3  2  1  0  0  0  0
  4  5  1  0  0  0  0
  4  3  1  0  0  0  0
  5 12  1  0  0  0  0
  6 13  1  6  0  0  0
  6  5  1  0  0  0  0
  6  1  1  0  0  0  0
  6 37  1  0  0  0  0
 10  3  1  0  0  0  0
 11  5  1  0  0  0  0
 15 14  1  0  0  0  0
 16 17  1  0  0  0  0
 17 22  1  1  0  0  0
 17 21  1  0  0  0  0
 17 18  1  0  0  0  0
 18 23  1  1  0  0  0
 19 18  1  0  0  0  0
 19 25  1  0  0  0  0
 20 19  1  0  0  0  0
 21 20  1  0  0  0  0
 21 26  1  0  0  0  0
 24 19  1  0  0  0  0
 27 21  1  0  0  0  0
 28 18  1  0  0  0  0
 29 34  1  0  0  0  0
 29 28  2  0  0  0  0
 30 29  1  0  0  0  0
 31 30  2  0  0  0  0
 31 32  1  0  0  0  0
 32 33  2  0  0  0  0
 33 28  1  0  0  0  0
 35 30  1  0  0  0  0
 36 32  1  0  0  0  0
 38 39  1  0  0  0  0
 38 45  1  1  0  0  0
 38 43  1  0  0  0  0
 39 37  1  1  0  0  0
 39 40  1  0  0  0  0
 40 42  1  0  0  0  0
 41 40  1  0  0  0  0
 43 42  1  0  0  0  0
 44 43  1  0  0  0  0
 46 45  1  0  0  0  0
M  END
>  <minimizedAffinity>
-4.99715853

$$$$

 OpenBabel03262521443D

 46 49  0  0  1  0  0  0  0  0999 V2000
   38.0490   24.9100   35.1220 C   0  0  2  0  0  0  0  0  0  0  0  0
   38.0250   25.6600   33.8060 C   0  0  2  0  0  0  0  0  0  0  0  0
   38.2180   27.1110   34.1000 C   0  0  0  0  0  0  0  0  0  0  0  0
   39.0140   27.2980   35.1950 O   0  0  0  0  0  0  0  0  0  0  0  0
   40.0450   26.3740   35.1780 C   0  0  0  0  0  0  0  0  0  0  0  0
   39.5160   25.0480   35.6120 C   0  0  2  0  0  0  0  0  0  0  0  0
   37.3970   25.4210   35.8590 H   0  0  0  0  0  0  0  0  0  0  0  0
   38.9940   25.2960   33.4250 H   0  0  0  0  0  0  0  0  0  0  0  0
   38.6830   27.6660   33.2390 H   0  0  0  0  0  0  0  0  0  0  0  0
   37.2400   27.6020   34.3140 H   0  0  0  0  0  0  0  0  0  0  0  0
   40.7870   26.7020   35.9360 H   0  0  0  0  0  0  0  0  0  0  0  0
   40.5180   26.4260   34.2030 H   0  0  0  0  0  0  0  0  0  0  0  0
   39.4950   24.9880   36.7120 H   0  0  0  0  0  0  0  0  0  0  0  0
   37.8110   23.5770   35.0780 O   0  0  0  0  0  0  0  0  0  0  0  0
   38.2200   23.0480   35.7910 H   0  0  0  0  0  0  0  0  0  0  0  0
   36.9710   25.4110   32.9780 O   0  0  0  0  0  0  0  0  0  0  0  0
   37.3670   25.2190   31.7160 C   0  0  1  0  0  0  0  0  0  0  0  0
   36.6060   24.1540   30.9710 C   0  0  2  0  0  0  0  0  0  0  0  0
   35.2180   24.8090   31.0430 C   0  0  0  0  0  0  0  0  0  0  0  0
   35.4010   26.1470   30.7950 O   0  0  0  0  0  0  0  0  0  0  0  0
   36.7080   26.3990   30.9310 C   0  0  0  0  0  0  0  0  0  0  0  0
   38.4200   25.4820   31.4600 H   0  0  0  0  0  0  0  0  0  0  0  0
   36.9840   24.1070   29.9380 H   0  0  0  0  0  0  0  0  0  0  0  0
   34.8940   24.6970   32.0950 H   0  0  0  0  0  0  0  0  0  0  0  0
   34.5310   24.3580   30.3190 H   0  0  0  0  0  0  0  0  0  0  0  0
   37.0530   26.0240   29.8830 H   0  0  0  0  0  0  0  0  0  0  0  0
   37.1740   27.3170   30.8630 H   0  0  0  0  0  0  0  0  0  0  0  0
   36.6340   22.8610   31.6660 C   0  0  0  0  0  0  0  0  0  0  0  0
   35.4120   22.2370   31.9300 C   0  0  0  0  0  0  0  0  0  0  0  0
   35.4730   20.9970   32.6200 C   0  0  0  0  0  0  0  0  0  0  0  0
   36.6980   20.4960   32.9780 N   0  0  0  0  0  0  0  0  0  0  0  0
   37.8550   21.1390   32.6990 C   0  0  0  0  0  0  0  0  0  0  0  0
   37.8130   22.3180   32.0440 N   0  0  0  0  0  0  0  0  0  0  0  0
   34.4610   22.6340   31.6470 H   0  0  0  0  0  0  0  0  0  0  0  0
   34.5900   20.4470   32.8650 H   0  0  0  0  0  0  0  0  0  0  0  0
   38.8000   20.7080   33.0010 H   0  0  0  0  0  0  0  0  0  0  0  0
   40.2960   24.0640   35.0100 O   0  0  0  0  0  0  0  0  0  0  0  0
   41.1330   22.3340   36.5010 C   0  0  2  0  0  3  0  0  0  0  0  0
   41.3430   23.5720   35.6960 C   0  0  1  0  0  3  0  0  0  0  0  0
   42.3520   23.0910   34.6400 C   0  0  0  0  0  3  0  0  0  0  0  0
   43.3880   23.1600   35.0250 H   0  0  0  0  0  0  0  0  0  0  0  0
   41.9440   21.7720   34.4610 O   0  0  0  0  0  0  0  0  0  0  0  0
   42.0140   21.3080   35.7760 C   0  0  0  0  0  3  0  0  0  0  0  0
   43.0760   21.4350   36.0720 H   0  0  0  0  0  0  0  0  0  0  0  0
   39.8130   21.8930   36.5530 O   0  0  0  0  0  0  0  0  0  0  0  0
   39.7710   21.2260   37.2780 H   0  0  0  0  0  0  0  0  0  0  0  0
  1  6  1  0  0  0  0
  1  7  1  1  0  0  0
  2  8  1  6  0  0  0
  2  3  1  0  0  0  0
  2  1  1  0  0  0  0
  3 10  1  0  0  0  0
  3  4  1  0  0  0  0
  5  4  1  0  0  0  0
  5  6  1  0  0  0  0
  5 11  1  0  0  0  0
  6 13  1  1  0  0  0
  9  3  1  0  0  0  0
 12  5  1  0  0  0  0
 14  1  1  0  0  0  0
 14 15  1  0  0  0  0
 16  2  1  0  0  0  0
 17 22  1  6  0  0  0
 17 16  1  0  0  0  0
 18 23  1  6  0  0  0
 18 19  1  0  0  0  0
 18 28  1  0  0  0  0
 18 17  1  0  0  0  0
 19 24  1  0  0  0  0
 20 21  1  0  0  0  0
 20 19  1  0  0  0  0
 21 17  1  0  0  0  0
 25 19  1  0  0  0  0
 26 21  1  0  0  0  0
 27 21  1  0  0  0  0
 28 29  2  0  0  0  0
 28 33  1  0  0  0  0
 29 30  1  0  0  0  0
 30 35  1  0  0  0  0
 30 31  2  0  0  0  0
 32 31  1  0  0  0  0
 32 36  1  0  0  0  0
 33 32  2  0  0  0  0
 34 29  1  0  0  0  0
 37  6  1  0  0  0  0
 38 45  1  6  0  0  0
 39 37  1  6  0  0  0
 39 38  1  0  0  0  0
 40 41  1  0  0  0  0
 40 39  1  0  0  0  0
 42 40  1  0  0  0  0
 42 43  1  0  0  0  0
 43 44  1  0  0  0  0
 43 38  1  0  0  0  0
 45 46  1  0  0  0  0
M  END
>  <minimizedAffinity>
-4.97978449

$$$$

 OpenBabel03262521443D

 46 49  0  0  1  0  0  0  0  0999 V2000
   39.2650   26.9340   34.7540 C   0  0  2  0  0  0  0  0  0  0  0  0
   38.7680   26.8200   33.3280 C   0  0  2  0  0  0  0  0  0  0  0  0
   39.9550   26.6520   32.4390 C   0  0  0  0  0  0  0  0  0  0  0  0
   40.9590   25.9710   33.0690 O   0  0  0  0  0  0  0  0  0  0  0  0
   40.4170   24.9480   33.8270 C   0  0  0  0  0  0  0  0  0  0  0  0
   39.8330   25.5230   35.0740 C   0  0  2  0  0  0  0  0  0  0  0  0
   40.1050   27.6550   34.8050 H   0  0  0  0  0  0  0  0  0  0  0  0
   38.3150   25.8180   33.4210 H   0  0  0  0  0  0  0  0  0  0  0  0
   39.7080   26.1000   31.4910 H   0  0  0  0  0  0  0  0  0  0  0  0
   40.3650   27.6450   32.1400 H   0  0  0  0  0  0  0  0  0  0  0  0
   41.2570   24.2860   34.1260 H   0  0  0  0  0  0  0  0  0  0  0  0
   39.7540   24.3780   33.1840 H   0  0  0  0  0  0  0  0  0  0  0  0
   40.6170   25.6570   35.8350 H   0  0  0  0  0  0  0  0  0  0  0  0
   38.3390   27.1710   35.7150 O   0  0  0  0  0  0  0  0  0  0  0  0
   38.5570   26.8390   36.6070 H   0  0  0  0  0  0  0  0  0  0  0  0
   37.9040   27.7850   32.9020 O   0  0  0  0  0  0  0  0  0  0  0  0
   36.6370   27.3610   32.9260 C   0  0  1  0  0  0  0  0  0  0  0  0
   35.6290   28.3550   32.4110 C   0  0  2  0  0  0  0  0  0  0  0  0
   36.1690   28.4670   30.9780 C   0  0  0  0  0  0  0  0  0  0  0  0
   36.4870   27.1930   30.5750 O   0  0  0  0  0  0  0  0  0  0  0  0
   36.5280   26.4300   31.6740 C   0  0  0  0  0  0  0  0  0  0  0  0
   36.3680   26.5790   33.6750 H   0  0  0  0  0  0  0  0  0  0  0  0
   34.6300   27.8920   32.4380 H   0  0  0  0  0  0  0  0  0  0  0  0
   37.1100   29.0440   31.0610 H   0  0  0  0  0  0  0  0  0  0  0  0
   35.4290   28.9240   30.3110 H   0  0  0  0  0  0  0  0  0  0  0  0
   35.3820   26.2500   31.7860 H   0  0  0  0  0  0  0  0  0  0  0  0
   36.7880   25.4340   31.7290 H   0  0  0  0  0  0  0  0  0  0  0  0
   35.7000   29.6370   33.1220 C   0  0  0  0  0  0  0  0  0  0  0  0
   35.5820   29.6170   34.5140 C   0  0  0  0  0  0  0  0  0  0  0  0
   35.6380   30.8770   35.1690 C   0  0  0  0  0  0  0  0  0  0  0  0
   35.8010   32.0110   34.4170 N   0  0  0  0  0  0  0  0  0  0  0  0
   35.9100   31.9770   33.0680 C   0  0  0  0  0  0  0  0  0  0  0  0
   35.8590   30.7890   32.4310 N   0  0  0  0  0  0  0  0  0  0  0  0
   35.4570   28.7290   35.0940 H   0  0  0  0  0  0  0  0  0  0  0  0
   35.5570   30.9600   36.2320 H   0  0  0  0  0  0  0  0  0  0  0  0
   36.0370   32.8960   32.5130 H   0  0  0  0  0  0  0  0  0  0  0  0
   38.7920   24.6890   35.4770 O   0  0  0  0  0  0  0  0  0  0  0  0
   38.5500   23.9800   37.7910 C   0  0  2  0  0  3  0  0  0  0  0  0
   39.0510   23.7510   36.4050 C   0  0  1  0  0  3  0  0  0  0  0  0
   38.2510   22.5080   35.9830 C   0  0  0  0  0  3  0  0  0  0  0  0
   38.7530   21.5810   36.3230 H   0  0  0  0  0  0  0  0  0  0  0  0
   37.0470   22.7280   36.6480 O   0  0  0  0  0  0  0  0  0  0  0  0
   37.5070   22.8670   37.9590 C   0  0  0  0  0  3  0  0  0  0  0  0
   38.0060   21.9050   38.1960 H   0  0  0  0  0  0  0  0  0  0  0  0
   37.9710   25.2280   37.9990 O   0  0  0  0  0  0  0  0  0  0  0  0
   37.8930   25.3400   38.9760 H   0  0  0  0  0  0  0  0  0  0  0  0
  1  7  1  1  0  0  0
  1  6  1  0  0  0  0
  1 14  1  0  0  0  0
  2  8  1  6  0  0  0
  2  1  1  0  0  0  0
  3  4  1  0  0  0  0
  3  2  1  0  0  0  0
  4  5  1  0  0  0  0
  5 11  1  0  0  0  0
  5  6  1  0  0  0  0
  6 37  1  0  0  0  0
  6 13  1  1  0  0  0
  9  3  1  0  0  0  0
 10  3  1  0  0  0  0
 12  5  1  0  0  0  0
 14 15  1  0  0  0  0
 16 17  1  0  0  0  0
 16  2  1  0  0  0  0
 17 22  1  1  0  0  0
 18 23  1  1  0  0  0
 18 17  1  0  0  0  0
 18 28  1  0  0  0  0
 19 24  1  0  0  0  0
 19 18  1  0  0  0  0
 20 19  1  0  0  0  0
 20 21  1  0  0  0  0
 21 27  1  0  0  0  0
 21 26  1  0  0  0  0
 21 17  1  0  0  0  0
 25 19  1  0  0  0  0
 28 29  1  0  0  0  0
 29 34  1  0  0  0  0
 29 30  2  0  0  0  0
 30 35  1  0  0  0  0
 31 30  1  0  0  0  0
 32 31  2  0  0  0  0
 33 32  1  0  0  0  0
 33 28  2  0  0  0  0
 36 32  1  0  0  0  0
 38 43  1  0  0  0  0
 38 45  1  6  0  0  0
 39 37  1  6  0  0  0
 39 38  1  0  0  0  0
 40 41  1  0  0  0  0
 40 39  1  0  0  0  0
 40 42  1  0  0  0  0
 42 43  1  0  0  0  0
 43 44  1  0  0  0  0
 45 46  1  0  0  0  0
M  END
>  <minimizedAffinity>
-4.88692427

$$$$

 OpenBabel03262521443D

 46 49  0  0  1  0  0  0  0  0999 V2000
   38.3450   24.7650   30.7810 C   0  0  2  0  0  0  0  0  0  0  0  0
   38.4590   25.2930   32.1960 C   0  0  2  0  0  0  0  0  0  0  0  0
   37.4980   26.4260   32.3440 C   0  0  0  0  0  0  0  0  0  0  0  0
   36.3860   26.2420   31.5700 O   0  0  0  0  0  0  0  0  0  0  0  0
   36.0150   24.9090   31.6060 C   0  0  0  0  0  0  0  0  0  0  0  0
   36.9310   24.1250   30.7270 C   0  0  2  0  0  0  0  0  0  0  0  0
   38.3610   25.6080   30.0610 H   0  0  0  0  0  0  0  0  0  0  0  0
   37.9920   24.4310   32.7010 H   0  0  0  0  0  0  0  0  0  0  0  0
   37.1560   26.5650   33.4070 H   0  0  0  0  0  0  0  0  0  0  0  0
   37.9680   27.3850   32.0250 H   0  0  0  0  0  0  0  0  0  0  0  0
   34.9960   24.8450   31.1690 H   0  0  0  0  0  0  0  0  0  0  0  0
   35.9510   24.6130   32.6480 H   0  0  0  0  0  0  0  0  0  0  0  0
   36.5920   24.1790   29.6800 H   0  0  0  0  0  0  0  0  0  0  0  0
   39.1980   23.7770   30.4190 O   0  0  0  0  0  0  0  0  0  0  0  0
   38.8780   23.1730   29.7210 H   0  0  0  0  0  0  0  0  0  0  0  0
   39.7140   25.5880   32.6400 O   0  0  0  0  0  0  0  0  0  0  0  0
   39.7130   26.6390   33.4660 C   0  0  1  0  0  0  0  0  0  0  0  0
   40.2720   26.3650   34.8380 C   0  0  2  0  0  0  0  0  0  0  0  0
   41.6940   25.9780   34.4030 C   0  0  0  0  0  0  0  0  0  0  0  0
   42.0630   26.8680   33.4240 O   0  0  0  0  0  0  0  0  0  0  0  0
   40.9490   27.4800   33.0060 C   0  0  0  0  0  0  0  0  0  0  0  0
   38.9560   27.4370   33.2850 H   0  0  0  0  0  0  0  0  0  0  0  0
   40.2610   27.3010   35.4170 H   0  0  0  0  0  0  0  0  0  0  0  0
   41.5980   24.9790   33.9370 H   0  0  0  0  0  0  0  0  0  0  0  0
   42.3870   26.0050   35.2500 H   0  0  0  0  0  0  0  0  0  0  0  0
   40.8620   28.2610   33.8670 H   0  0  0  0  0  0  0  0  0  0  0  0
   40.8670   28.1680   32.2430 H   0  0  0  0  0  0  0  0  0  0  0  0
   39.5860   25.2520   35.5050 C   0  0  0  0  0  0  0  0  0  0  0  0
   38.3290   25.5040   36.0630 C   0  0  0  0  0  0  0  0  0  0  0  0
   37.7000   24.4110   36.7170 C   0  0  0  0  0  0  0  0  0  0  0  0
   38.3460   23.2020   36.7620 N   0  0  0  0  0  0  0  0  0  0  0  0
   39.5640   23.0100   36.2060 C   0  0  0  0  0  0  0  0  0  0  0  0
   40.1750   24.0380   35.5810 N   0  0  0  0  0  0  0  0  0  0  0  0
   37.8320   26.4480   36.0230 H   0  0  0  0  0  0  0  0  0  0  0  0
   36.7380   24.5080   37.1730 H   0  0  0  0  0  0  0  0  0  0  0  0
   40.0380   22.0390   36.2660 H   0  0  0  0  0  0  0  0  0  0  0  0
   36.9930   22.8280   31.2320 O   0  0  0  0  0  0  0  0  0  0  0  0
   35.2770   21.3760   32.1590 C   0  0  2  0  0  3  0  0  0  0  0  0
   36.2250   22.5200   32.2920 C   0  0  1  0  0  3  0  0  0  0  0  0
   37.1870   22.0060   33.3760 C   0  0  0  0  0  3  0  0  0  0  0  0
   36.7880   22.2140   34.3880 H   0  0  0  0  0  0  0  0  0  0  0  0
   37.2090   20.6430   33.0880 O   0  0  0  0  0  0  0  0  0  0  0  0
   35.8450   20.3520   33.1510 C   0  0  0  0  0  3  0  0  0  0  0  0
   35.5400   20.6090   34.1860 H   0  0  0  0  0  0  0  0  0  0  0  0
   35.2020   20.8290   30.8820 O   0  0  0  0  0  0  0  0  0  0  0  0
   34.4000   20.2550   30.8700 H   0  0  0  0  0  0  0  0  0  0  0  0
  1  7  1  6  0  0  0
  1  2  1  0  0  0  0
  2  3  1  0  0  0  0
  2 16  1  0  0  0  0
  2  8  1  1  0  0  0
  3  9  1  0  0  0  0
  4  5  1  0  0  0  0
  4  3  1  0  0  0  0
  5 12  1  0  0  0  0
  6 13  1  6  0  0  0
  6  1  1  0  0  0  0
  6 37  1  0  0  0  0
  6  5  1  0  0  0  0
 10  3  1  0  0  0  0
 11  5  1  0  0  0  0
 14  1  1  0  0  0  0
 15 14  1  0  0  0  0
 16 17  1  0  0  0  0
 17 22  1  1  0  0  0
 17 18  1  0  0  0  0
 18 23  1  1  0  0  0
 18 28  1  0  0  0  0
 19 18  1  0  0  0  0
 19 25  1  0  0  0  0
 20 19  1  0  0  0  0
 21 20  1  0  0  0  0
 21 17  1  0  0  0  0
 21 26  1  0  0  0  0
 24 19  1  0  0  0  0
 27 21  1  0  0  0  0
 28 33  2  0  0  0  0
 28 29  1  0  0  0  0
 29 30  2  0  0  0  0
 30 31  1  0  0  0  0
 30 35  1  0  0  0  0
 32 36  1  0  0  0  0
 32 31  2  0  0  0  0
 33 32  1  0  0  0  0
 34 29  1  0  0  0  0
 38 45  1  6  0  0  0
 38 39  1  0  0  0  0
 38 43  1  0  0  0  0
 39 37  1  6  0  0  0
 39 40  1  0  0  0  0
 40 41  1  0  0  0  0
 42 43  1  0  0  0  0
 42 40  1  0  0  0  0
 43 44  1  0  0  0  0
 46 45  1  0  0  0  0
M  END
>  <minimizedAffinity>
-4.77809143

$$$$

 OpenBabel03262521443D

 46 49  0  0  1  0  0  0  0  0999 V2000
   38.6730   26.1590   34.3380 C   0  0  2  0  0  0  0  0  0  0  0  0
   38.6570   25.1260   33.2310 C   0  0  2  0  0  0  0  0  0  0  0  0
   38.3310   25.8270   31.9530 C   0  0  0  0  0  0  0  0  0  0  0  0
   38.8160   27.1050   31.9460 O   0  0  0  0  0  0  0  0  0  0  0  0
   40.0680   27.1250   32.5360 C   0  0  0  0  0  0  0  0  0  0  0  0
   39.9090   27.0430   34.0170 C   0  0  2  0  0  0  0  0  0  0  0  0
   37.7720   26.8010   34.2690 H   0  0  0  0  0  0  0  0  0  0  0  0
   39.7440   24.9380   33.2050 H   0  0  0  0  0  0  0  0  0  0  0  0
   38.7490   25.2960   31.0530 H   0  0  0  0  0  0  0  0  0  0  0  0
   37.2270   25.8900   31.8110 H   0  0  0  0  0  0  0  0  0  0  0  0
   40.5200   28.1130   32.3020 H   0  0  0  0  0  0  0  0  0  0  0  0
   40.6710   26.3610   32.0560 H   0  0  0  0  0  0  0  0  0  0  0  0
   39.7080   28.0430   34.4350 H   0  0  0  0  0  0  0  0  0  0  0  0
   38.8750   25.7100   35.6000 O   0  0  0  0  0  0  0  0  0  0  0  0
   39.2910   26.3430   36.2160 H   0  0  0  0  0  0  0  0  0  0  0  0
   37.9030   24.0110   33.4440 O   0  0  0  0  0  0  0  0  0  0  0  0
   38.6190   22.8930   33.2940 C   0  0  1  0  0  0  0  0  0  0  0  0
   38.3530   21.8290   34.3270 C   0  0  2  0  0  0  0  0  0  0  0  0
   36.8670   21.6060   34.0100 C   0  0  0  0  0  0  0  0  0  0  0  0
   36.7520   21.6020   32.6410 O   0  0  0  0  0  0  0  0  0  0  0  0
   37.8810   22.1240   32.1490 C   0  0  0  0  0  0  0  0  0  0  0  0
   39.5980   22.9730   32.7670 H   0  0  0  0  0  0  0  0  0  0  0  0
   38.9610   20.9430   34.0880 H   0  0  0  0  0  0  0  0  0  0  0  0
   36.3450   22.5030   34.3940 H   0  0  0  0  0  0  0  0  0  0  0  0
   36.5070   20.6670   34.4440 H   0  0  0  0  0  0  0  0  0  0  0  0
   38.5460   21.1700   32.2270 H   0  0  0  0  0  0  0  0  0  0  0  0
   38.0980   22.3120   31.1590 H   0  0  0  0  0  0  0  0  0  0  0  0
   38.5490   22.3230   35.6960 C   0  0  0  0  0  0  0  0  0  0  0  0
   37.4100   22.6340   36.4450 C   0  0  0  0  0  0  0  0  0  0  0  0
   37.6350   23.1260   37.7580 C   0  0  0  0  0  0  0  0  0  0  0  0
   38.9240   23.2650   38.2050 N   0  0  0  0  0  0  0  0  0  0  0  0
   39.9940   22.9500   37.4390 C   0  0  0  0  0  0  0  0  0  0  0  0
   39.7970   22.4810   36.1900 N   0  0  0  0  0  0  0  0  0  0  0  0
   36.4090   22.5220   36.0900 H   0  0  0  0  0  0  0  0  0  0  0  0
   36.8250   23.3900   38.4050 H   0  0  0  0  0  0  0  0  0  0  0  0
   40.9940   23.0750   37.8310 H   0  0  0  0  0  0  0  0  0  0  0  0
   41.0530   26.4380   34.5310 O   0  0  0  0  0  0  0  0  0  0  0  0
   43.3290   26.4430   33.6730 C   0  0  2  0  0  3  0  0  0  0  0  0
   41.9370   25.9080   33.6670 C   0  0  1  0  0  3  0  0  0  0  0  0
   42.1570   24.4570   34.1250 C   0  0  0  0  0  3  0  0  0  0  0  0
   42.4150   23.8070   33.2660 H   0  0  0  0  0  0  0  0  0  0  0  0
   43.2250   24.6140   35.0060 O   0  0  0  0  0  0  0  0  0  0  0  0
   44.1490   25.2440   34.1690 C   0  0  0  0  0  3  0  0  0  0  0  0
   44.3250   24.5290   33.3400 H   0  0  0  0  0  0  0  0  0  0  0  0
   43.5240   27.5440   34.5010 O   0  0  0  0  0  0  0  0  0  0  0  0
   44.3940   27.9330   34.2490 H   0  0  0  0  0  0  0  0  0  0  0  0
  1  7  1  6  0  0  0
  1 14  1  0  0  0  0
  2  8  1  6  0  0  0
  2 16  1  0  0  0  0
  2  1  1  0  0  0  0
  3  2  1  0  0  0  0
  4  3  1  0  0  0  0
  4  5  1  0  0  0  0
  5  6  1  0  0  0  0
  6  1  1  0  0  0  0
  6 13  1  1  0  0  0
  6 37  1  0  0  0  0
  9  3  1  0  0  0  0
 10  3  1  0  0  0  0
 11  5  1  0  0  0  0
 12  5  1  0  0  0  0
 14 15  1  0  0  0  0
 17 22  1  6  0  0  0
 17 16  1  0  0  0  0
 17 18  1  0  0  0  0
 18 23  1  6  0  0  0
 18 28  1  0  0  0  0
 19 18  1  0  0  0  0
 19 24  1  0  0  0  0
 19 25  1  0  0  0  0
 20 19  1  0  0  0  0
 21 26  1  0  0  0  0
 21 20  1  0  0  0  0
 21 17  1  0  0  0  0
 27 21  1  0  0  0  0
 28 33  2  0  0  0  0
 28 29  1  0  0  0  0
 29 30  2  0  0  0  0
 30 31  1  0  0  0  0
 30 35  1  0  0  0  0
 32 36  1  0  0  0  0
 32 31  2  0  0  0  0
 33 32  1  0  0  0  0
 34 29  1  0  0  0  0
 38 43  1  0  0  0  0
 38 45  1  1  0  0  0
 39 38  1  0  0  0  0
 39 40  1  0  0  0  0
 39 37  1  1  0  0  0
 40 42  1  0  0  0  0
 41 40  1  0  0  0  0
 43 42  1  0  0  0  0
 44 43  1  0  0  0  0
 46 45  1  0  0  0  0
M  END
>  <minimizedAffinity>
-4.77503967

$$$$
