
 OpenBabel03272508073D

 24 25  0  0  1  0  0  0  0  0999 V2000
   39.0900   32.4610   47.8860 O   0  0  0  0  0  0  0  0  0  0  0  0
   38.5250   31.4540   46.9480 P   0  0  2  0  0  0  0  0  0  0  0  0
   37.4220   32.2090   45.8910 O   0  0  0  0  0  0  0  0  0  0  0  0
   37.2850   31.6190   45.1000 H   0  0  0  0  0  0  0  0  0  0  0  0
   37.7960   30.1250   47.6940 O   0  0  0  0  0  0  0  0  0  0  0  0
   37.3460   30.1980   51.3700 C   0  0  0  0  0  0  0  0  0  0  0  0
   37.9910   30.4350   50.1420 C   0  0  0  0  0  0  0  0  0  0  0  0
   37.3740   30.0110   48.9710 C   0  0  0  0  0  0  0  0  0  0  0  0
   36.1610   29.3810   49.0900 N   0  0  0  0  0  0  0  0  0  0  0  0
   35.5770   29.1740   50.2760 C   0  0  0  0  0  0  0  0  0  0  0  0
   36.1670   29.5800   51.4050 N   0  0  0  0  0  0  0  0  0  0  0  0
   37.8880   30.5580   52.2490 H   0  0  0  0  0  0  0  0  0  0  0  0
   38.9380   30.9210   49.9920 H   0  0  0  0  0  0  0  0  0  0  0  0
   34.6070   28.6690   50.3470 H   0  0  0  0  0  0  0  0  0  0  0  0
   39.8030   30.9070   45.9700 O   0  0  0  0  0  0  0  0  0  0  0  0
   40.3420   31.4890   43.6920 C   0  0  1  0  0  3  0  0  0  0  0  0
   39.3390   30.9410   44.6520 C   0  0  1  0  0  3  0  0  0  0  0  0
   39.0230   29.5720   44.1250 C   0  0  0  0  0  3  0  0  0  0  0  0
   37.9570   29.4960   43.8110 H   0  0  0  0  0  0  0  0  0  0  0  0
   39.8050   29.3140   43.0240 O   0  0  0  0  0  0  0  0  0  0  0  0
   40.8280   30.2330   42.9900 C   0  0  0  0  0  3  0  0  0  0  0  0
   41.0820   30.5140   41.9370 H   0  0  0  0  0  0  0  0  0  0  0  0
   39.7090   32.2700   42.7280 O   0  0  0  0  0  0  0  0  0  0  0  0
   40.3500   32.7920   42.1820 H   0  0  0  0  0  0  0  0  0  0  0  0
  2  5  1  0  0  0  0
  2  1  2  1  0  0  0
  3  2  1  0  0  0  0
  4  3  1  0  0  0  0
  5  8  1  0  0  0  0
  6 11  1  0  0  0  0
  6 12  1  0  0  0  0
  7  6  2  0  0  0  0
  8  9  2  0  0  0  0
  8  7  1  0  0  0  0
  9 10  1  0  0  0  0
 10 14  1  0  0  0  0
 10 11  2  0  0  0  0
 13  7  1  0  0  0  0
 15  2  1  0  0  0  0
 16 23  1  6  0  0  0
 16 17  1  0  0  0  0
 17 15  1  1  0  0  0
 18 17  1  0  0  0  0
 19 18  1  0  0  0  0
 20 18  1  0  0  0  0
 21 20  1  0  0  0  0
 21 16  1  0  0  0  0
 22 21  1  0  0  0  0
 24 23  1  0  0  0  0
M  END
>  <minimizedAffinity>
-5.04929161

>  <minimizedRMSD>
2.29538941

$$$$
