
 OpenBabel03272506403D

 19 20  0  0  1  0  0  0  0  0999 V2000
   34.4750   28.3140   49.3890 S   0  0  0  0  0  0  0  0  0  0  0  0
   37.3020   30.1930   51.4230 C   0  0  0  0  0  0  0  0  0  0  0  0
   38.1460   30.7480   50.4600 C   0  0  0  0  0  0  0  0  0  0  0  0
   37.8310   30.5320   49.1110 C   0  0  0  0  0  0  0  0  0  0  0  0
   36.7180   29.7960   48.8300 N   0  0  0  0  0  0  0  0  0  0  0  0
   35.9330   29.2800   49.7800 C   0  0  0  0  0  0  0  0  0  0  0  0
   36.2180   29.4750   51.0700 N   0  0  0  0  0  0  0  0  0  0  0  0
   37.5310   30.3500   52.4720 H   0  0  0  0  0  0  0  0  0  0  0  0
   39.0220   31.3290   50.7430 H   0  0  0  0  0  0  0  0  0  0  0  0
   38.4690   30.9520   48.3450 H   0  0  0  0  0  0  0  0  0  0  0  0
   33.5820   29.5620   47.0620 C   0  0  2  0  0  3  0  0  0  0  0  0
   34.2640   28.3380   47.6320 C   0  0  2  0  0  3  0  0  0  0  0  0
   33.2880   27.2830   47.1210 C   0  0  0  0  0  3  0  0  0  0  0  0
   33.7680   26.2840   47.1850 H   0  0  0  0  0  0  0  0  0  0  0  0
   32.9600   27.6730   45.8290 O   0  0  0  0  0  0  0  0  0  0  0  0
   33.3310   29.0000   45.6590 C   0  0  0  0  0  3  0  0  0  0  0  0
   32.6490   29.6050   45.0650 H   0  0  0  0  0  0  0  0  0  0  0  0
   34.4140   30.6480   46.9200 O   0  0  0  0  0  0  0  0  0  0  0  0
   35.1010   30.6400   47.6400 H   0  0  0  0  0  0  0  0  0  0  0  0
  1  6  1  0  0  0  0
  2  8  1  0  0  0  0
  3  9  1  0  0  0  0
  3  2  2  0  0  0  0
  4  3  1  0  0  0  0
  5  4  2  0  0  0  0
  5  6  1  0  0  0  0
  6  7  2  0  0  0  0
  7  2  1  0  0  0  0
 10  4  1  0  0  0  0
 11 18  1  6  0  0  0
 11 12  1  0  0  0  0
 12  1  1  1  0  0  0
 13 14  1  0  0  0  0
 13 12  1  0  0  0  0
 15 13  1  0  0  0  0
 16 15  1  0  0  0  0
 16 11  1  0  0  0  0
 17 16  1  0  0  0  0
 18 19  1  0  0  0  0
M  END
>  <minimizedAffinity>
-4.01705456

>  <minimizedRMSD>
0.908460736

$$$$
