
 OpenBabel03272509453D

 19 20  0  0  1  0  0  0  0  0999 V2000
   35.3680   28.8010   48.4850 O   0  0  0  0  0  0  0  0  0  0  0  0
   37.2960   30.1360   51.2630 C   0  0  0  0  0  0  0  0  0  0  0  0
   38.2350   30.9050   50.5490 C   0  0  0  0  0  0  0  0  0  0  0  0
   38.1640   30.9310   49.1460 C   0  0  0  0  0  0  0  0  0  0  0  0
   37.1700   30.1940   48.5660 N   0  0  0  0  0  0  0  0  0  0  0  0
   36.2870   29.4690   49.2720 C   0  0  0  0  0  0  0  0  0  0  0  0
   36.3450   29.4370   50.6210 N   0  0  0  0  0  0  0  0  0  0  0  0
   37.3590   30.1230   52.3500 H   0  0  0  0  0  0  0  0  0  0  0  0
   39.0170   31.4850   51.0270 H   0  0  0  0  0  0  0  0  0  0  0  0
   38.8470   31.4960   48.5390 H   0  0  0  0  0  0  0  0  0  0  0  0
   33.7580   29.9030   47.1660 C   0  0  2  0  0  3  0  0  0  0  0  0
   33.9890   29.1130   48.4340 C   0  0  1  0  0  3  0  0  0  0  0  0
   33.1460   27.8700   48.1850 C   0  0  0  0  0  3  0  0  0  0  0  0
   32.0900   28.1190   48.4330 H   0  0  0  0  0  0  0  0  0  0  0  0
   33.3050   27.6820   46.7930 O   0  0  0  0  0  0  0  0  0  0  0  0
   32.9530   28.9360   46.3230 C   0  0  0  0  0  3  0  0  0  0  0  0
   31.8740   29.0770   46.5410 H   0  0  0  0  0  0  0  0  0  0  0  0
   34.9140   30.3370   46.5670 O   0  0  0  0  0  0  0  0  0  0  0  0
   35.2080   29.7510   45.8150 H   0  0  0  0  0  0  0  0  0  0  0  0
  1  6  1  0  0  0  0
  2  8  1  0  0  0  0
  3  9  1  0  0  0  0
  3  2  2  0  0  0  0
  4  3  1  0  0  0  0
  5  4  2  0  0  0  0
  5  6  1  0  0  0  0
  6  7  2  0  0  0  0
  7  2  1  0  0  0  0
 10  4  1  0  0  0  0
 11 18  1  6  0  0  0
 11 12  1  0  0  0  0
 12  1  1  6  0  0  0
 13 14  1  0  0  0  0
 13 12  1  0  0  0  0
 15 13  1  0  0  0  0
 16 17  1  0  0  0  0
 16 15  1  0  0  0  0
 16 11  1  0  0  0  0
 19 18  1  0  0  0  0
M  END
>  <minimizedAffinity>
-3.8765552

>  <minimizedRMSD>
2.65558934

$$$$
