
 OpenBabel03272503513D

 37 39  0  0  1  0  0  0  0  0999 V2000
   37.9240   25.3760   34.7490 C   0  0  1  0  0  0  0  0  0  0  0  0
   38.2780   25.5050   33.2490 C   0  0  2  0  0  0  0  0  0  0  0  0
   39.2150   26.4880   33.2330 O   0  0  0  0  0  0  0  0  0  0  0  0
   40.0760   26.1760   34.2650 C   0  0  0  0  0  0  0  0  0  0  0  0
   39.2760   25.5580   35.3780 C   0  0  2  0  0  0  0  0  0  0  0  0
   37.4820   24.3810   34.9680 H   0  0  0  0  0  0  0  0  0  0  0  0
   38.7270   24.5040   32.9960 H   0  0  0  0  0  0  0  0  0  0  0  0
   40.6450   27.0750   34.6150 H   0  0  0  0  0  0  0  0  0  0  0  0
   40.8280   25.4430   33.9110 H   0  0  0  0  0  0  0  0  0  0  0  0
   39.1690   26.2870   36.2120 H   0  0  0  0  0  0  0  0  0  0  0  0
   36.9800   26.3180   35.1050 O   0  0  0  0  0  0  0  0  0  0  0  0
   37.0100   26.5630   36.0430 H   0  0  0  0  0  0  0  0  0  0  0  0
   37.0870   25.7660   32.6390 O   0  0  0  0  0  0  0  0  0  0  0  0
   35.0480   24.7490   31.3080 O   0  0  0  0  0  0  0  0  0  0  0  0
   36.5000   24.5000   31.7000 P   0  0  1  0  0  0  0  0  0  0  0  0
   37.3450   24.4210   30.2350 O   0  0  0  0  0  0  0  0  0  0  0  0
   38.3160   24.4260   30.4570 H   0  0  0  0  0  0  0  0  0  0  0  0
   36.7270   23.0620   32.5930 O   0  0  0  0  0  0  0  0  0  0  0  0
   36.3400   21.8270   32.0970 C   0  0  0  0  0  0  0  0  0  0  0  0
   35.2550   21.0600   32.5840 C   0  0  0  0  0  0  0  0  0  0  0  0
   34.9960   19.8390   31.9770 C   0  0  0  0  0  0  0  0  0  0  0  0
   35.7980   19.4370   30.9420 N   0  0  0  0  0  0  0  0  0  0  0  0
   36.8350   20.1940   30.4930 C   0  0  0  0  0  0  0  0  0  0  0  0
   37.1050   21.3950   31.0750 N   0  0  0  0  0  0  0  0  0  0  0  0
   34.7070   21.4820   33.3940 H   0  0  0  0  0  0  0  0  0  0  0  0
   34.1770   19.2540   32.3410 H   0  0  0  0  0  0  0  0  0  0  0  0
   37.4320   19.8290   29.6770 H   0  0  0  0  0  0  0  0  0  0  0  0
   39.8030   24.3390   35.7530 O   0  0  0  0  0  0  0  0  0  0  0  0
   39.5460   23.2980   37.9110 C   0  0  2  0  0  3  0  0  0  0  0  0
   38.9650   23.5820   36.5430 C   0  0  2  0  0  3  0  0  0  0  0  0
   39.0060   22.1760   35.9510 C   0  0  0  0  0  3  0  0  0  0  0  0
   38.2040   21.5280   36.3280 H   0  0  0  0  0  0  0  0  0  0  0  0
   40.2810   21.7750   36.3090 O   0  0  0  0  0  0  0  0  0  0  0  0
   40.5750   22.2470   37.5620 C   0  0  0  0  0  3  0  0  0  0  0  0
   41.5900   22.7130   37.5540 H   0  0  0  0  0  0  0  0  0  0  0  0
   38.5640   22.6500   38.6570 O   0  0  0  0  0  0  0  0  0  0  0  0
   37.6870   22.7810   38.2590 H   0  0  0  0  0  0  0  0  0  0  0  0
  1  6  1  1  0  0  0
  1 11  1  0  0  0  0
  1  5  1  0  0  0  0
  2  7  1  6  0  0  0
  2  1  1  0  0  0  0
  3  2  1  0  0  0  0
  3  4  1  0  0  0  0
  4  8  1  0  0  0  0
  4  5  1  0  0  0  0
  5 28  1  0  0  0  0
  5 10  1  1  0  0  0
  9  4  1  0  0  0  0
 11 12  1  0  0  0  0
 13  2  1  0  0  0  0
 15 14  2  6  0  0  0
 15 18  1  0  0  0  0
 15 13  1  0  0  0  0
 16 17  1  0  0  0  0
 16 15  1  0  0  0  0
 19 20  1  0  0  0  0
 19 18  1  0  0  0  0
 20 25  1  0  0  0  0
 21 26  1  0  0  0  0
 21 20  2  0  0  0  0
 22 21  1  0  0  0  0
 23 22  2  0  0  0  0
 23 24  1  0  0  0  0
 24 19  2  0  0  0  0
 27 23  1  0  0  0  0
 29 36  1  1  0  0  0
 30 28  1  6  0  0  0
 30 29  1  0  0  0  0
 31 33  1  0  0  0  0
 31 32  1  0  0  0  0
 31 30  1  0  0  0  0
 33 34  1  0  0  0  0
 34 29  1  0  0  0  0
 35 34  1  0  0  0  0
 37 36  1  0  0  0  0
M  END
>  <minimizedAffinity>
-5.53650618

$$$$

 OpenBabel03272503513D

 37 39  0  0  1  0  0  0  0  0999 V2000
   37.7360   24.9660   32.2330 C   0  0  1  0  0  0  0  0  0  0  0  0
   37.0800   26.1730   32.9440 C   0  0  2  0  0  0  0  0  0  0  0  0
   36.2890   26.7100   31.9800 O   0  0  0  0  0  0  0  0  0  0  0  0
   35.6430   25.6350   31.4070 C   0  0  0  0  0  0  0  0  0  0  0  0
   36.5860   24.4630   31.4060 C   0  0  2  0  0  0  0  0  0  0  0  0
   38.0900   24.2160   32.9720 H   0  0  0  0  0  0  0  0  0  0  0  0
   36.4680   25.6990   33.7620 H   0  0  0  0  0  0  0  0  0  0  0  0
   35.2790   25.8720   30.3760 H   0  0  0  0  0  0  0  0  0  0  0  0
   34.7490   25.3770   32.0080 H   0  0  0  0  0  0  0  0  0  0  0  0
   36.9610   24.2850   30.3740 H   0  0  0  0  0  0  0  0  0  0  0  0
   38.8420   25.3710   31.5150 O   0  0  0  0  0  0  0  0  0  0  0  0
   39.0480   24.7970   30.7610 H   0  0  0  0  0  0  0  0  0  0  0  0
   38.1320   26.9230   33.3810 O   0  0  0  0  0  0  0  0  0  0  0  0
   39.8600   26.9330   35.3750 O   0  0  0  0  0  0  0  0  0  0  0  0
   38.3730   26.8700   35.0450 P   0  0  1  0  0  0  0  0  0  0  0  0
   37.7010   28.2430   35.7740 O   0  0  0  0  0  0  0  0  0  0  0  0
   36.7660   28.3240   35.4400 H   0  0  0  0  0  0  0  0  0  0  0  0
   37.6050   25.4580   35.6210 O   0  0  0  0  0  0  0  0  0  0  0  0
   38.2610   24.5560   36.4440 C   0  0  0  0  0  0  0  0  0  0  0  0
   38.0190   24.3960   37.8290 C   0  0  0  0  0  0  0  0  0  0  0  0
   38.7630   23.4450   38.5150 C   0  0  0  0  0  0  0  0  0  0  0  0
   39.6890   22.7110   37.8230 N   0  0  0  0  0  0  0  0  0  0  0  0
   39.9020   22.8850   36.4900 C   0  0  0  0  0  0  0  0  0  0  0  0
   39.1830   23.8140   35.8000 N   0  0  0  0  0  0  0  0  0  0  0  0
   37.2720   25.0270   38.2530 H   0  0  0  0  0  0  0  0  0  0  0  0
   38.5840   23.3190   39.5630 H   0  0  0  0  0  0  0  0  0  0  0  0
   40.6420   22.2820   35.9970 H   0  0  0  0  0  0  0  0  0  0  0  0
   36.0090   23.3590   32.0000 O   0  0  0  0  0  0  0  0  0  0  0  0
   35.7040   21.1850   31.0050 C   0  0  2  0  0  3  0  0  0  0  0  0
   36.6280   22.1670   31.6920 C   0  0  2  0  0  3  0  0  0  0  0  0
   36.8160   21.4480   33.0260 C   0  0  0  0  0  3  0  0  0  0  0  0
   37.5100   20.6010   32.9630 H   0  0  0  0  0  0  0  0  0  0  0  0
   35.5110   21.0990   33.3240 O   0  0  0  0  0  0  0  0  0  0  0  0
   34.8600   20.7330   32.1750 C   0  0  0  0  0  3  0  0  0  0  0  0
   33.8670   21.2440   32.1330 H   0  0  0  0  0  0  0  0  0  0  0  0
   36.4680   20.0840   30.6270 O   0  0  0  0  0  0  0  0  0  0  0  0
   37.4150   20.3060   30.6240 H   0  0  0  0  0  0  0  0  0  0  0  0
  1  2  1  0  0  0  0
  1  6  1  1  0  0  0
  2 13  1  0  0  0  0
  2  7  1  1  0  0  0
  3  2  1  0  0  0  0
  4  3  1  0  0  0  0
  4  9  1  0  0  0  0
  5 10  1  6  0  0  0
  5  4  1  0  0  0  0
  5 28  1  0  0  0  0
  5  1  1  0  0  0  0
  8  4  1  0  0  0  0
 11  1  1  0  0  0  0
 12 11  1  0  0  0  0
 13 15  1  0  0  0  0
 15 14  2  1  0  0  0
 15 18  1  0  0  0  0
 15 16  1  0  0  0  0
 17 16  1  0  0  0  0
 18 19  1  0  0  0  0
 19 20  1  0  0  0  0
 20 25  1  0  0  0  0
 20 21  2  0  0  0  0
 21 26  1  0  0  0  0
 22 21  1  0  0  0  0
 23 22  2  0  0  0  0
 24 19  2  0  0  0  0
 24 23  1  0  0  0  0
 27 23  1  0  0  0  0
 29 36  1  1  0  0  0
 29 30  1  0  0  0  0
 29 34  1  0  0  0  0
 30 28  1  1  0  0  0
 30 31  1  0  0  0  0
 31 33  1  0  0  0  0
 32 31  1  0  0  0  0
 34 33  1  0  0  0  0
 35 34  1  0  0  0  0
 37 36  1  0  0  0  0
M  END
>  <minimizedAffinity>
-5.49771309

$$$$

 OpenBabel03272503513D

 37 39  0  0  1  0  0  0  0  0999 V2000
   37.7980   25.5970   34.6750 C   0  0  1  0  0  0  0  0  0  0  0  0
   38.2250   25.8040   33.2030 C   0  0  2  0  0  0  0  0  0  0  0  0
   39.1600   26.7860   33.2840 O   0  0  0  0  0  0  0  0  0  0  0  0
   39.9700   26.4210   34.3390 C   0  0  0  0  0  0  0  0  0  0  0  0
   39.1180   25.7460   35.3780 C   0  0  2  0  0  0  0  0  0  0  0  0
   37.3480   24.5920   34.8190 H   0  0  0  0  0  0  0  0  0  0  0  0
   38.6890   24.8170   32.9200 H   0  0  0  0  0  0  0  0  0  0  0  0
   40.5190   27.3000   34.7620 H   0  0  0  0  0  0  0  0  0  0  0  0
   40.7400   25.7070   33.9850 H   0  0  0  0  0  0  0  0  0  0  0  0
   38.9680   26.4310   36.2420 H   0  0  0  0  0  0  0  0  0  0  0  0
   36.8360   26.5200   35.0320 O   0  0  0  0  0  0  0  0  0  0  0  0
   36.8200   26.7170   35.9820 H   0  0  0  0  0  0  0  0  0  0  0  0
   37.0650   26.0970   32.5500 O   0  0  0  0  0  0  0  0  0  0  0  0
   38.5080   26.5540   30.3880 O   0  0  0  0  0  0  0  0  0  0  0  0
   37.2710   27.0120   31.1530 P   0  0  1  0  0  0  0  0  0  0  0  0
   35.9760   26.7560   30.0930 O   0  0  0  0  0  0  0  0  0  0  0  0
   35.1390   26.8870   30.6160 H   0  0  0  0  0  0  0  0  0  0  0  0
   37.3320   28.6510   31.6280 O   0  0  0  0  0  0  0  0  0  0  0  0
   36.2180   29.3080   32.1260 C   0  0  0  0  0  0  0  0  0  0  0  0
   35.3670   30.1490   31.3720 C   0  0  0  0  0  0  0  0  0  0  0  0
   34.2880   30.7360   32.0200 C   0  0  0  0  0  0  0  0  0  0  0  0
   34.0990   30.4720   33.3500 N   0  0  0  0  0  0  0  0  0  0  0  0
   34.9330   29.6590   34.0530 C   0  0  0  0  0  0  0  0  0  0  0  0
   35.9970   29.0750   33.4350 N   0  0  0  0  0  0  0  0  0  0  0  0
   35.6190   30.2750   30.3440 H   0  0  0  0  0  0  0  0  0  0  0  0
   33.6400   31.3730   31.4540 H   0  0  0  0  0  0  0  0  0  0  0  0
   34.7380   29.4870   35.0960 H   0  0  0  0  0  0  0  0  0  0  0  0
   39.6290   24.5090   35.7140 O   0  0  0  0  0  0  0  0  0  0  0  0
   38.9670   23.4610   37.7810 C   0  0  2  0  0  3  0  0  0  0  0  0
   38.7140   23.6640   36.3030 C   0  0  2  0  0  3  0  0  0  0  0  0
   39.0600   22.2670   35.7910 C   0  0  0  0  0  3  0  0  0  0  0  0
   38.2700   21.5310   35.9840 H   0  0  0  0  0  0  0  0  0  0  0  0
   40.2440   22.0250   36.4640 O   0  0  0  0  0  0  0  0  0  0  0  0
   40.1630   22.5370   37.7330 C   0  0  0  0  0  3  0  0  0  0  0  0
   41.0890   23.1220   37.9560 H   0  0  0  0  0  0  0  0  0  0  0  0
   37.9130   22.7050   38.2870 O   0  0  0  0  0  0  0  0  0  0  0  0
   37.1510   22.7270   37.6830 H   0  0  0  0  0  0  0  0  0  0  0  0
  1  6  1  1  0  0  0
  1 11  1  0  0  0  0
  1  5  1  0  0  0  0
  2  7  1  6  0  0  0
  2  3  1  0  0  0  0
  2  1  1  0  0  0  0
  3  4  1  0  0  0  0
  4  8  1  0  0  0  0
  4  5  1  0  0  0  0
  5 28  1  0  0  0  0
  5 10  1  1  0  0  0
  9  4  1  0  0  0  0
 11 12  1  0  0  0  0
 13  2  1  0  0  0  0
 15 14  2  6  0  0  0
 15 18  1  0  0  0  0
 15 13  1  0  0  0  0
 16 17  1  0  0  0  0
 16 15  1  0  0  0  0
 18 19  1  0  0  0  0
 19 24  1  0  0  0  0
 20 21  1  0  0  0  0
 20 19  2  0  0  0  0
 21 22  2  0  0  0  0
 22 23  1  0  0  0  0
 23 27  1  0  0  0  0
 24 23  2  0  0  0  0
 25 20  1  0  0  0  0
 26 21  1  0  0  0  0
 29 36  1  6  0  0  0
 30 28  1  6  0  0  0
 30 29  1  0  0  0  0
 31 32  1  0  0  0  0
 31 30  1  0  0  0  0
 31 33  1  0  0  0  0
 33 34  1  0  0  0  0
 34 29  1  0  0  0  0
 34 35  1  0  0  0  0
 37 36  1  0  0  0  0
M  END
>  <minimizedAffinity>
-5.08943129

$$$$

 OpenBabel03272503513D

 37 39  0  0  1  0  0  0  0  0999 V2000
   39.2160   26.6110   35.4690 C   0  0  1  0  0  0  0  0  0  0  0  0
   38.4450   25.2720   35.4070 C   0  0  2  0  0  0  0  0  0  0  0  0
   37.3820   25.5600   34.6110 O   0  0  0  0  0  0  0  0  0  0  0  0
   37.9120   26.2630   33.5490 C   0  0  0  0  0  0  0  0  0  0  0  0
   39.0530   27.1000   34.0570 C   0  0  2  0  0  0  0  0  0  0  0  0
   40.2790   26.4440   35.7420 H   0  0  0  0  0  0  0  0  0  0  0  0
   39.1650   24.5750   34.8940 H   0  0  0  0  0  0  0  0  0  0  0  0
   37.1360   26.8870   33.0390 H   0  0  0  0  0  0  0  0  0  0  0  0
   38.2960   25.5520   32.7910 H   0  0  0  0  0  0  0  0  0  0  0  0
   38.7430   28.1680   34.1000 H   0  0  0  0  0  0  0  0  0  0  0  0
   38.6790   27.4320   36.4400 O   0  0  0  0  0  0  0  0  0  0  0  0
   38.8210   28.3770   36.2720 H   0  0  0  0  0  0  0  0  0  0  0  0
   38.1860   24.9670   36.7100 O   0  0  0  0  0  0  0  0  0  0  0  0
   39.7580   23.3350   38.0640 O   0  0  0  0  0  0  0  0  0  0  0  0
   38.5520   23.3800   37.1330 P   0  0  1  0  0  0  0  0  0  0  0  0
   37.2800   22.7080   38.0270 O   0  0  0  0  0  0  0  0  0  0  0  0
   36.4420   22.8730   37.5140 H   0  0  0  0  0  0  0  0  0  0  0  0
   38.7790   22.5110   35.6810 O   0  0  0  0  0  0  0  0  0  0  0  0
   37.7150   21.9380   35.0000 C   0  0  0  0  0  0  0  0  0  0  0  0
   37.5810   21.8950   33.5930 C   0  0  0  0  0  0  0  0  0  0  0  0
   36.4530   21.2830   33.0630 C   0  0  0  0  0  0  0  0  0  0  0  0
   35.5290   20.7530   33.9240 N   0  0  0  0  0  0  0  0  0  0  0  0
   35.6820   20.8080   35.2750 C   0  0  0  0  0  0  0  0  0  0  0  0
   36.7820   21.4040   35.8130 N   0  0  0  0  0  0  0  0  0  0  0  0
   38.3690   22.3430   33.0310 H   0  0  0  0  0  0  0  0  0  0  0  0
   36.3460   21.2470   31.9990 H   0  0  0  0  0  0  0  0  0  0  0  0
   34.9260   20.3750   35.9040 H   0  0  0  0  0  0  0  0  0  0  0  0
   40.2020   26.8690   33.3300 O   0  0  0  0  0  0  0  0  0  0  0  0
   42.5450   27.2100   33.7800 C   0  0  2  0  0  3  0  0  0  0  0  0
   41.2740   26.4500   34.0890 C   0  0  2  0  0  3  0  0  0  0  0  0
   41.6540   25.0790   33.5350 C   0  0  0  0  0  3  0  0  0  0  0  0
   42.3310   24.5230   34.1950 H   0  0  0  0  0  0  0  0  0  0  0  0
   42.2050   25.4300   32.3160 O   0  0  0  0  0  0  0  0  0  0  0  0
   42.9230   26.5900   32.4530 C   0  0  0  0  0  3  0  0  0  0  0  0
   42.6530   27.2930   31.6280 H   0  0  0  0  0  0  0  0  0  0  0  0
   43.5130   26.7960   34.6920 O   0  0  0  0  0  0  0  0  0  0  0  0
   43.1010   26.3610   35.4580 H   0  0  0  0  0  0  0  0  0  0  0  0
  1  6  1  1  0  0  0
  1 11  1  0  0  0  0
  2  7  1  6  0  0  0
  2  1  1  0  0  0  0
  2 13  1  0  0  0  0
  3  2  1  0  0  0  0
  4  5  1  0  0  0  0
  4  3  1  0  0  0  0
  5 10  1  6  0  0  0
  5  1  1  0  0  0  0
  8  4  1  0  0  0  0
  9  4  1  0  0  0  0
 12 11  1  0  0  0  0
 13 15  1  0  0  0  0
 15 16  1  0  0  0  0
 15 14  2  1  0  0  0
 17 16  1  0  0  0  0
 18 15  1  0  0  0  0
 19 18  1  0  0  0  0
 19 24  1  0  0  0  0
 20 19  2  0  0  0  0
 21 20  1  0  0  0  0
 21 22  2  0  0  0  0
 22 23  1  0  0  0  0
 23 24  2  0  0  0  0
 23 27  1  0  0  0  0
 25 20  1  0  0  0  0
 26 21  1  0  0  0  0
 28  5  1  0  0  0  0
 29 30  1  0  0  0  0
 29 36  1  1  0  0  0
 30 28  1  6  0  0  0
 31 30  1  0  0  0  0
 31 32  1  0  0  0  0
 33 34  1  0  0  0  0
 33 31  1  0  0  0  0
 34 29  1  0  0  0  0
 35 34  1  0  0  0  0
 36 37  1  0  0  0  0
M  END
>  <minimizedAffinity>
-5.01122093

$$$$

 OpenBabel03272503513D

 37 39  0  0  1  0  0  0  0  0999 V2000
   39.0350   26.5010   34.4110 C   0  0  1  0  0  0  0  0  0  0  0  0
   37.7720   26.2430   33.5560 C   0  0  2  0  0  0  0  0  0  0  0  0
   38.1210   25.1700   32.8000 O   0  0  0  0  0  0  0  0  0  0  0  0
   38.7210   24.2930   33.6800 C   0  0  0  0  0  0  0  0  0  0  0  0
   39.4710   25.0940   34.7090 C   0  0  2  0  0  0  0  0  0  0  0  0
   38.7820   27.0730   35.3290 H   0  0  0  0  0  0  0  0  0  0  0  0
   36.9880   25.9720   34.3180 H   0  0  0  0  0  0  0  0  0  0  0  0
   39.3910   23.5700   33.1510 H   0  0  0  0  0  0  0  0  0  0  0  0
   37.9430   23.6910   34.1900 H   0  0  0  0  0  0  0  0  0  0  0  0
   40.5640   25.0270   34.5110 H   0  0  0  0  0  0  0  0  0  0  0  0
   39.9470   27.2610   33.7060 O   0  0  0  0  0  0  0  0  0  0  0  0
   40.8660   27.1250   33.9870 H   0  0  0  0  0  0  0  0  0  0  0  0
   37.5540   27.4220   32.9060 O   0  0  0  0  0  0  0  0  0  0  0  0
   36.8270   27.7650   30.3930 O   0  0  0  0  0  0  0  0  0  0  0  0
   36.3140   27.3640   31.7710 P   0  0  1  0  0  0  0  0  0  0  0  0
   35.7640   25.7720   31.5910 O   0  0  0  0  0  0  0  0  0  0  0  0
   35.5770   25.4210   32.5040 H   0  0  0  0  0  0  0  0  0  0  0  0
   35.0550   28.3630   32.3470 O   0  0  0  0  0  0  0  0  0  0  0  0
   35.3140   29.5420   33.0300 C   0  0  0  0  0  0  0  0  0  0  0  0
   35.2930   29.6850   34.4370 C   0  0  0  0  0  0  0  0  0  0  0  0
   35.5760   30.9370   34.9690 C   0  0  0  0  0  0  0  0  0  0  0  0
   35.8590   31.9660   34.1110 N   0  0  0  0  0  0  0  0  0  0  0  0
   35.8720   31.8000   32.7600 C   0  0  0  0  0  0  0  0  0  0  0  0
   35.5970   30.5800   32.2200 N   0  0  0  0  0  0  0  0  0  0  0  0
   35.0590   28.8090   34.9970 H   0  0  0  0  0  0  0  0  0  0  0  0
   35.5620   31.0520   36.0330 H   0  0  0  0  0  0  0  0  0  0  0  0
   36.1000   32.6430   32.1340 H   0  0  0  0  0  0  0  0  0  0  0  0
   39.1000   24.7340   35.9880 O   0  0  0  0  0  0  0  0  0  0  0  0
   37.4410   23.3780   37.0910 C   0  0  2  0  0  3  0  0  0  0  0  0
   38.5660   23.4670   36.0840 C   0  0  2  0  0  3  0  0  0  0  0  0
   39.6220   22.6320   36.8050 C   0  0  0  0  0  3  0  0  0  0  0  0
   39.4370   21.5530   36.7360 H   0  0  0  0  0  0  0  0  0  0  0  0
   39.5340   23.1470   38.0860 O   0  0  0  0  0  0  0  0  0  0  0  0
   38.2240   23.4160   38.3840 C   0  0  0  0  0  3  0  0  0  0  0  0
   38.1480   24.4370   38.8310 H   0  0  0  0  0  0  0  0  0  0  0  0
   36.8980   22.0990   37.0030 O   0  0  0  0  0  0  0  0  0  0  0  0
   37.1500   21.6750   36.1640 H   0  0  0  0  0  0  0  0  0  0  0  0
  1  5  1  0  0  0  0
  1  6  1  1  0  0  0
  2  7  1  1  0  0  0
  2  1  1  0  0  0  0
  3  2  1  0  0  0  0
  3  4  1  0  0  0  0
  4  9  1  0  0  0  0
  4  5  1  0  0  0  0
  5 10  1  6  0  0  0
  5 28  1  0  0  0  0
  8  4  1  0  0  0  0
 11 12  1  0  0  0  0
 11  1  1  0  0  0  0
 13  2  1  0  0  0  0
 15 14  2  6  0  0  0
 15 18  1  0  0  0  0
 15 13  1  0  0  0  0
 16 15  1  0  0  0  0
 16 17  1  0  0  0  0
 18 19  1  0  0  0  0
 19 20  1  0  0  0  0
 20 21  2  0  0  0  0
 20 25  1  0  0  0  0
 21 26  1  0  0  0  0
 22 21  1  0  0  0  0
 23 22  2  0  0  0  0
 24 23  1  0  0  0  0
 24 19  2  0  0  0  0
 27 23  1  0  0  0  0
 29 36  1  6  0  0  0
 29 34  1  0  0  0  0
 30 28  1  1  0  0  0
 30 31  1  0  0  0  0
 30 29  1  0  0  0  0
 31 33  1  0  0  0  0
 32 31  1  0  0  0  0
 33 34  1  0  0  0  0
 34 35  1  0  0  0  0
 37 36  1  0  0  0  0
M  END
>  <minimizedAffinity>
-4.96287346

$$$$

 OpenBabel03272503513D

 37 39  0  0  1  0  0  0  0  0999 V2000
   35.8370   28.4150   32.7810 C   0  0  1  0  0  0  0  0  0  0  0  0
   36.5200   27.9070   34.0720 C   0  0  2  0  0  0  0  0  0  0  0  0
   36.8030   29.0520   34.7470 O   0  0  0  0  0  0  0  0  0  0  0  0
   35.6540   29.8110   34.6590 C   0  0  0  0  0  0  0  0  0  0  0  0
   35.0190   29.5550   33.3210 C   0  0  2  0  0  0  0  0  0  0  0  0
   35.2120   27.6200   32.3240 H   0  0  0  0  0  0  0  0  0  0  0  0
   35.7110   27.3170   34.5860 H   0  0  0  0  0  0  0  0  0  0  0  0
   35.8650   30.8990   34.8160 H   0  0  0  0  0  0  0  0  0  0  0  0
   34.9480   29.5060   35.4570 H   0  0  0  0  0  0  0  0  0  0  0  0
   35.1790   30.4340   32.6560 H   0  0  0  0  0  0  0  0  0  0  0  0
   36.7840   28.7670   31.8400 O   0  0  0  0  0  0  0  0  0  0  0  0
   36.4760   29.4370   31.2100 H   0  0  0  0  0  0  0  0  0  0  0  0
   37.5750   27.1650   33.6300 O   0  0  0  0  0  0  0  0  0  0  0  0
   40.0520   27.2250   34.5400 O   0  0  0  0  0  0  0  0  0  0  0  0
   38.6500   26.7050   34.8390 P   0  0  1  0  0  0  0  0  0  0  0  0
   38.2170   27.4270   36.3080 O   0  0  0  0  0  0  0  0  0  0  0  0
   37.2480   27.2430   36.4510 H   0  0  0  0  0  0  0  0  0  0  0  0
   38.5680   25.0050   34.9680 O   0  0  0  0  0  0  0  0  0  0  0  0
   38.7550   24.3550   36.1780 C   0  0  0  0  0  0  0  0  0  0  0  0
   39.7240   23.3530   36.4200 C   0  0  0  0  0  0  0  0  0  0  0  0
   39.7840   22.7980   37.6910 C   0  0  0  0  0  0  0  0  0  0  0  0
   38.9100   23.2450   38.6450 N   0  0  0  0  0  0  0  0  0  0  0  0
   37.9870   24.2110   38.3860 C   0  0  0  0  0  0  0  0  0  0  0  0
   37.9120   24.7670   37.1450 N   0  0  0  0  0  0  0  0  0  0  0  0
   40.3470   23.0910   35.5960 H   0  0  0  0  0  0  0  0  0  0  0  0
   40.5150   22.0390   37.8800 H   0  0  0  0  0  0  0  0  0  0  0  0
   37.3250   24.5240   39.1720 H   0  0  0  0  0  0  0  0  0  0  0  0
   33.6990   29.1790   33.4590 O   0  0  0  0  0  0  0  0  0  0  0  0
   32.0830   29.0610   35.2430 C   0  0  2  0  0  3  0  0  0  0  0  0
   33.0000   29.9130   34.3930 C   0  0  2  0  0  3  0  0  0  0  0  0
   31.9570   30.6960   33.6000 C   0  0  0  0  0  3  0  0  0  0  0  0
   31.4920   31.5020   34.1810 H   0  0  0  0  0  0  0  0  0  0  0  0
   31.0900   29.6830   33.2310 O   0  0  0  0  0  0  0  0  0  0  0  0
   30.9690   28.7860   34.2590 C   0  0  0  0  0  3  0  0  0  0  0  0
   31.0780   27.7480   33.8600 H   0  0  0  0  0  0  0  0  0  0  0  0
   31.5390   29.8830   36.2270 O   0  0  0  0  0  0  0  0  0  0  0  0
   32.0620   30.6970   36.3240 H   0  0  0  0  0  0  0  0  0  0  0  0
  1  6  1  6  0  0  0
  1  5  1  0  0  0  0
  1  2  1  0  0  0  0
  2  7  1  1  0  0  0
  2  3  1  0  0  0  0
  4  3  1  0  0  0  0
  4  8  1  0  0  0  0
  4  9  1  0  0  0  0
  5 10  1  6  0  0  0
  5 28  1  0  0  0  0
  5  4  1  0  0  0  0
 11  1  1  0  0  0  0
 12 11  1  0  0  0  0
 13  2  1  0  0  0  0
 13 15  1  0  0  0  0
 15 14  2  6  0  0  0
 15 18  1  0  0  0  0
 15 16  1  0  0  0  0
 16 17  1  0  0  0  0
 18 19  1  0  0  0  0
 19 20  2  0  0  0  0
 19 24  1  0  0  0  0
 20 21  1  0  0  0  0
 21 26  1  0  0  0  0
 21 22  2  0  0  0  0
 23 22  1  0  0  0  0
 23 27  1  0  0  0  0
 24 23  2  0  0  0  0
 25 20  1  0  0  0  0
 29 36  1  1  0  0  0
 30 28  1  6  0  0  0
 30 29  1  0  0  0  0
 31 32  1  0  0  0  0
 31 30  1  0  0  0  0
 33 31  1  0  0  0  0
 33 34  1  0  0  0  0
 34 29  1  0  0  0  0
 35 34  1  0  0  0  0
 36 37  1  0  0  0  0
M  END
>  <minimizedAffinity>
-4.95254087

$$$$

 OpenBabel03272503513D

 37 39  0  0  1  0  0  0  0  0999 V2000
   37.7370   26.9440   35.5840 C   0  0  1  0  0  0  0  0  0  0  0  0
   36.9000   27.4810   34.3990 C   0  0  2  0  0  0  0  0  0  0  0  0
   37.7560   27.3920   33.3470 O   0  0  0  0  0  0  0  0  0  0  0  0
   38.3310   26.1440   33.4590 C   0  0  0  0  0  0  0  0  0  0  0  0
   38.4860   25.8230   34.9200 C   0  0  2  0  0  0  0  0  0  0  0  0
   37.0800   26.5910   36.4060 H   0  0  0  0  0  0  0  0  0  0  0  0
   36.0600   26.7360   34.3090 H   0  0  0  0  0  0  0  0  0  0  0  0
   39.3090   26.0890   32.9180 H   0  0  0  0  0  0  0  0  0  0  0  0
   37.6680   25.3880   32.9930 H   0  0  0  0  0  0  0  0  0  0  0  0
   39.5570   25.9090   35.2110 H   0  0  0  0  0  0  0  0  0  0  0  0
   38.5280   27.9470   36.1090 O   0  0  0  0  0  0  0  0  0  0  0  0
   39.3300   27.6210   36.5470 H   0  0  0  0  0  0  0  0  0  0  0  0
   36.5170   28.7290   34.7900 O   0  0  0  0  0  0  0  0  0  0  0  0
   36.2070   30.5760   32.9310 O   0  0  0  0  0  0  0  0  0  0  0  0
   35.4720   29.4970   33.7190 P   0  0  1  0  0  0  0  0  0  0  0  0
   34.9210   28.3980   32.5550 O   0  0  0  0  0  0  0  0  0  0  0  0
   34.5830   27.5990   33.0430 H   0  0  0  0  0  0  0  0  0  0  0  0
   34.1610   30.0970   34.6340 O   0  0  0  0  0  0  0  0  0  0  0  0
   32.9620   29.4070   34.7300 C   0  0  0  0  0  0  0  0  0  0  0  0
   32.3780   28.9580   35.9380 C   0  0  0  0  0  0  0  0  0  0  0  0
   31.1690   28.2790   35.8640 C   0  0  0  0  0  0  0  0  0  0  0  0
   30.6040   28.0770   34.6330 N   0  0  0  0  0  0  0  0  0  0  0  0
   31.1870   28.5190   33.4870 C   0  0  0  0  0  0  0  0  0  0  0  0
   32.3730   29.1870   33.5380 N   0  0  0  0  0  0  0  0  0  0  0  0
   32.9160   29.1780   36.8310 H   0  0  0  0  0  0  0  0  0  0  0  0
   30.7220   27.9370   36.7740 H   0  0  0  0  0  0  0  0  0  0  0  0
   30.6990   28.3320   32.5470 H   0  0  0  0  0  0  0  0  0  0  0  0
   37.9090   24.6080   35.2270 O   0  0  0  0  0  0  0  0  0  0  0  0
   39.6310   23.3730   36.3740 C   0  0  2  0  0  3  0  0  0  0  0  0
   38.3010   24.0900   36.4420 C   0  0  2  0  0  3  0  0  0  0  0  0
   37.3810   22.8970   36.6930 C   0  0  0  0  0  3  0  0  0  0  0  0
   37.4170   22.5380   37.7290 H   0  0  0  0  0  0  0  0  0  0  0  0
   37.8570   21.9950   35.7580 O   0  0  0  0  0  0  0  0  0  0  0  0
   39.2220   22.0940   35.6790 C   0  0  0  0  0  3  0  0  0  0  0  0
   39.5280   22.1440   34.6060 H   0  0  0  0  0  0  0  0  0  0  0  0
   39.9820   23.0150   37.6730 O   0  0  0  0  0  0  0  0  0  0  0  0
   39.4730   23.5310   38.3220 H   0  0  0  0  0  0  0  0  0  0  0  0
  1 11  1  0  0  0  0
  1  6  1  1  0  0  0
  2  7  1  6  0  0  0
  2 13  1  0  0  0  0
  2  1  1  0  0  0  0
  3  4  1  0  0  0  0
  3  2  1  0  0  0  0
  4  5  1  0  0  0  0
  5 10  1  1  0  0  0
  5 28  1  0  0  0  0
  5  1  1  0  0  0  0
  8  4  1  0  0  0  0
  9  4  1  0  0  0  0
 11 12  1  0  0  0  0
 15 14  2  6  0  0  0
 15 18  1  0  0  0  0
 15 13  1  0  0  0  0
 16 17  1  0  0  0  0
 16 15  1  0  0  0  0
 18 19  1  0  0  0  0
 19 20  1  0  0  0  0
 20 25  1  0  0  0  0
 21 20  2  0  0  0  0
 21 26  1  0  0  0  0
 22 21  1  0  0  0  0
 23 24  1  0  0  0  0
 23 22  2  0  0  0  0
 24 19  2  0  0  0  0
 27 23  1  0  0  0  0
 29 30  1  0  0  0  0
 29 36  1  1  0  0  0
 30 28  1  6  0  0  0
 30 31  1  0  0  0  0
 31 32  1  0  0  0  0
 33 31  1  0  0  0  0
 34 33  1  0  0  0  0
 34 29  1  0  0  0  0
 35 34  1  0  0  0  0
 36 37  1  0  0  0  0
M  END
>  <minimizedAffinity>
-4.94546652

$$$$

 OpenBabel03272503513D

 37 39  0  0  1  0  0  0  0  0999 V2000
   36.9370   24.5170   31.2540 C   0  0  1  0  0  0  0  0  0  0  0  0
   36.1780   25.7640   31.7650 C   0  0  2  0  0  0  0  0  0  0  0  0
   35.1080   25.8410   30.9320 O   0  0  0  0  0  0  0  0  0  0  0  0
   34.6250   24.5510   30.8510 C   0  0  0  0  0  0  0  0  0  0  0  0
   35.7910   23.6040   30.9160 C   0  0  2  0  0  0  0  0  0  0  0  0
   37.5940   24.1010   32.0470 H   0  0  0  0  0  0  0  0  0  0  0  0
   35.8670   25.4770   32.8080 H   0  0  0  0  0  0  0  0  0  0  0  0
   34.0170   24.3950   29.9250 H   0  0  0  0  0  0  0  0  0  0  0  0
   33.9520   24.3540   31.7100 H   0  0  0  0  0  0  0  0  0  0  0  0
   35.9830   23.1760   29.9070 H   0  0  0  0  0  0  0  0  0  0  0  0
   37.7540   24.8500   30.1930 O   0  0  0  0  0  0  0  0  0  0  0  0
   37.9310   24.1100   29.5910 H   0  0  0  0  0  0  0  0  0  0  0  0
   37.0950   26.7710   31.6990 O   0  0  0  0  0  0  0  0  0  0  0  0
   37.0800   29.4070   31.5730 O   0  0  0  0  0  0  0  0  0  0  0  0
   36.5810   28.2180   32.3860 P   0  0  1  0  0  0  0  0  0  0  0  0
   34.8920   28.3220   32.3280 O   0  0  0  0  0  0  0  0  0  0  0  0
   34.5330   27.4730   32.7060 H   0  0  0  0  0  0  0  0  0  0  0  0
   37.1190   28.2270   34.0060 O   0  0  0  0  0  0  0  0  0  0  0  0
   37.9220   27.2160   34.5140 C   0  0  0  0  0  0  0  0  0  0  0  0
   39.3250   27.1380   34.3550 C   0  0  0  0  0  0  0  0  0  0  0  0
   39.9870   26.0590   34.9260 C   0  0  0  0  0  0  0  0  0  0  0  0
   39.2530   25.1280   35.6120 N   0  0  0  0  0  0  0  0  0  0  0  0
   37.9030   25.2270   35.7500 C   0  0  0  0  0  0  0  0  0  0  0  0
   37.2370   26.2780   35.1970 N   0  0  0  0  0  0  0  0  0  0  0  0
   39.7810   27.9250   33.8000 H   0  0  0  0  0  0  0  0  0  0  0  0
   41.0480   25.9940   34.8100 H   0  0  0  0  0  0  0  0  0  0  0  0
   37.3770   24.4670   36.2990 H   0  0  0  0  0  0  0  0  0  0  0  0
   35.6140   22.6630   31.9100 O   0  0  0  0  0  0  0  0  0  0  0  0
   34.7370   20.4460   32.2600 C   0  0  2  0  0  3  0  0  0  0  0  0
   35.6400   21.3600   31.4620 C   0  0  2  0  0  3  0  0  0  0  0  0
   37.0000   20.8100   31.8860 C   0  0  0  0  0  3  0  0  0  0  0  0
   37.2550   19.8660   31.3890 H   0  0  0  0  0  0  0  0  0  0  0  0
   36.8270   20.7060   33.2550 O   0  0  0  0  0  0  0  0  0  0  0  0
   35.5490   20.2900   33.5260 C   0  0  0  0  0  3  0  0  0  0  0  0
   35.1110   20.9350   34.3260 H   0  0  0  0  0  0  0  0  0  0  0  0
   34.7440   19.2000   31.6370 O   0  0  0  0  0  0  0  0  0  0  0  0
   35.0700   19.2740   30.7240 H   0  0  0  0  0  0  0  0  0  0  0  0
  1  2  1  0  0  0  0
  1  6  1  1  0  0  0
  2  7  1  1  0  0  0
  3  2  1  0  0  0  0
  4  5  1  0  0  0  0
  4  3  1  0  0  0  0
  4  9  1  0  0  0  0
  5 10  1  6  0  0  0
  5  1  1  0  0  0  0
  5 28  1  0  0  0  0
  8  4  1  0  0  0  0
 11  1  1  0  0  0  0
 12 11  1  0  0  0  0
 13  2  1  0  0  0  0
 13 15  1  0  0  0  0
 15 14  2  6  0  0  0
 15 18  1  0  0  0  0
 16 15  1  0  0  0  0
 16 17  1  0  0  0  0
 18 19  1  0  0  0  0
 19 24  1  0  0  0  0
 20 19  2  0  0  0  0
 20 21  1  0  0  0  0
 21 22  2  0  0  0  0
 22 23  1  0  0  0  0
 23 27  1  0  0  0  0
 24 23  2  0  0  0  0
 25 20  1  0  0  0  0
 26 21  1  0  0  0  0
 29 36  1  6  0  0  0
 29 34  1  0  0  0  0
 30 31  1  0  0  0  0
 30 28  1  1  0  0  0
 30 29  1  0  0  0  0
 31 33  1  0  0  0  0
 32 31  1  0  0  0  0
 33 34  1  0  0  0  0
 34 35  1  0  0  0  0
 37 36  1  0  0  0  0
M  END
>  <minimizedAffinity>
-4.92425013

$$$$

 OpenBabel03272503513D

 37 39  0  0  1  0  0  0  0  0999 V2000
   37.0760   24.3740   31.1440 C   0  0  1  0  0  0  0  0  0  0  0  0
   36.6520   25.6950   31.8280 C   0  0  2  0  0  0  0  0  0  0  0  0
   35.4970   26.0190   31.1910 O   0  0  0  0  0  0  0  0  0  0  0  0
   34.7770   24.8440   31.1380 C   0  0  0  0  0  0  0  0  0  0  0  0
   35.7420   23.7040   30.9650 C   0  0  2  0  0  0  0  0  0  0  0  0
   37.7610   23.7920   31.7970 H   0  0  0  0  0  0  0  0  0  0  0  0
   36.4610   25.3910   32.8960 H   0  0  0  0  0  0  0  0  0  0  0  0
   34.0120   24.8650   30.3210 H   0  0  0  0  0  0  0  0  0  0  0  0
   34.2230   24.7060   32.0870 H   0  0  0  0  0  0  0  0  0  0  0  0
   35.6900   23.3240   29.9210 H   0  0  0  0  0  0  0  0  0  0  0  0
   37.7630   24.6340   29.9760 O   0  0  0  0  0  0  0  0  0  0  0  0
   37.7030   23.9200   29.3220 H   0  0  0  0  0  0  0  0  0  0  0  0
   37.7180   26.5260   31.6530 O   0  0  0  0  0  0  0  0  0  0  0  0
   38.6000   28.7850   30.6120 O   0  0  0  0  0  0  0  0  0  0  0  0
   37.3350   27.9950   30.9290 P   0  0  1  0  0  0  0  0  0  0  0  0
   36.5950   27.7290   29.4290 O   0  0  0  0  0  0  0  0  0  0  0  0
   35.8570   27.0760   29.5780 H   0  0  0  0  0  0  0  0  0  0  0  0
   36.2660   28.8130   31.9800 O   0  0  0  0  0  0  0  0  0  0  0  0
   36.0150   30.1700   31.8530 C   0  0  0  0  0  0  0  0  0  0  0  0
   35.7990   31.0600   32.9310 C   0  0  0  0  0  0  0  0  0  0  0  0
   35.5590   32.3960   32.6370 C   0  0  0  0  0  0  0  0  0  0  0  0
   35.5440   32.7860   31.3250 N   0  0  0  0  0  0  0  0  0  0  0  0
   35.7540   31.9090   30.3060 C   0  0  0  0  0  0  0  0  0  0  0  0
   35.9910   30.5950   30.5740 N   0  0  0  0  0  0  0  0  0  0  0  0
   35.8360   30.6340   33.9080 H   0  0  0  0  0  0  0  0  0  0  0  0
   35.3950   33.0730   33.4490 H   0  0  0  0  0  0  0  0  0  0  0  0
   35.7310   32.2700   29.2940 H   0  0  0  0  0  0  0  0  0  0  0  0
   35.5520   22.7390   31.9330 O   0  0  0  0  0  0  0  0  0  0  0  0
   34.7190   20.5010   32.2560 C   0  0  2  0  0  3  0  0  0  0  0  0
   35.5840   21.4480   31.4530 C   0  0  2  0  0  3  0  0  0  0  0  0
   36.9630   20.9090   31.8240 C   0  0  0  0  0  3  0  0  0  0  0  0
   37.2180   19.9810   31.2970 H   0  0  0  0  0  0  0  0  0  0  0  0
   36.8330   20.7700   33.1950 O   0  0  0  0  0  0  0  0  0  0  0  0
   35.5700   20.3280   33.4930 C   0  0  0  0  0  3  0  0  0  0  0  0
   35.1470   20.9480   34.3210 H   0  0  0  0  0  0  0  0  0  0  0  0
   34.7250   19.2700   31.6040 O   0  0  0  0  0  0  0  0  0  0  0  0
   35.0230   19.3700   30.6830 H   0  0  0  0  0  0  0  0  0  0  0  0
  1  6  1  1  0  0  0
  1  2  1  0  0  0  0
  2  7  1  1  0  0  0
  3  2  1  0  0  0  0
  4  3  1  0  0  0  0
  4  9  1  0  0  0  0
  5 10  1  6  0  0  0
  5  4  1  0  0  0  0
  5  1  1  0  0  0  0
  5 28  1  0  0  0  0
  8  4  1  0  0  0  0
 11  1  1  0  0  0  0
 12 11  1  0  0  0  0
 13  2  1  0  0  0  0
 15 14  2  6  0  0  0
 15 13  1  0  0  0  0
 15 18  1  0  0  0  0
 16 17  1  0  0  0  0
 16 15  1  0  0  0  0
 19 18  1  0  0  0  0
 19 20  1  0  0  0  0
 20 25  1  0  0  0  0
 21 20  2  0  0  0  0
 21 26  1  0  0  0  0
 22 21  1  0  0  0  0
 23 24  1  0  0  0  0
 23 22  2  0  0  0  0
 24 19  2  0  0  0  0
 27 23  1  0  0  0  0
 29 36  1  6  0  0  0
 29 34  1  0  0  0  0
 30 31  1  0  0  0  0
 30 28  1  1  0  0  0
 30 29  1  0  0  0  0
 31 33  1  0  0  0  0
 32 31  1  0  0  0  0
 33 34  1  0  0  0  0
 34 35  1  0  0  0  0
 37 36  1  0  0  0  0
M  END
>  <minimizedAffinity>
-4.92276812

$$$$
