
 OpenBabel03272506413D

 19 20  0  0  1  0  0  0  0  0999 V2000
   37.9580   22.9790   35.5000 S   0  0  0  0  0  0  0  0  0  0  0  0
   39.4560   26.3670   34.1070 C   0  0  0  0  0  0  0  0  0  0  0  0
   39.1400   27.3330   35.0630 C   0  0  0  0  0  0  0  0  0  0  0  0
   38.4260   26.9230   36.1970 C   0  0  0  0  0  0  0  0  0  0  0  0
   38.0890   25.6040   36.2920 N   0  0  0  0  0  0  0  0  0  0  0  0
   38.4100   24.7070   35.3550 C   0  0  0  0  0  0  0  0  0  0  0  0
   39.0900   25.0800   34.2680 N   0  0  0  0  0  0  0  0  0  0  0  0
   40.0080   26.6660   33.2230 H   0  0  0  0  0  0  0  0  0  0  0  0
   39.4350   28.3730   34.9350 H   0  0  0  0  0  0  0  0  0  0  0  0
   38.1690   27.6520   36.9530 H   0  0  0  0  0  0  0  0  0  0  0  0
   39.9970   22.7460   37.3840 C   0  0  2  0  0  3  0  0  0  0  0  0
   39.3420   22.1090   36.1770 C   0  0  2  0  0  3  0  0  0  0  0  0
   40.5560   22.0820   35.2550 C   0  0  0  0  0  3  0  0  0  0  0  0
   40.3570   21.3820   34.4160 H   0  0  0  0  0  0  0  0  0  0  0  0
   41.6270   21.7130   36.0590 O   0  0  0  0  0  0  0  0  0  0  0  0
   41.2610   21.8790   37.3890 C   0  0  0  0  0  3  0  0  0  0  0  0
   42.0430   22.2550   38.0460 H   0  0  0  0  0  0  0  0  0  0  0  0
   39.3390   22.5060   38.5690 O   0  0  0  0  0  0  0  0  0  0  0  0
   38.3610   22.4380   38.3980 H   0  0  0  0  0  0  0  0  0  0  0  0
  2  7  2  0  0  0  0
  2  3  1  0  0  0  0
  3  4  2  0  0  0  0
  4  5  1  0  0  0  0
  4 10  1  0  0  0  0
  6  1  1  0  0  0  0
  6  5  2  0  0  0  0
  7  6  1  0  0  0  0
  8  2  1  0  0  0  0
  9  3  1  0  0  0  0
 11 16  1  0  0  0  0
 11 18  1  1  0  0  0
 12  1  1  6  0  0  0
 12 11  1  0  0  0  0
 13 15  1  0  0  0  0
 13 12  1  0  0  0  0
 14 13  1  0  0  0  0
 15 16  1  0  0  0  0
 16 17  1  0  0  0  0
 19 18  1  0  0  0  0
M  END
>  <minimizedAffinity>
-3.86082697

$$$$

 OpenBabel03272506413D

 19 20  0  0  1  0  0  0  0  0999 V2000
   38.7980   21.8830   33.8560 S   0  0  0  0  0  0  0  0  0  0  0  0
   39.9950   22.7210   37.5340 C   0  0  0  0  0  0  0  0  0  0  0  0
   38.8650   23.2160   38.1880 C   0  0  0  0  0  0  0  0  0  0  0  0
   37.6710   23.2980   37.4600 C   0  0  0  0  0  0  0  0  0  0  0  0
   37.6910   22.8860   36.1590 N   0  0  0  0  0  0  0  0  0  0  0  0
   38.7930   22.4180   35.5670 C   0  0  0  0  0  0  0  0  0  0  0  0
   39.9400   22.3330   36.2450 N   0  0  0  0  0  0  0  0  0  0  0  0
   40.9280   22.6510   38.0820 H   0  0  0  0  0  0  0  0  0  0  0  0
   38.9070   23.5290   39.2290 H   0  0  0  0  0  0  0  0  0  0  0  0
   36.7810   23.6770   37.9440 H   0  0  0  0  0  0  0  0  0  0  0  0
   36.2380   20.8610   33.4510 C   0  0  2  0  0  3  0  0  0  0  0  0
   37.1510   22.0470   33.2310 C   0  0  2  0  0  3  0  0  0  0  0  0
   37.0790   22.1040   31.7090 C   0  0  0  0  0  3  0  0  0  0  0  0
   37.4510   23.0920   31.3650 H   0  0  0  0  0  0  0  0  0  0  0  0
   35.7500   21.8560   31.3880 O   0  0  0  0  0  0  0  0  0  0  0  0
   35.1220   21.3060   32.4980 C   0  0  0  0  0  3  0  0  0  0  0  0
   34.3960   20.5230   32.2860 H   0  0  0  0  0  0  0  0  0  0  0  0
   35.6920   20.8010   34.7120 O   0  0  0  0  0  0  0  0  0  0  0  0
   36.3360   21.1770   35.3710 H   0  0  0  0  0  0  0  0  0  0  0  0
  1  6  1  0  0  0  0
  2  8  1  0  0  0  0
  2  3  1  0  0  0  0
  3  9  1  0  0  0  0
  4 10  1  0  0  0  0
  4  3  2  0  0  0  0
  5  4  1  0  0  0  0
  6  5  2  0  0  0  0
  6  7  1  0  0  0  0
  7  2  2  0  0  0  0
 11 18  1  1  0  0  0
 12 11  1  0  0  0  0
 12  1  1  6  0  0  0
 13 12  1  0  0  0  0
 14 13  1  0  0  0  0
 15 13  1  0  0  0  0
 15 16  1  0  0  0  0
 16 11  1  0  0  0  0
 17 16  1  0  0  0  0
 18 19  1  0  0  0  0
M  END
>  <minimizedAffinity>
-3.8039217

$$$$

 OpenBabel03272506413D

 19 20  0  0  1  0  0  0  0  0999 V2000
   38.2490   26.6620   31.2920 S   0  0  0  0  0  0  0  0  0  0  0  0
   39.8150   26.8920   34.9200 C   0  0  0  0  0  0  0  0  0  0  0  0
   38.7750   27.3200   35.7470 C   0  0  0  0  0  0  0  0  0  0  0  0
   37.5240   27.5520   35.1590 C   0  0  0  0  0  0  0  0  0  0  0  0
   37.4060   27.3420   33.8150 N   0  0  0  0  0  0  0  0  0  0  0  0
   38.4250   26.9320   33.0560 C   0  0  0  0  0  0  0  0  0  0  0  0
   39.6240   26.7060   33.5990 N   0  0  0  0  0  0  0  0  0  0  0  0
   40.7890   26.7070   35.3580 H   0  0  0  0  0  0  0  0  0  0  0  0
   38.9260   27.4700   36.8140 H   0  0  0  0  0  0  0  0  0  0  0  0
   36.7010   27.8840   35.7770 H   0  0  0  0  0  0  0  0  0  0  0  0
   35.8040   25.3250   31.2500 C   0  0  2  0  0  3  0  0  0  0  0  0
   37.2990   25.1870   31.0610 C   0  0  2  0  0  3  0  0  0  0  0  0
   37.5600   24.1210   32.1200 C   0  0  0  0  0  3  0  0  0  0  0  0
   38.5570   23.6680   31.9400 H   0  0  0  0  0  0  0  0  0  0  0  0
   36.5030   23.2260   32.0170 O   0  0  0  0  0  0  0  0  0  0  0  0
   35.4830   23.8260   31.2900 C   0  0  0  0  0  3  0  0  0  0  0  0
   34.4730   23.6080   31.6330 H   0  0  0  0  0  0  0  0  0  0  0  0
   35.1480   25.8500   30.1610 O   0  0  0  0  0  0  0  0  0  0  0  0
   35.7440   26.4960   29.6940 H   0  0  0  0  0  0  0  0  0  0  0  0
  1  6  1  0  0  0  0
  2  8  1  0  0  0  0
  2  3  1  0  0  0  0
  3  9  1  0  0  0  0
  4  3  2  0  0  0  0
  4 10  1  0  0  0  0
  5  4  1  0  0  0  0
  6  7  1  0  0  0  0
  6  5  2  0  0  0  0
  7  2  2  0  0  0  0
 11 18  1  6  0  0  0
 11 16  1  0  0  0  0
 12 11  1  0  0  0  0
 12  1  1  1  0  0  0
 12 13  1  0  0  0  0
 14 13  1  0  0  0  0
 15 13  1  0  0  0  0
 16 17  1  0  0  0  0
 16 15  1  0  0  0  0
 19 18  1  0  0  0  0
M  END
>  <minimizedAffinity>
-3.72578192

$$$$

 OpenBabel03272506413D

 19 20  0  0  1  0  0  0  0  0999 V2000
   38.2820   23.6430   34.1130 S   0  0  0  0  0  0  0  0  0  0  0  0
   37.8400   24.0730   38.0220 C   0  0  0  0  0  0  0  0  0  0  0  0
   38.9210   23.3990   38.5940 C   0  0  0  0  0  0  0  0  0  0  0  0
   39.8350   22.7780   37.7320 C   0  0  0  0  0  0  0  0  0  0  0  0
   39.6080   22.8750   36.3900 N   0  0  0  0  0  0  0  0  0  0  0  0
   38.5610   23.5290   35.8800 C   0  0  0  0  0  0  0  0  0  0  0  0
   37.6800   24.1260   36.6860 N   0  0  0  0  0  0  0  0  0  0  0  0
   37.1230   24.5590   38.6740 H   0  0  0  0  0  0  0  0  0  0  0  0
   39.0530   23.3550   39.6730 H   0  0  0  0  0  0  0  0  0  0  0  0
   40.6810   22.2490   38.1500 H   0  0  0  0  0  0  0  0  0  0  0  0
   37.2220   26.1930   33.7360 C   0  0  2  0  0  3  0  0  0  0  0  0
   38.4680   25.3400   33.6420 C   0  0  2  0  0  3  0  0  0  0  0  0
   38.7590   25.5330   32.1580 C   0  0  0  0  0  3  0  0  0  0  0  0
   39.8040   25.2210   31.9510 H   0  0  0  0  0  0  0  0  0  0  0  0
   38.5050   26.8730   31.9000 O   0  0  0  0  0  0  0  0  0  0  0  0
   37.7600   27.3940   32.9500 C   0  0  0  0  0  3  0  0  0  0  0  0
   36.9890   28.1090   32.6680 H   0  0  0  0  0  0  0  0  0  0  0  0
   36.9410   26.6360   35.0070 O   0  0  0  0  0  0  0  0  0  0  0  0
   37.2380   25.9550   35.6700 H   0  0  0  0  0  0  0  0  0  0  0  0
  1  6  1  0  0  0  0
  2  3  1  0  0  0  0
  2  8  1  0  0  0  0
  3  9  1  0  0  0  0
  4 10  1  0  0  0  0
  4  3  2  0  0  0  0
  5  4  1  0  0  0  0
  6  5  2  0  0  0  0
  6  7  1  0  0  0  0
  7  2  2  0  0  0  0
 11 18  1  1  0  0  0
 12 11  1  0  0  0  0
 12  1  1  6  0  0  0
 13 12  1  0  0  0  0
 14 13  1  0  0  0  0
 15 13  1  0  0  0  0
 15 16  1  0  0  0  0
 16 11  1  0  0  0  0
 17 16  1  0  0  0  0
 18 19  1  0  0  0  0
M  END
>  <minimizedAffinity>
-3.57469678

$$$$

 OpenBabel03272506413D

 19 20  0  0  1  0  0  0  0  0999 V2000
   38.8180   23.2700   33.8480 S   0  0  0  0  0  0  0  0  0  0  0  0
   36.2210   25.4700   31.8280 C   0  0  0  0  0  0  0  0  0  0  0  0
   35.4560   24.5610   31.0940 C   0  0  0  0  0  0  0  0  0  0  0  0
   35.7550   23.1980   31.2250 C   0  0  0  0  0  0  0  0  0  0  0  0
   36.7730   22.8500   32.0650 N   0  0  0  0  0  0  0  0  0  0  0  0
   37.4830   23.7490   32.7510 C   0  0  0  0  0  0  0  0  0  0  0  0
   37.2130   25.0520   32.6380 N   0  0  0  0  0  0  0  0  0  0  0  0
   36.0040   26.5280   31.7390 H   0  0  0  0  0  0  0  0  0  0  0  0
   34.6540   24.8960   30.4400 H   0  0  0  0  0  0  0  0  0  0  0  0
   35.1780   22.4730   30.6680 H   0  0  0  0  0  0  0  0  0  0  0  0
   38.4040   24.8430   36.1100 C   0  0  2  0  0  3  0  0  0  0  0  0
   38.2480   23.4620   35.5130 C   0  0  2  0  0  3  0  0  0  0  0  0
   39.0720   22.6840   36.5330 C   0  0  0  0  0  3  0  0  0  0  0  0
   38.8400   21.6020   36.4360 H   0  0  0  0  0  0  0  0  0  0  0  0
   38.7440   23.2260   37.7690 O   0  0  0  0  0  0  0  0  0  0  0  0
   38.1190   24.4500   37.5650 C   0  0  0  0  0  3  0  0  0  0  0  0
   38.3690   25.2290   38.2820 H   0  0  0  0  0  0  0  0  0  0  0  0
   37.4220   25.7300   35.7320 O   0  0  0  0  0  0  0  0  0  0  0  0
   37.1230   25.5200   34.8070 H   0  0  0  0  0  0  0  0  0  0  0  0
  2  7  1  0  0  0  0
  3  4  1  0  0  0  0
  3  2  2  0  0  0  0
  4  5  2  0  0  0  0
  5  6  1  0  0  0  0
  6  1  1  0  0  0  0
  7  6  2  0  0  0  0
  8  2  1  0  0  0  0
  9  3  1  0  0  0  0
 10  4  1  0  0  0  0
 11 18  1  6  0  0  0
 11 16  1  0  0  0  0
 12  1  1  6  0  0  0
 12 11  1  0  0  0  0
 12 13  1  0  0  0  0
 13 15  1  0  0  0  0
 14 13  1  0  0  0  0
 16 15  1  0  0  0  0
 16 17  1  0  0  0  0
 19 18  1  0  0  0  0
M  END
>  <minimizedAffinity>
-3.54810786

$$$$

 OpenBabel03272506413D

 19 20  0  0  1  0  0  0  0  0999 V2000
   38.8090   23.5480   33.9030 S   0  0  0  0  0  0  0  0  0  0  0  0
   35.6880   22.1840   31.8870 C   0  0  0  0  0  0  0  0  0  0  0  0
   35.2160   21.0970   32.6250 C   0  0  0  0  0  0  0  0  0  0  0  0
   35.8930   20.7640   33.8060 C   0  0  0  0  0  0  0  0  0  0  0  0
   36.9690   21.5260   34.1570 N   0  0  0  0  0  0  0  0  0  0  0  0
   37.3920   22.5600   33.4240 C   0  0  0  0  0  0  0  0  0  0  0  0
   36.7590   22.8920   32.2960 N   0  0  0  0  0  0  0  0  0  0  0  0
   35.1760   22.4560   30.9710 H   0  0  0  0  0  0  0  0  0  0  0  0
   34.3500   20.5250   32.2970 H   0  0  0  0  0  0  0  0  0  0  0  0
   35.5470   19.9260   34.3960 H   0  0  0  0  0  0  0  0  0  0  0  0
   38.9540   23.1630   36.6590 C   0  0  2  0  0  3  0  0  0  0  0  0
   39.5480   22.7870   35.3190 C   0  0  2  0  0  3  0  0  0  0  0  0
   40.9820   23.2390   35.5760 C   0  0  0  0  0  3  0  0  0  0  0  0
   41.6480   22.7810   34.8150 H   0  0  0  0  0  0  0  0  0  0  0  0
   41.2650   22.8570   36.8810 O   0  0  0  0  0  0  0  0  0  0  0  0
   40.0700   22.5720   37.5290 C   0  0  0  0  0  3  0  0  0  0  0  0
   40.0160   22.8820   38.5710 H   0  0  0  0  0  0  0  0  0  0  0  0
   37.7980   22.4850   36.9680 O   0  0  0  0  0  0  0  0  0  0  0  0
   37.2910   22.2930   36.1340 H   0  0  0  0  0  0  0  0  0  0  0  0
  2  7  2  0  0  0  0
  2  3  1  0  0  0  0
  3  4  2  0  0  0  0
  4  5  1  0  0  0  0
  4 10  1  0  0  0  0
  6  1  1  0  0  0  0
  6  5  2  0  0  0  0
  7  6  1  0  0  0  0
  8  2  1  0  0  0  0
  9  3  1  0  0  0  0
 11 18  1  1  0  0  0
 11 16  1  0  0  0  0
 12  1  1  6  0  0  0
 12 13  1  0  0  0  0
 12 11  1  0  0  0  0
 13 15  1  0  0  0  0
 14 13  1  0  0  0  0
 15 16  1  0  0  0  0
 16 17  1  0  0  0  0
 19 18  1  0  0  0  0
M  END
>  <minimizedAffinity>
-3.54537725

$$$$

 OpenBabel03272506413D

 19 20  0  0  1  0  0  0  0  0999 V2000
   38.2300   23.8470   34.3930 S   0  0  0  0  0  0  0  0  0  0  0  0
   36.7860   26.9830   32.4560 C   0  0  0  0  0  0  0  0  0  0  0  0
   36.6380   27.9790   33.4220 C   0  0  0  0  0  0  0  0  0  0  0  0
   36.9990   27.6720   34.7410 C   0  0  0  0  0  0  0  0  0  0  0  0
   37.4750   26.4180   34.9930 N   0  0  0  0  0  0  0  0  0  0  0  0
   37.6030   25.4890   34.0400 C   0  0  0  0  0  0  0  0  0  0  0  0
   37.2640   25.7650   32.7790 N   0  0  0  0  0  0  0  0  0  0  0  0
   36.5120   27.2030   31.4310 H   0  0  0  0  0  0  0  0  0  0  0  0
   36.2530   28.9640   33.1640 H   0  0  0  0  0  0  0  0  0  0  0  0
   36.8940   28.4270   35.5080 H   0  0  0  0  0  0  0  0  0  0  0  0
   39.8270   22.7540   36.3970 C   0  0  2  0  0  3  0  0  0  0  0  0
   38.8310   23.8410   36.0570 C   0  0  2  0  0  3  0  0  0  0  0  0
   37.7640   23.4960   37.0900 C   0  0  0  0  0  3  0  0  0  0  0  0
   37.0750   24.3600   37.2010 H   0  0  0  0  0  0  0  0  0  0  0  0
   38.4570   23.1730   38.2500 O   0  0  0  0  0  0  0  0  0  0  0  0
   39.7850   22.9330   37.9190 C   0  0  0  0  0  3  0  0  0  0  0  0
   40.2640   22.1210   38.4650 H   0  0  0  0  0  0  0  0  0  0  0  0
   41.1130   23.0270   35.9940 O   0  0  0  0  0  0  0  0  0  0  0  0
   41.0920   23.5630   35.1560 H   0  0  0  0  0  0  0  0  0  0  0  0
  2  7  2  0  0  0  0
  2  3  1  0  0  0  0
  3  4  2  0  0  0  0
  4  5  1  0  0  0  0
  4 10  1  0  0  0  0
  6  1  1  0  0  0  0
  6  5  2  0  0  0  0
  7  6  1  0  0  0  0
  8  2  1  0  0  0  0
  9  3  1  0  0  0  0
 11 18  1  6  0  0  0
 11 16  1  0  0  0  0
 12  1  1  6  0  0  0
 12 11  1  0  0  0  0
 12 13  1  0  0  0  0
 13 14  1  0  0  0  0
 13 15  1  0  0  0  0
 16 15  1  0  0  0  0
 16 17  1  0  0  0  0
 19 18  1  0  0  0  0
M  END
>  <minimizedAffinity>
-3.54505587

$$$$

 OpenBabel03272506413D

 19 20  0  0  1  0  0  0  0  0999 V2000
   39.2950   23.4730   33.5590 S   0  0  0  0  0  0  0  0  0  0  0  0
   35.8280   23.0290   31.7030 C   0  0  0  0  0  0  0  0  0  0  0  0
   35.4630   21.6980   31.9120 C   0  0  0  0  0  0  0  0  0  0  0  0
   36.3290   20.8920   32.6630 C   0  0  0  0  0  0  0  0  0  0  0  0
   37.4720   21.4630   33.1420 N   0  0  0  0  0  0  0  0  0  0  0  0
   37.7870   22.7420   32.9210 C   0  0  0  0  0  0  0  0  0  0  0  0
   36.9740   23.5250   32.2080 N   0  0  0  0  0  0  0  0  0  0  0  0
   35.1690   23.6670   31.1240 H   0  0  0  0  0  0  0  0  0  0  0  0
   34.5370   21.2950   31.5060 H   0  0  0  0  0  0  0  0  0  0  0  0
   36.0690   19.8570   32.8400 H   0  0  0  0  0  0  0  0  0  0  0  0
   37.8860   23.1030   35.9350 C   0  0  2  0  0  3  0  0  0  0  0  0
   39.0450   23.8190   35.2770 C   0  0  2  0  0  3  0  0  0  0  0  0
   38.6060   25.2530   35.5530 C   0  0  0  0  0  3  0  0  0  0  0  0
   39.4710   25.9320   35.4050 H   0  0  0  0  0  0  0  0  0  0  0  0
   38.1060   25.2470   36.8490 O   0  0  0  0  0  0  0  0  0  0  0  0
   37.8630   23.9320   37.2250 C   0  0  0  0  0  3  0  0  0  0  0  0
   36.9690   23.7740   37.8260 H   0  0  0  0  0  0  0  0  0  0  0  0
   38.1630   21.8040   36.2950 O   0  0  0  0  0  0  0  0  0  0  0  0
   38.8060   21.4090   35.6470 H   0  0  0  0  0  0  0  0  0  0  0  0
  2  3  2  0  0  0  0
  2  7  1  0  0  0  0
  3  4  1  0  0  0  0
  4 10  1  0  0  0  0
  4  5  2  0  0  0  0
  6  5  1  0  0  0  0
  6  1  1  0  0  0  0
  7  6  2  0  0  0  0
  8  2  1  0  0  0  0
  9  3  1  0  0  0  0
 11 18  1  1  0  0  0
 11 16  1  0  0  0  0
 12  1  1  6  0  0  0
 12 13  1  0  0  0  0
 12 11  1  0  0  0  0
 13 15  1  0  0  0  0
 14 13  1  0  0  0  0
 15 16  1  0  0  0  0
 16 17  1  0  0  0  0
 19 18  1  0  0  0  0
M  END
>  <minimizedAffinity>
-3.49091482

$$$$

 OpenBabel03272506413D

 19 20  0  0  1  0  0  0  0  0999 V2000
   39.1510   23.3980   33.7890 S   0  0  0  0  0  0  0  0  0  0  0  0
   39.9120   22.7670   37.6210 C   0  0  0  0  0  0  0  0  0  0  0  0
   38.8390   23.3350   38.3110 C   0  0  0  0  0  0  0  0  0  0  0  0
   37.8270   23.9470   37.5580 C   0  0  0  0  0  0  0  0  0  0  0  0
   37.9570   23.9440   36.2000 N   0  0  0  0  0  0  0  0  0  0  0  0
   38.9990   23.3900   35.5750 C   0  0  0  0  0  0  0  0  0  0  0  0
   39.9730   22.8030   36.2750 N   0  0  0  0  0  0  0  0  0  0  0  0
   40.7040   22.2900   38.1870 H   0  0  0  0  0  0  0  0  0  0  0  0
   38.7870   23.3070   39.3970 H   0  0  0  0  0  0  0  0  0  0  0  0
   36.9850   24.3940   38.0690 H   0  0  0  0  0  0  0  0  0  0  0  0
   37.2900   23.1180   31.7340 C   0  0  2  0  0  3  0  0  0  0  0  0
   37.5440   23.6960   33.1090 C   0  0  2  0  0  3  0  0  0  0  0  0
   37.2800   25.1620   32.7870 C   0  0  0  0  0  3  0  0  0  0  0  0
   37.1290   25.7200   33.7350 H   0  0  0  0  0  0  0  0  0  0  0  0
   36.1750   25.1660   31.9450 O   0  0  0  0  0  0  0  0  0  0  0  0
   35.9910   23.8820   31.4480 C   0  0  0  0  0  3  0  0  0  0  0  0
   35.6720   23.8220   30.4090 H   0  0  0  0  0  0  0  0  0  0  0  0
   36.9770   21.7780   31.7380 O   0  0  0  0  0  0  0  0  0  0  0  0
   37.4560   21.3280   32.4860 H   0  0  0  0  0  0  0  0  0  0  0  0
  1  6  1  0  0  0  0
  2  8  1  0  0  0  0
  2  3  1  0  0  0  0
  3  9  1  0  0  0  0
  4 10  1  0  0  0  0
  4  3  2  0  0  0  0
  5  4  1  0  0  0  0
  6  5  2  0  0  0  0
  6  7  1  0  0  0  0
  7  2  2  0  0  0  0
 11 18  1  1  0  0  0
 11 12  1  0  0  0  0
 12  1  1  6  0  0  0
 13 12  1  0  0  0  0
 13 14  1  0  0  0  0
 15 13  1  0  0  0  0
 16 11  1  0  0  0  0
 16 15  1  0  0  0  0
 17 16  1  0  0  0  0
 18 19  1  0  0  0  0
M  END
>  <minimizedAffinity>
-3.48106694

$$$$
