
 OpenBabel03272508073D

 24 25  0  0  1  0  0  0  0  0999 V2000
   34.0560   29.9620   44.8630 O   0  0  0  0  0  0  0  0  0  0  0  0
   34.4510   29.8630   46.2930 P   0  0  2  0  0  0  0  0  0  0  0  0
   33.4830   30.9040   47.2310 O   0  0  0  0  0  0  0  0  0  0  0  0
   33.5380   30.6190   48.1840 H   0  0  0  0  0  0  0  0  0  0  0  0
   36.0860   30.1610   46.5960 O   0  0  0  0  0  0  0  0  0  0  0  0
   38.3830   30.9020   43.7870 C   0  0  0  0  0  0  0  0  0  0  0  0
   37.3690   30.2170   44.4800 C   0  0  0  0  0  0  0  0  0  0  0  0
   37.0170   30.6530   45.7520 C   0  0  0  0  0  0  0  0  0  0  0  0
   37.6900   31.7390   46.2540 N   0  0  0  0  0  0  0  0  0  0  0  0
   38.6490   32.3660   45.5650 C   0  0  0  0  0  0  0  0  0  0  0  0
   38.9910   31.9490   44.3410 N   0  0  0  0  0  0  0  0  0  0  0  0
   38.6080   30.5050   42.7930 H   0  0  0  0  0  0  0  0  0  0  0  0
   36.8120   29.3650   44.1350 H   0  0  0  0  0  0  0  0  0  0  0  0
   39.1740   33.2310   45.9860 H   0  0  0  0  0  0  0  0  0  0  0  0
   34.0720   28.2880   46.8100 O   0  0  0  0  0  0  0  0  0  0  0  0
   31.8530   27.4910   46.3010 C   0  0  1  0  0  3  0  0  0  0  0  0
   32.7280   28.3080   47.1940 C   0  0  1  0  0  3  0  0  0  0  0  0
   32.5190   27.7230   48.5600 C   0  0  0  0  0  3  0  0  0  0  0  0
   32.0520   28.4630   49.2490 H   0  0  0  0  0  0  0  0  0  0  0  0
   31.6750   26.6410   48.4710 O   0  0  0  0  0  0  0  0  0  0  0  0
   31.5900   26.2610   47.1510 C   0  0  0  0  0  3  0  0  0  0  0  0
   30.5620   25.8960   46.9040 H   0  0  0  0  0  0  0  0  0  0  0  0
   30.6260   28.1270   46.1200 O   0  0  0  0  0  0  0  0  0  0  0  0
   30.0880   27.7120   45.4010 H   0  0  0  0  0  0  0  0  0  0  0  0
  2  1  2  6  0  0  0
  2  5  1  0  0  0  0
  2 15  1  0  0  0  0
  2  3  1  0  0  0  0
  3  4  1  0  0  0  0
  6 11  2  0  0  0  0
  6  7  1  0  0  0  0
  7  8  2  0  0  0  0
  8  9  1  0  0  0  0
  8  5  1  0  0  0  0
 10 14  1  0  0  0  0
 10  9  2  0  0  0  0
 11 10  1  0  0  0  0
 12  6  1  0  0  0  0
 13  7  1  0  0  0  0
 16 23  1  1  0  0  0
 16 21  1  0  0  0  0
 16 17  1  0  0  0  0
 17 15  1  6  0  0  0
 17 18  1  0  0  0  0
 18 19  1  0  0  0  0
 20 18  1  0  0  0  0
 21 20  1  0  0  0  0
 22 21  1  0  0  0  0
 24 23  1  0  0  0  0
M  END
>  <minimizedAffinity>
-3.27069044

>  <minimizedRMSD>
7.98711681

$$$$
