
 OpenBabel03272508093D

 24 25  0  0  1  0  0  0  0  0999 V2000
   39.6410   26.8300   34.1560 O   0  0  0  0  0  0  0  0  0  0  0  0
   38.3790   26.8460   34.9430 P   0  0  2  0  0  0  0  0  0  0  0  0
   38.5480   27.8890   36.2800 O   0  0  0  0  0  0  0  0  0  0  0  0
   37.6410   28.1260   36.6160 H   0  0  0  0  0  0  0  0  0  0  0  0
   37.8480   25.3270   35.4560 O   0  0  0  0  0  0  0  0  0  0  0  0
   38.7470   23.3980   38.4880 C   0  0  0  0  0  0  0  0  0  0  0  0
   38.0040   24.2990   37.7030 C   0  0  0  0  0  0  0  0  0  0  0  0
   38.3980   24.5190   36.3880 C   0  0  0  0  0  0  0  0  0  0  0  0
   39.4970   23.8350   35.9360 N   0  0  0  0  0  0  0  0  0  0  0  0
   40.1780   22.9850   36.7130 C   0  0  0  0  0  0  0  0  0  0  0  0
   39.8040   22.7710   37.9790 N   0  0  0  0  0  0  0  0  0  0  0  0
   38.3820   23.2740   39.5120 H   0  0  0  0  0  0  0  0  0  0  0  0
   37.1390   24.8600   38.0050 H   0  0  0  0  0  0  0  0  0  0  0  0
   41.0550   22.4490   36.3300 H   0  0  0  0  0  0  0  0  0  0  0  0
   37.1830   27.5460   33.9590 O   0  0  0  0  0  0  0  0  0  0  0  0
   36.7550   25.9920   32.1640 C   0  0  1  0  0  3  0  0  0  0  0  0
   37.4960   27.1970   32.6420 C   0  0  1  0  0  3  0  0  0  0  0  0
   37.1280   28.2760   31.6660 C   0  0  0  0  0  3  0  0  0  0  0  0
   38.0190   28.6270   31.0970 H   0  0  0  0  0  0  0  0  0  0  0  0
   36.2180   27.7840   30.7630 O   0  0  0  0  0  0  0  0  0  0  0  0
   35.7050   26.6060   31.2550 C   0  0  0  0  0  3  0  0  0  0  0  0
   35.5080   25.8760   30.4300 H   0  0  0  0  0  0  0  0  0  0  0  0
   37.5780   25.2090   31.3590 O   0  0  0  0  0  0  0  0  0  0  0  0
   37.1860   24.3210   31.1680 H   0  0  0  0  0  0  0  0  0  0  0  0
  2  1  2  6  0  0  0
  2  5  1  0  0  0  0
  2  3  1  0  0  0  0
  3  4  1  0  0  0  0
  5  8  1  0  0  0  0
  6 12  1  0  0  0  0
  7 13  1  0  0  0  0
  7  6  2  0  0  0  0
  8  7  1  0  0  0  0
  9  8  2  0  0  0  0
  9 10  1  0  0  0  0
 10 11  2  0  0  0  0
 11  6  1  0  0  0  0
 14 10  1  0  0  0  0
 15  2  1  0  0  0  0
 16 23  1  6  0  0  0
 16 17  1  0  0  0  0
 17 15  1  1  0  0  0
 18 17  1  0  0  0  0
 19 18  1  0  0  0  0
 20 21  1  0  0  0  0
 20 18  1  0  0  0  0
 21 16  1  0  0  0  0
 22 21  1  0  0  0  0
 24 23  1  0  0  0  0
M  END
>  <minimizedAffinity>
-4.68830347

$$$$

 OpenBabel03272508093D

 24 25  0  0  1  0  0  0  0  0999 V2000
   40.8450   26.9850   34.6170 O   0  0  0  0  0  0  0  0  0  0  0  0
   39.3810   26.7490   34.7250 P   0  0  2  0  0  0  0  0  0  0  0  0
   38.7280   27.7320   35.9530 O   0  0  0  0  0  0  0  0  0  0  0  0
   37.7430   27.7970   35.8210 H   0  0  0  0  0  0  0  0  0  0  0  0
   38.9420   25.1370   34.9770 O   0  0  0  0  0  0  0  0  0  0  0  0
   39.6920   22.7810   37.7350 C   0  0  0  0  0  0  0  0  0  0  0  0
   39.8280   23.3670   36.4630 C   0  0  0  0  0  0  0  0  0  0  0  0
   38.9950   24.4260   36.1240 C   0  0  0  0  0  0  0  0  0  0  0  0
   38.0830   24.8360   37.0630 N   0  0  0  0  0  0  0  0  0  0  0  0
   37.9830   24.2550   38.2630 C   0  0  0  0  0  0  0  0  0  0  0  0
   38.7820   23.2350   38.5940 N   0  0  0  0  0  0  0  0  0  0  0  0
   40.3790   21.9540   37.9350 H   0  0  0  0  0  0  0  0  0  0  0  0
   40.5230   23.0860   35.6930 H   0  0  0  0  0  0  0  0  0  0  0  0
   37.2450   24.5990   38.9980 H   0  0  0  0  0  0  0  0  0  0  0  0
   38.6770   27.2920   33.2760 O   0  0  0  0  0  0  0  0  0  0  0  0
   36.5610   28.4420   33.1350 C   0  0  1  0  0  3  0  0  0  0  0  0
   37.2930   27.1770   33.4370 C   0  0  1  0  0  3  0  0  0  0  0  0
   36.6950   26.1650   32.5040 C   0  0  0  0  0  3  0  0  0  0  0  0
   36.1730   25.3570   33.0650 H   0  0  0  0  0  0  0  0  0  0  0  0
   35.7700   26.7800   31.6950 O   0  0  0  0  0  0  0  0  0  0  0  0
   35.9540   28.1410   31.7770 C   0  0  0  0  0  3  0  0  0  0  0  0
   34.9770   28.6840   31.7180 H   0  0  0  0  0  0  0  0  0  0  0  0
   35.5010   28.6080   34.0230 O   0  0  0  0  0  0  0  0  0  0  0  0
   35.1020   29.5130   33.9710 H   0  0  0  0  0  0  0  0  0  0  0  0
  2  1  2  6  0  0  0
  2  5  1  0  0  0  0
  2  3  1  0  0  0  0
  4  3  1  0  0  0  0
  5  8  1  0  0  0  0
  6 12  1  0  0  0  0
  6 11  1  0  0  0  0
  7  6  2  0  0  0  0
  8  7  1  0  0  0  0
  8  9  2  0  0  0  0
  9 10  1  0  0  0  0
 10 11  2  0  0  0  0
 10 14  1  0  0  0  0
 13  7  1  0  0  0  0
 15  2  1  0  0  0  0
 16 17  1  0  0  0  0
 16 23  1  1  0  0  0
 17 15  1  6  0  0  0
 18 19  1  0  0  0  0
 18 17  1  0  0  0  0
 20 21  1  0  0  0  0
 20 18  1  0  0  0  0
 21 16  1  0  0  0  0
 22 21  1  0  0  0  0
 24 23  1  0  0  0  0
M  END
>  <minimizedAffinity>
-4.58408642

$$$$

 OpenBabel03272508093D

 24 25  0  0  1  0  0  0  0  0999 V2000
   37.8790   22.2230   36.0990 O   0  0  0  0  0  0  0  0  0  0  0  0
   38.9980   23.0260   36.6590 P   0  0  2  0  0  0  0  0  0  0  0  0
   39.2490   22.6040   38.2900 O   0  0  0  0  0  0  0  0  0  0  0  0
   40.1590   22.9060   38.5620 H   0  0  0  0  0  0  0  0  0  0  0  0
   38.8090   24.6990   36.5150 O   0  0  0  0  0  0  0  0  0  0  0  0
   39.8500   27.0000   33.8060 C   0  0  0  0  0  0  0  0  0  0  0  0
   39.9620   26.3010   35.0220 C   0  0  0  0  0  0  0  0  0  0  0  0
   38.9240   25.4610   35.4070 C   0  0  0  0  0  0  0  0  0  0  0  0
   37.8450   25.3660   34.5650 N   0  0  0  0  0  0  0  0  0  0  0  0
   37.7740   26.0460   33.4160 C   0  0  0  0  0  0  0  0  0  0  0  0
   38.7700   26.8570   33.0420 N   0  0  0  0  0  0  0  0  0  0  0  0
   40.7030   27.6420   33.5670 H   0  0  0  0  0  0  0  0  0  0  0  0
   40.7810   26.3390   35.7170 H   0  0  0  0  0  0  0  0  0  0  0  0
   36.9010   25.9560   32.7580 H   0  0  0  0  0  0  0  0  0  0  0  0
   40.4110   22.5580   35.8380 O   0  0  0  0  0  0  0  0  0  0  0  0
   41.9470   20.9650   36.8000 C   0  0  1  0  0  3  0  0  0  0  0  0
   41.3900   22.3500   36.8140 C   0  0  1  0  0  3  0  0  0  0  0  0
   42.5830   23.2380   36.6200 C   0  0  0  0  0  3  0  0  0  0  0  0
   42.7570   23.8830   37.5110 H   0  0  0  0  0  0  0  0  0  0  0  0
   43.7030   22.4640   36.4370 O   0  0  0  0  0  0  0  0  0  0  0  0
   43.3050   21.1770   36.1550 C   0  0  0  0  0  3  0  0  0  0  0  0
   44.0090   20.4300   36.6020 H   0  0  0  0  0  0  0  0  0  0  0  0
   42.1810   20.5280   38.1010 O   0  0  0  0  0  0  0  0  0  0  0  0
   42.3820   19.5590   38.1430 H   0  0  0  0  0  0  0  0  0  0  0  0
  2  1  2  6  0  0  0
  2  3  1  0  0  0  0
  3  4  1  0  0  0  0
  5  2  1  0  0  0  0
  6  7  1  0  0  0  0
  7  8  2  0  0  0  0
  7 13  1  0  0  0  0
  8  5  1  0  0  0  0
  9  8  1  0  0  0  0
 10  9  2  0  0  0  0
 11 10  1  0  0  0  0
 11  6  2  0  0  0  0
 12  6  1  0  0  0  0
 14 10  1  0  0  0  0
 15  2  1  0  0  0  0
 16 17  1  0  0  0  0
 16 23  1  1  0  0  0
 17 15  1  6  0  0  0
 18 17  1  0  0  0  0
 18 19  1  0  0  0  0
 20 18  1  0  0  0  0
 21 20  1  0  0  0  0
 21 22  1  0  0  0  0
 21 16  1  0  0  0  0
 23 24  1  0  0  0  0
M  END
>  <minimizedAffinity>
-4.30180502

$$$$

 OpenBabel03272508093D

 24 25  0  0  1  0  0  0  0  0999 V2000
   40.2360   22.3750   34.1220 O   0  0  0  0  0  0  0  0  0  0  0  0
   38.8920   23.0020   34.0130 P   0  0  2  0  0  0  0  0  0  0  0  0
   37.6980   21.7910   33.9220 O   0  0  0  0  0  0  0  0  0  0  0  0
   36.8170   22.1940   34.1510 H   0  0  0  0  0  0  0  0  0  0  0  0
   38.7200   24.0850   32.7280 O   0  0  0  0  0  0  0  0  0  0  0  0
   35.9400   26.2170   31.5250 C   0  0  0  0  0  0  0  0  0  0  0  0
   37.1890   25.9270   32.1050 C   0  0  0  0  0  0  0  0  0  0  0  0
   37.5820   24.5990   32.2150 C   0  0  0  0  0  0  0  0  0  0  0  0
   36.7150   23.6440   31.7450 N   0  0  0  0  0  0  0  0  0  0  0  0
   35.5350   23.9580   31.2000 C   0  0  0  0  0  0  0  0  0  0  0  0
   35.1520   25.2350   31.0920 N   0  0  0  0  0  0  0  0  0  0  0  0
   35.6960   27.2820   31.4710 H   0  0  0  0  0  0  0  0  0  0  0  0
   37.9030   26.6330   32.4870 H   0  0  0  0  0  0  0  0  0  0  0  0
   34.8580   23.1780   30.8310 H   0  0  0  0  0  0  0  0  0  0  0  0
   38.6040   23.8260   35.4720 O   0  0  0  0  0  0  0  0  0  0  0  0
   39.6220   23.0350   37.5110 C   0  0  1  0  0  3  0  0  0  0  0  0
   38.5610   22.8550   36.4770 C   0  0  1  0  0  3  0  0  0  0  0  0
   37.2740   22.8910   37.2470 C   0  0  0  0  0  3  0  0  0  0  0  0
   36.7380   21.9170   37.1850 H   0  0  0  0  0  0  0  0  0  0  0  0
   37.5420   23.1390   38.5720 O   0  0  0  0  0  0  0  0  0  0  0  0
   38.8340   23.6020   38.6780 C   0  0  0  0  0  3  0  0  0  0  0  0
   39.3170   23.2360   39.6190 H   0  0  0  0  0  0  0  0  0  0  0  0
   40.1120   21.7970   37.9190 O   0  0  0  0  0  0  0  0  0  0  0  0
   40.9320   21.8770   38.4680 H   0  0  0  0  0  0  0  0  0  0  0  0
  2  1  2  6  0  0  0
  2 15  1  0  0  0  0
  3  2  1  0  0  0  0
  3  4  1  0  0  0  0
  5  2  1  0  0  0  0
  6  7  1  0  0  0  0
  7  8  2  0  0  0  0
  7 13  1  0  0  0  0
  8  5  1  0  0  0  0
  9  8  1  0  0  0  0
 10  9  2  0  0  0  0
 11 10  1  0  0  0  0
 11  6  2  0  0  0  0
 12  6  1  0  0  0  0
 14 10  1  0  0  0  0
 16 23  1  1  0  0  0
 16 21  1  0  0  0  0
 17 15  1  6  0  0  0
 17 18  1  0  0  0  0
 17 16  1  0  0  0  0
 18 20  1  0  0  0  0
 19 18  1  0  0  0  0
 20 21  1  0  0  0  0
 21 22  1  0  0  0  0
 23 24  1  0  0  0  0
M  END
>  <minimizedAffinity>
-4.29780626

$$$$

 OpenBabel03272508093D

 24 25  0  0  1  0  0  0  0  0999 V2000
   35.1210   24.0210   30.8980 O   0  0  0  0  0  0  0  0  0  0  0  0
   36.5240   24.1180   31.3810 P   0  0  2  0  0  0  0  0  0  0  0  0
   37.5450   24.5690   30.0940 O   0  0  0  0  0  0  0  0  0  0  0  0
   38.3980   24.9190   30.4710 H   0  0  0  0  0  0  0  0  0  0  0  0
   37.1120   22.7210   32.1260 O   0  0  0  0  0  0  0  0  0  0  0  0
   35.7600   19.3450   31.4220 C   0  0  0  0  0  0  0  0  0  0  0  0
   36.3800   20.5750   31.1340 C   0  0  0  0  0  0  0  0  0  0  0  0
   36.5520   21.4930   32.1630 C   0  0  0  0  0  0  0  0  0  0  0  0
   36.1020   21.1360   33.4080 N   0  0  0  0  0  0  0  0  0  0  0  0
   35.5170   19.9560   33.6450 C   0  0  0  0  0  0  0  0  0  0  0  0
   35.3490   19.0690   32.6580 N   0  0  0  0  0  0  0  0  0  0  0  0
   35.6580   18.6720   30.5660 H   0  0  0  0  0  0  0  0  0  0  0  0
   36.7500   20.9040   30.1800 H   0  0  0  0  0  0  0  0  0  0  0  0
   35.1640   19.6920   34.6490 H   0  0  0  0  0  0  0  0  0  0  0  0
   36.5840   25.4040   32.4920 O   0  0  0  0  0  0  0  0  0  0  0  0
   35.9500   27.2040   31.0170 C   0  0  1  0  0  3  0  0  0  0  0  0
   37.0340   26.5210   31.7830 C   0  0  1  0  0  3  0  0  0  0  0  0
   37.5820   27.5850   32.6880 C   0  0  0  0  0  3  0  0  0  0  0  0
   38.6450   27.8140   32.4460 H   0  0  0  0  0  0  0  0  0  0  0  0
   36.8550   28.7400   32.5280 O   0  0  0  0  0  0  0  0  0  0  0  0
   35.6880   28.4350   31.8670 C   0  0  0  0  0  3  0  0  0  0  0  0
   35.3880   29.2630   31.1760 H   0  0  0  0  0  0  0  0  0  0  0  0
   36.4360   27.6560   29.7930 O   0  0  0  0  0  0  0  0  0  0  0  0
   35.7130   27.9540   29.1860 H   0  0  0  0  0  0  0  0  0  0  0  0
  2  1  2  6  0  0  0
  2  5  1  0  0  0  0
  2 15  1  0  0  0  0
  3  4  1  0  0  0  0
  3  2  1  0  0  0  0
  5  8  1  0  0  0  0
  6 11  1  0  0  0  0
  7  6  2  0  0  0  0
  7  8  1  0  0  0  0
  8  9  2  0  0  0  0
  9 10  1  0  0  0  0
 10 14  1  0  0  0  0
 11 10  2  0  0  0  0
 12  6  1  0  0  0  0
 13  7  1  0  0  0  0
 16 23  1  6  0  0  0
 16 17  1  0  0  0  0
 16 21  1  0  0  0  0
 17 15  1  1  0  0  0
 17 18  1  0  0  0  0
 19 18  1  0  0  0  0
 20 18  1  0  0  0  0
 21 20  1  0  0  0  0
 22 21  1  0  0  0  0
 24 23  1  0  0  0  0
M  END
>  <minimizedAffinity>
-4.26309347

$$$$

 OpenBabel03272508093D

 24 25  0  0  1  0  0  0  0  0999 V2000
   40.4190   24.2680   33.4150 O   0  0  0  0  0  0  0  0  0  0  0  0
   39.2500   23.5460   33.9830 P   0  0  2  0  0  0  0  0  0  0  0  0
   39.6360   21.9000   34.1900 O   0  0  0  0  0  0  0  0  0  0  0  0
   38.9870   21.4980   34.8300 H   0  0  0  0  0  0  0  0  0  0  0  0
   37.8230   23.7000   33.0920 O   0  0  0  0  0  0  0  0  0  0  0  0
   35.5390   21.4830   31.1990 C   0  0  0  0  0  0  0  0  0  0  0  0
   36.3490   22.6100   31.4290 C   0  0  0  0  0  0  0  0  0  0  0  0
   37.0040   22.7230   32.6500 C   0  0  0  0  0  0  0  0  0  0  0  0
   36.8150   21.7150   33.5620 N   0  0  0  0  0  0  0  0  0  0  0  0
   36.0370   20.6580   33.3060 C   0  0  0  0  0  0  0  0  0  0  0  0
   35.4040   20.5450   32.1340 N   0  0  0  0  0  0  0  0  0  0  0  0
   35.0550   21.4600   30.2180 H   0  0  0  0  0  0  0  0  0  0  0  0
   36.5310   23.4250   30.7520 H   0  0  0  0  0  0  0  0  0  0  0  0
   35.9000   19.8640   34.0510 H   0  0  0  0  0  0  0  0  0  0  0  0
   38.9930   24.1600   35.5470 O   0  0  0  0  0  0  0  0  0  0  0  0
   39.7260   23.0670   37.5690 C   0  0  1  0  0  3  0  0  0  0  0  0
   38.8160   23.0560   36.3850 C   0  0  1  0  0  3  0  0  0  0  0  0
   37.4360   23.0030   36.9710 C   0  0  0  0  0  3  0  0  0  0  0  0
   36.9160   22.0580   36.6960 H   0  0  0  0  0  0  0  0  0  0  0  0
   37.5200   23.0540   38.3420 O   0  0  0  0  0  0  0  0  0  0  0  0
   38.7830   23.4740   38.6880 C   0  0  0  0  0  3  0  0  0  0  0  0
   39.1340   22.9680   39.6230 H   0  0  0  0  0  0  0  0  0  0  0  0
   40.1590   21.7760   37.8560 O   0  0  0  0  0  0  0  0  0  0  0  0
   40.8950   21.7620   38.5170 H   0  0  0  0  0  0  0  0  0  0  0  0
  2  1  2  6  0  0  0
  2  3  1  0  0  0  0
  2 15  1  0  0  0  0
  3  4  1  0  0  0  0
  5  2  1  0  0  0  0
  6  7  2  0  0  0  0
  6 11  1  0  0  0  0
  7  8  1  0  0  0  0
  8  5  1  0  0  0  0
  8  9  2  0  0  0  0
 10  9  1  0  0  0  0
 10 14  1  0  0  0  0
 11 10  2  0  0  0  0
 12  6  1  0  0  0  0
 13  7  1  0  0  0  0
 16 23  1  1  0  0  0
 16 21  1  0  0  0  0
 17 15  1  1  0  0  0
 17 18  1  0  0  0  0
 17 16  1  0  0  0  0
 18 20  1  0  0  0  0
 19 18  1  0  0  0  0
 20 21  1  0  0  0  0
 21 22  1  0  0  0  0
 23 24  1  0  0  0  0
M  END
>  <minimizedAffinity>
-4.26307058

$$$$

 OpenBabel03272508093D

 24 25  0  0  1  0  0  0  0  0999 V2000
   39.2710   27.2750   35.1760 O   0  0  0  0  0  0  0  0  0  0  0  0
   38.1210   26.5020   34.6350 P   0  0  2  0  0  0  0  0  0  0  0  0
   36.8890   27.5710   34.1450 O   0  0  0  0  0  0  0  0  0  0  0  0
   36.2750   27.0880   33.5260 H   0  0  0  0  0  0  0  0  0  0  0  0
   37.4950   25.3380   35.6880 O   0  0  0  0  0  0  0  0  0  0  0  0
   38.7810   23.4060   38.5750 C   0  0  0  0  0  0  0  0  0  0  0  0
   37.9340   24.2970   37.8900 C   0  0  0  0  0  0  0  0  0  0  0  0
   38.1660   24.5350   36.5410 C   0  0  0  0  0  0  0  0  0  0  0  0
   39.2200   23.8780   35.9570 N   0  0  0  0  0  0  0  0  0  0  0  0
   40.0030   23.0370   36.6400 C   0  0  0  0  0  0  0  0  0  0  0  0
   39.7840   22.8040   37.9390 N   0  0  0  0  0  0  0  0  0  0  0  0
   38.5400   23.2660   39.6320 H   0  0  0  0  0  0  0  0  0  0  0  0
   37.0980   24.8360   38.2970 H   0  0  0  0  0  0  0  0  0  0  0  0
   40.8400   22.5220   36.1530 H   0  0  0  0  0  0  0  0  0  0  0  0
   38.6570   25.7330   33.2170 O   0  0  0  0  0  0  0  0  0  0  0  0
   37.5290   25.5590   31.0910 C   0  0  1  0  0  3  0  0  0  0  0  0
   37.5140   25.2730   32.5570 C   0  0  1  0  0  3  0  0  0  0  0  0
   37.3660   23.7820   32.6480 C   0  0  0  0  0  3  0  0  0  0  0  0
   36.4050   23.5000   33.1350 H   0  0  0  0  0  0  0  0  0  0  0  0
   37.3690   23.2450   31.3830 O   0  0  0  0  0  0  0  0  0  0  0  0
   37.8430   24.1930   30.5060 C   0  0  0  0  0  3  0  0  0  0  0  0
   37.3220   24.1240   29.5180 H   0  0  0  0  0  0  0  0  0  0  0  0
   36.2520   25.9010   30.6550 O   0  0  0  0  0  0  0  0  0  0  0  0
   36.2520   26.2660   29.7350 H   0  0  0  0  0  0  0  0  0  0  0  0
  2  1  2  1  0  0  0
  2  5  1  0  0  0  0
  3  2  1  0  0  0  0
  4  3  1  0  0  0  0
  5  8  1  0  0  0  0
  6 12  1  0  0  0  0
  7 13  1  0  0  0  0
  7  6  2  0  0  0  0
  8  7  1  0  0  0  0
  9  8  2  0  0  0  0
  9 10  1  0  0  0  0
 10 11  2  0  0  0  0
 11  6  1  0  0  0  0
 14 10  1  0  0  0  0
 15  2  1  0  0  0  0
 16 23  1  6  0  0  0
 16 17  1  0  0  0  0
 17 18  1  0  0  0  0
 17 15  1  6  0  0  0
 18 19  1  0  0  0  0
 20 18  1  0  0  0  0
 21 16  1  0  0  0  0
 21 20  1  0  0  0  0
 22 21  1  0  0  0  0
 24 23  1  0  0  0  0
M  END
>  <minimizedAffinity>
-4.25746059

$$$$

 OpenBabel03272508093D

 24 25  0  0  1  0  0  0  0  0999 V2000
   37.9040   24.1060   35.6530 O   0  0  0  0  0  0  0  0  0  0  0  0
   38.7640   24.0460   34.4420 P   0  0  2  0  0  0  0  0  0  0  0  0
   39.5960   25.5200   34.2530 O   0  0  0  0  0  0  0  0  0  0  0  0
   40.3710   25.3740   33.6440 H   0  0  0  0  0  0  0  0  0  0  0  0
   37.9490   23.6530   33.0160 O   0  0  0  0  0  0  0  0  0  0  0  0
   35.1430   24.9150   30.9520 C   0  0  0  0  0  0  0  0  0  0  0  0
   35.9830   23.9510   31.5410 C   0  0  0  0  0  0  0  0  0  0  0  0
   37.0260   24.3820   32.3520 C   0  0  0  0  0  0  0  0  0  0  0  0
   37.1700   25.7350   32.5290 N   0  0  0  0  0  0  0  0  0  0  0  0
   36.3500   26.6210   31.9530 C   0  0  0  0  0  0  0  0  0  0  0  0
   35.3460   26.2120   31.1710 N   0  0  0  0  0  0  0  0  0  0  0  0
   34.3440   24.5050   30.3270 H   0  0  0  0  0  0  0  0  0  0  0  0
   35.9160   22.8840   31.4370 H   0  0  0  0  0  0  0  0  0  0  0  0
   36.4840   27.6980   32.1080 H   0  0  0  0  0  0  0  0  0  0  0  0
   39.9610   22.8740   34.7340 O   0  0  0  0  0  0  0  0  0  0  0  0
   40.3190   21.9440   36.9310 C   0  0  1  0  0  3  0  0  0  0  0  0
   40.4530   23.1190   36.0190 C   0  0  1  0  0  3  0  0  0  0  0  0
   41.9210   23.4270   36.0170 C   0  0  0  0  0  3  0  0  0  0  0  0
   42.1250   24.4310   36.4530 H   0  0  0  0  0  0  0  0  0  0  0  0
   42.5850   22.4960   36.7780 O   0  0  0  0  0  0  0  0  0  0  0  0
   41.7450   21.4270   36.9940 C   0  0  0  0  0  3  0  0  0  0  0  0
   41.9000   20.9910   38.0130 H   0  0  0  0  0  0  0  0  0  0  0  0
   39.9860   22.3670   38.2150 O   0  0  0  0  0  0  0  0  0  0  0  0
   39.7170   21.6170   38.8020 H   0  0  0  0  0  0  0  0  0  0  0  0
  2 15  1  0  0  0  0
  2  1  2  1  0  0  0
  3  2  1  0  0  0  0
  4  3  1  0  0  0  0
  5  2  1  0  0  0  0
  6 11  2  0  0  0  0
  6  7  1  0  0  0  0
  7  8  2  0  0  0  0
  8  9  1  0  0  0  0
  8  5  1  0  0  0  0
 10 14  1  0  0  0  0
 10  9  2  0  0  0  0
 11 10  1  0  0  0  0
 12  6  1  0  0  0  0
 13  7  1  0  0  0  0
 16 21  1  0  0  0  0
 16 23  1  1  0  0  0
 17 15  1  6  0  0  0
 17 16  1  0  0  0  0
 18 17  1  0  0  0  0
 18 19  1  0  0  0  0
 18 20  1  0  0  0  0
 20 21  1  0  0  0  0
 21 22  1  0  0  0  0
 23 24  1  0  0  0  0
M  END
>  <minimizedAffinity>
-4.16458368

$$$$

 OpenBabel03272508093D

 24 25  0  0  1  0  0  0  0  0999 V2000
   38.9990   26.9660   35.8170 O   0  0  0  0  0  0  0  0  0  0  0  0
   39.7370   26.5590   34.5920 P   0  0  2  0  0  0  0  0  0  0  0  0
   41.4050   26.8220   34.8120 O   0  0  0  0  0  0  0  0  0  0  0  0
   41.9050   26.2850   34.1380 H   0  0  0  0  0  0  0  0  0  0  0  0
   39.2130   27.3060   33.1710 O   0  0  0  0  0  0  0  0  0  0  0  0
   35.7630   27.7220   31.8870 C   0  0  0  0  0  0  0  0  0  0  0  0
   36.9190   28.0540   32.6190 C   0  0  0  0  0  0  0  0  0  0  0  0
   38.0130   27.1980   32.5620 C   0  0  0  0  0  0  0  0  0  0  0  0
   37.8940   26.0730   31.7860 N   0  0  0  0  0  0  0  0  0  0  0  0
   36.7790   25.7920   31.1040 C   0  0  0  0  0  0  0  0  0  0  0  0
   35.7230   26.6110   31.1560 N   0  0  0  0  0  0  0  0  0  0  0  0
   34.9420   28.4390   31.9790 H   0  0  0  0  0  0  0  0  0  0  0  0
   37.0650   28.9180   33.2400 H   0  0  0  0  0  0  0  0  0  0  0  0
   36.7060   24.8860   30.4890 H   0  0  0  0  0  0  0  0  0  0  0  0
   39.5520   24.8760   34.4320 O   0  0  0  0  0  0  0  0  0  0  0  0
   38.0320   23.6580   35.8550 C   0  0  1  0  0  3  0  0  0  0  0  0
   39.3350   24.3750   35.7180 C   0  0  1  0  0  3  0  0  0  0  0  0
   40.3660   23.3600   36.1140 C   0  0  0  0  0  3  0  0  0  0  0  0
   40.9110   23.6740   37.0330 H   0  0  0  0  0  0  0  0  0  0  0  0
   39.7490   22.1620   36.3810 O   0  0  0  0  0  0  0  0  0  0  0  0
   38.4710   22.2050   35.8730 C   0  0  0  0  0  3  0  0  0  0  0  0
   37.7570   21.6460   36.5290 H   0  0  0  0  0  0  0  0  0  0  0  0
   37.4650   23.9230   37.0990 O   0  0  0  0  0  0  0  0  0  0  0  0
   36.5270   23.6130   37.1610 H   0  0  0  0  0  0  0  0  0  0  0  0
  2  3  1  0  0  0  0
  2  1  2  1  0  0  0
  4  3  1  0  0  0  0
  5  2  1  0  0  0  0
  6 12  1  0  0  0  0
  6  7  1  0  0  0  0
  7 13  1  0  0  0  0
  8  7  2  0  0  0  0
  8  5  1  0  0  0  0
  9  8  1  0  0  0  0
 10 11  1  0  0  0  0
 10  9  2  0  0  0  0
 11  6  2  0  0  0  0
 14 10  1  0  0  0  0
 15  2  1  0  0  0  0
 16 21  1  0  0  0  0
 16 23  1  1  0  0  0
 17 15  1  6  0  0  0
 17 16  1  0  0  0  0
 17 18  1  0  0  0  0
 18 20  1  0  0  0  0
 18 19  1  0  0  0  0
 21 20  1  0  0  0  0
 21 22  1  0  0  0  0
 23 24  1  0  0  0  0
M  END
>  <minimizedAffinity>
-4.13276386

$$$$
