
 OpenBabel03272508083D

 24 25  0  0  1  0  0  0  0  0999 V2000
   39.2880   31.6990   47.0490 O   0  0  0  0  0  0  0  0  0  0  0  0
   38.0980   31.4420   46.1940 P   0  0  2  0  0  0  0  0  0  0  0  0
   37.7560   32.8230   45.2560 O   0  0  0  0  0  0  0  0  0  0  0  0
   37.1740   32.5540   44.4930 H   0  0  0  0  0  0  0  0  0  0  0  0
   36.7170   30.9540   47.0340 O   0  0  0  0  0  0  0  0  0  0  0  0
   37.2970   29.6640   50.4570 C   0  0  0  0  0  0  0  0  0  0  0  0
   37.6450   30.1360   49.1780 C   0  0  0  0  0  0  0  0  0  0  0  0
   36.6280   30.4830   48.2960 C   0  0  0  0  0  0  0  0  0  0  0  0
   35.3360   30.3420   48.7360 N   0  0  0  0  0  0  0  0  0  0  0  0
   35.0450   29.8900   49.9600 C   0  0  0  0  0  0  0  0  0  0  0  0
   36.0190   29.5540   50.8120 N   0  0  0  0  0  0  0  0  0  0  0  0
   38.1470   29.4100   51.0980 H   0  0  0  0  0  0  0  0  0  0  0  0
   38.6360   30.2660   48.7840 H   0  0  0  0  0  0  0  0  0  0  0  0
   34.0040   29.7840   50.2910 H   0  0  0  0  0  0  0  0  0  0  0  0
   38.5300   30.2270   45.0860 O   0  0  0  0  0  0  0  0  0  0  0  0
   39.9670   29.9750   43.1660 C   0  0  1  0  0  3  0  0  0  0  0  0
   39.7140   30.6480   44.4740 C   0  0  1  0  0  3  0  0  0  0  0  0
   39.6960   32.1120   44.1470 C   0  0  0  0  0  3  0  0  0  0  0  0
   40.5300   32.6500   44.6510 H   0  0  0  0  0  0  0  0  0  0  0  0
   39.8450   32.2790   42.7910 O   0  0  0  0  0  0  0  0  0  0  0  0
   39.6200   31.0700   42.1740 C   0  0  0  0  0  3  0  0  0  0  0  0
   40.2860   30.9420   41.2840 H   0  0  0  0  0  0  0  0  0  0  0  0
   41.3270   29.7120   43.0160 O   0  0  0  0  0  0  0  0  0  0  0  0
   41.5140   29.1140   42.2500 H   0  0  0  0  0  0  0  0  0  0  0  0
  2  5  1  0  0  0  0
  2  1  2  1  0  0  0
  3  2  1  0  0  0  0
  4  3  1  0  0  0  0
  5  8  1  0  0  0  0
  6 11  1  0  0  0  0
  6 12  1  0  0  0  0
  7  6  2  0  0  0  0
  8  9  2  0  0  0  0
  8  7  1  0  0  0  0
  9 10  1  0  0  0  0
 10 14  1  0  0  0  0
 10 11  2  0  0  0  0
 13  7  1  0  0  0  0
 15  2  1  0  0  0  0
 16 23  1  1  0  0  0
 16 17  1  0  0  0  0
 17 15  1  6  0  0  0
 18 17  1  0  0  0  0
 18 19  1  0  0  0  0
 20 18  1  0  0  0  0
 21 20  1  0  0  0  0
 21 16  1  0  0  0  0
 22 21  1  0  0  0  0
 24 23  1  0  0  0  0
M  END
>  <minimizedAffinity>
-4.85668278

>  <minimizedRMSD>
2.29833317

$$$$
