
 OpenBabel03272502263D

 40 43  0  0  1  0  0  0  0  0999 V2000
   37.6950   30.2820   51.0150 C   0  0  0  0  0  0  0  0  0  0  0  0
   38.1630   30.8430   49.8190 C   0  0  0  0  0  0  0  0  0  0  0  0
   37.4540   30.5760   48.6700 C   0  0  0  0  0  0  0  0  0  0  0  0
   36.3690   29.8010   48.7700 N   0  0  0  0  0  0  0  0  0  0  0  0
   35.9230   29.2630   49.9250 C   0  0  0  0  0  0  0  0  0  0  0  0
   36.6010   29.5130   51.0480 N   0  0  0  0  0  0  0  0  0  0  0  0
   38.2620   30.4990   51.9120 H   0  0  0  0  0  0  0  0  0  0  0  0
   39.0440   31.4680   49.7620 H   0  0  0  0  0  0  0  0  0  0  0  0
   37.8280   31.0970   47.3710 C   0  0  0  0  0  0  0  0  0  0  0  0
   37.1010   30.7550   46.2310 C   0  0  0  0  0  0  0  0  0  0  0  0
   37.4120   31.2220   44.9770 C   0  0  0  0  0  0  0  0  0  0  0  0
   38.4710   32.0510   44.8260 N   0  0  0  0  0  0  0  0  0  0  0  0
   39.1600   32.3700   45.9340 C   0  0  0  0  0  0  0  0  0  0  0  0
   38.8740   31.9250   47.1720 N   0  0  0  0  0  0  0  0  0  0  0  0
   36.2590   30.0950   46.3520 H   0  0  0  0  0  0  0  0  0  0  0  0
   36.7980   30.9120   44.1320 H   0  0  0  0  0  0  0  0  0  0  0  0
   40.3280   33.2790   45.8030 C   0  0  0  0  0  0  0  0  0  0  0  0
   40.4210   34.0170   47.0060 F   0  0  0  0  0  0  0  0  0  0  0  0
   41.4770   32.5930   45.5590 F   0  0  0  0  0  0  0  0  0  0  0  0
   40.1230   34.2390   44.8250 F   0  0  0  0  0  0  0  0  0  0  0  0
   34.7810   28.4820   49.8530 O   0  0  0  0  0  0  0  0  0  0  0  0
   33.5360   26.7900   46.8450 N   0  0  0  0  0  0  0  0  0  0  0  0
   34.0910   26.8990   48.0590 C   0  0  0  0  0  0  0  0  0  0  0  0
   34.2400   28.1580   48.6270 C   0  0  0  0  0  0  0  0  0  0  0  0
   33.8110   29.2670   47.9210 C   0  0  0  0  0  0  0  0  0  0  0  0
   33.8520   30.4870   48.2520 O   0  0  0  0  0  0  0  0  0  0  0  0
   33.2550   29.0920   46.6910 N   0  0  0  0  0  0  0  0  0  0  0  0
   33.1170   27.8710   46.1540 C   0  0  0  0  0  0  0  0  0  0  0  0
   32.6070   27.6630   45.0180 O   0  0  0  0  0  0  0  0  0  0  0  0
   33.4570   25.8160   46.4810 H   0  0  0  0  0  0  0  0  0  0  0  0
   34.4450   26.0970   48.6630 H   0  0  0  0  0  0  0  0  0  0  0  0
   31.2960   30.3760   45.9050 C   0  0  1  0  0  0  0  0  0  0  0  0
   32.7720   30.1660   45.8650 C   0  0  2  0  0  0  0  0  0  0  0  0
   33.1110   30.0170   44.4110 C   0  0  0  0  0  0  0  0  0  0  0  0
   33.5410   30.9700   44.0260 H   0  0  0  0  0  0  0  0  0  0  0  0
   31.9260   29.8370   43.7260 O   0  0  0  0  0  0  0  0  0  0  0  0
   30.9250   30.4610   44.4470 C   0  0  0  0  0  0  0  0  0  0  0  0
   30.8680   31.5020   44.0670 H   0  0  0  0  0  0  0  0  0  0  0  0
   30.5820   29.4440   46.6170 O   0  0  0  0  0  0  0  0  0  0  0  0
   29.7880   29.0850   46.1480 H   0  0  0  0  0  0  0  0  0  0  0  0
  1  6  1  0  0  0  0
  1  7  1  0  0  0  0
  2  1  2  0  0  0  0
  3  4  2  0  0  0  0
  3  2  1  0  0  0  0
  4  5  1  0  0  0  0
  5  6  2  0  0  0  0
  8  2  1  0  0  0  0
  9  3  1  0  0  0  0
 10 15  1  0  0  0  0
 10  9  2  0  0  0  0
 11 10  1  0  0  0  0
 12 11  2  0  0  0  0
 12 13  1  0  0  0  0
 13 14  2  0  0  0  0
 14  9  1  0  0  0  0
 16 11  1  0  0  0  0
 17 13  1  0  0  0  0
 17 18  1  0  0  0  0
 19 17  1  0  0  0  0
 20 17  1  0  0  0  0
 21  5  1  0  0  0  0
 22 23  1  0  0  0  0
 23 24  2  0  0  0  0
 23 31  1  0  0  0  0
 24 21  1  0  0  0  0
 25 26  2  0  0  0  0
 25 24  1  0  0  0  0
 27 25  1  0  0  0  0
 28 27  1  0  0  0  0
 28 22  1  0  0  0  0
 29 28  2  0  0  0  0
 30 22  1  0  0  0  0
 32 39  1  6  0  0  0
 33 32  1  0  0  0  0
 33 27  1  1  0  0  0
 34 33  1  0  0  0  0
 35 34  1  0  0  0  0
 36 34  1  0  0  0  0
 36 37  1  0  0  0  0
 37 32  1  0  0  0  0
 38 37  1  0  0  0  0
 40 39  1  0  0  0  0
M  END
>  <minimizedAffinity>
-6.94848013

>  <minimizedRMSD>
1.00892949

$$$$
