
 OpenBabel03262521433D

 30 32  0  0  1  0  0  0  0  0999 V2000
   38.9110   25.9410   34.8690 C   0  0  1  0  0  0  0  0  0  0  0  0
   38.2480   26.5940   33.6500 C   0  0  2  0  0  0  0  0  0  0  0  0
   37.0850   27.2030   34.4010 C   0  0  0  0  0  0  0  0  0  0  0  0
   37.6350   27.7600   35.5460 O   0  0  0  0  0  0  0  0  0  0  0  0
   38.8280   27.1510   35.8180 C   0  0  0  0  0  0  0  0  0  0  0  0
   39.9620   25.7070   34.6340 H   0  0  0  0  0  0  0  0  0  0  0  0
   38.9240   27.3870   33.2910 H   0  0  0  0  0  0  0  0  0  0  0  0
   36.5570   27.9540   33.7820 H   0  0  0  0  0  0  0  0  0  0  0  0
   36.3540   26.4460   34.7210 H   0  0  0  0  0  0  0  0  0  0  0  0
   38.8370   26.7840   36.8690 H   0  0  0  0  0  0  0  0  0  0  0  0
   39.7110   27.8240   35.6620 H   0  0  0  0  0  0  0  0  0  0  0  0
   37.8650   25.6090   32.6330 C   0  0  0  0  0  0  0  0  0  0  0  0
   38.8480   24.8680   31.9610 C   0  0  0  0  0  0  0  0  0  0  0  0
   38.4150   23.9630   30.9880 C   0  0  0  0  0  0  0  0  0  0  0  0
   37.0710   23.8490   30.7470 N   0  0  0  0  0  0  0  0  0  0  0  0
   36.1380   24.5890   31.4230 C   0  0  0  0  0  0  0  0  0  0  0  0
   36.5540   25.4680   32.3670 N   0  0  0  0  0  0  0  0  0  0  0  0
   39.8950   24.9790   32.1710 H   0  0  0  0  0  0  0  0  0  0  0  0
   39.1040   23.3500   30.4220 H   0  0  0  0  0  0  0  0  0  0  0  0
   35.1010   24.4300   31.1620 H   0  0  0  0  0  0  0  0  0  0  0  0
   38.1580   24.9580   35.4120 O   0  0  0  0  0  0  0  0  0  0  0  0
   38.7630   23.5350   37.1860 C   0  0  2  0  0  3  0  0  0  0  0  0
   38.7640   23.7610   35.6800 C   0  0  2  0  0  3  0  0  0  0  0  0
   40.2560   23.7700   35.4250 C   0  0  0  0  0  3  0  0  0  0  0  0
   40.5260   23.6190   34.3810 H   0  0  0  0  0  0  0  0  0  0  0  0
   40.6600   22.6470   36.1550 O   0  0  0  0  0  0  0  0  0  0  0  0
   40.0080   22.7000   37.3720 C   0  0  0  0  0  3  0  0  0  0  0  0
   39.7780   21.6870   37.7420 H   0  0  0  0  0  0  0  0  0  0  0  0
   37.6430   22.8200   37.5550 O   0  0  0  0  0  0  0  0  0  0  0  0
   37.4370   23.0560   38.5010 H   0  0  0  0  0  0  0  0  0  0  0  0
  1  6  1  6  0  0  0
  1 21  1  0  0  0  0
  1  5  1  0  0  0  0
  2  7  1  6  0  0  0
  2  3  1  0  0  0  0
  2  1  1  0  0  0  0
  3  9  1  0  0  0  0
  3  4  1  0  0  0  0
  4  5  1  0  0  0  0
  5 10  1  0  0  0  0
  8  3  1  0  0  0  0
 11  5  1  0  0  0  0
 12  2  1  0  0  0  0
 13 18  1  0  0  0  0
 13 12  2  0  0  0  0
 14 13  1  0  0  0  0
 15 14  2  0  0  0  0
 15 16  1  0  0  0  0
 16 17  2  0  0  0  0
 17 12  1  0  0  0  0
 19 14  1  0  0  0  0
 20 16  1  0  0  0  0
 22 27  1  0  0  0  0
 22 29  1  6  0  0  0
 23 21  1  1  0  0  0
 23 22  1  0  0  0  0
 24 23  1  0  0  0  0
 24 26  1  0  0  0  0
 25 24  1  0  0  0  0
 26 27  1  0  0  0  0
 27 28  1  0  0  0  0
 29 30  1  0  0  0  0
M  END
>  <minimizedAffinity>
-4.50511646

$$$$

 OpenBabel03262521433D

 30 32  0  0  1  0  0  0  0  0999 V2000
   38.5170   23.6060   36.1320 C   0  0  1  0  0  0  0  0  0  0  0  0
   39.5140   22.5320   36.5860 C   0  0  2  0  0  0  0  0  0  0  0  0
   39.5560   22.9490   38.0390 C   0  0  0  0  0  0  0  0  0  0  0  0
   38.2360   23.1740   38.3980 O   0  0  0  0  0  0  0  0  0  0  0  0
   37.4990   23.4320   37.2750 C   0  0  0  0  0  0  0  0  0  0  0  0
   38.0700   23.3080   35.1700 H   0  0  0  0  0  0  0  0  0  0  0  0
   39.0150   21.5540   36.4870 H   0  0  0  0  0  0  0  0  0  0  0  0
   40.0330   22.1700   38.6660 H   0  0  0  0  0  0  0  0  0  0  0  0
   40.1040   23.8920   38.1860 H   0  0  0  0  0  0  0  0  0  0  0  0
   36.9350   24.3840   37.4010 H   0  0  0  0  0  0  0  0  0  0  0  0
   36.7750   22.6140   37.0260 H   0  0  0  0  0  0  0  0  0  0  0  0
   40.7990   22.6380   35.8860 C   0  0  0  0  0  0  0  0  0  0  0  0
   41.9750   22.8960   36.6050 C   0  0  0  0  0  0  0  0  0  0  0  0
   43.1610   23.0070   35.8740 C   0  0  0  0  0  0  0  0  0  0  0  0
   43.1120   22.8600   34.5120 N   0  0  0  0  0  0  0  0  0  0  0  0
   41.9430   22.6080   33.8430 C   0  0  0  0  0  0  0  0  0  0  0  0
   40.7920   22.5000   34.5480 N   0  0  0  0  0  0  0  0  0  0  0  0
   41.9840   23.0070   37.6730 H   0  0  0  0  0  0  0  0  0  0  0  0
   44.1150   23.2040   36.3460 H   0  0  0  0  0  0  0  0  0  0  0  0
   42.0050   22.5090   32.7680 H   0  0  0  0  0  0  0  0  0  0  0  0
   39.0140   24.8590   36.2300 O   0  0  0  0  0  0  0  0  0  0  0  0
   37.8530   26.8270   35.6690 C   0  0  2  0  0  3  0  0  0  0  0  0
   38.7860   25.7210   35.1930 C   0  0  2  0  0  3  0  0  0  0  0  0
   37.9340   25.1270   34.0920 C   0  0  0  0  0  3  0  0  0  0  0  0
   38.4900   24.5070   33.3910 H   0  0  0  0  0  0  0  0  0  0  0  0
   37.5130   26.2830   33.4240 O   0  0  0  0  0  0  0  0  0  0  0  0
   37.1330   27.1920   34.3920 C   0  0  0  0  0  3  0  0  0  0  0  0
   37.3510   28.2250   34.0730 H   0  0  0  0  0  0  0  0  0  0  0  0
   38.5890   27.8980   36.1310 O   0  0  0  0  0  0  0  0  0  0  0  0
   38.0300   28.3780   36.8010 H   0  0  0  0  0  0  0  0  0  0  0  0
  1  6  1  6  0  0  0
  1 21  1  0  0  0  0
  1  2  1  0  0  0  0
  1  5  1  0  0  0  0
  2  7  1  6  0  0  0
  2  3  1  0  0  0  0
  3  9  1  0  0  0  0
  3  4  1  0  0  0  0
  3  8  1  0  0  0  0
  5 10  1  0  0  0  0
  5  4  1  0  0  0  0
 11  5  1  0  0  0  0
 12  2  1  0  0  0  0
 12 13  1  0  0  0  0
 13 18  1  0  0  0  0
 14 19  1  0  0  0  0
 14 13  2  0  0  0  0
 15 14  1  0  0  0  0
 16 15  2  0  0  0  0
 16 17  1  0  0  0  0
 17 12  2  0  0  0  0
 20 16  1  0  0  0  0
 22 29  1  6  0  0  0
 23 22  1  0  0  0  0
 23 21  1  1  0  0  0
 24 23  1  0  0  0  0
 25 24  1  0  0  0  0
 26 24  1  0  0  0  0
 26 27  1  0  0  0  0
 27 22  1  0  0  0  0
 28 27  1  0  0  0  0
 29 30  1  0  0  0  0
M  END
>  <minimizedAffinity>
-4.48462534

$$$$

 OpenBabel03262521433D

 30 32  0  0  1  0  0  0  0  0999 V2000
   38.1280   24.0120   36.2020 C   0  0  1  0  0  0  0  0  0  0  0  0
   38.6530   22.5710   36.2550 C   0  0  2  0  0  0  0  0  0  0  0  0
   39.6110   22.7860   37.4050 C   0  0  0  0  0  0  0  0  0  0  0  0
   38.9060   23.5330   38.3380 O   0  0  0  0  0  0  0  0  0  0  0  0
   37.8860   24.1950   37.7120 C   0  0  0  0  0  0  0  0  0  0  0  0
   37.1730   24.0340   35.6530 H   0  0  0  0  0  0  0  0  0  0  0  0
   37.8180   21.9260   36.5730 H   0  0  0  0  0  0  0  0  0  0  0  0
   39.9620   21.8210   37.8210 H   0  0  0  0  0  0  0  0  0  0  0  0
   40.4920   23.3740   37.1100 H   0  0  0  0  0  0  0  0  0  0  0  0
   37.9320   25.2810   37.9530 H   0  0  0  0  0  0  0  0  0  0  0  0
   36.8740   23.8050   37.9900 H   0  0  0  0  0  0  0  0  0  0  0  0
   39.2950   22.1690   34.9980 C   0  0  0  0  0  0  0  0  0  0  0  0
   38.5160   21.8750   33.8690 C   0  0  0  0  0  0  0  0  0  0  0  0
   39.1910   21.4770   32.7120 C   0  0  0  0  0  0  0  0  0  0  0  0
   40.5580   21.3950   32.7420 N   0  0  0  0  0  0  0  0  0  0  0  0
   41.2870   21.6900   33.8640 C   0  0  0  0  0  0  0  0  0  0  0  0
   40.6370   22.0760   34.9880 N   0  0  0  0  0  0  0  0  0  0  0  0
   37.4450   21.9490   33.8750 H   0  0  0  0  0  0  0  0  0  0  0  0
   38.6700   21.2330   31.7950 H   0  0  0  0  0  0  0  0  0  0  0  0
   42.3610   21.5950   33.7910 H   0  0  0  0  0  0  0  0  0  0  0  0
   39.0780   24.9030   35.8410 O   0  0  0  0  0  0  0  0  0  0  0  0
   37.8660   26.9160   35.7120 C   0  0  2  0  0  3  0  0  0  0  0  0
   38.7240   25.8990   34.9720 C   0  0  2  0  0  3  0  0  0  0  0  0
   37.7350   25.4540   33.9160 C   0  0  0  0  0  3  0  0  0  0  0  0
   38.1940   24.9440   33.0700 H   0  0  0  0  0  0  0  0  0  0  0  0
   37.2390   26.6860   33.4750 O   0  0  0  0  0  0  0  0  0  0  0  0
   36.9910   27.4470   34.6010 C   0  0  0  0  0  3  0  0  0  0  0  0
   37.1720   28.5170   34.4040 H   0  0  0  0  0  0  0  0  0  0  0  0
   38.6610   27.9220   36.2220 O   0  0  0  0  0  0  0  0  0  0  0  0
   38.1940   28.2960   37.0180 H   0  0  0  0  0  0  0  0  0  0  0  0
  1  6  1  6  0  0  0
  1  2  1  0  0  0  0
  1  5  1  0  0  0  0
  2  7  1  1  0  0  0
  2  3  1  0  0  0  0
  3  8  1  0  0  0  0
  3  4  1  0  0  0  0
  5 10  1  0  0  0  0
  5 11  1  0  0  0  0
  5  4  1  0  0  0  0
  9  3  1  0  0  0  0
 12  2  1  0  0  0  0
 13 18  1  0  0  0  0
 13 12  2  0  0  0  0
 14 15  2  0  0  0  0
 14 13  1  0  0  0  0
 15 16  1  0  0  0  0
 16 17  2  0  0  0  0
 17 12  1  0  0  0  0
 19 14  1  0  0  0  0
 20 16  1  0  0  0  0
 21  1  1  0  0  0  0
 22 29  1  6  0  0  0
 23 22  1  0  0  0  0
 23 21  1  1  0  0  0
 24 23  1  0  0  0  0
 25 24  1  0  0  0  0
 26 24  1  0  0  0  0
 26 27  1  0  0  0  0
 27 22  1  0  0  0  0
 28 27  1  0  0  0  0
 29 30  1  0  0  0  0
M  END
>  <minimizedAffinity>
-4.45749521

$$$$

 OpenBabel03262521433D

 30 32  0  0  1  0  0  0  0  0999 V2000
   37.6620   24.0700   37.0880 C   0  0  1  0  0  0  0  0  0  0  0  0
   38.2390   22.6530   36.9800 C   0  0  2  0  0  0  0  0  0  0  0  0
   39.5100   22.9330   37.7510 C   0  0  0  0  0  0  0  0  0  0  0  0
   39.1170   23.6740   38.8550 O   0  0  0  0  0  0  0  0  0  0  0  0
   37.9200   24.2800   38.5920 C   0  0  0  0  0  0  0  0  0  0  0  0
   36.5800   24.0410   36.8830 H   0  0  0  0  0  0  0  0  0  0  0  0
   37.5840   21.9840   37.5610 H   0  0  0  0  0  0  0  0  0  0  0  0
   40.0210   21.9930   38.0380 H   0  0  0  0  0  0  0  0  0  0  0  0
   40.2190   23.5480   37.1760 H   0  0  0  0  0  0  0  0  0  0  0  0
   37.9940   25.3720   38.7930 H   0  0  0  0  0  0  0  0  0  0  0  0
   37.0730   23.8580   39.1910 H   0  0  0  0  0  0  0  0  0  0  0  0
   38.4520   22.2450   35.5870 C   0  0  0  0  0  0  0  0  0  0  0  0
   39.7420   22.2540   35.0370 C   0  0  0  0  0  0  0  0  0  0  0  0
   39.8700   21.8750   33.6980 C   0  0  0  0  0  0  0  0  0  0  0  0
   38.7440   21.5210   33.0040 N   0  0  0  0  0  0  0  0  0  0  0  0
   37.4980   21.5240   33.5730 C   0  0  0  0  0  0  0  0  0  0  0  0
   37.3700   21.8900   34.8710 N   0  0  0  0  0  0  0  0  0  0  0  0
   40.6080   22.5360   35.6060 H   0  0  0  0  0  0  0  0  0  0  0  0
   40.8270   21.8510   33.1940 H   0  0  0  0  0  0  0  0  0  0  0  0
   36.6690   21.2290   32.9440 H   0  0  0  0  0  0  0  0  0  0  0  0
   38.4000   24.9890   36.4260 O   0  0  0  0  0  0  0  0  0  0  0  0
   38.3680   25.6720   34.1740 C   0  0  2  0  0  3  0  0  0  0  0  0
   37.7530   25.8260   35.5590 C   0  0  2  0  0  3  0  0  0  0  0  0
   38.0440   27.2910   35.8040 C   0  0  0  0  0  3  0  0  0  0  0  0
   37.4460   27.7310   36.6010 H   0  0  0  0  0  0  0  0  0  0  0  0
   37.6430   27.8520   34.5870 O   0  0  0  0  0  0  0  0  0  0  0  0
   38.1460   27.0450   33.5850 C   0  0  0  0  0  3  0  0  0  0  0  0
   37.4670   27.0200   32.7170 H   0  0  0  0  0  0  0  0  0  0  0  0
   37.6770   24.7200   33.4540 O   0  0  0  0  0  0  0  0  0  0  0  0
   38.3080   24.3340   32.7870 H   0  0  0  0  0  0  0  0  0  0  0  0
  1  6  1  6  0  0  0
  1  5  1  0  0  0  0
  2  1  1  0  0  0  0
  2  7  1  1  0  0  0
  2  3  1  0  0  0  0
  3  8  1  0  0  0  0
  3  4  1  0  0  0  0
  5 10  1  0  0  0  0
  5  4  1  0  0  0  0
  5 11  1  0  0  0  0
  9  3  1  0  0  0  0
 12  2  1  0  0  0  0
 13 12  1  0  0  0  0
 13 18  1  0  0  0  0
 14 13  2  0  0  0  0
 15 16  2  0  0  0  0
 15 14  1  0  0  0  0
 16 17  1  0  0  0  0
 17 12  2  0  0  0  0
 19 14  1  0  0  0  0
 20 16  1  0  0  0  0
 21  1  1  0  0  0  0
 22 29  1  6  0  0  0
 22 23  1  0  0  0  0
 23 24  1  0  0  0  0
 23 21  1  1  0  0  0
 24 25  1  0  0  0  0
 26 24  1  0  0  0  0
 27 22  1  0  0  0  0
 27 26  1  0  0  0  0
 28 27  1  0  0  0  0
 30 29  1  0  0  0  0
M  END
>  <minimizedAffinity>
-4.29427958

$$$$

 OpenBabel03262521433D

 30 32  0  0  1  0  0  0  0  0999 V2000
   37.3410   25.9150   34.4260 C   0  0  1  0  0  0  0  0  0  0  0  0
   38.1450   25.7320   35.7190 C   0  0  2  0  0  0  0  0  0  0  0  0
   38.8700   27.0570   35.6510 C   0  0  0  0  0  0  0  0  0  0  0  0
   37.9040   27.9900   35.3030 O   0  0  0  0  0  0  0  0  0  0  0  0
   36.8630   27.3550   34.6860 C   0  0  0  0  0  0  0  0  0  0  0  0
   36.4850   25.2190   34.4250 H   0  0  0  0  0  0  0  0  0  0  0  0
   37.4290   25.7350   36.5570 H   0  0  0  0  0  0  0  0  0  0  0  0
   39.3570   27.2990   36.6160 H   0  0  0  0  0  0  0  0  0  0  0  0
   39.6400   27.0710   34.8650 H   0  0  0  0  0  0  0  0  0  0  0  0
   36.6460   27.8430   33.7090 H   0  0  0  0  0  0  0  0  0  0  0  0
   35.9270   27.3460   35.3010 H   0  0  0  0  0  0  0  0  0  0  0  0
   39.0220   24.5570   35.6650 C   0  0  0  0  0  0  0  0  0  0  0  0
   38.5390   23.2970   36.0490 C   0  0  0  0  0  0  0  0  0  0  0  0
   39.4340   22.2250   35.9940 C   0  0  0  0  0  0  0  0  0  0  0  0
   40.7170   22.4590   35.5750 N   0  0  0  0  0  0  0  0  0  0  0  0
   41.1540   23.7040   35.2080 C   0  0  0  0  0  0  0  0  0  0  0  0
   40.2900   24.7460   35.2590 N   0  0  0  0  0  0  0  0  0  0  0  0
   37.5270   23.1430   36.3730 H   0  0  0  0  0  0  0  0  0  0  0  0
   39.1470   21.2190   36.2700 H   0  0  0  0  0  0  0  0  0  0  0  0
   42.1850   23.7890   34.8920 H   0  0  0  0  0  0  0  0  0  0  0  0
   38.1210   25.9480   33.3230 O   0  0  0  0  0  0  0  0  0  0  0  0
   36.4810   25.7600   31.6450 C   0  0  2  0  0  3  0  0  0  0  0  0
   37.7510   25.1790   32.2530 C   0  0  2  0  0  3  0  0  0  0  0  0
   37.2410   23.8080   32.6430 C   0  0  0  0  0  3  0  0  0  0  0  0
   38.0300   23.0820   32.8320 H   0  0  0  0  0  0  0  0  0  0  0  0
   36.5610   23.4330   31.4800 O   0  0  0  0  0  0  0  0  0  0  0  0
   35.8220   24.5270   31.0730 C   0  0  0  0  0  3  0  0  0  0  0  0
   35.7470   24.5680   29.9740 H   0  0  0  0  0  0  0  0  0  0  0  0
   36.8030   26.6470   30.6390 O   0  0  0  0  0  0  0  0  0  0  0  0
   36.0570   27.3030   30.5690 H   0  0  0  0  0  0  0  0  0  0  0  0
  1  6  1  6  0  0  0
  1  5  1  0  0  0  0
  1  2  1  0  0  0  0
  2  7  1  1  0  0  0
  3  2  1  0  0  0  0
  3  8  1  0  0  0  0
  4  3  1  0  0  0  0
  5 11  1  0  0  0  0
  5  4  1  0  0  0  0
  9  3  1  0  0  0  0
 10  5  1  0  0  0  0
 12  2  1  0  0  0  0
 12 13  1  0  0  0  0
 13 18  1  0  0  0  0
 14 13  2  0  0  0  0
 14 19  1  0  0  0  0
 15 14  1  0  0  0  0
 16 17  1  0  0  0  0
 16 15  2  0  0  0  0
 17 12  2  0  0  0  0
 20 16  1  0  0  0  0
 21  1  1  0  0  0  0
 22 29  1  6  0  0  0
 22 23  1  0  0  0  0
 23 24  1  0  0  0  0
 23 21  1  1  0  0  0
 24 25  1  0  0  0  0
 26 24  1  0  0  0  0
 27 26  1  0  0  0  0
 27 22  1  0  0  0  0
 28 27  1  0  0  0  0
 30 29  1  0  0  0  0
M  END
>  <minimizedAffinity>
-4.23259211

$$$$

 OpenBabel03262521433D

 30 32  0  0  1  0  0  0  0  0999 V2000
   37.3700   25.2620   31.7710 C   0  0  1  0  0  0  0  0  0  0  0  0
   36.6070   24.2300   30.9300 C   0  0  2  0  0  0  0  0  0  0  0  0
   35.2620   24.9180   31.0050 C   0  0  0  0  0  0  0  0  0  0  0  0
   35.5210   26.2620   30.7810 O   0  0  0  0  0  0  0  0  0  0  0  0
   36.8290   26.5270   31.0780 C   0  0  0  0  0  0  0  0  0  0  0  0
   38.4520   25.1550   31.5890 H   0  0  0  0  0  0  0  0  0  0  0  0
   37.0020   24.2830   29.9030 H   0  0  0  0  0  0  0  0  0  0  0  0
   34.5550   24.4990   30.2630 H   0  0  0  0  0  0  0  0  0  0  0  0
   34.8050   24.8320   32.0020 H   0  0  0  0  0  0  0  0  0  0  0  0
   36.8930   27.3800   31.7910 H   0  0  0  0  0  0  0  0  0  0  0  0
   37.4460   26.7650   30.1740 H   0  0  0  0  0  0  0  0  0  0  0  0
   36.6380   22.8930   31.5320 C   0  0  0  0  0  0  0  0  0  0  0  0
   35.4460   22.2630   31.9180 C   0  0  0  0  0  0  0  0  0  0  0  0
   35.5500   20.9990   32.5050 C   0  0  0  0  0  0  0  0  0  0  0  0
   36.7940   20.4500   32.6700 N   0  0  0  0  0  0  0  0  0  0  0  0
   37.9380   21.0940   32.2810 C   0  0  0  0  0  0  0  0  0  0  0  0
   37.8420   22.3200   31.7110 N   0  0  0  0  0  0  0  0  0  0  0  0
   34.4840   22.7180   31.7760 H   0  0  0  0  0  0  0  0  0  0  0  0
   34.6820   20.4410   32.8320 H   0  0  0  0  0  0  0  0  0  0  0  0
   38.8740   20.5810   32.4530 H   0  0  0  0  0  0  0  0  0  0  0  0
   36.9530   25.3040   33.0560 O   0  0  0  0  0  0  0  0  0  0  0  0
   38.1800   24.2990   34.7940 C   0  0  2  0  0  3  0  0  0  0  0  0
   37.8820   25.5770   34.0220 C   0  0  2  0  0  3  0  0  0  0  0  0
   37.3470   26.4350   35.1480 C   0  0  0  0  0  3  0  0  0  0  0  0
   37.3370   27.5010   34.9230 H   0  0  0  0  0  0  0  0  0  0  0  0
   38.3030   26.2010   36.1420 O   0  0  0  0  0  0  0  0  0  0  0  0
   38.5460   24.8410   36.1560 C   0  0  0  0  0  3  0  0  0  0  0  0
   39.5960   24.6290   36.4190 H   0  0  0  0  0  0  0  0  0  0  0  0
   39.2560   23.6460   34.2290 O   0  0  0  0  0  0  0  0  0  0  0  0
   39.1600   22.6770   34.4380 H   0  0  0  0  0  0  0  0  0  0  0  0
  1  6  1  6  0  0  0
  1 21  1  0  0  0  0
  2  7  1  6  0  0  0
  2  3  1  0  0  0  0
  2 12  1  0  0  0  0
  2  1  1  0  0  0  0
  3  9  1  0  0  0  0
  4  3  1  0  0  0  0
  4  5  1  0  0  0  0
  5  1  1  0  0  0  0
  5 10  1  0  0  0  0
  8  3  1  0  0  0  0
 11  5  1  0  0  0  0
 12 17  2  0  0  0  0
 12 13  1  0  0  0  0
 13 14  2  0  0  0  0
 14 15  1  0  0  0  0
 14 19  1  0  0  0  0
 16 20  1  0  0  0  0
 16 15  2  0  0  0  0
 17 16  1  0  0  0  0
 18 13  1  0  0  0  0
 22 29  1  6  0  0  0
 22 27  1  0  0  0  0
 23 21  1  6  0  0  0
 23 22  1  0  0  0  0
 23 24  1  0  0  0  0
 24 26  1  0  0  0  0
 25 24  1  0  0  0  0
 26 27  1  0  0  0  0
 27 28  1  0  0  0  0
 29 30  1  0  0  0  0
M  END
>  <minimizedAffinity>
-4.19331264

$$$$

 OpenBabel03262521433D

 30 32  0  0  1  0  0  0  0  0999 V2000
   39.6180   24.8640   33.9760 C   0  0  1  0  0  0  0  0  0  0  0  0
   38.3080   24.5450   34.7080 C   0  0  2  0  0  0  0  0  0  0  0  0
   37.7090   25.9280   34.5840 C   0  0  0  0  0  0  0  0  0  0  0  0
   37.9480   26.3180   33.2750 O   0  0  0  0  0  0  0  0  0  0  0  0
   39.0040   25.6060   32.7750 C   0  0  0  0  0  0  0  0  0  0  0  0
   40.0920   23.9240   33.6470 H   0  0  0  0  0  0  0  0  0  0  0  0
   37.7460   23.8310   34.0850 H   0  0  0  0  0  0  0  0  0  0  0  0
   36.6280   25.9210   34.8280 H   0  0  0  0  0  0  0  0  0  0  0  0
   38.2050   26.6580   35.2420 H   0  0  0  0  0  0  0  0  0  0  0  0
   39.7660   26.3000   32.3550 H   0  0  0  0  0  0  0  0  0  0  0  0
   38.7040   24.8750   31.9820 H   0  0  0  0  0  0  0  0  0  0  0  0
   38.5380   24.1050   36.0890 C   0  0  0  0  0  0  0  0  0  0  0  0
   37.8200   24.6870   37.1440 C   0  0  0  0  0  0  0  0  0  0  0  0
   38.1040   24.2360   38.4370 C   0  0  0  0  0  0  0  0  0  0  0  0
   39.0550   23.2640   38.6010 N   0  0  0  0  0  0  0  0  0  0  0  0
   39.7370   22.7180   37.5460 C   0  0  0  0  0  0  0  0  0  0  0  0
   39.4650   23.1520   36.2920 N   0  0  0  0  0  0  0  0  0  0  0  0
   37.0790   25.4470   36.9860 H   0  0  0  0  0  0  0  0  0  0  0  0
   37.5980   24.6280   39.3090 H   0  0  0  0  0  0  0  0  0  0  0  0
   40.4700   21.9570   37.7760 H   0  0  0  0  0  0  0  0  0  0  0  0
   40.3880   25.7530   34.6420 O   0  0  0  0  0  0  0  0  0  0  0  0
   42.4620   26.3440   33.6990 C   0  0  2  0  0  3  0  0  0  0  0  0
   41.7290   25.4970   34.7320 C   0  0  2  0  0  3  0  0  0  0  0  0
   42.1140   24.1160   34.2460 C   0  0  0  0  0  3  0  0  0  0  0  0
   41.9630   23.3310   34.9860 H   0  0  0  0  0  0  0  0  0  0  0  0
   43.4890   24.2750   34.0430 O   0  0  0  0  0  0  0  0  0  0  0  0
   43.6630   25.4810   33.3910 C   0  0  0  0  0  3  0  0  0  0  0  0
   44.6090   25.9610   33.6930 H   0  0  0  0  0  0  0  0  0  0  0  0
   42.8580   27.5380   34.2630 O   0  0  0  0  0  0  0  0  0  0  0  0
   42.9200   28.2090   33.5290 H   0  0  0  0  0  0  0  0  0  0  0  0
  1  6  1  6  0  0  0
  1 21  1  0  0  0  0
  1  2  1  0  0  0  0
  2  7  1  6  0  0  0
  2 12  1  0  0  0  0
  3  2  1  0  0  0  0
  3  8  1  0  0  0  0
  3  9  1  0  0  0  0
  4  3  1  0  0  0  0
  5  4  1  0  0  0  0
  5  1  1  0  0  0  0
 10  5  1  0  0  0  0
 11  5  1  0  0  0  0
 12 17  2  0  0  0  0
 12 13  1  0  0  0  0
 13 14  2  0  0  0  0
 14 15  1  0  0  0  0
 14 19  1  0  0  0  0
 16 20  1  0  0  0  0
 16 15  2  0  0  0  0
 17 16  1  0  0  0  0
 18 13  1  0  0  0  0
 22 29  1  1  0  0  0
 22 23  1  0  0  0  0
 23 21  1  6  0  0  0
 24 23  1  0  0  0  0
 24 25  1  0  0  0  0
 26 24  1  0  0  0  0
 27 28  1  0  0  0  0
 27 22  1  0  0  0  0
 27 26  1  0  0  0  0
 30 29  1  0  0  0  0
M  END
>  <minimizedAffinity>
-4.17133141

$$$$

 OpenBabel03262521433D

 30 32  0  0  1  0  0  0  0  0999 V2000
   37.9110   23.0240   32.5660 C   0  0  1  0  0  0  0  0  0  0  0  0
   36.9470   22.6070   31.4490 C   0  0  2  0  0  0  0  0  0  0  0  0
   35.8950   23.6540   31.7390 C   0  0  0  0  0  0  0  0  0  0  0  0
   36.5940   24.8340   31.9440 O   0  0  0  0  0  0  0  0  0  0  0  0
   37.8800   24.5420   32.3040 C   0  0  0  0  0  0  0  0  0  0  0  0
   38.9140   22.6180   32.3560 H   0  0  0  0  0  0  0  0  0  0  0  0
   37.4410   22.8230   30.4870 H   0  0  0  0  0  0  0  0  0  0  0  0
   35.1700   23.7360   30.9050 H   0  0  0  0  0  0  0  0  0  0  0  0
   35.3350   23.4370   32.6610 H   0  0  0  0  0  0  0  0  0  0  0  0
   38.1420   25.0740   33.2470 H   0  0  0  0  0  0  0  0  0  0  0  0
   38.6290   24.8130   31.5170 H   0  0  0  0  0  0  0  0  0  0  0  0
   36.4850   21.2230   31.6030 C   0  0  0  0  0  0  0  0  0  0  0  0
   35.1410   20.9560   31.9010 C   0  0  0  0  0  0  0  0  0  0  0  0
   34.7740   19.6160   32.0570 C   0  0  0  0  0  0  0  0  0  0  0  0
   35.7330   18.6500   31.9120 N   0  0  0  0  0  0  0  0  0  0  0  0
   37.0380   18.9470   31.6210 C   0  0  0  0  0  0  0  0  0  0  0  0
   37.3990   20.2440   31.4690 N   0  0  0  0  0  0  0  0  0  0  0  0
   34.4100   21.7350   32.0090 H   0  0  0  0  0  0  0  0  0  0  0  0
   33.7590   19.3190   32.2860 H   0  0  0  0  0  0  0  0  0  0  0  0
   37.7230   18.1160   31.5270 H   0  0  0  0  0  0  0  0  0  0  0  0
   37.4010   22.8240   33.8020 O   0  0  0  0  0  0  0  0  0  0  0  0
   38.0200   22.8770   36.0720 C   0  0  2  0  0  3  0  0  0  0  0  0
   38.1880   22.1890   34.7240 C   0  0  2  0  0  3  0  0  0  0  0  0
   39.6690   22.4120   34.5080 C   0  0  0  0  0  3  0  0  0  0  0  0
   40.1080   21.7590   33.7550 H   0  0  0  0  0  0  0  0  0  0  0  0
   40.1810   22.0510   35.7600 O   0  0  0  0  0  0  0  0  0  0  0  0
   39.3660   22.6340   36.7110 C   0  0  0  0  0  3  0  0  0  0  0  0
   39.2910   21.9990   37.6100 H   0  0  0  0  0  0  0  0  0  0  0  0
   37.0220   22.2590   36.7960 O   0  0  0  0  0  0  0  0  0  0  0  0
   36.6430   22.9360   37.4200 H   0  0  0  0  0  0  0  0  0  0  0  0
  1  6  1  6  0  0  0
  1 21  1  0  0  0  0
  2  7  1  6  0  0  0
  2 12  1  0  0  0  0
  2  3  1  0  0  0  0
  2  1  1  0  0  0  0
  3  4  1  0  0  0  0
  3  9  1  0  0  0  0
  4  5  1  0  0  0  0
  5  1  1  0  0  0  0
  5 10  1  0  0  0  0
  8  3  1  0  0  0  0
 11  5  1  0  0  0  0
 12 13  1  0  0  0  0
 13 18  1  0  0  0  0
 13 14  2  0  0  0  0
 14 19  1  0  0  0  0
 15 14  1  0  0  0  0
 16 15  2  0  0  0  0
 17 12  2  0  0  0  0
 17 16  1  0  0  0  0
 20 16  1  0  0  0  0
 22 27  1  0  0  0  0
 22 29  1  1  0  0  0
 23 21  1  6  0  0  0
 23 22  1  0  0  0  0
 24 23  1  0  0  0  0
 24 26  1  0  0  0  0
 25 24  1  0  0  0  0
 26 27  1  0  0  0  0
 27 28  1  0  0  0  0
 29 30  1  0  0  0  0
M  END
>  <minimizedAffinity>
-4.16655684

$$$$

 OpenBabel03262521433D

 30 32  0  0  1  0  0  0  0  0999 V2000
   36.6090   22.0140   31.6410 C   0  0  1  0  0  0  0  0  0  0  0  0
   37.0160   21.0320   32.7470 C   0  0  2  0  0  0  0  0  0  0  0  0
   35.6140   20.7510   33.2410 C   0  0  0  0  0  0  0  0  0  0  0  0
   34.8490   20.5690   32.0990 O   0  0  0  0  0  0  0  0  0  0  0  0
   35.4620   21.1800   31.0410 C   0  0  0  0  0  0  0  0  0  0  0  0
   37.4340   22.1130   30.9170 H   0  0  0  0  0  0  0  0  0  0  0  0
   37.4320   20.1360   32.2570 H   0  0  0  0  0  0  0  0  0  0  0  0
   35.5930   19.8630   33.9040 H   0  0  0  0  0  0  0  0  0  0  0  0
   35.1880   21.6020   33.7930 H   0  0  0  0  0  0  0  0  0  0  0  0
   34.7490   21.8670   30.5320 H   0  0  0  0  0  0  0  0  0  0  0  0
   35.8660   20.4550   30.2880 H   0  0  0  0  0  0  0  0  0  0  0  0
   37.8980   21.6520   33.7430 C   0  0  0  0  0  0  0  0  0  0  0  0
   39.2310   21.9450   33.4210 C   0  0  0  0  0  0  0  0  0  0  0  0
   40.0210   22.5150   34.4230 C   0  0  0  0  0  0  0  0  0  0  0  0
   39.4590   22.7520   35.6490 N   0  0  0  0  0  0  0  0  0  0  0  0
   38.1520   22.4530   35.9290 C   0  0  0  0  0  0  0  0  0  0  0  0
   37.3820   21.9010   34.9600 N   0  0  0  0  0  0  0  0  0  0  0  0
   39.6450   21.7470   32.4500 H   0  0  0  0  0  0  0  0  0  0  0  0
   41.0590   22.7740   34.2620 H   0  0  0  0  0  0  0  0  0  0  0  0
   37.7980   22.6760   36.9260 H   0  0  0  0  0  0  0  0  0  0  0  0
   36.0620   23.1520   32.1250 O   0  0  0  0  0  0  0  0  0  0  0  0
   36.9000   25.3140   32.5270 C   0  0  2  0  0  3  0  0  0  0  0  0
   36.3690   24.3270   31.4960 C   0  0  2  0  0  3  0  0  0  0  0  0
   35.1520   25.0910   31.0180 C   0  0  0  0  0  3  0  0  0  0  0  0
   34.7570   24.7390   30.0660 H   0  0  0  0  0  0  0  0  0  0  0  0
   35.6920   26.3670   30.8300 O   0  0  0  0  0  0  0  0  0  0  0  0
   36.4830   26.6370   31.9290 C   0  0  0  0  0  3  0  0  0  0  0  0
   37.3500   27.2600   31.6510 H   0  0  0  0  0  0  0  0  0  0  0  0
   38.2750   25.2280   32.5970 O   0  0  0  0  0  0  0  0  0  0  0  0
   38.5460   25.5170   33.5110 H   0  0  0  0  0  0  0  0  0  0  0  0
  1  6  1  6  0  0  0
  1 21  1  0  0  0  0
  1  2  1  0  0  0  0
  2  7  1  6  0  0  0
  2  3  1  0  0  0  0
  2 12  1  0  0  0  0
  3  9  1  0  0  0  0
  3  8  1  0  0  0  0
  4  3  1  0  0  0  0
  5  1  1  0  0  0  0
  5  4  1  0  0  0  0
 10  5  1  0  0  0  0
 11  5  1  0  0  0  0
 12 17  1  0  0  0  0
 13 12  2  0  0  0  0
 13 14  1  0  0  0  0
 14 15  2  0  0  0  0
 15 16  1  0  0  0  0
 16 20  1  0  0  0  0
 17 16  2  0  0  0  0
 18 13  1  0  0  0  0
 19 14  1  0  0  0  0
 22 29  1  6  0  0  0
 23 21  1  1  0  0  0
 23 22  1  0  0  0  0
 24 23  1  0  0  0  0
 25 24  1  0  0  0  0
 26 24  1  0  0  0  0
 26 27  1  0  0  0  0
 27 22  1  0  0  0  0
 28 27  1  0  0  0  0
 29 30  1  0  0  0  0
M  END
>  <minimizedAffinity>
-4.14594507

$$$$
