
 OpenBabel03262521423D

 30 32  0  0  1  0  0  0  0  0999 V2000
   38.2930   32.4500   47.7630 C   0  0  1  0  0  0  0  0  0  0  0  0
   37.4460   32.2430   49.0250 C   0  0  2  0  0  0  0  0  0  0  0  0
   38.5920   32.3280   50.0080 C   0  0  0  0  0  0  0  0  0  0  0  0
   39.3570   33.4070   49.5920 O   0  0  0  0  0  0  0  0  0  0  0  0
   39.1190   33.6470   48.2670 C   0  0  0  0  0  0  0  0  0  0  0  0
   37.6400   32.7560   46.9290 H   0  0  0  0  0  0  0  0  0  0  0  0
   36.7900   33.1220   49.1310 H   0  0  0  0  0  0  0  0  0  0  0  0
   38.2220   32.4510   51.0450 H   0  0  0  0  0  0  0  0  0  0  0  0
   39.2350   31.4360   49.9770 H   0  0  0  0  0  0  0  0  0  0  0  0
   40.0810   33.6800   47.7080 H   0  0  0  0  0  0  0  0  0  0  0  0
   38.5640   34.6030   48.0870 H   0  0  0  0  0  0  0  0  0  0  0  0
   36.7460   30.9530   49.0180 C   0  0  0  0  0  0  0  0  0  0  0  0
   35.7620   30.6890   48.0550 C   0  0  0  0  0  0  0  0  0  0  0  0
   35.1200   29.4490   48.1190 C   0  0  0  0  0  0  0  0  0  0  0  0
   35.4820   28.5710   49.1060 N   0  0  0  0  0  0  0  0  0  0  0  0
   36.4490   28.8630   50.0310 C   0  0  0  0  0  0  0  0  0  0  0  0
   37.0740   30.0630   49.9720 N   0  0  0  0  0  0  0  0  0  0  0  0
   35.4990   31.3970   47.2920 H   0  0  0  0  0  0  0  0  0  0  0  0
   34.3490   29.1600   47.4160 H   0  0  0  0  0  0  0  0  0  0  0  0
   36.6650   28.1060   50.7720 H   0  0  0  0  0  0  0  0  0  0  0  0
   39.1580   31.4360   47.5390 O   0  0  0  0  0  0  0  0  0  0  0  0
   39.8440   32.2600   45.4440 C   0  0  2  0  0  0  0  0  0  0  0  0
   39.3730   31.0520   46.2440 C   0  0  2  0  0  0  0  0  0  0  0  0
   38.1010   30.7300   45.4900 C   0  0  0  0  0  0  0  0  0  0  0  0
   37.7230   29.7250   45.6750 H   0  0  0  0  0  0  0  0  0  0  0  0
   38.5470   30.8000   44.1660 O   0  0  0  0  0  0  0  0  0  0  0  0
   39.3280   31.9350   44.0630 C   0  0  0  0  0  0  0  0  0  0  0  0
   40.1450   31.7880   43.3370 H   0  0  0  0  0  0  0  0  0  0  0  0
   41.2220   32.3180   45.4440 O   0  0  0  0  0  0  0  0  0  0  0  0
   41.4810   33.2730   45.3230 H   0  0  0  0  0  0  0  0  0  0  0  0
  1  6  1  6  0  0  0
  1  5  1  0  0  0  0
  1  2  1  0  0  0  0
  2  7  1  1  0  0  0
  2  3  1  0  0  0  0
  3  8  1  0  0  0  0
  4  3  1  0  0  0  0
  5  4  1  0  0  0  0
  9  3  1  0  0  0  0
 10  5  1  0  0  0  0
 11  5  1  0  0  0  0
 12  2  1  0  0  0  0
 12 17  1  0  0  0  0
 13 14  1  0  0  0  0
 13 12  2  0  0  0  0
 14 15  2  0  0  0  0
 15 16  1  0  0  0  0
 16 20  1  0  0  0  0
 17 16  2  0  0  0  0
 18 13  1  0  0  0  0
 19 14  1  0  0  0  0
 21  1  1  0  0  0  0
 22 29  1  6  0  0  0
 22 23  1  0  0  0  0
 23 21  1  1  0  0  0
 24 25  1  0  0  0  0
 24 23  1  0  0  0  0
 26 24  1  0  0  0  0
 27 26  1  0  0  0  0
 27 22  1  0  0  0  0
 28 27  1  0  0  0  0
 30 29  1  0  0  0  0
M  END
>  <minimizedAffinity>
-4.61511374

>  <minimizedRMSD>
4.17632961

$$$$
