
 OpenBabel03272504193D

 27 28  0  0  1  0  0  0  0  0999 V2000
   37.6370   30.4310   47.3520 O   0  0  0  0  0  0  0  0  0  0  0  0
   37.4380   31.0420   48.7080 P   0  0  2  0  0  0  0  0  0  0  0  0
   38.3650   30.1300   49.8250 O   0  0  0  0  0  0  0  0  0  0  0  0
   38.5810   29.2310   49.4740 H   0  0  0  0  0  0  0  0  0  0  0  0
   35.8050   30.9720   49.1560 O   0  0  0  0  0  0  0  0  0  0  0  0
   35.5250   29.6790   49.5400 C   0  0  0  0  0  0  0  0  0  0  0  0
   36.4230   29.0560   49.7540 H   0  0  0  0  0  0  0  0  0  0  0  0
   34.9770   29.7400   50.5270 H   0  0  0  0  0  0  0  0  0  0  0  0
   34.5890   28.9910   48.6070 C   0  0  0  0  0  0  0  0  0  0  0  0
   34.0410   29.7370   47.5760 C   0  0  0  0  0  0  0  0  0  0  0  0
   33.1670   29.1120   46.6960 C   0  0  0  0  0  0  0  0  0  0  0  0
   32.8920   27.8000   46.8890 N   0  0  0  0  0  0  0  0  0  0  0  0
   33.4380   27.0840   47.9030 C   0  0  0  0  0  0  0  0  0  0  0  0
   34.2920   27.6800   48.7680 N   0  0  0  0  0  0  0  0  0  0  0  0
   34.2460   30.7900   47.4020 H   0  0  0  0  0  0  0  0  0  0  0  0
   32.6910   29.6000   45.8690 H   0  0  0  0  0  0  0  0  0  0  0  0
   33.2050   26.0350   48.0390 H   0  0  0  0  0  0  0  0  0  0  0  0
   37.9710   32.6380   48.6890 O   0  0  0  0  0  0  0  0  0  0  0  0
   39.8910   33.5520   47.7360 C   0  0  2  0  0  3  0  0  0  0  0  0
   39.3410   32.7440   48.8960 C   0  0  1  0  0  3  0  0  0  0  0  0
   39.5990   33.7690   50.0090 C   0  0  0  0  0  3  0  0  0  0  0  0
   39.0900   33.5040   50.9500 H   0  0  0  0  0  0  0  0  0  0  0  0
   39.0500   34.9110   49.4590 O   0  0  0  0  0  0  0  0  0  0  0  0
   39.3750   34.9410   48.1190 C   0  0  0  0  0  3  0  0  0  0  0  0
   40.0800   35.7440   47.8700 H   0  0  0  0  0  0  0  0  0  0  0  0
   39.3210   33.0760   46.5680 O   0  0  0  0  0  0  0  0  0  0  0  0
   39.6490   33.6410   45.8160 H   0  0  0  0  0  0  0  0  0  0  0  0
  2  1  2  6  0  0  0
  2  5  1  0  0  0  0
  2  3  1  0  0  0  0
  4  3  1  0  0  0  0
  5  6  1  0  0  0  0
  6  7  1  0  0  0  0
  6  8  1  0  0  0  0
  9 14  1  0  0  0  0
  9  6  1  0  0  0  0
 10  9  2  0  0  0  0
 11 12  2  0  0  0  0
 11 10  1  0  0  0  0
 12 13  1  0  0  0  0
 13 17  1  0  0  0  0
 13 14  2  0  0  0  0
 15 10  1  0  0  0  0
 16 11  1  0  0  0  0
 18  2  1  0  0  0  0
 19 26  1  6  0  0  0
 19 24  1  0  0  0  0
 19 20  1  0  0  0  0
 20 18  1  6  0  0  0
 20 21  1  0  0  0  0
 21 22  1  0  0  0  0
 23 21  1  0  0  0  0
 24 23  1  0  0  0  0
 25 24  1  0  0  0  0
 27 26  1  0  0  0  0
M  END
>  <minimizedAffinity>
-2.51402283

>  <minimizedRMSD>
1.07084584

$$$$
