
 OpenBabel03272502583D

 34 36  0  0  1  0  0  0  0  0999 V2000
   35.8820   29.7190   48.7700 N   0  0  0  0  0  0  0  0  0  0  0  0
   36.7900   28.9410   49.5770 C   0  0  0  0  0  0  0  0  0  0  0  0
   37.3400   29.5640   50.7800 C   0  0  0  0  0  0  0  0  0  0  0  0
   37.4310   31.0350   50.8410 C   0  0  0  0  0  0  0  0  0  0  0  0
   36.5120   31.7640   49.8830 C   0  0  0  0  0  0  0  0  0  0  0  0
   36.4830   31.0220   48.5630 C   0  0  1  0  0  0  0  0  0  0  0  0
   36.2760   27.9770   49.8040 H   0  0  0  0  0  0  0  0  0  0  0  0
   37.6360   28.6580   48.9020 H   0  0  0  0  0  0  0  0  0  0  0  0
   36.7360   29.2010   51.6520 H   0  0  0  0  0  0  0  0  0  0  0  0
   38.3590   29.1490   50.9810 H   0  0  0  0  0  0  0  0  0  0  0  0
   37.1600   31.4100   51.8500 H   0  0  0  0  0  0  0  0  0  0  0  0
   38.4690   31.4090   50.6690 H   0  0  0  0  0  0  0  0  0  0  0  0
   36.9320   32.7790   49.7410 H   0  0  0  0  0  0  0  0  0  0  0  0
   35.4890   31.8930   50.2560 H   0  0  0  0  0  0  0  0  0  0  0  0
   35.9780   31.6040   47.7770 H   0  0  0  0  0  0  0  0  0  0  0  0
   34.6270   29.2710   48.2770 C   0  0  0  0  0  0  0  0  0  0  0  0
   34.0590   29.7040   47.0680 C   0  0  0  0  0  0  0  0  0  0  0  0
   32.8210   29.1890   46.6980 C   0  0  0  0  0  0  0  0  0  0  0  0
   32.2360   28.2870   47.5410 N   0  0  0  0  0  0  0  0  0  0  0  0
   32.8110   27.9000   48.6840 C   0  0  0  0  0  0  0  0  0  0  0  0
   34.0070   28.3900   49.0570 N   0  0  0  0  0  0  0  0  0  0  0  0
   34.6000   30.4100   46.4890 H   0  0  0  0  0  0  0  0  0  0  0  0
   32.3730   29.5100   45.7770 H   0  0  0  0  0  0  0  0  0  0  0  0
   32.2610   27.1720   49.2930 H   0  0  0  0  0  0  0  0  0  0  0  0
   37.8300   30.9150   48.1730 O   0  0  0  0  0  0  0  0  0  0  0  0
   38.6300   32.6700   46.7590 C   0  0  2  0  0  3  0  0  0  0  0  0
   37.9810   31.3060   46.8320 C   0  0  1  0  0  3  0  0  0  0  0  0
   38.9670   30.4240   46.1360 C   0  0  0  0  0  3  0  0  0  0  0  0
   39.0810   29.4660   46.7230 H   0  0  0  0  0  0  0  0  0  0  0  0
   40.1730   31.1190   46.1140 O   0  0  0  0  0  0  0  0  0  0  0  0
   39.7960   32.4120   45.8200 C   0  0  0  0  0  3  0  0  0  0  0  0
   40.5630   33.1750   46.0660 H   0  0  0  0  0  0  0  0  0  0  0  0
   39.1160   33.0840   47.9810 O   0  0  0  0  0  0  0  0  0  0  0  0
   38.8830   34.0320   48.2060 H   0  0  0  0  0  0  0  0  0  0  0  0
  1  2  1  0  0  0  0
  2  7  1  0  0  0  0
  2  3  1  0  0  0  0
  3  4  1  0  0  0  0
  3 10  1  0  0  0  0
  3  9  1  0  0  0  0
  4 11  1  0  0  0  0
  5 14  1  0  0  0  0
  5  4  1  0  0  0  0
  6 15  1  6  0  0  0
  6  1  1  0  0  0  0
  6  5  1  0  0  0  0
  8  2  1  0  0  0  0
 12  4  1  0  0  0  0
 13  5  1  0  0  0  0
 16  1  1  0  0  0  0
 16 21  1  0  0  0  0
 17 16  2  0  0  0  0
 18 17  1  0  0  0  0
 18 19  2  0  0  0  0
 19 20  1  0  0  0  0
 20 21  2  0  0  0  0
 20 24  1  0  0  0  0
 22 17  1  0  0  0  0
 23 18  1  0  0  0  0
 25  6  1  0  0  0  0
 26 27  1  0  0  0  0
 26 33  1  1  0  0  0
 27 25  1  1  0  0  0
 28 29  1  0  0  0  0
 28 27  1  0  0  0  0
 30 28  1  0  0  0  0
 31 32  1  0  0  0  0
 31 30  1  0  0  0  0
 31 26  1  0  0  0  0
 33 34  1  0  0  0  0
M  END
>  <minimizedAffinity>
-5.39122772

>  <minimizedRMSD>
0.710446656

$$$$
