
 OpenBabel03272503003D

 34 36  0  0  1  0  0  0  0  0999 V2000
   38.2950   22.7290   35.8000 N   0  0  0  0  0  0  0  0  0  0  0  0
   39.6240   22.3890   36.2450 C   0  0  0  0  0  0  0  0  0  0  0  0
   39.9230   22.5280   37.6700 C   0  0  0  0  0  0  0  0  0  0  0  0
   39.1370   23.4830   38.4720 C   0  0  0  0  0  0  0  0  0  0  0  0
   37.7980   23.8590   37.8720 C   0  0  0  0  0  0  0  0  0  0  0  0
   37.9540   24.0160   36.3730 C   0  0  1  0  0  0  0  0  0  0  0  0
   39.8370   21.3590   35.8720 H   0  0  0  0  0  0  0  0  0  0  0  0
   40.3200   23.0490   35.6680 H   0  0  0  0  0  0  0  0  0  0  0  0
   39.8380   21.5090   38.1310 H   0  0  0  0  0  0  0  0  0  0  0  0
   41.0050   22.7800   37.7990 H   0  0  0  0  0  0  0  0  0  0  0  0
   38.9020   23.0650   39.4730 H   0  0  0  0  0  0  0  0  0  0  0  0
   39.6930   24.4280   38.6820 H   0  0  0  0  0  0  0  0  0  0  0  0
   37.4990   24.8230   38.3270 H   0  0  0  0  0  0  0  0  0  0  0  0
   36.9960   23.1430   38.0860 H   0  0  0  0  0  0  0  0  0  0  0  0
   37.0590   24.4640   35.9140 H   0  0  0  0  0  0  0  0  0  0  0  0
   37.4800   21.9310   34.9510 C   0  0  0  0  0  0  0  0  0  0  0  0
   36.3390   21.2380   35.3840 C   0  0  0  0  0  0  0  0  0  0  0  0
   35.6270   20.4900   34.4520 C   0  0  0  0  0  0  0  0  0  0  0  0
   36.0880   20.4810   33.1660 N   0  0  0  0  0  0  0  0  0  0  0  0
   37.1810   21.1560   32.7940 C   0  0  0  0  0  0  0  0  0  0  0  0
   37.8810   21.8830   33.6830 N   0  0  0  0  0  0  0  0  0  0  0  0
   36.0700   21.3140   36.4080 H   0  0  0  0  0  0  0  0  0  0  0  0
   34.7520   19.9540   34.7670 H   0  0  0  0  0  0  0  0  0  0  0  0
   37.4710   21.0860   31.7390 H   0  0  0  0  0  0  0  0  0  0  0  0
   38.9940   24.9490   36.2080 O   0  0  0  0  0  0  0  0  0  0  0  0
   39.6530   26.8850   34.9690 C   0  0  2  0  0  3  0  0  0  0  0  0
   38.5100   26.1110   35.5840 C   0  0  1  0  0  3  0  0  0  0  0  0
   37.6650   25.7560   34.4020 C   0  0  0  0  0  3  0  0  0  0  0  0
   37.3290   24.6830   34.4980 H   0  0  0  0  0  0  0  0  0  0  0  0
   38.4740   25.9050   33.2780 O   0  0  0  0  0  0  0  0  0  0  0  0
   39.1760   27.0640   33.5380 C   0  0  0  0  0  3  0  0  0  0  0  0
   40.0910   27.1860   32.9220 H   0  0  0  0  0  0  0  0  0  0  0  0
   40.8300   26.1650   34.9680 O   0  0  0  0  0  0  0  0  0  0  0  0
   41.6230   26.6920   35.2770 H   0  0  0  0  0  0  0  0  0  0  0  0
  1  2  1  0  0  0  0
  1  6  1  0  0  0  0
  2  3  1  0  0  0  0
  3 10  1  0  0  0  0
  3  9  1  0  0  0  0
  3  4  1  0  0  0  0
  4 12  1  0  0  0  0
  4 11  1  0  0  0  0
  5 14  1  0  0  0  0
  5 13  1  0  0  0  0
  5  4  1  0  0  0  0
  6 15  1  6  0  0  0
  6  5  1  0  0  0  0
  7  2  1  0  0  0  0
  8  2  1  0  0  0  0
 16 17  1  0  0  0  0
 16  1  1  0  0  0  0
 17 22  1  0  0  0  0
 18 23  1  0  0  0  0
 18 17  2  0  0  0  0
 19 18  1  0  0  0  0
 20 19  2  0  0  0  0
 20 21  1  0  0  0  0
 21 16  2  0  0  0  0
 24 20  1  0  0  0  0
 25  6  1  0  0  0  0
 26 33  1  6  0  0  0
 26 27  1  0  0  0  0
 27 25  1  6  0  0  0
 28 29  1  0  0  0  0
 28 27  1  0  0  0  0
 30 31  1  0  0  0  0
 30 28  1  0  0  0  0
 31 26  1  0  0  0  0
 32 31  1  0  0  0  0
 33 34  1  0  0  0  0
M  END
>  <minimizedAffinity>
-4.90216589

$$$$

 OpenBabel03272503003D

 34 36  0  0  1  0  0  0  0  0999 V2000
   38.2430   25.0000   33.9070 N   0  0  0  0  0  0  0  0  0  0  0  0
   37.8870   25.9670   34.9160 C   0  0  0  0  0  0  0  0  0  0  0  0
   38.7480   27.1390   35.0710 C   0  0  0  0  0  0  0  0  0  0  0  0
   40.1580   27.0460   34.6540 C   0  0  0  0  0  0  0  0  0  0  0  0
   40.4530   25.9340   33.6690 C   0  0  0  0  0  0  0  0  0  0  0  0
   39.6540   24.7070   34.0550 C   0  0  1  0  0  0  0  0  0  0  0  0
   36.8240   26.2510   34.7330 H   0  0  0  0  0  0  0  0  0  0  0  0
   37.8680   25.4070   35.8850 H   0  0  0  0  0  0  0  0  0  0  0  0
   38.2610   27.9870   34.5210 H   0  0  0  0  0  0  0  0  0  0  0  0
   38.7270   27.4770   36.1380 H   0  0  0  0  0  0  0  0  0  0  0  0
   40.4870   27.9790   34.1490 H   0  0  0  0  0  0  0  0  0  0  0  0
   40.8560   26.9300   35.5170 H   0  0  0  0  0  0  0  0  0  0  0  0
   41.5380   25.7210   33.7370 H   0  0  0  0  0  0  0  0  0  0  0  0
   40.2460   26.1960   32.6240 H   0  0  0  0  0  0  0  0  0  0  0  0
   39.9680   23.8180   33.4840 H   0  0  0  0  0  0  0  0  0  0  0  0
   37.3530   24.4460   32.9460 C   0  0  0  0  0  0  0  0  0  0  0  0
   36.5280   25.2120   32.1070 C   0  0  0  0  0  0  0  0  0  0  0  0
   35.7010   24.5470   31.2080 C   0  0  0  0  0  0  0  0  0  0  0  0
   35.7480   23.1810   31.1990 N   0  0  0  0  0  0  0  0  0  0  0  0
   36.5480   22.4880   32.0160 C   0  0  0  0  0  0  0  0  0  0  0  0
   37.3540   23.1170   32.8920 N   0  0  0  0  0  0  0  0  0  0  0  0
   36.5720   26.2680   32.1970 H   0  0  0  0  0  0  0  0  0  0  0  0
   35.0640   25.1170   30.5600 H   0  0  0  0  0  0  0  0  0  0  0  0
   36.5130   21.3950   31.9340 H   0  0  0  0  0  0  0  0  0  0  0  0
   39.9930   24.4560   35.3960 O   0  0  0  0  0  0  0  0  0  0  0  0
   41.2660   22.5380   36.0470 C   0  0  2  0  0  3  0  0  0  0  0  0
   39.9070   23.0810   35.6710 C   0  0  1  0  0  3  0  0  0  0  0  0
   39.0930   22.8440   36.9040 C   0  0  0  0  0  3  0  0  0  0  0  0
   38.4640   23.7570   37.1100 H   0  0  0  0  0  0  0  0  0  0  0  0
   39.9990   22.6420   37.9420 O   0  0  0  0  0  0  0  0  0  0  0  0
   40.9750   21.8520   37.3700 C   0  0  0  0  0  3  0  0  0  0  0  0
   41.9330   21.8420   37.9290 H   0  0  0  0  0  0  0  0  0  0  0  0
   42.1910   23.5430   36.2510 O   0  0  0  0  0  0  0  0  0  0  0  0
   43.0720   23.3730   35.8080 H   0  0  0  0  0  0  0  0  0  0  0  0
  1  6  1  0  0  0  0
  1  2  1  0  0  0  0
  2  3  1  0  0  0  0
  2  8  1  0  0  0  0
  3 10  1  0  0  0  0
  4  3  1  0  0  0  0
  4 12  1  0  0  0  0
  5 13  1  0  0  0  0
  5  6  1  0  0  0  0
  5  4  1  0  0  0  0
  6 15  1  6  0  0  0
  6 25  1  0  0  0  0
  7  2  1  0  0  0  0
  9  3  1  0  0  0  0
 11  4  1  0  0  0  0
 14  5  1  0  0  0  0
 16  1  1  0  0  0  0
 17 22  1  0  0  0  0
 17 16  2  0  0  0  0
 18 17  1  0  0  0  0
 19 18  2  0  0  0  0
 19 20  1  0  0  0  0
 20 21  2  0  0  0  0
 21 16  1  0  0  0  0
 23 18  1  0  0  0  0
 24 20  1  0  0  0  0
 26 33  1  1  0  0  0
 26 31  1  0  0  0  0
 27 25  1  1  0  0  0
 27 26  1  0  0  0  0
 27 28  1  0  0  0  0
 28 29  1  0  0  0  0
 28 30  1  0  0  0  0
 31 32  1  0  0  0  0
 31 30  1  0  0  0  0
 34 33  1  0  0  0  0
M  END
>  <minimizedAffinity>
-4.66144514

$$$$

 OpenBabel03272503003D

 34 36  0  0  1  0  0  0  0  0999 V2000
   38.5820   25.8500   33.8760 N   0  0  0  0  0  0  0  0  0  0  0  0
   39.3660   26.8850   34.5050 C   0  0  0  0  0  0  0  0  0  0  0  0
   40.8220   26.7520   34.4740 C   0  0  0  0  0  0  0  0  0  0  0  0
   41.4110   25.4060   34.3430 C   0  0  0  0  0  0  0  0  0  0  0  0
   40.4770   24.3620   33.7670 C   0  0  0  0  0  0  0  0  0  0  0  0
   39.0890   24.5720   34.3350 C   0  0  1  0  0  0  0  0  0  0  0  0
   39.0260   27.8560   34.0730 H   0  0  0  0  0  0  0  0  0  0  0  0
   39.0320   26.9170   35.5720 H   0  0  0  0  0  0  0  0  0  0  0  0
   41.2000   27.3970   33.6380 H   0  0  0  0  0  0  0  0  0  0  0  0
   41.2580   27.2300   35.3860 H   0  0  0  0  0  0  0  0  0  0  0  0
   42.2890   25.4200   33.6640 H   0  0  0  0  0  0  0  0  0  0  0  0
   41.8060   25.0130   35.3100 H   0  0  0  0  0  0  0  0  0  0  0  0
   40.8690   23.3730   34.0740 H   0  0  0  0  0  0  0  0  0  0  0  0
   40.4300   24.3600   32.6720 H   0  0  0  0  0  0  0  0  0  0  0  0
   38.4160   23.7350   34.0940 H   0  0  0  0  0  0  0  0  0  0  0  0
   37.5080   26.0650   32.9690 C   0  0  0  0  0  0  0  0  0  0  0  0
   37.0220   27.3330   32.6160 C   0  0  0  0  0  0  0  0  0  0  0  0
   35.9640   27.4080   31.7160 C   0  0  0  0  0  0  0  0  0  0  0  0
   35.4660   26.2320   31.2290 N   0  0  0  0  0  0  0  0  0  0  0  0
   35.9580   25.0430   31.5920 C   0  0  0  0  0  0  0  0  0  0  0  0
   36.9800   24.9540   32.4620 N   0  0  0  0  0  0  0  0  0  0  0  0
   37.4830   28.1830   33.0540 H   0  0  0  0  0  0  0  0  0  0  0  0
   35.5800   28.3700   31.4350 H   0  0  0  0  0  0  0  0  0  0  0  0
   35.4900   24.1570   31.1470 H   0  0  0  0  0  0  0  0  0  0  0  0
   39.2580   24.5540   35.7320 O   0  0  0  0  0  0  0  0  0  0  0  0
   38.0110   22.8910   36.9150 C   0  0  2  0  0  3  0  0  0  0  0  0
   38.0310   24.2990   36.3670 C   0  0  1  0  0  3  0  0  0  0  0  0
   37.8920   25.1430   37.5940 C   0  0  0  0  0  3  0  0  0  0  0  0
   38.6090   26.0110   37.5260 H   0  0  0  0  0  0  0  0  0  0  0  0
   38.2250   24.3290   38.6730 O   0  0  0  0  0  0  0  0  0  0  0  0
   37.6280   23.1240   38.3660 C   0  0  0  0  0  3  0  0  0  0  0  0
   38.0330   22.2610   38.9330 H   0  0  0  0  0  0  0  0  0  0  0  0
   39.2550   22.2940   36.8650 O   0  0  0  0  0  0  0  0  0  0  0  0
   39.2360   21.3580   36.5100 H   0  0  0  0  0  0  0  0  0  0  0  0
  1  6  1  0  0  0  0
  1  2  1  0  0  0  0
  2  8  1  0  0  0  0
  3  2  1  0  0  0  0
  3 10  1  0  0  0  0
  4  3  1  0  0  0  0
  4 12  1  0  0  0  0
  5 13  1  0  0  0  0
  5  6  1  0  0  0  0
  5  4  1  0  0  0  0
  6 15  1  6  0  0  0
  6 25  1  0  0  0  0
  7  2  1  0  0  0  0
  9  3  1  0  0  0  0
 11  4  1  0  0  0  0
 14  5  1  0  0  0  0
 16  1  1  0  0  0  0
 17 16  1  0  0  0  0
 17 22  1  0  0  0  0
 18 17  2  0  0  0  0
 19 20  2  0  0  0  0
 19 18  1  0  0  0  0
 20 21  1  0  0  0  0
 21 16  2  0  0  0  0
 23 18  1  0  0  0  0
 24 20  1  0  0  0  0
 26 33  1  1  0  0  0
 26 31  1  0  0  0  0
 27 25  1  1  0  0  0
 27 26  1  0  0  0  0
 27 28  1  0  0  0  0
 28 30  1  0  0  0  0
 29 28  1  0  0  0  0
 31 30  1  0  0  0  0
 31 32  1  0  0  0  0
 34 33  1  0  0  0  0
M  END
>  <minimizedAffinity>
-4.64089441

$$$$

 OpenBabel03272503003D

 34 36  0  0  1  0  0  0  0  0999 V2000
   37.9250   24.1390   34.8380 N   0  0  0  0  0  0  0  0  0  0  0  0
   38.0260   23.6470   36.1910 C   0  0  0  0  0  0  0  0  0  0  0  0
   39.2170   22.8790   36.5510 C   0  0  0  0  0  0  0  0  0  0  0  0
   39.9530   22.1690   35.4900 C   0  0  0  0  0  0  0  0  0  0  0  0
   39.7040   22.6930   34.0900 C   0  0  0  0  0  0  0  0  0  0  0  0
   38.2370   23.0400   33.9460 C   0  0  1  0  0  0  0  0  0  0  0  0
   37.8730   24.5230   36.8660 H   0  0  0  0  0  0  0  0  0  0  0  0
   37.1230   23.0040   36.3520 H   0  0  0  0  0  0  0  0  0  0  0  0
   39.9190   23.5780   37.0770 H   0  0  0  0  0  0  0  0  0  0  0  0
   38.9530   22.1340   37.3430 H   0  0  0  0  0  0  0  0  0  0  0  0
   41.0500   22.2510   35.6420 H   0  0  0  0  0  0  0  0  0  0  0  0
   39.7490   21.0720   35.4840 H   0  0  0  0  0  0  0  0  0  0  0  0
   39.9750   21.8800   33.3880 H   0  0  0  0  0  0  0  0  0  0  0  0
   40.3170   23.5610   33.8230 H   0  0  0  0  0  0  0  0  0  0  0  0
   37.9680   23.2510   32.8990 H   0  0  0  0  0  0  0  0  0  0  0  0
   37.5810   25.4670   34.4670 C   0  0  0  0  0  0  0  0  0  0  0  0
   37.6100   26.5600   35.3480 C   0  0  0  0  0  0  0  0  0  0  0  0
   37.2490   27.8110   34.8600 C   0  0  0  0  0  0  0  0  0  0  0  0
   36.8900   27.8950   33.5440 N   0  0  0  0  0  0  0  0  0  0  0  0
   36.8760   26.8290   32.7380 C   0  0  0  0  0  0  0  0  0  0  0  0
   37.2210   25.6120   33.1950 N   0  0  0  0  0  0  0  0  0  0  0  0
   37.9060   26.3820   36.3510 H   0  0  0  0  0  0  0  0  0  0  0  0
   37.2660   28.6570   35.5190 H   0  0  0  0  0  0  0  0  0  0  0  0
   36.5710   26.9980   31.6980 H   0  0  0  0  0  0  0  0  0  0  0  0
   37.5460   21.8690   34.3040 O   0  0  0  0  0  0  0  0  0  0  0  0
   35.9480   20.2890   33.4850 C   0  0  2  0  0  3  0  0  0  0  0  0
   37.1190   21.1850   33.1540 C   0  0  1  0  0  3  0  0  0  0  0  0
   36.5430   22.1420   32.1600 C   0  0  0  0  0  3  0  0  0  0  0  0
   36.9020   23.1840   32.4020 H   0  0  0  0  0  0  0  0  0  0  0  0
   35.1590   22.0690   32.2960 O   0  0  0  0  0  0  0  0  0  0  0  0
   34.9210   20.7190   32.4530 C   0  0  0  0  0  3  0  0  0  0  0  0
   33.9290   20.4830   32.8890 H   0  0  0  0  0  0  0  0  0  0  0  0
   35.4480   20.5300   34.7500 O   0  0  0  0  0  0  0  0  0  0  0  0
   35.2750   19.6970   35.2780 H   0  0  0  0  0  0  0  0  0  0  0  0
  1  2  1  0  0  0  0
  2  8  1  0  0  0  0
  2  3  1  0  0  0  0
  2  7  1  0  0  0  0
  3  9  1  0  0  0  0
  3 10  1  0  0  0  0
  4 11  1  0  0  0  0
  4  3  1  0  0  0  0
  5  4  1  0  0  0  0
  6 15  1  6  0  0  0
  6  5  1  0  0  0  0
  6 25  1  0  0  0  0
  6  1  1  0  0  0  0
 12  4  1  0  0  0  0
 13  5  1  0  0  0  0
 14  5  1  0  0  0  0
 16  1  1  0  0  0  0
 16 17  1  0  0  0  0
 17 22  1  0  0  0  0
 18 17  2  0  0  0  0
 18 23  1  0  0  0  0
 19 18  1  0  0  0  0
 20 21  1  0  0  0  0
 20 19  2  0  0  0  0
 21 16  2  0  0  0  0
 24 20  1  0  0  0  0
 26 33  1  1  0  0  0
 27 26  1  0  0  0  0
 27 25  1  1  0  0  0
 28 30  1  0  0  0  0
 28 29  1  0  0  0  0
 28 27  1  0  0  0  0
 30 31  1  0  0  0  0
 31 32  1  0  0  0  0
 31 26  1  0  0  0  0
 33 34  1  0  0  0  0
M  END
>  <minimizedAffinity>
-4.56742907

$$$$

 OpenBabel03272503003D

 34 36  0  0  1  0  0  0  0  0999 V2000
   39.2990   24.8400   34.4030 N   0  0  0  0  0  0  0  0  0  0  0  0
   40.2000   24.2740   33.4290 C   0  0  0  0  0  0  0  0  0  0  0  0
   41.0940   25.1850   32.7150 C   0  0  0  0  0  0  0  0  0  0  0  0
   40.7000   26.5980   32.5690 C   0  0  0  0  0  0  0  0  0  0  0  0
   39.6720   27.0740   33.5740 C   0  0  0  0  0  0  0  0  0  0  0  0
   38.6470   25.9800   33.7890 C   0  0  1  0  0  0  0  0  0  0  0  0
   40.7600   23.4570   33.9440 H   0  0  0  0  0  0  0  0  0  0  0  0
   39.5540   23.7480   32.6820 H   0  0  0  0  0  0  0  0  0  0  0  0
   42.0940   25.1360   33.2200 H   0  0  0  0  0  0  0  0  0  0  0  0
   41.3000   24.7780   31.6940 H   0  0  0  0  0  0  0  0  0  0  0  0
   41.5730   27.2710   32.7020 H   0  0  0  0  0  0  0  0  0  0  0  0
   40.3130   26.8340   31.5490 H   0  0  0  0  0  0  0  0  0  0  0  0
   39.1880   27.9710   33.1410 H   0  0  0  0  0  0  0  0  0  0  0  0
   40.0970   27.3760   34.5380 H   0  0  0  0  0  0  0  0  0  0  0  0
   37.7810   26.3380   34.3670 H   0  0  0  0  0  0  0  0  0  0  0  0
   39.1000   24.3540   35.7240 C   0  0  0  0  0  0  0  0  0  0  0  0
   38.1240   24.8480   36.6040 C   0  0  0  0  0  0  0  0  0  0  0  0
   38.0330   24.2860   37.8720 C   0  0  0  0  0  0  0  0  0  0  0  0
   38.9050   23.2800   38.1810 N   0  0  0  0  0  0  0  0  0  0  0  0
   39.8210   22.8380   37.3130 C   0  0  0  0  0  0  0  0  0  0  0  0
   39.9230   23.3720   36.0830 N   0  0  0  0  0  0  0  0  0  0  0  0
   37.4980   25.6330   36.2610 H   0  0  0  0  0  0  0  0  0  0  0  0
   37.2930   24.6520   38.5570 H   0  0  0  0  0  0  0  0  0  0  0  0
   40.4760   22.0270   37.6550 H   0  0  0  0  0  0  0  0  0  0  0  0
   38.1650   25.6710   32.5040 O   0  0  0  0  0  0  0  0  0  0  0  0
   36.0640   26.2010   31.4900 C   0  0  2  0  0  3  0  0  0  0  0  0
   36.7860   25.4050   32.5530 C   0  0  1  0  0  3  0  0  0  0  0  0
   36.5140   23.9880   32.1600 C   0  0  0  0  0  3  0  0  0  0  0  0
   37.4630   23.3880   32.2650 H   0  0  0  0  0  0  0  0  0  0  0  0
   36.1090   24.0180   30.8280 O   0  0  0  0  0  0  0  0  0  0  0  0
   35.2820   25.1200   30.7660 C   0  0  0  0  0  3  0  0  0  0  0  0
   35.1110   25.5000   29.7380 H   0  0  0  0  0  0  0  0  0  0  0  0
   36.9370   26.7990   30.6040 O   0  0  0  0  0  0  0  0  0  0  0  0
   36.7190   27.7570   30.4120 H   0  0  0  0  0  0  0  0  0  0  0  0
  1 16  1  0  0  0  0
  2  7  1  0  0  0  0
  2  1  1  0  0  0  0
  3  9  1  0  0  0  0
  3  2  1  0  0  0  0
  4 11  1  0  0  0  0
  4  3  1  0  0  0  0
  4  5  1  0  0  0  0
  5  6  1  0  0  0  0
  5 14  1  0  0  0  0
  6 15  1  1  0  0  0
  6  1  1  0  0  0  0
  8  2  1  0  0  0  0
 10  3  1  0  0  0  0
 12  4  1  0  0  0  0
 13  5  1  0  0  0  0
 16 21  2  0  0  0  0
 16 17  1  0  0  0  0
 17 18  2  0  0  0  0
 18 19  1  0  0  0  0
 18 23  1  0  0  0  0
 20 24  1  0  0  0  0
 20 19  2  0  0  0  0
 21 20  1  0  0  0  0
 22 17  1  0  0  0  0
 25  6  1  0  0  0  0
 26 33  1  6  0  0  0
 26 27  1  0  0  0  0
 27 25  1  6  0  0  0
 28 29  1  0  0  0  0
 28 27  1  0  0  0  0
 30 28  1  0  0  0  0
 31 30  1  0  0  0  0
 31 26  1  0  0  0  0
 32 31  1  0  0  0  0
 34 33  1  0  0  0  0
M  END
>  <minimizedAffinity>
-4.53506374

$$$$

 OpenBabel03272503003D

 34 36  0  0  1  0  0  0  0  0999 V2000
   37.3270   27.5040   33.4870 N   0  0  0  0  0  0  0  0  0  0  0  0
   37.1600   27.2940   34.9050 C   0  0  0  0  0  0  0  0  0  0  0  0
   38.3630   27.2530   35.7360 C   0  0  0  0  0  0  0  0  0  0  0  0
   39.6430   26.8660   35.1150 C   0  0  0  0  0  0  0  0  0  0  0  0
   39.6880   27.0260   33.6090 C   0  0  0  0  0  0  0  0  0  0  0  0
   38.3580   26.5960   33.0260 C   0  0  1  0  0  0  0  0  0  0  0  0
   36.4320   28.0610   35.2610 H   0  0  0  0  0  0  0  0  0  0  0  0
   36.6190   26.3200   35.0090 H   0  0  0  0  0  0  0  0  0  0  0  0
   38.4780   28.2640   36.2080 H   0  0  0  0  0  0  0  0  0  0  0  0
   38.1870   26.5780   36.6100 H   0  0  0  0  0  0  0  0  0  0  0  0
   40.4770   27.4890   35.5000 H   0  0  0  0  0  0  0  0  0  0  0  0
   39.9370   25.8170   35.3550 H   0  0  0  0  0  0  0  0  0  0  0  0
   40.4980   26.3680   33.2390 H   0  0  0  0  0  0  0  0  0  0  0  0
   39.9260   28.0420   33.2750 H   0  0  0  0  0  0  0  0  0  0  0  0
   38.3990   26.5180   31.9280 H   0  0  0  0  0  0  0  0  0  0  0  0
   36.6030   28.4410   32.7010 C   0  0  0  0  0  0  0  0  0  0  0  0
   35.5540   29.2340   33.1930 C   0  0  0  0  0  0  0  0  0  0  0  0
   34.9240   30.1140   32.3190 C   0  0  0  0  0  0  0  0  0  0  0  0
   35.3730   30.1500   31.0290 N   0  0  0  0  0  0  0  0  0  0  0  0
   36.3750   29.3760   30.5990 C   0  0  0  0  0  0  0  0  0  0  0  0
   36.9940   28.5200   31.4320 N   0  0  0  0  0  0  0  0  0  0  0  0
   35.2870   29.1260   34.2150 H   0  0  0  0  0  0  0  0  0  0  0  0
   34.1210   30.7270   32.6790 H   0  0  0  0  0  0  0  0  0  0  0  0
   36.6620   29.4780   29.5450 H   0  0  0  0  0  0  0  0  0  0  0  0
   38.1510   25.2900   33.5080 O   0  0  0  0  0  0  0  0  0  0  0  0
   38.1390   22.9560   32.9880 C   0  0  2  0  0  3  0  0  0  0  0  0
   38.2140   24.3660   32.4510 C   0  0  1  0  0  3  0  0  0  0  0  0
   36.9930   24.4690   31.5940 C   0  0  0  0  0  3  0  0  0  0  0  0
   36.4990   25.4670   31.7740 H   0  0  0  0  0  0  0  0  0  0  0  0
   36.1450   23.4370   31.9880 O   0  0  0  0  0  0  0  0  0  0  0  0
   37.0000   22.3700   32.1720 C   0  0  0  0  0  3  0  0  0  0  0  0
   36.5730   21.5490   32.7850 H   0  0  0  0  0  0  0  0  0  0  0  0
   37.8010   22.9240   34.3260 O   0  0  0  0  0  0  0  0  0  0  0  0
   38.3690   22.3040   34.8690 H   0  0  0  0  0  0  0  0  0  0  0  0
  1  2  1  0  0  0  0
  2  8  1  0  0  0  0
  2  7  1  0  0  0  0
  2  3  1  0  0  0  0
  3  9  1  0  0  0  0
  3 10  1  0  0  0  0
  4 12  1  0  0  0  0
  4 11  1  0  0  0  0
  4  3  1  0  0  0  0
  5  4  1  0  0  0  0
  6 15  1  6  0  0  0
  6  1  1  0  0  0  0
  6 25  1  0  0  0  0
  6  5  1  0  0  0  0
 13  5  1  0  0  0  0
 14  5  1  0  0  0  0
 16 17  1  0  0  0  0
 16  1  1  0  0  0  0
 17 22  1  0  0  0  0
 18 23  1  0  0  0  0
 18 17  2  0  0  0  0
 19 18  1  0  0  0  0
 20 19  2  0  0  0  0
 20 21  1  0  0  0  0
 21 16  2  0  0  0  0
 24 20  1  0  0  0  0
 26 33  1  1  0  0  0
 27 26  1  0  0  0  0
 27 25  1  1  0  0  0
 28 29  1  0  0  0  0
 28 30  1  0  0  0  0
 28 27  1  0  0  0  0
 30 31  1  0  0  0  0
 31 32  1  0  0  0  0
 31 26  1  0  0  0  0
 33 34  1  0  0  0  0
M  END
>  <minimizedAffinity>
-4.52033234

$$$$

 OpenBabel03272503003D

 34 36  0  0  1  0  0  0  0  0999 V2000
   36.9550   27.6160   33.6090 N   0  0  0  0  0  0  0  0  0  0  0  0
   37.0780   27.0270   34.9210 C   0  0  0  0  0  0  0  0  0  0  0  0
   38.4240   26.7680   35.4300 C   0  0  0  0  0  0  0  0  0  0  0  0
   39.5230   26.5710   34.4670 C   0  0  0  0  0  0  0  0  0  0  0  0
   39.2600   27.1350   33.0860 C   0  0  0  0  0  0  0  0  0  0  0  0
   37.8160   26.8730   32.7110 C   0  0  1  0  0  0  0  0  0  0  0  0
   36.4820   27.6630   35.6180 H   0  0  0  0  0  0  0  0  0  0  0  0
   36.5200   26.0580   34.8750 H   0  0  0  0  0  0  0  0  0  0  0  0
   38.6900   27.6120   36.1180 H   0  0  0  0  0  0  0  0  0  0  0  0
   38.3990   25.8790   36.1080 H   0  0  0  0  0  0  0  0  0  0  0  0
   40.4510   27.0700   34.8150 H   0  0  0  0  0  0  0  0  0  0  0  0
   39.8050   25.4980   34.3480 H   0  0  0  0  0  0  0  0  0  0  0  0
   39.9380   26.6080   32.3870 H   0  0  0  0  0  0  0  0  0  0  0  0
   39.4770   28.2060   32.9920 H   0  0  0  0  0  0  0  0  0  0  0  0
   37.6220   27.0970   31.6500 H   0  0  0  0  0  0  0  0  0  0  0  0
   36.1330   28.7270   33.2780 C   0  0  0  0  0  0  0  0  0  0  0  0
   35.5240   29.5630   34.2270 C   0  0  0  0  0  0  0  0  0  0  0  0
   34.7420   30.6190   33.7720 C   0  0  0  0  0  0  0  0  0  0  0  0
   34.6180   30.7760   32.4200 N   0  0  0  0  0  0  0  0  0  0  0  0
   35.2150   29.9560   31.5480 C   0  0  0  0  0  0  0  0  0  0  0  0
   35.9750   28.9300   31.9730 N   0  0  0  0  0  0  0  0  0  0  0  0
   35.6870   29.3510   35.2540 H   0  0  0  0  0  0  0  0  0  0  0  0
   34.2690   31.2680   34.4840 H   0  0  0  0  0  0  0  0  0  0  0  0
   35.0550   30.1630   30.4830 H   0  0  0  0  0  0  0  0  0  0  0  0
   37.6450   25.4850   32.8590 O   0  0  0  0  0  0  0  0  0  0  0  0
   37.2940   23.3930   31.7540 C   0  0  2  0  0  3  0  0  0  0  0  0
   37.3350   24.8980   31.6210 C   0  0  1  0  0  3  0  0  0  0  0  0
   35.9360   25.2400   31.2170 C   0  0  0  0  0  3  0  0  0  0  0  0
   35.5970   26.1470   31.7960 H   0  0  0  0  0  0  0  0  0  0  0  0
   35.1490   24.1400   31.5450 O   0  0  0  0  0  0  0  0  0  0  0  0
   35.9290   23.0630   31.1770 C   0  0  0  0  0  3  0  0  0  0  0  0
   35.6220   22.1030   31.6410 H   0  0  0  0  0  0  0  0  0  0  0  0
   37.3410   22.9840   33.0720 O   0  0  0  0  0  0  0  0  0  0  0  0
   37.9840   22.2340   33.2360 H   0  0  0  0  0  0  0  0  0  0  0  0
  1  2  1  0  0  0  0
  2  3  1  0  0  0  0
  2  7  1  0  0  0  0
  3 10  1  0  0  0  0
  3  9  1  0  0  0  0
  4 11  1  0  0  0  0
  4  3  1  0  0  0  0
  5  4  1  0  0  0  0
  6 15  1  6  0  0  0
  6 25  1  0  0  0  0
  6  5  1  0  0  0  0
  6  1  1  0  0  0  0
  8  2  1  0  0  0  0
 12  4  1  0  0  0  0
 13  5  1  0  0  0  0
 14  5  1  0  0  0  0
 16  1  1  0  0  0  0
 16 17  1  0  0  0  0
 17 22  1  0  0  0  0
 18 17  2  0  0  0  0
 18 23  1  0  0  0  0
 19 18  1  0  0  0  0
 20 21  1  0  0  0  0
 20 19  2  0  0  0  0
 21 16  2  0  0  0  0
 24 20  1  0  0  0  0
 26 33  1  1  0  0  0
 27 26  1  0  0  0  0
 27 25  1  1  0  0  0
 28 30  1  0  0  0  0
 28 27  1  0  0  0  0
 28 29  1  0  0  0  0
 31 30  1  0  0  0  0
 31 32  1  0  0  0  0
 31 26  1  0  0  0  0
 33 34  1  0  0  0  0
M  END
>  <minimizedAffinity>
-4.49443817

$$$$

 OpenBabel03272503003D

 34 36  0  0  1  0  0  0  0  0999 V2000
   37.1180   27.5840   33.6200 N   0  0  0  0  0  0  0  0  0  0  0  0
   37.1950   27.1730   35.0010 C   0  0  0  0  0  0  0  0  0  0  0  0
   38.5210   27.0630   35.6070 C   0  0  0  0  0  0  0  0  0  0  0  0
   39.6840   26.8160   34.7350 C   0  0  0  0  0  0  0  0  0  0  0  0
   39.4720   27.1850   33.2820 C   0  0  0  0  0  0  0  0  0  0  0  0
   38.0700   26.7890   32.8700 C   0  0  1  0  0  0  0  0  0  0  0  0
   36.5260   27.8540   35.5790 H   0  0  0  0  0  0  0  0  0  0  0  0
   36.6940   26.1730   35.0510 H   0  0  0  0  0  0  0  0  0  0  0  0
   38.6990   28.0020   36.1940 H   0  0  0  0  0  0  0  0  0  0  0  0
   38.5050   26.2660   36.3920 H   0  0  0  0  0  0  0  0  0  0  0  0
   40.5620   27.4110   35.0640 H   0  0  0  0  0  0  0  0  0  0  0  0
   40.0300   25.7560   34.7710 H   0  0  0  0  0  0  0  0  0  0  0  0
   40.2180   26.6170   32.6920 H   0  0  0  0  0  0  0  0  0  0  0  0
   39.6350   28.2460   33.0620 H   0  0  0  0  0  0  0  0  0  0  0  0
   37.9260   26.8670   31.7810 H   0  0  0  0  0  0  0  0  0  0  0  0
   36.2570   28.5920   33.1070 C   0  0  0  0  0  0  0  0  0  0  0  0
   36.2660   29.0260   31.7720 C   0  0  0  0  0  0  0  0  0  0  0  0
   35.3720   30.0230   31.3950 C   0  0  0  0  0  0  0  0  0  0  0  0
   34.5350   30.5160   32.3570 N   0  0  0  0  0  0  0  0  0  0  0  0
   34.5590   30.0750   33.6190 C   0  0  0  0  0  0  0  0  0  0  0  0
   35.4190   29.1130   33.9990 N   0  0  0  0  0  0  0  0  0  0  0  0
   36.9580   28.5740   31.1060 H   0  0  0  0  0  0  0  0  0  0  0  0
   35.3650   30.3660   30.3780 H   0  0  0  0  0  0  0  0  0  0  0  0
   33.8490   30.5350   34.3170 H   0  0  0  0  0  0  0  0  0  0  0  0
   37.9660   25.4220   33.1860 O   0  0  0  0  0  0  0  0  0  0  0  0
   37.7360   23.1910   32.3560 C   0  0  2  0  0  3  0  0  0  0  0  0
   37.8530   24.6580   32.0130 C   0  0  1  0  0  3  0  0  0  0  0  0
   36.5580   24.9500   31.3230 C   0  0  0  0  0  3  0  0  0  0  0  0
   36.1570   25.9360   31.6940 H   0  0  0  0  0  0  0  0  0  0  0  0
   35.6870   23.9180   31.6660 O   0  0  0  0  0  0  0  0  0  0  0  0
   36.4800   22.7910   31.6030 C   0  0  0  0  0  3  0  0  0  0  0  0
   36.0640   21.9150   32.1420 H   0  0  0  0  0  0  0  0  0  0  0  0
   37.5400   22.9850   33.7070 O   0  0  0  0  0  0  0  0  0  0  0  0
   38.1180   22.2630   34.0900 H   0  0  0  0  0  0  0  0  0  0  0  0
  1  2  1  0  0  0  0
  2  8  1  0  0  0  0
  2  7  1  0  0  0  0
  2  3  1  0  0  0  0
  3  9  1  0  0  0  0
  3 10  1  0  0  0  0
  4 12  1  0  0  0  0
  4 11  1  0  0  0  0
  4  3  1  0  0  0  0
  5  4  1  0  0  0  0
  6 15  1  6  0  0  0
  6 25  1  0  0  0  0
  6  5  1  0  0  0  0
  6  1  1  0  0  0  0
 13  5  1  0  0  0  0
 14  5  1  0  0  0  0
 16  1  1  0  0  0  0
 16 21  1  0  0  0  0
 17 16  2  0  0  0  0
 18 17  1  0  0  0  0
 18 19  2  0  0  0  0
 19 20  1  0  0  0  0
 20 21  2  0  0  0  0
 20 24  1  0  0  0  0
 22 17  1  0  0  0  0
 23 18  1  0  0  0  0
 26 33  1  1  0  0  0
 27 26  1  0  0  0  0
 27 25  1  1  0  0  0
 28 30  1  0  0  0  0
 28 29  1  0  0  0  0
 28 27  1  0  0  0  0
 31 30  1  0  0  0  0
 31 32  1  0  0  0  0
 31 26  1  0  0  0  0
 33 34  1  0  0  0  0
M  END
>  <minimizedAffinity>
-4.47532988

$$$$

 OpenBabel03272503003D

 34 36  0  0  1  0  0  0  0  0999 V2000
   37.8160   24.5980   32.9470 N   0  0  0  0  0  0  0  0  0  0  0  0
   36.8990   23.8700   32.1030 C   0  0  0  0  0  0  0  0  0  0  0  0
   37.3750   23.4380   30.7900 C   0  0  0  0  0  0  0  0  0  0  0  0
   38.4750   24.1830   30.1520 C   0  0  0  0  0  0  0  0  0  0  0  0
   39.3220   25.0000   31.1070 C   0  0  0  0  0  0  0  0  0  0  0  0
   38.4220   25.6400   32.1420 C   0  0  1  0  0  0  0  0  0  0  0  0
   36.5100   23.0170   32.7090 H   0  0  0  0  0  0  0  0  0  0  0  0
   36.0150   24.5420   31.9600 H   0  0  0  0  0  0  0  0  0  0  0  0
   37.6710   22.3590   30.8800 H   0  0  0  0  0  0  0  0  0  0  0  0
   36.5170   23.4120   30.0740 H   0  0  0  0  0  0  0  0  0  0  0  0
   39.1850   23.4940   29.6480 H   0  0  0  0  0  0  0  0  0  0  0  0
   38.1200   24.8660   29.3430 H   0  0  0  0  0  0  0  0  0  0  0  0
   39.8270   25.7800   30.5040 H   0  0  0  0  0  0  0  0  0  0  0  0
   40.1100   24.4250   31.6070 H   0  0  0  0  0  0  0  0  0  0  0  0
   38.9600   26.3870   32.7470 H   0  0  0  0  0  0  0  0  0  0  0  0
   38.0680   24.3250   34.3190 C   0  0  0  0  0  0  0  0  0  0  0  0
   38.4310   23.0630   34.8140 C   0  0  0  0  0  0  0  0  0  0  0  0
   38.6500   22.9270   36.1810 C   0  0  0  0  0  0  0  0  0  0  0  0
   38.4980   24.0410   36.9580 N   0  0  0  0  0  0  0  0  0  0  0  0
   38.1500   25.2260   36.4460 C   0  0  0  0  0  0  0  0  0  0  0  0
   37.9340   25.3740   35.1270 N   0  0  0  0  0  0  0  0  0  0  0  0
   38.5220   22.2640   34.1210 H   0  0  0  0  0  0  0  0  0  0  0  0
   38.9280   21.9690   36.5760 H   0  0  0  0  0  0  0  0  0  0  0  0
   38.0530   26.0600   37.1520 H   0  0  0  0  0  0  0  0  0  0  0  0
   37.4580   26.3500   31.4030 O   0  0  0  0  0  0  0  0  0  0  0  0
   37.0340   28.5640   30.6040 C   0  0  2  0  0  3  0  0  0  0  0  0
   37.4630   27.7050   31.7710 C   0  0  1  0  0  3  0  0  0  0  0  0
   36.4060   27.9720   32.7960 C   0  0  0  0  0  3  0  0  0  0  0  0
   36.1080   26.9980   33.2790 H   0  0  0  0  0  0  0  0  0  0  0  0
   35.3230   28.5190   32.1120 O   0  0  0  0  0  0  0  0  0  0  0  0
   35.9110   29.3840   31.2130 C   0  0  0  0  0  3  0  0  0  0  0  0
   35.2520   29.6780   30.3710 H   0  0  0  0  0  0  0  0  0  0  0  0
   36.5320   27.8120   29.5610 O   0  0  0  0  0  0  0  0  0  0  0  0
   36.8890   28.0810   28.6650 H   0  0  0  0  0  0  0  0  0  0  0  0
  1 16  1  0  0  0  0
  2  7  1  0  0  0  0
  2  1  1  0  0  0  0
  3  9  1  0  0  0  0
  3  2  1  0  0  0  0
  4  3  1  0  0  0  0
  4  5  1  0  0  0  0
  5 14  1  0  0  0  0
  5  6  1  0  0  0  0
  6 15  1  1  0  0  0
  6  1  1  0  0  0  0
  8  2  1  0  0  0  0
 10  3  1  0  0  0  0
 11  4  1  0  0  0  0
 12  4  1  0  0  0  0
 13  5  1  0  0  0  0
 16 17  2  0  0  0  0
 16 21  1  0  0  0  0
 17 18  1  0  0  0  0
 18 23  1  0  0  0  0
 18 19  2  0  0  0  0
 20 19  1  0  0  0  0
 20 24  1  0  0  0  0
 21 20  2  0  0  0  0
 22 17  1  0  0  0  0
 25  6  1  0  0  0  0
 26 33  1  6  0  0  0
 26 31  1  0  0  0  0
 26 27  1  0  0  0  0
 27 25  1  6  0  0  0
 27 28  1  0  0  0  0
 28 29  1  0  0  0  0
 30 28  1  0  0  0  0
 31 30  1  0  0  0  0
 32 31  1  0  0  0  0
 34 33  1  0  0  0  0
M  END
>  <minimizedAffinity>
-4.46536446

$$$$
