
 OpenBabel03272502583D

 34 36  0  0  1  0  0  0  0  0999 V2000
   36.5060   30.0760   48.5330 N   0  0  0  0  0  0  0  0  0  0  0  0
   37.4670   29.3980   49.3690 C   0  0  0  0  0  0  0  0  0  0  0  0
   38.0870   30.1580   50.4530 C   0  0  0  0  0  0  0  0  0  0  0  0
   38.1730   31.6250   50.3330 C   0  0  0  0  0  0  0  0  0  0  0  0
   37.1920   32.2380   49.3550 C   0  0  0  0  0  0  0  0  0  0  0  0
   37.0860   31.3440   48.1360 C   0  0  1  0  0  0  0  0  0  0  0  0
   36.9730   28.4680   49.7400 H   0  0  0  0  0  0  0  0  0  0  0  0
   38.2710   29.0360   48.6800 H   0  0  0  0  0  0  0  0  0  0  0  0
   37.5390   29.9020   51.3980 H   0  0  0  0  0  0  0  0  0  0  0  0
   39.1180   29.7680   50.6380 H   0  0  0  0  0  0  0  0  0  0  0  0
   37.9620   32.1180   51.3060 H   0  0  0  0  0  0  0  0  0  0  0  0
   39.1950   31.9750   50.0540 H   0  0  0  0  0  0  0  0  0  0  0  0
   37.5970   33.2280   49.0680 H   0  0  0  0  0  0  0  0  0  0  0  0
   36.1930   32.4110   49.7730 H   0  0  0  0  0  0  0  0  0  0  0  0
   36.5300   31.8300   47.3200 H   0  0  0  0  0  0  0  0  0  0  0  0
   35.2250   29.5750   48.1750 C   0  0  0  0  0  0  0  0  0  0  0  0
   34.4740   30.0470   47.0870 C   0  0  0  0  0  0  0  0  0  0  0  0
   33.2310   29.4720   46.8430 C   0  0  0  0  0  0  0  0  0  0  0  0
   32.8210   28.4760   47.6850 N   0  0  0  0  0  0  0  0  0  0  0  0
   33.5670   28.0560   48.7110 C   0  0  0  0  0  0  0  0  0  0  0  0
   34.7710   28.6020   48.9610 N   0  0  0  0  0  0  0  0  0  0  0  0
   34.8890   30.8250   46.4970 H   0  0  0  0  0  0  0  0  0  0  0  0
   32.6440   29.8200   46.0150 H   0  0  0  0  0  0  0  0  0  0  0  0
   33.1500   27.2520   49.3300 H   0  0  0  0  0  0  0  0  0  0  0  0
   38.4070   31.1900   47.6790 O   0  0  0  0  0  0  0  0  0  0  0  0
   39.0850   32.7230   45.9740 C   0  0  2  0  0  3  0  0  0  0  0  0
   38.4650   31.3810   46.2880 C   0  0  1  0  0  3  0  0  0  0  0  0
   39.4210   30.4120   45.6660 C   0  0  0  0  0  3  0  0  0  0  0  0
   39.5870   29.5520   46.3780 H   0  0  0  0  0  0  0  0  0  0  0  0
   40.6110   31.1050   45.4640 O   0  0  0  0  0  0  0  0  0  0  0  0
   40.1930   32.3390   45.0090 C   0  0  0  0  0  3  0  0  0  0  0  0
   40.9620   33.1340   45.0910 H   0  0  0  0  0  0  0  0  0  0  0  0
   39.6410   33.3170   47.0880 O   0  0  0  0  0  0  0  0  0  0  0  0
   39.4070   34.2850   47.1860 H   0  0  0  0  0  0  0  0  0  0  0  0
  1  2  1  0  0  0  0
  2  7  1  0  0  0  0
  2  3  1  0  0  0  0
  3 10  1  0  0  0  0
  3  9  1  0  0  0  0
  4  3  1  0  0  0  0
  4 11  1  0  0  0  0
  5 14  1  0  0  0  0
  5  4  1  0  0  0  0
  6 15  1  6  0  0  0
  6  1  1  0  0  0  0
  6  5  1  0  0  0  0
  8  2  1  0  0  0  0
 12  4  1  0  0  0  0
 13  5  1  0  0  0  0
 16  1  1  0  0  0  0
 16 21  1  0  0  0  0
 17 16  2  0  0  0  0
 18 17  1  0  0  0  0
 18 19  2  0  0  0  0
 19 20  1  0  0  0  0
 20 21  2  0  0  0  0
 20 24  1  0  0  0  0
 22 17  1  0  0  0  0
 23 18  1  0  0  0  0
 25  6  1  0  0  0  0
 26 27  1  0  0  0  0
 26 33  1  1  0  0  0
 27 25  1  1  0  0  0
 28 27  1  0  0  0  0
 28 29  1  0  0  0  0
 30 28  1  0  0  0  0
 31 32  1  0  0  0  0
 31 30  1  0  0  0  0
 31 26  1  0  0  0  0
 33 34  1  0  0  0  0
M  END
>  <minimizedAffinity>
-5.2054677

>  <minimizedRMSD>
1.42150402

$$$$
