
 OpenBabel03272500053D

 29 31  0  0  1  0  0  0  0  0999 V2000
   38.5290   26.6300   36.0540 C   0  0  0  0  0  0  0  0  0  0  0  0
   38.5130   25.3720   35.3940 C   0  0  0  0  0  0  0  0  0  0  0  0
   37.7540   25.2560   34.2490 C   0  0  0  0  0  0  0  0  0  0  0  0
   37.0630   26.3450   33.8150 N   0  0  0  0  0  0  0  0  0  0  0  0
   37.0870   27.5250   34.4460 C   0  0  0  0  0  0  0  0  0  0  0  0
   37.8250   27.6710   35.5740 N   0  0  0  0  0  0  0  0  0  0  0  0
   39.1300   26.7230   36.9590 H   0  0  0  0  0  0  0  0  0  0  0  0
   37.7490   24.2940   33.7550 H   0  0  0  0  0  0  0  0  0  0  0  0
   39.2850   24.3250   35.9660 N   0  0  0  0  0  0  0  0  0  0  0  0
   40.5350   24.0490   35.5430 C   0  0  0  0  0  0  0  0  0  0  0  0
   41.2480   23.0040   36.1450 C   0  0  0  0  0  0  0  0  0  0  0  0
   40.5780   22.3490   37.1370 C   0  0  0  0  0  0  0  0  0  0  0  0
   41.2440   21.4080   37.6650 O   0  0  0  0  0  0  0  0  0  0  0  0
   39.3410   22.6030   37.5730 N   0  0  0  0  0  0  0  0  0  0  0  0
   38.7030   23.6200   36.9570 C   0  0  0  0  0  0  0  0  0  0  0  0
   37.5260   23.8700   37.3640 O   0  0  0  0  0  0  0  0  0  0  0  0
   40.9970   24.6310   34.7370 H   0  0  0  0  0  0  0  0  0  0  0  0
   42.2520   22.7590   35.8280 H   0  0  0  0  0  0  0  0  0  0  0  0
   38.9030   22.0460   38.3440 H   0  0  0  0  0  0  0  0  0  0  0  0
   36.3660   28.6070   33.9640 O   0  0  0  0  0  0  0  0  0  0  0  0
   36.9850   28.9460   31.6530 C   0  0  2  0  0  3  0  0  0  0  0  0
   35.8930   28.6230   32.6510 C   0  0  2  0  0  3  0  0  0  0  0  0
   34.9080   29.7220   32.3810 C   0  0  0  0  0  3  0  0  0  0  0  0
   33.8690   29.4460   32.6770 H   0  0  0  0  0  0  0  0  0  0  0  0
   34.9840   30.0040   31.0260 O   0  0  0  0  0  0  0  0  0  0  0  0
   36.2790   29.7460   30.6160 C   0  0  0  0  0  3  0  0  0  0  0  0
   36.8260   30.6950   30.3960 H   0  0  0  0  0  0  0  0  0  0  0  0
   37.5620   27.7920   31.1430 O   0  0  0  0  0  0  0  0  0  0  0  0
   38.0950   28.0570   30.3510 H   0  0  0  0  0  0  0  0  0  0  0  0
  1  7  1  0  0  0  0
  2  9  1  0  0  0  0
  2  1  2  0  0  0  0
  3  2  1  0  0  0  0
  4  3  2  0  0  0  0
  4  5  1  0  0  0  0
  5  6  2  0  0  0  0
  6  1  1  0  0  0  0
  8  3  1  0  0  0  0
  9 15  1  0  0  0  0
 10  9  1  0  0  0  0
 10 11  2  0  0  0  0
 11 12  1  0  0  0  0
 12 14  1  0  0  0  0
 12 13  2  0  0  0  0
 14 19  1  0  0  0  0
 15 16  2  0  0  0  0
 15 14  1  0  0  0  0
 17 10  1  0  0  0  0
 18 11  1  0  0  0  0
 20  5  1  0  0  0  0
 21 28  1  6  0  0  0
 21 22  1  0  0  0  0
 22 20  1  1  0  0  0
 23 22  1  0  0  0  0
 23 24  1  0  0  0  0
 25 23  1  0  0  0  0
 26 25  1  0  0  0  0
 26 21  1  0  0  0  0
 27 26  1  0  0  0  0
 29 28  1  0  0  0  0
M  END
>  <minimizedAffinity>
-5.31337261

$$$$

 OpenBabel03272500053D

 29 31  0  0  1  0  0  0  0  0999 V2000
   38.3820   26.7650   35.8310 C   0  0  0  0  0  0  0  0  0  0  0  0
   38.4080   25.4900   35.2050 C   0  0  0  0  0  0  0  0  0  0  0  0
   37.7210   25.3410   34.0190 C   0  0  0  0  0  0  0  0  0  0  0  0
   37.0580   26.4160   33.5140 N   0  0  0  0  0  0  0  0  0  0  0  0
   37.0410   27.6130   34.1140 C   0  0  0  0  0  0  0  0  0  0  0  0
   37.7070   27.7910   35.2810 N   0  0  0  0  0  0  0  0  0  0  0  0
   38.9250   26.8840   36.7690 H   0  0  0  0  0  0  0  0  0  0  0  0
   37.7480   24.3660   33.5520 H   0  0  0  0  0  0  0  0  0  0  0  0
   39.1440   24.4610   35.8530 N   0  0  0  0  0  0  0  0  0  0  0  0
   40.4170   24.1750   35.5150 C   0  0  0  0  0  0  0  0  0  0  0  0
   41.0930   23.1490   36.1880 C   0  0  0  0  0  0  0  0  0  0  0  0
   40.3630   22.5200   37.1540 C   0  0  0  0  0  0  0  0  0  0  0  0
   40.9970   21.5960   37.7480 O   0  0  0  0  0  0  0  0  0  0  0  0
   39.1020   22.7830   37.5070 N   0  0  0  0  0  0  0  0  0  0  0  0
   38.5020   23.7810   36.8250 C   0  0  0  0  0  0  0  0  0  0  0  0
   37.3030   24.0400   37.1520 O   0  0  0  0  0  0  0  0  0  0  0  0
   40.9270   24.7360   34.7220 H   0  0  0  0  0  0  0  0  0  0  0  0
   42.1140   22.8970   35.9390 H   0  0  0  0  0  0  0  0  0  0  0  0
   38.6180   22.2470   38.2650 H   0  0  0  0  0  0  0  0  0  0  0  0
   36.3500   28.6800   33.5580 O   0  0  0  0  0  0  0  0  0  0  0  0
   34.2490   29.8350   33.2580 C   0  0  2  0  0  3  0  0  0  0  0  0
   35.2610   29.2480   34.2200 C   0  0  2  0  0  3  0  0  0  0  0  0
   35.6200   30.4500   35.0430 C   0  0  0  0  0  3  0  0  0  0  0  0
   36.0010   30.1760   36.0550 H   0  0  0  0  0  0  0  0  0  0  0  0
   34.4770   31.2300   35.1340 O   0  0  0  0  0  0  0  0  0  0  0  0
   33.7450   31.0360   33.9770 C   0  0  0  0  0  3  0  0  0  0  0  0
   33.7800   31.9420   33.3240 H   0  0  0  0  0  0  0  0  0  0  0  0
   33.2460   28.9230   32.9620 O   0  0  0  0  0  0  0  0  0  0  0  0
   32.5140   29.4260   32.5230 H   0  0  0  0  0  0  0  0  0  0  0  0
  1  7  1  0  0  0  0
  2  1  2  0  0  0  0
  2  9  1  0  0  0  0
  3  2  1  0  0  0  0
  4  3  2  0  0  0  0
  4  5  1  0  0  0  0
  5  6  2  0  0  0  0
  6  1  1  0  0  0  0
  8  3  1  0  0  0  0
  9 15  1  0  0  0  0
 10  9  1  0  0  0  0
 10 11  2  0  0  0  0
 11 12  1  0  0  0  0
 12 14  1  0  0  0  0
 12 13  2  0  0  0  0
 14 19  1  0  0  0  0
 15 16  2  0  0  0  0
 15 14  1  0  0  0  0
 17 10  1  0  0  0  0
 18 11  1  0  0  0  0
 20  5  1  0  0  0  0
 21 28  1  1  0  0  0
 21 26  1  0  0  0  0
 21 22  1  0  0  0  0
 22 20  1  6  0  0  0
 22 23  1  0  0  0  0
 23 25  1  0  0  0  0
 23 24  1  0  0  0  0
 26 25  1  0  0  0  0
 27 26  1  0  0  0  0
 29 28  1  0  0  0  0
M  END
>  <minimizedAffinity>
-5.24540186

$$$$

 OpenBabel03272500053D

 29 31  0  0  1  0  0  0  0  0999 V2000
   37.3330   25.7970   33.3260 C   0  0  0  0  0  0  0  0  0  0  0  0
   38.2440   26.8290   32.9750 C   0  0  0  0  0  0  0  0  0  0  0  0
   39.2470   27.1350   33.8710 C   0  0  0  0  0  0  0  0  0  0  0  0
   39.3100   26.4370   35.0360 N   0  0  0  0  0  0  0  0  0  0  0  0
   38.4450   25.4660   35.3560 C   0  0  0  0  0  0  0  0  0  0  0  0
   37.4490   25.1420   34.4950 N   0  0  0  0  0  0  0  0  0  0  0  0
   36.5400   25.5540   32.6180 H   0  0  0  0  0  0  0  0  0  0  0  0
   39.9330   27.9220   33.5920 H   0  0  0  0  0  0  0  0  0  0  0  0
   38.0510   27.4700   31.7210 N   0  0  0  0  0  0  0  0  0  0  0  0
   37.3020   28.5850   31.5980 C   0  0  0  0  0  0  0  0  0  0  0  0
   37.1470   29.1730   30.3370 C   0  0  0  0  0  0  0  0  0  0  0  0
   37.7970   28.5320   29.3220 C   0  0  0  0  0  0  0  0  0  0  0  0
   37.6410   29.0840   28.1910 O   0  0  0  0  0  0  0  0  0  0  0  0
   38.5440   27.4280   29.4170 N   0  0  0  0  0  0  0  0  0  0  0  0
   38.6570   26.9070   30.6570 C   0  0  0  0  0  0  0  0  0  0  0  0
   39.3650   25.8570   30.7590 O   0  0  0  0  0  0  0  0  0  0  0  0
   36.8150   29.0330   32.4720 H   0  0  0  0  0  0  0  0  0  0  0  0
   36.5520   30.0660   30.2070 H   0  0  0  0  0  0  0  0  0  0  0  0
   39.0080   27.0030   28.5810 H   0  0  0  0  0  0  0  0  0  0  0  0
   38.5520   24.7820   36.5570 O   0  0  0  0  0  0  0  0  0  0  0  0
   39.6370   23.0730   37.8760 C   0  0  2  0  0  3  0  0  0  0  0  0
   38.9350   23.4410   36.5860 C   0  0  2  0  0  3  0  0  0  0  0  0
   39.9810   23.0940   35.5690 C   0  0  0  0  0  3  0  0  0  0  0  0
   39.5450   22.8750   34.5660 H   0  0  0  0  0  0  0  0  0  0  0  0
   40.6740   21.9990   36.0630 O   0  0  0  0  0  0  0  0  0  0  0  0
   40.6590   22.0830   37.4420 C   0  0  0  0  0  3  0  0  0  0  0  0
   41.6700   22.3460   37.8380 H   0  0  0  0  0  0  0  0  0  0  0  0
   38.7470   22.5570   38.8070 O   0  0  0  0  0  0  0  0  0  0  0  0
   39.2850   22.1350   39.5240 H   0  0  0  0  0  0  0  0  0  0  0  0
  1  6  1  0  0  0  0
  2  1  2  0  0  0  0
  2  3  1  0  0  0  0
  3  4  2  0  0  0  0
  4  5  1  0  0  0  0
  5 20  1  0  0  0  0
  6  5  2  0  0  0  0
  7  1  1  0  0  0  0
  8  3  1  0  0  0  0
  9  2  1  0  0  0  0
 10  9  1  0  0  0  0
 10 17  1  0  0  0  0
 11 10  2  0  0  0  0
 12 14  1  0  0  0  0
 12 11  1  0  0  0  0
 13 12  2  0  0  0  0
 14 15  1  0  0  0  0
 15 16  2  0  0  0  0
 15  9  1  0  0  0  0
 18 11  1  0  0  0  0
 19 14  1  0  0  0  0
 21 28  1  1  0  0  0
 22 20  1  1  0  0  0
 22 21  1  0  0  0  0
 23 25  1  0  0  0  0
 23 22  1  0  0  0  0
 24 23  1  0  0  0  0
 25 26  1  0  0  0  0
 26 27  1  0  0  0  0
 26 21  1  0  0  0  0
 28 29  1  0  0  0  0
M  END
>  <minimizedAffinity>
-5.07213163

$$$$

 OpenBabel03272500053D

 29 31  0  0  1  0  0  0  0  0999 V2000
   38.1800   24.1430   33.4850 C   0  0  0  0  0  0  0  0  0  0  0  0
   38.5930   24.6390   34.7500 C   0  0  0  0  0  0  0  0  0  0  0  0
   38.1770   25.9020   35.1140 C   0  0  0  0  0  0  0  0  0  0  0  0
   37.3980   26.6030   34.2470 N   0  0  0  0  0  0  0  0  0  0  0  0
   37.0140   26.1240   33.0560 C   0  0  0  0  0  0  0  0  0  0  0  0
   37.4070   24.8850   32.6710 N   0  0  0  0  0  0  0  0  0  0  0  0
   38.5080   23.1440   33.1970 H   0  0  0  0  0  0  0  0  0  0  0  0
   38.4980   26.2690   36.0790 H   0  0  0  0  0  0  0  0  0  0  0  0
   39.4080   23.7910   35.5490 N   0  0  0  0  0  0  0  0  0  0  0  0
   40.7510   23.7770   35.4310 C   0  0  0  0  0  0  0  0  0  0  0  0
   41.5030   22.9190   36.2450 C   0  0  0  0  0  0  0  0  0  0  0  0
   40.7690   22.1580   37.1070 C   0  0  0  0  0  0  0  0  0  0  0  0
   41.4720   21.3910   37.8320 O   0  0  0  0  0  0  0  0  0  0  0  0
   39.4400   22.1540   37.2430 N   0  0  0  0  0  0  0  0  0  0  0  0
   38.7690   22.9990   36.4330 C   0  0  0  0  0  0  0  0  0  0  0  0
   37.5040   23.0030   36.5530 O   0  0  0  0  0  0  0  0  0  0  0  0
   41.2590   24.4260   34.7080 H   0  0  0  0  0  0  0  0  0  0  0  0
   42.5810   22.8850   36.1730 H   0  0  0  0  0  0  0  0  0  0  0  0
   38.9580   21.5330   37.9350 H   0  0  0  0  0  0  0  0  0  0  0  0
   36.2180   26.8770   32.2060 O   0  0  0  0  0  0  0  0  0  0  0  0
   35.1970   28.9740   32.8360 C   0  0  2  0  0  3  0  0  0  0  0  0
   36.3460   28.2650   32.1500 C   0  0  2  0  0  3  0  0  0  0  0  0
   36.2530   28.8210   30.7610 C   0  0  0  0  0  3  0  0  0  0  0  0
   37.2260   28.7810   30.2180 H   0  0  0  0  0  0  0  0  0  0  0  0
   35.8010   30.1270   30.8800 O   0  0  0  0  0  0  0  0  0  0  0  0
   34.9950   30.1900   32.0010 C   0  0  0  0  0  3  0  0  0  0  0  0
   33.9210   30.3100   31.7160 H   0  0  0  0  0  0  0  0  0  0  0  0
   35.5010   29.2720   34.1570 O   0  0  0  0  0  0  0  0  0  0  0  0
   34.8210   29.9180   34.4750 H   0  0  0  0  0  0  0  0  0  0  0  0
  1  2  1  0  0  0  0
  2  3  2  0  0  0  0
  2  9  1  0  0  0  0
  3  8  1  0  0  0  0
  4  3  1  0  0  0  0
  5  4  2  0  0  0  0
  6  5  1  0  0  0  0
  6  1  2  0  0  0  0
  7  1  1  0  0  0  0
  9 15  1  0  0  0  0
 10  9  1  0  0  0  0
 10 11  2  0  0  0  0
 11 12  1  0  0  0  0
 12 14  1  0  0  0  0
 12 13  2  0  0  0  0
 14 19  1  0  0  0  0
 15 16  2  0  0  0  0
 15 14  1  0  0  0  0
 17 10  1  0  0  0  0
 18 11  1  0  0  0  0
 20  5  1  0  0  0  0
 21 28  1  1  0  0  0
 22 20  1  6  0  0  0
 22 21  1  0  0  0  0
 23 25  1  0  0  0  0
 23 22  1  0  0  0  0
 24 23  1  0  0  0  0
 25 26  1  0  0  0  0
 26 21  1  0  0  0  0
 27 26  1  0  0  0  0
 28 29  1  0  0  0  0
M  END
>  <minimizedAffinity>
-4.98939943

$$$$

 OpenBabel03272500053D

 29 31  0  0  1  0  0  0  0  0999 V2000
   35.9920   29.5820   32.7050 C   0  0  0  0  0  0  0  0  0  0  0  0
   35.9340   29.2740   34.0910 C   0  0  0  0  0  0  0  0  0  0  0  0
   36.5440   28.1130   34.5180 C   0  0  0  0  0  0  0  0  0  0  0  0
   37.1640   27.3290   33.5960 N   0  0  0  0  0  0  0  0  0  0  0  0
   37.2120   27.6310   32.2920 C   0  0  0  0  0  0  0  0  0  0  0  0
   36.6220   28.7660   31.8420 N   0  0  0  0  0  0  0  0  0  0  0  0
   35.5110   30.5010   32.3670 H   0  0  0  0  0  0  0  0  0  0  0  0
   36.4920   27.8890   35.5740 H   0  0  0  0  0  0  0  0  0  0  0  0
   35.2490   30.1900   34.9350 N   0  0  0  0  0  0  0  0  0  0  0  0
   35.9070   31.1020   35.6780 C   0  0  0  0  0  0  0  0  0  0  0  0
   35.1790   31.9790   36.4920 C   0  0  0  0  0  0  0  0  0  0  0  0
   33.8250   31.8130   36.4460 C   0  0  0  0  0  0  0  0  0  0  0  0
   33.1890   32.6180   37.1910 O   0  0  0  0  0  0  0  0  0  0  0  0
   33.1500   30.9170   35.7200 N   0  0  0  0  0  0  0  0  0  0  0  0
   33.9040   30.1000   34.9560 C   0  0  0  0  0  0  0  0  0  0  0  0
   33.2720   29.2450   34.2610 O   0  0  0  0  0  0  0  0  0  0  0  0
   37.0010   31.1650   35.6510 H   0  0  0  0  0  0  0  0  0  0  0  0
   35.6780   32.7210   37.0990 H   0  0  0  0  0  0  0  0  0  0  0  0
   32.1050   30.8610   35.7470 H   0  0  0  0  0  0  0  0  0  0  0  0
   37.8570   26.7990   31.3900 O   0  0  0  0  0  0  0  0  0  0  0  0
   35.7830   25.5740   31.1990 C   0  0  2  0  0  3  0  0  0  0  0  0
   37.2840   25.5890   30.9960 C   0  0  2  0  0  3  0  0  0  0  0  0
   37.7100   24.4220   31.8370 C   0  0  0  0  0  3  0  0  0  0  0  0
   38.6820   23.9880   31.5040 H   0  0  0  0  0  0  0  0  0  0  0  0
   36.6920   23.4830   31.7640 O   0  0  0  0  0  0  0  0  0  0  0  0
   35.5030   24.1670   31.5930 C   0  0  0  0  0  3  0  0  0  0  0  0
   34.8800   24.1230   32.5190 H   0  0  0  0  0  0  0  0  0  0  0  0
   35.1130   25.9540   30.0450 O   0  0  0  0  0  0  0  0  0  0  0  0
   34.1610   25.7110   30.1660 H   0  0  0  0  0  0  0  0  0  0  0  0
  1  2  1  0  0  0  0
  2  3  2  0  0  0  0
  2  9  1  0  0  0  0
  3  8  1  0  0  0  0
  4  3  1  0  0  0  0
  5  4  2  0  0  0  0
  6  5  1  0  0  0  0
  6  1  2  0  0  0  0
  7  1  1  0  0  0  0
  9 15  1  0  0  0  0
  9 10  1  0  0  0  0
 10 11  2  0  0  0  0
 11 18  1  0  0  0  0
 12 11  1  0  0  0  0
 12 13  2  0  0  0  0
 14 19  1  0  0  0  0
 14 12  1  0  0  0  0
 15 14  1  0  0  0  0
 16 15  2  0  0  0  0
 17 10  1  0  0  0  0
 20  5  1  0  0  0  0
 21 28  1  6  0  0  0
 21 26  1  0  0  0  0
 22 21  1  0  0  0  0
 22 20  1  1  0  0  0
 22 23  1  0  0  0  0
 24 23  1  0  0  0  0
 25 23  1  0  0  0  0
 26 25  1  0  0  0  0
 26 27  1  0  0  0  0
 28 29  1  0  0  0  0
M  END
>  <minimizedAffinity>
-4.96216059

$$$$

 OpenBabel03272500053D

 29 31  0  0  1  0  0  0  0  0999 V2000
   38.1370   25.5540   34.6870 C   0  0  0  0  0  0  0  0  0  0  0  0
   38.4750   24.2220   34.3250 C   0  0  0  0  0  0  0  0  0  0  0  0
   37.9580   23.7240   33.1480 C   0  0  0  0  0  0  0  0  0  0  0  0
   37.1550   24.5280   32.4010 N   0  0  0  0  0  0  0  0  0  0  0  0
   36.8430   25.7820   32.7530 C   0  0  0  0  0  0  0  0  0  0  0  0
   37.3370   26.3000   33.9040 N   0  0  0  0  0  0  0  0  0  0  0  0
   38.5460   25.9490   35.6170 H   0  0  0  0  0  0  0  0  0  0  0  0
   38.2220   22.7090   32.8840 H   0  0  0  0  0  0  0  0  0  0  0  0
   39.3250   23.5030   35.2080 N   0  0  0  0  0  0  0  0  0  0  0  0
   40.6690   23.5960   35.1370 C   0  0  0  0  0  0  0  0  0  0  0  0
   41.4570   22.8630   36.0330 C   0  0  0  0  0  0  0  0  0  0  0  0
   40.7550   22.1010   36.9220 C   0  0  0  0  0  0  0  0  0  0  0  0
   41.4910   21.4470   37.7220 O   0  0  0  0  0  0  0  0  0  0  0  0
   39.4270   21.9910   37.0120 N   0  0  0  0  0  0  0  0  0  0  0  0
   38.7200   22.7200   36.1230 C   0  0  0  0  0  0  0  0  0  0  0  0
   37.4560   22.6230   36.2010 O   0  0  0  0  0  0  0  0  0  0  0  0
   41.1480   24.2370   34.3880 H   0  0  0  0  0  0  0  0  0  0  0  0
   42.5360   22.9170   36.0010 H   0  0  0  0  0  0  0  0  0  0  0  0
   38.9720   21.3780   37.7290 H   0  0  0  0  0  0  0  0  0  0  0  0
   36.0200   26.5630   31.9560 O   0  0  0  0  0  0  0  0  0  0  0  0
   38.0300   27.0710   30.7160 C   0  0  2  0  0  3  0  0  0  0  0  0
   36.5340   27.2550   30.8590 C   0  0  2  0  0  3  0  0  0  0  0  0
   36.4290   28.7460   30.9870 C   0  0  0  0  0  3  0  0  0  0  0  0
   35.4300   29.1320   30.6730 H   0  0  0  0  0  0  0  0  0  0  0  0
   37.4410   29.2870   30.2100 O   0  0  0  0  0  0  0  0  0  0  0  0
   38.4930   28.3910   30.2090 C   0  0  0  0  0  3  0  0  0  0  0  0
   39.3500   28.7780   30.8130 H   0  0  0  0  0  0  0  0  0  0  0  0
   38.3310   26.0260   29.8530 O   0  0  0  0  0  0  0  0  0  0  0  0
   39.2930   26.1000   29.6280 H   0  0  0  0  0  0  0  0  0  0  0  0
  1  7  1  0  0  0  0
  2  1  1  0  0  0  0
  2  9  1  0  0  0  0
  3  2  2  0  0  0  0
  4  5  2  0  0  0  0
  4  3  1  0  0  0  0
  5  6  1  0  0  0  0
  6  1  2  0  0  0  0
  8  3  1  0  0  0  0
  9 15  1  0  0  0  0
 10  9  1  0  0  0  0
 10 11  2  0  0  0  0
 11 12  1  0  0  0  0
 12 14  1  0  0  0  0
 12 13  2  0  0  0  0
 14 19  1  0  0  0  0
 15 16  2  0  0  0  0
 15 14  1  0  0  0  0
 17 10  1  0  0  0  0
 18 11  1  0  0  0  0
 20  5  1  0  0  0  0
 21 28  1  6  0  0  0
 21 22  1  0  0  0  0
 22 23  1  0  0  0  0
 22 20  1  1  0  0  0
 24 23  1  0  0  0  0
 25 23  1  0  0  0  0
 26 25  1  0  0  0  0
 26 21  1  0  0  0  0
 26 27  1  0  0  0  0
 29 28  1  0  0  0  0
M  END
>  <minimizedAffinity>
-4.9339366

$$$$

 OpenBabel03272500053D

 29 31  0  0  1  0  0  0  0  0999 V2000
   35.6200   24.4370   31.1720 C   0  0  0  0  0  0  0  0  0  0  0  0
   36.4320   23.5590   31.9390 C   0  0  0  0  0  0  0  0  0  0  0  0
   37.3130   24.1200   32.8400 C   0  0  0  0  0  0  0  0  0  0  0  0
   37.3580   25.4750   32.9450 N   0  0  0  0  0  0  0  0  0  0  0  0
   36.5860   26.2920   32.2170 C   0  0  0  0  0  0  0  0  0  0  0  0
   35.7100   25.7700   31.3230 N   0  0  0  0  0  0  0  0  0  0  0  0
   34.9230   23.9950   30.4600 H   0  0  0  0  0  0  0  0  0  0  0  0
   37.9260   23.4420   33.4170 H   0  0  0  0  0  0  0  0  0  0  0  0
   36.2740   22.1640   31.7180 N   0  0  0  0  0  0  0  0  0  0  0  0
   35.2550   21.4680   32.2610 C   0  0  0  0  0  0  0  0  0  0  0  0
   35.1500   20.0940   32.0090 C   0  0  0  0  0  0  0  0  0  0  0  0
   36.1290   19.5820   31.2080 C   0  0  0  0  0  0  0  0  0  0  0  0
   36.0110   18.3380   30.9950 O   0  0  0  0  0  0  0  0  0  0  0  0
   37.1480   20.2490   30.6590 N   0  0  0  0  0  0  0  0  0  0  0  0
   37.1980   21.5690   30.9370 C   0  0  0  0  0  0  0  0  0  0  0  0
   38.1630   22.2130   30.4200 O   0  0  0  0  0  0  0  0  0  0  0  0
   34.5100   21.9650   32.8950 H   0  0  0  0  0  0  0  0  0  0  0  0
   34.3440   19.5100   32.4290 H   0  0  0  0  0  0  0  0  0  0  0  0
   37.8570   19.7720   30.0540 H   0  0  0  0  0  0  0  0  0  0  0  0
   36.6690   27.6680   32.3610 O   0  0  0  0  0  0  0  0  0  0  0  0
   36.9810   28.8710   30.2890 C   0  0  2  0  0  3  0  0  0  0  0  0
   36.0610   28.5220   31.4400 C   0  0  2  0  0  3  0  0  0  0  0  0
   35.7490   29.8800   31.9940 C   0  0  0  0  0  3  0  0  0  0  0  0
   34.7810   29.9030   32.5470 H   0  0  0  0  0  0  0  0  0  0  0  0
   35.7330   30.7570   30.9200 O   0  0  0  0  0  0  0  0  0  0  0  0
   36.6240   30.2810   29.9770 C   0  0  0  0  0  3  0  0  0  0  0  0
   37.5340   30.9270   29.9240 H   0  0  0  0  0  0  0  0  0  0  0  0
   36.7920   28.0160   29.2120 O   0  0  0  0  0  0  0  0  0  0  0  0
   37.2450   28.4240   28.4310 H   0  0  0  0  0  0  0  0  0  0  0  0
  1  6  2  0  0  0  0
  1  2  1  0  0  0  0
  2  3  2  0  0  0  0
  3  4  1  0  0  0  0
  3  8  1  0  0  0  0
  5 20  1  0  0  0  0
  5  4  2  0  0  0  0
  6  5  1  0  0  0  0
  7  1  1  0  0  0  0
  9  2  1  0  0  0  0
  9 10  1  0  0  0  0
 10 17  1  0  0  0  0
 11 10  2  0  0  0  0
 11 18  1  0  0  0  0
 12 11  1  0  0  0  0
 13 12  2  0  0  0  0
 14 15  1  0  0  0  0
 14 12  1  0  0  0  0
 15  9  1  0  0  0  0
 16 15  2  0  0  0  0
 19 14  1  0  0  0  0
 21 28  1  6  0  0  0
 21 22  1  0  0  0  0
 22 23  1  0  0  0  0
 22 20  1  1  0  0  0
 23 24  1  0  0  0  0
 25 23  1  0  0  0  0
 26 21  1  0  0  0  0
 26 25  1  0  0  0  0
 27 26  1  0  0  0  0
 29 28  1  0  0  0  0
M  END
>  <minimizedAffinity>
-4.90417767

$$$$

 OpenBabel03272500053D

 29 31  0  0  1  0  0  0  0  0999 V2000
   38.3730   25.0080   31.8140 C   0  0  0  0  0  0  0  0  0  0  0  0
   38.1340   26.3840   32.0760 C   0  0  0  0  0  0  0  0  0  0  0  0
   37.9260   26.7620   33.3860 C   0  0  0  0  0  0  0  0  0  0  0  0
   37.9580   25.8050   34.3510 N   0  0  0  0  0  0  0  0  0  0  0  0
   38.1840   24.5110   34.0900 C   0  0  0  0  0  0  0  0  0  0  0  0
   38.3930   24.1080   32.8130 N   0  0  0  0  0  0  0  0  0  0  0  0
   38.5390   24.7080   30.7790 H   0  0  0  0  0  0  0  0  0  0  0  0
   37.7450   27.8120   33.5730 H   0  0  0  0  0  0  0  0  0  0  0  0
   38.1300   27.2690   30.9640 N   0  0  0  0  0  0  0  0  0  0  0  0
   39.2610   27.8410   30.5040 C   0  0  0  0  0  0  0  0  0  0  0  0
   39.1960   28.7060   29.4040 C   0  0  0  0  0  0  0  0  0  0  0  0
   37.9440   28.8860   28.8920 C   0  0  0  0  0  0  0  0  0  0  0  0
   37.9110   29.6730   27.8970 O   0  0  0  0  0  0  0  0  0  0  0  0
   36.8090   28.3330   29.3290 N   0  0  0  0  0  0  0  0  0  0  0  0
   36.9340   27.5090   30.3900 C   0  0  0  0  0  0  0  0  0  0  0  0
   35.8610   26.9780   30.8140 O   0  0  0  0  0  0  0  0  0  0  0  0
   40.2280   27.6360   30.9800 H   0  0  0  0  0  0  0  0  0  0  0  0
   40.0850   29.1790   29.0130 H   0  0  0  0  0  0  0  0  0  0  0  0
   35.8880   28.5300   28.8720 H   0  0  0  0  0  0  0  0  0  0  0  0
   38.2070   23.5710   35.1100 O   0  0  0  0  0  0  0  0  0  0  0  0
   40.2060   22.8670   36.2710 C   0  0  2  0  0  3  0  0  0  0  0  0
   38.9900   23.7700   36.2470 C   0  0  2  0  0  3  0  0  0  0  0  0
   38.3060   23.3800   37.5230 C   0  0  0  0  0  3  0  0  0  0  0  0
   37.6500   24.1890   37.9210 H   0  0  0  0  0  0  0  0  0  0  0  0
   39.3030   23.0540   38.4300 O   0  0  0  0  0  0  0  0  0  0  0  0
   40.3710   22.5470   37.7150 C   0  0  0  0  0  3  0  0  0  0  0  0
   40.4740   21.4460   37.8760 H   0  0  0  0  0  0  0  0  0  0  0  0
   41.3160   23.4980   35.7280 O   0  0  0  0  0  0  0  0  0  0  0  0
   42.1090   22.9580   35.9730 H   0  0  0  0  0  0  0  0  0  0  0  0
  1  2  2  0  0  0  0
  1  6  1  0  0  0  0
  2  3  1  0  0  0  0
  3  8  1  0  0  0  0
  3  4  2  0  0  0  0
  5  4  1  0  0  0  0
  5 20  1  0  0  0  0
  6  5  2  0  0  0  0
  7  1  1  0  0  0  0
  9  2  1  0  0  0  0
 10  9  1  0  0  0  0
 10 17  1  0  0  0  0
 11 10  2  0  0  0  0
 12 14  1  0  0  0  0
 12 11  1  0  0  0  0
 13 12  2  0  0  0  0
 14 15  1  0  0  0  0
 15 16  2  0  0  0  0
 15  9  1  0  0  0  0
 18 11  1  0  0  0  0
 19 14  1  0  0  0  0
 21 28  1  1  0  0  0
 21 26  1  0  0  0  0
 22 20  1  6  0  0  0
 22 21  1  0  0  0  0
 22 23  1  0  0  0  0
 23 24  1  0  0  0  0
 23 25  1  0  0  0  0
 26 27  1  0  0  0  0
 26 25  1  0  0  0  0
 28 29  1  0  0  0  0
M  END
>  <minimizedAffinity>
-4.89573956

$$$$

 OpenBabel03272500053D

 29 31  0  0  1  0  0  0  0  0999 V2000
   37.3350   24.6250   32.8130 C   0  0  0  0  0  0  0  0  0  0  0  0
   38.0060   25.8730   32.9160 C   0  0  0  0  0  0  0  0  0  0  0  0
   39.1880   25.9110   33.6260 C   0  0  0  0  0  0  0  0  0  0  0  0
   39.6450   24.7600   34.1870 N   0  0  0  0  0  0  0  0  0  0  0  0
   39.0030   23.5890   34.0820 C   0  0  0  0  0  0  0  0  0  0  0  0
   37.8390   23.5200   33.3900 N   0  0  0  0  0  0  0  0  0  0  0  0
   36.4010   24.5940   32.2510 H   0  0  0  0  0  0  0  0  0  0  0  0
   39.6890   26.8660   33.6990 H   0  0  0  0  0  0  0  0  0  0  0  0
   37.4060   26.9910   32.2770 N   0  0  0  0  0  0  0  0  0  0  0  0
   37.5110   27.1930   30.9480 C   0  0  0  0  0  0  0  0  0  0  0  0
   36.8990   28.3140   30.3720 C   0  0  0  0  0  0  0  0  0  0  0  0
   36.2320   29.1170   31.2520 C   0  0  0  0  0  0  0  0  0  0  0  0
   35.6870   30.1240   30.7070 O   0  0  0  0  0  0  0  0  0  0  0  0
   36.1140   28.9400   32.5700 N   0  0  0  0  0  0  0  0  0  0  0  0
   36.7240   27.8440   33.0680 C   0  0  0  0  0  0  0  0  0  0  0  0
   36.6190   27.6660   34.3210 O   0  0  0  0  0  0  0  0  0  0  0  0
   38.0680   26.4910   30.3150 H   0  0  0  0  0  0  0  0  0  0  0  0
   36.9650   28.5020   29.3100 H   0  0  0  0  0  0  0  0  0  0  0  0
   35.5810   29.6110   33.1710 H   0  0  0  0  0  0  0  0  0  0  0  0
   39.5100   22.4410   34.6720 O   0  0  0  0  0  0  0  0  0  0  0  0
   38.1540   22.9480   36.6070 C   0  0  2  0  0  3  0  0  0  0  0  0
   39.3460   22.2080   36.0380 C   0  0  2  0  0  3  0  0  0  0  0  0
   40.4630   22.7520   36.8790 C   0  0  0  0  0  3  0  0  0  0  0  0
   41.3320   22.0560   36.9360 H   0  0  0  0  0  0  0  0  0  0  0  0
   39.9350   22.9970   38.1370 O   0  0  0  0  0  0  0  0  0  0  0  0
   38.6010   23.3230   37.9760 C   0  0  0  0  0  3  0  0  0  0  0  0
   38.4270   24.4080   38.1740 H   0  0  0  0  0  0  0  0  0  0  0  0
   37.0180   22.1500   36.6110 O   0  0  0  0  0  0  0  0  0  0  0  0
   36.3480   22.5970   37.1880 H   0  0  0  0  0  0  0  0  0  0  0  0
  1  2  2  0  0  0  0
  1  6  1  0  0  0  0
  2  3  1  0  0  0  0
  3  8  1  0  0  0  0
  3  4  2  0  0  0  0
  5  4  1  0  0  0  0
  5 20  1  0  0  0  0
  6  5  2  0  0  0  0
  7  1  1  0  0  0  0
  9  2  1  0  0  0  0
  9 15  1  0  0  0  0
 10  9  1  0  0  0  0
 11 10  2  0  0  0  0
 11 12  1  0  0  0  0
 12 14  1  0  0  0  0
 13 12  2  0  0  0  0
 14 15  1  0  0  0  0
 14 19  1  0  0  0  0
 15 16  2  0  0  0  0
 17 10  1  0  0  0  0
 18 11  1  0  0  0  0
 21 28  1  1  0  0  0
 21 26  1  0  0  0  0
 22 20  1  6  0  0  0
 22 21  1  0  0  0  0
 22 23  1  0  0  0  0
 23 24  1  0  0  0  0
 23 25  1  0  0  0  0
 26 25  1  0  0  0  0
 26 27  1  0  0  0  0
 28 29  1  0  0  0  0
M  END
>  <minimizedAffinity>
-4.88282919

$$$$
