
 OpenBabel03272502583D

 34 36  0  0  1  0  0  0  0  0999 V2000
   37.0910   30.5320   48.4550 N   0  0  0  0  0  0  0  0  0  0  0  0
   38.0700   30.1660   49.4500 C   0  0  0  0  0  0  0  0  0  0  0  0
   38.6100   31.2280   50.2980 C   0  0  0  0  0  0  0  0  0  0  0  0
   38.6050   32.6130   49.7940 C   0  0  0  0  0  0  0  0  0  0  0  0
   37.6130   32.8750   48.6790 C   0  0  0  0  0  0  0  0  0  0  0  0
   37.5980   31.6860   47.7410 C   0  0  1  0  0  0  0  0  0  0  0  0
   37.6270   29.3360   50.0510 H   0  0  0  0  0  0  0  0  0  0  0  0
   38.9140   29.6920   48.8900 H   0  0  0  0  0  0  0  0  0  0  0  0
   38.0550   31.1940   51.2720 H   0  0  0  0  0  0  0  0  0  0  0  0
   39.6590   30.9730   50.5900 H   0  0  0  0  0  0  0  0  0  0  0  0
   38.3360   33.3300   50.5980 H   0  0  0  0  0  0  0  0  0  0  0  0
   39.6100   32.9470   49.4410 H   0  0  0  0  0  0  0  0  0  0  0  0
   37.9610   33.7800   48.1430 H   0  0  0  0  0  0  0  0  0  0  0  0
   36.5950   33.0840   49.0270 H   0  0  0  0  0  0  0  0  0  0  0  0
   37.0340   31.8990   46.8190 H   0  0  0  0  0  0  0  0  0  0  0  0
   35.8540   29.8660   48.2320 C   0  0  0  0  0  0  0  0  0  0  0  0
   34.9790   30.1700   47.1770 C   0  0  0  0  0  0  0  0  0  0  0  0
   33.7980   29.4440   47.0690 C   0  0  0  0  0  0  0  0  0  0  0  0
   33.5660   28.4740   48.0030 N   0  0  0  0  0  0  0  0  0  0  0  0
   34.4260   28.2160   48.9940 C   0  0  0  0  0  0  0  0  0  0  0  0
   35.5720   28.9100   49.1130 N   0  0  0  0  0  0  0  0  0  0  0  0
   35.2590   30.9440   46.5070 H   0  0  0  0  0  0  0  0  0  0  0  0
   33.1180   29.6630   46.2690 H   0  0  0  0  0  0  0  0  0  0  0  0
   34.1500   27.4190   49.6950 H   0  0  0  0  0  0  0  0  0  0  0  0
   38.9380   31.5080   47.3530 O   0  0  0  0  0  0  0  0  0  0  0  0
   40.5210   31.9170   45.6080 C   0  0  2  0  0  3  0  0  0  0  0  0
   39.2600   32.3790   46.2990 C   0  0  1  0  0  3  0  0  0  0  0  0
   38.2290   32.2950   45.2180 C   0  0  0  0  0  3  0  0  0  0  0  0
   37.2860   31.8430   45.6440 H   0  0  0  0  0  0  0  0  0  0  0  0
   38.7570   31.4630   44.2330 O   0  0  0  0  0  0  0  0  0  0  0  0
   40.0770   31.8530   44.1560 C   0  0  0  0  0  3  0  0  0  0  0  0
   40.7400   31.1120   43.6640 H   0  0  0  0  0  0  0  0  0  0  0  0
   40.9110   30.6580   46.0180 O   0  0  0  0  0  0  0  0  0  0  0  0
   41.8880   30.5870   46.2220 H   0  0  0  0  0  0  0  0  0  0  0  0
  1  2  1  0  0  0  0
  2  7  1  0  0  0  0
  2  3  1  0  0  0  0
  3 10  1  0  0  0  0
  3  9  1  0  0  0  0
  4  3  1  0  0  0  0
  4 11  1  0  0  0  0
  5 14  1  0  0  0  0
  5  4  1  0  0  0  0
  6 15  1  6  0  0  0
  6  1  1  0  0  0  0
  6  5  1  0  0  0  0
  8  2  1  0  0  0  0
 12  4  1  0  0  0  0
 13  5  1  0  0  0  0
 16  1  1  0  0  0  0
 16 21  1  0  0  0  0
 17 16  2  0  0  0  0
 18 17  1  0  0  0  0
 18 19  2  0  0  0  0
 19 20  1  0  0  0  0
 20 21  2  0  0  0  0
 20 24  1  0  0  0  0
 22 17  1  0  0  0  0
 23 18  1  0  0  0  0
 25  6  1  0  0  0  0
 26 33  1  1  0  0  0
 26 27  1  0  0  0  0
 27 25  1  1  0  0  0
 28 29  1  0  0  0  0
 28 27  1  0  0  0  0
 30 28  1  0  0  0  0
 31 30  1  0  0  0  0
 31 26  1  0  0  0  0
 32 31  1  0  0  0  0
 33 34  1  0  0  0  0
M  END
>  <minimizedAffinity>
-5.54972696

>  <minimizedRMSD>
2.0116477

$$$$
