
 OpenBabel03272508023D

 24 26  0  0  0  0  0  0  0  0999 V2000
   37.7410   30.8010   46.5240 C   0  0  0  0  0  0  0  0  0  0  0  0
   38.0280   31.0920   47.8830 C   0  0  0  0  0  0  0  0  0  0  0  0
   37.0020   30.9380   48.8120 C   0  0  0  0  0  0  0  0  0  0  0  0
   35.7770   30.5170   48.3660 N   0  0  0  0  0  0  0  0  0  0  0  0
   35.5350   30.2490   47.0720 C   0  0  0  0  0  0  0  0  0  0  0  0
   36.5280   30.3960   46.1610 N   0  0  0  0  0  0  0  0  0  0  0  0
   38.9940   31.4180   48.2010 H   0  0  0  0  0  0  0  0  0  0  0  0
   34.5420   29.9180   46.7700 H   0  0  0  0  0  0  0  0  0  0  0  0
   38.8160   30.9620   45.5530 C   0  0  0  0  0  0  0  0  0  0  0  0
   39.7500   31.9570   45.4940 C   0  0  0  0  0  0  0  0  0  0  0  0
   40.6040   31.7450   44.4110 C   0  0  0  0  0  0  0  0  0  0  0  0
   40.1380   30.5930   43.8400 N   0  0  0  0  0  0  0  0  0  0  0  0
   39.1000   30.1610   44.5240 N   0  0  0  0  0  0  0  0  0  0  0  0
   39.8560   32.8130   46.1670 H   0  0  0  0  0  0  0  0  0  0  0  0
   41.4470   32.3250   44.0660 H   0  0  0  0  0  0  0  0  0  0  0  0
   40.7610   29.9990   42.6490 C   0  0  0  0  0  3  0  0  0  0  0  0
   40.4930   30.8510   41.4280 C   0  0  0  0  0  2  0  0  0  0  0  0
   39.1440   30.2760   40.9770 C   0  0  0  0  0  2  0  0  0  0  0  0
   39.4840   28.7950   40.9910 C   0  0  0  0  0  2  0  0  0  0  0  0
   40.1980   28.6480   42.3130 C   0  0  0  0  0  2  0  0  0  0  0  0
   37.2840   31.2380   50.2470 C   0  0  0  0  0  0  0  0  0  0  0  0
   36.7330   32.4890   50.4810 F   0  0  0  0  0  0  0  0  0  0  0  0
   36.6880   30.3390   51.1060 F   0  0  0  0  0  0  0  0  0  0  0  0
   38.6340   31.3180   50.5060 F   0  0  0  0  0  0  0  0  0  0  0  0
  1  2  1  0  0  0  0
  2  7  1  0  0  0  0
  2  3  2  0  0  0  0
  3 21  1  0  0  0  0
  4  3  1  0  0  0  0
  5  4  2  0  0  0  0
  6  1  2  0  0  0  0
  6  5  1  0  0  0  0
  8  5  1  0  0  0  0
  9  1  1  0  0  0  0
 10  9  1  0  0  0  0
 10 14  1  0  0  0  0
 11 10  2  0  0  0  0
 12 11  1  0  0  0  0
 12 13  1  0  0  0  0
 13  9  2  0  0  0  0
 15 11  1  0  0  0  0
 16 12  1  0  0  0  0
 17 16  1  0  0  0  0
 18 19  1  0  0  0  0
 18 17  1  0  0  0  0
 19 20  1  0  0  0  0
 20 16  1  0  0  0  0
 21 22  1  0  0  0  0
 21 24  1  0  0  0  0
 21 23  1  0  0  0  0
M  END
>  <minimizedAffinity>
-5.70442867

>  <minimizedRMSD>
0.728494585

$$$$
