
 OpenBabel03272504183D

 22 23  0  0  0  0  0  0  0  0999 V2000
   37.2130   25.5020   32.5470 C   0  0  0  0  0  0  0  0  0  0  0  0
   36.8450   24.2070   32.2320 C   0  0  0  0  0  0  0  0  0  0  0  0
   35.7910   24.0140   31.3550 C   0  0  0  0  0  0  0  0  0  0  0  0
   35.1500   25.1030   30.8290 N   0  0  0  0  0  0  0  0  0  0  0  0
   35.5460   26.3610   31.1680 C   0  0  0  0  0  0  0  0  0  0  0  0
   36.5770   26.5690   32.0260 N   0  0  0  0  0  0  0  0  0  0  0  0
   35.5390   23.0080   31.1400 H   0  0  0  0  0  0  0  0  0  0  0  0
   35.0230   27.2250   30.7380 H   0  0  0  0  0  0  0  0  0  0  0  0
   37.6120   23.2020   32.8640 N   0  0  0  0  0  0  0  0  0  0  0  0
   37.0670   22.9920   33.7420 H   0  0  0  0  0  0  0  0  0  0  0  0
   38.5180   22.7740   32.5210 H   0  0  0  0  0  0  0  0  0  0  0  0
   38.2430   25.8840   33.4070 O   0  0  0  0  0  0  0  0  0  0  0  0
   39.1550   27.0780   35.6270 O   0  0  0  0  0  0  0  0  0  0  0  0
   37.9290   26.5010   34.9890 P   0  0  1  0  0  0  0  0  0  0  0  0
   36.7190   27.6750   34.8050 O   0  0  0  0  0  0  0  0  0  0  0  0
   36.0540   27.4270   34.1410 H   0  0  0  0  0  0  0  0  0  0  0  0
   37.4300   25.2340   35.9950 O   0  0  0  0  0  0  0  0  0  0  0  0
   38.4810   24.7400   36.7680 C   0  0  0  0  0  3  0  0  0  0  0  0
   38.9470   23.3800   36.2760 C   0  0  0  0  0  2  0  0  0  0  0  0
   39.7100   22.8900   37.5080 C   0  0  0  0  0  2  0  0  0  0  0  0
   38.8190   23.3270   38.6490 C   0  0  0  0  0  2  0  0  0  0  0  0
   37.9030   24.3900   38.1270 C   0  0  0  0  0  2  0  0  0  0  0  0
  1 12  1  0  0  0  0
  2  1  1  0  0  0  0
  2  9  1  0  0  0  0
  3  2  2  0  0  0  0
  4  5  2  0  0  0  0
  4  3  1  0  0  0  0
  5  6  1  0  0  0  0
  6  1  2  0  0  0  0
  7  3  1  0  0  0  0
  8  5  1  0  0  0  0
  9 10  1  0  0  0  0
 11  9  1  0  0  0  0
 12 14  1  0  0  0  0
 14 13  2  1  0  0  0
 14 17  1  0  0  0  0
 15 14  1  0  0  0  0
 16 15  1  0  0  0  0
 17 18  1  0  0  0  0
 18 22  1  0  0  0  0
 19 18  1  0  0  0  0
 19 20  1  0  0  0  0
 20 21  1  0  0  0  0
 22 21  1  0  0  0  0
M  END
>  <minimizedAffinity>
-4.66260576

$$$$

 OpenBabel03272504183D

 22 23  0  0  0  0  0  0  0  0999 V2000
   39.4420   23.4160   36.3820 C   0  0  0  0  0  0  0  0  0  0  0  0
   39.5350   22.8440   37.6380 C   0  0  0  0  0  0  0  0  0  0  0  0
   38.7850   23.3860   38.6690 C   0  0  0  0  0  0  0  0  0  0  0  0
   37.9810   24.4630   38.4150 N   0  0  0  0  0  0  0  0  0  0  0  0
   37.9210   24.9950   37.1640 C   0  0  0  0  0  0  0  0  0  0  0  0
   38.6490   24.4770   36.1410 N   0  0  0  0  0  0  0  0  0  0  0  0
   38.8840   22.9200   39.6140 H   0  0  0  0  0  0  0  0  0  0  0  0
   37.2710   25.8600   36.9750 H   0  0  0  0  0  0  0  0  0  0  0  0
   40.4120   21.7380   37.7230 N   0  0  0  0  0  0  0  0  0  0  0  0
   41.3290   22.1740   38.0100 H   0  0  0  0  0  0  0  0  0  0  0  0
   40.1840   20.7210   37.5380 H   0  0  0  0  0  0  0  0  0  0  0  0
   40.1210   23.0060   35.2340 O   0  0  0  0  0  0  0  0  0  0  0  0
   39.3090   23.8540   32.8250 O   0  0  0  0  0  0  0  0  0  0  0  0
   39.2930   22.6800   33.7540 P   0  0  1  0  0  0  0  0  0  0  0  0
   40.0700   21.3390   33.0650 O   0  0  0  0  0  0  0  0  0  0  0  0
   40.3440   20.6830   33.7300 H   0  0  0  0  0  0  0  0  0  0  0  0
   37.6630   22.3640   34.0820 O   0  0  0  0  0  0  0  0  0  0  0  0
   37.0920   21.5290   33.1190 C   0  0  0  0  0  3  0  0  0  0  0  0
   36.2980   22.3190   32.0930 C   0  0  0  0  0  2  0  0  0  0  0  0
   35.4400   21.2040   31.4940 C   0  0  0  0  0  2  0  0  0  0  0  0
   35.0430   20.3970   32.7090 C   0  0  0  0  0  2  0  0  0  0  0  0
   35.9950   20.7420   33.8130 C   0  0  0  0  0  2  0  0  0  0  0  0
  1  2  1  0  0  0  0
  2  9  1  0  0  0  0
  2  3  2  0  0  0  0
  3  7  1  0  0  0  0
  4  3  1  0  0  0  0
  5  4  2  0  0  0  0
  6  1  2  0  0  0  0
  6  5  1  0  0  0  0
  8  5  1  0  0  0  0
  9 10  1  0  0  0  0
 11  9  1  0  0  0  0
 12  1  1  0  0  0  0
 14 13  2  6  0  0  0
 14 17  1  0  0  0  0
 14 12  1  0  0  0  0
 15 16  1  0  0  0  0
 15 14  1  0  0  0  0
 18 22  1  0  0  0  0
 18 17  1  0  0  0  0
 19 18  1  0  0  0  0
 20 19  1  0  0  0  0
 20 21  1  0  0  0  0
 21 22  1  0  0  0  0
M  END
>  <minimizedAffinity>
-4.58220387

$$$$

 OpenBabel03272504183D

 22 23  0  0  0  0  0  0  0  0999 V2000
   38.4330   25.7300   34.8960 C   0  0  0  0  0  0  0  0  0  0  0  0
   38.0440   27.0280   35.1760 C   0  0  0  0  0  0  0  0  0  0  0  0
   37.1630   27.6550   34.3120 C   0  0  0  0  0  0  0  0  0  0  0  0
   36.7050   26.9770   33.2150 N   0  0  0  0  0  0  0  0  0  0  0  0
   37.1140   25.7010   32.9770 C   0  0  0  0  0  0  0  0  0  0  0  0
   37.9780   25.0700   33.8130 N   0  0  0  0  0  0  0  0  0  0  0  0
   36.8900   28.6480   34.5610 H   0  0  0  0  0  0  0  0  0  0  0  0
   36.7380   25.1690   32.0940 H   0  0  0  0  0  0  0  0  0  0  0  0
   38.6130   27.5760   36.3480 N   0  0  0  0  0  0  0  0  0  0  0  0
   39.4800   28.0630   35.9960 H   0  0  0  0  0  0  0  0  0  0  0  0
   38.2410   27.5050   37.3370 H   0  0  0  0  0  0  0  0  0  0  0  0
   39.3090   24.9470   35.6480 O   0  0  0  0  0  0  0  0  0  0  0  0
   37.6760   24.0020   37.5520 O   0  0  0  0  0  0  0  0  0  0  0  0
   38.7560   23.6110   36.5910 P   0  0  1  0  0  0  0  0  0  0  0  0
   38.2050   22.4490   35.4850 O   0  0  0  0  0  0  0  0  0  0  0  0
   38.7580   22.4010   34.6860 H   0  0  0  0  0  0  0  0  0  0  0  0
   40.0340   23.0260   37.5360 O   0  0  0  0  0  0  0  0  0  0  0  0
   40.9610   22.3160   36.7720 C   0  0  0  0  0  3  0  0  0  0  0  0
   41.5970   21.1890   37.5680 C   0  0  0  0  0  2  0  0  0  0  0  0
   42.8340   20.9130   36.7120 C   0  0  0  0  0  2  0  0  0  0  0  0
   43.2980   22.3030   36.3370 C   0  0  0  0  0  2  0  0  0  0  0  0
   42.1470   23.2370   36.5490 C   0  0  0  0  0  2  0  0  0  0  0  0
  1  2  1  0  0  0  0
  1 12  1  0  0  0  0
  2  9  1  0  0  0  0
  3  7  1  0  0  0  0
  3  2  2  0  0  0  0
  4  3  1  0  0  0  0
  5  4  2  0  0  0  0
  5  6  1  0  0  0  0
  6  1  2  0  0  0  0
  8  5  1  0  0  0  0
  9 11  1  0  0  0  0
 10  9  1  0  0  0  0
 12 14  1  0  0  0  0
 14 17  1  0  0  0  0
 14 13  2  1  0  0  0
 15 14  1  0  0  0  0
 16 15  1  0  0  0  0
 18 17  1  0  0  0  0
 18 19  1  0  0  0  0
 20 19  1  0  0  0  0
 21 22  1  0  0  0  0
 21 20  1  0  0  0  0
 22 18  1  0  0  0  0
M  END
>  <minimizedAffinity>
-4.57130957

$$$$

 OpenBabel03272504183D

 22 23  0  0  0  0  0  0  0  0999 V2000
   37.1860   25.5430   32.3270 C   0  0  0  0  0  0  0  0  0  0  0  0
   36.1580   26.2650   31.7480 C   0  0  0  0  0  0  0  0  0  0  0  0
   35.1920   25.5800   31.0310 C   0  0  0  0  0  0  0  0  0  0  0  0
   35.2820   24.2200   30.9170 N   0  0  0  0  0  0  0  0  0  0  0  0
   36.3120   23.5490   31.5020 C   0  0  0  0  0  0  0  0  0  0  0  0
   37.2690   24.2030   32.2090 N   0  0  0  0  0  0  0  0  0  0  0  0
   34.4220   26.1680   30.6040 H   0  0  0  0  0  0  0  0  0  0  0  0
   36.3710   22.4570   31.4020 H   0  0  0  0  0  0  0  0  0  0  0  0
   36.2190   27.6600   31.9660 N   0  0  0  0  0  0  0  0  0  0  0  0
   36.7500   28.0160   31.1270 H   0  0  0  0  0  0  0  0  0  0  0  0
   35.8190   28.2010   32.7830 H   0  0  0  0  0  0  0  0  0  0  0  0
   38.2410   26.0610   33.0790 O   0  0  0  0  0  0  0  0  0  0  0  0
   39.4150   26.7350   35.3920 O   0  0  0  0  0  0  0  0  0  0  0  0
   38.1300   26.2550   34.7910 P   0  0  1  0  0  0  0  0  0  0  0  0
   36.8730   27.3620   35.0600 O   0  0  0  0  0  0  0  0  0  0  0  0
   36.1300   27.2410   34.4440 H   0  0  0  0  0  0  0  0  0  0  0  0
   37.8110   24.7540   35.5060 O   0  0  0  0  0  0  0  0  0  0  0  0
   38.7180   24.4610   36.5250 C   0  0  0  0  0  3  0  0  0  0  0  0
   39.3260   23.0800   36.3530 C   0  0  0  0  0  2  0  0  0  0  0  0
   39.8640   22.8390   37.7640 C   0  0  0  0  0  2  0  0  0  0  0  0
   38.7560   23.3790   38.6400 C   0  0  0  0  0  2  0  0  0  0  0  0
   37.9090   24.2810   37.7970 C   0  0  0  0  0  2  0  0  0  0  0  0
  1 12  1  0  0  0  0
  2  9  1  0  0  0  0
  2  1  2  0  0  0  0
  3  2  1  0  0  0  0
  4  3  2  0  0  0  0
  4  5  1  0  0  0  0
  5  6  2  0  0  0  0
  6  1  1  0  0  0  0
  7  3  1  0  0  0  0
  8  5  1  0  0  0  0
  9 11  1  0  0  0  0
 10  9  1  0  0  0  0
 12 14  1  0  0  0  0
 14 15  1  0  0  0  0
 14 13  2  1  0  0  0
 14 17  1  0  0  0  0
 16 15  1  0  0  0  0
 17 18  1  0  0  0  0
 18 22  1  0  0  0  0
 19 18  1  0  0  0  0
 19 20  1  0  0  0  0
 20 21  1  0  0  0  0
 22 21  1  0  0  0  0
M  END
>  <minimizedAffinity>
-4.51373053

$$$$

 OpenBabel03272504183D

 22 23  0  0  0  0  0  0  0  0999 V2000
   39.2840   23.2320   36.3400 C   0  0  0  0  0  0  0  0  0  0  0  0
   39.5640   22.7990   37.6230 C   0  0  0  0  0  0  0  0  0  0  0  0
   38.9080   23.4020   38.6830 C   0  0  0  0  0  0  0  0  0  0  0  0
   38.0090   24.4020   38.4310 N   0  0  0  0  0  0  0  0  0  0  0  0
   37.7640   24.7980   37.1520 C   0  0  0  0  0  0  0  0  0  0  0  0
   38.3970   24.2180   36.1000 N   0  0  0  0  0  0  0  0  0  0  0  0
   39.1500   23.0430   39.6490 H   0  0  0  0  0  0  0  0  0  0  0  0
   37.0390   25.6010   36.9640 H   0  0  0  0  0  0  0  0  0  0  0  0
   40.5170   21.7580   37.7030 N   0  0  0  0  0  0  0  0  0  0  0  0
   41.4300   22.2700   37.8290 H   0  0  0  0  0  0  0  0  0  0  0  0
   40.3380   20.7160   37.6460 H   0  0  0  0  0  0  0  0  0  0  0  0
   39.8460   22.7440   35.1600 O   0  0  0  0  0  0  0  0  0  0  0  0
   39.5220   21.1060   33.0630 O   0  0  0  0  0  0  0  0  0  0  0  0
   38.8710   22.2100   33.8390 P   0  0  1  0  0  0  0  0  0  0  0  0
   37.3990   21.7040   34.5130 O   0  0  0  0  0  0  0  0  0  0  0  0
   37.1110   22.2700   35.2500 H   0  0  0  0  0  0  0  0  0  0  0  0
   38.6590   23.4870   32.7480 O   0  0  0  0  0  0  0  0  0  0  0  0
   37.3130   23.8260   32.6020 C   0  0  0  0  0  3  0  0  0  0  0  0
   36.7040   23.1830   31.3680 C   0  0  0  0  0  2  0  0  0  0  0  0
   35.4580   24.0540   31.1920 C   0  0  0  0  0  2  0  0  0  0  0  0
   35.9780   25.4440   31.4830 C   0  0  0  0  0  2  0  0  0  0  0  0
   37.2670   25.2980   32.2320 C   0  0  0  0  0  2  0  0  0  0  0  0
  1  2  1  0  0  0  0
  2  9  1  0  0  0  0
  2  3  2  0  0  0  0
  3  7  1  0  0  0  0
  4  3  1  0  0  0  0
  5  4  2  0  0  0  0
  6  1  2  0  0  0  0
  6  5  1  0  0  0  0
  8  5  1  0  0  0  0
  9 10  1  0  0  0  0
 11  9  1  0  0  0  0
 12  1  1  0  0  0  0
 14 13  2  6  0  0  0
 14 15  1  0  0  0  0
 14 12  1  0  0  0  0
 15 16  1  0  0  0  0
 17 14  1  0  0  0  0
 18 17  1  0  0  0  0
 19 18  1  0  0  0  0
 20 19  1  0  0  0  0
 20 21  1  0  0  0  0
 21 22  1  0  0  0  0
 22 18  1  0  0  0  0
M  END
>  <minimizedAffinity>
-4.47526169

$$$$

 OpenBabel03272504183D

 22 23  0  0  0  0  0  0  0  0999 V2000
   40.9140   22.3710   35.8980 C   0  0  0  0  0  0  0  0  0  0  0  0
   41.9050   21.8620   36.7190 C   0  0  0  0  0  0  0  0  0  0  0  0
   43.2250   22.1500   36.4180 C   0  0  0  0  0  0  0  0  0  0  0  0
   43.5090   22.9240   35.3260 N   0  0  0  0  0  0  0  0  0  0  0  0
   42.5020   23.4040   34.5450 C   0  0  0  0  0  0  0  0  0  0  0  0
   41.2020   23.1320   34.8240 N   0  0  0  0  0  0  0  0  0  0  0  0
   43.9530   21.7420   37.0700 H   0  0  0  0  0  0  0  0  0  0  0  0
   42.7450   24.0240   33.6720 H   0  0  0  0  0  0  0  0  0  0  0  0
   41.4350   21.0840   37.8010 N   0  0  0  0  0  0  0  0  0  0  0  0
   41.4450   20.1000   37.4190 H   0  0  0  0  0  0  0  0  0  0  0  0
   41.1470   21.4250   38.7610 H   0  0  0  0  0  0  0  0  0  0  0  0
   39.5400   22.1850   36.0460 O   0  0  0  0  0  0  0  0  0  0  0  0
   37.1260   23.0110   36.8660 O   0  0  0  0  0  0  0  0  0  0  0  0
   38.5950   23.1660   37.1070 P   0  0  1  0  0  0  0  0  0  0  0  0
   39.0140   22.6970   38.6820 O   0  0  0  0  0  0  0  0  0  0  0  0
   39.9620   22.4960   38.7730 H   0  0  0  0  0  0  0  0  0  0  0  0
   38.9470   24.7980   36.8220 O   0  0  0  0  0  0  0  0  0  0  0  0
   37.9620   25.4140   36.0470 C   0  0  0  0  0  3  0  0  0  0  0  0
   38.1400   25.1090   34.5700 C   0  0  0  0  0  2  0  0  0  0  0  0
   37.2910   26.2240   33.9560 C   0  0  0  0  0  2  0  0  0  0  0  0
   37.6390   27.4190   34.8150 C   0  0  0  0  0  2  0  0  0  0  0  0
   38.2390   26.9050   36.0870 C   0  0  0  0  0  2  0  0  0  0  0  0
  1 12  1  0  0  0  0
  1  2  1  0  0  0  0
  2  9  1  0  0  0  0
  3  2  2  0  0  0  0
  3  7  1  0  0  0  0
  4  3  1  0  0  0  0
  5  6  1  0  0  0  0
  5  4  2  0  0  0  0
  6  1  2  0  0  0  0
  8  5  1  0  0  0  0
  9 11  1  0  0  0  0
 10  9  1  0  0  0  0
 12 14  1  0  0  0  0
 14 13  2  6  0  0  0
 14 15  1  0  0  0  0
 15 16  1  0  0  0  0
 17 14  1  0  0  0  0
 18 22  1  0  0  0  0
 18 17  1  0  0  0  0
 19 18  1  0  0  0  0
 20 19  1  0  0  0  0
 20 21  1  0  0  0  0
 21 22  1  0  0  0  0
M  END
>  <minimizedAffinity>
-4.46296835

$$$$

 OpenBabel03272504183D

 22 23  0  0  0  0  0  0  0  0999 V2000
   39.0990   23.9070   36.1870 C   0  0  0  0  0  0  0  0  0  0  0  0
   39.2010   23.1270   37.3240 C   0  0  0  0  0  0  0  0  0  0  0  0
   40.4150   22.5230   37.6050 C   0  0  0  0  0  0  0  0  0  0  0  0
   41.4700   22.7160   36.7550 N   0  0  0  0  0  0  0  0  0  0  0  0
   41.3250   23.4920   35.6460 C   0  0  0  0  0  0  0  0  0  0  0  0
   40.1420   24.0910   35.3540 N   0  0  0  0  0  0  0  0  0  0  0  0
   40.4530   21.9340   38.4840 H   0  0  0  0  0  0  0  0  0  0  0  0
   42.1800   23.6380   34.9730 H   0  0  0  0  0  0  0  0  0  0  0  0
   38.0160   23.0350   38.0880 N   0  0  0  0  0  0  0  0  0  0  0  0
   37.5450   22.1690   37.7090 H   0  0  0  0  0  0  0  0  0  0  0  0
   37.6930   23.6890   38.8550 H   0  0  0  0  0  0  0  0  0  0  0  0
   37.9610   24.5860   35.7480 O   0  0  0  0  0  0  0  0  0  0  0  0
   36.8790   26.9530   35.1120 O   0  0  0  0  0  0  0  0  0  0  0  0
   38.0660   26.0720   34.8760 P   0  0  1  0  0  0  0  0  0  0  0  0
   39.5000   26.8190   35.3890 O   0  0  0  0  0  0  0  0  0  0  0  0
   40.2220   26.1840   35.5350 H   0  0  0  0  0  0  0  0  0  0  0  0
   38.0860   25.7470   33.2140 O   0  0  0  0  0  0  0  0  0  0  0  0
   36.9110   25.1200   32.7940 C   0  0  0  0  0  3  0  0  0  0  0  0
   37.2030   23.8810   31.9660 C   0  0  0  0  0  2  0  0  0  0  0  0
   35.8520   23.6890   31.2750 C   0  0  0  0  0  2  0  0  0  0  0  0
   35.4560   25.1040   30.9150 C   0  0  0  0  0  2  0  0  0  0  0  0
   36.2700   26.0320   31.7640 C   0  0  0  0  0  2  0  0  0  0  0  0
  1  2  1  0  0  0  0
  2  3  2  0  0  0  0
  2  9  1  0  0  0  0
  3  7  1  0  0  0  0
  4  3  1  0  0  0  0
  5  4  2  0  0  0  0
  6  5  1  0  0  0  0
  6  1  2  0  0  0  0
  8  5  1  0  0  0  0
  9 11  1  0  0  0  0
 10  9  1  0  0  0  0
 12  1  1  0  0  0  0
 14 13  2  1  0  0  0
 14 15  1  0  0  0  0
 14 12  1  0  0  0  0
 15 16  1  0  0  0  0
 17 14  1  0  0  0  0
 18 17  1  0  0  0  0
 19 18  1  0  0  0  0
 20 19  1  0  0  0  0
 21 20  1  0  0  0  0
 21 22  1  0  0  0  0
 22 18  1  0  0  0  0
M  END
>  <minimizedAffinity>
-4.4327383

$$$$

 OpenBabel03272504183D

 22 23  0  0  0  0  0  0  0  0999 V2000
   36.5270   21.3710   32.9740 C   0  0  0  0  0  0  0  0  0  0  0  0
   35.7500   20.3810   33.5470 C   0  0  0  0  0  0  0  0  0  0  0  0
   35.2710   19.3650   32.7380 C   0  0  0  0  0  0  0  0  0  0  0  0
   35.5790   19.3690   31.4050 N   0  0  0  0  0  0  0  0  0  0  0  0
   36.3480   20.3640   30.8820 C   0  0  0  0  0  0  0  0  0  0  0  0
   36.8260   21.3690   31.6600 N   0  0  0  0  0  0  0  0  0  0  0  0
   34.6790   18.6270   33.2140 H   0  0  0  0  0  0  0  0  0  0  0  0
   36.5880   20.3550   29.8110 H   0  0  0  0  0  0  0  0  0  0  0  0
   35.5290   20.5310   34.9350 N   0  0  0  0  0  0  0  0  0  0  0  0
   34.6250   21.0710   34.9840 H   0  0  0  0  0  0  0  0  0  0  0  0
   36.1390   20.1770   35.7250 H   0  0  0  0  0  0  0  0  0  0  0  0
   37.0910   22.4650   33.6300 O   0  0  0  0  0  0  0  0  0  0  0  0
   39.6250   21.5940   33.6800 O   0  0  0  0  0  0  0  0  0  0  0  0
   38.7780   22.8200   33.5290 P   0  0  1  0  0  0  0  0  0  0  0  0
   39.0160   23.5510   32.0180 O   0  0  0  0  0  0  0  0  0  0  0  0
   38.2860   24.1450   31.7700 H   0  0  0  0  0  0  0  0  0  0  0  0
   39.2110   23.8490   34.8020 O   0  0  0  0  0  0  0  0  0  0  0  0
   38.5680   23.5020   35.9920 C   0  0  0  0  0  3  0  0  0  0  0  0
   38.0710   24.7290   36.7370 C   0  0  0  0  0  2  0  0  0  0  0  0
   37.8650   24.1370   38.1320 C   0  0  0  0  0  2  0  0  0  0  0  0
   39.0750   23.2450   38.2990 C   0  0  0  0  0  2  0  0  0  0  0  0
   39.6370   22.9840   36.9360 C   0  0  0  0  0  2  0  0  0  0  0  0
  1  2  1  0  0  0  0
  1 12  1  0  0  0  0
  2  9  1  0  0  0  0
  3  7  1  0  0  0  0
  3  2  2  0  0  0  0
  4  3  1  0  0  0  0
  5  4  2  0  0  0  0
  5  6  1  0  0  0  0
  6  1  2  0  0  0  0
  8  5  1  0  0  0  0
  9 10  1  0  0  0  0
  9 11  1  0  0  0  0
 14 12  1  0  0  0  0
 14 13  2  1  0  0  0
 14 17  1  0  0  0  0
 15 14  1  0  0  0  0
 16 15  1  0  0  0  0
 17 18  1  0  0  0  0
 18 19  1  0  0  0  0
 18 22  1  0  0  0  0
 19 20  1  0  0  0  0
 20 21  1  0  0  0  0
 22 21  1  0  0  0  0
M  END
>  <minimizedAffinity>
-4.38115263

$$$$

 OpenBabel03272504183D

 22 23  0  0  0  0  0  0  0  0999 V2000
   39.2510   23.8960   36.1830 C   0  0  0  0  0  0  0  0  0  0  0  0
   39.2820   23.0670   37.2890 C   0  0  0  0  0  0  0  0  0  0  0  0
   40.4750   22.4450   37.6170 C   0  0  0  0  0  0  0  0  0  0  0  0
   41.5800   22.6690   36.8430 N   0  0  0  0  0  0  0  0  0  0  0  0
   41.5050   23.4930   35.7620 C   0  0  0  0  0  0  0  0  0  0  0  0
   40.3440   24.1110   35.4240 N   0  0  0  0  0  0  0  0  0  0  0  0
   40.4570   21.8180   38.4700 H   0  0  0  0  0  0  0  0  0  0  0  0
   42.4010   23.6640   35.1500 H   0  0  0  0  0  0  0  0  0  0  0  0
   38.0510   22.9480   37.9750 N   0  0  0  0  0  0  0  0  0  0  0  0
   37.6030   22.1030   37.5300 H   0  0  0  0  0  0  0  0  0  0  0  0
   37.6840   23.5710   38.7480 H   0  0  0  0  0  0  0  0  0  0  0  0
   38.1450   24.6000   35.7050 O   0  0  0  0  0  0  0  0  0  0  0  0
   38.7880   27.1600   36.1670 O   0  0  0  0  0  0  0  0  0  0  0  0
   38.2770   26.2190   35.1210 P   0  0  1  0  0  0  0  0  0  0  0  0
   39.3220   26.1540   33.7860 O   0  0  0  0  0  0  0  0  0  0  0  0
   39.1920   25.3550   33.2470 H   0  0  0  0  0  0  0  0  0  0  0  0
   36.7410   26.7860   34.6900 O   0  0  0  0  0  0  0  0  0  0  0  0
   36.8140   27.9360   33.9020 C   0  0  0  0  0  3  0  0  0  0  0  0
   35.7410   28.9420   34.2800 C   0  0  0  0  0  2  0  0  0  0  0  0
   35.7380   29.8220   33.0290 C   0  0  0  0  0  2  0  0  0  0  0  0
   35.8610   28.8120   31.9100 C   0  0  0  0  0  2  0  0  0  0  0  0
   36.3810   27.5390   32.5030 C   0  0  0  0  0  2  0  0  0  0  0  0
  1  2  1  0  0  0  0
  2  3  2  0  0  0  0
  2  9  1  0  0  0  0
  3  7  1  0  0  0  0
  4  3  1  0  0  0  0
  5  4  2  0  0  0  0
  6  5  1  0  0  0  0
  6  1  2  0  0  0  0
  8  5  1  0  0  0  0
  9 11  1  0  0  0  0
 10  9  1  0  0  0  0
 12  1  1  0  0  0  0
 14 12  1  0  0  0  0
 14 13  2  1  0  0  0
 15 14  1  0  0  0  0
 16 15  1  0  0  0  0
 17 14  1  0  0  0  0
 18 19  1  0  0  0  0
 18 17  1  0  0  0  0
 20 19  1  0  0  0  0
 21 22  1  0  0  0  0
 21 20  1  0  0  0  0
 22 18  1  0  0  0  0
M  END
>  <minimizedAffinity>
-4.37619305

$$$$
