
 OpenBabel03272503503D

 33 35  0  0  1  0  0  0  0  0999 V2000
   33.1880   27.3180   45.8790 C   0  0  1  0  0  0  0  0  0  0  0  0
   33.9200   27.4640   47.2310 C   0  0  2  0  0  0  0  0  0  0  0  0
   33.7660   26.2380   47.8000 O   0  0  0  0  0  0  0  0  0  0  0  0
   34.0670   25.3460   46.7850 C   0  0  0  0  0  0  0  0  0  0  0  0
   33.5510   25.9270   45.4890 C   0  0  2  0  0  0  0  0  0  0  0  0
   33.6240   28.0440   45.1600 H   0  0  0  0  0  0  0  0  0  0  0  0
   34.9590   27.7570   46.9570 H   0  0  0  0  0  0  0  0  0  0  0  0
   35.1390   25.0660   46.7530 H   0  0  0  0  0  0  0  0  0  0  0  0
   33.5010   24.4130   46.9990 H   0  0  0  0  0  0  0  0  0  0  0  0
   32.7230   25.3230   45.0680 H   0  0  0  0  0  0  0  0  0  0  0  0
   31.8330   27.5360   46.0350 O   0  0  0  0  0  0  0  0  0  0  0  0
   31.5030   28.1200   45.2900 H   0  0  0  0  0  0  0  0  0  0  0  0
   33.3050   28.5160   47.8430 O   0  0  0  0  0  0  0  0  0  0  0  0
   35.3450   29.8130   46.7790 O   0  0  0  0  0  0  0  0  0  0  0  0
   34.0880   29.9910   47.6170 P   0  0  1  0  0  0  0  0  0  0  0  0
   33.1030   31.0410   46.7260 O   0  0  0  0  0  0  0  0  0  0  0  0
   32.2700   31.2340   47.2200 H   0  0  0  0  0  0  0  0  0  0  0  0
   34.4030   30.6270   49.1650 O   0  0  0  0  0  0  0  0  0  0  0  0
   35.6280   30.5080   49.7820 C   0  0  0  0  0  0  0  0  0  0  0  0
   35.9540   29.4880   50.7040 C   0  0  0  0  0  0  0  0  0  0  0  0
   37.2350   29.4940   51.2480 C   0  0  0  0  0  0  0  0  0  0  0  0
   38.1020   30.4770   50.8650 N   0  0  0  0  0  0  0  0  0  0  0  0
   37.7550   31.4450   49.9730 C   0  0  0  0  0  0  0  0  0  0  0  0
   36.5070   31.4570   49.4300 N   0  0  0  0  0  0  0  0  0  0  0  0
   35.1880   28.7600   50.9340 H   0  0  0  0  0  0  0  0  0  0  0  0
   37.4960   28.7230   51.9520 H   0  0  0  0  0  0  0  0  0  0  0  0
   38.4800   32.1960   49.7070 H   0  0  0  0  0  0  0  0  0  0  0  0
   34.5760   25.9440   44.5430 O   0  0  0  0  0  0  0  0  0  0  0  0
   34.5120   24.8750   43.6580 C   0  0  0  0  0  3  0  0  0  0  0  0
   33.1070   24.7140   43.1430 C   0  0  0  0  0  2  0  0  0  0  0  0
   33.1480   24.9020   41.6610 C   0  0  0  0  0  2  0  0  0  0  0  0
   34.5870   24.8850   41.2250 C   0  0  0  0  0  2  0  0  0  0  0  0
   35.4130   25.0620   42.4680 C   0  0  0  0  0  2  0  0  0  0  0  0
  1  6  1  6  0  0  0
  1 11  1  0  0  0  0
  1  2  1  0  0  0  0
  2  7  1  6  0  0  0
  2  3  1  0  0  0  0
  2 13  1  0  0  0  0
  4  9  1  0  0  0  0
  4  3  1  0  0  0  0
  5 10  1  6  0  0  0
  5  1  1  0  0  0  0
  5  4  1  0  0  0  0
  8  4  1  0  0  0  0
 12 11  1  0  0  0  0
 15 14  2  6  0  0  0
 15 13  1  0  0  0  0
 15 18  1  0  0  0  0
 16 17  1  0  0  0  0
 16 15  1  0  0  0  0
 18 19  1  0  0  0  0
 19 20  1  0  0  0  0
 20 25  1  0  0  0  0
 20 21  2  0  0  0  0
 21 26  1  0  0  0  0
 22 21  1  0  0  0  0
 23 22  2  0  0  0  0
 24 19  2  0  0  0  0
 24 23  1  0  0  0  0
 27 23  1  0  0  0  0
 28  5  1  0  0  0  0
 29 28  1  0  0  0  0
 30 29  1  0  0  0  0
 31 30  1  0  0  0  0
 32 31  1  0  0  0  0
 32 33  1  0  0  0  0
 33 29  1  0  0  0  0
M  END
>  <minimizedAffinity>
-3.92511201

>  <minimizedRMSD>
0.681158781

$$$$
