
 OpenBabel03272510313D

 28 30  0  0  0  0  0  0  0  0999 V2000
   37.3330   31.0440   49.5630 C   0  0  0  0  0  0  0  0  0  0  0  0
   38.3500   31.9800   49.5020 C   0  0  0  0  0  0  0  0  0  0  0  0
   38.7080   32.4060   48.2190 C   0  0  0  0  0  0  0  0  0  0  0  0
   38.0590   31.8920   47.1340 N   0  0  0  0  0  0  0  0  0  0  0  0
   37.0730   30.9790   47.2380 C   0  0  0  0  0  0  0  0  0  0  0  0
   36.7000   30.5430   48.4840 N   0  0  0  0  0  0  0  0  0  0  0  0
   38.8220   32.3460   50.4060 H   0  0  0  0  0  0  0  0  0  0  0  0
   39.4970   33.1380   48.1160 H   0  0  0  0  0  0  0  0  0  0  0  0
   36.9090   30.5940   50.9330 C   0  0  0  0  0  0  0  0  0  0  0  0
   36.0340   29.4850   51.1440 C   0  0  0  0  0  0  0  0  0  0  0  0
   37.5230   29.2250   51.3070 C   0  0  0  0  0  0  0  0  0  0  0  0
   37.2190   31.3540   51.6940 H   0  0  0  0  0  0  0  0  0  0  0  0
   35.4250   29.4870   52.0930 H   0  0  0  0  0  0  0  0  0  0  0  0
   35.4700   29.0530   50.3160 H   0  0  0  0  0  0  0  0  0  0  0  0
   37.8930   29.0710   52.3200 H   0  0  0  0  0  0  0  0  0  0  0  0
   37.9610   28.6210   50.5100 H   0  0  0  0  0  0  0  0  0  0  0  0
   36.3700   30.4290   46.0880 C   0  0  0  0  0  0  0  0  0  0  0  0
   35.3880   30.9250   45.8840 H   0  0  0  0  0  0  0  0  0  0  0  0
   36.1600   29.3690   46.1970 H   0  0  0  0  0  0  0  0  0  0  0  0
   36.7820   31.0820   43.7090 C   0  0  0  0  0  0  0  0  0  0  0  0
   35.6120   31.4880   43.4860 O   0  0  0  0  0  0  0  0  0  0  0  0
   37.2540   30.5760   44.9430 N   0  0  0  0  0  0  0  0  0  0  0  0
   38.2560   30.2880   45.0830 H   0  0  0  0  0  0  0  0  0  0  0  0
   37.7890   31.1250   42.5910 C   0  0  0  0  0  3  0  0  0  0  0  0
   38.1400   32.5850   42.3470 C   0  0  0  0  0  2  0  0  0  0  0  0
   39.4740   32.7600   43.0700 C   0  0  0  0  0  2  0  0  0  0  0  0
   40.1470   31.4470   42.6980 C   0  0  0  0  0  2  0  0  0  0  0  0
   39.0700   30.4460   42.9780 C   0  0  0  0  0  2  0  0  0  0  0  0
  1  9  1  0  0  0  0
  2  1  1  0  0  0  0
  2  7  1  0  0  0  0
  3  2  2  0  0  0  0
  4  5  2  0  0  0  0
  4  3  1  0  0  0  0
  5  6  1  0  0  0  0
  6  1  2  0  0  0  0
  8  3  1  0  0  0  0
  9 10  1  0  0  0  0
  9 11  1  0  0  0  0
  9 12  1  0  0  0  0
 10 11  1  0  0  0  0
 10 13  1  0  0  0  0
 11 15  1  0  0  0  0
 14 10  1  0  0  0  0
 16 11  1  0  0  0  0
 17 19  1  0  0  0  0
 17  5  1  0  0  0  0
 18 17  1  0  0  0  0
 20 22  1  0  0  0  0
 21 20  2  0  0  0  0
 22 23  1  0  0  0  0
 22 17  1  0  0  0  0
 24 28  1  0  0  0  0
 24 20  1  0  0  0  0
 25 24  1  0  0  0  0
 25 26  1  0  0  0  0
 27 28  1  0  0  0  0
 27 26  1  0  0  0  0
M  END
>  <minimizedAffinity>
-4.82452917

>  <minimizedRMSD>
3.50029922

$$$$
