
 OpenBabel03272503503D

 33 35  0  0  1  0  0  0  0  0999 V2000
   33.1880   27.3150   45.8770 C   0  0  1  0  0  0  0  0  0  0  0  0
   33.9190   27.4630   47.2300 C   0  0  2  0  0  0  0  0  0  0  0  0
   33.7650   26.2370   47.8000 O   0  0  0  0  0  0  0  0  0  0  0  0
   34.0670   25.3440   46.7850 C   0  0  0  0  0  0  0  0  0  0  0  0
   33.5520   25.9250   45.4890 C   0  0  2  0  0  0  0  0  0  0  0  0
   33.6240   28.0410   45.1580 H   0  0  0  0  0  0  0  0  0  0  0  0
   34.9580   27.7550   46.9570 H   0  0  0  0  0  0  0  0  0  0  0  0
   35.1400   25.0640   46.7550 H   0  0  0  0  0  0  0  0  0  0  0  0
   33.5020   24.4110   47.0000 H   0  0  0  0  0  0  0  0  0  0  0  0
   32.7250   25.3200   45.0670 H   0  0  0  0  0  0  0  0  0  0  0  0
   31.8330   27.5330   46.0320 O   0  0  0  0  0  0  0  0  0  0  0  0
   31.5040   28.1160   45.2860 H   0  0  0  0  0  0  0  0  0  0  0  0
   33.3030   28.5150   47.8400 O   0  0  0  0  0  0  0  0  0  0  0  0
   35.3450   29.8110   46.7800 O   0  0  0  0  0  0  0  0  0  0  0  0
   34.0870   29.9890   47.6170 P   0  0  1  0  0  0  0  0  0  0  0  0
   33.1040   31.0420   46.7260 O   0  0  0  0  0  0  0  0  0  0  0  0
   32.2700   31.2340   47.2200 H   0  0  0  0  0  0  0  0  0  0  0  0
   34.4010   30.6240   49.1660 O   0  0  0  0  0  0  0  0  0  0  0  0
   35.6270   30.5060   49.7820 C   0  0  0  0  0  0  0  0  0  0  0  0
   35.9550   29.4880   50.7050 C   0  0  0  0  0  0  0  0  0  0  0  0
   37.2360   29.4950   51.2490 C   0  0  0  0  0  0  0  0  0  0  0  0
   38.1020   30.4780   50.8640 N   0  0  0  0  0  0  0  0  0  0  0  0
   37.7530   31.4460   49.9720 C   0  0  0  0  0  0  0  0  0  0  0  0
   36.5050   31.4560   49.4290 N   0  0  0  0  0  0  0  0  0  0  0  0
   35.1890   28.7590   50.9360 H   0  0  0  0  0  0  0  0  0  0  0  0
   37.4970   28.7240   51.9530 H   0  0  0  0  0  0  0  0  0  0  0  0
   38.4770   32.1970   49.7050 H   0  0  0  0  0  0  0  0  0  0  0  0
   34.5790   25.9410   44.5440 O   0  0  0  0  0  0  0  0  0  0  0  0
   34.5140   24.8730   43.6580 C   0  0  0  0  0  3  0  0  0  0  0  0
   33.1090   24.7120   43.1440 C   0  0  0  0  0  2  0  0  0  0  0  0
   33.1480   24.9010   41.6620 C   0  0  0  0  0  2  0  0  0  0  0  0
   34.5870   24.8850   41.2250 C   0  0  0  0  0  2  0  0  0  0  0  0
   35.4140   25.0610   42.4670 C   0  0  0  0  0  2  0  0  0  0  0  0
  1  6  1  6  0  0  0
  1 11  1  0  0  0  0
  1  2  1  0  0  0  0
  2  7  1  6  0  0  0
  2  3  1  0  0  0  0
  2 13  1  0  0  0  0
  4  9  1  0  0  0  0
  4  3  1  0  0  0  0
  5 10  1  6  0  0  0
  5  1  1  0  0  0  0
  5  4  1  0  0  0  0
  8  4  1  0  0  0  0
 12 11  1  0  0  0  0
 15 14  2  6  0  0  0
 15 13  1  0  0  0  0
 15 18  1  0  0  0  0
 16 17  1  0  0  0  0
 16 15  1  0  0  0  0
 18 19  1  0  0  0  0
 19 20  1  0  0  0  0
 20 25  1  0  0  0  0
 20 21  2  0  0  0  0
 21 26  1  0  0  0  0
 22 21  1  0  0  0  0
 23 22  2  0  0  0  0
 24 19  2  0  0  0  0
 24 23  1  0  0  0  0
 27 23  1  0  0  0  0
 28  5  1  0  0  0  0
 29 28  1  0  0  0  0
 30 29  1  0  0  0  0
 31 30  1  0  0  0  0
 32 31  1  0  0  0  0
 32 33  1  0  0  0  0
 33 29  1  0  0  0  0
M  END
>  <minimizedAffinity>
-3.92519355

>  <minimizedRMSD>
0.544086874

$$$$
