
 OpenBabel03272509313D

 34 36  0  0  1  0  0  0  0  0999 V2000
   36.4650   30.7840   48.8850 C   0  0  2  0  0  0  0  0  0  0  0  0
   37.3530   31.4880   49.8640 C   0  0  0  0  0  0  0  0  0  0  0  0
   37.9840   30.5500   50.8680 C   0  0  0  0  0  0  0  0  0  0  0  0
   36.9230   29.7410   51.6060 C   0  0  0  0  0  0  0  0  0  0  0  0
   35.7320   29.3720   50.7600 C   0  0  0  0  0  0  0  0  0  0  0  0
   36.1740   29.3820   49.2860 C   0  0  1  0  0  0  0  0  0  0  0  0
   35.4590   31.2710   48.7440 H   0  0  0  0  0  0  0  0  0  0  0  0
   36.6330   32.1110   50.4950 H   0  0  0  0  0  0  0  0  0  0  0  0
   38.0630   32.1950   49.4800 H   0  0  0  0  0  0  0  0  0  0  0  0
   38.7670   29.9040   50.4560 H   0  0  0  0  0  0  0  0  0  0  0  0
   38.4520   31.2030   51.6320 H   0  0  0  0  0  0  0  0  0  0  0  0
   36.6370   30.1860   52.5730 H   0  0  0  0  0  0  0  0  0  0  0  0
   37.4250   28.7710   51.8710 H   0  0  0  0  0  0  0  0  0  0  0  0
   35.3490   28.3620   51.0100 H   0  0  0  0  0  0  0  0  0  0  0  0
   34.9470   30.1150   50.9310 H   0  0  0  0  0  0  0  0  0  0  0  0
   37.0540   28.7910   49.3450 H   0  0  0  0  0  0  0  0  0  0  0  0
   37.0620   30.7820   47.5210 C   0  0  0  0  0  0  0  0  0  0  0  0
   38.4470   31.0140   47.4670 C   0  0  0  0  0  0  0  0  0  0  0  0
   39.0250   31.0140   46.1930 C   0  0  0  0  0  0  0  0  0  0  0  0
   38.2280   30.7910   45.0950 N   0  0  0  0  0  0  0  0  0  0  0  0
   36.8780   30.5690   45.2090 C   0  0  0  0  0  0  0  0  0  0  0  0
   36.3140   30.5680   46.4300 N   0  0  0  0  0  0  0  0  0  0  0  0
   39.1680   31.1900   48.2370 H   0  0  0  0  0  0  0  0  0  0  0  0
   40.0670   31.1760   45.9880 H   0  0  0  0  0  0  0  0  0  0  0  0
   36.3200   30.4010   44.3100 H   0  0  0  0  0  0  0  0  0  0  0  0
   33.9650   28.3270   48.6200 C   0  0  0  0  0  0  0  0  0  0  0  0
   33.1670   28.5960   49.5610 O   0  0  0  0  0  0  0  0  0  0  0  0
   35.3260   28.6630   48.4060 N   0  0  0  0  0  0  0  0  0  0  0  0
   35.6280   28.2840   47.4520 H   0  0  0  0  0  0  0  0  0  0  0  0
   33.1310   27.5130   47.6890 C   0  0  0  0  0  3  0  0  0  0  0  0
   33.8600   26.3380   47.1390 C   0  0  0  0  0  2  0  0  0  0  0  0
   33.0290   25.1240   47.5410 C   0  0  0  0  0  2  0  0  0  0  0  0
   31.6320   25.7020   47.5360 C   0  0  0  0  0  2  0  0  0  0  0  0
   31.8710   26.9890   48.3380 C   0  0  0  0  0  2  0  0  0  0  0  0
  1  7  1  6  0  0  0
  1  6  1  0  0  0  0
  1  2  1  0  0  0  0
  2  8  1  0  0  0  0
  2  3  1  0  0  0  0
  3  4  1  0  0  0  0
  3 11  1  0  0  0  0
  4 13  1  0  0  0  0
  4 12  1  0  0  0  0
  5 15  1  0  0  0  0
  5 14  1  0  0  0  0
  5  4  1  0  0  0  0
  6 16  1  6  0  0  0
  6  5  1  0  0  0  0
  9  2  1  0  0  0  0
 10  3  1  0  0  0  0
 17  1  1  0  0  0  0
 18 17  1  0  0  0  0
 18 23  1  0  0  0  0
 19 18  2  0  0  0  0
 20 21  2  0  0  0  0
 20 19  1  0  0  0  0
 21 22  1  0  0  0  0
 22 17  2  0  0  0  0
 24 19  1  0  0  0  0
 25 21  1  0  0  0  0
 26 27  2  0  0  0  0
 28 26  1  0  0  0  0
 28  6  1  0  0  0  0
 29 28  1  0  0  0  0
 30 34  1  0  0  0  0
 30 26  1  0  0  0  0
 31 32  1  0  0  0  0
 31 30  1  0  0  0  0
 33 32  1  0  0  0  0
 33 34  1  0  0  0  0
M  END
>  <minimizedAffinity>
-6.04810905

>  <minimizedRMSD>
0.953810096

$$$$
