
 OpenBabel03262522113D

 26 28  0  0  0  0  0  0  0  0999 V2000
   37.6740   31.7400   47.6240 C   0  0  0  0  0  0  0  0  0  0  0  0
   37.9240   32.4130   48.8040 C   0  0  0  0  0  0  0  0  0  0  0  0
   38.9440   33.3430   48.8520 C   0  0  0  0  0  0  0  0  0  0  0  0
   39.6580   33.5400   47.6910 C   0  0  0  0  0  0  0  0  0  0  0  0
   39.3920   32.8620   46.5320 C   0  0  0  0  0  0  0  0  0  0  0  0
   38.3900   31.9540   46.5020 N   0  0  0  0  0  0  0  0  0  0  0  0
   37.3750   32.2710   49.7260 H   0  0  0  0  0  0  0  0  0  0  0  0
   39.1950   33.9110   49.7600 H   0  0  0  0  0  0  0  0  0  0  0  0
   40.4590   34.2700   47.7250 H   0  0  0  0  0  0  0  0  0  0  0  0
   36.5880   30.7770   47.6460 C   0  0  0  0  0  0  0  0  0  0  0  0
   36.0740   30.3690   46.5860 O   0  0  0  0  0  0  0  0  0  0  0  0
   36.8890   29.6260   49.7900 C   0  0  0  0  0  0  0  0  0  0  0  0
   36.0380   30.2370   48.8720 C   0  0  0  0  0  0  0  0  0  0  0  0
   34.7000   30.2790   49.2160 C   0  0  0  0  0  0  0  0  0  0  0  0
   34.2520   29.7520   50.3840 N   0  0  0  0  0  0  0  0  0  0  0  0
   35.1380   29.1630   51.2490 C   0  0  0  0  0  0  0  0  0  0  0  0
   36.4340   29.1000   50.9590 N   0  0  0  0  0  0  0  0  0  0  0  0
   37.9540   29.5250   49.6470 H   0  0  0  0  0  0  0  0  0  0  0  0
   34.0070   30.7520   48.5140 H   0  0  0  0  0  0  0  0  0  0  0  0
   34.5920   28.8080   52.1130 H   0  0  0  0  0  0  0  0  0  0  0  0
   40.3350   33.1320   45.0240 S   0  0  0  0  0  0  0  0  0  0  0  0
   40.2220   31.7720   43.8680 C   0  0  0  0  0  0  0  0  0  0  0  0
   40.0260   30.4940   44.6870 C   0  0  0  0  0  0  0  0  0  0  0  0
   39.1660   29.5750   43.8610 C   0  0  0  0  0  0  0  0  0  0  0  0
   38.9760   30.3080   42.5380 C   0  0  0  0  0  0  0  0  0  0  0  0
   38.9660   31.7610   43.0370 C   0  0  0  0  0  0  0  0  0  0  0  0
  1 10  1  0  0  0  0
  1  2  1  0  0  0  0
  2  3  2  0  0  0  0
  2  7  1  0  0  0  0
  3  8  1  0  0  0  0
  4  9  1  0  0  0  0
  4  3  1  0  0  0  0
  5  4  2  0  0  0  0
  6  5  1  0  0  0  0
  6  1  2  0  0  0  0
 10 13  1  0  0  0  0
 11 10  2  0  0  0  0
 12 17  1  0  0  0  0
 13 14  1  0  0  0  0
 13 12  2  0  0  0  0
 14 15  2  0  0  0  0
 15 16  1  0  0  0  0
 16 20  1  0  0  0  0
 17 16  2  0  0  0  0
 18 12  1  0  0  0  0
 19 14  1  0  0  0  0
 21  5  1  0  0  0  0
 22 23  1  0  0  0  0
 22 21  1  0  0  0  0
 24 23  1  0  0  0  0
 25 26  1  0  0  0  0
 25 24  1  0  0  0  0
 26 22  1  0  0  0  0
M  END
>  <minimizedAffinity>
-5.24619246

>  <minimizedRMSD>
2.27772403

$$$$
