
 OpenBabel03272507303D

 25 27  0  0  0  0  0  0  0  0999 V2000
   35.9050   29.2490   49.7570 C   0  0  0  0  0  0  0  0  0  0  0  0
   34.8510   29.7940   50.4090 C   0  0  0  0  0  0  0  0  0  0  0  0
   33.6830   29.1850   49.9530 C   0  0  0  0  0  0  0  0  0  0  0  0
   34.1280   28.2510   48.9910 C   0  0  0  0  0  0  0  0  0  0  0  0
   35.4140   28.3650   48.9540 O   0  0  0  0  0  0  0  0  0  0  0  0
   34.8610   30.5690   51.1640 H   0  0  0  0  0  0  0  0  0  0  0  0
   32.6670   29.3560   50.2380 H   0  0  0  0  0  0  0  0  0  0  0  0
   37.2750   29.6550   49.9930 C   0  0  0  0  0  0  0  0  0  0  0  0
   37.8990   29.1470   50.9350 O   0  0  0  0  0  0  0  0  0  0  0  0
   37.8310   30.6520   49.0880 C   0  0  0  0  0  0  0  0  0  0  0  0
   38.1810   31.8810   49.6480 C   0  0  0  0  0  0  0  0  0  0  0  0
   38.7130   32.8600   48.8230 C   0  0  0  0  0  0  0  0  0  0  0  0
   38.8640   32.5530   47.4920 N   0  0  0  0  0  0  0  0  0  0  0  0
   38.5230   31.3710   46.9770 C   0  0  0  0  0  0  0  0  0  0  0  0
   38.0060   30.4150   47.7670 N   0  0  0  0  0  0  0  0  0  0  0  0
   38.0370   32.0640   50.7070 H   0  0  0  0  0  0  0  0  0  0  0  0
   38.9820   33.8080   49.2530 H   0  0  0  0  0  0  0  0  0  0  0  0
   38.6830   31.2300   45.9160 H   0  0  0  0  0  0  0  0  0  0  0  0
   33.2360   27.3650   48.2320 C   0  0  0  0  0  0  0  0  0  0  0  0
   31.9880   27.4440   48.4020 O   0  0  0  0  0  0  0  0  0  0  0  0
   33.8760   26.4250   47.3030 C   0  0  0  0  0  3  0  0  0  0  0  0
   33.6590   26.8170   45.8420 C   0  0  0  0  0  2  0  0  0  0  0  0
   34.2100   25.5830   45.1510 C   0  0  0  0  0  2  0  0  0  0  0  0
   34.0400   24.4310   46.1510 C   0  0  0  0  0  2  0  0  0  0  0  0
   33.2090   25.0710   47.2720 C   0  0  0  0  0  2  0  0  0  0  0  0
  1  8  1  0  0  0  0
  1  2  2  0  0  0  0
  2  6  1  0  0  0  0
  3  7  1  0  0  0  0
  3  2  1  0  0  0  0
  4  3  2  0  0  0  0
  5  4  1  0  0  0  0
  5  1  1  0  0  0  0
  8  9  2  0  0  0  0
 10 11  1  0  0  0  0
 10  8  1  0  0  0  0
 11 16  1  0  0  0  0
 12 17  1  0  0  0  0
 12 11  2  0  0  0  0
 13 12  1  0  0  0  0
 14 13  2  0  0  0  0
 14 15  1  0  0  0  0
 15 10  2  0  0  0  0
 18 14  1  0  0  0  0
 19 20  2  0  0  0  0
 19  4  1  0  0  0  0
 21 19  1  0  0  0  0
 22 21  1  0  0  0  0
 23 22  1  0  0  0  0
 23 24  1  0  0  0  0
 24 25  1  0  0  0  0
 25 21  1  0  0  0  0
M  END
>  <minimizedAffinity>
-5.26510715

>  <minimizedRMSD>
0.846919239

$$$$
