
 OpenBabel03272509313D

 34 36  0  0  1  0  0  0  0  0999 V2000
   36.2890   30.6870   48.9870 C   0  0  2  0  0  0  0  0  0  0  0  0
   37.2400   31.5690   49.7340 C   0  0  0  0  0  0  0  0  0  0  0  0
   38.1250   30.8030   50.6920 C   0  0  0  0  0  0  0  0  0  0  0  0
   37.2940   29.9800   51.6690 C   0  0  0  0  0  0  0  0  0  0  0  0
   36.0290   29.4150   51.0760 C   0  0  0  0  0  0  0  0  0  0  0  0
   36.2210   29.3120   49.5520 C   0  0  1  0  0  0  0  0  0  0  0  0
   35.2250   31.0600   48.9800 H   0  0  0  0  0  0  0  0  0  0  0  0
   36.5690   32.1830   50.4230 H   0  0  0  0  0  0  0  0  0  0  0  0
   37.7960   32.2950   49.1740 H   0  0  0  0  0  0  0  0  0  0  0  0
   38.8970   30.1950   50.2090 H   0  0  0  0  0  0  0  0  0  0  0  0
   38.6360   31.5740   51.3050 H   0  0  0  0  0  0  0  0  0  0  0  0
   37.1210   30.4940   52.6280 H   0  0  0  0  0  0  0  0  0  0  0  0
   37.9360   29.0930   51.9270 H   0  0  0  0  0  0  0  0  0  0  0  0
   35.8050   28.4050   51.4740 H   0  0  0  0  0  0  0  0  0  0  0  0
   35.2050   30.0940   51.3150 H   0  0  0  0  0  0  0  0  0  0  0  0
   37.1590   28.8160   49.5100 H   0  0  0  0  0  0  0  0  0  0  0  0
   36.6530   30.5990   47.5460 C   0  0  0  0  0  0  0  0  0  0  0  0
   38.0150   30.7830   47.2550 C   0  0  0  0  0  0  0  0  0  0  0  0
   38.3750   30.7020   45.9060 C   0  0  0  0  0  0  0  0  0  0  0  0
   37.4030   30.4520   44.9660 N   0  0  0  0  0  0  0  0  0  0  0  0
   36.0860   30.2800   45.3100 C   0  0  0  0  0  0  0  0  0  0  0  0
   35.7300   30.3570   46.6050 N   0  0  0  0  0  0  0  0  0  0  0  0
   38.8570   30.9720   47.8870 H   0  0  0  0  0  0  0  0  0  0  0  0
   39.3730   30.8190   45.5260 H   0  0  0  0  0  0  0  0  0  0  0  0
   35.3830   30.0880   44.5240 H   0  0  0  0  0  0  0  0  0  0  0  0
   33.9260   28.3350   49.0960 C   0  0  0  0  0  0  0  0  0  0  0  0
   33.1300   28.9960   49.8210 O   0  0  0  0  0  0  0  0  0  0  0  0
   35.3260   28.4300   48.8970 N   0  0  0  0  0  0  0  0  0  0  0  0
   35.6170   27.7160   48.1560 H   0  0  0  0  0  0  0  0  0  0  0  0
   33.0340   27.3460   48.4270 C   0  0  0  0  0  3  0  0  0  0  0  0
   31.9580   27.9900   47.6240 C   0  0  0  0  0  2  0  0  0  0  0  0
   32.1430   27.4630   46.2050 C   0  0  0  0  0  2  0  0  0  0  0  0
   32.6940   26.0810   46.4680 C   0  0  0  0  0  2  0  0  0  0  0  0
   33.7810   26.4160   47.4990 C   0  0  0  0  0  2  0  0  0  0  0  0
  1  7  1  1  0  0  0
  1  6  1  0  0  0  0
  1  2  1  0  0  0  0
  2  8  1  0  0  0  0
  2  3  1  0  0  0  0
  3 11  1  0  0  0  0
  3  4  1  0  0  0  0
  4 13  1  0  0  0  0
  4 12  1  0  0  0  0
  5 15  1  0  0  0  0
  5 14  1  0  0  0  0
  5  4  1  0  0  0  0
  6 16  1  6  0  0  0
  6  5  1  0  0  0  0
  9  2  1  0  0  0  0
 10  3  1  0  0  0  0
 17  1  1  0  0  0  0
 18 17  1  0  0  0  0
 18 23  1  0  0  0  0
 19 18  2  0  0  0  0
 20 21  2  0  0  0  0
 20 19  1  0  0  0  0
 21 22  1  0  0  0  0
 22 17  2  0  0  0  0
 24 19  1  0  0  0  0
 25 21  1  0  0  0  0
 26 27  2  0  0  0  0
 28 26  1  0  0  0  0
 28  6  1  0  0  0  0
 29 28  1  0  0  0  0
 30 26  1  0  0  0  0
 31 30  1  0  0  0  0
 32 33  1  0  0  0  0
 32 31  1  0  0  0  0
 33 34  1  0  0  0  0
 34 30  1  0  0  0  0
M  END
>  <minimizedAffinity>
-5.87619591

>  <minimizedRMSD>
0.727640092

$$$$
