
 OpenBabel03272507273D

 35 37  0  0  1  0  0  0  0  0999 V2000
   36.7630   29.9400   49.3400 C   0  0  0  0  0  0  0  0  0  0  0  0
   37.7540   30.6150   48.6100 C   0  0  0  0  0  0  0  0  0  0  0  0
   37.5020   30.8920   47.2580 C   0  0  0  0  0  0  0  0  0  0  0  0
   36.3370   30.4980   46.7430 N   0  0  0  0  0  0  0  0  0  0  0  0
   35.4040   29.8500   47.4680 C   0  0  0  0  0  0  0  0  0  0  0  0
   35.6220   29.5770   48.7530 N   0  0  0  0  0  0  0  0  0  0  0  0
   38.4650   31.5660   46.4860 N   0  0  0  0  0  0  0  0  0  0  0  0
   39.4490   32.5290   46.9920 C   0  0  0  0  0  0  0  0  0  0  0  0
   40.0990   33.1540   45.8040 C   0  0  0  0  0  0  0  0  0  0  0  0
   39.1420   32.8570   44.7070 C   0  0  0  0  0  0  0  0  0  0  0  0
   38.6980   31.4660   45.0740 C   0  0  2  0  0  0  0  0  0  0  0  0
   36.8960   29.6970   50.3820 H   0  0  0  0  0  0  0  0  0  0  0  0
   38.6750   30.9070   49.0880 H   0  0  0  0  0  0  0  0  0  0  0  0
   34.4940   29.5760   46.9500 H   0  0  0  0  0  0  0  0  0  0  0  0
   40.2240   31.9010   47.4980 H   0  0  0  0  0  0  0  0  0  0  0  0
   39.0090   33.2310   47.6960 H   0  0  0  0  0  0  0  0  0  0  0  0
   40.0780   34.2680   45.9900 H   0  0  0  0  0  0  0  0  0  0  0  0
   41.1210   32.8430   45.5860 H   0  0  0  0  0  0  0  0  0  0  0  0
   39.6390   32.7990   43.7040 H   0  0  0  0  0  0  0  0  0  0  0  0
   38.2860   33.5540   44.6880 H   0  0  0  0  0  0  0  0  0  0  0  0
   37.5810   30.9670   44.2200 C   0  0  0  0  0  0  0  0  0  0  0  0
   36.4310   31.6070   44.6520 F   0  0  0  0  0  0  0  0  0  0  0  0
   37.3460   29.6240   44.2750 F   0  0  0  0  0  0  0  0  0  0  0  0
   37.8300   31.4380   42.9380 F   0  0  0  0  0  0  0  0  0  0  0  0
   39.8430   30.5440   44.9190 C   0  0  0  0  0  0  0  0  0  0  0  0
   39.5020   29.5630   45.3060 H   0  0  0  0  0  0  0  0  0  0  0  0
   40.6230   30.8560   45.6810 H   0  0  0  0  0  0  0  0  0  0  0  0
   40.3530   30.7650   43.8120 O   0  0  0  0  0  0  0  0  0  0  0  0
   40.6930   30.0820   42.6970 C   0  0  0  0  0  0  0  0  0  0  0  0
   40.6760   30.8640   41.7120 O   0  0  0  0  0  0  0  0  0  0  0  0
   41.0860   28.8660   42.0040 C   0  0  0  0  0  3  0  0  0  0  0  0
   39.8180   28.0810   41.6820 C   0  0  0  0  0  2  0  0  0  0  0  0
   40.3900   27.1510   40.6020 C   0  0  0  0  0  2  0  0  0  0  0  0
   40.9510   28.2000   39.6620 C   0  0  0  0  0  2  0  0  0  0  0  0
   41.7000   29.1100   40.6450 C   0  0  0  0  0  2  0  0  0  0  0  0
  1 12  1  0  0  0  0
  2 13  1  0  0  0  0
  2  1  2  0  0  0  0
  3  2  1  0  0  0  0
  4  3  2  0  0  0  0
  4  5  1  0  0  0  0
  5  6  2  0  0  0  0
  6  1  1  0  0  0  0
  7  8  1  0  0  0  0
  7  3  1  0  0  0  0
  8 15  1  0  0  0  0
  8 16  1  0  0  0  0
  9 17  1  0  0  0  0
  9  8  1  0  0  0  0
 10 11  1  0  0  0  0
 10  9  1  0  0  0  0
 11 21  1  6  0  0  0
 11  7  1  0  0  0  0
 14  5  1  0  0  0  0
 18  9  1  0  0  0  0
 19 10  1  0  0  0  0
 20 10  1  0  0  0  0
 21 23  1  0  0  0  0
 21 22  1  0  0  0  0
 24 21  1  0  0  0  0
 25 11  1  0  0  0  0
 25 26  1  0  0  0  0
 25 27  1  0  0  0  0
 28 25  1  0  0  0  0
 29 28  1  0  0  0  0
 30 29  2  0  0  0  0
 31 29  1  0  0  0  0
 32 31  1  0  0  0  0
 33 32  1  0  0  0  0
 34 33  1  0  0  0  0
 34 35  1  0  0  0  0
 35 31  1  0  0  0  0
M  END
>  <minimizedAffinity>
-5.1559515

>  <minimizedRMSD>
0.791610837

$$$$
