
 OpenBabel03272503503D

 33 35  0  0  1  0  0  0  0  0999 V2000
   33.1920   27.2980   45.8550 C   0  0  1  0  0  0  0  0  0  0  0  0
   33.9200   27.4500   47.2090 C   0  0  2  0  0  0  0  0  0  0  0  0
   33.7680   26.2250   47.7810 O   0  0  0  0  0  0  0  0  0  0  0  0
   34.0740   25.3310   46.7690 C   0  0  0  0  0  0  0  0  0  0  0  0
   33.5600   25.9070   45.4700 C   0  0  2  0  0  0  0  0  0  0  0  0
   33.6280   28.0240   45.1360 H   0  0  0  0  0  0  0  0  0  0  0  0
   34.9580   27.7450   46.9380 H   0  0  0  0  0  0  0  0  0  0  0  0
   35.1470   25.0540   46.7410 H   0  0  0  0  0  0  0  0  0  0  0  0
   33.5100   24.3970   46.9840 H   0  0  0  0  0  0  0  0  0  0  0  0
   32.7350   25.3000   45.0480 H   0  0  0  0  0  0  0  0  0  0  0  0
   31.8360   27.5130   46.0070 O   0  0  0  0  0  0  0  0  0  0  0  0
   31.5070   28.0930   45.2590 H   0  0  0  0  0  0  0  0  0  0  0  0
   33.3000   28.5020   47.8160 O   0  0  0  0  0  0  0  0  0  0  0  0
   35.3550   29.7960   46.7800 O   0  0  0  0  0  0  0  0  0  0  0  0
   34.0910   29.9740   47.6070 P   0  0  1  0  0  0  0  0  0  0  0  0
   33.1190   31.0360   46.7140 O   0  0  0  0  0  0  0  0  0  0  0  0
   32.2820   31.2280   47.2030 H   0  0  0  0  0  0  0  0  0  0  0  0
   34.3950   30.5990   49.1630 O   0  0  0  0  0  0  0  0  0  0  0  0
   35.6210   30.4920   49.7800 C   0  0  0  0  0  0  0  0  0  0  0  0
   35.9560   29.4780   50.7050 C   0  0  0  0  0  0  0  0  0  0  0  0
   37.2370   29.4960   51.2490 C   0  0  0  0  0  0  0  0  0  0  0  0
   38.0950   30.4840   50.8630 N   0  0  0  0  0  0  0  0  0  0  0  0
   37.7400   31.4470   49.9680 C   0  0  0  0  0  0  0  0  0  0  0  0
   36.4920   31.4470   49.4250 N   0  0  0  0  0  0  0  0  0  0  0  0
   35.1950   28.7440   50.9370 H   0  0  0  0  0  0  0  0  0  0  0  0
   37.5030   28.7290   51.9550 H   0  0  0  0  0  0  0  0  0  0  0  0
   38.4590   32.2030   49.7000 H   0  0  0  0  0  0  0  0  0  0  0  0
   34.5880   25.9250   44.5270 O   0  0  0  0  0  0  0  0  0  0  0  0
   35.0020   24.6510   44.1570 C   0  0  0  0  0  0  0  0  0  0  0  0
   34.3400   24.2470   42.8670 C   0  0  0  0  0  0  0  0  0  0  0  0
   35.4200   24.0210   41.8600 C   0  0  0  0  0  0  0  0  0  0  0  0
   36.7380   23.9950   42.5820 C   0  0  0  0  0  0  0  0  0  0  0  0
   36.4890   24.5700   43.9480 C   0  0  0  0  0  0  0  0  0  0  0  0
  1  6  1  6  0  0  0
  1 11  1  0  0  0  0
  1  2  1  0  0  0  0
  2  7  1  6  0  0  0
  2  3  1  0  0  0  0
  2 13  1  0  0  0  0
  4  9  1  0  0  0  0
  4  3  1  0  0  0  0
  5 10  1  6  0  0  0
  5  1  1  0  0  0  0
  5  4  1  0  0  0  0
  8  4  1  0  0  0  0
 12 11  1  0  0  0  0
 15 14  2  6  0  0  0
 15 13  1  0  0  0  0
 15 18  1  0  0  0  0
 16 17  1  0  0  0  0
 16 15  1  0  0  0  0
 18 19  1  0  0  0  0
 19 20  1  0  0  0  0
 20 25  1  0  0  0  0
 20 21  2  0  0  0  0
 21 26  1  0  0  0  0
 22 21  1  0  0  0  0
 23 22  2  0  0  0  0
 24 19  2  0  0  0  0
 24 23  1  0  0  0  0
 27 23  1  0  0  0  0
 28  5  1  0  0  0  0
 29 28  1  0  0  0  0
 30 29  1  0  0  0  0
 31 32  1  0  0  0  0
 31 30  1  0  0  0  0
 32 33  1  0  0  0  0
 33 29  1  0  0  0  0
M  END
>  <minimizedAffinity>
-4.09771585

>  <minimizedRMSD>
1.06804705

$$$$
