
 OpenBabel03272500583D

 31 33  0  0  0  0  0  0  0  0999 V2000
   38.3080   32.0270   47.4120 C   0  0  0  0  0  0  0  0  0  0  0  0
   38.8860   32.9410   48.2440 C   0  0  0  0  0  0  0  0  0  0  0  0
   38.4980   33.0880   49.5710 C   0  0  0  0  0  0  0  0  0  0  0  0
   37.4410   32.2280   50.0660 C   0  0  0  0  0  0  0  0  0  0  0  0
   36.9090   31.3420   49.1870 C   0  0  0  0  0  0  0  0  0  0  0  0
   37.2870   31.2060   47.9060 C   0  0  0  0  0  0  0  0  0  0  0  0
   39.6920   33.6100   47.9050 H   0  0  0  0  0  0  0  0  0  0  0  0
   39.0020   33.8440   50.1900 H   0  0  0  0  0  0  0  0  0  0  0  0
   37.2500   32.4530   51.0970 H   0  0  0  0  0  0  0  0  0  0  0  0
   36.1760   30.7980   49.7630 H   0  0  0  0  0  0  0  0  0  0  0  0
   40.0600   31.2730   45.8800 C   0  0  0  0  0  0  0  0  0  0  0  0
   38.8380   31.9730   46.0660 C   0  0  0  0  0  0  0  0  0  0  0  0
   38.3040   32.5100   44.9220 C   0  0  0  0  0  0  0  0  0  0  0  0
   38.9260   32.3600   43.7400 N   0  0  0  0  0  0  0  0  0  0  0  0
   40.0570   31.7090   43.5830 C   0  0  0  0  0  0  0  0  0  0  0  0
   40.6140   31.1710   44.6550 N   0  0  0  0  0  0  0  0  0  0  0  0
   40.5300   30.8310   46.7270 H   0  0  0  0  0  0  0  0  0  0  0  0
   37.3710   33.0450   45.0660 H   0  0  0  0  0  0  0  0  0  0  0  0
   40.5480   31.5940   42.6250 H   0  0  0  0  0  0  0  0  0  0  0  0
   35.2820   30.0890   47.3870 C   0  0  0  0  0  0  0  0  0  0  0  0
   34.7880   30.7090   48.4110 O   0  0  0  0  0  0  0  0  0  0  0  0
   36.6800   30.3030   47.0710 N   0  0  0  0  0  0  0  0  0  0  0  0
   37.1550   29.8220   46.3020 H   0  0  0  0  0  0  0  0  0  0  0  0
   34.4760   29.2610   46.6520 O   0  0  0  0  0  0  0  0  0  0  0  0
   33.1030   29.4180   46.5070 C   0  0  0  0  0  0  0  0  0  0  0  0
   32.5800   30.4930   45.9560 O   0  0  0  0  0  0  0  0  0  0  0  0
   32.1200   28.3880   46.9370 C   0  0  0  0  0  3  0  0  0  0  0  0
   32.2790   27.1040   46.1450 C   0  0  0  0  0  2  0  0  0  0  0  0
   31.8080   26.0040   47.0710 C   0  0  0  0  0  2  0  0  0  0  0  0
   31.4180   26.7070   48.3710 C   0  0  0  0  0  2  0  0  0  0  0  0
   32.4030   27.8830   48.3280 C   0  0  0  0  0  2  0  0  0  0  0  0
  1  6  2  0  0  0  0
  1  2  1  0  0  0  0
  2  3  2  0  0  0  0
  3  4  1  0  0  0  0
  3  8  1  0  0  0  0
  4  9  1  0  0  0  0
  5 10  1  0  0  0  0
  5  4  2  0  0  0  0
  6  5  1  0  0  0  0
  7  2  1  0  0  0  0
 11 12  1  0  0  0  0
 11 17  1  0  0  0  0
 12  1  1  0  0  0  0
 13 18  1  0  0  0  0
 13 12  2  0  0  0  0
 14 13  1  0  0  0  0
 15 14  2  0  0  0  0
 15 16  1  0  0  0  0
 16 11  2  0  0  0  0
 19 15  1  0  0  0  0
 20 21  2  0  0  0  0
 22 20  1  0  0  0  0
 22  6  1  0  0  0  0
 23 22  1  0  0  0  0
 24 20  1  0  0  0  0
 25 24  1  0  0  0  0
 25 27  1  0  0  0  0
 26 25  2  0  0  0  0
 27 31  1  0  0  0  0
 28 27  1  0  0  0  0
 28 29  1  0  0  0  0
 29 30  1  0  0  0  0
 31 30  1  0  0  0  0
M  END
>  <minimizedAffinity>
-5.75826502

>  <minimizedRMSD>
1.420398

$$$$
