
 OpenBabel03272507313D

 25 27  0  0  0  0  0  0  0  0999 V2000
   35.8910   29.2160   49.7870 C   0  0  0  0  0  0  0  0  0  0  0  0
   34.8320   29.7740   50.4200 C   0  0  0  0  0  0  0  0  0  0  0  0
   33.6660   29.1730   49.9460 C   0  0  0  0  0  0  0  0  0  0  0  0
   34.1180   28.2310   48.9960 C   0  0  0  0  0  0  0  0  0  0  0  0
   35.4050   28.3340   48.9790 O   0  0  0  0  0  0  0  0  0  0  0  0
   34.8360   30.5510   51.1710 H   0  0  0  0  0  0  0  0  0  0  0  0
   32.6470   29.3550   50.2140 H   0  0  0  0  0  0  0  0  0  0  0  0
   37.2610   29.6100   50.0440 C   0  0  0  0  0  0  0  0  0  0  0  0
   37.8810   29.0640   50.9670 O   0  0  0  0  0  0  0  0  0  0  0  0
   37.8220   30.6410   49.1800 C   0  0  0  0  0  0  0  0  0  0  0  0
   38.1490   31.8550   49.7850 C   0  0  0  0  0  0  0  0  0  0  0  0
   38.6850   32.8660   49.0010 C   0  0  0  0  0  0  0  0  0  0  0  0
   38.8620   32.6030   47.6640 N   0  0  0  0  0  0  0  0  0  0  0  0
   38.5420   31.4340   47.1060 C   0  0  0  0  0  0  0  0  0  0  0  0
   38.0220   30.4480   47.8560 N   0  0  0  0  0  0  0  0  0  0  0  0
   37.9850   32.0020   50.8470 H   0  0  0  0  0  0  0  0  0  0  0  0
   38.9370   33.8020   49.4660 H   0  0  0  0  0  0  0  0  0  0  0  0
   38.7220   31.3280   46.0440 H   0  0  0  0  0  0  0  0  0  0  0  0
   33.2300   27.3510   48.2260 C   0  0  0  0  0  0  0  0  0  0  0  0
   31.9810   27.4240   48.3940 O   0  0  0  0  0  0  0  0  0  0  0  0
   33.8740   26.4230   47.2880 C   0  0  0  0  0  3  0  0  0  0  0  0
   33.6250   26.8060   45.8300 C   0  0  0  0  0  2  0  0  0  0  0  0
   34.1900   25.5830   45.1320 C   0  0  0  0  0  2  0  0  0  0  0  0
   34.0630   24.4290   46.1370 C   0  0  0  0  0  2  0  0  0  0  0  0
   33.2370   25.0540   47.2710 C   0  0  0  0  0  2  0  0  0  0  0  0
  1  8  1  0  0  0  0
  1  2  2  0  0  0  0
  2  6  1  0  0  0  0
  3  7  1  0  0  0  0
  3  2  1  0  0  0  0
  4  3  2  0  0  0  0
  5  4  1  0  0  0  0
  5  1  1  0  0  0  0
  8  9  2  0  0  0  0
 10 11  1  0  0  0  0
 10  8  1  0  0  0  0
 11 16  1  0  0  0  0
 12 17  1  0  0  0  0
 12 11  2  0  0  0  0
 13 12  1  0  0  0  0
 14 13  2  0  0  0  0
 14 15  1  0  0  0  0
 15 10  2  0  0  0  0
 18 14  1  0  0  0  0
 19 20  2  0  0  0  0
 19  4  1  0  0  0  0
 21 19  1  0  0  0  0
 22 21  1  0  0  0  0
 23 22  1  0  0  0  0
 23 24  1  0  0  0  0
 24 25  1  0  0  0  0
 25 21  1  0  0  0  0
M  END
>  <minimizedAffinity>
-5.25970221

>  <minimizedRMSD>
0.88429296

$$$$
