
 OpenBabel03272510313D

 28 30  0  0  0  0  0  0  0  0999 V2000
   38.3460   25.1730   36.2050 C   0  0  0  0  0  0  0  0  0  0  0  0
   37.8750   24.6850   37.4110 C   0  0  0  0  0  0  0  0  0  0  0  0
   37.7250   23.2970   37.4870 C   0  0  0  0  0  0  0  0  0  0  0  0
   38.0390   22.5250   36.4070 N   0  0  0  0  0  0  0  0  0  0  0  0
   38.4940   23.0420   35.2490 C   0  0  0  0  0  0  0  0  0  0  0  0
   38.6530   24.4010   35.1440 N   0  0  0  0  0  0  0  0  0  0  0  0
   37.6450   25.3570   38.2300 H   0  0  0  0  0  0  0  0  0  0  0  0
   37.3600   22.8640   38.4090 H   0  0  0  0  0  0  0  0  0  0  0  0
   38.5460   26.6600   36.1090 C   0  0  0  0  0  0  0  0  0  0  0  0
   38.9980   27.3010   34.9160 C   0  0  0  0  0  0  0  0  0  0  0  0
   37.5010   27.3240   35.1810 C   0  0  0  0  0  0  0  0  0  0  0  0
   38.4740   27.1180   37.1280 H   0  0  0  0  0  0  0  0  0  0  0  0
   39.5370   28.2840   35.0360 H   0  0  0  0  0  0  0  0  0  0  0  0
   39.4190   26.7200   34.0940 H   0  0  0  0  0  0  0  0  0  0  0  0
   37.0620   28.2760   35.4770 H   0  0  0  0  0  0  0  0  0  0  0  0
   36.9190   26.6820   34.5170 H   0  0  0  0  0  0  0  0  0  0  0  0
   38.8380   22.2280   34.0920 C   0  0  0  0  0  0  0  0  0  0  0  0
   39.6600   21.4940   34.2880 H   0  0  0  0  0  0  0  0  0  0  0  0
   39.1590   22.8250   33.2440 H   0  0  0  0  0  0  0  0  0  0  0  0
   36.7210   22.0990   32.7650 C   0  0  0  0  0  0  0  0  0  0  0  0
   36.8770   23.1990   32.1730 O   0  0  0  0  0  0  0  0  0  0  0  0
   37.6270   21.5300   33.6920 N   0  0  0  0  0  0  0  0  0  0  0  0
   37.4630   20.5870   34.1280 H   0  0  0  0  0  0  0  0  0  0  0  0
   35.4780   21.2970   32.4870 C   0  0  0  0  0  3  0  0  0  0  0  0
   35.5460   20.8350   31.0390 C   0  0  0  0  0  2  0  0  0  0  0  0
   36.0220   19.3880   31.1430 C   0  0  0  0  0  2  0  0  0  0  0  0
   35.2110   18.9330   32.3480 C   0  0  0  0  0  2  0  0  0  0  0  0
   35.4310   20.0490   33.3200 C   0  0  0  0  0  2  0  0  0  0  0  0
  1  2  1  0  0  0  0
  2  3  2  0  0  0  0
  2  7  1  0  0  0  0
  3  8  1  0  0  0  0
  4  3  1  0  0  0  0
  5  4  2  0  0  0  0
  6  5  1  0  0  0  0
  6  1  2  0  0  0  0
  9  1  1  0  0  0  0
  9 12  1  0  0  0  0
 10 13  1  0  0  0  0
 10 11  1  0  0  0  0
 10  9  1  0  0  0  0
 11 15  1  0  0  0  0
 11  9  1  0  0  0  0
 14 10  1  0  0  0  0
 16 11  1  0  0  0  0
 17 18  1  0  0  0  0
 17  5  1  0  0  0  0
 19 17  1  0  0  0  0
 20 22  1  0  0  0  0
 21 20  2  0  0  0  0
 22 17  1  0  0  0  0
 22 23  1  0  0  0  0
 24 20  1  0  0  0  0
 24 28  1  0  0  0  0
 25 26  1  0  0  0  0
 25 24  1  0  0  0  0
 26 27  1  0  0  0  0
 27 28  1  0  0  0  0
M  END
>  <minimizedAffinity>
-5.13905191

$$$$

 OpenBabel03272510313D

 28 30  0  0  0  0  0  0  0  0999 V2000
   36.6230   26.3080   32.0300 C   0  0  0  0  0  0  0  0  0  0  0  0
   35.5240   26.1360   31.2090 C   0  0  0  0  0  0  0  0  0  0  0  0
   35.1510   24.8110   30.9620 C   0  0  0  0  0  0  0  0  0  0  0  0
   35.8680   23.7940   31.5230 N   0  0  0  0  0  0  0  0  0  0  0  0
   36.9350   24.0070   32.3180 C   0  0  0  0  0  0  0  0  0  0  0  0
   37.3250   25.2960   32.5790 N   0  0  0  0  0  0  0  0  0  0  0  0
   35.0000   26.9900   30.7970 H   0  0  0  0  0  0  0  0  0  0  0  0
   34.2970   24.6210   30.3260 H   0  0  0  0  0  0  0  0  0  0  0  0
   37.0250   27.7240   32.3360 C   0  0  0  0  0  0  0  0  0  0  0  0
   36.0940   28.8070   32.3320 C   0  0  0  0  0  0  0  0  0  0  0  0
   36.4460   28.2090   33.6860 C   0  0  0  0  0  0  0  0  0  0  0  0
   38.1410   27.8030   32.3670 H   0  0  0  0  0  0  0  0  0  0  0  0
   36.5060   29.8360   32.1230 H   0  0  0  0  0  0  0  0  0  0  0  0
   35.1000   28.6870   31.9010 H   0  0  0  0  0  0  0  0  0  0  0  0
   37.0740   28.8060   34.3450 H   0  0  0  0  0  0  0  0  0  0  0  0
   35.6420   27.6280   34.1400 H   0  0  0  0  0  0  0  0  0  0  0  0
   37.7040   22.9300   32.9270 C   0  0  0  0  0  0  0  0  0  0  0  0
   38.4030   22.4210   32.2160 H   0  0  0  0  0  0  0  0  0  0  0  0
   37.0720   22.1510   33.3430 H   0  0  0  0  0  0  0  0  0  0  0  0
   38.3560   22.9890   35.3410 C   0  0  0  0  0  0  0  0  0  0  0  0
   37.6900   21.9750   35.6750 O   0  0  0  0  0  0  0  0  0  0  0  0
   38.4480   23.5150   34.0300 N   0  0  0  0  0  0  0  0  0  0  0  0
   39.0540   24.3440   33.8010 H   0  0  0  0  0  0  0  0  0  0  0  0
   39.1310   23.7280   36.3980 C   0  0  0  0  0  3  0  0  0  0  0  0
   38.1920   24.7460   37.0270 C   0  0  0  0  0  2  0  0  0  0  0  0
   37.7520   24.0770   38.3280 C   0  0  0  0  0  2  0  0  0  0  0  0
   39.0760   23.4650   38.7660 C   0  0  0  0  0  2  0  0  0  0  0  0
   39.5570   22.8120   37.5080 C   0  0  0  0  0  2  0  0  0  0  0  0
  1  9  1  0  0  0  0
  1  6  1  0  0  0  0
  2  1  2  0  0  0  0
  3  2  1  0  0  0  0
  3  4  2  0  0  0  0
  4  5  1  0  0  0  0
  5  6  2  0  0  0  0
  5 17  1  0  0  0  0
  7  2  1  0  0  0  0
  8  3  1  0  0  0  0
  9 12  1  0  0  0  0
  9 11  1  0  0  0  0
 10  9  1  0  0  0  0
 10 11  1  0  0  0  0
 11 16  1  0  0  0  0
 11 15  1  0  0  0  0
 13 10  1  0  0  0  0
 14 10  1  0  0  0  0
 17 19  1  0  0  0  0
 17 22  1  0  0  0  0
 18 17  1  0  0  0  0
 20 21  2  0  0  0  0
 20 24  1  0  0  0  0
 22 20  1  0  0  0  0
 23 22  1  0  0  0  0
 24 25  1  0  0  0  0
 24 28  1  0  0  0  0
 25 26  1  0  0  0  0
 26 27  1  0  0  0  0
 28 27  1  0  0  0  0
M  END
>  <minimizedAffinity>
-5.02857971

$$$$

 OpenBabel03272510313D

 28 30  0  0  0  0  0  0  0  0999 V2000
   38.2710   25.1950   35.8390 C   0  0  0  0  0  0  0  0  0  0  0  0
   38.2500   26.4910   36.3230 C   0  0  0  0  0  0  0  0  0  0  0  0
   37.8910   27.4780   35.4000 C   0  0  0  0  0  0  0  0  0  0  0  0
   37.5910   27.1230   34.1160 N   0  0  0  0  0  0  0  0  0  0  0  0
   37.6250   25.8470   33.6860 C   0  0  0  0  0  0  0  0  0  0  0  0
   37.9740   24.8560   34.5690 N   0  0  0  0  0  0  0  0  0  0  0  0
   38.4990   26.7020   37.3560 H   0  0  0  0  0  0  0  0  0  0  0  0
   37.8590   28.5090   35.7280 H   0  0  0  0  0  0  0  0  0  0  0  0
   38.6230   24.1120   36.8200 C   0  0  0  0  0  0  0  0  0  0  0  0
   38.1040   24.0770   38.1500 C   0  0  0  0  0  0  0  0  0  0  0  0
   37.4180   23.1910   37.1220 C   0  0  0  0  0  0  0  0  0  0  0  0
   39.4640   23.4930   36.4150 H   0  0  0  0  0  0  0  0  0  0  0  0
   38.7220   23.5450   38.9280 H   0  0  0  0  0  0  0  0  0  0  0  0
   37.5990   24.9460   38.5750 H   0  0  0  0  0  0  0  0  0  0  0  0
   37.5810   22.1170   37.2020 H   0  0  0  0  0  0  0  0  0  0  0  0
   36.4230   23.5320   36.8300 H   0  0  0  0  0  0  0  0  0  0  0  0
   37.3020   25.4560   32.3220 C   0  0  0  0  0  0  0  0  0  0  0  0
   37.9540   25.9400   31.5500 H   0  0  0  0  0  0  0  0  0  0  0  0
   36.2790   25.6970   32.0500 H   0  0  0  0  0  0  0  0  0  0  0  0
   36.3460   23.1860   31.8830 C   0  0  0  0  0  0  0  0  0  0  0  0
   35.2060   23.5950   31.5400 O   0  0  0  0  0  0  0  0  0  0  0  0
   37.4360   24.0100   32.2540 N   0  0  0  0  0  0  0  0  0  0  0  0
   38.3800   23.6130   32.4940 H   0  0  0  0  0  0  0  0  0  0  0  0
   36.6060   21.7040   31.9130 C   0  0  0  0  0  3  0  0  0  0  0  0
   36.9840   21.3340   33.3400 C   0  0  0  0  0  2  0  0  0  0  0  0
   35.6940   20.7550   33.9170 C   0  0  0  0  0  2  0  0  0  0  0  0
   35.2130   19.9470   32.7200 C   0  0  0  0  0  2  0  0  0  0  0  0
   35.3650   20.9220   31.5950 C   0  0  0  0  0  2  0  0  0  0  0  0
  1  2  1  0  0  0  0
  1  9  1  0  0  0  0
  2  7  1  0  0  0  0
  3  8  1  0  0  0  0
  3  2  2  0  0  0  0
  4  3  1  0  0  0  0
  5  4  2  0  0  0  0
  5  6  1  0  0  0  0
  6  1  2  0  0  0  0
  9 11  1  0  0  0  0
  9 10  1  0  0  0  0
 10 14  1  0  0  0  0
 10 13  1  0  0  0  0
 11 15  1  0  0  0  0
 11 10  1  0  0  0  0
 12  9  1  0  0  0  0
 16 11  1  0  0  0  0
 17  5  1  0  0  0  0
 18 17  1  0  0  0  0
 19 17  1  0  0  0  0
 20 24  1  0  0  0  0
 20 22  1  0  0  0  0
 21 20  2  0  0  0  0
 22 17  1  0  0  0  0
 22 23  1  0  0  0  0
 24 25  1  0  0  0  0
 25 26  1  0  0  0  0
 27 26  1  0  0  0  0
 28 24  1  0  0  0  0
 28 27  1  0  0  0  0
M  END
>  <minimizedAffinity>
-5.01182842

$$$$

 OpenBabel03272510313D

 28 30  0  0  0  0  0  0  0  0999 V2000
   35.9600   23.7340   31.5400 C   0  0  0  0  0  0  0  0  0  0  0  0
   35.2040   24.6960   30.8950 C   0  0  0  0  0  0  0  0  0  0  0  0
   35.4840   26.0220   31.2440 C   0  0  0  0  0  0  0  0  0  0  0  0
   36.4510   26.2850   32.1690 N   0  0  0  0  0  0  0  0  0  0  0  0
   37.1640   25.3150   32.7750 C   0  0  0  0  0  0  0  0  0  0  0  0
   36.9130   24.0050   32.4530 N   0  0  0  0  0  0  0  0  0  0  0  0
   34.4510   24.4160   30.1680 H   0  0  0  0  0  0  0  0  0  0  0  0
   34.9210   26.8140   30.7680 H   0  0  0  0  0  0  0  0  0  0  0  0
   35.7000   22.3030   31.1590 C   0  0  0  0  0  0  0  0  0  0  0  0
   36.4420   21.2120   31.7050 C   0  0  0  0  0  0  0  0  0  0  0  0
   35.0840   21.4970   32.3270 C   0  0  0  0  0  0  0  0  0  0  0  0
   35.0050   22.2650   30.2820 H   0  0  0  0  0  0  0  0  0  0  0  0
   36.5140   20.2770   31.0800 H   0  0  0  0  0  0  0  0  0  0  0  0
   37.3660   21.3870   32.2580 H   0  0  0  0  0  0  0  0  0  0  0  0
   34.2830   20.7910   32.1160 H   0  0  0  0  0  0  0  0  0  0  0  0
   35.1320   21.9250   33.3300 H   0  0  0  0  0  0  0  0  0  0  0  0
   38.2020   25.5840   33.7600 C   0  0  0  0  0  0  0  0  0  0  0  0
   37.9210   26.3720   34.5040 H   0  0  0  0  0  0  0  0  0  0  0  0
   39.1320   25.9120   33.3050 H   0  0  0  0  0  0  0  0  0  0  0  0
   38.3830   24.2160   35.8460 C   0  0  0  0  0  0  0  0  0  0  0  0
   38.0250   25.1340   36.6290 O   0  0  0  0  0  0  0  0  0  0  0  0
   38.4760   24.3280   34.4380 N   0  0  0  0  0  0  0  0  0  0  0  0
   38.7440   23.5130   33.8290 H   0  0  0  0  0  0  0  0  0  0  0  0
   38.7520   22.8760   36.4230 C   0  0  0  0  0  3  0  0  0  0  0  0
   39.7640   22.2360   35.4840 C   0  0  0  0  0  2  0  0  0  0  0  0
   41.1060   22.4960   36.1670 C   0  0  0  0  0  2  0  0  0  0  0  0
   40.7140   22.2370   37.6150 C   0  0  0  0  0  2  0  0  0  0  0  0
   39.4440   23.0180   37.7470 C   0  0  0  0  0  2  0  0  0  0  0  0
  1  6  1  0  0  0  0
  2  3  1  0  0  0  0
  2  1  2  0  0  0  0
  3  4  2  0  0  0  0
  4  5  1  0  0  0  0
  5 17  1  0  0  0  0
  6  5  2  0  0  0  0
  7  2  1  0  0  0  0
  8  3  1  0  0  0  0
  9  1  1  0  0  0  0
  9 10  1  0  0  0  0
  9 11  1  0  0  0  0
 10 14  1  0  0  0  0
 10 11  1  0  0  0  0
 11 16  1  0  0  0  0
 12  9  1  0  0  0  0
 13 10  1  0  0  0  0
 15 11  1  0  0  0  0
 17 22  1  0  0  0  0
 17 18  1  0  0  0  0
 19 17  1  0  0  0  0
 20 24  1  0  0  0  0
 20 21  2  0  0  0  0
 22 20  1  0  0  0  0
 23 22  1  0  0  0  0
 24 28  1  0  0  0  0
 25 26  1  0  0  0  0
 25 24  1  0  0  0  0
 26 27  1  0  0  0  0
 27 28  1  0  0  0  0
M  END
>  <minimizedAffinity>
-4.96873569

$$$$

 OpenBabel03272510313D

 28 30  0  0  0  0  0  0  0  0999 V2000
   40.0920   22.4930   36.9260 C   0  0  0  0  0  0  0  0  0  0  0  0
   39.3250   23.0620   37.9270 C   0  0  0  0  0  0  0  0  0  0  0  0
   38.1550   23.7020   37.5050 C   0  0  0  0  0  0  0  0  0  0  0  0
   37.8450   23.7310   36.1760 N   0  0  0  0  0  0  0  0  0  0  0  0
   38.6230   23.1640   35.2330 C   0  0  0  0  0  0  0  0  0  0  0  0
   39.7770   22.5280   35.6160 N   0  0  0  0  0  0  0  0  0  0  0  0
   39.6310   23.0000   38.9640 H   0  0  0  0  0  0  0  0  0  0  0  0
   37.5180   24.1630   38.2490 H   0  0  0  0  0  0  0  0  0  0  0  0
   41.3390   21.7720   37.3570 C   0  0  0  0  0  0  0  0  0  0  0  0
   42.1620   21.0420   36.4460 C   0  0  0  0  0  0  0  0  0  0  0  0
   42.6170   22.4470   36.8060 C   0  0  0  0  0  0  0  0  0  0  0  0
   41.3930   21.7440   38.4750 H   0  0  0  0  0  0  0  0  0  0  0  0
   42.7750   20.1980   36.8730 H   0  0  0  0  0  0  0  0  0  0  0  0
   41.8060   20.8010   35.4430 H   0  0  0  0  0  0  0  0  0  0  0  0
   43.4870   22.5380   37.4530 H   0  0  0  0  0  0  0  0  0  0  0  0
   42.5080   23.1730   35.9980 H   0  0  0  0  0  0  0  0  0  0  0  0
   38.2990   23.1840   33.8140 C   0  0  0  0  0  0  0  0  0  0  0  0
   39.1720   22.9570   33.1510 H   0  0  0  0  0  0  0  0  0  0  0  0
   37.9120   24.1460   33.4890 H   0  0  0  0  0  0  0  0  0  0  0  0
   36.4990   22.1670   32.4060 C   0  0  0  0  0  0  0  0  0  0  0  0
   36.6860   22.9100   31.4070 O   0  0  0  0  0  0  0  0  0  0  0  0
   37.2440   22.2050   33.6080 N   0  0  0  0  0  0  0  0  0  0  0  0
   37.0680   21.5310   34.3970 H   0  0  0  0  0  0  0  0  0  0  0  0
   35.3970   21.1430   32.3500 C   0  0  0  0  0  3  0  0  0  0  0  0
   35.6230   20.2960   31.1060 C   0  0  0  0  0  2  0  0  0  0  0  0
   36.2820   19.0290   31.6470 C   0  0  0  0  0  2  0  0  0  0  0  0
   35.4620   18.8290   32.9130 C   0  0  0  0  0  2  0  0  0  0  0  0
   35.4640   20.2000   33.5140 C   0  0  0  0  0  2  0  0  0  0  0  0
  1  9  1  0  0  0  0
  1  2  1  0  0  0  0
  2  7  1  0  0  0  0
  3  2  2  0  0  0  0
  3  8  1  0  0  0  0
  4  3  1  0  0  0  0
  5  6  1  0  0  0  0
  5  4  2  0  0  0  0
  6  1  2  0  0  0  0
  9 12  1  0  0  0  0
 10 11  1  0  0  0  0
 10 13  1  0  0  0  0
 10  9  1  0  0  0  0
 11  9  1  0  0  0  0
 11 15  1  0  0  0  0
 14 10  1  0  0  0  0
 16 11  1  0  0  0  0
 17  5  1  0  0  0  0
 18 17  1  0  0  0  0
 19 17  1  0  0  0  0
 20 22  1  0  0  0  0
 21 20  2  0  0  0  0
 22 17  1  0  0  0  0
 22 23  1  0  0  0  0
 24 20  1  0  0  0  0
 24 28  1  0  0  0  0
 25 26  1  0  0  0  0
 25 24  1  0  0  0  0
 26 27  1  0  0  0  0
 27 28  1  0  0  0  0
M  END
>  <minimizedAffinity>
-4.95983124

$$$$

 OpenBabel03272510313D

 28 30  0  0  0  0  0  0  0  0999 V2000
   39.6380   22.8930   37.2220 C   0  0  0  0  0  0  0  0  0  0  0  0
   40.7990   22.1610   37.3930 C   0  0  0  0  0  0  0  0  0  0  0  0
   41.3970   21.6890   36.2200 C   0  0  0  0  0  0  0  0  0  0  0  0
   40.8240   21.9650   35.0130 N   0  0  0  0  0  0  0  0  0  0  0  0
   39.6900   22.6830   34.8920 C   0  0  0  0  0  0  0  0  0  0  0  0
   39.0800   23.1600   36.0250 N   0  0  0  0  0  0  0  0  0  0  0  0
   41.2000   21.9790   38.3830 H   0  0  0  0  0  0  0  0  0  0  0  0
   42.3080   21.1100   36.2990 H   0  0  0  0  0  0  0  0  0  0  0  0
   38.9930   23.4390   38.4660 C   0  0  0  0  0  0  0  0  0  0  0  0
   37.9520   24.4150   38.4310 C   0  0  0  0  0  0  0  0  0  0  0  0
   37.5270   22.9660   38.6110 C   0  0  0  0  0  0  0  0  0  0  0  0
   39.5730   23.1130   39.3670 H   0  0  0  0  0  0  0  0  0  0  0  0
   37.8420   25.0800   39.3340 H   0  0  0  0  0  0  0  0  0  0  0  0
   37.7300   24.9600   37.5120 H   0  0  0  0  0  0  0  0  0  0  0  0
   37.1620   22.6740   39.5940 H   0  0  0  0  0  0  0  0  0  0  0  0
   37.0370   22.5320   37.7380 H   0  0  0  0  0  0  0  0  0  0  0  0
   39.0720   22.9900   33.6100 C   0  0  0  0  0  0  0  0  0  0  0  0
   39.7320   22.7730   32.7320 H   0  0  0  0  0  0  0  0  0  0  0  0
   38.7850   24.0330   33.5250 H   0  0  0  0  0  0  0  0  0  0  0  0
   36.9110   22.4060   32.4950 C   0  0  0  0  0  0  0  0  0  0  0  0
   37.0350   23.2240   31.5460 O   0  0  0  0  0  0  0  0  0  0  0  0
   37.8540   22.2000   33.5290 N   0  0  0  0  0  0  0  0  0  0  0  0
   37.7150   21.4730   34.2760 H   0  0  0  0  0  0  0  0  0  0  0  0
   35.6660   21.5620   32.5660 C   0  0  0  0  0  3  0  0  0  0  0  0
   35.5860   20.7570   31.2770 C   0  0  0  0  0  2  0  0  0  0  0  0
   36.1080   19.3790   31.6800 C   0  0  0  0  0  2  0  0  0  0  0  0
   35.4480   19.2380   33.0440 C   0  0  0  0  0  2  0  0  0  0  0  0
   35.7440   20.5600   33.6800 C   0  0  0  0  0  2  0  0  0  0  0  0
  1  2  1  0  0  0  0
  1  9  1  0  0  0  0
  2  7  1  0  0  0  0
  3  8  1  0  0  0  0
  3  2  2  0  0  0  0
  4  3  1  0  0  0  0
  5  4  2  0  0  0  0
  5  6  1  0  0  0  0
  6  1  2  0  0  0  0
  9 11  1  0  0  0  0
  9 12  1  0  0  0  0
 10  9  1  0  0  0  0
 10 11  1  0  0  0  0
 10 13  1  0  0  0  0
 11 15  1  0  0  0  0
 14 10  1  0  0  0  0
 16 11  1  0  0  0  0
 17  5  1  0  0  0  0
 18 17  1  0  0  0  0
 19 17  1  0  0  0  0
 20 24  1  0  0  0  0
 20 22  1  0  0  0  0
 21 20  2  0  0  0  0
 22 17  1  0  0  0  0
 22 23  1  0  0  0  0
 24 28  1  0  0  0  0
 25 26  1  0  0  0  0
 25 24  1  0  0  0  0
 26 27  1  0  0  0  0
 27 28  1  0  0  0  0
M  END
>  <minimizedAffinity>
-4.88503647

$$$$

 OpenBabel03272510313D

 28 30  0  0  0  0  0  0  0  0999 V2000
   36.6910   21.4520   33.4280 C   0  0  0  0  0  0  0  0  0  0  0  0
   35.6570   20.7420   34.0110 C   0  0  0  0  0  0  0  0  0  0  0  0
   35.6410   20.7320   35.4100 C   0  0  0  0  0  0  0  0  0  0  0  0
   36.6130   21.3980   36.0990 N   0  0  0  0  0  0  0  0  0  0  0  0
   37.6040   22.0770   35.4890 C   0  0  0  0  0  0  0  0  0  0  0  0
   37.6460   22.1060   34.1180 N   0  0  0  0  0  0  0  0  0  0  0  0
   34.9180   20.2360   33.4020 H   0  0  0  0  0  0  0  0  0  0  0  0
   34.8530   20.1920   35.9170 H   0  0  0  0  0  0  0  0  0  0  0  0
   36.7120   21.5040   31.9250 C   0  0  0  0  0  0  0  0  0  0  0  0
   35.5390   21.3280   31.1310 C   0  0  0  0  0  0  0  0  0  0  0  0
   35.9900   22.7590   31.3810 C   0  0  0  0  0  0  0  0  0  0  0  0
   37.7710   21.5050   31.5610 H   0  0  0  0  0  0  0  0  0  0  0  0
   35.6830   20.9400   30.0830 H   0  0  0  0  0  0  0  0  0  0  0  0
   34.6200   20.9390   31.5710 H   0  0  0  0  0  0  0  0  0  0  0  0
   36.4270   23.2960   30.5410 H   0  0  0  0  0  0  0  0  0  0  0  0
   35.3450   23.3180   32.0610 H   0  0  0  0  0  0  0  0  0  0  0  0
   38.6420   22.7960   36.2140 C   0  0  0  0  0  0  0  0  0  0  0  0
   39.6800   22.5360   35.8860 H   0  0  0  0  0  0  0  0  0  0  0  0
   38.6060   22.6130   37.2840 H   0  0  0  0  0  0  0  0  0  0  0  0
   39.3700   25.0580   35.4320 C   0  0  0  0  0  0  0  0  0  0  0  0
   40.4930   24.6860   35.0010 O   0  0  0  0  0  0  0  0  0  0  0  0
   38.3930   24.2140   36.0120 N   0  0  0  0  0  0  0  0  0  0  0  0
   37.4540   24.5750   36.3190 H   0  0  0  0  0  0  0  0  0  0  0  0
   39.0040   26.5150   35.3370 C   0  0  0  0  0  3  0  0  0  0  0  0
   39.5170   27.0290   34.0000 C   0  0  0  0  0  2  0  0  0  0  0  0
   38.2740   27.0310   33.1130 C   0  0  0  0  0  2  0  0  0  0  0  0
   37.2450   27.5500   34.1080 C   0  0  0  0  0  2  0  0  0  0  0  0
   37.5170   26.7080   35.3150 C   0  0  0  0  0  2  0  0  0  0  0  0
  1  2  2  0  0  0  0
  1  6  1  0  0  0  0
  2  3  1  0  0  0  0
  3  8  1  0  0  0  0
  3  4  2  0  0  0  0
  5  4  1  0  0  0  0
  5 17  1  0  0  0  0
  6  5  2  0  0  0  0
  7  2  1  0  0  0  0
  9  1  1  0  0  0  0
 10 11  1  0  0  0  0
 10 14  1  0  0  0  0
 10  9  1  0  0  0  0
 11  9  1  0  0  0  0
 11 16  1  0  0  0  0
 12  9  1  0  0  0  0
 13 10  1  0  0  0  0
 15 11  1  0  0  0  0
 17 19  1  0  0  0  0
 18 17  1  0  0  0  0
 20 22  1  0  0  0  0
 21 20  2  0  0  0  0
 22 17  1  0  0  0  0
 22 23  1  0  0  0  0
 24 20  1  0  0  0  0
 25 24  1  0  0  0  0
 26 25  1  0  0  0  0
 26 27  1  0  0  0  0
 27 28  1  0  0  0  0
 28 24  1  0  0  0  0
M  END
>  <minimizedAffinity>
-4.8396306

$$$$

 OpenBabel03272510313D

 28 30  0  0  0  0  0  0  0  0999 V2000
   38.1820   25.1170   36.2250 C   0  0  0  0  0  0  0  0  0  0  0  0
   37.9220   24.5930   37.4780 C   0  0  0  0  0  0  0  0  0  0  0  0
   37.6770   23.2160   37.5210 C   0  0  0  0  0  0  0  0  0  0  0  0
   37.7050   22.4910   36.3660 N   0  0  0  0  0  0  0  0  0  0  0  0
   37.9620   23.0440   35.1640 C   0  0  0  0  0  0  0  0  0  0  0  0
   38.2070   24.3920   35.0900 N   0  0  0  0  0  0  0  0  0  0  0  0
   37.9160   25.2280   38.3560 H   0  0  0  0  0  0  0  0  0  0  0  0
   37.4690   22.7550   38.4780 H   0  0  0  0  0  0  0  0  0  0  0  0
   38.4790   26.5900   36.1570 C   0  0  0  0  0  0  0  0  0  0  0  0
   39.0220   27.2130   34.9930 C   0  0  0  0  0  0  0  0  0  0  0  0
   37.5200   27.3290   35.1950 C   0  0  0  0  0  0  0  0  0  0  0  0
   38.3940   27.0410   37.1780 H   0  0  0  0  0  0  0  0  0  0  0  0
   39.6170   28.1590   35.1480 H   0  0  0  0  0  0  0  0  0  0  0  0
   39.4400   26.6150   34.1820 H   0  0  0  0  0  0  0  0  0  0  0  0
   37.1300   28.3040   35.4840 H   0  0  0  0  0  0  0  0  0  0  0  0
   36.9280   26.7320   34.4990 H   0  0  0  0  0  0  0  0  0  0  0  0
   38.0000   22.2790   33.9260 C   0  0  0  0  0  0  0  0  0  0  0  0
   37.2120   21.4860   33.8640 H   0  0  0  0  0  0  0  0  0  0  0  0
   38.9510   21.7750   33.7770 H   0  0  0  0  0  0  0  0  0  0  0  0
   36.7000   23.2110   32.0030 C   0  0  0  0  0  0  0  0  0  0  0  0
   35.7150   22.4380   32.1310 O   0  0  0  0  0  0  0  0  0  0  0  0
   37.8430   23.2300   32.8380 N   0  0  0  0  0  0  0  0  0  0  0  0
   38.6200   23.9270   32.7060 H   0  0  0  0  0  0  0  0  0  0  0  0
   36.6940   24.2110   30.8780 C   0  0  0  0  0  3  0  0  0  0  0  0
   35.5110   25.1420   31.1000 C   0  0  0  0  0  2  0  0  0  0  0  0
   36.1420   26.3870   31.7210 C   0  0  0  0  0  2  0  0  0  0  0  0
   37.4070   26.4850   30.8800 C   0  0  0  0  0  2  0  0  0  0  0  0
   37.9180   25.0780   30.9070 C   0  0  0  0  0  2  0  0  0  0  0  0
  1  2  1  0  0  0  0
  2  3  2  0  0  0  0
  2  7  1  0  0  0  0
  3  8  1  0  0  0  0
  4  3  1  0  0  0  0
  5  4  2  0  0  0  0
  6  5  1  0  0  0  0
  6  1  2  0  0  0  0
  9  1  1  0  0  0  0
  9 12  1  0  0  0  0
 10 13  1  0  0  0  0
 10 11  1  0  0  0  0
 10  9  1  0  0  0  0
 11 15  1  0  0  0  0
 11  9  1  0  0  0  0
 14 10  1  0  0  0  0
 16 11  1  0  0  0  0
 17  5  1  0  0  0  0
 18 17  1  0  0  0  0
 19 17  1  0  0  0  0
 20 21  2  0  0  0  0
 20 22  1  0  0  0  0
 22 17  1  0  0  0  0
 23 22  1  0  0  0  0
 24 28  1  0  0  0  0
 24 25  1  0  0  0  0
 24 20  1  0  0  0  0
 25 26  1  0  0  0  0
 27 28  1  0  0  0  0
 27 26  1  0  0  0  0
M  END
>  <minimizedAffinity>
-4.80235577

$$$$

 OpenBabel03272510313D

 28 30  0  0  0  0  0  0  0  0999 V2000
   39.4450   23.0020   36.8200 C   0  0  0  0  0  0  0  0  0  0  0  0
   39.0310   23.0660   38.1380 C   0  0  0  0  0  0  0  0  0  0  0  0
   38.1980   24.1420   38.4610 C   0  0  0  0  0  0  0  0  0  0  0  0
   37.8530   25.0410   37.4940 N   0  0  0  0  0  0  0  0  0  0  0  0
   38.2810   24.9410   36.2200 C   0  0  0  0  0  0  0  0  0  0  0  0
   39.0980   23.8950   35.8720 N   0  0  0  0  0  0  0  0  0  0  0  0
   39.3440   22.3170   38.8550 H   0  0  0  0  0  0  0  0  0  0  0  0
   37.8450   24.2380   39.4790 H   0  0  0  0  0  0  0  0  0  0  0  0
   40.3160   21.8370   36.4400 C   0  0  0  0  0  0  0  0  0  0  0  0
   41.6170   21.9980   35.8740 C   0  0  0  0  0  0  0  0  0  0  0  0
   41.5480   21.7100   37.3660 C   0  0  0  0  0  0  0  0  0  0  0  0
   39.7220   20.8890   36.4900 H   0  0  0  0  0  0  0  0  0  0  0  0
   42.0010   21.1590   35.2260 H   0  0  0  0  0  0  0  0  0  0  0  0
   41.9460   22.9680   35.4990 H   0  0  0  0  0  0  0  0  0  0  0  0
   41.8610   20.7210   37.6970 H   0  0  0  0  0  0  0  0  0  0  0  0
   41.8080   22.5610   37.9980 H   0  0  0  0  0  0  0  0  0  0  0  0
   37.9140   25.8900   35.1780 C   0  0  0  0  0  0  0  0  0  0  0  0
   38.6290   26.7460   35.0790 H   0  0  0  0  0  0  0  0  0  0  0  0
   36.9340   26.3290   35.3410 H   0  0  0  0  0  0  0  0  0  0  0  0
   37.1110   25.6250   32.8240 C   0  0  0  0  0  0  0  0  0  0  0  0
   36.4960   26.7220   32.7770 O   0  0  0  0  0  0  0  0  0  0  0  0
   37.8490   25.1440   33.9320 N   0  0  0  0  0  0  0  0  0  0  0  0
   38.3770   24.2350   33.9010 H   0  0  0  0  0  0  0  0  0  0  0  0
   37.0790   24.7240   31.6180 C   0  0  0  0  0  3  0  0  0  0  0  0
   37.7530   23.4160   32.0060 C   0  0  0  0  0  2  0  0  0  0  0  0
   36.5830   22.4770   32.2900 C   0  0  0  0  0  2  0  0  0  0  0  0
   35.6470   22.8760   31.1570 C   0  0  0  0  0  2  0  0  0  0  0  0
   35.6720   24.3700   31.2340 C   0  0  0  0  0  2  0  0  0  0  0  0
  1  2  1  0  0  0  0
  2  3  2  0  0  0  0
  2  7  1  0  0  0  0
  3  8  1  0  0  0  0
  4  3  1  0  0  0  0
  5  4  2  0  0  0  0
  6  5  1  0  0  0  0
  6  1  2  0  0  0  0
  9 12  1  0  0  0  0
  9  1  1  0  0  0  0
  9 11  1  0  0  0  0
 10  9  1  0  0  0  0
 10 11  1  0  0  0  0
 11 15  1  0  0  0  0
 11 16  1  0  0  0  0
 13 10  1  0  0  0  0
 14 10  1  0  0  0  0
 17 19  1  0  0  0  0
 17  5  1  0  0  0  0
 18 17  1  0  0  0  0
 20 22  1  0  0  0  0
 21 20  2  0  0  0  0
 22 17  1  0  0  0  0
 23 22  1  0  0  0  0
 24 25  1  0  0  0  0
 24 20  1  0  0  0  0
 25 26  1  0  0  0  0
 27 28  1  0  0  0  0
 27 26  1  0  0  0  0
 28 24  1  0  0  0  0
M  END
>  <minimizedAffinity>
-4.64183187

$$$$
