
 OpenBabel03272503503D

 33 35  0  0  1  0  0  0  0  0999 V2000
   33.2220   27.3100   45.8570 C   0  0  1  0  0  0  0  0  0  0  0  0
   33.9180   27.4590   47.2290 C   0  0  2  0  0  0  0  0  0  0  0  0
   33.7480   26.2340   47.7960 O   0  0  0  0  0  0  0  0  0  0  0  0
   34.0750   25.3390   46.7910 C   0  0  0  0  0  0  0  0  0  0  0  0
   33.5950   25.9180   45.4810 C   0  0  2  0  0  0  0  0  0  0  0  0
   33.6770   28.0340   45.1490 H   0  0  0  0  0  0  0  0  0  0  0  0
   34.9630   27.7500   46.9820 H   0  0  0  0  0  0  0  0  0  0  0  0
   35.1480   25.0590   46.7890 H   0  0  0  0  0  0  0  0  0  0  0  0
   33.5040   24.4070   46.9930 H   0  0  0  0  0  0  0  0  0  0  0  0
   32.7780   25.3130   45.0390 H   0  0  0  0  0  0  0  0  0  0  0  0
   31.8630   27.5290   45.9770 O   0  0  0  0  0  0  0  0  0  0  0  0
   31.5540   28.1100   45.2220 H   0  0  0  0  0  0  0  0  0  0  0  0
   33.2870   28.5130   47.8210 O   0  0  0  0  0  0  0  0  0  0  0  0
   35.3410   29.8100   46.7860 O   0  0  0  0  0  0  0  0  0  0  0  0
   34.0800   29.9850   47.6180 P   0  0  1  0  0  0  0  0  0  0  0  0
   33.1070   31.0520   46.7330 O   0  0  0  0  0  0  0  0  0  0  0  0
   32.2710   31.2430   47.2240 H   0  0  0  0  0  0  0  0  0  0  0  0
   34.3880   30.6020   49.1760 O   0  0  0  0  0  0  0  0  0  0  0  0
   35.6170   30.4920   49.7880 C   0  0  0  0  0  0  0  0  0  0  0  0
   35.9540   29.4770   50.7100 C   0  0  0  0  0  0  0  0  0  0  0  0
   37.2370   29.4930   51.2490 C   0  0  0  0  0  0  0  0  0  0  0  0
   38.0950   30.4810   50.8610 N   0  0  0  0  0  0  0  0  0  0  0  0
   37.7380   31.4460   49.9690 C   0  0  0  0  0  0  0  0  0  0  0  0
   36.4870   31.4480   49.4300 N   0  0  0  0  0  0  0  0  0  0  0  0
   35.1940   28.7430   50.9440 H   0  0  0  0  0  0  0  0  0  0  0  0
   37.5060   28.7240   51.9520 H   0  0  0  0  0  0  0  0  0  0  0  0
   38.4560   32.2010   49.6990 H   0  0  0  0  0  0  0  0  0  0  0  0
   34.6450   25.9320   44.5630 O   0  0  0  0  0  0  0  0  0  0  0  0
   34.2440   25.5840   43.2790 C   0  0  0  0  0  3  0  0  0  0  0  0
   35.3950   25.7290   42.3210 C   0  0  0  0  0  2  0  0  0  0  0  0
   35.6660   24.3800   41.7370 C   0  0  0  0  0  2  0  0  0  0  0  0
   34.5210   23.4740   42.0980 C   0  0  0  0  0  2  0  0  0  0  0  0
   33.7600   24.1620   43.1940 C   0  0  0  0  0  2  0  0  0  0  0  0
  1  6  1  6  0  0  0
  1 11  1  0  0  0  0
  1  2  1  0  0  0  0
  2  7  1  6  0  0  0
  2  3  1  0  0  0  0
  2 13  1  0  0  0  0
  4  9  1  0  0  0  0
  4  3  1  0  0  0  0
  5 10  1  6  0  0  0
  5  1  1  0  0  0  0
  5  4  1  0  0  0  0
  8  4  1  0  0  0  0
 12 11  1  0  0  0  0
 15 14  2  6  0  0  0
 15 13  1  0  0  0  0
 15 18  1  0  0  0  0
 16 17  1  0  0  0  0
 16 15  1  0  0  0  0
 18 19  1  0  0  0  0
 19 20  1  0  0  0  0
 20 25  1  0  0  0  0
 20 21  2  0  0  0  0
 21 26  1  0  0  0  0
 22 21  1  0  0  0  0
 23 22  2  0  0  0  0
 24 19  2  0  0  0  0
 24 23  1  0  0  0  0
 27 23  1  0  0  0  0
 28  5  1  0  0  0  0
 29 28  1  0  0  0  0
 30 29  1  0  0  0  0
 31 32  1  0  0  0  0
 31 30  1  0  0  0  0
 32 33  1  0  0  0  0
 33 29  1  0  0  0  0
M  END
>  <minimizedAffinity>
-3.94538951

>  <minimizedRMSD>
0.245761573

$$$$
