
 OpenBabel03262520323D

 19 20  0  0  0  0  0  0  0  0999 V2000
   34.7290   28.3930   49.6840 C   0  0  0  0  0  3  0  0  0  0  0  0
   34.4820   28.0740   48.4580 C   0  0  0  0  0  3  0  0  0  0  0  0
   37.3660   30.2240   51.4560 C   0  0  0  0  0  0  0  0  0  0  0  0
   38.1350   30.7150   50.3640 C   0  0  0  0  0  0  0  0  0  0  0  0
   37.7280   30.4020   49.0420 C   0  0  0  0  0  0  0  0  0  0  0  0
   36.5960   29.6340   48.9330 N   0  0  0  0  0  0  0  0  0  0  0  0
   35.9040   29.1960   49.9860 C   0  0  0  0  0  0  0  0  0  0  0  0
   36.2840   29.4870   51.2390 N   0  0  0  0  0  0  0  0  0  0  0  0
   37.7340   30.5000   52.4350 H   0  0  0  0  0  0  0  0  0  0  0  0
   39.0300   31.3210   50.4460 H   0  0  0  0  0  0  0  0  0  0  0  0
   38.2670   30.7430   48.1890 H   0  0  0  0  0  0  0  0  0  0  0  0
   33.3820   27.2840   47.9480 C   0  0  0  0  0  0  0  0  0  0  0  0
   33.4430   27.1820   46.8440 H   0  0  0  0  0  0  0  0  0  0  0  0
   33.5240   26.2330   48.3390 H   0  0  0  0  0  0  0  0  0  0  0  0
   31.9990   27.6810   48.3590 C   0  0  0  0  0  3  0  0  0  0  0  0
   31.3900   28.3010   47.0850 C   0  0  0  0  0  2  0  0  0  0  0  0
   29.9160   28.0680   47.1680 C   0  0  0  0  0  2  0  0  0  0  0  0
   29.7030   27.1070   48.2990 C   0  0  0  0  0  2  0  0  0  0  0  0
   31.0830   26.4530   48.4560 C   0  0  0  0  0  2  0  0  0  0  0  0
  1  7  1  0  0  0  0
  2  1  2  0  0  0  0
  3  9  1  0  0  0  0
  4 10  1  0  0  0  0
  4  3  2  0  0  0  0
  5  4  1  0  0  0  0
  6  5  2  0  0  0  0
  6  7  1  0  0  0  0
  7  8  2  0  0  0  0
  8  3  1  0  0  0  0
 11  5  1  0  0  0  0
 12 14  1  0  0  0  0
 12 15  1  0  0  0  0
 12  2  1  0  0  0  0
 13 12  1  0  0  0  0
 15 19  1  0  0  0  0
 16 17  1  0  0  0  0
 16 15  1  0  0  0  0
 17 18  1  0  0  0  0
 18 19  1  0  0  0  0
M  END
>  <minimizedAffinity>
-4.69396639

>  <minimizedRMSD>
0.939249039

$$$$
