
 OpenBabel03272500593D

 31 33  0  0  0  0  0  0  0  0999 V2000
   39.7620   25.6410   34.3600 C   0  0  0  0  0  0  0  0  0  0  0  0
   40.6720   26.5850   34.7360 C   0  0  0  0  0  0  0  0  0  0  0  0
   41.3110   27.4100   33.8170 C   0  0  0  0  0  0  0  0  0  0  0  0
   40.9820   27.2420   32.4150 C   0  0  0  0  0  0  0  0  0  0  0  0
   40.0700   26.2850   32.1100 C   0  0  0  0  0  0  0  0  0  0  0  0
   39.4580   25.4910   33.0020 C   0  0  0  0  0  0  0  0  0  0  0  0
   40.9480   26.7430   35.7910 H   0  0  0  0  0  0  0  0  0  0  0  0
   42.0360   28.1510   34.1830 H   0  0  0  0  0  0  0  0  0  0  0  0
   41.5470   27.9400   31.8280 H   0  0  0  0  0  0  0  0  0  0  0  0
   39.9580   26.3520   31.0380 H   0  0  0  0  0  0  0  0  0  0  0  0
   39.8590   23.7220   35.8750 C   0  0  0  0  0  0  0  0  0  0  0  0
   39.1620   24.8790   35.4350 C   0  0  0  0  0  0  0  0  0  0  0  0
   37.9920   25.1330   36.1040 C   0  0  0  0  0  0  0  0  0  0  0  0
   37.5780   24.3220   37.0940 N   0  0  0  0  0  0  0  0  0  0  0  0
   38.2340   23.2550   37.4900 C   0  0  0  0  0  0  0  0  0  0  0  0
   39.3700   22.9640   36.8770 N   0  0  0  0  0  0  0  0  0  0  0  0
   40.7750   23.4660   35.3980 H   0  0  0  0  0  0  0  0  0  0  0  0
   37.4600   26.0170   35.7670 H   0  0  0  0  0  0  0  0  0  0  0  0
   37.8920   22.6100   38.2890 H   0  0  0  0  0  0  0  0  0  0  0  0
   37.2240   25.0400   32.4170 C   0  0  0  0  0  0  0  0  0  0  0  0
   37.0090   26.2920   32.6710 O   0  0  0  0  0  0  0  0  0  0  0  0
   38.5650   24.5260   32.6110 N   0  0  0  0  0  0  0  0  0  0  0  0
   38.8080   23.5420   32.4690 H   0  0  0  0  0  0  0  0  0  0  0  0
   36.1870   24.2570   31.9840 O   0  0  0  0  0  0  0  0  0  0  0  0
   36.2970   22.9130   31.6490 C   0  0  0  0  0  0  0  0  0  0  0  0
   37.0790   22.5010   30.6720 O   0  0  0  0  0  0  0  0  0  0  0  0
   35.5690   21.8350   32.3700 C   0  0  0  0  0  3  0  0  0  0  0  0
   35.3640   20.6190   31.4900 C   0  0  0  0  0  2  0  0  0  0  0  0
   35.3070   19.4430   32.4420 C   0  0  0  0  0  2  0  0  0  0  0  0
   35.5060   20.0400   33.8350 C   0  0  0  0  0  2  0  0  0  0  0  0
   36.3990   21.2340   33.4740 C   0  0  0  0  0  2  0  0  0  0  0  0
  1  2  1  0  0  0  0
  1 12  1  0  0  0  0
  2  7  1  0  0  0  0
  3  8  1  0  0  0  0
  3  2  2  0  0  0  0
  4  3  1  0  0  0  0
  5  4  2  0  0  0  0
  5  6  1  0  0  0  0
  6  1  2  0  0  0  0
  9  4  1  0  0  0  0
 10  5  1  0  0  0  0
 11 16  1  0  0  0  0
 12 11  2  0  0  0  0
 12 13  1  0  0  0  0
 13 14  2  0  0  0  0
 14 15  1  0  0  0  0
 15 19  1  0  0  0  0
 16 15  2  0  0  0  0
 17 11  1  0  0  0  0
 18 13  1  0  0  0  0
 20 22  1  0  0  0  0
 20 21  2  0  0  0  0
 22  6  1  0  0  0  0
 23 22  1  0  0  0  0
 24 20  1  0  0  0  0
 25 24  1  0  0  0  0
 25 27  1  0  0  0  0
 26 25  2  0  0  0  0
 27 31  1  0  0  0  0
 28 27  1  0  0  0  0
 28 29  1  0  0  0  0
 29 30  1  0  0  0  0
 31 30  1  0  0  0  0
M  END
>  <minimizedAffinity>
-5.39969301

$$$$

 OpenBabel03272500593D

 31 33  0  0  0  0  0  0  0  0999 V2000
   39.9000   23.2850   36.4490 C   0  0  0  0  0  0  0  0  0  0  0  0
   40.0140   23.0400   37.7870 C   0  0  0  0  0  0  0  0  0  0  0  0
   38.9810   23.3000   38.6810 C   0  0  0  0  0  0  0  0  0  0  0  0
   37.7500   23.8520   38.1490 C   0  0  0  0  0  0  0  0  0  0  0  0
   37.7040   24.0730   36.8110 C   0  0  0  0  0  0  0  0  0  0  0  0
   38.7050   23.8200   35.9540 C   0  0  0  0  0  0  0  0  0  0  0  0
   40.9320   22.6210   38.2270 H   0  0  0  0  0  0  0  0  0  0  0  0
   39.1350   23.0810   39.7460 H   0  0  0  0  0  0  0  0  0  0  0  0
   37.0500   24.0000   38.9480 H   0  0  0  0  0  0  0  0  0  0  0  0
   36.7080   24.4500   36.6350 H   0  0  0  0  0  0  0  0  0  0  0  0
   42.0440   23.9370   35.4640 C   0  0  0  0  0  0  0  0  0  0  0  0
   41.0510   22.9360   35.6430 C   0  0  0  0  0  0  0  0  0  0  0  0
   41.3220   21.7430   35.0230 C   0  0  0  0  0  0  0  0  0  0  0  0
   42.4520   21.5800   34.3130 N   0  0  0  0  0  0  0  0  0  0  0  0
   43.3610   22.5160   34.1570 C   0  0  0  0  0  0  0  0  0  0  0  0
   43.1490   23.6870   34.7350 N   0  0  0  0  0  0  0  0  0  0  0  0
   41.8960   24.8880   35.9190 H   0  0  0  0  0  0  0  0  0  0  0  0
   40.5630   20.9790   35.1600 H   0  0  0  0  0  0  0  0  0  0  0  0
   44.2680   22.3730   33.5830 H   0  0  0  0  0  0  0  0  0  0  0  0
   37.9870   23.0160   33.8630 C   0  0  0  0  0  0  0  0  0  0  0  0
   37.6770   21.9300   34.4980 O   0  0  0  0  0  0  0  0  0  0  0  0
   38.5910   24.0970   34.6150 N   0  0  0  0  0  0  0  0  0  0  0  0
   38.8980   24.9710   34.1810 H   0  0  0  0  0  0  0  0  0  0  0  0
   37.7370   23.0990   32.5190 O   0  0  0  0  0  0  0  0  0  0  0  0
   36.4700   23.1510   31.9510 C   0  0  0  0  0  0  0  0  0  0  0  0
   35.8270   24.2880   31.7860 O   0  0  0  0  0  0  0  0  0  0  0  0
   35.7490   21.9430   31.4660 C   0  0  0  0  0  3  0  0  0  0  0  0
   36.7150   20.8530   31.0440 C   0  0  0  0  0  2  0  0  0  0  0  0
   35.9710   19.5540   31.2700 C   0  0  0  0  0  2  0  0  0  0  0  0
   34.6110   19.9590   31.8360 C   0  0  0  0  0  2  0  0  0  0  0  0
   35.0150   21.2390   32.5770 C   0  0  0  0  0  2  0  0  0  0  0  0
  1  2  1  0  0  0  0
  2  7  1  0  0  0  0
  2  3  2  0  0  0  0
  3  8  1  0  0  0  0
  4  3  1  0  0  0  0
  4  9  1  0  0  0  0
  5  4  2  0  0  0  0
  6  1  2  0  0  0  0
  6  5  1  0  0  0  0
 10  5  1  0  0  0  0
 11 12  1  0  0  0  0
 11 17  1  0  0  0  0
 12  1  1  0  0  0  0
 13 18  1  0  0  0  0
 13 12  2  0  0  0  0
 14 13  1  0  0  0  0
 15 14  2  0  0  0  0
 15 16  1  0  0  0  0
 16 11  2  0  0  0  0
 19 15  1  0  0  0  0
 20 21  2  0  0  0  0
 20 22  1  0  0  0  0
 22  6  1  0  0  0  0
 23 22  1  0  0  0  0
 24 20  1  0  0  0  0
 25 24  1  0  0  0  0
 26 25  2  0  0  0  0
 27 25  1  0  0  0  0
 27 31  1  0  0  0  0
 28 29  1  0  0  0  0
 28 27  1  0  0  0  0
 29 30  1  0  0  0  0
 30 31  1  0  0  0  0
M  END
>  <minimizedAffinity>
-5.32111979

$$$$

 OpenBabel03272500593D

 31 33  0  0  0  0  0  0  0  0999 V2000
   36.2780   22.2550   32.2000 C   0  0  0  0  0  0  0  0  0  0  0  0
   35.3090   21.6410   31.4610 C   0  0  0  0  0  0  0  0  0  0  0  0
   34.9000   20.3350   31.7080 C   0  0  0  0  0  0  0  0  0  0  0  0
   35.5420   19.6210   32.7940 C   0  0  0  0  0  0  0  0  0  0  0  0
   36.4980   20.2880   33.4880 C   0  0  0  0  0  0  0  0  0  0  0  0
   36.8890   21.5490   33.2430 C   0  0  0  0  0  0  0  0  0  0  0  0
   34.7980   22.1520   30.6300 H   0  0  0  0  0  0  0  0  0  0  0  0
   34.1140   19.8980   31.0770 H   0  0  0  0  0  0  0  0  0  0  0  0
   35.1290   18.6330   32.8660 H   0  0  0  0  0  0  0  0  0  0  0  0
   36.8140   19.5910   34.2490 H   0  0  0  0  0  0  0  0  0  0  0  0
   35.4780   24.4470   31.4650 C   0  0  0  0  0  0  0  0  0  0  0  0
   36.5750   23.6260   31.8400 C   0  0  0  0  0  0  0  0  0  0  0  0
   37.7950   24.2520   31.8200 C   0  0  0  0  0  0  0  0  0  0  0  0
   37.8940   25.5460   31.4670 N   0  0  0  0  0  0  0  0  0  0  0  0
   36.8700   26.2940   31.1220 C   0  0  0  0  0  0  0  0  0  0  0  0
   35.6700   25.7370   31.1250 N   0  0  0  0  0  0  0  0  0  0  0  0
   34.5020   24.0230   31.4580 H   0  0  0  0  0  0  0  0  0  0  0  0
   38.6320   23.6240   32.1060 H   0  0  0  0  0  0  0  0  0  0  0  0
   36.9630   27.3350   30.8400 H   0  0  0  0  0  0  0  0  0  0  0  0
   37.6610   22.0700   35.4040 C   0  0  0  0  0  0  0  0  0  0  0  0
   36.5690   21.5130   35.8210 O   0  0  0  0  0  0  0  0  0  0  0  0
   37.8840   22.1460   33.9730 N   0  0  0  0  0  0  0  0  0  0  0  0
   38.7030   22.6030   33.5630 H   0  0  0  0  0  0  0  0  0  0  0  0
   38.5530   22.5630   36.3180 O   0  0  0  0  0  0  0  0  0  0  0  0
   39.6970   23.2840   35.9980 C   0  0  0  0  0  0  0  0  0  0  0  0
   39.6360   24.4600   35.4090 O   0  0  0  0  0  0  0  0  0  0  0  0
   41.0710   22.8070   36.3120 C   0  0  0  0  0  3  0  0  0  0  0  0
   41.0710   21.8510   37.4880 C   0  0  0  0  0  2  0  0  0  0  0  0
   42.2590   20.9410   37.2600 C   0  0  0  0  0  2  0  0  0  0  0  0
   42.8790   21.4040   35.9420 C   0  0  0  0  0  2  0  0  0  0  0  0
   41.6160   21.9090   35.2320 C   0  0  0  0  0  2  0  0  0  0  0  0
  1  6  1  0  0  0  0
  2  3  1  0  0  0  0
  2  1  2  0  0  0  0
  3  4  2  0  0  0  0
  4  9  1  0  0  0  0
  4  5  1  0  0  0  0
  5 10  1  0  0  0  0
  6  5  2  0  0  0  0
  6 22  1  0  0  0  0
  7  2  1  0  0  0  0
  8  3  1  0  0  0  0
 11 12  1  0  0  0  0
 12  1  1  0  0  0  0
 13 12  2  0  0  0  0
 13 18  1  0  0  0  0
 14 13  1  0  0  0  0
 15 16  1  0  0  0  0
 15 14  2  0  0  0  0
 16 11  2  0  0  0  0
 17 11  1  0  0  0  0
 19 15  1  0  0  0  0
 20 21  2  0  0  0  0
 20 24  1  0  0  0  0
 22 20  1  0  0  0  0
 23 22  1  0  0  0  0
 25 27  1  0  0  0  0
 25 24  1  0  0  0  0
 26 25  2  0  0  0  0
 27 28  1  0  0  0  0
 29 28  1  0  0  0  0
 30 29  1  0  0  0  0
 31 30  1  0  0  0  0
 31 27  1  0  0  0  0
M  END
>  <minimizedAffinity>
-5.26085901

$$$$

 OpenBabel03272500593D

 31 33  0  0  0  0  0  0  0  0999 V2000
   38.5800   25.4580   35.3240 C   0  0  0  0  0  0  0  0  0  0  0  0
   38.7080   26.6860   35.9050 C   0  0  0  0  0  0  0  0  0  0  0  0
   38.0190   27.8020   35.4440 C   0  0  0  0  0  0  0  0  0  0  0  0
   37.1390   27.6300   34.3040 C   0  0  0  0  0  0  0  0  0  0  0  0
   37.0590   26.3840   33.7740 C   0  0  0  0  0  0  0  0  0  0  0  0
   37.7280   25.3110   34.2230 C   0  0  0  0  0  0  0  0  0  0  0  0
   39.3650   26.8550   36.7720 H   0  0  0  0  0  0  0  0  0  0  0  0
   38.1660   28.7640   35.9550 H   0  0  0  0  0  0  0  0  0  0  0  0
   36.6790   28.5690   34.0630 H   0  0  0  0  0  0  0  0  0  0  0  0
   36.3420   26.4790   32.9720 H   0  0  0  0  0  0  0  0  0  0  0  0
   38.7800   23.7700   37.0840 C   0  0  0  0  0  0  0  0  0  0  0  0
   39.3400   24.3870   35.9340 C   0  0  0  0  0  0  0  0  0  0  0  0
   40.5490   23.8730   35.5380 C   0  0  0  0  0  0  0  0  0  0  0  0
   41.1190   22.8630   36.2180 N   0  0  0  0  0  0  0  0  0  0  0  0
   40.5880   22.3010   37.2810 C   0  0  0  0  0  0  0  0  0  0  0  0
   39.4220   22.7610   37.7050 N   0  0  0  0  0  0  0  0  0  0  0  0
   37.8420   24.1220   37.4460 H   0  0  0  0  0  0  0  0  0  0  0  0
   40.9760   24.3450   34.6590 H   0  0  0  0  0  0  0  0  0  0  0  0
   41.0560   21.4880   37.8190 H   0  0  0  0  0  0  0  0  0  0  0  0
   38.3590   23.9990   32.3740 C   0  0  0  0  0  0  0  0  0  0  0  0
   38.9870   25.0550   31.9650 O   0  0  0  0  0  0  0  0  0  0  0  0
   37.6130   24.0870   33.6140 N   0  0  0  0  0  0  0  0  0  0  0  0
   37.0600   23.3110   33.9850 H   0  0  0  0  0  0  0  0  0  0  0  0
   38.4190   22.8530   31.6270 O   0  0  0  0  0  0  0  0  0  0  0  0
   38.0490   21.5920   32.0820 C   0  0  0  0  0  0  0  0  0  0  0  0
   38.7870   20.9180   32.9390 O   0  0  0  0  0  0  0  0  0  0  0  0
   36.7930   20.9150   31.6610 C   0  0  0  0  0  3  0  0  0  0  0  0
   36.8160   19.4400   32.0090 C   0  0  0  0  0  2  0  0  0  0  0  0
   35.3650   19.0570   32.2120 C   0  0  0  0  0  2  0  0  0  0  0  0
   34.5710   20.3450   31.9920 C   0  0  0  0  0  2  0  0  0  0  0  0
   35.6090   21.3670   32.4740 C   0  0  0  0  0  2  0  0  0  0  0  0
  1  2  1  0  0  0  0
  1 12  1  0  0  0  0
  2  7  1  0  0  0  0
  3  2  2  0  0  0  0
  3  8  1  0  0  0  0
  4  3  1  0  0  0  0
  5  6  1  0  0  0  0
  5  4  2  0  0  0  0
  6  1  2  0  0  0  0
  9  4  1  0  0  0  0
 10  5  1  0  0  0  0
 11 17  1  0  0  0  0
 11 16  1  0  0  0  0
 12 11  2  0  0  0  0
 13 12  1  0  0  0  0
 13 14  2  0  0  0  0
 14 15  1  0  0  0  0
 15 16  2  0  0  0  0
 15 19  1  0  0  0  0
 18 13  1  0  0  0  0
 20 22  1  0  0  0  0
 21 20  2  0  0  0  0
 22 23  1  0  0  0  0
 22  6  1  0  0  0  0
 24 25  1  0  0  0  0
 24 20  1  0  0  0  0
 25 26  2  0  0  0  0
 27 28  1  0  0  0  0
 27 25  1  0  0  0  0
 27 31  1  0  0  0  0
 28 29  1  0  0  0  0
 30 29  1  0  0  0  0
 30 31  1  0  0  0  0
M  END
>  <minimizedAffinity>
-5.25399876

$$$$

 OpenBabel03272500593D

 31 33  0  0  0  0  0  0  0  0999 V2000
   37.1910   27.1230   32.6830 C   0  0  0  0  0  0  0  0  0  0  0  0
   36.9040   28.1450   31.8250 C   0  0  0  0  0  0  0  0  0  0  0  0
   36.2730   29.3120   32.2420 C   0  0  0  0  0  0  0  0  0  0  0  0
   35.9180   29.4230   33.6430 C   0  0  0  0  0  0  0  0  0  0  0  0
   36.2300   28.3710   34.4420 C   0  0  0  0  0  0  0  0  0  0  0  0
   36.8380   27.2470   34.0320 C   0  0  0  0  0  0  0  0  0  0  0  0
   37.1600   28.0970   30.7550 H   0  0  0  0  0  0  0  0  0  0  0  0
   36.0690   30.0980   31.5020 H   0  0  0  0  0  0  0  0  0  0  0  0
   35.4420   30.3690   33.8180 H   0  0  0  0  0  0  0  0  0  0  0  0
   35.9070   28.6750   35.4260 H   0  0  0  0  0  0  0  0  0  0  0  0
   37.0920   25.0840   31.3340 C   0  0  0  0  0  0  0  0  0  0  0  0
   37.8740   25.9850   32.1040 C   0  0  0  0  0  0  0  0  0  0  0  0
   39.2040   25.6590   32.1940 C   0  0  0  0  0  0  0  0  0  0  0  0
   39.6820   24.5610   31.5830 N   0  0  0  0  0  0  0  0  0  0  0  0
   38.9460   23.7360   30.8740 C   0  0  0  0  0  0  0  0  0  0  0  0
   37.6560   24.0050   30.7550 N   0  0  0  0  0  0  0  0  0  0  0  0
   36.0510   25.2780   31.2230 H   0  0  0  0  0  0  0  0  0  0  0  0
   39.8000   26.3480   32.7830 H   0  0  0  0  0  0  0  0  0  0  0  0
   39.3430   22.8550   30.3850 H   0  0  0  0  0  0  0  0  0  0  0  0
   38.2610   26.4490   35.7270 C   0  0  0  0  0  0  0  0  0  0  0  0
   38.9340   27.5390   35.5380 O   0  0  0  0  0  0  0  0  0  0  0  0
   37.0960   26.2150   34.8970 N   0  0  0  0  0  0  0  0  0  0  0  0
   36.5340   25.3620   34.9580 H   0  0  0  0  0  0  0  0  0  0  0  0
   38.6710   25.5670   36.6910 O   0  0  0  0  0  0  0  0  0  0  0  0
   38.3540   24.2140   36.7120 C   0  0  0  0  0  0  0  0  0  0  0  0
   37.1160   23.7920   36.8670 O   0  0  0  0  0  0  0  0  0  0  0  0
   39.3690   23.1400   36.5410 C   0  0  0  0  0  3  0  0  0  0  0  0
   40.5810   23.6400   35.7810 C   0  0  0  0  0  2  0  0  0  0  0  0
   41.7360   22.7940   36.2740 C   0  0  0  0  0  2  0  0  0  0  0  0
   41.1340   21.8560   37.3200 C   0  0  0  0  0  2  0  0  0  0  0  0
   40.0080   22.7550   37.8490 C   0  0  0  0  0  2  0  0  0  0  0  0
  1  6  1  0  0  0  0
  2  3  1  0  0  0  0
  2  1  2  0  0  0  0
  3  4  2  0  0  0  0
  4  9  1  0  0  0  0
  4  5  1  0  0  0  0
  5 10  1  0  0  0  0
  6  5  2  0  0  0  0
  6 22  1  0  0  0  0
  7  2  1  0  0  0  0
  8  3  1  0  0  0  0
 11 12  1  0  0  0  0
 12 13  2  0  0  0  0
 12  1  1  0  0  0  0
 13 18  1  0  0  0  0
 14 13  1  0  0  0  0
 15 14  2  0  0  0  0
 16 15  1  0  0  0  0
 16 11  2  0  0  0  0
 17 11  1  0  0  0  0
 19 15  1  0  0  0  0
 20 24  1  0  0  0  0
 21 20  2  0  0  0  0
 22 23  1  0  0  0  0
 22 20  1  0  0  0  0
 24 25  1  0  0  0  0
 25 26  2  0  0  0  0
 27 25  1  0  0  0  0
 27 31  1  0  0  0  0
 28 29  1  0  0  0  0
 28 27  1  0  0  0  0
 29 30  1  0  0  0  0
 30 31  1  0  0  0  0
M  END
>  <minimizedAffinity>
-5.1787529

$$$$

 OpenBabel03272500593D

 31 33  0  0  0  0  0  0  0  0999 V2000
   37.0470   21.8720   33.2420 C   0  0  0  0  0  0  0  0  0  0  0  0
   36.3050   20.8280   33.7130 C   0  0  0  0  0  0  0  0  0  0  0  0
   35.3180   20.2140   32.9510 C   0  0  0  0  0  0  0  0  0  0  0  0
   35.0870   20.7180   31.6110 C   0  0  0  0  0  0  0  0  0  0  0  0
   35.8580   21.7580   31.2050 C   0  0  0  0  0  0  0  0  0  0  0  0
   36.8090   22.3470   31.9470 C   0  0  0  0  0  0  0  0  0  0  0  0
   36.4530   20.4180   34.7240 H   0  0  0  0  0  0  0  0  0  0  0  0
   34.7540   19.3780   33.3890 H   0  0  0  0  0  0  0  0  0  0  0  0
   34.3030   20.1530   31.1470 H   0  0  0  0  0  0  0  0  0  0  0  0
   35.5420   21.9470   30.1910 H   0  0  0  0  0  0  0  0  0  0  0  0
   39.3800   21.8970   33.9810 C   0  0  0  0  0  0  0  0  0  0  0  0
   38.0560   22.3880   34.1430 C   0  0  0  0  0  0  0  0  0  0  0  0
   37.9060   23.3110   35.1460 C   0  0  0  0  0  0  0  0  0  0  0  0
   38.9580   23.6910   35.8910 N   0  0  0  0  0  0  0  0  0  0  0  0
   40.1770   23.2280   35.7290 C   0  0  0  0  0  0  0  0  0  0  0  0
   40.3770   22.3350   34.7740 N   0  0  0  0  0  0  0  0  0  0  0  0
   39.5670   21.1770   33.2190 H   0  0  0  0  0  0  0  0  0  0  0  0
   36.8940   23.6850   35.2690 H   0  0  0  0  0  0  0  0  0  0  0  0
   41.0180   23.5430   36.3350 H   0  0  0  0  0  0  0  0  0  0  0  0
   36.7660   24.6460   31.4450 C   0  0  0  0  0  0  0  0  0  0  0  0
   35.5240   24.6010   31.8070 O   0  0  0  0  0  0  0  0  0  0  0  0
   37.5300   23.4140   31.4730 N   0  0  0  0  0  0  0  0  0  0  0  0
   38.5040   23.3580   31.1680 H   0  0  0  0  0  0  0  0  0  0  0  0
   37.3060   25.8410   31.0490 O   0  0  0  0  0  0  0  0  0  0  0  0
   37.8490   26.7870   31.9100 C   0  0  0  0  0  0  0  0  0  0  0  0
   38.2040   27.9840   31.4940 O   0  0  0  0  0  0  0  0  0  0  0  0
   38.0520   26.5390   33.3630 C   0  0  0  0  0  3  0  0  0  0  0  0
   39.5050   26.7150   33.7580 C   0  0  0  0  0  2  0  0  0  0  0  0
   39.4730   27.1440   35.2100 C   0  0  0  0  0  2  0  0  0  0  0  0
   37.9910   27.2170   35.5790 C   0  0  0  0  0  2  0  0  0  0  0  0
   37.4090   27.6030   34.2130 C   0  0  0  0  0  2  0  0  0  0  0  0
  1  2  1  0  0  0  0
  1 12  1  0  0  0  0
  2  7  1  0  0  0  0
  3  8  1  0  0  0  0
  3  2  2  0  0  0  0
  4  3  1  0  0  0  0
  5  4  2  0  0  0  0
  5  6  1  0  0  0  0
  6  1  2  0  0  0  0
  9  4  1  0  0  0  0
 10  5  1  0  0  0  0
 11 12  2  0  0  0  0
 11 16  1  0  0  0  0
 12 13  1  0  0  0  0
 13 18  1  0  0  0  0
 13 14  2  0  0  0  0
 15 14  1  0  0  0  0
 15 19  1  0  0  0  0
 16 15  2  0  0  0  0
 17 11  1  0  0  0  0
 20 22  1  0  0  0  0
 20 21  2  0  0  0  0
 22  6  1  0  0  0  0
 23 22  1  0  0  0  0
 24 20  1  0  0  0  0
 24 25  1  0  0  0  0
 25 27  1  0  0  0  0
 26 25  2  0  0  0  0
 27 28  1  0  0  0  0
 27 31  1  0  0  0  0
 28 29  1  0  0  0  0
 29 30  1  0  0  0  0
 31 30  1  0  0  0  0
M  END
>  <minimizedAffinity>
-5.17242718

$$$$

 OpenBabel03272500593D

 31 33  0  0  0  0  0  0  0  0999 V2000
   37.9620   25.7310   34.4220 C   0  0  0  0  0  0  0  0  0  0  0  0
   37.5570   26.7160   35.2750 C   0  0  0  0  0  0  0  0  0  0  0  0
   36.9250   27.8720   34.8310 C   0  0  0  0  0  0  0  0  0  0  0  0
   36.6990   28.0130   33.4060 C   0  0  0  0  0  0  0  0  0  0  0  0
   37.1270   26.9990   32.6130 C   0  0  0  0  0  0  0  0  0  0  0  0
   37.7380   25.8860   33.0480 C   0  0  0  0  0  0  0  0  0  0  0  0
   37.7100   26.6430   36.3640 H   0  0  0  0  0  0  0  0  0  0  0  0
   36.6240   28.6280   35.5690 H   0  0  0  0  0  0  0  0  0  0  0  0
   36.2070   28.9460   33.2130 H   0  0  0  0  0  0  0  0  0  0  0  0
   36.8380   27.2960   31.6160 H   0  0  0  0  0  0  0  0  0  0  0  0
   39.9920   24.6050   35.1950 C   0  0  0  0  0  0  0  0  0  0  0  0
   38.5810   24.5760   35.0370 C   0  0  0  0  0  0  0  0  0  0  0  0
   37.9740   23.4380   35.5060 C   0  0  0  0  0  0  0  0  0  0  0  0
   38.7020   22.4550   36.0640 N   0  0  0  0  0  0  0  0  0  0  0  0
   40.0080   22.4960   36.2030 C   0  0  0  0  0  0  0  0  0  0  0  0
   40.6420   23.5720   35.7680 N   0  0  0  0  0  0  0  0  0  0  0  0
   40.5260   25.4600   34.8530 H   0  0  0  0  0  0  0  0  0  0  0  0
   36.8960   23.4170   35.3850 H   0  0  0  0  0  0  0  0  0  0  0  0
   40.5830   21.6980   36.6550 H   0  0  0  0  0  0  0  0  0  0  0  0
   37.0780   24.1550   31.5970 C   0  0  0  0  0  0  0  0  0  0  0  0
   35.8720   24.4290   31.9810 O   0  0  0  0  0  0  0  0  0  0  0  0
   38.1660   24.9150   32.1790 N   0  0  0  0  0  0  0  0  0  0  0  0
   39.1490   24.7360   31.9580 H   0  0  0  0  0  0  0  0  0  0  0  0
   37.2790   23.1680   30.6700 O   0  0  0  0  0  0  0  0  0  0  0  0
   37.7740   21.9020   30.9570 C   0  0  0  0  0  0  0  0  0  0  0  0
   39.0370   21.5880   30.7600 O   0  0  0  0  0  0  0  0  0  0  0  0
   36.9340   20.8130   31.5250 C   0  0  0  0  0  3  0  0  0  0  0  0
   36.8540   20.9060   33.0360 C   0  0  0  0  0  2  0  0  0  0  0  0
   35.5180   20.2930   33.4010 C   0  0  0  0  0  2  0  0  0  0  0  0
   34.8780   19.8930   32.0720 C   0  0  0  0  0  2  0  0  0  0  0  0
   35.4810   20.9740   31.1650 C   0  0  0  0  0  2  0  0  0  0  0  0
  1 12  1  0  0  0  0
  1  2  1  0  0  0  0
  2  7  1  0  0  0  0
  3  2  2  0  0  0  0
  3  8  1  0  0  0  0
  4  3  1  0  0  0  0
  5  6  1  0  0  0  0
  5  4  2  0  0  0  0
  6  1  2  0  0  0  0
  9  4  1  0  0  0  0
 10  5  1  0  0  0  0
 11 16  1  0  0  0  0
 12 11  2  0  0  0  0
 12 13  1  0  0  0  0
 13 14  2  0  0  0  0
 14 15  1  0  0  0  0
 15 19  1  0  0  0  0
 16 15  2  0  0  0  0
 17 11  1  0  0  0  0
 18 13  1  0  0  0  0
 20 21  2  0  0  0  0
 20 22  1  0  0  0  0
 22  6  1  0  0  0  0
 23 22  1  0  0  0  0
 24 25  1  0  0  0  0
 24 20  1  0  0  0  0
 25 27  1  0  0  0  0
 26 25  2  0  0  0  0
 27 28  1  0  0  0  0
 28 29  1  0  0  0  0
 30 29  1  0  0  0  0
 31 27  1  0  0  0  0
 31 30  1  0  0  0  0
M  END
>  <minimizedAffinity>
-5.14367247

$$$$

 OpenBabel03272500593D

 31 33  0  0  0  0  0  0  0  0999 V2000
   37.9290   26.8810   33.8030 C   0  0  0  0  0  0  0  0  0  0  0  0
   38.5000   27.6520   34.7730 C   0  0  0  0  0  0  0  0  0  0  0  0
   38.7550   27.1700   36.0520 C   0  0  0  0  0  0  0  0  0  0  0  0
   38.3930   25.7960   36.3420 C   0  0  0  0  0  0  0  0  0  0  0  0
   37.8290   25.0850   35.3340 C   0  0  0  0  0  0  0  0  0  0  0  0
   37.5830   25.5570   34.1010 C   0  0  0  0  0  0  0  0  0  0  0  0
   38.7890   28.6990   34.5910 H   0  0  0  0  0  0  0  0  0  0  0  0
   39.2170   27.8420   36.7890 H   0  0  0  0  0  0  0  0  0  0  0  0
   38.6470   25.5660   37.3580 H   0  0  0  0  0  0  0  0  0  0  0  0
   37.6700   24.1030   35.7530 H   0  0  0  0  0  0  0  0  0  0  0  0
   36.5490   28.2430   32.3120 C   0  0  0  0  0  0  0  0  0  0  0  0
   37.7510   27.5150   32.5140 C   0  0  0  0  0  0  0  0  0  0  0  0
   38.6090   27.5150   31.4440 C   0  0  0  0  0  0  0  0  0  0  0  0
   38.2930   28.1680   30.3120 N   0  0  0  0  0  0  0  0  0  0  0  0
   37.1760   28.8380   30.1390 C   0  0  0  0  0  0  0  0  0  0  0  0
   36.3130   28.8700   31.1420 N   0  0  0  0  0  0  0  0  0  0  0  0
   35.8370   28.2840   33.1030 H   0  0  0  0  0  0  0  0  0  0  0  0
   39.5280   26.9580   31.5990 H   0  0  0  0  0  0  0  0  0  0  0  0
   36.9320   29.3610   29.2230 H   0  0  0  0  0  0  0  0  0  0  0  0
   37.8950   23.8430   32.5200 C   0  0  0  0  0  0  0  0  0  0  0  0
   39.1380   23.8680   32.8850 O   0  0  0  0  0  0  0  0  0  0  0  0
   36.9830   24.7820   33.1420 N   0  0  0  0  0  0  0  0  0  0  0  0
   35.9960   24.8510   32.8830 H   0  0  0  0  0  0  0  0  0  0  0  0
   37.4950   22.9420   31.5690 O   0  0  0  0  0  0  0  0  0  0  0  0
   36.1780   22.7440   31.1730 C   0  0  0  0  0  0  0  0  0  0  0  0
   35.3970   23.7450   30.8250 O   0  0  0  0  0  0  0  0  0  0  0  0
   35.5520   21.3970   31.0860 C   0  0  0  0  0  3  0  0  0  0  0  0
   36.5660   20.3380   30.7020 C   0  0  0  0  0  2  0  0  0  0  0  0
   36.0540   19.0540   31.3210 C   0  0  0  0  0  2  0  0  0  0  0  0
   34.7710   19.4420   32.0560 C   0  0  0  0  0  2  0  0  0  0  0  0
   35.1240   20.8860   32.4370 C   0  0  0  0  0  2  0  0  0  0  0  0
  1  6  2  0  0  0  0
  1  2  1  0  0  0  0
  2  3  2  0  0  0  0
  3  4  1  0  0  0  0
  3  8  1  0  0  0  0
  4  9  1  0  0  0  0
  5 10  1  0  0  0  0
  5  4  2  0  0  0  0
  6  5  1  0  0  0  0
  7  2  1  0  0  0  0
 11 12  1  0  0  0  0
 11 17  1  0  0  0  0
 12  1  1  0  0  0  0
 13 18  1  0  0  0  0
 13 12  2  0  0  0  0
 14 13  1  0  0  0  0
 15 14  2  0  0  0  0
 15 16  1  0  0  0  0
 16 11  2  0  0  0  0
 19 15  1  0  0  0  0
 20 21  2  0  0  0  0
 20 22  1  0  0  0  0
 22  6  1  0  0  0  0
 23 22  1  0  0  0  0
 24 20  1  0  0  0  0
 25 24  1  0  0  0  0
 26 25  2  0  0  0  0
 27 25  1  0  0  0  0
 27 31  1  0  0  0  0
 28 27  1  0  0  0  0
 28 29  1  0  0  0  0
 29 30  1  0  0  0  0
 30 31  1  0  0  0  0
M  END
>  <minimizedAffinity>
-5.13923883

$$$$

 OpenBabel03272500593D

 31 33  0  0  0  0  0  0  0  0999 V2000
   41.3980   22.3430   36.5110 C   0  0  0  0  0  0  0  0  0  0  0  0
   41.7400   21.1240   37.0190 C   0  0  0  0  0  0  0  0  0  0  0  0
   43.0100   20.5810   36.8590 C   0  0  0  0  0  0  0  0  0  0  0  0
   43.9890   21.3560   36.1220 C   0  0  0  0  0  0  0  0  0  0  0  0
   43.5840   22.5590   35.6430 C   0  0  0  0  0  0  0  0  0  0  0  0
   42.3550   23.0770   35.8000 C   0  0  0  0  0  0  0  0  0  0  0  0
   41.0250   20.5060   37.5850 H   0  0  0  0  0  0  0  0  0  0  0  0
   43.2220   19.5930   37.2920 H   0  0  0  0  0  0  0  0  0  0  0  0
   44.9140   20.8160   36.0800 H   0  0  0  0  0  0  0  0  0  0  0  0
   44.4600   22.9670   35.1630 H   0  0  0  0  0  0  0  0  0  0  0  0
   39.7320   23.1080   38.1310 C   0  0  0  0  0  0  0  0  0  0  0  0
   40.0470   22.7850   36.7840 C   0  0  0  0  0  0  0  0  0  0  0  0
   39.0120   22.9470   35.8980 C   0  0  0  0  0  0  0  0  0  0  0  0
   37.8110   23.3790   36.3190 N   0  0  0  0  0  0  0  0  0  0  0  0
   37.5340   23.6740   37.5700 C   0  0  0  0  0  0  0  0  0  0  0  0
   38.4980   23.5360   38.4650 N   0  0  0  0  0  0  0  0  0  0  0  0
   40.4900   23.0050   38.8710 H   0  0  0  0  0  0  0  0  0  0  0  0
   39.2540   22.6990   34.8690 H   0  0  0  0  0  0  0  0  0  0  0  0
   36.5630   24.0220   37.8970 H   0  0  0  0  0  0  0  0  0  0  0  0
   41.6040   24.2000   33.8730 C   0  0  0  0  0  0  0  0  0  0  0  0
   41.6490   23.0390   33.3000 O   0  0  0  0  0  0  0  0  0  0  0  0
   42.0140   24.2910   35.2600 N   0  0  0  0  0  0  0  0  0  0  0  0
   42.0440   25.1760   35.7730 H   0  0  0  0  0  0  0  0  0  0  0  0
   41.1800   25.2860   33.1550 O   0  0  0  0  0  0  0  0  0  0  0  0
   40.9980   26.5590   33.6790 C   0  0  0  0  0  0  0  0  0  0  0  0
   42.0060   27.3880   33.8600 O   0  0  0  0  0  0  0  0  0  0  0  0
   39.6640   27.0980   34.0550 C   0  0  0  0  0  3  0  0  0  0  0  0
   38.5430   26.2890   33.4330 C   0  0  0  0  0  2  0  0  0  0  0  0
   37.3740   26.4320   34.3840 C   0  0  0  0  0  2  0  0  0  0  0  0
   37.8870   27.3060   35.5290 C   0  0  0  0  0  2  0  0  0  0  0  0
   39.3650   26.8960   35.5180 C   0  0  0  0  0  2  0  0  0  0  0  0
  1 12  1  0  0  0  0
  1  2  1  0  0  0  0
  2  7  1  0  0  0  0
  3  2  2  0  0  0  0
  3  8  1  0  0  0  0
  4  3  1  0  0  0  0
  5  6  1  0  0  0  0
  5  4  2  0  0  0  0
  6  1  2  0  0  0  0
  9  4  1  0  0  0  0
 10  5  1  0  0  0  0
 11 16  1  0  0  0  0
 11 17  1  0  0  0  0
 12 11  2  0  0  0  0
 13 14  2  0  0  0  0
 13 12  1  0  0  0  0
 14 15  1  0  0  0  0
 15 19  1  0  0  0  0
 15 16  2  0  0  0  0
 18 13  1  0  0  0  0
 20 22  1  0  0  0  0
 21 20  2  0  0  0  0
 22 23  1  0  0  0  0
 22  6  1  0  0  0  0
 24 25  1  0  0  0  0
 24 20  1  0  0  0  0
 25 26  2  0  0  0  0
 25 27  1  0  0  0  0
 27 31  1  0  0  0  0
 28 27  1  0  0  0  0
 28 29  1  0  0  0  0
 29 30  1  0  0  0  0
 31 30  1  0  0  0  0
M  END
>  <minimizedAffinity>
-5.11958075

$$$$
