
 OpenBabel03262523563D

 34 36  0  0  1  0  0  0  0  0999 V2000
   33.8470   29.6490   45.2250 C   0  0  1  0  0  0  0  0  0  0  0  0
   33.0920   30.8910   45.3150 C   0  0  0  0  0  0  0  0  0  0  0  0
   32.9080   31.4480   43.9360 C   0  0  0  0  0  0  0  0  0  0  0  0
   34.1450   31.3060   43.1300 C   0  0  0  0  0  0  0  0  0  0  0  0
   35.3910   31.1130   43.9040 C   0  0  0  0  0  0  0  0  0  0  0  0
   35.3120   30.0020   44.9520 C   0  0  1  0  0  0  0  0  0  0  0  0
   33.5210   29.0280   44.3550 H   0  0  0  0  0  0  0  0  0  0  0  0
   32.1290   30.7470   45.8510 H   0  0  0  0  0  0  0  0  0  0  0  0
   33.6280   31.6680   45.9020 H   0  0  0  0  0  0  0  0  0  0  0  0
   32.6600   32.5240   44.0330 H   0  0  0  0  0  0  0  0  0  0  0  0
   32.0170   30.9650   43.4690 H   0  0  0  0  0  0  0  0  0  0  0  0
   34.0160   30.4230   42.4680 H   0  0  0  0  0  0  0  0  0  0  0  0
   34.2810   32.1890   42.4900 H   0  0  0  0  0  0  0  0  0  0  0  0
   35.6410   32.0500   44.4510 H   0  0  0  0  0  0  0  0  0  0  0  0
   36.2300   30.8910   43.2190 H   0  0  0  0  0  0  0  0  0  0  0  0
   35.7960   29.1040   44.5070 H   0  0  0  0  0  0  0  0  0  0  0  0
   33.8690   26.5970   47.3410 C   0  0  0  0  0  0  0  0  0  0  0  0
   33.8840   27.4210   46.1820 C   0  0  0  0  0  0  0  0  0  0  0  0
   33.8510   28.7900   46.4160 C   0  0  0  0  0  0  0  0  0  0  0  0
   33.8070   29.2850   47.7110 N   0  0  0  0  0  0  0  0  0  0  0  0
   33.7950   28.4680   48.7740 C   0  0  0  0  0  0  0  0  0  0  0  0
   33.8250   27.1100   48.5950 N   0  0  0  0  0  0  0  0  0  0  0  0
   33.8930   25.5290   47.1860 H   0  0  0  0  0  0  0  0  0  0  0  0
   33.9180   26.9950   45.1940 H   0  0  0  0  0  0  0  0  0  0  0  0
   33.7610   28.8540   49.7740 H   0  0  0  0  0  0  0  0  0  0  0  0
   37.4190   30.5530   46.4390 C   0  0  0  0  0  0  0  0  0  0  0  0
   38.1310   30.3710   45.4250 O   0  0  0  0  0  0  0  0  0  0  0  0
   36.0380   30.3800   46.1300 N   0  0  0  0  0  0  0  0  0  0  0  0
   35.3080   30.5520   46.8930 H   0  0  0  0  0  0  0  0  0  0  0  0
   37.7470   30.9050   47.8680 C   0  0  0  0  0  0  0  0  0  0  0  0
   38.2820   32.3270   47.8090 C   0  0  0  0  0  0  0  0  0  0  0  0
   38.1820   32.7220   49.2650 C   0  0  0  0  0  0  0  0  0  0  0  0
   36.9880   31.9300   49.8120 C   0  0  0  0  0  0  0  0  0  0  0  0
   36.4800   31.1050   48.6220 C   0  0  0  0  0  0  0  0  0  0  0  0
  1  7  1  6  0  0  0
  1  2  1  0  0  0  0
  1 19  1  0  0  0  0
  2  8  1  0  0  0  0
  2  9  1  0  0  0  0
  3 10  1  0  0  0  0
  3  2  1  0  0  0  0
  4  5  1  0  0  0  0
  4  3  1  0  0  0  0
  5 14  1  0  0  0  0
  5  6  1  0  0  0  0
  6 16  1  6  0  0  0
  6  1  1  0  0  0  0
  6 28  1  0  0  0  0
 11  3  1  0  0  0  0
 12  4  1  0  0  0  0
 13  4  1  0  0  0  0
 15  5  1  0  0  0  0
 17 22  1  0  0  0  0
 18 19  1  0  0  0  0
 18 17  2  0  0  0  0
 19 20  2  0  0  0  0
 20 21  1  0  0  0  0
 21 25  1  0  0  0  0
 22 21  2  0  0  0  0
 23 17  1  0  0  0  0
 24 18  1  0  0  0  0
 26 30  1  0  0  0  0
 27 26  2  0  0  0  0
 28 26  1  0  0  0  0
 28 29  1  0  0  0  0
 30 34  1  0  0  0  0
 31 30  1  0  0  0  0
 31 32  1  0  0  0  0
 32 33  1  0  0  0  0
 34 33  1  0  0  0  0
M  END
>  <minimizedAffinity>
-4.61144161

>  <minimizedRMSD>
4.58769608

$$$$
