
 OpenBabel03262522123D

 26 28  0  0  0  0  0  0  0  0999 V2000
   37.7410   27.3070   34.0380 C   0  0  0  0  0  0  0  0  0  0  0  0
   38.1520   27.4180   32.7240 C   0  0  0  0  0  0  0  0  0  0  0  0
   37.3880   28.1460   31.8340 C   0  0  0  0  0  0  0  0  0  0  0  0
   36.2430   28.7270   32.3290 C   0  0  0  0  0  0  0  0  0  0  0  0
   35.8550   28.6050   33.6370 C   0  0  0  0  0  0  0  0  0  0  0  0
   36.6130   27.8870   34.4960 N   0  0  0  0  0  0  0  0  0  0  0  0
   39.0480   26.9680   32.3160 H   0  0  0  0  0  0  0  0  0  0  0  0
   37.6600   28.2720   30.7740 H   0  0  0  0  0  0  0  0  0  0  0  0
   35.6420   29.3000   31.6330 H   0  0  0  0  0  0  0  0  0  0  0  0
   38.5920   26.5250   34.9190 C   0  0  0  0  0  0  0  0  0  0  0  0
   39.6350   27.0120   35.3960 O   0  0  0  0  0  0  0  0  0  0  0  0
   37.9700   24.8710   36.6180 C   0  0  0  0  0  0  0  0  0  0  0  0
   38.2940   25.1590   35.2940 C   0  0  0  0  0  0  0  0  0  0  0  0
   38.3040   24.0870   34.4220 C   0  0  0  0  0  0  0  0  0  0  0  0
   38.0140   22.8290   34.8420 N   0  0  0  0  0  0  0  0  0  0  0  0
   37.7030   22.6060   36.1590 C   0  0  0  0  0  0  0  0  0  0  0  0
   37.6810   23.6080   37.0330 N   0  0  0  0  0  0  0  0  0  0  0  0
   37.9260   25.6130   37.4010 H   0  0  0  0  0  0  0  0  0  0  0  0
   38.5550   24.2820   33.3750 H   0  0  0  0  0  0  0  0  0  0  0  0
   37.5050   21.5500   36.2920 H   0  0  0  0  0  0  0  0  0  0  0  0
   34.3550   29.3700   34.2680 S   0  0  0  0  0  0  0  0  0  0  0  0
   34.6120   31.0340   34.8730 C   0  0  0  0  0  3  0  0  0  0  0  0
   33.6140   31.2650   36.0100 C   0  0  0  0  0  2  0  0  0  0  0  0
   34.2820   32.1870   36.9940 C   0  0  0  0  0  2  0  0  0  0  0  0
   35.6120   32.5500   36.3440 C   0  0  0  0  0  2  0  0  0  0  0  0
   35.9140   31.2390   35.6030 C   0  0  0  0  0  2  0  0  0  0  0  0
  1  6  1  0  0  0  0
  1 10  1  0  0  0  0
  2  1  2  0  0  0  0
  3  4  2  0  0  0  0
  3  2  1  0  0  0  0
  4  5  1  0  0  0  0
  5 21  1  0  0  0  0
  5  6  2  0  0  0  0
  7  2  1  0  0  0  0
  8  3  1  0  0  0  0
  9  4  1  0  0  0  0
 10 13  1  0  0  0  0
 10 11  2  0  0  0  0
 12 17  1  0  0  0  0
 12 18  1  0  0  0  0
 13 12  2  0  0  0  0
 14 15  2  0  0  0  0
 14 13  1  0  0  0  0
 15 16  1  0  0  0  0
 16 20  1  0  0  0  0
 16 17  2  0  0  0  0
 19 14  1  0  0  0  0
 21 22  1  0  0  0  0
 22 26  1  0  0  0  0
 22 23  1  0  0  0  0
 23 24  1  0  0  0  0
 25 24  1  0  0  0  0
 26 25  1  0  0  0  0
M  END
>  <minimizedAffinity>
-5.21993017

$$$$

 OpenBabel03262522123D

 26 28  0  0  0  0  0  0  0  0999 V2000
   37.7930   25.9880   33.6250 C   0  0  0  0  0  0  0  0  0  0  0  0
   37.1960   27.1600   33.2010 C   0  0  0  0  0  0  0  0  0  0  0  0
   36.3060   27.1240   32.1450 C   0  0  0  0  0  0  0  0  0  0  0  0
   36.0690   25.8940   31.5750 C   0  0  0  0  0  0  0  0  0  0  0  0
   36.6710   24.7450   32.0120 C   0  0  0  0  0  0  0  0  0  0  0  0
   37.5410   24.7960   33.0460 N   0  0  0  0  0  0  0  0  0  0  0  0
   37.3710   28.1350   33.6360 H   0  0  0  0  0  0  0  0  0  0  0  0
   35.7990   28.0220   31.7600 H   0  0  0  0  0  0  0  0  0  0  0  0
   35.3700   25.8640   30.7470 H   0  0  0  0  0  0  0  0  0  0  0  0
   38.7170   26.0980   34.7390 C   0  0  0  0  0  0  0  0  0  0  0  0
   39.3500   27.1530   34.9420 O   0  0  0  0  0  0  0  0  0  0  0  0
   38.1030   24.8350   36.7480 C   0  0  0  0  0  0  0  0  0  0  0  0
   38.9650   25.0160   35.6680 C   0  0  0  0  0  0  0  0  0  0  0  0
   40.0130   24.1220   35.5700 C   0  0  0  0  0  0  0  0  0  0  0  0
   40.1860   23.1280   36.4780 N   0  0  0  0  0  0  0  0  0  0  0  0
   39.3050   23.0000   37.5220 C   0  0  0  0  0  0  0  0  0  0  0  0
   38.2820   23.8370   37.6560 N   0  0  0  0  0  0  0  0  0  0  0  0
   37.2460   25.4610   36.9440 H   0  0  0  0  0  0  0  0  0  0  0  0
   40.7070   24.2390   34.7310 H   0  0  0  0  0  0  0  0  0  0  0  0
   39.6110   22.1580   38.1280 H   0  0  0  0  0  0  0  0  0  0  0  0
   36.3490   23.1450   31.2550 S   0  0  0  0  0  0  0  0  0  0  0  0
   35.5370   21.9940   32.3570 C   0  0  0  0  0  3  0  0  0  0  0  0
   35.1280   20.7770   31.5230 C   0  0  0  0  0  2  0  0  0  0  0  0
   35.2220   19.5780   32.4280 C   0  0  0  0  0  2  0  0  0  0  0  0
   35.5810   20.1510   33.7930 C   0  0  0  0  0  2  0  0  0  0  0  0
   36.4490   21.3430   33.3630 C   0  0  0  0  0  2  0  0  0  0  0  0
  1 10  1  0  0  0  0
  2  1  1  0  0  0  0
  2  7  1  0  0  0  0
  3  2  2  0  0  0  0
  4  5  2  0  0  0  0
  4  3  1  0  0  0  0
  5  6  1  0  0  0  0
  6  1  2  0  0  0  0
  8  3  1  0  0  0  0
  9  4  1  0  0  0  0
 10 11  2  0  0  0  0
 10 13  1  0  0  0  0
 12 18  1  0  0  0  0
 12 17  1  0  0  0  0
 13 12  2  0  0  0  0
 14 13  1  0  0  0  0
 14 15  2  0  0  0  0
 15 16  1  0  0  0  0
 16 17  2  0  0  0  0
 16 20  1  0  0  0  0
 19 14  1  0  0  0  0
 21  5  1  0  0  0  0
 21 22  1  0  0  0  0
 22 26  1  0  0  0  0
 23 22  1  0  0  0  0
 23 24  1  0  0  0  0
 24 25  1  0  0  0  0
 26 25  1  0  0  0  0
M  END
>  <minimizedAffinity>
-5.10196972

$$$$

 OpenBabel03262522123D

 26 28  0  0  0  0  0  0  0  0999 V2000
   38.2310   25.2100   35.5050 C   0  0  0  0  0  0  0  0  0  0  0  0
   38.0280   24.9300   36.8430 C   0  0  0  0  0  0  0  0  0  0  0  0
   37.8530   23.6190   37.2420 C   0  0  0  0  0  0  0  0  0  0  0  0
   37.8940   22.6600   36.2560 C   0  0  0  0  0  0  0  0  0  0  0  0
   38.0970   22.9600   34.9360 C   0  0  0  0  0  0  0  0  0  0  0  0
   38.2650   24.2480   34.5610 N   0  0  0  0  0  0  0  0  0  0  0  0
   37.9920   25.6700   37.6310 H   0  0  0  0  0  0  0  0  0  0  0  0
   37.6870   23.3300   38.2910 H   0  0  0  0  0  0  0  0  0  0  0  0
   37.7570   21.6310   36.5670 H   0  0  0  0  0  0  0  0  0  0  0  0
   38.4070   26.6090   35.1560 C   0  0  0  0  0  0  0  0  0  0  0  0
   38.9300   27.4060   35.9590 O   0  0  0  0  0  0  0  0  0  0  0  0
   38.9000   27.1760   32.8230 C   0  0  0  0  0  0  0  0  0  0  0  0
   37.9960   27.1610   33.8830 C   0  0  0  0  0  0  0  0  0  0  0  0
   36.7450   27.6890   33.6240 C   0  0  0  0  0  0  0  0  0  0  0  0
   36.4260   28.1920   32.4040 N   0  0  0  0  0  0  0  0  0  0  0  0
   37.3590   28.1790   31.3980 C   0  0  0  0  0  0  0  0  0  0  0  0
   38.5740   27.6810   31.6020 N   0  0  0  0  0  0  0  0  0  0  0  0
   39.9080   26.7960   32.8870 H   0  0  0  0  0  0  0  0  0  0  0  0
   36.0140   27.6910   34.4380 H   0  0  0  0  0  0  0  0  0  0  0  0
   36.9160   28.6190   30.5140 H   0  0  0  0  0  0  0  0  0  0  0  0
   38.1470   21.6930   33.6600 S   0  0  0  0  0  0  0  0  0  0  0  0
   36.5990   21.5170   32.7800 C   0  0  0  0  0  3  0  0  0  0  0  0
   36.9160   20.8760   31.4270 C   0  0  0  0  0  2  0  0  0  0  0  0
   35.7320   20.0190   31.0640 C   0  0  0  0  0  2  0  0  0  0  0  0
   34.7160   20.2740   32.1710 C   0  0  0  0  0  2  0  0  0  0  0  0
   35.6640   20.4880   33.3600 C   0  0  0  0  0  2  0  0  0  0  0  0
  1  2  1  0  0  0  0
  2  3  2  0  0  0  0
  2  7  1  0  0  0  0
  3  8  1  0  0  0  0
  4  9  1  0  0  0  0
  4  3  1  0  0  0  0
  5  4  2  0  0  0  0
  6  5  1  0  0  0  0
  6  1  2  0  0  0  0
 10  1  1  0  0  0  0
 10 11  2  0  0  0  0
 12 18  1  0  0  0  0
 12 13  1  0  0  0  0
 13 10  1  0  0  0  0
 14 13  2  0  0  0  0
 14 19  1  0  0  0  0
 15 14  1  0  0  0  0
 16 17  1  0  0  0  0
 16 15  2  0  0  0  0
 17 12  2  0  0  0  0
 20 16  1  0  0  0  0
 21  5  1  0  0  0  0
 22 26  1  0  0  0  0
 22 21  1  0  0  0  0
 23 22  1  0  0  0  0
 24 23  1  0  0  0  0
 24 25  1  0  0  0  0
 25 26  1  0  0  0  0
M  END
>  <minimizedAffinity>
-5.08125114

$$$$

 OpenBabel03262522123D

 26 28  0  0  0  0  0  0  0  0999 V2000
   37.6470   22.1630   35.6330 C   0  0  0  0  0  0  0  0  0  0  0  0
   36.6490   21.7050   36.4720 C   0  0  0  0  0  0  0  0  0  0  0  0
   35.6230   20.9410   35.9520 C   0  0  0  0  0  0  0  0  0  0  0  0
   35.6670   20.6810   34.6010 C   0  0  0  0  0  0  0  0  0  0  0  0
   36.6670   21.1440   33.7870 C   0  0  0  0  0  0  0  0  0  0  0  0
   37.6640   21.8920   34.3120 N   0  0  0  0  0  0  0  0  0  0  0  0
   36.5980   21.9000   37.5350 H   0  0  0  0  0  0  0  0  0  0  0  0
   34.7990   20.5480   36.5660 H   0  0  0  0  0  0  0  0  0  0  0  0
   34.8630   20.0810   34.1900 H   0  0  0  0  0  0  0  0  0  0  0  0
   38.6940   22.9600   36.2470 C   0  0  0  0  0  0  0  0  0  0  0  0
   39.4490   22.4690   37.1080 O   0  0  0  0  0  0  0  0  0  0  0  0
   38.0660   25.3250   36.4090 C   0  0  0  0  0  0  0  0  0  0  0  0
   38.9270   24.3490   35.9100 C   0  0  0  0  0  0  0  0  0  0  0  0
   39.9610   24.8000   35.1130 C   0  0  0  0  0  0  0  0  0  0  0  0
   40.1210   26.1190   34.8370 N   0  0  0  0  0  0  0  0  0  0  0  0
   39.2410   27.0340   35.3570 C   0  0  0  0  0  0  0  0  0  0  0  0
   38.2310   26.6460   36.1290 N   0  0  0  0  0  0  0  0  0  0  0  0
   37.2180   25.1110   37.0420 H   0  0  0  0  0  0  0  0  0  0  0  0
   40.6540   24.0560   34.7070 H   0  0  0  0  0  0  0  0  0  0  0  0
   39.5360   28.0210   35.0250 H   0  0  0  0  0  0  0  0  0  0  0  0
   36.7080   20.7950   32.0240 S   0  0  0  0  0  0  0  0  0  0  0  0
   36.6760   22.2700   31.0120 C   0  0  0  0  0  3  0  0  0  0  0  0
   35.6140   23.2020   31.5990 C   0  0  0  0  0  2  0  0  0  0  0  0
   36.0910   24.6100   31.3610 C   0  0  0  0  0  2  0  0  0  0  0  0
   37.3690   24.4530   30.5460 C   0  0  0  0  0  2  0  0  0  0  0  0
   37.9010   23.1380   31.1340 C   0  0  0  0  0  2  0  0  0  0  0  0
  1 10  1  0  0  0  0
  1  2  1  0  0  0  0
  2  7  1  0  0  0  0
  3  2  2  0  0  0  0
  3  8  1  0  0  0  0
  4  3  1  0  0  0  0
  5  6  1  0  0  0  0
  5  4  2  0  0  0  0
  6  1  2  0  0  0  0
  9  4  1  0  0  0  0
 10 11  2  0  0  0  0
 12 18  1  0  0  0  0
 13 10  1  0  0  0  0
 13 12  2  0  0  0  0
 14 13  1  0  0  0  0
 15 14  2  0  0  0  0
 15 16  1  0  0  0  0
 16 17  2  0  0  0  0
 17 12  1  0  0  0  0
 19 14  1  0  0  0  0
 20 16  1  0  0  0  0
 21  5  1  0  0  0  0
 22 26  1  0  0  0  0
 22 23  1  0  0  0  0
 22 21  1  0  0  0  0
 24 23  1  0  0  0  0
 25 26  1  0  0  0  0
 25 24  1  0  0  0  0
M  END
>  <minimizedAffinity>
-5.04517794

$$$$

 OpenBabel03262522123D

 26 28  0  0  0  0  0  0  0  0999 V2000
   37.3630   22.9360   32.7630 C   0  0  0  0  0  0  0  0  0  0  0  0
   36.4000   22.3290   31.9810 C   0  0  0  0  0  0  0  0  0  0  0  0
   35.5400   23.1120   31.2360 C   0  0  0  0  0  0  0  0  0  0  0  0
   35.7060   24.4750   31.3260 C   0  0  0  0  0  0  0  0  0  0  0  0
   36.6690   25.0560   32.1080 C   0  0  0  0  0  0  0  0  0  0  0  0
   37.5030   24.2750   32.8320 N   0  0  0  0  0  0  0  0  0  0  0  0
   36.2530   21.2610   31.8980 H   0  0  0  0  0  0  0  0  0  0  0  0
   34.7510   22.6910   30.5940 H   0  0  0  0  0  0  0  0  0  0  0  0
   35.0330   25.0920   30.7420 H   0  0  0  0  0  0  0  0  0  0  0  0
   38.2330   22.0530   33.5200 C   0  0  0  0  0  0  0  0  0  0  0  0
   38.6290   20.9760   33.0340 O   0  0  0  0  0  0  0  0  0  0  0  0
   40.0540   22.3520   35.1340 C   0  0  0  0  0  0  0  0  0  0  0  0
   38.6880   22.3540   34.8610 C   0  0  0  0  0  0  0  0  0  0  0  0
   37.8550   22.6530   35.9230 C   0  0  0  0  0  0  0  0  0  0  0  0
   38.3510   22.9270   37.1570 N   0  0  0  0  0  0  0  0  0  0  0  0
   39.7060   22.9090   37.3650 C   0  0  0  0  0  0  0  0  0  0  0  0
   40.5440   22.6270   36.3730 N   0  0  0  0  0  0  0  0  0  0  0  0
   40.8130   22.1350   34.3980 H   0  0  0  0  0  0  0  0  0  0  0  0
   36.7770   22.6630   35.7390 H   0  0  0  0  0  0  0  0  0  0  0  0
   39.8980   23.1500   38.4030 H   0  0  0  0  0  0  0  0  0  0  0  0
   36.8730   26.8390   32.2140 S   0  0  0  0  0  0  0  0  0  0  0  0
   37.7440   27.3640   33.6860 C   0  0  0  0  0  3  0  0  0  0  0  0
   37.0760   26.6760   34.8790 C   0  0  0  0  0  2  0  0  0  0  0  0
   38.1570   26.4190   35.8940 C   0  0  0  0  0  2  0  0  0  0  0  0
   39.4050   27.0640   35.3020 C   0  0  0  0  0  2  0  0  0  0  0  0
   39.1460   26.8250   33.8080 C   0  0  0  0  0  2  0  0  0  0  0  0
  1  6  1  0  0  0  0
  1 10  1  0  0  0  0
  2  1  2  0  0  0  0
  3  4  2  0  0  0  0
  3  2  1  0  0  0  0
  4  5  1  0  0  0  0
  5 21  1  0  0  0  0
  5  6  2  0  0  0  0
  7  2  1  0  0  0  0
  8  3  1  0  0  0  0
  9  4  1  0  0  0  0
 10 13  1  0  0  0  0
 11 10  2  0  0  0  0
 12 17  1  0  0  0  0
 13 12  2  0  0  0  0
 13 14  1  0  0  0  0
 14 15  2  0  0  0  0
 15 16  1  0  0  0  0
 16 20  1  0  0  0  0
 17 16  2  0  0  0  0
 18 12  1  0  0  0  0
 19 14  1  0  0  0  0
 21 22  1  0  0  0  0
 22 26  1  0  0  0  0
 22 23  1  0  0  0  0
 23 24  1  0  0  0  0
 25 24  1  0  0  0  0
 26 25  1  0  0  0  0
M  END
>  <minimizedAffinity>
-5.03203392

$$$$

 OpenBabel03262522123D

 26 28  0  0  0  0  0  0  0  0999 V2000
   37.4780   26.0250   33.8700 C   0  0  0  0  0  0  0  0  0  0  0  0
   37.7430   27.3050   34.3170 C   0  0  0  0  0  0  0  0  0  0  0  0
   38.2310   27.4900   35.5950 C   0  0  0  0  0  0  0  0  0  0  0  0
   38.4270   26.3580   36.3540 C   0  0  0  0  0  0  0  0  0  0  0  0
   38.1580   25.0980   35.8900 C   0  0  0  0  0  0  0  0  0  0  0  0
   37.6790   24.9340   34.6370 N   0  0  0  0  0  0  0  0  0  0  0  0
   37.5950   28.2050   33.7360 H   0  0  0  0  0  0  0  0  0  0  0  0
   38.4620   28.4820   36.0110 H   0  0  0  0  0  0  0  0  0  0  0  0
   38.8110   26.5000   37.3580 H   0  0  0  0  0  0  0  0  0  0  0  0
   36.9660   25.9040   32.5170 C   0  0  0  0  0  0  0  0  0  0  0  0
   36.3840   24.8670   32.1440 O   0  0  0  0  0  0  0  0  0  0  0  0
   38.2210   26.9890   30.7110 C   0  0  0  0  0  0  0  0  0  0  0  0
   37.0940   26.9560   31.5290 C   0  0  0  0  0  0  0  0  0  0  0  0
   36.1640   27.9560   31.3250 C   0  0  0  0  0  0  0  0  0  0  0  0
   36.3470   28.9120   30.3790 N   0  0  0  0  0  0  0  0  0  0  0  0
   37.4780   28.8940   29.6030 C   0  0  0  0  0  0  0  0  0  0  0  0
   38.3990   27.9500   29.7650 N   0  0  0  0  0  0  0  0  0  0  0  0
   39.0240   26.2690   30.7650 H   0  0  0  0  0  0  0  0  0  0  0  0
   35.2670   27.9560   31.9530 H   0  0  0  0  0  0  0  0  0  0  0  0
   37.4380   29.7300   28.9160 H   0  0  0  0  0  0  0  0  0  0  0  0
   38.4190   23.6290   36.8960 S   0  0  0  0  0  0  0  0  0  0  0  0
   39.8520   22.6800   36.4000 C   0  0  0  0  0  3  0  0  0  0  0  0
   40.8540   23.6580   35.7820 C   0  0  0  0  0  2  0  0  0  0  0  0
   42.2280   23.1370   36.1080 C   0  0  0  0  0  2  0  0  0  0  0  0
   41.9810   21.8110   36.8170 C   0  0  0  0  0  2  0  0  0  0  0  0
   40.6680   22.1360   37.5440 C   0  0  0  0  0  2  0  0  0  0  0  0
  1  2  2  0  0  0  0
  1  6  1  0  0  0  0
  2  3  1  0  0  0  0
  3  8  1  0  0  0  0
  3  4  2  0  0  0  0
  4  9  1  0  0  0  0
  5  4  1  0  0  0  0
  5 21  1  0  0  0  0
  6  5  2  0  0  0  0
  7  2  1  0  0  0  0
 10  1  1  0  0  0  0
 11 10  2  0  0  0  0
 12 18  1  0  0  0  0
 12 13  1  0  0  0  0
 13 10  1  0  0  0  0
 14 13  2  0  0  0  0
 14 19  1  0  0  0  0
 15 14  1  0  0  0  0
 16 17  1  0  0  0  0
 16 15  2  0  0  0  0
 17 12  2  0  0  0  0
 20 16  1  0  0  0  0
 22 21  1  0  0  0  0
 22 26  1  0  0  0  0
 23 24  1  0  0  0  0
 23 22  1  0  0  0  0
 24 25  1  0  0  0  0
 25 26  1  0  0  0  0
M  END
>  <minimizedAffinity>
-5.01989079

$$$$

 OpenBabel03262522123D

 26 28  0  0  0  0  0  0  0  0999 V2000
   36.2620   26.1690   32.1910 C   0  0  0  0  0  0  0  0  0  0  0  0
   35.8050   27.4460   31.9290 C   0  0  0  0  0  0  0  0  0  0  0  0
   36.1240   28.4720   32.7970 C   0  0  0  0  0  0  0  0  0  0  0  0
   36.8940   28.1430   33.8890 C   0  0  0  0  0  0  0  0  0  0  0  0
   37.3370   26.8700   34.1300 C   0  0  0  0  0  0  0  0  0  0  0  0
   37.0150   25.8760   33.2710 N   0  0  0  0  0  0  0  0  0  0  0  0
   35.1990   27.7220   31.0770 H   0  0  0  0  0  0  0  0  0  0  0  0
   35.7910   29.5100   32.6450 H   0  0  0  0  0  0  0  0  0  0  0  0
   37.1460   28.9470   34.5720 H   0  0  0  0  0  0  0  0  0  0  0  0
   35.8890   25.1390   31.2380 C   0  0  0  0  0  0  0  0  0  0  0  0
   34.8380   25.2330   30.5740 O   0  0  0  0  0  0  0  0  0  0  0  0
   36.1970   22.7100   31.3720 C   0  0  0  0  0  0  0  0  0  0  0  0
   36.6920   23.9580   30.9990 C   0  0  0  0  0  0  0  0  0  0  0  0
   37.9440   23.9670   30.4140 C   0  0  0  0  0  0  0  0  0  0  0  0
   38.6430   22.8200   30.2180 N   0  0  0  0  0  0  0  0  0  0  0  0
   38.1040   21.6200   30.6070 C   0  0  0  0  0  0  0  0  0  0  0  0
   36.9030   21.5640   31.1740 N   0  0  0  0  0  0  0  0  0  0  0  0
   35.2350   22.5600   31.8380 H   0  0  0  0  0  0  0  0  0  0  0  0
   38.3580   24.9320   30.1100 H   0  0  0  0  0  0  0  0  0  0  0  0
   38.8080   20.8330   30.3690 H   0  0  0  0  0  0  0  0  0  0  0  0
   38.3420   26.4580   35.5630 S   0  0  0  0  0  0  0  0  0  0  0  0
   38.0150   24.8220   36.2080 C   0  0  0  0  0  3  0  0  0  0  0  0
   39.2490   23.9640   35.9190 C   0  0  0  0  0  2  0  0  0  0  0  0
   39.3690   22.9800   37.0520 C   0  0  0  0  0  2  0  0  0  0  0  0
   38.1350   23.2270   37.9120 C   0  0  0  0  0  2  0  0  0  0  0  0
   37.9690   24.7410   37.7120 C   0  0  0  0  0  2  0  0  0  0  0  0
  1  6  1  0  0  0  0
  2  1  2  0  0  0  0
  2  3  1  0  0  0  0
  3  4  2  0  0  0  0
  4  5  1  0  0  0  0
  4  9  1  0  0  0  0
  5 21  1  0  0  0  0
  6  5  2  0  0  0  0
  7  2  1  0  0  0  0
  8  3  1  0  0  0  0
 10  1  1  0  0  0  0
 11 10  2  0  0  0  0
 12 18  1  0  0  0  0
 13 10  1  0  0  0  0
 13 12  2  0  0  0  0
 14 13  1  0  0  0  0
 15 14  2  0  0  0  0
 15 16  1  0  0  0  0
 16 17  2  0  0  0  0
 17 12  1  0  0  0  0
 19 14  1  0  0  0  0
 20 16  1  0  0  0  0
 21 22  1  0  0  0  0
 22 26  1  0  0  0  0
 23 22  1  0  0  0  0
 23 24  1  0  0  0  0
 24 25  1  0  0  0  0
 26 25  1  0  0  0  0
M  END
>  <minimizedAffinity>
-4.98609209

$$$$

 OpenBabel03262522123D

 26 28  0  0  0  0  0  0  0  0999 V2000
   36.4720   26.4400   31.5410 C   0  0  0  0  0  0  0  0  0  0  0  0
   35.4910   25.6480   30.9780 C   0  0  0  0  0  0  0  0  0  0  0  0
   35.4670   24.2960   31.2560 C   0  0  0  0  0  0  0  0  0  0  0  0
   36.4460   23.8190   32.0980 C   0  0  0  0  0  0  0  0  0  0  0  0
   37.4100   24.6230   32.6460 C   0  0  0  0  0  0  0  0  0  0  0  0
   37.4200   25.9450   32.3630 N   0  0  0  0  0  0  0  0  0  0  0  0
   34.7140   26.0050   30.3140 H   0  0  0  0  0  0  0  0  0  0  0  0
   34.7120   23.6120   30.8390 H   0  0  0  0  0  0  0  0  0  0  0  0
   36.4290   22.7580   32.3190 H   0  0  0  0  0  0  0  0  0  0  0  0
   36.4380   27.8520   31.2040 C   0  0  0  0  0  0  0  0  0  0  0  0
   36.6960   28.2400   30.0480 O   0  0  0  0  0  0  0  0  0  0  0  0
   36.0990   30.2170   31.7580 C   0  0  0  0  0  0  0  0  0  0  0  0
   36.1110   28.8850   32.1660 C   0  0  0  0  0  0  0  0  0  0  0  0
   35.7990   28.6510   33.4910 C   0  0  0  0  0  0  0  0  0  0  0  0
   35.5010   29.6670   34.3390 N   0  0  0  0  0  0  0  0  0  0  0  0
   35.5060   30.9600   33.8810 C   0  0  0  0  0  0  0  0  0  0  0  0
   35.7990   31.2320   32.6130 N   0  0  0  0  0  0  0  0  0  0  0  0
   36.3230   30.5390   30.7520 H   0  0  0  0  0  0  0  0  0  0  0  0
   35.8000   27.6140   33.8400 H   0  0  0  0  0  0  0  0  0  0  0  0
   35.2450   31.6170   34.7000 H   0  0  0  0  0  0  0  0  0  0  0  0
   38.6820   23.9820   33.7440 S   0  0  0  0  0  0  0  0  0  0  0  0
   38.0980   23.6980   35.4110 C   0  0  0  0  0  3  0  0  0  0  0  0
   39.1350   22.8170   36.1120 C   0  0  0  0  0  2  0  0  0  0  0  0
   39.1370   23.2200   37.5630 C   0  0  0  0  0  2  0  0  0  0  0  0
   38.0230   24.2520   37.6800 C   0  0  0  0  0  2  0  0  0  0  0  0
   38.1260   24.9150   36.2990 C   0  0  0  0  0  2  0  0  0  0  0  0
  1  6  1  0  0  0  0
  2  3  1  0  0  0  0
  2  1  2  0  0  0  0
  3  4  2  0  0  0  0
  4  9  1  0  0  0  0
  4  5  1  0  0  0  0
  5 21  1  0  0  0  0
  6  5  2  0  0  0  0
  7  2  1  0  0  0  0
  8  3  1  0  0  0  0
 10  1  1  0  0  0  0
 10 13  1  0  0  0  0
 11 10  2  0  0  0  0
 12 13  2  0  0  0  0
 12 17  1  0  0  0  0
 13 14  1  0  0  0  0
 14 19  1  0  0  0  0
 14 15  2  0  0  0  0
 16 15  1  0  0  0  0
 16 20  1  0  0  0  0
 17 16  2  0  0  0  0
 18 12  1  0  0  0  0
 21 22  1  0  0  0  0
 22 23  1  0  0  0  0
 22 26  1  0  0  0  0
 23 24  1  0  0  0  0
 24 25  1  0  0  0  0
 26 25  1  0  0  0  0
M  END
>  <minimizedAffinity>
-4.9454565

$$$$

 OpenBabel03262522123D

 26 28  0  0  0  0  0  0  0  0999 V2000
   36.5950   26.1830   32.0120 C   0  0  0  0  0  0  0  0  0  0  0  0
   35.5120   26.3240   31.1650 C   0  0  0  0  0  0  0  0  0  0  0  0
   34.8410   25.1990   30.7290 C   0  0  0  0  0  0  0  0  0  0  0  0
   35.3070   23.9850   31.1810 C   0  0  0  0  0  0  0  0  0  0  0  0
   36.3820   23.8680   32.0210 C   0  0  0  0  0  0  0  0  0  0  0  0
   37.0290   24.9800   32.4380 N   0  0  0  0  0  0  0  0  0  0  0  0
   35.1330   27.2690   30.7990 H   0  0  0  0  0  0  0  0  0  0  0  0
   33.9730   25.2440   30.0540 H   0  0  0  0  0  0  0  0  0  0  0  0
   34.7810   23.1000   30.8410 H   0  0  0  0  0  0  0  0  0  0  0  0
   37.2540   27.4080   32.4300 C   0  0  0  0  0  0  0  0  0  0  0  0
   38.4970   27.4840   32.4650 O   0  0  0  0  0  0  0  0  0  0  0  0
   36.0020   28.6760   34.1140 C   0  0  0  0  0  0  0  0  0  0  0  0
   36.5290   28.5970   32.8270 C   0  0  0  0  0  0  0  0  0  0  0  0
   36.3130   29.6910   32.0120 C   0  0  0  0  0  0  0  0  0  0  0  0
   35.6240   30.7760   32.4490 N   0  0  0  0  0  0  0  0  0  0  0  0
   35.1270   30.7960   33.7280 C   0  0  0  0  0  0  0  0  0  0  0  0
   35.3120   29.7660   34.5460 N   0  0  0  0  0  0  0  0  0  0  0  0
   36.0970   27.8940   34.8510 H   0  0  0  0  0  0  0  0  0  0  0  0
   36.7150   29.6580   30.9950 H   0  0  0  0  0  0  0  0  0  0  0  0
   34.6150   31.7370   33.8830 H   0  0  0  0  0  0  0  0  0  0  0  0
   36.9780   22.2730   32.6010 S   0  0  0  0  0  0  0  0  0  0  0  0
   35.8970   20.9160   32.1660 C   0  0  0  0  0  3  0  0  0  0  0  0
   36.6540   20.0320   31.1720 C   0  0  0  0  0  2  0  0  0  0  0  0
   36.2020   18.6170   31.4170 C   0  0  0  0  0  2  0  0  0  0  0  0
   35.1140   18.7360   32.4770 C   0  0  0  0  0  2  0  0  0  0  0  0
   35.6510   19.9310   33.2790 C   0  0  0  0  0  2  0  0  0  0  0  0
  1 10  1  0  0  0  0
  1  6  1  0  0  0  0
  2  1  2  0  0  0  0
  3  2  1  0  0  0  0
  3  4  2  0  0  0  0
  4  5  1  0  0  0  0
  5  6  2  0  0  0  0
  5 21  1  0  0  0  0
  7  2  1  0  0  0  0
  8  3  1  0  0  0  0
  9  4  1  0  0  0  0
 10 11  2  0  0  0  0
 10 13  1  0  0  0  0
 12 17  1  0  0  0  0
 12 18  1  0  0  0  0
 13 12  2  0  0  0  0
 14 15  2  0  0  0  0
 14 13  1  0  0  0  0
 15 16  1  0  0  0  0
 16 20  1  0  0  0  0
 16 17  2  0  0  0  0
 19 14  1  0  0  0  0
 22 21  1  0  0  0  0
 22 26  1  0  0  0  0
 23 24  1  0  0  0  0
 23 22  1  0  0  0  0
 24 25  1  0  0  0  0
 25 26  1  0  0  0  0
M  END
>  <minimizedAffinity>
-4.93372202

$$$$
