
 OpenBabel03272504183D

 22 23  0  0  0  0  0  0  0  0999 V2000
   35.9730   30.7570   49.4660 C   0  0  0  0  0  0  0  0  0  0  0  0
   36.1800   29.9250   50.5500 C   0  0  0  0  0  0  0  0  0  0  0  0
   37.4130   29.9530   51.1800 C   0  0  0  0  0  0  0  0  0  0  0  0
   38.3830   30.7980   50.7130 N   0  0  0  0  0  0  0  0  0  0  0  0
   38.1350   31.6010   49.6410 C   0  0  0  0  0  0  0  0  0  0  0  0
   36.9320   31.5860   49.0110 N   0  0  0  0  0  0  0  0  0  0  0  0
   37.5320   29.3010   52.0050 H   0  0  0  0  0  0  0  0  0  0  0  0
   38.9230   32.2740   49.2780 H   0  0  0  0  0  0  0  0  0  0  0  0
   35.0730   29.1180   50.8980 N   0  0  0  0  0  0  0  0  0  0  0  0
   35.2410   28.2250   50.3620 H   0  0  0  0  0  0  0  0  0  0  0  0
   34.2730   29.3680   51.5460 H   0  0  0  0  0  0  0  0  0  0  0  0
   34.8020   30.8610   48.7140 O   0  0  0  0  0  0  0  0  0  0  0  0
   35.6340   30.0830   46.2880 O   0  0  0  0  0  0  0  0  0  0  0  0
   34.5410   29.9100   47.2970 P   0  0  1  0  0  0  0  0  0  0  0  0
   34.4370   28.3000   47.8220 O   0  0  0  0  0  0  0  0  0  0  0  0
   33.9680   28.2130   48.6700 H   0  0  0  0  0  0  0  0  0  0  0  0
   33.1160   30.4170   46.5360 O   0  0  0  0  0  0  0  0  0  0  0  0
   32.3480   29.3360   46.0990 C   0  0  0  0  0  3  0  0  0  0  0  0
   32.6650   28.9700   44.6600 C   0  0  0  0  0  2  0  0  0  0  0  0
   31.4260   28.1450   44.3070 C   0  0  0  0  0  2  0  0  0  0  0  0
   30.3060   28.9330   44.9510 C   0  0  0  0  0  2  0  0  0  0  0  0
   30.9180   29.8340   45.9790 C   0  0  0  0  0  2  0  0  0  0  0  0
  1  2  1  0  0  0  0
  2  9  1  0  0  0  0
  2  3  2  0  0  0  0
  3  7  1  0  0  0  0
  4  3  1  0  0  0  0
  5  4  2  0  0  0  0
  6  1  2  0  0  0  0
  6  5  1  0  0  0  0
  8  5  1  0  0  0  0
  9 11  1  0  0  0  0
 10  9  1  0  0  0  0
 12  1  1  0  0  0  0
 14 13  2  6  0  0  0
 14 15  1  0  0  0  0
 14 12  1  0  0  0  0
 15 16  1  0  0  0  0
 17 14  1  0  0  0  0
 18 17  1  0  0  0  0
 19 18  1  0  0  0  0
 20 19  1  0  0  0  0
 20 21  1  0  0  0  0
 21 22  1  0  0  0  0
 22 18  1  0  0  0  0
M  END
>  <minimizedAffinity>
-3.74761367

>  <minimizedRMSD>
0.930171251

$$$$
