
 OpenBabel03272508523D

 25 27  0  0  1  0  0  0  0  0999 V2000
   39.3390   25.2000   34.7440 C   0  0  2  0  0  0  0  0  0  0  0  0
   40.5710   25.9010   34.4050 C   0  0  0  0  0  0  0  0  0  0  0  0
   39.2650   26.6550   34.7120 C   0  0  1  0  0  0  0  0  0  0  0  0
   38.7640   24.7050   33.8900 H   0  0  0  0  0  0  0  0  0  0  0  0
   41.3890   25.9810   35.1700 H   0  0  0  0  0  0  0  0  0  0  0  0
   40.9100   26.0110   33.3780 H   0  0  0  0  0  0  0  0  0  0  0  0
   39.4130   27.3250   35.5710 H   0  0  0  0  0  0  0  0  0  0  0  0
   39.7870   22.8050   37.5330 C   0  0  0  0  0  0  0  0  0  0  0  0
   38.7750   23.2130   38.4430 C   0  0  0  0  0  0  0  0  0  0  0  0
   37.9440   24.3250   38.0710 C   0  0  0  0  0  0  0  0  0  0  0  0
   38.1680   24.9240   36.8770 N   0  0  0  0  0  0  0  0  0  0  0  0
   39.1540   24.4880   36.0460 C   0  0  0  0  0  0  0  0  0  0  0  0
   39.9610   23.4500   36.3480 N   0  0  0  0  0  0  0  0  0  0  0  0
   40.3610   21.9640   37.8960 H   0  0  0  0  0  0  0  0  0  0  0  0
   38.6310   22.7060   39.3870 H   0  0  0  0  0  0  0  0  0  0  0  0
   37.1670   24.6550   38.7450 H   0  0  0  0  0  0  0  0  0  0  0  0
   37.2350   27.5370   33.6120 C   0  0  0  0  0  0  0  0  0  0  0  0
   36.6380   27.4810   34.7150 O   0  0  0  0  0  0  0  0  0  0  0  0
   38.6450   27.2540   33.5270 N   0  0  0  0  0  0  0  0  0  0  0  0
   39.2510   27.4420   32.6890 H   0  0  0  0  0  0  0  0  0  0  0  0
   36.5740   27.8930   32.3060 C   0  0  0  0  0  3  0  0  0  0  0  0
   37.5940   27.7740   31.1940 C   0  0  0  0  0  2  0  0  0  0  0  0
   37.2610   28.8870   30.2580 C   0  0  0  0  0  2  0  0  0  0  0  0
   36.0960   29.6530   30.8390 C   0  0  0  0  0  2  0  0  0  0  0  0
   36.0450   29.2850   32.3070 C   0  0  0  0  0  2  0  0  0  0  0  0
  1  4  1  6  0  0  0
  1 12  1  0  0  0  0
  2  3  1  0  0  0  0
  2  1  1  0  0  0  0
  2  5  1  0  0  0  0
  3  1  1  0  0  0  0
  3  7  1  1  0  0  0
  6  2  1  0  0  0  0
  8 14  1  0  0  0  0
  8  9  1  0  0  0  0
  9 15  1  0  0  0  0
 10  9  2  0  0  0  0
 10 16  1  0  0  0  0
 11 10  1  0  0  0  0
 12 13  1  0  0  0  0
 12 11  2  0  0  0  0
 13  8  2  0  0  0  0
 17 18  2  0  0  0  0
 19 17  1  0  0  0  0
 19  3  1  0  0  0  0
 20 19  1  0  0  0  0
 21 25  1  0  0  0  0
 21 17  1  0  0  0  0
 22 21  1  0  0  0  0
 23 24  1  0  0  0  0
 23 22  1  0  0  0  0
 24 25  1  0  0  0  0
M  END
>  <minimizedAffinity>
-4.55083942

$$$$

 OpenBabel03272508523D

 25 27  0  0  1  0  0  0  0  0999 V2000
   36.9410   27.2360   33.5060 C   0  0  2  0  0  0  0  0  0  0  0  0
   36.5120   28.1100   34.5900 C   0  0  0  0  0  0  0  0  0  0  0  0
   37.8720   27.3900   34.6160 C   0  0  1  0  0  0  0  0  0  0  0  0
   36.4750   26.1940   33.4560 H   0  0  0  0  0  0  0  0  0  0  0  0
   36.5360   29.2230   34.4430 H   0  0  0  0  0  0  0  0  0  0  0  0
   35.8250   27.7780   35.3640 H   0  0  0  0  0  0  0  0  0  0  0  0
   38.6850   28.1280   34.6750 H   0  0  0  0  0  0  0  0  0  0  0  0
   38.8850   27.9520   30.4360 C   0  0  0  0  0  0  0  0  0  0  0  0
   37.9730   28.7370   29.6820 C   0  0  0  0  0  0  0  0  0  0  0  0
   36.6840   29.0090   30.2550 C   0  0  0  0  0  0  0  0  0  0  0  0
   36.4050   28.5030   31.4810 N   0  0  0  0  0  0  0  0  0  0  0  0
   37.3210   27.7570   32.1570 C   0  0  0  0  0  0  0  0  0  0  0  0
   38.5440   27.4730   31.6640 N   0  0  0  0  0  0  0  0  0  0  0  0
   39.8260   27.7990   29.9280 H   0  0  0  0  0  0  0  0  0  0  0  0
   38.2370   29.1200   28.7050 H   0  0  0  0  0  0  0  0  0  0  0  0
   35.9710   29.6030   29.7010 H   0  0  0  0  0  0  0  0  0  0  0  0
   38.8750   25.2380   35.3030 C   0  0  0  0  0  0  0  0  0  0  0  0
   39.7450   25.3820   34.4080 O   0  0  0  0  0  0  0  0  0  0  0  0
   37.9310   26.2890   35.5820 N   0  0  0  0  0  0  0  0  0  0  0  0
   37.2900   26.3220   36.4140 H   0  0  0  0  0  0  0  0  0  0  0  0
   38.7250   24.0010   36.1500 C   0  0  0  0  0  3  0  0  0  0  0  0
   38.0580   24.3810   37.4540 C   0  0  0  0  0  2  0  0  0  0  0  0
   38.7140   23.5160   38.4770 C   0  0  0  0  0  2  0  0  0  0  0  0
   39.7630   22.6820   37.7810 C   0  0  0  0  0  2  0  0  0  0  0  0
   40.0400   23.3750   36.4630 C   0  0  0  0  0  2  0  0  0  0  0  0
  1  4  1  6  0  0  0
  1  2  1  0  0  0  0
  1  3  1  0  0  0  0
  2  3  1  0  0  0  0
  2  6  1  0  0  0  0
  3  7  1  6  0  0  0
  3 19  1  0  0  0  0
  5  2  1  0  0  0  0
  8 13  1  0  0  0  0
  9 10  1  0  0  0  0
  9  8  2  0  0  0  0
 10 11  2  0  0  0  0
 11 12  1  0  0  0  0
 12  1  1  0  0  0  0
 13 12  2  0  0  0  0
 14  8  1  0  0  0  0
 15  9  1  0  0  0  0
 16 10  1  0  0  0  0
 17 19  1  0  0  0  0
 17 21  1  0  0  0  0
 18 17  2  0  0  0  0
 19 20  1  0  0  0  0
 21 25  1  0  0  0  0
 21 22  1  0  0  0  0
 22 23  1  0  0  0  0
 24 23  1  0  0  0  0
 25 24  1  0  0  0  0
M  END
>  <minimizedAffinity>
-4.54325247

$$$$

 OpenBabel03272508523D

 25 27  0  0  1  0  0  0  0  0999 V2000
   35.7540   23.6940   31.7690 C   0  0  2  0  0  0  0  0  0  0  0  0
   35.0720   24.5540   30.8100 C   0  0  0  0  0  0  0  0  0  0  0  0
   36.5880   24.6510   31.0540 C   0  0  1  0  0  0  0  0  0  0  0  0
   35.6350   23.9460   32.8770 H   0  0  0  0  0  0  0  0  0  0  0  0
   34.7490   24.1310   29.8210 H   0  0  0  0  0  0  0  0  0  0  0  0
   34.5210   25.4390   31.1160 H   0  0  0  0  0  0  0  0  0  0  0  0
   37.1320   24.4570   30.1180 H   0  0  0  0  0  0  0  0  0  0  0  0
   37.2290   20.4870   30.6520 C   0  0  0  0  0  0  0  0  0  0  0  0
   36.2790   19.5410   31.1220 C   0  0  0  0  0  0  0  0  0  0  0  0
   35.1290   20.0360   31.8270 C   0  0  0  0  0  0  0  0  0  0  0  0
   35.0110   21.3730   32.0070 N   0  0  0  0  0  0  0  0  0  0  0  0
   35.9550   22.2320   31.5330 C   0  0  0  0  0  0  0  0  0  0  0  0
   37.0520   21.8190   30.8650 N   0  0  0  0  0  0  0  0  0  0  0  0
   38.0580   20.0250   30.1340 H   0  0  0  0  0  0  0  0  0  0  0  0
   36.4140   18.4810   30.9570 H   0  0  0  0  0  0  0  0  0  0  0  0
   34.3920   19.3370   32.1960 H   0  0  0  0  0  0  0  0  0  0  0  0
   38.2140   25.7760   32.5390 C   0  0  0  0  0  0  0  0  0  0  0  0
   39.0000   24.8100   32.3760 O   0  0  0  0  0  0  0  0  0  0  0  0
   36.9850   25.8550   31.7910 N   0  0  0  0  0  0  0  0  0  0  0  0
   36.3620   26.6990   31.7370 H   0  0  0  0  0  0  0  0  0  0  0  0
   38.4560   26.9160   33.4940 C   0  0  0  0  0  3  0  0  0  0  0  0
   39.4530   26.4710   34.5420 C   0  0  0  0  0  2  0  0  0  0  0  0
   38.9930   27.1260   35.8000 C   0  0  0  0  0  2  0  0  0  0  0  0
   37.7350   27.9030   35.4900 C   0  0  0  0  0  2  0  0  0  0  0  0
   37.2070   27.3390   34.1870 C   0  0  0  0  0  2  0  0  0  0  0  0
  1  4  1  1  0  0  0
  2  3  1  0  0  0  0
  2  6  1  0  0  0  0
  2  1  1  0  0  0  0
  3  7  1  6  0  0  0
  3  1  1  0  0  0  0
  3 19  1  0  0  0  0
  5  2  1  0  0  0  0
  8 13  2  0  0  0  0
  8  9  1  0  0  0  0
  9 10  2  0  0  0  0
 10 11  1  0  0  0  0
 10 16  1  0  0  0  0
 12  1  1  0  0  0  0
 12 11  2  0  0  0  0
 13 12  1  0  0  0  0
 14  8  1  0  0  0  0
 15  9  1  0  0  0  0
 17 21  1  0  0  0  0
 18 17  2  0  0  0  0
 19 17  1  0  0  0  0
 20 19  1  0  0  0  0
 21 25  1  0  0  0  0
 21 22  1  0  0  0  0
 22 23  1  0  0  0  0
 24 23  1  0  0  0  0
 25 24  1  0  0  0  0
M  END
>  <minimizedAffinity>
-4.53884697

$$$$

 OpenBabel03272508523D

 25 27  0  0  1  0  0  0  0  0999 V2000
   38.7100   26.3580   35.0140 C   0  0  2  0  0  0  0  0  0  0  0  0
   38.2580   27.4950   35.8060 C   0  0  0  0  0  0  0  0  0  0  0  0
   37.3040   26.7160   34.8820 C   0  0  1  0  0  0  0  0  0  0  0  0
   39.3180   26.5820   34.0730 H   0  0  0  0  0  0  0  0  0  0  0  0
   38.1000   27.3690   36.9110 H   0  0  0  0  0  0  0  0  0  0  0  0
   38.4290   28.5210   35.4950 H   0  0  0  0  0  0  0  0  0  0  0  0
   36.4750   26.2950   35.4700 H   0  0  0  0  0  0  0  0  0  0  0  0
   40.5460   23.2440   35.8190 C   0  0  0  0  0  0  0  0  0  0  0  0
   39.6980   22.6380   36.7840 C   0  0  0  0  0  0  0  0  0  0  0  0
   38.4900   23.3260   37.1440 C   0  0  0  0  0  0  0  0  0  0  0  0
   38.2230   24.5130   36.5480 N   0  0  0  0  0  0  0  0  0  0  0  0
   39.0740   25.0450   35.6300 C   0  0  0  0  0  0  0  0  0  0  0  0
   40.2210   24.4400   35.2560 N   0  0  0  0  0  0  0  0  0  0  0  0
   41.4290   22.6570   35.6110 H   0  0  0  0  0  0  0  0  0  0  0  0
   39.9510   21.6890   37.2350 H   0  0  0  0  0  0  0  0  0  0  0  0
   37.8270   22.8870   37.8760 H   0  0  0  0  0  0  0  0  0  0  0  0
   36.7040   26.6800   32.4840 C   0  0  0  0  0  0  0  0  0  0  0  0
   36.6210   25.4280   32.5460 O   0  0  0  0  0  0  0  0  0  0  0  0
   36.9260   27.4580   33.6760 N   0  0  0  0  0  0  0  0  0  0  0  0
   36.8380   28.5030   33.7410 H   0  0  0  0  0  0  0  0  0  0  0  0
   36.5880   27.4770   31.2120 C   0  0  0  0  0  3  0  0  0  0  0  0
   37.9700   27.6610   30.6230 C   0  0  0  0  0  2  0  0  0  0  0  0
   37.9500   29.0350   30.0410 C   0  0  0  0  0  2  0  0  0  0  0  0
   36.5940   29.6410   30.3220 C   0  0  0  0  0  2  0  0  0  0  0  0
   35.9960   28.8240   31.4470 C   0  0  0  0  0  2  0  0  0  0  0  0
  1  4  1  6  0  0  0
  1 12  1  0  0  0  0
  1  2  1  0  0  0  0
  2  5  1  0  0  0  0
  3  1  1  0  0  0  0
  3  7  1  1  0  0  0
  3  2  1  0  0  0  0
  6  2  1  0  0  0  0
  8  9  1  0  0  0  0
  9 10  2  0  0  0  0
  9 15  1  0  0  0  0
 10 16  1  0  0  0  0
 11 10  1  0  0  0  0
 12 11  2  0  0  0  0
 13 12  1  0  0  0  0
 13  8  2  0  0  0  0
 14  8  1  0  0  0  0
 17 18  2  0  0  0  0
 17 19  1  0  0  0  0
 19 20  1  0  0  0  0
 19  3  1  0  0  0  0
 21 25  1  0  0  0  0
 21 17  1  0  0  0  0
 22 21  1  0  0  0  0
 23 24  1  0  0  0  0
 23 22  1  0  0  0  0
 24 25  1  0  0  0  0
M  END
>  <minimizedAffinity>
-4.5381074

$$$$

 OpenBabel03272508523D

 25 27  0  0  1  0  0  0  0  0999 V2000
   37.0200   27.2690   33.7700 C   0  0  2  0  0  0  0  0  0  0  0  0
   36.6770   28.0960   34.9210 C   0  0  0  0  0  0  0  0  0  0  0  0
   38.0400   27.3910   34.8040 C   0  0  1  0  0  0  0  0  0  0  0  0
   36.5600   26.2250   33.7190 H   0  0  0  0  0  0  0  0  0  0  0  0
   36.6800   29.2140   34.8170 H   0  0  0  0  0  0  0  0  0  0  0  0
   36.0610   27.7260   35.7350 H   0  0  0  0  0  0  0  0  0  0  0  0
   38.8500   28.1350   34.8240 H   0  0  0  0  0  0  0  0  0  0  0  0
   36.6390   29.2470   30.6630 C   0  0  0  0  0  0  0  0  0  0  0  0
   37.7980   28.8780   29.9300 C   0  0  0  0  0  0  0  0  0  0  0  0
   38.7050   27.9390   30.5310 C   0  0  0  0  0  0  0  0  0  0  0  0
   38.4080   27.4570   31.7620 N   0  0  0  0  0  0  0  0  0  0  0  0
   37.2800   27.8470   32.4160 C   0  0  0  0  0  0  0  0  0  0  0  0
   36.3980   28.7250   31.8970 N   0  0  0  0  0  0  0  0  0  0  0  0
   36.0170   29.9550   30.1340 H   0  0  0  0  0  0  0  0  0  0  0  0
   37.9970   29.2890   28.9500 H   0  0  0  0  0  0  0  0  0  0  0  0
   39.5950   27.6420   29.9950 H   0  0  0  0  0  0  0  0  0  0  0  0
   38.9740   25.1440   35.2400 C   0  0  0  0  0  0  0  0  0  0  0  0
   39.6690   25.2540   34.1990 O   0  0  0  0  0  0  0  0  0  0  0  0
   38.1890   26.2530   35.7160 N   0  0  0  0  0  0  0  0  0  0  0  0
   37.7220   26.3050   36.6560 H   0  0  0  0  0  0  0  0  0  0  0  0
   38.8850   23.8920   36.0730 C   0  0  0  0  0  3  0  0  0  0  0  0
   38.1520   24.2120   37.3570 C   0  0  0  0  0  2  0  0  0  0  0  0
   38.8340   23.3860   38.3950 C   0  0  0  0  0  2  0  0  0  0  0  0
   39.9620   22.6340   37.7270 C   0  0  0  0  0  2  0  0  0  0  0  0
   40.2310   23.3570   36.4240 C   0  0  0  0  0  2  0  0  0  0  0  0
  1  4  1  6  0  0  0
  1  3  1  0  0  0  0
  1  2  1  0  0  0  0
  2  6  1  0  0  0  0
  3  7  1  6  0  0  0
  3  2  1  0  0  0  0
  3 19  1  0  0  0  0
  5  2  1  0  0  0  0
  8 13  1  0  0  0  0
  9 10  1  0  0  0  0
  9  8  2  0  0  0  0
 10 11  2  0  0  0  0
 11 12  1  0  0  0  0
 12  1  1  0  0  0  0
 13 12  2  0  0  0  0
 14  8  1  0  0  0  0
 15  9  1  0  0  0  0
 16 10  1  0  0  0  0
 17 19  1  0  0  0  0
 17 21  1  0  0  0  0
 18 17  2  0  0  0  0
 19 20  1  0  0  0  0
 21 25  1  0  0  0  0
 21 22  1  0  0  0  0
 22 23  1  0  0  0  0
 24 23  1  0  0  0  0
 25 24  1  0  0  0  0
M  END
>  <minimizedAffinity>
-4.48245859

$$$$

 OpenBabel03272508523D

 25 27  0  0  1  0  0  0  0  0999 V2000
   35.8070   30.2050   33.9250 C   0  0  2  0  0  0  0  0  0  0  0  0
   35.3550   30.2000   32.5400 C   0  0  0  0  0  0  0  0  0  0  0  0
   35.5190   28.8990   33.3460 C   0  0  1  0  0  0  0  0  0  0  0  0
   36.9210   30.3730   34.1130 H   0  0  0  0  0  0  0  0  0  0  0  0
   34.3030   30.5140   32.3020 H   0  0  0  0  0  0  0  0  0  0  0  0
   36.0450   30.2890   31.7050 H   0  0  0  0  0  0  0  0  0  0  0  0
   34.5560   28.3690   33.4010 H   0  0  0  0  0  0  0  0  0  0  0  0
   32.9070   30.7530   36.1620 C   0  0  0  0  0  0  0  0  0  0  0  0
   33.4330   31.6660   37.1140 C   0  0  0  0  0  0  0  0  0  0  0  0
   34.8000   32.0820   36.9650 C   0  0  0  0  0  0  0  0  0  0  0  0
   35.5150   31.5830   35.9270 N   0  0  0  0  0  0  0  0  0  0  0  0
   34.9560   30.7100   35.0450 C   0  0  0  0  0  0  0  0  0  0  0  0
   33.6780   30.2880   35.1410 N   0  0  0  0  0  0  0  0  0  0  0  0
   31.8750   30.4970   36.3530 H   0  0  0  0  0  0  0  0  0  0  0  0
   32.8270   32.0380   37.9280 H   0  0  0  0  0  0  0  0  0  0  0  0
   35.2250   32.7760   37.6760 H   0  0  0  0  0  0  0  0  0  0  0  0
   37.2670   27.2540   33.9340 C   0  0  0  0  0  0  0  0  0  0  0  0
   36.6840   27.0570   35.0300 O   0  0  0  0  0  0  0  0  0  0  0  0
   36.6730   28.0960   32.9290 N   0  0  0  0  0  0  0  0  0  0  0  0
   37.0010   28.1760   31.9340 H   0  0  0  0  0  0  0  0  0  0  0  0
   38.5990   26.6560   33.5630 C   0  0  0  0  0  3  0  0  0  0  0  0
   39.5880   26.9390   34.6730 C   0  0  0  0  0  2  0  0  0  0  0  0
   40.8810   27.1830   33.9700 C   0  0  0  0  0  2  0  0  0  0  0  0
   40.6320   27.0780   32.4830 C   0  0  0  0  0  2  0  0  0  0  0  0
   39.1370   27.2330   32.2990 C   0  0  0  0  0  2  0  0  0  0  0  0
  1  4  1  1  0  0  0
  1 12  1  0  0  0  0
  2  3  1  0  0  0  0
  2  1  1  0  0  0  0
  3  7  1  1  0  0  0
  3  1  1  0  0  0  0
  5  2  1  0  0  0  0
  6  2  1  0  0  0  0
  8 14  1  0  0  0  0
  8  9  1  0  0  0  0
  9 15  1  0  0  0  0
 10  9  2  0  0  0  0
 10 16  1  0  0  0  0
 11 10  1  0  0  0  0
 12 13  1  0  0  0  0
 12 11  2  0  0  0  0
 13  8  2  0  0  0  0
 17 18  2  0  0  0  0
 19  3  1  0  0  0  0
 19 17  1  0  0  0  0
 20 19  1  0  0  0  0
 21 17  1  0  0  0  0
 21 22  1  0  0  0  0
 23 22  1  0  0  0  0
 24 23  1  0  0  0  0
 25 24  1  0  0  0  0
 25 21  1  0  0  0  0
M  END
>  <minimizedAffinity>
-4.43280363

$$$$

 OpenBabel03272508523D

 25 27  0  0  1  0  0  0  0  0999 V2000
   38.2140   26.2740   34.6170 C   0  0  2  0  0  0  0  0  0  0  0  0
   38.1920   27.4400   35.4920 C   0  0  0  0  0  0  0  0  0  0  0  0
   37.0220   27.1090   34.5480 C   0  0  1  0  0  0  0  0  0  0  0  0
   38.8580   26.3370   33.6760 H   0  0  0  0  0  0  0  0  0  0  0  0
   38.0040   27.3010   36.5900 H   0  0  0  0  0  0  0  0  0  0  0  0
   38.7100   28.3610   35.2420 H   0  0  0  0  0  0  0  0  0  0  0  0
   36.1000   26.9630   35.1300 H   0  0  0  0  0  0  0  0  0  0  0  0
   37.8220   23.4100   36.9320 C   0  0  0  0  0  0  0  0  0  0  0  0
   37.8930   22.3000   36.0480 C   0  0  0  0  0  0  0  0  0  0  0  0
   38.0780   22.5650   34.6490 C   0  0  0  0  0  0  0  0  0  0  0  0
   38.1740   23.8550   34.2450 N   0  0  0  0  0  0  0  0  0  0  0  0
   38.0980   24.8780   35.1390 C   0  0  0  0  0  0  0  0  0  0  0  0
   37.9250   24.6840   36.4620 N   0  0  0  0  0  0  0  0  0  0  0  0
   37.6820   23.1160   37.9620 H   0  0  0  0  0  0  0  0  0  0  0  0
   37.8110   21.2860   36.4140 H   0  0  0  0  0  0  0  0  0  0  0  0
   38.1360   21.7380   33.9550 H   0  0  0  0  0  0  0  0  0  0  0  0
   35.7730   28.8840   33.3640 C   0  0  0  0  0  0  0  0  0  0  0  0
   35.0320   29.0050   34.3710 O   0  0  0  0  0  0  0  0  0  0  0  0
   36.9230   28.0170   33.4010 N   0  0  0  0  0  0  0  0  0  0  0  0
   37.6840   27.9880   32.6760 H   0  0  0  0  0  0  0  0  0  0  0  0
   35.5550   29.6020   32.0580 C   0  0  0  0  0  3  0  0  0  0  0  0
   36.3070   28.8710   30.9670 C   0  0  0  0  0  2  0  0  0  0  0  0
   36.8110   29.9510   30.0700 C   0  0  0  0  0  2  0  0  0  0  0  0
   36.3880   31.2790   30.6530 C   0  0  0  0  0  2  0  0  0  0  0  0
   36.0480   31.0080   32.1040 C   0  0  0  0  0  2  0  0  0  0  0  0
  1  4  1  6  0  0  0
  1 12  1  0  0  0  0
  1  2  1  0  0  0  0
  2  5  1  0  0  0  0
  3  1  1  0  0  0  0
  3  7  1  1  0  0  0
  3  2  1  0  0  0  0
  6  2  1  0  0  0  0
  8 14  1  0  0  0  0
  9 15  1  0  0  0  0
  9  8  2  0  0  0  0
 10  9  1  0  0  0  0
 11 10  2  0  0  0  0
 11 12  1  0  0  0  0
 12 13  2  0  0  0  0
 13  8  1  0  0  0  0
 16 10  1  0  0  0  0
 17 19  1  0  0  0  0
 17 18  2  0  0  0  0
 19  3  1  0  0  0  0
 20 19  1  0  0  0  0
 21 25  1  0  0  0  0
 21 17  1  0  0  0  0
 22 21  1  0  0  0  0
 23 24  1  0  0  0  0
 23 22  1  0  0  0  0
 24 25  1  0  0  0  0
M  END
>  <minimizedAffinity>
-4.38861752

$$$$

 OpenBabel03272508523D

 25 27  0  0  1  0  0  0  0  0999 V2000
   37.2900   27.2510   33.2500 C   0  0  2  0  0  0  0  0  0  0  0  0
   38.1480   27.0740   34.4140 C   0  0  0  0  0  0  0  0  0  0  0  0
   36.7050   27.5960   34.5390 C   0  0  1  0  0  0  0  0  0  0  0  0
   37.4840   28.1630   32.5900 H   0  0  0  0  0  0  0  0  0  0  0  0
   38.3410   26.0380   34.8040 H   0  0  0  0  0  0  0  0  0  0  0  0
   38.9040   27.8030   34.6930 H   0  0  0  0  0  0  0  0  0  0  0  0
   36.1170   26.9220   35.1790 H   0  0  0  0  0  0  0  0  0  0  0  0
   36.7210   23.8140   31.9930 C   0  0  0  0  0  0  0  0  0  0  0  0
   35.6810   24.0110   31.0450 C   0  0  0  0  0  0  0  0  0  0  0  0
   35.1880   25.3470   30.8550 C   0  0  0  0  0  0  0  0  0  0  0  0
   35.7380   26.3460   31.5870 N   0  0  0  0  0  0  0  0  0  0  0  0
   36.7330   26.0960   32.4810 C   0  0  0  0  0  0  0  0  0  0  0  0
   37.2310   24.8620   32.6970 N   0  0  0  0  0  0  0  0  0  0  0  0
   37.0280   22.7810   32.0690 H   0  0  0  0  0  0  0  0  0  0  0  0
   35.2710   23.1840   30.4830 H   0  0  0  0  0  0  0  0  0  0  0  0
   34.3970   25.5240   30.1400 H   0  0  0  0  0  0  0  0  0  0  0  0
   35.4480   29.7210   34.4200 C   0  0  0  0  0  0  0  0  0  0  0  0
   34.4550   29.0850   33.9850 O   0  0  0  0  0  0  0  0  0  0  0  0
   36.6270   29.0230   34.8640 N   0  0  0  0  0  0  0  0  0  0  0  0
   37.4240   29.4570   35.3940 H   0  0  0  0  0  0  0  0  0  0  0  0
   35.5160   31.2220   34.5230 C   0  0  0  0  0  3  0  0  0  0  0  0
   36.1360   31.5930   35.8540 C   0  0  0  0  0  2  0  0  0  0  0  0
   35.4040   32.8200   36.2800 C   0  0  0  0  0  2  0  0  0  0  0  0
   34.3590   33.1290   35.2330 C   0  0  0  0  0  2  0  0  0  0  0  0
   34.1670   31.8500   34.4460 C   0  0  0  0  0  2  0  0  0  0  0  0
  1  4  1  6  0  0  0
  1  2  1  0  0  0  0
  1  3  1  0  0  0  0
  2  3  1  0  0  0  0
  2  6  1  0  0  0  0
  2  5  1  0  0  0  0
  3 19  1  0  0  0  0
  3  7  1  1  0  0  0
  8 14  1  0  0  0  0
  8 13  1  0  0  0  0
  9  8  2  0  0  0  0
 10  9  1  0  0  0  0
 10 11  2  0  0  0  0
 11 12  1  0  0  0  0
 12 13  2  0  0  0  0
 12  1  1  0  0  0  0
 15  9  1  0  0  0  0
 16 10  1  0  0  0  0
 17 21  1  0  0  0  0
 17 19  1  0  0  0  0
 18 17  2  0  0  0  0
 19 20  1  0  0  0  0
 21 22  1  0  0  0  0
 22 23  1  0  0  0  0
 24 23  1  0  0  0  0
 25 21  1  0  0  0  0
 25 24  1  0  0  0  0
M  END
>  <minimizedAffinity>
-4.38808775

$$$$

 OpenBabel03272508523D

 25 27  0  0  1  0  0  0  0  0999 V2000
   39.7630   27.0360   33.5310 C   0  0  2  0  0  0  0  0  0  0  0  0
   41.1330   26.9220   34.0150 C   0  0  0  0  0  0  0  0  0  0  0  0
   40.2090   25.6970   33.8930 C   0  0  1  0  0  0  0  0  0  0  0  0
   38.9840   27.4570   34.2540 H   0  0  0  0  0  0  0  0  0  0  0  0
   41.9820   26.9840   33.2830 H   0  0  0  0  0  0  0  0  0  0  0  0
   41.4080   27.1650   35.0380 H   0  0  0  0  0  0  0  0  0  0  0  0
   40.6530   24.9600   33.2080 H   0  0  0  0  0  0  0  0  0  0  0  0
   40.1100   27.5090   29.8750 C   0  0  0  0  0  0  0  0  0  0  0  0
   38.7970   27.8980   29.4980 C   0  0  0  0  0  0  0  0  0  0  0  0
   37.8000   27.9900   30.5290 C   0  0  0  0  0  0  0  0  0  0  0  0
   38.1630   27.7030   31.8020 N   0  0  0  0  0  0  0  0  0  0  0  0
   39.4380   27.3360   32.1030 C   0  0  0  0  0  0  0  0  0  0  0  0
   40.4110   27.2330   31.1740 N   0  0  0  0  0  0  0  0  0  0  0  0
   40.7910   27.4660   29.0370 H   0  0  0  0  0  0  0  0  0  0  0  0
   38.5510   28.1170   28.4680 H   0  0  0  0  0  0  0  0  0  0  0  0
   36.7930   28.2840   30.2680 H   0  0  0  0  0  0  0  0  0  0  0  0
   39.5110   23.7630   35.2660 C   0  0  0  0  0  0  0  0  0  0  0  0
   39.8910   22.9980   34.3440 O   0  0  0  0  0  0  0  0  0  0  0  0
   39.7520   25.1800   35.1870 N   0  0  0  0  0  0  0  0  0  0  0  0
   39.6260   25.8610   35.9780 H   0  0  0  0  0  0  0  0  0  0  0  0
   38.7910   23.3030   36.5060 C   0  0  0  0  0  3  0  0  0  0  0  0
   37.8640   24.4070   36.9690 C   0  0  0  0  0  2  0  0  0  0  0  0
   37.9190   24.3430   38.4590 C   0  0  0  0  0  2  0  0  0  0  0  0
   38.8860   23.2480   38.8440 C   0  0  0  0  0  2  0  0  0  0  0  0
   39.7340   22.9880   37.6160 C   0  0  0  0  0  2  0  0  0  0  0  0
  1  3  1  0  0  0  0
  1  2  1  0  0  0  0
  1  4  1  1  0  0  0
  2  6  1  0  0  0  0
  3  7  1  6  0  0  0
  3  2  1  0  0  0  0
  3 19  1  0  0  0  0
  5  2  1  0  0  0  0
  8 13  1  0  0  0  0
  9  8  2  0  0  0  0
  9 10  1  0  0  0  0
 10 11  2  0  0  0  0
 11 12  1  0  0  0  0
 12  1  1  0  0  0  0
 13 12  2  0  0  0  0
 14  8  1  0  0  0  0
 15  9  1  0  0  0  0
 16 10  1  0  0  0  0
 17 21  1  0  0  0  0
 18 17  2  0  0  0  0
 19 17  1  0  0  0  0
 19 20  1  0  0  0  0
 21 22  1  0  0  0  0
 21 25  1  0  0  0  0
 22 23  1  0  0  0  0
 23 24  1  0  0  0  0
 25 24  1  0  0  0  0
M  END
>  <minimizedAffinity>
-4.26416016

$$$$
