
 OpenBabel03272509313D

 34 36  0  0  1  0  0  0  0  0999 V2000
   37.1860   31.3920   48.1480 C   0  0  2  0  0  0  0  0  0  0  0  0
   38.0390   32.0960   49.1560 C   0  0  0  0  0  0  0  0  0  0  0  0
   38.4560   31.2020   50.3030 C   0  0  0  0  0  0  0  0  0  0  0  0
   37.2430   30.5790   50.9830 C   0  0  0  0  0  0  0  0  0  0  0  0
   36.1120   30.2490   50.0430 C   0  0  0  0  0  0  0  0  0  0  0  0
   36.7020   30.0710   48.6320 C   0  0  1  0  0  0  0  0  0  0  0  0
   36.2580   31.9600   47.8530 H   0  0  0  0  0  0  0  0  0  0  0  0
   37.3300   32.8460   49.6460 H   0  0  0  0  0  0  0  0  0  0  0  0
   38.8570   32.6880   48.7960 H   0  0  0  0  0  0  0  0  0  0  0  0
   39.2020   30.4450   50.0390 H   0  0  0  0  0  0  0  0  0  0  0  0
   38.9110   31.8780   51.0560 H   0  0  0  0  0  0  0  0  0  0  0  0
   36.9090   31.1430   51.8690 H   0  0  0  0  0  0  0  0  0  0  0  0
   37.6050   29.5940   51.3860 H   0  0  0  0  0  0  0  0  0  0  0  0
   35.5970   29.3120   50.3340 H   0  0  0  0  0  0  0  0  0  0  0  0
   35.3990   31.0790   50.0590 H   0  0  0  0  0  0  0  0  0  0  0  0
   37.5020   29.4040   48.8420 H   0  0  0  0  0  0  0  0  0  0  0  0
   37.9170   31.1970   46.8650 C   0  0  0  0  0  0  0  0  0  0  0  0
   39.3170   31.2730   46.9510 C   0  0  0  0  0  0  0  0  0  0  0  0
   40.0200   31.0910   45.7550 C   0  0  0  0  0  0  0  0  0  0  0  0
   39.3210   30.8520   44.5950 N   0  0  0  0  0  0  0  0  0  0  0  0
   37.9500   30.7870   44.5730 C   0  0  0  0  0  0  0  0  0  0  0  0
   37.2660   30.9620   45.7180 N   0  0  0  0  0  0  0  0  0  0  0  0
   39.9700   31.4430   47.7810 H   0  0  0  0  0  0  0  0  0  0  0  0
   41.0890   31.1210   45.6580 H   0  0  0  0  0  0  0  0  0  0  0  0
   37.4720   30.5960   43.6330 H   0  0  0  0  0  0  0  0  0  0  0  0
   34.5490   29.6830   47.3490 C   0  0  0  0  0  0  0  0  0  0  0  0
   33.8010   30.6560   47.6460 O   0  0  0  0  0  0  0  0  0  0  0  0
   35.8760   29.3580   47.7280 N   0  0  0  0  0  0  0  0  0  0  0  0
   36.1720   28.4680   47.2140 H   0  0  0  0  0  0  0  0  0  0  0  0
   33.6970   28.8640   46.4390 C   0  0  0  0  0  3  0  0  0  0  0  0
   33.2850   27.5690   47.0450 C   0  0  0  0  0  2  0  0  0  0  0  0
   31.7580   27.5830   47.0260 C   0  0  0  0  0  2  0  0  0  0  0  0
   31.4830   28.3970   45.7830 C   0  0  0  0  0  2  0  0  0  0  0  0
   32.4340   29.5800   46.0190 C   0  0  0  0  0  2  0  0  0  0  0  0
  1  7  1  6  0  0  0
  1  6  1  0  0  0  0
  1  2  1  0  0  0  0
  2  8  1  0  0  0  0
  2  3  1  0  0  0  0
  3  4  1  0  0  0  0
  3 11  1  0  0  0  0
  4 13  1  0  0  0  0
  4 12  1  0  0  0  0
  5 15  1  0  0  0  0
  5 14  1  0  0  0  0
  5  4  1  0  0  0  0
  6 16  1  1  0  0  0
  6  5  1  0  0  0  0
  9  2  1  0  0  0  0
 10  3  1  0  0  0  0
 17 18  1  0  0  0  0
 17  1  1  0  0  0  0
 18 23  1  0  0  0  0
 19 18  2  0  0  0  0
 20 19  1  0  0  0  0
 21 20  2  0  0  0  0
 21 22  1  0  0  0  0
 22 17  2  0  0  0  0
 24 19  1  0  0  0  0
 25 21  1  0  0  0  0
 26 27  2  0  0  0  0
 26 28  1  0  0  0  0
 28  6  1  0  0  0  0
 29 28  1  0  0  0  0
 30 31  1  0  0  0  0
 30 26  1  0  0  0  0
 32 31  1  0  0  0  0
 33 34  1  0  0  0  0
 33 32  1  0  0  0  0
 34 30  1  0  0  0  0
M  END
>  <minimizedAffinity>
-5.24697638

>  <minimizedRMSD>
2.19506693

$$$$
