
 OpenBabel03262523413D

 34 36  0  0  1  0  0  0  0  0999 V2000
   36.8110   29.1380   50.7440 C   0  0  0  0  0  0  0  0  0  0  0  0
   36.4740   29.0560   49.3930 C   0  0  0  0  0  0  0  0  0  0  0  0
   35.1850   29.2210   48.9320 C   0  0  0  0  0  0  0  0  0  0  0  0
   34.2800   29.4680   49.9040 N   0  0  0  0  0  0  0  0  0  0  0  0
   34.5440   29.5570   51.2130 C   0  0  0  0  0  0  0  0  0  0  0  0
   35.8180   29.3900   51.6270 N   0  0  0  0  0  0  0  0  0  0  0  0
   34.8790   29.1340   47.5710 N   0  0  0  0  0  0  0  0  0  0  0  0
   34.2040   27.9460   47.1360 C   0  0  0  0  0  0  0  0  0  0  0  0
   33.7100   27.9830   45.7260 C   0  0  0  0  0  0  0  0  0  0  0  0
   33.9300   29.1290   44.9730 N   0  0  0  0  0  0  0  0  0  0  0  0
   35.0480   29.9490   45.2510 C   0  0  0  0  0  0  0  0  0  0  0  0
   35.2520   30.2260   46.7060 C   0  0  2  0  0  0  0  0  0  0  0  0
   37.7980   29.0150   51.1350 H   0  0  0  0  0  0  0  0  0  0  0  0
   37.3350   28.8470   48.7860 H   0  0  0  0  0  0  0  0  0  0  0  0
   33.6760   29.7600   51.8130 H   0  0  0  0  0  0  0  0  0  0  0  0
   33.3920   27.7380   47.8710 H   0  0  0  0  0  0  0  0  0  0  0  0
   34.9300   27.1120   47.2930 H   0  0  0  0  0  0  0  0  0  0  0  0
   34.1240   27.0950   45.1850 H   0  0  0  0  0  0  0  0  0  0  0  0
   32.6100   27.7880   45.7550 H   0  0  0  0  0  0  0  0  0  0  0  0
   33.9190   28.9130   43.9660 H   0  0  0  0  0  0  0  0  0  0  0  0
   34.8840   30.9130   44.6960 H   0  0  0  0  0  0  0  0  0  0  0  0
   35.9440   29.3990   44.8820 H   0  0  0  0  0  0  0  0  0  0  0  0
   34.6090   31.1030   46.9770 H   0  0  0  0  0  0  0  0  0  0  0  0
   36.6800   30.6550   46.8590 C   0  0  0  0  0  0  0  0  0  0  0  0
   36.8100   31.5610   47.4620 H   0  0  0  0  0  0  0  0  0  0  0  0
   37.3200   29.7950   47.1910 H   0  0  0  0  0  0  0  0  0  0  0  0
   37.1720   30.9740   45.4340 C   0  0  0  0  0  0  0  0  0  0  0  0
   37.3120   30.0810   44.8240 H   0  0  0  0  0  0  0  0  0  0  0  0
   36.5300   31.6840   44.9150 H   0  0  0  0  0  0  0  0  0  0  0  0
   38.5560   31.5560   45.6370 C   0  0  0  0  0  0  0  0  0  0  0  0
   38.8620   32.7350   44.7750 C   0  0  0  0  0  0  0  0  0  0  0  0
   40.3760   32.7790   44.7550 C   0  0  0  0  0  0  0  0  0  0  0  0
   40.8550   31.5020   45.4110 C   0  0  0  0  0  0  0  0  0  0  0  0
   39.6420   30.5800   45.2170 C   0  0  0  0  0  0  0  0  0  0  0  0
  1 13  1  0  0  0  0
  1  6  1  0  0  0  0
  2  1  2  0  0  0  0
  3  2  1  0  0  0  0
  3  4  2  0  0  0  0
  4  5  1  0  0  0  0
  5  6  2  0  0  0  0
  5 15  1  0  0  0  0
  7  3  1  0  0  0  0
  8 17  1  0  0  0  0
  8  7  1  0  0  0  0
  8 16  1  0  0  0  0
  9 19  1  0  0  0  0
  9  8  1  0  0  0  0
 10 11  1  0  0  0  0
 10  9  1  0  0  0  0
 11 12  1  0  0  0  0
 12 24  1  0  0  0  0
 12 23  1  1  0  0  0
 12  7  1  0  0  0  0
 14  2  1  0  0  0  0
 18  9  1  0  0  0  0
 20 10  1  0  0  0  0
 21 11  1  0  0  0  0
 22 11  1  0  0  0  0
 24 26  1  0  0  0  0
 24 25  1  0  0  0  0
 27 30  1  0  0  0  0
 27 24  1  0  0  0  0
 28 27  1  0  0  0  0
 29 27  1  0  0  0  0
 31 30  1  0  0  0  0
 32 31  1  0  0  0  0
 32 33  1  0  0  0  0
 34 33  1  0  0  0  0
 34 30  1  0  0  0  0
M  END
>  <minimizedAffinity>
-4.56513643

>  <minimizedRMSD>
5.20937157

$$$$
