
 OpenBabel03272500583D

 31 33  0  0  0  0  0  0  0  0999 V2000
   38.3080   32.0270   47.4120 C   0  0  0  0  0  0  0  0  0  0  0  0
   38.8860   32.9410   48.2440 C   0  0  0  0  0  0  0  0  0  0  0  0
   38.4980   33.0880   49.5710 C   0  0  0  0  0  0  0  0  0  0  0  0
   37.4400   32.2280   50.0650 C   0  0  0  0  0  0  0  0  0  0  0  0
   36.9080   31.3430   49.1850 C   0  0  0  0  0  0  0  0  0  0  0  0
   37.2860   31.2070   47.9050 C   0  0  0  0  0  0  0  0  0  0  0  0
   39.6930   33.6100   47.9060 H   0  0  0  0  0  0  0  0  0  0  0  0
   39.0030   33.8430   50.1900 H   0  0  0  0  0  0  0  0  0  0  0  0
   37.2490   32.4530   51.0960 H   0  0  0  0  0  0  0  0  0  0  0  0
   36.1740   30.8000   49.7610 H   0  0  0  0  0  0  0  0  0  0  0  0
   40.0610   31.2740   45.8800 C   0  0  0  0  0  0  0  0  0  0  0  0
   38.8390   31.9740   46.0650 C   0  0  0  0  0  0  0  0  0  0  0  0
   38.3050   32.5110   44.9220 C   0  0  0  0  0  0  0  0  0  0  0  0
   38.9270   32.3600   43.7390 N   0  0  0  0  0  0  0  0  0  0  0  0
   40.0580   31.7090   43.5830 C   0  0  0  0  0  0  0  0  0  0  0  0
   40.6150   31.1710   44.6550 N   0  0  0  0  0  0  0  0  0  0  0  0
   40.5300   30.8320   46.7270 H   0  0  0  0  0  0  0  0  0  0  0  0
   37.3720   33.0460   45.0650 H   0  0  0  0  0  0  0  0  0  0  0  0
   40.5500   31.5940   42.6250 H   0  0  0  0  0  0  0  0  0  0  0  0
   35.2820   30.0890   47.3870 C   0  0  0  0  0  0  0  0  0  0  0  0
   34.7880   30.7060   48.4130 O   0  0  0  0  0  0  0  0  0  0  0  0
   36.6790   30.3050   47.0690 N   0  0  0  0  0  0  0  0  0  0  0  0
   37.1530   29.8260   46.2990 H   0  0  0  0  0  0  0  0  0  0  0  0
   34.4750   29.2610   46.6520 O   0  0  0  0  0  0  0  0  0  0  0  0
   33.1020   29.4180   46.5080 C   0  0  0  0  0  0  0  0  0  0  0  0
   32.5790   30.4940   45.9580 O   0  0  0  0  0  0  0  0  0  0  0  0
   32.1190   28.3880   46.9370 C   0  0  0  0  0  3  0  0  0  0  0  0
   32.2790   27.1050   46.1450 C   0  0  0  0  0  2  0  0  0  0  0  0
   31.8080   26.0040   47.0720 C   0  0  0  0  0  2  0  0  0  0  0  0
   31.4170   26.7070   48.3710 C   0  0  0  0  0  2  0  0  0  0  0  0
   32.4010   27.8830   48.3280 C   0  0  0  0  0  2  0  0  0  0  0  0
  1  6  2  0  0  0  0
  1  2  1  0  0  0  0
  2  3  2  0  0  0  0
  3  4  1  0  0  0  0
  3  8  1  0  0  0  0
  4  9  1  0  0  0  0
  5 10  1  0  0  0  0
  5  4  2  0  0  0  0
  6  5  1  0  0  0  0
  7  2  1  0  0  0  0
 11 12  1  0  0  0  0
 11 17  1  0  0  0  0
 12  1  1  0  0  0  0
 13 18  1  0  0  0  0
 13 12  2  0  0  0  0
 14 13  1  0  0  0  0
 15 14  2  0  0  0  0
 15 16  1  0  0  0  0
 16 11  2  0  0  0  0
 19 15  1  0  0  0  0
 20 21  2  0  0  0  0
 22 20  1  0  0  0  0
 22  6  1  0  0  0  0
 23 22  1  0  0  0  0
 24 20  1  0  0  0  0
 25 24  1  0  0  0  0
 25 27  1  0  0  0  0
 26 25  2  0  0  0  0
 27 31  1  0  0  0  0
 28 27  1  0  0  0  0
 28 29  1  0  0  0  0
 29 30  1  0  0  0  0
 31 30  1  0  0  0  0
M  END
>  <minimizedAffinity>
-5.76116705

>  <minimizedRMSD>
1.22087359

$$$$
