
 OpenBabel03272509403D

 31 33  0  0  0  0  0  0  0  0999 V2000
   37.0730   30.9570   49.0520 C   0  0  0  0  0  0  0  0  0  0  0  0
   36.7980   31.8970   50.0670 C   0  0  0  0  0  0  0  0  0  0  0  0
   37.3930   33.1420   50.0980 C   0  0  0  0  0  0  0  0  0  0  0  0
   38.3000   33.5090   49.1050 C   0  0  0  0  0  0  0  0  0  0  0  0
   38.5630   32.5800   48.1160 C   0  0  0  0  0  0  0  0  0  0  0  0
   37.9530   31.3370   48.1070 C   0  0  0  0  0  0  0  0  0  0  0  0
   36.1040   31.6310   50.8370 H   0  0  0  0  0  0  0  0  0  0  0  0
   37.1310   33.8090   50.9090 H   0  0  0  0  0  0  0  0  0  0  0  0
   38.7550   34.4870   49.1480 H   0  0  0  0  0  0  0  0  0  0  0  0
   39.2750   32.9390   47.3850 H   0  0  0  0  0  0  0  0  0  0  0  0
   36.4020   29.6820   49.1050 C   0  0  0  0  0  0  0  0  0  0  0  0
   36.9360   28.8240   49.8800 O   0  0  0  0  0  0  0  0  0  0  0  0
   33.6210   30.1670   46.8090 C   0  0  0  0  0  0  0  0  0  0  0  0
   32.9460   28.9420   46.8380 C   0  0  0  0  0  0  0  0  0  0  0  0
   33.4460   27.9480   47.6450 C   0  0  0  0  0  0  0  0  0  0  0  0
   34.5620   28.1760   48.3830 N   0  0  0  0  0  0  0  0  0  0  0  0
   35.1950   29.3420   48.3480 C   0  0  0  0  0  0  0  0  0  0  0  0
   34.7120   30.3300   47.5550 N   0  0  0  0  0  0  0  0  0  0  0  0
   33.2840   30.9970   46.1940 H   0  0  0  0  0  0  0  0  0  0  0  0
   32.0760   28.8890   46.2070 H   0  0  0  0  0  0  0  0  0  0  0  0
   32.9260   27.0160   47.6620 H   0  0  0  0  0  0  0  0  0  0  0  0
   38.3390   30.4970   47.0090 C   0  0  0  0  0  3  0  0  0  0  0  0
   39.0410   30.8460   45.9380 C   0  0  0  0  0  3  0  0  0  0  0  0
   39.4980   30.0880   44.7610 C   0  0  0  0  0  0  0  0  0  0  0  0
   38.6310   29.6520   44.1890 H   0  0  0  0  0  0  0  0  0  0  0  0
   40.0860   29.2210   45.1250 H   0  0  0  0  0  0  0  0  0  0  0  0
   40.3770   30.8480   43.8240 C   0  0  0  0  0  3  0  0  0  0  0  0
   40.5930   29.9430   42.6060 C   0  0  0  0  0  2  0  0  0  0  0  0
   40.5050   30.8460   41.4100 C   0  0  0  0  0  2  0  0  0  0  0  0
   39.6120   31.9740   41.8100 C   0  0  0  0  0  2  0  0  0  0  0  0
   39.7840   32.1180   43.2970 C   0  0  0  0  0  2  0  0  0  0  0  0
  1 11  1  0  0  0  0
  1  2  1  0  0  0  0
  2  3  2  0  0  0  0
  2  7  1  0  0  0  0
  3  8  1  0  0  0  0
  4  9  1  0  0  0  0
  4  3  1  0  0  0  0
  5  4  2  0  0  0  0
  6  5  1  0  0  0  0
  6  1  2  0  0  0  0
 10  5  1  0  0  0  0
 11 12  2  0  0  0  0
 13 14  2  0  0  0  0
 13 18  1  0  0  0  0
 14 15  1  0  0  0  0
 15 21  1  0  0  0  0
 15 16  2  0  0  0  0
 17 16  1  0  0  0  0
 17 11  1  0  0  0  0
 18 17  2  0  0  0  0
 19 13  1  0  0  0  0
 20 14  1  0  0  0  0
 22  6  1  0  0  0  0
 23 22  2  0  0  0  0
 24 26  1  0  0  0  0
 24 23  1  0  0  0  0
 25 24  1  0  0  0  0
 27 24  1  0  0  0  0
 28 27  1  0  0  0  0
 29 30  1  0  0  0  0
 29 28  1  0  0  0  0
 30 31  1  0  0  0  0
 31 27  1  0  0  0  0
M  END
>  <minimizedAffinity>
-6.1149435

>  <minimizedRMSD>
0.672529697

$$$$
