
 OpenBabel03272500583D

 31 33  0  0  0  0  0  0  0  0999 V2000
   38.2440   31.9370   47.4000 C   0  0  0  0  0  0  0  0  0  0  0  0
   38.8230   32.8110   48.2730 C   0  0  0  0  0  0  0  0  0  0  0  0
   38.4190   32.9160   49.5990 C   0  0  0  0  0  0  0  0  0  0  0  0
   37.3420   32.0540   50.0470 C   0  0  0  0  0  0  0  0  0  0  0  0
   36.8100   31.2090   49.1290 C   0  0  0  0  0  0  0  0  0  0  0  0
   37.2040   31.1140   47.8490 C   0  0  0  0  0  0  0  0  0  0  0  0
   39.6430   33.4810   47.9690 H   0  0  0  0  0  0  0  0  0  0  0  0
   38.9250   33.6410   50.2510 H   0  0  0  0  0  0  0  0  0  0  0  0
   37.1400   32.2440   51.0830 H   0  0  0  0  0  0  0  0  0  0  0  0
   36.0610   30.6560   49.6750 H   0  0  0  0  0  0  0  0  0  0  0  0
   40.0260   31.2460   45.8720 C   0  0  0  0  0  0  0  0  0  0  0  0
   38.7930   31.9250   46.0600 C   0  0  0  0  0  0  0  0  0  0  0  0
   38.2670   32.4840   44.9230 C   0  0  0  0  0  0  0  0  0  0  0  0
   38.9060   32.3720   43.7460 N   0  0  0  0  0  0  0  0  0  0  0  0
   40.0470   31.7400   43.5870 C   0  0  0  0  0  0  0  0  0  0  0  0
   40.5970   31.1820   44.6530 N   0  0  0  0  0  0  0  0  0  0  0  0
   40.4900   30.7880   46.7140 H   0  0  0  0  0  0  0  0  0  0  0  0
   37.3240   33.0030   45.0680 H   0  0  0  0  0  0  0  0  0  0  0  0
   40.5520   31.6550   42.6340 H   0  0  0  0  0  0  0  0  0  0  0  0
   35.1850   30.0680   47.2460 C   0  0  0  0  0  0  0  0  0  0  0  0
   34.6790   30.6740   48.2720 O   0  0  0  0  0  0  0  0  0  0  0  0
   36.5970   30.2510   46.9730 N   0  0  0  0  0  0  0  0  0  0  0  0
   37.0800   29.7780   46.2050 H   0  0  0  0  0  0  0  0  0  0  0  0
   34.3770   29.2830   46.4660 O   0  0  0  0  0  0  0  0  0  0  0  0
   32.9910   29.2420   46.5540 C   0  0  0  0  0  0  0  0  0  0  0  0
   32.2260   30.0690   45.8730 O   0  0  0  0  0  0  0  0  0  0  0  0
   32.2620   28.2580   47.3980 C   0  0  0  0  0  3  0  0  0  0  0  0
   30.8640   28.0030   46.8680 C   0  0  0  0  0  2  0  0  0  0  0  0
   30.5300   26.5900   47.2950 C   0  0  0  0  0  2  0  0  0  0  0  0
   31.7680   26.0840   48.0350 C   0  0  0  0  0  2  0  0  0  0  0  0
   32.8500   26.8740   47.2870 C   0  0  0  0  0  2  0  0  0  0  0  0
  1  6  2  0  0  0  0
  1  2  1  0  0  0  0
  2  3  2  0  0  0  0
  3  4  1  0  0  0  0
  3  8  1  0  0  0  0
  4  9  1  0  0  0  0
  5 10  1  0  0  0  0
  5  4  2  0  0  0  0
  6  5  1  0  0  0  0
  7  2  1  0  0  0  0
 11 12  1  0  0  0  0
 11 17  1  0  0  0  0
 12  1  1  0  0  0  0
 13 18  1  0  0  0  0
 13 12  2  0  0  0  0
 14 13  1  0  0  0  0
 15 14  2  0  0  0  0
 15 16  1  0  0  0  0
 16 11  2  0  0  0  0
 19 15  1  0  0  0  0
 20 21  2  0  0  0  0
 22 20  1  0  0  0  0
 22  6  1  0  0  0  0
 23 22  1  0  0  0  0
 24 25  1  0  0  0  0
 24 20  1  0  0  0  0
 25 27  1  0  0  0  0
 26 25  2  0  0  0  0
 28 29  1  0  0  0  0
 28 27  1  0  0  0  0
 29 30  1  0  0  0  0
 31 27  1  0  0  0  0
 31 30  1  0  0  0  0
M  END
>  <minimizedAffinity>
-5.69711828

>  <minimizedRMSD>
1.60038579

$$$$
