
 OpenBabel03262521303D

 27 29  0  0  1  0  0  0  0  0999 V2000
   38.8730   26.1290   34.3800 C   0  0  1  0  0  0  0  0  0  0  0  0
   38.8790   24.6340   34.5270 C   0  0  2  0  0  0  0  0  0  0  0  0
   37.7980   24.1170   33.8460 O   0  0  0  0  0  0  0  0  0  0  0  0
   37.4260   25.0700   32.8930 C   0  0  0  0  0  0  0  0  0  0  0  0
   37.5610   26.3500   33.6850 C   0  0  2  0  0  0  0  0  0  0  0  0
   39.6590   26.4570   33.6440 H   0  0  0  0  0  0  0  0  0  0  0  0
   39.8060   24.2440   34.0510 H   0  0  0  0  0  0  0  0  0  0  0  0
   38.0730   25.0420   32.0040 H   0  0  0  0  0  0  0  0  0  0  0  0
   36.3490   24.8950   32.6600 H   0  0  0  0  0  0  0  0  0  0  0  0
   36.7180   26.3700   34.4100 H   0  0  0  0  0  0  0  0  0  0  0  0
   39.8710   22.8800   37.7260 C   0  0  0  0  0  0  0  0  0  0  0  0
   39.9360   23.3020   36.3680 C   0  0  0  0  0  0  0  0  0  0  0  0
   38.9100   24.1460   35.9220 C   0  0  0  0  0  0  0  0  0  0  0  0
   37.9040   24.5290   36.7870 N   0  0  0  0  0  0  0  0  0  0  0  0
   37.9090   24.0860   38.0670 C   0  0  0  0  0  0  0  0  0  0  0  0
   38.8810   23.2740   38.5250 N   0  0  0  0  0  0  0  0  0  0  0  0
   40.7140   22.2380   37.9390 H   0  0  0  0  0  0  0  0  0  0  0  0
   40.7050   23.0220   35.6700 H   0  0  0  0  0  0  0  0  0  0  0  0
   37.1180   24.3890   38.7390 H   0  0  0  0  0  0  0  0  0  0  0  0
   39.0550   26.8280   35.5250 O   0  0  0  0  0  0  0  0  0  0  0  0
   38.3380   26.6870   36.1870 H   0  0  0  0  0  0  0  0  0  0  0  0
   37.5320   27.4740   32.9020 O   0  0  0  0  0  0  0  0  0  0  0  0
   36.3070   28.1460   32.9720 C   0  0  0  0  0  3  0  0  0  0  0  0
   36.3270   29.3350   32.0650 C   0  0  0  0  0  2  0  0  0  0  0  0
   35.6710   30.4750   32.8510 C   0  0  0  0  0  2  0  0  0  0  0  0
   35.0540   29.8040   34.0590 C   0  0  0  0  0  2  0  0  0  0  0  0
   36.0850   28.7310   34.3490 C   0  0  0  0  0  2  0  0  0  0  0  0
  1  6  1  6  0  0  0
  1  2  1  0  0  0  0
  1 20  1  0  0  0  0
  2  7  1  6  0  0  0
  2 13  1  0  0  0  0
  3  2  1  0  0  0  0
  4  5  1  0  0  0  0
  4  3  1  0  0  0  0
  5  1  1  0  0  0  0
  5 10  1  1  0  0  0
  8  4  1  0  0  0  0
  9  4  1  0  0  0  0
 11 17  1  0  0  0  0
 11 16  1  0  0  0  0
 12 11  2  0  0  0  0
 13 12  1  0  0  0  0
 13 14  2  0  0  0  0
 14 15  1  0  0  0  0
 15 16  2  0  0  0  0
 15 19  1  0  0  0  0
 18 12  1  0  0  0  0
 20 21  1  0  0  0  0
 22 23  1  0  0  0  0
 22  5  1  0  0  0  0
 23 27  1  0  0  0  0
 24 25  1  0  0  0  0
 24 23  1  0  0  0  0
 25 26  1  0  0  0  0
 26 27  1  0  0  0  0
M  END
>  <minimizedAffinity>
-4.73452282

$$$$

 OpenBabel03262521303D

 27 29  0  0  1  0  0  0  0  0999 V2000
   37.6110   23.3890   31.8010 C   0  0  1  0  0  0  0  0  0  0  0  0
   36.4520   22.7130   31.1250 C   0  0  2  0  0  0  0  0  0  0  0  0
   35.3480   23.5350   31.2090 O   0  0  0  0  0  0  0  0  0  0  0  0
   35.8260   24.8340   31.4100 C   0  0  0  0  0  0  0  0  0  0  0  0
   36.9410   24.5910   32.4010 C   0  0  2  0  0  0  0  0  0  0  0  0
   38.3290   23.7990   31.0360 H   0  0  0  0  0  0  0  0  0  0  0  0
   36.7060   22.5830   30.0500 H   0  0  0  0  0  0  0  0  0  0  0  0
   36.1730   25.2980   30.4750 H   0  0  0  0  0  0  0  0  0  0  0  0
   35.0090   25.4070   31.9090 H   0  0  0  0  0  0  0  0  0  0  0  0
   36.4590   24.3410   33.3720 H   0  0  0  0  0  0  0  0  0  0  0  0
   35.9280   18.9770   31.3740 C   0  0  0  0  0  0  0  0  0  0  0  0
   36.2570   20.2360   30.7960 C   0  0  0  0  0  0  0  0  0  0  0  0
   36.1430   21.3580   31.6290 C   0  0  0  0  0  0  0  0  0  0  0  0
   35.7300   21.2090   32.9380 N   0  0  0  0  0  0  0  0  0  0  0  0
   35.4340   19.9780   33.4170 C   0  0  0  0  0  0  0  0  0  0  0  0
   35.5330   18.8800   32.6420 N   0  0  0  0  0  0  0  0  0  0  0  0
   36.0570   18.2020   30.6310 H   0  0  0  0  0  0  0  0  0  0  0  0
   36.5810   20.3850   29.7820 H   0  0  0  0  0  0  0  0  0  0  0  0
   35.1110   19.8670   34.4430 H   0  0  0  0  0  0  0  0  0  0  0  0
   38.3140   22.6180   32.6630 O   0  0  0  0  0  0  0  0  0  0  0  0
   37.7830   22.3100   33.4340 H   0  0  0  0  0  0  0  0  0  0  0  0
   37.7720   25.6690   32.5540 O   0  0  0  0  0  0  0  0  0  0  0  0
   38.2320   25.8110   33.8670 C   0  0  0  0  0  3  0  0  0  0  0  0
   37.2060   26.5190   34.6920 C   0  0  0  0  0  2  0  0  0  0  0  0
   37.9760   27.5280   35.5490 C   0  0  0  0  0  2  0  0  0  0  0  0
   39.4310   27.1480   35.3760 C   0  0  0  0  0  2  0  0  0  0  0  0
   39.4430   26.7160   33.9220 C   0  0  0  0  0  2  0  0  0  0  0  0
  1  6  1  6  0  0  0
  1  5  1  0  0  0  0
  1 20  1  0  0  0  0
  2  7  1  6  0  0  0
  2  3  1  0  0  0  0
  2 13  1  0  0  0  0
  2  1  1  0  0  0  0
  3  4  1  0  0  0  0
  4  9  1  0  0  0  0
  4  5  1  0  0  0  0
  5 22  1  0  0  0  0
  5 10  1  1  0  0  0
  8  4  1  0  0  0  0
 11 16  1  0  0  0  0
 12 11  2  0  0  0  0
 12 13  1  0  0  0  0
 13 14  2  0  0  0  0
 14 15  1  0  0  0  0
 15 19  1  0  0  0  0
 16 15  2  0  0  0  0
 17 11  1  0  0  0  0
 18 12  1  0  0  0  0
 20 21  1  0  0  0  0
 22 23  1  0  0  0  0
 23 27  1  0  0  0  0
 23 24  1  0  0  0  0
 24 25  1  0  0  0  0
 26 25  1  0  0  0  0
 27 26  1  0  0  0  0
M  END
>  <minimizedAffinity>
-4.63820219

$$$$

 OpenBabel03262521303D

 27 29  0  0  1  0  0  0  0  0999 V2000
   36.2360   24.8520   30.7950 C   0  0  1  0  0  0  0  0  0  0  0  0
   37.2180   25.6840   31.5690 C   0  0  2  0  0  0  0  0  0  0  0  0
   37.5910   24.9910   32.7020 O   0  0  0  0  0  0  0  0  0  0  0  0
   37.3380   23.6390   32.4500 C   0  0  0  0  0  0  0  0  0  0  0  0
   36.0040   23.7120   31.7440 C   0  0  2  0  0  0  0  0  0  0  0  0
   36.7310   24.3930   29.8940 H   0  0  0  0  0  0  0  0  0  0  0  0
   38.1230   25.8270   30.9380 H   0  0  0  0  0  0  0  0  0  0  0  0
   38.1270   23.1770   31.8380 H   0  0  0  0  0  0  0  0  0  0  0  0
   37.2030   23.1440   33.4400 H   0  0  0  0  0  0  0  0  0  0  0  0
   35.2470   23.9750   32.5140 H   0  0  0  0  0  0  0  0  0  0  0  0
   36.1030   28.7580   33.4670 C   0  0  0  0  0  0  0  0  0  0  0  0
   36.5670   27.4300   33.2440 C   0  0  0  0  0  0  0  0  0  0  0  0
   36.7480   27.0440   31.9090 C   0  0  0  0  0  0  0  0  0  0  0  0
   36.4800   27.9340   30.8890 N   0  0  0  0  0  0  0  0  0  0  0  0
   36.0410   29.1820   31.1790 C   0  0  0  0  0  0  0  0  0  0  0  0
   35.8570   29.5840   32.4520 N   0  0  0  0  0  0  0  0  0  0  0  0
   36.0070   28.9260   34.5310 H   0  0  0  0  0  0  0  0  0  0  0  0
   36.7850   26.7140   34.0170 H   0  0  0  0  0  0  0  0  0  0  0  0
   35.8330   29.8750   30.3750 H   0  0  0  0  0  0  0  0  0  0  0  0
   35.1240   25.5010   30.3760 O   0  0  0  0  0  0  0  0  0  0  0  0
   34.5650   25.8360   31.1150 H   0  0  0  0  0  0  0  0  0  0  0  0
   35.6570   22.5390   31.1260 O   0  0  0  0  0  0  0  0  0  0  0  0
   36.1020   21.4120   31.8240 C   0  0  0  0  0  3  0  0  0  0  0  0
   36.5100   20.3450   30.8590 C   0  0  0  0  0  2  0  0  0  0  0  0
   35.9530   19.0330   31.4200 C   0  0  0  0  0  2  0  0  0  0  0  0
   35.4990   19.3770   32.8230 C   0  0  0  0  0  2  0  0  0  0  0  0
   34.9760   20.7850   32.6180 C   0  0  0  0  0  2  0  0  0  0  0  0
  1  6  1  6  0  0  0
  1  2  1  0  0  0  0
  1  5  1  0  0  0  0
  2  7  1  6  0  0  0
  2 13  1  0  0  0  0
  2  3  1  0  0  0  0
  4  3  1  0  0  0  0
  4  9  1  0  0  0  0
  5  4  1  0  0  0  0
  5 10  1  1  0  0  0
  8  4  1  0  0  0  0
 11 17  1  0  0  0  0
 12 11  1  0  0  0  0
 12 18  1  0  0  0  0
 13 12  2  0  0  0  0
 14 15  2  0  0  0  0
 14 13  1  0  0  0  0
 15 16  1  0  0  0  0
 16 11  2  0  0  0  0
 19 15  1  0  0  0  0
 20  1  1  0  0  0  0
 20 21  1  0  0  0  0
 22  5  1  0  0  0  0
 22 23  1  0  0  0  0
 23 27  1  0  0  0  0
 24 25  1  0  0  0  0
 24 23  1  0  0  0  0
 25 26  1  0  0  0  0
 27 26  1  0  0  0  0
M  END
>  <minimizedAffinity>
-4.58078241

$$$$

 OpenBabel03262521303D

 27 29  0  0  1  0  0  0  0  0999 V2000
   37.0030   27.7020   33.8880 C   0  0  1  0  0  0  0  0  0  0  0  0
   36.9700   27.4260   32.4120 C   0  0  2  0  0  0  0  0  0  0  0  0
   36.1450   28.3510   31.8060 O   0  0  0  0  0  0  0  0  0  0  0  0
   36.0750   29.4520   32.6640 C   0  0  0  0  0  0  0  0  0  0  0  0
   35.9600   28.7750   34.0100 C   0  0  2  0  0  0  0  0  0  0  0  0
   37.9730   28.1940   34.1760 H   0  0  0  0  0  0  0  0  0  0  0  0
   37.9980   27.5650   32.0110 H   0  0  0  0  0  0  0  0  0  0  0  0
   36.9600   30.1010   32.5800 H   0  0  0  0  0  0  0  0  0  0  0  0
   35.1190   29.9810   32.4370 H   0  0  0  0  0  0  0  0  0  0  0  0
   34.9380   28.3400   34.0650 H   0  0  0  0  0  0  0  0  0  0  0  0
   35.1340   24.4410   30.9930 C   0  0  0  0  0  0  0  0  0  0  0  0
   35.4280   25.8030   31.2860 C   0  0  0  0  0  0  0  0  0  0  0  0
   36.5810   26.0480   32.0450 C   0  0  0  0  0  0  0  0  0  0  0  0
   37.3680   24.9960   32.4670 N   0  0  0  0  0  0  0  0  0  0  0  0
   37.0240   23.7250   32.1490 C   0  0  0  0  0  0  0  0  0  0  0  0
   35.9220   23.4560   31.4210 N   0  0  0  0  0  0  0  0  0  0  0  0
   34.2270   24.3920   30.4070 H   0  0  0  0  0  0  0  0  0  0  0  0
   34.8360   26.6440   30.9720 H   0  0  0  0  0  0  0  0  0  0  0  0
   37.6450   22.9040   32.4830 H   0  0  0  0  0  0  0  0  0  0  0  0
   36.8290   26.6220   34.6860 O   0  0  0  0  0  0  0  0  0  0  0  0
   35.9470   26.1960   34.5810 H   0  0  0  0  0  0  0  0  0  0  0  0
   36.1650   29.6280   35.0630 O   0  0  0  0  0  0  0  0  0  0  0  0
   35.3670   30.7740   34.9880 C   0  0  0  0  0  3  0  0  0  0  0  0
   35.8110   31.7700   36.0110 C   0  0  0  0  0  2  0  0  0  0  0  0
   34.5300   32.3350   36.6330 C   0  0  0  0  0  2  0  0  0  0  0  0
   33.4160   31.8410   35.7360 C   0  0  0  0  0  2  0  0  0  0  0  0
   33.9350   30.4640   35.3660 C   0  0  0  0  0  2  0  0  0  0  0  0
  1  5  1  0  0  0  0
  1  6  1  1  0  0  0
  1 20  1  0  0  0  0
  2  7  1  6  0  0  0
  2  1  1  0  0  0  0
  3  2  1  0  0  0  0
  3  4  1  0  0  0  0
  4  5  1  0  0  0  0
  5 10  1  1  0  0  0
  5 22  1  0  0  0  0
  8  4  1  0  0  0  0
  9  4  1  0  0  0  0
 11 12  2  0  0  0  0
 11 16  1  0  0  0  0
 12 13  1  0  0  0  0
 13  2  1  0  0  0  0
 13 14  2  0  0  0  0
 15 14  1  0  0  0  0
 15 19  1  0  0  0  0
 16 15  2  0  0  0  0
 17 11  1  0  0  0  0
 18 12  1  0  0  0  0
 21 20  1  0  0  0  0
 23 22  1  0  0  0  0
 23 27  1  0  0  0  0
 23 24  1  0  0  0  0
 24 25  1  0  0  0  0
 26 25  1  0  0  0  0
 27 26  1  0  0  0  0
M  END
>  <minimizedAffinity>
-4.47987509

$$$$

 OpenBabel03262521303D

 27 29  0  0  1  0  0  0  0  0999 V2000
   37.6360   24.7900   31.4050 C   0  0  1  0  0  0  0  0  0  0  0  0
   38.0810   26.0540   32.0830 C   0  0  2  0  0  0  0  0  0  0  0  0
   38.0210   25.8700   33.4490 O   0  0  0  0  0  0  0  0  0  0  0  0
   38.0730   24.4910   33.6730 C   0  0  0  0  0  0  0  0  0  0  0  0
   37.1700   23.9760   32.5770 C   0  0  2  0  0  0  0  0  0  0  0  0
   38.5220   24.2330   30.9890 H   0  0  0  0  0  0  0  0  0  0  0  0
   39.1420   26.2410   31.8070 H   0  0  0  0  0  0  0  0  0  0  0  0
   39.0990   24.0990   33.6080 H   0  0  0  0  0  0  0  0  0  0  0  0
   37.5930   24.3040   34.6630 H   0  0  0  0  0  0  0  0  0  0  0  0
   36.1290   24.2430   32.8660 H   0  0  0  0  0  0  0  0  0  0  0  0
   35.7780   29.0520   32.0710 C   0  0  0  0  0  0  0  0  0  0  0  0
   36.4460   27.8940   32.5580 C   0  0  0  0  0  0  0  0  0  0  0  0
   37.3420   27.2700   31.6790 C   0  0  0  0  0  0  0  0  0  0  0  0
   37.5410   27.7830   30.4130 N   0  0  0  0  0  0  0  0  0  0  0  0
   36.8680   28.8910   30.0200 C   0  0  0  0  0  0  0  0  0  0  0  0
   36.0000   29.5130   30.8410 N   0  0  0  0  0  0  0  0  0  0  0  0
   35.1210   29.4330   32.8410 H   0  0  0  0  0  0  0  0  0  0  0  0
   36.3130   27.4700   33.5370 H   0  0  0  0  0  0  0  0  0  0  0  0
   37.0280   29.2880   29.0270 H   0  0  0  0  0  0  0  0  0  0  0  0
   36.7360   24.9500   30.4070 O   0  0  0  0  0  0  0  0  0  0  0  0
   35.8780   25.3270   30.7110 H   0  0  0  0  0  0  0  0  0  0  0  0
   37.2700   22.6230   32.3860 O   0  0  0  0  0  0  0  0  0  0  0  0
   36.0530   21.9620   32.5760 C   0  0  0  0  0  3  0  0  0  0  0  0
   36.1930   20.9380   33.6570 C   0  0  0  0  0  2  0  0  0  0  0  0
   35.4590   19.6910   33.1540 C   0  0  0  0  0  2  0  0  0  0  0  0
   34.6940   20.1600   31.9350 C   0  0  0  0  0  2  0  0  0  0  0  0
   35.6730   21.1600   31.3510 C   0  0  0  0  0  2  0  0  0  0  0  0
  1  6  1  6  0  0  0
  1  2  1  0  0  0  0
  1  5  1  0  0  0  0
  2  7  1  6  0  0  0
  2  3  1  0  0  0  0
  3  4  1  0  0  0  0
  4  9  1  0  0  0  0
  5 10  1  1  0  0  0
  5  4  1  0  0  0  0
  8  4  1  0  0  0  0
 11 12  1  0  0  0  0
 11 17  1  0  0  0  0
 12 18  1  0  0  0  0
 13  2  1  0  0  0  0
 13 12  2  0  0  0  0
 14 13  1  0  0  0  0
 15 14  2  0  0  0  0
 15 16  1  0  0  0  0
 16 11  2  0  0  0  0
 19 15  1  0  0  0  0
 20 21  1  0  0  0  0
 20  1  1  0  0  0  0
 22 23  1  0  0  0  0
 22  5  1  0  0  0  0
 23 24  1  0  0  0  0
 25 24  1  0  0  0  0
 26 25  1  0  0  0  0
 27 26  1  0  0  0  0
 27 23  1  0  0  0  0
M  END
>  <minimizedAffinity>
-4.4642868

$$$$

 OpenBabel03262521303D

 27 29  0  0  1  0  0  0  0  0999 V2000
   38.6590   25.5120   33.2270 C   0  0  1  0  0  0  0  0  0  0  0  0
   38.6370   27.0140   33.2240 C   0  0  2  0  0  0  0  0  0  0  0  0
   37.9510   27.4510   34.3380 O   0  0  0  0  0  0  0  0  0  0  0  0
   37.9900   26.4090   35.2700 C   0  0  0  0  0  0  0  0  0  0  0  0
   37.7530   25.2080   34.3850 C   0  0  2  0  0  0  0  0  0  0  0  0
   39.6730   25.1330   33.5340 H   0  0  0  0  0  0  0  0  0  0  0  0
   39.6860   27.3760   33.3010 H   0  0  0  0  0  0  0  0  0  0  0  0
   38.9500   26.3680   35.8060 H   0  0  0  0  0  0  0  0  0  0  0  0
   37.1140   26.5450   35.9470 H   0  0  0  0  0  0  0  0  0  0  0  0
   36.6840   25.2390   34.0800 H   0  0  0  0  0  0  0  0  0  0  0  0
   36.3840   28.7670   30.7460 C   0  0  0  0  0  0  0  0  0  0  0  0
   36.8200   28.2140   31.9830 C   0  0  0  0  0  0  0  0  0  0  0  0
   38.0930   27.6260   31.9930 C   0  0  0  0  0  0  0  0  0  0  0  0
   38.8550   27.6050   30.8420 N   0  0  0  0  0  0  0  0  0  0  0  0
   38.3720   28.1530   29.7020 C   0  0  0  0  0  0  0  0  0  0  0  0
   37.1530   28.7250   29.6590 N   0  0  0  0  0  0  0  0  0  0  0  0
   35.3950   29.1850   30.8740 H   0  0  0  0  0  0  0  0  0  0  0  0
   36.2510   28.2140   32.8950 H   0  0  0  0  0  0  0  0  0  0  0  0
   38.9730   28.1330   28.8030 H   0  0  0  0  0  0  0  0  0  0  0  0
   38.3300   24.9230   32.0540 O   0  0  0  0  0  0  0  0  0  0  0  0
   37.4050   25.1100   31.7680 H   0  0  0  0  0  0  0  0  0  0  0  0
   38.0290   24.0170   35.0050 O   0  0  0  0  0  0  0  0  0  0  0  0
   38.6240   24.1900   36.2590 C   0  0  0  0  0  3  0  0  0  0  0  0
   39.9270   23.4600   36.3080 C   0  0  0  0  0  2  0  0  0  0  0  0
   39.9730   22.7700   37.6750 C   0  0  0  0  0  2  0  0  0  0  0  0
   38.8210   23.3740   38.4490 C   0  0  0  0  0  2  0  0  0  0  0  0
   37.7940   23.5440   37.3470 C   0  0  0  0  0  2  0  0  0  0  0  0
  1  6  1  1  0  0  0
  1  5  1  0  0  0  0
  2  1  1  0  0  0  0
  2  7  1  1  0  0  0
  2  3  1  0  0  0  0
  3  4  1  0  0  0  0
  4  8  1  0  0  0  0
  4  9  1  0  0  0  0
  5 10  1  6  0  0  0
  5 22  1  0  0  0  0
  5  4  1  0  0  0  0
 11 17  1  0  0  0  0
 11 12  1  0  0  0  0
 12 13  2  0  0  0  0
 12 18  1  0  0  0  0
 13  2  1  0  0  0  0
 14 13  1  0  0  0  0
 15 14  2  0  0  0  0
 16 15  1  0  0  0  0
 16 11  2  0  0  0  0
 19 15  1  0  0  0  0
 20  1  1  0  0  0  0
 21 20  1  0  0  0  0
 22 23  1  0  0  0  0
 23 24  1  0  0  0  0
 23 27  1  0  0  0  0
 24 25  1  0  0  0  0
 25 26  1  0  0  0  0
 27 26  1  0  0  0  0
M  END
>  <minimizedAffinity>
-4.46377325

$$$$

 OpenBabel03262521303D

 27 29  0  0  1  0  0  0  0  0999 V2000
   37.0260   27.1120   30.9700 C   0  0  1  0  0  0  0  0  0  0  0  0
   36.9190   28.0670   32.1240 C   0  0  2  0  0  0  0  0  0  0  0  0
   36.6940   27.3460   33.2780 O   0  0  0  0  0  0  0  0  0  0  0  0
   37.1500   26.0460   33.0370 C   0  0  0  0  0  0  0  0  0  0  0  0
   36.6570   25.8140   31.6270 C   0  0  2  0  0  0  0  0  0  0  0  0
   38.1000   26.9920   30.6550 H   0  0  0  0  0  0  0  0  0  0  0  0
   37.8940   28.5920   32.2300 H   0  0  0  0  0  0  0  0  0  0  0  0
   38.2430   25.9660   33.1310 H   0  0  0  0  0  0  0  0  0  0  0  0
   36.5970   25.3730   33.7340 H   0  0  0  0  0  0  0  0  0  0  0  0
   35.5530   25.6910   31.6880 H   0  0  0  0  0  0  0  0  0  0  0  0
   33.7760   30.1480   32.4120 C   0  0  0  0  0  0  0  0  0  0  0  0
   34.6870   29.0800   32.6460 C   0  0  0  0  0  0  0  0  0  0  0  0
   35.9070   29.1320   31.9590 C   0  0  0  0  0  0  0  0  0  0  0  0
   36.1760   30.1840   31.1060 N   0  0  0  0  0  0  0  0  0  0  0  0
   35.2590   31.1650   30.9330 C   0  0  0  0  0  0  0  0  0  0  0  0
   34.0770   31.1440   31.5800 N   0  0  0  0  0  0  0  0  0  0  0  0
   32.8820   29.9870   32.9990 H   0  0  0  0  0  0  0  0  0  0  0  0
   34.5070   28.2470   33.3030 H   0  0  0  0  0  0  0  0  0  0  0  0
   35.4750   31.9870   30.2640 H   0  0  0  0  0  0  0  0  0  0  0  0
   36.3030   27.4400   29.8730 O   0  0  0  0  0  0  0  0  0  0  0  0
   35.3310   27.4520   30.0350 H   0  0  0  0  0  0  0  0  0  0  0  0
   37.2190   24.7140   31.0340 O   0  0  0  0  0  0  0  0  0  0  0  0
   36.9080   23.5250   31.7020 C   0  0  0  0  0  3  0  0  0  0  0  0
   37.6820   22.3920   31.1100 C   0  0  0  0  0  2  0  0  0  0  0  0
   36.6990   21.2220   31.0010 C   0  0  0  0  0  2  0  0  0  0  0  0
   35.4900   21.6590   31.7990 C   0  0  0  0  0  2  0  0  0  0  0  0
   35.4610   23.1420   31.4840 C   0  0  0  0  0  2  0  0  0  0  0  0
  1  6  1  6  0  0  0
  1  5  1  0  0  0  0
  1  2  1  0  0  0  0
  2  7  1  1  0  0  0
  2  3  1  0  0  0  0
  4  8  1  0  0  0  0
  4  3  1  0  0  0  0
  4  9  1  0  0  0  0
  5 10  1  1  0  0  0
  5  4  1  0  0  0  0
 11 12  1  0  0  0  0
 11 17  1  0  0  0  0
 12 18  1  0  0  0  0
 13  2  1  0  0  0  0
 13 12  2  0  0  0  0
 14 13  1  0  0  0  0
 15 14  2  0  0  0  0
 15 16  1  0  0  0  0
 16 11  2  0  0  0  0
 19 15  1  0  0  0  0
 20 21  1  0  0  0  0
 20  1  1  0  0  0  0
 22  5  1  0  0  0  0
 22 23  1  0  0  0  0
 24 23  1  0  0  0  0
 25 24  1  0  0  0  0
 25 26  1  0  0  0  0
 27 23  1  0  0  0  0
 27 26  1  0  0  0  0
M  END
>  <minimizedAffinity>
-4.34974432

$$$$

 OpenBabel03262521303D

 27 29  0  0  1  0  0  0  0  0999 V2000
   37.8760   25.6820   33.7190 C   0  0  1  0  0  0  0  0  0  0  0  0
   38.0570   27.1630   33.8900 C   0  0  2  0  0  0  0  0  0  0  0  0
   38.1310   27.4490   35.2370 O   0  0  0  0  0  0  0  0  0  0  0  0
   38.5180   26.2680   35.8800 C   0  0  0  0  0  0  0  0  0  0  0  0
   37.6890   25.2420   35.1420 C   0  0  2  0  0  0  0  0  0  0  0  0
   38.8370   25.2030   33.3830 H   0  0  0  0  0  0  0  0  0  0  0  0
   39.0260   27.4490   33.4230 H   0  0  0  0  0  0  0  0  0  0  0  0
   39.6010   26.0880   35.8000 H   0  0  0  0  0  0  0  0  0  0  0  0
   38.1610   26.3400   36.9340 H   0  0  0  0  0  0  0  0  0  0  0  0
   36.6370   25.3820   35.4730 H   0  0  0  0  0  0  0  0  0  0  0  0
   35.0890   29.4120   33.2410 C   0  0  0  0  0  0  0  0  0  0  0  0
   36.0350   28.6410   33.9730 C   0  0  0  0  0  0  0  0  0  0  0  0
   37.0320   27.9960   33.2270 C   0  0  0  0  0  0  0  0  0  0  0  0
   37.0620   28.1270   31.8530 N   0  0  0  0  0  0  0  0  0  0  0  0
   36.1260   28.8790   31.2250 C   0  0  0  0  0  0  0  0  0  0  0  0
   35.1560   29.5110   31.9140 N   0  0  0  0  0  0  0  0  0  0  0  0
   34.3810   29.8520   33.9290 H   0  0  0  0  0  0  0  0  0  0  0  0
   36.0380   28.5190   35.0410 H   0  0  0  0  0  0  0  0  0  0  0  0
   36.1550   28.9780   30.1490 H   0  0  0  0  0  0  0  0  0  0  0  0
   36.9000   25.3100   32.8580 O   0  0  0  0  0  0  0  0  0  0  0  0
   35.9990   25.5920   33.1420 H   0  0  0  0  0  0  0  0  0  0  0  0
   38.0890   23.9540   35.3800 O   0  0  0  0  0  0  0  0  0  0  0  0
   39.2650   23.8870   36.1350 C   0  0  0  0  0  3  0  0  0  0  0  0
   40.3220   23.1620   35.3660 C   0  0  0  0  0  2  0  0  0  0  0  0
   41.0060   22.2260   36.3680 C   0  0  0  0  0  2  0  0  0  0  0  0
   40.4940   22.6710   37.7210 C   0  0  0  0  0  2  0  0  0  0  0  0
   39.0650   23.0460   37.3770 C   0  0  0  0  0  2  0  0  0  0  0  0
  1  6  1  6  0  0  0
  1  2  1  0  0  0  0
  1  5  1  0  0  0  0
  2  7  1  6  0  0  0
  2  3  1  0  0  0  0
  3  4  1  0  0  0  0
  4  9  1  0  0  0  0
  5 22  1  0  0  0  0
  5 10  1  1  0  0  0
  5  4  1  0  0  0  0
  8  4  1  0  0  0  0
 11 17  1  0  0  0  0
 11 12  1  0  0  0  0
 12 18  1  0  0  0  0
 13  2  1  0  0  0  0
 13 12  2  0  0  0  0
 14 13  1  0  0  0  0
 15 14  2  0  0  0  0
 15 16  1  0  0  0  0
 16 11  2  0  0  0  0
 19 15  1  0  0  0  0
 20 21  1  0  0  0  0
 20  1  1  0  0  0  0
 22 23  1  0  0  0  0
 23 27  1  0  0  0  0
 24 23  1  0  0  0  0
 24 25  1  0  0  0  0
 25 26  1  0  0  0  0
 27 26  1  0  0  0  0
M  END
>  <minimizedAffinity>
-4.30731392

$$$$

 OpenBabel03262521303D

 27 29  0  0  1  0  0  0  0  0999 V2000
   39.6000   24.8580   33.8600 C   0  0  1  0  0  0  0  0  0  0  0  0
   38.9980   23.5820   34.3740 C   0  0  2  0  0  0  0  0  0  0  0  0
   37.7380   23.4370   33.8340 O   0  0  0  0  0  0  0  0  0  0  0  0
   37.7050   24.2130   32.6710 C   0  0  0  0  0  0  0  0  0  0  0  0
   38.4380   25.4550   33.1210 C   0  0  2  0  0  0  0  0  0  0  0  0
   40.3750   24.6410   33.0730 H   0  0  0  0  0  0  0  0  0  0  0  0
   39.6260   22.7350   34.0180 H   0  0  0  0  0  0  0  0  0  0  0  0
   38.1890   23.7080   31.8220 H   0  0  0  0  0  0  0  0  0  0  0  0
   36.6350   24.4670   32.4800 H   0  0  0  0  0  0  0  0  0  0  0  0
   37.7570   25.9990   33.8120 H   0  0  0  0  0  0  0  0  0  0  0  0
   37.9080   23.7330   37.9910 C   0  0  0  0  0  0  0  0  0  0  0  0
   37.8420   23.8840   36.5770 C   0  0  0  0  0  0  0  0  0  0  0  0
   38.9610   23.4610   35.8470 C   0  0  0  0  0  0  0  0  0  0  0  0
   40.0540   22.9280   36.5020 N   0  0  0  0  0  0  0  0  0  0  0  0
   40.0440   22.8160   37.8520 C   0  0  0  0  0  0  0  0  0  0  0  0
   38.9830   23.2140   38.5820 N   0  0  0  0  0  0  0  0  0  0  0  0
   36.9890   24.0940   38.4300 H   0  0  0  0  0  0  0  0  0  0  0  0
   37.0070   24.2940   36.0380 H   0  0  0  0  0  0  0  0  0  0  0  0
   40.9020   22.3980   38.3600 H   0  0  0  0  0  0  0  0  0  0  0  0
   40.1700   25.6530   34.7970 O   0  0  0  0  0  0  0  0  0  0  0  0
   39.5290   25.9880   35.4670 H   0  0  0  0  0  0  0  0  0  0  0  0
   38.8030   26.2720   32.0830 O   0  0  0  0  0  0  0  0  0  0  0  0
   38.2250   27.5420   32.1710 C   0  0  0  0  0  3  0  0  0  0  0  0
   37.3590   27.6250   33.3860 C   0  0  0  0  0  2  0  0  0  0  0  0
   36.0840   28.3530   32.9470 C   0  0  0  0  0  2  0  0  0  0  0  0
   36.4080   28.9010   31.5740 C   0  0  0  0  0  2  0  0  0  0  0  0
   37.2760   27.7880   31.0180 C   0  0  0  0  0  2  0  0  0  0  0  0
  1  6  1  6  0  0  0
  1  2  1  0  0  0  0
  1 20  1  0  0  0  0
  2  7  1  6  0  0  0
  2 13  1  0  0  0  0
  3  2  1  0  0  0  0
  4  5  1  0  0  0  0
  4  3  1  0  0  0  0
  5 10  1  1  0  0  0
  5  1  1  0  0  0  0
  8  4  1  0  0  0  0
  9  4  1  0  0  0  0
 11 17  1  0  0  0  0
 11 16  1  0  0  0  0
 12 11  2  0  0  0  0
 13 14  2  0  0  0  0
 13 12  1  0  0  0  0
 14 15  1  0  0  0  0
 15 19  1  0  0  0  0
 15 16  2  0  0  0  0
 18 12  1  0  0  0  0
 20 21  1  0  0  0  0
 22 23  1  0  0  0  0
 22  5  1  0  0  0  0
 23 24  1  0  0  0  0
 25 24  1  0  0  0  0
 26 25  1  0  0  0  0
 27 26  1  0  0  0  0
 27 23  1  0  0  0  0
M  END
>  <minimizedAffinity>
-4.27428675

$$$$
