
 OpenBabel03272503053D

 28 30  0  0  0  0  0  0  0  0999 V2000
   38.5310   30.4250   47.3220 F   0  0  0  0  0  0  0  0  0  0  0  0
   38.7780   31.6680   47.8110 C   0  0  0  0  0  0  0  0  0  0  0  0
   38.1700   32.0900   48.9580 C   0  0  0  0  0  0  0  0  0  0  0  0
   38.4630   33.3530   49.3950 C   0  0  0  0  0  0  0  0  0  0  0  0
   39.3260   34.1790   48.7290 C   0  0  0  0  0  0  0  0  0  0  0  0
   39.9330   33.7330   47.5670 C   0  0  0  0  0  0  0  0  0  0  0  0
   39.6520   32.4620   47.1090 C   0  0  0  0  0  0  0  0  0  0  0  0
   37.9830   33.6930   50.3050 H   0  0  0  0  0  0  0  0  0  0  0  0
   39.5510   35.1780   49.0840 H   0  0  0  0  0  0  0  0  0  0  0  0
   40.6330   34.3450   46.9870 H   0  0  0  0  0  0  0  0  0  0  0  0
   36.7000   29.5760   51.3890 C   0  0  0  0  0  0  0  0  0  0  0  0
   37.6010   30.4640   50.7720 C   0  0  0  0  0  0  0  0  0  0  0  0
   37.2530   31.1530   49.6280 C   0  0  0  0  0  0  0  0  0  0  0  0
   36.0080   30.9300   49.1350 N   0  0  0  0  0  0  0  0  0  0  0  0
   35.1510   30.0750   49.7360 C   0  0  0  0  0  0  0  0  0  0  0  0
   35.4870   29.4160   50.8330 N   0  0  0  0  0  0  0  0  0  0  0  0
   37.0540   29.0770   52.2820 H   0  0  0  0  0  0  0  0  0  0  0  0
   38.5870   30.6270   51.1820 H   0  0  0  0  0  0  0  0  0  0  0  0
   34.1800   29.9790   49.2470 H   0  0  0  0  0  0  0  0  0  0  0  0
   39.5090   32.2300   44.7180 C   0  0  0  0  0  0  0  0  0  0  0  0
   38.4120   32.8430   44.9050 O   0  0  0  0  0  0  0  0  0  0  0  0
   40.2630   31.9650   45.9060 N   0  0  0  0  0  0  0  0  0  0  0  0
   41.1610   31.4590   45.8540 H   0  0  0  0  0  0  0  0  0  0  0  0
   40.1010   31.7580   43.4390 C   0  0  0  0  0  3  0  0  0  0  0  0
   39.3470   32.2410   42.2430 C   0  0  0  0  0  2  0  0  0  0  0  0
   38.8850   30.9950   41.4900 C   0  0  0  0  0  2  0  0  0  0  0  0
   39.8340   29.9080   41.9590 C   0  0  0  0  0  2  0  0  0  0  0  0
   39.9850   30.2590   43.4180 C   0  0  0  0  0  2  0  0  0  0  0  0
  1  2  1  0  0  0  0
  2  3  1  0  0  0  0
  3  4  2  0  0  0  0
  3 13  1  0  0  0  0
  4  8  1  0  0  0  0
  5  9  1  0  0  0  0
  5  4  1  0  0  0  0
  6  5  2  0  0  0  0
  7  6  1  0  0  0  0
  7  2  2  0  0  0  0
 10  6  1  0  0  0  0
 11 17  1  0  0  0  0
 12 18  1  0  0  0  0
 12 11  2  0  0  0  0
 13 12  1  0  0  0  0
 14 13  2  0  0  0  0
 14 15  1  0  0  0  0
 15 16  2  0  0  0  0
 16 11  1  0  0  0  0
 19 15  1  0  0  0  0
 20 21  2  0  0  0  0
 20 22  1  0  0  0  0
 22  7  1  0  0  0  0
 23 22  1  0  0  0  0
 24 20  1  0  0  0  0
 25 24  1  0  0  0  0
 26 27  1  0  0  0  0
 26 25  1  0  0  0  0
 27 28  1  0  0  0  0
 28 24  1  0  0  0  0
M  END
>  <minimizedAffinity>
-6.39070988

>  <minimizedRMSD>
1.07328188

$$$$
