
 OpenBabel03272500233D

 33 35  0  0  0  0  0  0  0  0999 V2000
   38.2080   25.6510   36.3030 C   0  0  0  0  0  0  0  0  0  0  0  0
   38.1600   24.2260   36.1940 C   0  0  0  0  0  0  0  0  0  0  0  0
   38.0450   23.6550   34.9280 C   0  0  0  0  0  0  0  0  0  0  0  0
   37.9870   24.5170   33.8650 N   0  0  0  0  0  0  0  0  0  0  0  0
   38.0320   25.8170   33.9740 C   0  0  0  0  0  0  0  0  0  0  0  0
   38.1410   26.4060   35.1760 N   0  0  0  0  0  0  0  0  0  0  0  0
   38.2960   26.0980   37.2850 H   0  0  0  0  0  0  0  0  0  0  0  0
   36.3240   28.3100   34.1710 Cl  0  0  0  0  0  0  0  0  0  0  0  0
   37.2060   27.8200   32.7390 C   0  0  0  0  0  0  0  0  0  0  0  0
   37.9610   26.6530   32.7600 C   0  0  0  0  0  0  0  0  0  0  0  0
   38.6860   26.2160   31.6410 C   0  0  0  0  0  0  0  0  0  0  0  0
   38.6030   27.0280   30.5010 C   0  0  0  0  0  0  0  0  0  0  0  0
   37.8650   28.1760   30.4630 C   0  0  0  0  0  0  0  0  0  0  0  0
   37.8480   29.0950   28.9810 Cl  0  0  0  0  0  0  0  0  0  0  0  0
   37.1630   28.5680   31.6020 C   0  0  0  0  0  0  0  0  0  0  0  0
   39.2720   25.3050   31.6670 H   0  0  0  0  0  0  0  0  0  0  0  0
   39.1680   26.6770   29.6410 H   0  0  0  0  0  0  0  0  0  0  0  0
   36.3590   29.8150   31.5680 C   0  0  0  0  0  0  0  0  0  0  0  0
   37.1220   30.8810   31.0720 F   0  0  0  0  0  0  0  0  0  0  0  0
   35.8420   30.1400   32.7850 F   0  0  0  0  0  0  0  0  0  0  0  0
   35.3110   29.6610   30.6850 F   0  0  0  0  0  0  0  0  0  0  0  0
   38.2390   23.4390   37.4540 C   0  0  0  0  0  0  0  0  0  0  0  0
   39.3760   22.6480   37.4760 F   0  0  0  0  0  0  0  0  0  0  0  0
   38.3600   24.3370   38.5020 F   0  0  0  0  0  0  0  0  0  0  0  0
   37.1380   22.6660   37.6980 F   0  0  0  0  0  0  0  0  0  0  0  0
   37.9940   22.2010   34.8040 C   0  0  0  0  0  0  0  0  0  0  0  0
   37.8800   21.6590   35.7700 H   0  0  0  0  0  0  0  0  0  0  0  0
   38.9390   21.8390   34.3520 H   0  0  0  0  0  0  0  0  0  0  0  0
   36.8820   21.8240   33.8420 C   0  0  0  0  0  3  0  0  0  0  0  0
   35.9190   20.8250   34.3970 C   0  0  0  0  0  2  0  0  0  0  0  0
   35.5160   20.0370   33.1560 C   0  0  0  0  0  2  0  0  0  0  0  0
   36.8550   19.8410   32.4740 C   0  0  0  0  0  2  0  0  0  0  0  0
   37.5200   21.1730   32.6350 C   0  0  0  0  0  2  0  0  0  0  0  0
  1  7  1  0  0  0  0
  2  1  1  0  0  0  0
  2 22  1  0  0  0  0
  3  2  2  0  0  0  0
  4  5  2  0  0  0  0
  4  3  1  0  0  0  0
  5  6  1  0  0  0  0
  6  1  2  0  0  0  0
  9 10  1  0  0  0  0
  9  8  1  0  0  0  0
 10  5  1  0  0  0  0
 11 16  1  0  0  0  0
 11 10  2  0  0  0  0
 12 11  1  0  0  0  0
 13 12  2  0  0  0  0
 13 15  1  0  0  0  0
 14 13  1  0  0  0  0
 15  9  2  0  0  0  0
 17 12  1  0  0  0  0
 18 15  1  0  0  0  0
 18 20  1  0  0  0  0
 19 18  1  0  0  0  0
 21 18  1  0  0  0  0
 22 23  1  0  0  0  0
 22 25  1  0  0  0  0
 22 24  1  0  0  0  0
 26  3  1  0  0  0  0
 26 27  1  0  0  0  0
 28 26  1  0  0  0  0
 29 30  1  0  0  0  0
 29 26  1  0  0  0  0
 31 30  1  0  0  0  0
 32 33  1  0  0  0  0
 32 31  1  0  0  0  0
 33 29  1  0  0  0  0
M  END
>  <minimizedAffinity>
-6.26857758

$$$$

 OpenBabel03272500233D

 33 35  0  0  0  0  0  0  0  0999 V2000
   36.2300   29.3510   30.8050 C   0  0  0  0  0  0  0  0  0  0  0  0
   37.2230   28.4520   31.3020 C   0  0  0  0  0  0  0  0  0  0  0  0
   37.1290   28.0110   32.6200 C   0  0  0  0  0  0  0  0  0  0  0  0
   36.0720   28.4810   33.3540 N   0  0  0  0  0  0  0  0  0  0  0  0
   35.1690   29.3030   32.8910 C   0  0  0  0  0  0  0  0  0  0  0  0
   35.2250   29.7510   31.6270 N   0  0  0  0  0  0  0  0  0  0  0  0
   36.3010   29.6960   29.7810 H   0  0  0  0  0  0  0  0  0  0  0  0
   35.9790   30.8880   35.3410 Cl  0  0  0  0  0  0  0  0  0  0  0  0
   34.3270   30.4810   34.9220 C   0  0  0  0  0  0  0  0  0  0  0  0
   34.0690   29.7470   33.7700 C   0  0  0  0  0  0  0  0  0  0  0  0
   32.7660   29.3950   33.3890 C   0  0  0  0  0  0  0  0  0  0  0  0
   31.7390   29.8290   34.2400 C   0  0  0  0  0  0  0  0  0  0  0  0
   31.9750   30.5500   35.3750 C   0  0  0  0  0  0  0  0  0  0  0  0
   30.6070   31.0290   36.3460 Cl  0  0  0  0  0  0  0  0  0  0  0  0
   33.2890   30.8750   35.7110 C   0  0  0  0  0  0  0  0  0  0  0  0
   32.5740   28.8230   32.4890 H   0  0  0  0  0  0  0  0  0  0  0  0
   30.7340   29.5490   33.9330 H   0  0  0  0  0  0  0  0  0  0  0  0
   33.5530   31.6570   36.9430 C   0  0  0  0  0  0  0  0  0  0  0  0
   33.0050   32.9430   36.8390 F   0  0  0  0  0  0  0  0  0  0  0  0
   34.8800   31.7410   37.2380 F   0  0  0  0  0  0  0  0  0  0  0  0
   32.9140   31.0620   38.0100 F   0  0  0  0  0  0  0  0  0  0  0  0
   38.3030   28.0380   30.3660 C   0  0  0  0  0  0  0  0  0  0  0  0
   38.2420   26.6800   30.1030 F   0  0  0  0  0  0  0  0  0  0  0  0
   38.0840   28.6850   29.1610 F   0  0  0  0  0  0  0  0  0  0  0  0
   39.5610   28.3670   30.7880 F   0  0  0  0  0  0  0  0  0  0  0  0
   38.1390   27.0930   33.1400 C   0  0  0  0  0  0  0  0  0  0  0  0
   39.1510   27.5410   33.2590 H   0  0  0  0  0  0  0  0  0  0  0  0
   38.2530   26.2410   32.4400 H   0  0  0  0  0  0  0  0  0  0  0  0
   37.6510   26.5100   34.4530 C   0  0  0  0  0  3  0  0  0  0  0  0
   38.3200   27.0930   35.6550 C   0  0  0  0  0  2  0  0  0  0  0  0
   38.3490   25.9110   36.6180 C   0  0  0  0  0  2  0  0  0  0  0  0
   38.7790   24.7850   35.7010 C   0  0  0  0  0  2  0  0  0  0  0  0
   37.9860   25.0360   34.4550 C   0  0  0  0  0  2  0  0  0  0  0  0
  1  2  2  0  0  0  0
  1  6  1  0  0  0  0
  2  3  1  0  0  0  0
  3 26  1  0  0  0  0
  3  4  2  0  0  0  0
  5  4  1  0  0  0  0
  5 10  1  0  0  0  0
  6  5  2  0  0  0  0
  7  1  1  0  0  0  0
  9  8  1  0  0  0  0
  9 15  1  0  0  0  0
 10  9  2  0  0  0  0
 11 10  1  0  0  0  0
 11 12  2  0  0  0  0
 12 13  1  0  0  0  0
 13 15  2  0  0  0  0
 13 14  1  0  0  0  0
 15 18  1  0  0  0  0
 16 11  1  0  0  0  0
 17 12  1  0  0  0  0
 18 20  1  0  0  0  0
 18 21  1  0  0  0  0
 19 18  1  0  0  0  0
 22 25  1  0  0  0  0
 22  2  1  0  0  0  0
 23 22  1  0  0  0  0
 24 22  1  0  0  0  0
 26 27  1  0  0  0  0
 26 29  1  0  0  0  0
 28 26  1  0  0  0  0
 29 33  1  0  0  0  0
 29 30  1  0  0  0  0
 30 31  1  0  0  0  0
 32 31  1  0  0  0  0
 33 32  1  0  0  0  0
M  END
>  <minimizedAffinity>
-6.22106409

$$$$

 OpenBabel03272500233D

 33 35  0  0  0  0  0  0  0  0999 V2000
   37.4310   25.7060   33.7370 C   0  0  0  0  0  0  0  0  0  0  0  0
   38.3040   25.5430   34.8570 C   0  0  0  0  0  0  0  0  0  0  0  0
   38.9000   24.3020   35.0670 C   0  0  0  0  0  0  0  0  0  0  0  0
   38.5980   23.3120   34.1690 N   0  0  0  0  0  0  0  0  0  0  0  0
   37.7990   23.4700   33.1490 C   0  0  0  0  0  0  0  0  0  0  0  0
   37.2050   24.6510   32.9120 N   0  0  0  0  0  0  0  0  0  0  0  0
   36.9660   26.6700   33.5720 H   0  0  0  0  0  0  0  0  0  0  0  0
   35.7130   21.4760   34.0650 Cl  0  0  0  0  0  0  0  0  0  0  0  0
   36.6060   21.3600   32.5630 C   0  0  0  0  0  0  0  0  0  0  0  0
   37.5430   22.3340   32.2410 C   0  0  0  0  0  0  0  0  0  0  0  0
   38.2850   22.2890   31.0520 C   0  0  0  0  0  0  0  0  0  0  0  0
   38.0240   21.2010   30.2070 C   0  0  0  0  0  0  0  0  0  0  0  0
   37.1070   20.2350   30.5080 C   0  0  0  0  0  0  0  0  0  0  0  0
   36.8770   18.9350   29.3680 Cl  0  0  0  0  0  0  0  0  0  0  0  0
   36.3940   20.3250   31.7030 C   0  0  0  0  0  0  0  0  0  0  0  0
   39.0140   23.0530   30.8090 H   0  0  0  0  0  0  0  0  0  0  0  0
   38.6060   21.1770   29.2880 H   0  0  0  0  0  0  0  0  0  0  0  0
   35.3980   19.2790   32.0370 C   0  0  0  0  0  0  0  0  0  0  0  0
   35.5960   18.1380   31.2470 F   0  0  0  0  0  0  0  0  0  0  0  0
   34.1140   19.7150   31.9080 F   0  0  0  0  0  0  0  0  0  0  0  0
   35.5820   18.8690   33.3410 F   0  0  0  0  0  0  0  0  0  0  0  0
   38.5240   26.7270   35.7320 C   0  0  0  0  0  0  0  0  0  0  0  0
   39.8350   27.1680   35.6530 F   0  0  0  0  0  0  0  0  0  0  0  0
   37.7300   27.7560   35.2530 F   0  0  0  0  0  0  0  0  0  0  0  0
   38.1890   26.5200   37.0410 F   0  0  0  0  0  0  0  0  0  0  0  0
   39.7930   24.1220   36.2090 C   0  0  0  0  0  0  0  0  0  0  0  0
   39.2880   24.1620   37.2000 H   0  0  0  0  0  0  0  0  0  0  0  0
   40.5500   24.9320   36.2110 H   0  0  0  0  0  0  0  0  0  0  0  0
   40.5540   22.8200   36.0450 C   0  0  0  0  0  3  0  0  0  0  0  0
   40.6750   22.0310   37.3080 C   0  0  0  0  0  2  0  0  0  0  0  0
   42.0320   21.3560   37.1410 C   0  0  0  0  0  2  0  0  0  0  0  0
   42.8740   22.4970   36.6070 C   0  0  0  0  0  2  0  0  0  0  0  0
   41.9640   23.1610   35.6210 C   0  0  0  0  0  2  0  0  0  0  0  0
  1  2  1  0  0  0  0
  2  3  2  0  0  0  0
  2 22  1  0  0  0  0
  3 26  1  0  0  0  0
  4  3  1  0  0  0  0
  5  4  2  0  0  0  0
  6  5  1  0  0  0  0
  6  1  2  0  0  0  0
  7  1  1  0  0  0  0
  9  8  1  0  0  0  0
 10  9  1  0  0  0  0
 10  5  1  0  0  0  0
 11 10  2  0  0  0  0
 12 13  2  0  0  0  0
 12 11  1  0  0  0  0
 13 15  1  0  0  0  0
 14 13  1  0  0  0  0
 15 18  1  0  0  0  0
 15  9  2  0  0  0  0
 16 11  1  0  0  0  0
 17 12  1  0  0  0  0
 18 21  1  0  0  0  0
 19 18  1  0  0  0  0
 20 18  1  0  0  0  0
 22 25  1  0  0  0  0
 23 22  1  0  0  0  0
 24 22  1  0  0  0  0
 26 28  1  0  0  0  0
 26 27  1  0  0  0  0
 29 26  1  0  0  0  0
 29 30  1  0  0  0  0
 31 30  1  0  0  0  0
 32 31  1  0  0  0  0
 33 29  1  0  0  0  0
 33 32  1  0  0  0  0
M  END
>  <minimizedAffinity>
-6.19713354

$$$$

 OpenBabel03272500233D

 33 35  0  0  0  0  0  0  0  0999 V2000
   37.2210   28.6610   31.5440 C   0  0  0  0  0  0  0  0  0  0  0  0
   36.2210   29.5620   32.0240 C   0  0  0  0  0  0  0  0  0  0  0  0
   35.7210   29.3840   33.3120 C   0  0  0  0  0  0  0  0  0  0  0  0
   36.2350   28.3390   34.0340 N   0  0  0  0  0  0  0  0  0  0  0  0
   37.1480   27.5210   33.5870 C   0  0  0  0  0  0  0  0  0  0  0  0
   37.6560   27.6590   32.3520 N   0  0  0  0  0  0  0  0  0  0  0  0
   37.6120   28.7970   30.5430 H   0  0  0  0  0  0  0  0  0  0  0  0
   37.2590   24.7720   32.3210 Cl  0  0  0  0  0  0  0  0  0  0  0  0
   37.7240   25.1250   33.9730 C   0  0  0  0  0  0  0  0  0  0  0  0
   37.6330   26.4260   34.4520 C   0  0  0  0  0  0  0  0  0  0  0  0
   37.9910   26.7620   35.7660 C   0  0  0  0  0  0  0  0  0  0  0  0
   38.4480   25.7060   36.5660 C   0  0  0  0  0  0  0  0  0  0  0  0
   38.5430   24.4210   36.1120 C   0  0  0  0  0  0  0  0  0  0  0  0
   39.1290   23.2000   37.2120 Cl  0  0  0  0  0  0  0  0  0  0  0  0
   38.1750   24.1390   34.7970 C   0  0  0  0  0  0  0  0  0  0  0  0
   37.9170   27.7800   36.1310 H   0  0  0  0  0  0  0  0  0  0  0  0
   38.7220   25.9790   37.5820 H   0  0  0  0  0  0  0  0  0  0  0  0
   38.2740   22.7460   34.2970 C   0  0  0  0  0  0  0  0  0  0  0  0
   39.1550   22.6740   33.2090 F   0  0  0  0  0  0  0  0  0  0  0  0
   37.0650   22.2240   33.9510 F   0  0  0  0  0  0  0  0  0  0  0  0
   38.8220   21.9440   35.2760 F   0  0  0  0  0  0  0  0  0  0  0  0
   35.7780   30.6460   31.1060 C   0  0  0  0  0  0  0  0  0  0  0  0
   36.2340   31.8820   31.5380 F   0  0  0  0  0  0  0  0  0  0  0  0
   36.3640   30.4170   29.8730 F   0  0  0  0  0  0  0  0  0  0  0  0
   34.4250   30.6970   30.9180 F   0  0  0  0  0  0  0  0  0  0  0  0
   34.6970   30.2970   33.8130 C   0  0  0  0  0  0  0  0  0  0  0  0
   33.6540   29.9220   33.7090 H   0  0  0  0  0  0  0  0  0  0  0  0
   34.7470   31.2480   33.2460 H   0  0  0  0  0  0  0  0  0  0  0  0
   35.0030   30.6410   35.2590 C   0  0  0  0  0  3  0  0  0  0  0  0
   33.8420   31.2220   35.9980 C   0  0  0  0  0  2  0  0  0  0  0  0
   34.5210   32.1840   36.9670 C   0  0  0  0  0  2  0  0  0  0  0  0
   35.5480   32.8430   36.0690 C   0  0  0  0  0  2  0  0  0  0  0  0
   36.0810   31.7000   35.2620 C   0  0  0  0  0  2  0  0  0  0  0  0
  1  2  2  0  0  0  0
  1  6  1  0  0  0  0
  2  3  1  0  0  0  0
  3 26  1  0  0  0  0
  3  4  2  0  0  0  0
  5  4  1  0  0  0  0
  5 10  1  0  0  0  0
  6  5  2  0  0  0  0
  7  1  1  0  0  0  0
  8  9  1  0  0  0  0
  9 10  2  0  0  0  0
  9 15  1  0  0  0  0
 10 11  1  0  0  0  0
 11 16  1  0  0  0  0
 11 12  2  0  0  0  0
 12 17  1  0  0  0  0
 13 12  1  0  0  0  0
 13 14  1  0  0  0  0
 15 13  2  0  0  0  0
 18 15  1  0  0  0  0
 18 21  1  0  0  0  0
 19 18  1  0  0  0  0
 20 18  1  0  0  0  0
 22 23  1  0  0  0  0
 22  2  1  0  0  0  0
 24 22  1  0  0  0  0
 25 22  1  0  0  0  0
 26 29  1  0  0  0  0
 27 26  1  0  0  0  0
 28 26  1  0  0  0  0
 29 33  1  0  0  0  0
 29 30  1  0  0  0  0
 30 31  1  0  0  0  0
 32 31  1  0  0  0  0
 33 32  1  0  0  0  0
M  END
>  <minimizedAffinity>
-6.09198141

$$$$

 OpenBabel03272500233D

 33 35  0  0  0  0  0  0  0  0999 V2000
   36.2890   29.3680   31.5830 C   0  0  0  0  0  0  0  0  0  0  0  0
   36.7600   28.0810   31.9880 C   0  0  0  0  0  0  0  0  0  0  0  0
   36.7070   27.7430   33.3390 C   0  0  0  0  0  0  0  0  0  0  0  0
   36.1980   28.6860   34.1920 N   0  0  0  0  0  0  0  0  0  0  0  0
   35.7690   29.8590   33.8120 C   0  0  0  0  0  0  0  0  0  0  0  0
   35.8040   30.2240   32.5200 N   0  0  0  0  0  0  0  0  0  0  0  0
   36.3290   29.6340   30.5340 H   0  0  0  0  0  0  0  0  0  0  0  0
   32.9090   29.3980   34.6920 Cl  0  0  0  0  0  0  0  0  0  0  0  0
   33.9380   30.6830   35.2910 C   0  0  0  0  0  0  0  0  0  0  0  0
   35.2390   30.8020   34.8170 C   0  0  0  0  0  0  0  0  0  0  0  0
   36.1030   31.8120   35.2640 C   0  0  0  0  0  0  0  0  0  0  0  0
   35.5760   32.6940   36.2180 C   0  0  0  0  0  0  0  0  0  0  0  0
   34.3000   32.5910   36.6940 C   0  0  0  0  0  0  0  0  0  0  0  0
   33.7680   33.7530   37.8810 Cl  0  0  0  0  0  0  0  0  0  0  0  0
   33.4790   31.5690   36.2180 C   0  0  0  0  0  0  0  0  0  0  0  0
   37.1160   31.8980   34.8880 H   0  0  0  0  0  0  0  0  0  0  0  0
   36.2560   33.4720   36.5550 H   0  0  0  0  0  0  0  0  0  0  0  0
   32.0920   31.4520   36.7300 C   0  0  0  0  0  0  0  0  0  0  0  0
   31.6690   32.6650   37.2910 F   0  0  0  0  0  0  0  0  0  0  0  0
   31.9490   30.4460   37.6360 F   0  0  0  0  0  0  0  0  0  0  0  0
   31.2340   31.2070   35.6780 F   0  0  0  0  0  0  0  0  0  0  0  0
   37.2790   27.1760   30.9270 C   0  0  0  0  0  0  0  0  0  0  0  0
   36.5240   26.0170   30.8480 F   0  0  0  0  0  0  0  0  0  0  0  0
   37.1340   27.8270   29.7130 F   0  0  0  0  0  0  0  0  0  0  0  0
   38.6000   26.8530   31.0690 F   0  0  0  0  0  0  0  0  0  0  0  0
   37.1870   26.4310   33.7660 C   0  0  0  0  0  0  0  0  0  0  0  0
   37.4600   25.7470   32.9310 H   0  0  0  0  0  0  0  0  0  0  0  0
   36.3890   25.9200   34.3410 H   0  0  0  0  0  0  0  0  0  0  0  0
   38.3550   26.6150   34.7160 C   0  0  0  0  0  3  0  0  0  0  0  0
   39.5950   27.1210   34.0530 C   0  0  0  0  0  2  0  0  0  0  0  0
   40.6970   26.4530   34.8680 C   0  0  0  0  0  2  0  0  0  0  0  0
   40.1580   25.0440   35.0060 C   0  0  0  0  0  2  0  0  0  0  0  0
   38.7030   25.2590   35.2850 C   0  0  0  0  0  2  0  0  0  0  0  0
  1  2  2  0  0  0  0
  1  6  1  0  0  0  0
  2  3  1  0  0  0  0
  3 26  1  0  0  0  0
  3  4  2  0  0  0  0
  5  4  1  0  0  0  0
  5 10  1  0  0  0  0
  6  5  2  0  0  0  0
  7  1  1  0  0  0  0
  8  9  1  0  0  0  0
  9 15  1  0  0  0  0
 10 11  1  0  0  0  0
 10  9  2  0  0  0  0
 11 12  2  0  0  0  0
 12 17  1  0  0  0  0
 12 13  1  0  0  0  0
 13 14  1  0  0  0  0
 15 13  2  0  0  0  0
 15 18  1  0  0  0  0
 16 11  1  0  0  0  0
 18 19  1  0  0  0  0
 18 20  1  0  0  0  0
 21 18  1  0  0  0  0
 22 25  1  0  0  0  0
 22  2  1  0  0  0  0
 23 22  1  0  0  0  0
 24 22  1  0  0  0  0
 26 28  1  0  0  0  0
 26 29  1  0  0  0  0
 27 26  1  0  0  0  0
 29 33  1  0  0  0  0
 30 29  1  0  0  0  0
 30 31  1  0  0  0  0
 31 32  1  0  0  0  0
 32 33  1  0  0  0  0
M  END
>  <minimizedAffinity>
-6.08107996

$$$$

 OpenBabel03272500233D

 33 35  0  0  0  0  0  0  0  0999 V2000
   38.1490   26.2100   36.7500 C   0  0  0  0  0  0  0  0  0  0  0  0
   38.1810   24.7810   36.7520 C   0  0  0  0  0  0  0  0  0  0  0  0
   38.1350   24.1080   35.5330 C   0  0  0  0  0  0  0  0  0  0  0  0
   38.0610   24.8800   34.4040 N   0  0  0  0  0  0  0  0  0  0  0  0
   38.0320   26.1850   34.4120 C   0  0  0  0  0  0  0  0  0  0  0  0
   38.0740   26.8710   35.5650 N   0  0  0  0  0  0  0  0  0  0  0  0
   38.1840   26.7360   37.6960 H   0  0  0  0  0  0  0  0  0  0  0  0
   35.9380   28.3670   34.2590 Cl  0  0  0  0  0  0  0  0  0  0  0  0
   37.0260   27.9410   32.9540 C   0  0  0  0  0  0  0  0  0  0  0  0
   37.9520   26.9200   33.1340 C   0  0  0  0  0  0  0  0  0  0  0  0
   38.8450   26.5400   32.1220 C   0  0  0  0  0  0  0  0  0  0  0  0
   38.7490   27.2530   30.9180 C   0  0  0  0  0  0  0  0  0  0  0  0
   37.8460   28.2580   30.7250 C   0  0  0  0  0  0  0  0  0  0  0  0
   37.8320   29.0660   29.1790 Cl  0  0  0  0  0  0  0  0  0  0  0  0
   36.9790   28.5990   31.7620 C   0  0  0  0  0  0  0  0  0  0  0  0
   39.5640   25.7420   32.2710 H   0  0  0  0  0  0  0  0  0  0  0  0
   39.4470   26.9480   30.1430 H   0  0  0  0  0  0  0  0  0  0  0  0
   35.9940   29.6890   31.5590 C   0  0  0  0  0  0  0  0  0  0  0  0
   35.9060   30.0290   30.2020 F   0  0  0  0  0  0  0  0  0  0  0  0
   36.2770   30.7970   32.2980 F   0  0  0  0  0  0  0  0  0  0  0  0
   34.7380   29.2450   31.9160 F   0  0  0  0  0  0  0  0  0  0  0  0
   38.2660   24.0990   38.0720 C   0  0  0  0  0  0  0  0  0  0  0  0
   38.1130   25.0030   39.1100 F   0  0  0  0  0  0  0  0  0  0  0  0
   37.2040   23.2140   38.1560 F   0  0  0  0  0  0  0  0  0  0  0  0
   39.4160   23.3820   38.2540 F   0  0  0  0  0  0  0  0  0  0  0  0
   38.1660   22.6470   35.5220 C   0  0  0  0  0  0  0  0  0  0  0  0
   37.3570   22.1740   34.9210 H   0  0  0  0  0  0  0  0  0  0  0  0
   38.0460   22.2720   36.5580 H   0  0  0  0  0  0  0  0  0  0  0  0
   39.5300   22.1830   35.0480 C   0  0  0  0  0  3  0  0  0  0  0  0
   40.6010   23.2130   35.1960 C   0  0  0  0  0  2  0  0  0  0  0  0
   41.5080   22.9140   34.0080 C   0  0  0  0  0  2  0  0  0  0  0  0
   40.4950   22.6980   32.9020 C   0  0  0  0  0  2  0  0  0  0  0  0
   39.4280   21.8870   33.5700 C   0  0  0  0  0  2  0  0  0  0  0  0
  1  2  1  0  0  0  0
  1  7  1  0  0  0  0
  2 22  1  0  0  0  0
  3  2  2  0  0  0  0
  4  5  2  0  0  0  0
  4  3  1  0  0  0  0
  5  6  1  0  0  0  0
  6  1  2  0  0  0  0
  9 10  1  0  0  0  0
  9  8  1  0  0  0  0
 10  5  1  0  0  0  0
 11 16  1  0  0  0  0
 11 10  2  0  0  0  0
 12 11  1  0  0  0  0
 13 12  2  0  0  0  0
 13 15  1  0  0  0  0
 14 13  1  0  0  0  0
 15  9  2  0  0  0  0
 17 12  1  0  0  0  0
 18 15  1  0  0  0  0
 18 21  1  0  0  0  0
 18 20  1  0  0  0  0
 19 18  1  0  0  0  0
 22 24  1  0  0  0  0
 22 25  1  0  0  0  0
 22 23  1  0  0  0  0
 26  3  1  0  0  0  0
 26 28  1  0  0  0  0
 27 26  1  0  0  0  0
 29 30  1  0  0  0  0
 29 26  1  0  0  0  0
 31 30  1  0  0  0  0
 32 33  1  0  0  0  0
 32 31  1  0  0  0  0
 33 29  1  0  0  0  0
M  END
>  <minimizedAffinity>
-5.96864986

$$$$

 OpenBabel03272500233D

 33 35  0  0  0  0  0  0  0  0999 V2000
   37.1080   26.4190   32.9100 C   0  0  0  0  0  0  0  0  0  0  0  0
   36.5250   25.4580   32.0270 C   0  0  0  0  0  0  0  0  0  0  0  0
   37.1200   24.2040   31.9130 C   0  0  0  0  0  0  0  0  0  0  0  0
   38.2400   23.9810   32.6700 N   0  0  0  0  0  0  0  0  0  0  0  0
   38.7660   24.8650   33.4750 C   0  0  0  0  0  0  0  0  0  0  0  0
   38.2230   26.0850   33.6120 N   0  0  0  0  0  0  0  0  0  0  0  0
   36.6480   27.3950   33.0000 H   0  0  0  0  0  0  0  0  0  0  0  0
   38.3720   22.9440   35.7820 Cl  0  0  0  0  0  0  0  0  0  0  0  0
   39.9110   23.6470   35.3260 C   0  0  0  0  0  0  0  0  0  0  0  0
   39.9770   24.5190   34.2460 C   0  0  0  0  0  0  0  0  0  0  0  0
   41.1820   25.1080   33.8390 C   0  0  0  0  0  0  0  0  0  0  0  0
   42.3170   24.7640   34.5870 C   0  0  0  0  0  0  0  0  0  0  0  0
   42.2700   23.9100   35.6510 C   0  0  0  0  0  0  0  0  0  0  0  0
   43.7560   23.5640   36.4950 Cl  0  0  0  0  0  0  0  0  0  0  0  0
   41.0470   23.3490   36.0160 C   0  0  0  0  0  0  0  0  0  0  0  0
   41.2240   25.7880   32.9950 H   0  0  0  0  0  0  0  0  0  0  0  0
   43.2450   25.2280   34.2610 H   0  0  0  0  0  0  0  0  0  0  0  0
   40.9870   22.4200   37.1710 C   0  0  0  0  0  0  0  0  0  0  0  0
   40.2650   21.2650   36.8390 F   0  0  0  0  0  0  0  0  0  0  0  0
   40.4540   22.9980   38.2820 F   0  0  0  0  0  0  0  0  0  0  0  0
   42.2610   21.9910   37.4800 F   0  0  0  0  0  0  0  0  0  0  0  0
   35.3030   25.8660   31.2810 C   0  0  0  0  0  0  0  0  0  0  0  0
   34.2560   24.9930   31.5260 F   0  0  0  0  0  0  0  0  0  0  0  0
   34.9100   27.1030   31.7660 F   0  0  0  0  0  0  0  0  0  0  0  0
   35.4910   25.9920   29.9330 F   0  0  0  0  0  0  0  0  0  0  0  0
   36.5340   23.2140   31.0130 C   0  0  0  0  0  0  0  0  0  0  0  0
   37.0180   23.1580   30.0120 H   0  0  0  0  0  0  0  0  0  0  0  0
   35.4710   23.4700   30.8320 H   0  0  0  0  0  0  0  0  0  0  0  0
   36.5430   21.8580   31.6920 C   0  0  0  0  0  3  0  0  0  0  0  0
   36.5930   20.7080   30.7390 C   0  0  0  0  0  2  0  0  0  0  0  0
   35.7880   19.6410   31.4730 C   0  0  0  0  0  2  0  0  0  0  0  0
   34.6110   20.4480   31.9830 C   0  0  0  0  0  2  0  0  0  0  0  0
   35.2470   21.7180   32.4570 C   0  0  0  0  0  2  0  0  0  0  0  0
  1  7  1  0  0  0  0
  1  6  1  0  0  0  0
  2  1  2  0  0  0  0
  3  2  1  0  0  0  0
  3  4  2  0  0  0  0
  4  5  1  0  0  0  0
  5  6  2  0  0  0  0
  5 10  1  0  0  0  0
  9  8  1  0  0  0  0
  9 15  1  0  0  0  0
 10  9  2  0  0  0  0
 11 10  1  0  0  0  0
 11 12  2  0  0  0  0
 12 13  1  0  0  0  0
 13 15  2  0  0  0  0
 13 14  1  0  0  0  0
 15 18  1  0  0  0  0
 16 11  1  0  0  0  0
 17 12  1  0  0  0  0
 18 21  1  0  0  0  0
 18 20  1  0  0  0  0
 19 18  1  0  0  0  0
 22 23  1  0  0  0  0
 22 24  1  0  0  0  0
 22  2  1  0  0  0  0
 25 22  1  0  0  0  0
 26 29  1  0  0  0  0
 26  3  1  0  0  0  0
 27 26  1  0  0  0  0
 28 26  1  0  0  0  0
 29 33  1  0  0  0  0
 30 31  1  0  0  0  0
 30 29  1  0  0  0  0
 31 32  1  0  0  0  0
 32 33  1  0  0  0  0
M  END
>  <minimizedAffinity>
-5.96250916

$$$$

 OpenBabel03272500233D

 33 35  0  0  0  0  0  0  0  0999 V2000
   37.0540   29.4880   30.9940 C   0  0  0  0  0  0  0  0  0  0  0  0
   36.0560   30.2530   31.6750 C   0  0  0  0  0  0  0  0  0  0  0  0
   35.4560   29.7110   32.8090 C   0  0  0  0  0  0  0  0  0  0  0  0
   35.8740   28.4640   33.1940 N   0  0  0  0  0  0  0  0  0  0  0  0
   36.7870   27.7740   32.5650 C   0  0  0  0  0  0  0  0  0  0  0  0
   37.3880   28.2600   31.4680 N   0  0  0  0  0  0  0  0  0  0  0  0
   37.5220   29.9060   30.1110 H   0  0  0  0  0  0  0  0  0  0  0  0
   37.7350   27.6480   35.4390 Cl  0  0  0  0  0  0  0  0  0  0  0  0
   37.6120   26.2640   34.3710 C   0  0  0  0  0  0  0  0  0  0  0  0
   37.1630   26.4370   33.0680 C   0  0  0  0  0  0  0  0  0  0  0  0
   37.0470   25.3640   32.1730 C   0  0  0  0  0  0  0  0  0  0  0  0
   37.4110   24.1060   32.6730 C   0  0  0  0  0  0  0  0  0  0  0  0
   37.8540   23.9180   33.9510 C   0  0  0  0  0  0  0  0  0  0  0  0
   38.2730   22.2990   34.4480 Cl  0  0  0  0  0  0  0  0  0  0  0  0
   37.9520   25.0180   34.8020 C   0  0  0  0  0  0  0  0  0  0  0  0
   36.6960   25.5080   31.1570 H   0  0  0  0  0  0  0  0  0  0  0  0
   37.3170   23.2820   31.9690 H   0  0  0  0  0  0  0  0  0  0  0  0
   38.4340   24.8230   36.1920 C   0  0  0  0  0  0  0  0  0  0  0  0
   38.3760   26.0260   36.9080 F   0  0  0  0  0  0  0  0  0  0  0  0
   39.6950   24.3120   36.2430 F   0  0  0  0  0  0  0  0  0  0  0  0
   37.5920   23.9520   36.8510 F   0  0  0  0  0  0  0  0  0  0  0  0
   35.7240   31.5930   31.1220 C   0  0  0  0  0  0  0  0  0  0  0  0
   36.1130   32.6010   31.9900 F   0  0  0  0  0  0  0  0  0  0  0  0
   36.4620   31.7630   29.9620 F   0  0  0  0  0  0  0  0  0  0  0  0
   34.4050   31.7510   30.7990 F   0  0  0  0  0  0  0  0  0  0  0  0
   34.4340   30.4820   33.5130 C   0  0  0  0  0  0  0  0  0  0  0  0
   33.3980   30.0950   33.3890 H   0  0  0  0  0  0  0  0  0  0  0  0
   34.4280   31.5200   33.1250 H   0  0  0  0  0  0  0  0  0  0  0  0
   34.8020   30.5700   34.9820 C   0  0  0  0  0  3  0  0  0  0  0  0
   33.7230   31.1470   35.8390 C   0  0  0  0  0  2  0  0  0  0  0  0
   34.5170   31.8780   36.9160 C   0  0  0  0  0  2  0  0  0  0  0  0
   35.5890   32.5590   36.0900 C   0  0  0  0  0  2  0  0  0  0  0  0
   35.9850   31.5040   35.1040 C   0  0  0  0  0  2  0  0  0  0  0  0
  1  6  2  0  0  0  0
  1  2  1  0  0  0  0
  2  3  2  0  0  0  0
  3  4  1  0  0  0  0
  3 26  1  0  0  0  0
  5 10  1  0  0  0  0
  5  4  2  0  0  0  0
  6  5  1  0  0  0  0
  7  1  1  0  0  0  0
  9 15  1  0  0  0  0
  9  8  1  0  0  0  0
 10  9  2  0  0  0  0
 11 12  2  0  0  0  0
 11 10  1  0  0  0  0
 12 13  1  0  0  0  0
 13 14  1  0  0  0  0
 13 15  2  0  0  0  0
 15 18  1  0  0  0  0
 16 11  1  0  0  0  0
 17 12  1  0  0  0  0
 18 20  1  0  0  0  0
 18 21  1  0  0  0  0
 18 19  1  0  0  0  0
 22  2  1  0  0  0  0
 22 23  1  0  0  0  0
 24 22  1  0  0  0  0
 25 22  1  0  0  0  0
 26 29  1  0  0  0  0
 27 26  1  0  0  0  0
 28 26  1  0  0  0  0
 29 33  1  0  0  0  0
 29 30  1  0  0  0  0
 30 31  1  0  0  0  0
 32 31  1  0  0  0  0
 33 32  1  0  0  0  0
M  END
>  <minimizedAffinity>
-5.9614296

$$$$

 OpenBabel03272500233D

 33 35  0  0  0  0  0  0  0  0999 V2000
   38.3790   25.7160   36.0930 C   0  0  0  0  0  0  0  0  0  0  0  0
   38.2430   24.2960   36.0000 C   0  0  0  0  0  0  0  0  0  0  0  0
   38.3630   23.6920   34.7500 C   0  0  0  0  0  0  0  0  0  0  0  0
   38.6050   24.5190   33.6850 N   0  0  0  0  0  0  0  0  0  0  0  0
   38.7280   25.8150   33.7800 C   0  0  0  0  0  0  0  0  0  0  0  0
   38.6190   26.4350   34.9660 N   0  0  0  0  0  0  0  0  0  0  0  0
   38.2860   26.1890   37.0630 H   0  0  0  0  0  0  0  0  0  0  0  0
   36.3580   27.3090   32.6310 Cl  0  0  0  0  0  0  0  0  0  0  0  0
   37.9740   27.3380   31.9540 C   0  0  0  0  0  0  0  0  0  0  0  0
   38.9900   26.6120   32.5650 C   0  0  0  0  0  0  0  0  0  0  0  0
   40.3000   26.6010   32.0640 C   0  0  0  0  0  0  0  0  0  0  0  0
   40.5220   27.3660   30.9110 C   0  0  0  0  0  0  0  0  0  0  0  0
   39.5360   28.0840   30.2980 C   0  0  0  0  0  0  0  0  0  0  0  0
   39.9470   28.9950   28.8690 Cl  0  0  0  0  0  0  0  0  0  0  0  0
   38.2490   28.0630   30.8350 C   0  0  0  0  0  0  0  0  0  0  0  0
   41.0860   26.0320   32.5470 H   0  0  0  0  0  0  0  0  0  0  0  0
   41.5420   27.3480   30.5330 H   0  0  0  0  0  0  0  0  0  0  0  0
   37.1720   28.8400   30.1740 C   0  0  0  0  0  0  0  0  0  0  0  0
   37.4300   30.2150   30.2600 F   0  0  0  0  0  0  0  0  0  0  0  0
   35.9390   28.5660   30.6830 F   0  0  0  0  0  0  0  0  0  0  0  0
   37.1540   28.5450   28.8270 F   0  0  0  0  0  0  0  0  0  0  0  0
   37.9850   23.5490   37.2610 C   0  0  0  0  0  0  0  0  0  0  0  0
   39.0890   22.7990   37.6310 F   0  0  0  0  0  0  0  0  0  0  0  0
   37.7830   24.4800   38.2660 F   0  0  0  0  0  0  0  0  0  0  0  0
   36.8790   22.7450   37.2140 F   0  0  0  0  0  0  0  0  0  0  0  0
   38.2250   22.2420   34.6430 C   0  0  0  0  0  0  0  0  0  0  0  0
   38.1720   21.7100   35.6190 H   0  0  0  0  0  0  0  0  0  0  0  0
   39.1050   21.8290   34.1100 H   0  0  0  0  0  0  0  0  0  0  0  0
   37.0130   21.9200   33.7890 C   0  0  0  0  0  3  0  0  0  0  0  0
   36.0780   20.9380   34.4160 C   0  0  0  0  0  2  0  0  0  0  0  0
   35.5290   20.1910   33.2060 C   0  0  0  0  0  2  0  0  0  0  0  0
   36.7870   19.9710   32.3910 C   0  0  0  0  0  2  0  0  0  0  0  0
   37.5060   21.2790   32.5120 C   0  0  0  0  0  2  0  0  0  0  0  0
  1  7  1  0  0  0  0
  2  1  1  0  0  0  0
  2 22  1  0  0  0  0
  3  2  2  0  0  0  0
  4  5  2  0  0  0  0
  4  3  1  0  0  0  0
  5  6  1  0  0  0  0
  6  1  2  0  0  0  0
  9 10  1  0  0  0  0
  9  8  1  0  0  0  0
 10  5  1  0  0  0  0
 11 16  1  0  0  0  0
 11 10  2  0  0  0  0
 12 11  1  0  0  0  0
 13 15  1  0  0  0  0
 13 12  2  0  0  0  0
 14 13  1  0  0  0  0
 15  9  2  0  0  0  0
 17 12  1  0  0  0  0
 18 19  1  0  0  0  0
 18 20  1  0  0  0  0
 18 15  1  0  0  0  0
 21 18  1  0  0  0  0
 22 23  1  0  0  0  0
 22 24  1  0  0  0  0
 25 22  1  0  0  0  0
 26  3  1  0  0  0  0
 26 27  1  0  0  0  0
 28 26  1  0  0  0  0
 29 30  1  0  0  0  0
 29 26  1  0  0  0  0
 31 30  1  0  0  0  0
 32 33  1  0  0  0  0
 32 31  1  0  0  0  0
 33 29  1  0  0  0  0
M  END
>  <minimizedAffinity>
-5.94878864

$$$$
