
 OpenBabel03272508513D

 25 27  0  0  1  0  0  0  0  0999 V2000
   39.7420   32.0390   46.1230 C   0  0  2  0  0  0  0  0  0  0  0  0
   40.2570   33.3250   45.6710 C   0  0  0  0  0  0  0  0  0  0  0  0
   39.1380   32.5860   44.9160 C   0  0  1  0  0  0  0  0  0  0  0  0
   40.3850   31.1160   45.9210 H   0  0  0  0  0  0  0  0  0  0  0  0
   39.9600   34.2600   46.2180 H   0  0  0  0  0  0  0  0  0  0  0  0
   41.1820   33.4130   45.1080 H   0  0  0  0  0  0  0  0  0  0  0  0
   38.2350   33.2130   44.8770 H   0  0  0  0  0  0  0  0  0  0  0  0
   37.4670   30.6270   48.6810 C   0  0  0  0  0  0  0  0  0  0  0  0
   37.3940   31.6810   49.6300 C   0  0  0  0  0  0  0  0  0  0  0  0
   38.1440   32.8780   49.3660 C   0  0  0  0  0  0  0  0  0  0  0  0
   38.8790   32.9390   48.2300 N   0  0  0  0  0  0  0  0  0  0  0  0
   38.9100   31.8960   47.3570 C   0  0  0  0  0  0  0  0  0  0  0  0
   38.2250   30.7510   47.5570 N   0  0  0  0  0  0  0  0  0  0  0  0
   36.8730   29.7690   48.9620 H   0  0  0  0  0  0  0  0  0  0  0  0
   36.7950   31.5890   50.5260 H   0  0  0  0  0  0  0  0  0  0  0  0
   38.1060   33.6950   50.0730 H   0  0  0  0  0  0  0  0  0  0  0  0
   38.8320   30.8740   43.1590 C   0  0  0  0  0  0  0  0  0  0  0  0
   37.7400   30.5530   43.6910 O   0  0  0  0  0  0  0  0  0  0  0  0
   39.5760   32.0090   43.6420 N   0  0  0  0  0  0  0  0  0  0  0  0
   40.3990   32.4460   43.1550 H   0  0  0  0  0  0  0  0  0  0  0  0
   39.4630   30.1400   42.0050 C   0  0  0  0  0  0  0  0  0  0  0  0
   40.2800   28.9870   42.5480 C   0  0  0  0  0  0  0  0  0  0  0  0
   41.4700   28.9160   41.6510 C   0  0  0  0  0  0  0  0  0  0  0  0
   41.3570   30.0280   40.6350 C   0  0  0  0  0  0  0  0  0  0  0  0
   40.3650   31.0180   41.2090 C   0  0  0  0  0  0  0  0  0  0  0  0
  1  4  1  6  0  0  0
  1 12  1  0  0  0  0
  2  1  1  0  0  0  0
  2  5  1  0  0  0  0
  3  7  1  1  0  0  0
  3  2  1  0  0  0  0
  3  1  1  0  0  0  0
  6  2  1  0  0  0  0
  8 14  1  0  0  0  0
  8  9  1  0  0  0  0
  9 15  1  0  0  0  0
 10  9  2  0  0  0  0
 10 16  1  0  0  0  0
 11 10  1  0  0  0  0
 12 13  1  0  0  0  0
 12 11  2  0  0  0  0
 13  8  2  0  0  0  0
 17 19  1  0  0  0  0
 17 18  2  0  0  0  0
 19  3  1  0  0  0  0
 20 19  1  0  0  0  0
 21 22  1  0  0  0  0
 21 17  1  0  0  0  0
 23 22  1  0  0  0  0
 24 25  1  0  0  0  0
 24 23  1  0  0  0  0
 25 21  1  0  0  0  0
M  END
>  <minimizedAffinity>
-4.91536236

>  <minimizedRMSD>
7.35953903

$$$$
