
 OpenBabel03272503503D

 33 35  0  0  1  0  0  0  0  0999 V2000
   33.2480   27.3060   45.8290 C   0  0  1  0  0  0  0  0  0  0  0  0
   33.9270   27.4500   47.2090 C   0  0  2  0  0  0  0  0  0  0  0  0
   33.7540   26.2220   47.7680 O   0  0  0  0  0  0  0  0  0  0  0  0
   34.0960   25.3330   46.7640 C   0  0  0  0  0  0  0  0  0  0  0  0
   33.6290   25.9170   45.4500 C   0  0  2  0  0  0  0  0  0  0  0  0
   33.7100   28.0350   45.1290 H   0  0  0  0  0  0  0  0  0  0  0  0
   34.9750   27.7450   46.9760 H   0  0  0  0  0  0  0  0  0  0  0  0
   35.1690   25.0550   46.7730 H   0  0  0  0  0  0  0  0  0  0  0  0
   33.5240   24.3990   46.9540 H   0  0  0  0  0  0  0  0  0  0  0  0
   32.8200   25.3120   44.9960 H   0  0  0  0  0  0  0  0  0  0  0  0
   31.8880   27.5210   45.9330 O   0  0  0  0  0  0  0  0  0  0  0  0
   31.5870   28.1050   45.1770 H   0  0  0  0  0  0  0  0  0  0  0  0
   33.2870   28.4990   47.7990 O   0  0  0  0  0  0  0  0  0  0  0  0
   35.3460   29.8080   46.7900 O   0  0  0  0  0  0  0  0  0  0  0  0
   34.0800   29.9740   47.6150 P   0  0  1  0  0  0  0  0  0  0  0  0
   33.1120   31.0500   46.7350 O   0  0  0  0  0  0  0  0  0  0  0  0
   32.2730   31.2360   47.2240 H   0  0  0  0  0  0  0  0  0  0  0  0
   34.3780   30.5750   49.1810 O   0  0  0  0  0  0  0  0  0  0  0  0
   35.6090   30.4770   49.7920 C   0  0  0  0  0  0  0  0  0  0  0  0
   35.9560   29.4670   50.7160 C   0  0  0  0  0  0  0  0  0  0  0  0
   37.2390   29.4950   51.2540 C   0  0  0  0  0  0  0  0  0  0  0  0
   38.0890   30.4890   50.8620 N   0  0  0  0  0  0  0  0  0  0  0  0
   37.7220   31.4480   49.9680 C   0  0  0  0  0  0  0  0  0  0  0  0
   36.4710   31.4390   49.4310 N   0  0  0  0  0  0  0  0  0  0  0  0
   35.2010   28.7280   50.9540 H   0  0  0  0  0  0  0  0  0  0  0  0
   37.5150   28.7310   51.9590 H   0  0  0  0  0  0  0  0  0  0  0  0
   38.4330   32.2090   49.6950 H   0  0  0  0  0  0  0  0  0  0  0  0
   34.6900   25.9380   44.5450 O   0  0  0  0  0  0  0  0  0  0  0  0
   34.4170   25.2390   43.3750 C   0  0  0  0  0  3  0  0  0  0  0  0
   35.0500   25.9310   42.1990 C   0  0  0  0  0  2  0  0  0  0  0  0
   36.0270   24.9790   41.5910 C   0  0  0  0  0  2  0  0  0  0  0  0
   35.7940   23.6200   42.1910 C   0  0  0  0  0  2  0  0  0  0  0  0
   34.9440   23.8310   43.4120 C   0  0  0  0  0  2  0  0  0  0  0  0
  1  6  1  6  0  0  0
  1 11  1  0  0  0  0
  1  2  1  0  0  0  0
  2  7  1  6  0  0  0
  2  3  1  0  0  0  0
  2 13  1  0  0  0  0
  4  8  1  0  0  0  0
  4  9  1  0  0  0  0
  4  3  1  0  0  0  0
  5 10  1  6  0  0  0
  5  1  1  0  0  0  0
  5  4  1  0  0  0  0
 12 11  1  0  0  0  0
 15 14  2  6  0  0  0
 15 13  1  0  0  0  0
 15 18  1  0  0  0  0
 16 17  1  0  0  0  0
 16 15  1  0  0  0  0
 18 19  1  0  0  0  0
 19 20  1  0  0  0  0
 20 25  1  0  0  0  0
 20 21  2  0  0  0  0
 21 26  1  0  0  0  0
 22 21  1  0  0  0  0
 23 22  2  0  0  0  0
 24 19  2  0  0  0  0
 24 23  1  0  0  0  0
 27 23  1  0  0  0  0
 28  5  1  0  0  0  0
 29 33  1  0  0  0  0
 29 28  1  0  0  0  0
 30 29  1  0  0  0  0
 31 32  1  0  0  0  0
 31 30  1  0  0  0  0
 32 33  1  0  0  0  0
M  END
>  <minimizedAffinity>
-3.9869504

>  <minimizedRMSD>
0.271694273

$$$$
