
 OpenBabel03272503063D

 28 30  0  0  0  0  0  0  0  0999 V2000
   36.6490   26.9080   35.2570 F   0  0  0  0  0  0  0  0  0  0  0  0
   37.3890   26.9810   34.1210 C   0  0  0  0  0  0  0  0  0  0  0  0
   37.0520   27.8620   33.1340 C   0  0  0  0  0  0  0  0  0  0  0  0
   37.8390   27.8840   32.0160 C   0  0  0  0  0  0  0  0  0  0  0  0
   38.9270   27.0670   31.8680 C   0  0  0  0  0  0  0  0  0  0  0  0
   39.2530   26.1800   32.8790 C   0  0  0  0  0  0  0  0  0  0  0  0
   38.4710   26.1420   34.0160 C   0  0  0  0  0  0  0  0  0  0  0  0
   37.5760   28.5810   31.2290 H   0  0  0  0  0  0  0  0  0  0  0  0
   39.5440   27.0920   30.9770 H   0  0  0  0  0  0  0  0  0  0  0  0
   40.1100   25.4990   32.8220 H   0  0  0  0  0  0  0  0  0  0  0  0
   34.6530   30.4240   34.5740 C   0  0  0  0  0  0  0  0  0  0  0  0
   35.7960   29.6240   34.3910 C   0  0  0  0  0  0  0  0  0  0  0  0
   35.8710   28.7140   33.3550 C   0  0  0  0  0  0  0  0  0  0  0  0
   34.7950   28.6340   32.5320 N   0  0  0  0  0  0  0  0  0  0  0  0
   33.7020   29.4080   32.7180 C   0  0  0  0  0  0  0  0  0  0  0  0
   33.6320   30.2790   33.7120 N   0  0  0  0  0  0  0  0  0  0  0  0
   34.6770   31.1100   35.4110 H   0  0  0  0  0  0  0  0  0  0  0  0
   36.6420   29.7050   35.0580 H   0  0  0  0  0  0  0  0  0  0  0  0
   32.9020   29.2530   31.9930 H   0  0  0  0  0  0  0  0  0  0  0  0
   38.2900   23.9040   34.8800 C   0  0  0  0  0  0  0  0  0  0  0  0
   37.6460   23.7310   33.7990 O   0  0  0  0  0  0  0  0  0  0  0  0
   38.7800   25.2340   35.0870 N   0  0  0  0  0  0  0  0  0  0  0  0
   39.3020   25.4720   35.9440 H   0  0  0  0  0  0  0  0  0  0  0  0
   38.5960   22.9130   35.9450 C   0  0  0  0  0  3  0  0  0  0  0  0
   37.8490   23.1770   37.2110 C   0  0  0  0  0  2  0  0  0  0  0  0
   38.8990   23.3840   38.2990 C   0  0  0  0  0  2  0  0  0  0  0  0
   40.1380   22.6970   37.7510 C   0  0  0  0  0  2  0  0  0  0  0  0
   40.0530   23.0620   36.2900 C   0  0  0  0  0  2  0  0  0  0  0  0
  2  1  1  0  0  0  0
  3 13  1  0  0  0  0
  3  2  2  0  0  0  0
  4  3  1  0  0  0  0
  5  4  2  0  0  0  0
  5  6  1  0  0  0  0
  6  7  2  0  0  0  0
  7  2  1  0  0  0  0
  7 22  1  0  0  0  0
  8  4  1  0  0  0  0
  9  5  1  0  0  0  0
 10  6  1  0  0  0  0
 11 17  1  0  0  0  0
 12 11  1  0  0  0  0
 12 18  1  0  0  0  0
 13 12  2  0  0  0  0
 14 15  2  0  0  0  0
 14 13  1  0  0  0  0
 15 16  1  0  0  0  0
 16 11  2  0  0  0  0
 19 15  1  0  0  0  0
 20 22  1  0  0  0  0
 20 24  1  0  0  0  0
 21 20  2  0  0  0  0
 22 23  1  0  0  0  0
 24 28  1  0  0  0  0
 24 25  1  0  0  0  0
 25 26  1  0  0  0  0
 27 26  1  0  0  0  0
 28 27  1  0  0  0  0
M  END
>  <minimizedAffinity>
-5.36139488

$$$$

 OpenBabel03272503063D

 28 30  0  0  0  0  0  0  0  0999 V2000
   34.8810   28.7530   34.4390 F   0  0  0  0  0  0  0  0  0  0  0  0
   35.3890   29.5890   33.4980 C   0  0  0  0  0  0  0  0  0  0  0  0
   36.1090   29.0920   32.4500 C   0  0  0  0  0  0  0  0  0  0  0  0
   36.5930   29.9900   31.5390 C   0  0  0  0  0  0  0  0  0  0  0  0
   36.3780   31.3370   31.6490 C   0  0  0  0  0  0  0  0  0  0  0  0
   35.6450   31.8230   32.7180 C   0  0  0  0  0  0  0  0  0  0  0  0
   35.1470   30.9330   33.6490 C   0  0  0  0  0  0  0  0  0  0  0  0
   37.1660   29.6010   30.7060 H   0  0  0  0  0  0  0  0  0  0  0  0
   36.7660   32.0400   30.9210 H   0  0  0  0  0  0  0  0  0  0  0  0
   35.4370   32.8880   32.8640 H   0  0  0  0  0  0  0  0  0  0  0  0
   37.3640   25.5760   33.1230 C   0  0  0  0  0  0  0  0  0  0  0  0
   37.2000   26.9710   33.2060 C   0  0  0  0  0  0  0  0  0  0  0  0
   36.3060   27.6340   32.3890 C   0  0  0  0  0  0  0  0  0  0  0  0
   35.6020   26.8760   31.5110 N   0  0  0  0  0  0  0  0  0  0  0  0
   35.7680   25.5370   31.4410 C   0  0  0  0  0  0  0  0  0  0  0  0
   36.6250   24.9030   32.2250 N   0  0  0  0  0  0  0  0  0  0  0  0
   38.0850   25.1360   33.8000 H   0  0  0  0  0  0  0  0  0  0  0  0
   37.7710   27.5560   33.9130 H   0  0  0  0  0  0  0  0  0  0  0  0
   35.1460   25.0360   30.6970 H   0  0  0  0  0  0  0  0  0  0  0  0
   35.1620   31.6400   35.9490 C   0  0  0  0  0  0  0  0  0  0  0  0
   36.4010   31.3880   35.8310 O   0  0  0  0  0  0  0  0  0  0  0  0
   34.3810   31.4010   34.7730 N   0  0  0  0  0  0  0  0  0  0  0  0
   33.3630   31.5650   34.7780 H   0  0  0  0  0  0  0  0  0  0  0  0
   34.4280   32.1460   37.1380 C   0  0  0  0  0  3  0  0  0  0  0  0
   32.9580   31.8890   37.0620 C   0  0  0  0  0  2  0  0  0  0  0  0
   32.2760   33.2520   37.1330 C   0  0  0  0  0  2  0  0  0  0  0  0
   33.3110   34.1490   37.7910 C   0  0  0  0  0  2  0  0  0  0  0  0
   34.5820   33.6420   37.1570 C   0  0  0  0  0  2  0  0  0  0  0  0
  2  7  1  0  0  0  0
  2  1  1  0  0  0  0
  3  2  2  0  0  0  0
  4  5  2  0  0  0  0
  4  3  1  0  0  0  0
  5  6  1  0  0  0  0
  6 10  1  0  0  0  0
  6  7  2  0  0  0  0
  7 22  1  0  0  0  0
  8  4  1  0  0  0  0
  9  5  1  0  0  0  0
 11 12  1  0  0  0  0
 11 17  1  0  0  0  0
 12 18  1  0  0  0  0
 13  3  1  0  0  0  0
 13 12  2  0  0  0  0
 14 13  1  0  0  0  0
 15 14  2  0  0  0  0
 15 16  1  0  0  0  0
 16 11  2  0  0  0  0
 19 15  1  0  0  0  0
 20 24  1  0  0  0  0
 21 20  2  0  0  0  0
 22 23  1  0  0  0  0
 22 20  1  0  0  0  0
 24 28  1  0  0  0  0
 25 26  1  0  0  0  0
 25 24  1  0  0  0  0
 26 27  1  0  0  0  0
 28 27  1  0  0  0  0
M  END
>  <minimizedAffinity>
-5.29454947

$$$$

 OpenBabel03272503063D

 28 30  0  0  0  0  0  0  0  0999 V2000
   36.0010   28.1220   34.8530 F   0  0  0  0  0  0  0  0  0  0  0  0
   36.1180   28.8280   33.6990 C   0  0  0  0  0  0  0  0  0  0  0  0
   35.6080   30.0900   33.6090 C   0  0  0  0  0  0  0  0  0  0  0  0
   35.7610   30.7450   32.4170 C   0  0  0  0  0  0  0  0  0  0  0  0
   36.3960   30.1800   31.3450 C   0  0  0  0  0  0  0  0  0  0  0  0
   36.9070   28.8990   31.4560 C   0  0  0  0  0  0  0  0  0  0  0  0
   36.7630   28.2200   32.6490 C   0  0  0  0  0  0  0  0  0  0  0  0
   35.3570   31.7470   32.3390 H   0  0  0  0  0  0  0  0  0  0  0  0
   36.5110   30.7080   30.4050 H   0  0  0  0  0  0  0  0  0  0  0  0
   37.4250   28.3890   30.6350 H   0  0  0  0  0  0  0  0  0  0  0  0
   34.9200   31.9540   36.8400 C   0  0  0  0  0  0  0  0  0  0  0  0
   35.5900   31.4410   35.7140 C   0  0  0  0  0  0  0  0  0  0  0  0
   34.9370   30.6420   34.7980 C   0  0  0  0  0  0  0  0  0  0  0  0
   33.6280   30.3790   35.0400 N   0  0  0  0  0  0  0  0  0  0  0  0
   32.9950   30.8760   36.1250 C   0  0  0  0  0  0  0  0  0  0  0  0
   33.6230   31.6420   37.0020 N   0  0  0  0  0  0  0  0  0  0  0  0
   35.5070   32.5720   37.5080 H   0  0  0  0  0  0  0  0  0  0  0  0
   36.6330   31.6640   35.5410 H   0  0  0  0  0  0  0  0  0  0  0  0
   31.9440   30.5950   36.2120 H   0  0  0  0  0  0  0  0  0  0  0  0
   36.4930   25.8800   32.1590 C   0  0  0  0  0  0  0  0  0  0  0  0
   35.4520   26.3090   31.5700 O   0  0  0  0  0  0  0  0  0  0  0  0
   37.2820   26.8880   32.8020 N   0  0  0  0  0  0  0  0  0  0  0  0
   38.1380   26.6320   33.3170 H   0  0  0  0  0  0  0  0  0  0  0  0
   36.9900   24.4840   32.2630 C   0  0  0  0  0  3  0  0  0  0  0  0
   38.2710   24.2700   31.5220 C   0  0  0  0  0  2  0  0  0  0  0  0
   37.9960   23.1830   30.4870 C   0  0  0  0  0  2  0  0  0  0  0  0
   36.7830   22.4510   31.0330 C   0  0  0  0  0  2  0  0  0  0  0  0
   35.9770   23.5970   31.5920 C   0  0  0  0  0  2  0  0  0  0  0  0
  2  1  1  0  0  0  0
  3  2  1  0  0  0  0
  3 13  1  0  0  0  0
  4  3  2  0  0  0  0
  5  6  2  0  0  0  0
  5  4  1  0  0  0  0
  6  7  1  0  0  0  0
  7 22  1  0  0  0  0
  7  2  2  0  0  0  0
  8  4  1  0  0  0  0
  9  5  1  0  0  0  0
 10  6  1  0  0  0  0
 11 16  1  0  0  0  0
 11 17  1  0  0  0  0
 12 11  2  0  0  0  0
 13 14  2  0  0  0  0
 13 12  1  0  0  0  0
 14 15  1  0  0  0  0
 15 19  1  0  0  0  0
 15 16  2  0  0  0  0
 18 12  1  0  0  0  0
 20 24  1  0  0  0  0
 20 22  1  0  0  0  0
 21 20  2  0  0  0  0
 22 23  1  0  0  0  0
 25 24  1  0  0  0  0
 26 27  1  0  0  0  0
 26 25  1  0  0  0  0
 27 28  1  0  0  0  0
 28 24  1  0  0  0  0
M  END
>  <minimizedAffinity>
-5.20309353

$$$$

 OpenBabel03272503063D

 28 30  0  0  0  0  0  0  0  0999 V2000
   35.4880   26.1220   31.6280 F   0  0  0  0  0  0  0  0  0  0  0  0
   36.8450   26.1290   31.6680 C   0  0  0  0  0  0  0  0  0  0  0  0
   37.5140   27.2150   32.1550 C   0  0  0  0  0  0  0  0  0  0  0  0
   38.8810   27.1570   32.1670 C   0  0  0  0  0  0  0  0  0  0  0  0
   39.5730   26.0660   31.7160 C   0  0  0  0  0  0  0  0  0  0  0  0
   38.8780   24.9750   31.2260 C   0  0  0  0  0  0  0  0  0  0  0  0
   37.4980   25.0130   31.2050 C   0  0  0  0  0  0  0  0  0  0  0  0
   39.4170   28.0160   32.5520 H   0  0  0  0  0  0  0  0  0  0  0  0
   40.6570   26.0310   31.7300 H   0  0  0  0  0  0  0  0  0  0  0  0
   39.3720   24.0720   30.8490 H   0  0  0  0  0  0  0  0  0  0  0  0
   35.4730   29.5510   34.3390 C   0  0  0  0  0  0  0  0  0  0  0  0
   36.2380   28.4460   33.9190 C   0  0  0  0  0  0  0  0  0  0  0  0
   36.7110   28.3560   32.6260 C   0  0  0  0  0  0  0  0  0  0  0  0
   36.4020   29.3790   31.7890 N   0  0  0  0  0  0  0  0  0  0  0  0
   35.6670   30.4340   32.2030 C   0  0  0  0  0  0  0  0  0  0  0  0
   35.2150   30.5190   33.4430 N   0  0  0  0  0  0  0  0  0  0  0  0
   35.1420   29.5420   35.3690 H   0  0  0  0  0  0  0  0  0  0  0  0
   36.4720   27.6430   34.6030 H   0  0  0  0  0  0  0  0  0  0  0  0
   35.4850   31.1930   31.4400 H   0  0  0  0  0  0  0  0  0  0  0  0
   36.5150   22.8670   31.6700 C   0  0  0  0  0  0  0  0  0  0  0  0
   37.0280   23.0810   32.8130 O   0  0  0  0  0  0  0  0  0  0  0  0
   36.7420   23.8980   30.7030 N   0  0  0  0  0  0  0  0  0  0  0  0
   36.3750   23.8050   29.7430 H   0  0  0  0  0  0  0  0  0  0  0  0
   35.7200   21.6960   31.2160 C   0  0  0  0  0  3  0  0  0  0  0  0
   34.9110   21.0880   32.3150 C   0  0  0  0  0  2  0  0  0  0  0  0
   35.3710   19.6380   32.4400 C   0  0  0  0  0  2  0  0  0  0  0  0
   35.9950   19.3310   31.0890 C   0  0  0  0  0  2  0  0  0  0  0  0
   36.6930   20.6330   30.7870 C   0  0  0  0  0  2  0  0  0  0  0  0
  1  2  1  0  0  0  0
  2  3  1  0  0  0  0
  3  4  2  0  0  0  0
  3 13  1  0  0  0  0
  4  8  1  0  0  0  0
  5  9  1  0  0  0  0
  5  4  1  0  0  0  0
  6  5  2  0  0  0  0
  7  6  1  0  0  0  0
  7  2  2  0  0  0  0
 10  6  1  0  0  0  0
 11 17  1  0  0  0  0
 12 11  1  0  0  0  0
 12 18  1  0  0  0  0
 13 12  2  0  0  0  0
 14 15  2  0  0  0  0
 14 13  1  0  0  0  0
 15 16  1  0  0  0  0
 16 11  2  0  0  0  0
 19 15  1  0  0  0  0
 20 21  2  0  0  0  0
 22  7  1  0  0  0  0
 22 20  1  0  0  0  0
 23 22  1  0  0  0  0
 24 20  1  0  0  0  0
 24 25  1  0  0  0  0
 25 26  1  0  0  0  0
 27 26  1  0  0  0  0
 28 27  1  0  0  0  0
 28 24  1  0  0  0  0
M  END
>  <minimizedAffinity>
-5.10664225

$$$$

 OpenBabel03272503063D

 28 30  0  0  0  0  0  0  0  0999 V2000
   37.2070   28.4050   35.2780 F   0  0  0  0  0  0  0  0  0  0  0  0
   36.7560   27.9970   34.0640 C   0  0  0  0  0  0  0  0  0  0  0  0
   37.1120   26.7750   33.5710 C   0  0  0  0  0  0  0  0  0  0  0  0
   36.6230   26.4270   32.3420 C   0  0  0  0  0  0  0  0  0  0  0  0
   35.8070   27.2510   31.6160 C   0  0  0  0  0  0  0  0  0  0  0  0
   35.4570   28.4860   32.1320 C   0  0  0  0  0  0  0  0  0  0  0  0
   35.9390   28.8570   33.3700 C   0  0  0  0  0  0  0  0  0  0  0  0
   36.9030   25.4580   31.9460 H   0  0  0  0  0  0  0  0  0  0  0  0
   35.4260   26.9650   30.6420 H   0  0  0  0  0  0  0  0  0  0  0  0
   34.8080   29.1930   31.6010 H   0  0  0  0  0  0  0  0  0  0  0  0
   38.4490   24.6000   36.3770 C   0  0  0  0  0  0  0  0  0  0  0  0
   37.5840   25.4000   35.6060 C   0  0  0  0  0  0  0  0  0  0  0  0
   37.9920   25.9360   34.4010 C   0  0  0  0  0  0  0  0  0  0  0  0
   39.2580   25.6530   34.0040 N   0  0  0  0  0  0  0  0  0  0  0  0
   40.0800   24.8840   34.7520 C   0  0  0  0  0  0  0  0  0  0  0  0
   39.6870   24.3710   35.9070 N   0  0  0  0  0  0  0  0  0  0  0  0
   38.0500   24.2200   37.3080 H   0  0  0  0  0  0  0  0  0  0  0  0
   36.5790   25.6110   35.9420 H   0  0  0  0  0  0  0  0  0  0  0  0
   41.0740   24.7280   34.3290 H   0  0  0  0  0  0  0  0  0  0  0  0
   34.2830   30.1820   34.5070 C   0  0  0  0  0  0  0  0  0  0  0  0
   33.6160   29.1050   34.4090 O   0  0  0  0  0  0  0  0  0  0  0  0
   35.5960   30.1330   33.9390 N   0  0  0  0  0  0  0  0  0  0  0  0
   36.2060   30.9650   33.9590 H   0  0  0  0  0  0  0  0  0  0  0  0
   33.8780   31.4690   35.1290 C   0  0  0  0  0  3  0  0  0  0  0  0
   35.0460   32.2820   35.5840 C   0  0  0  0  0  2  0  0  0  0  0  0
   34.8700   32.4910   37.0860 C   0  0  0  0  0  2  0  0  0  0  0  0
   33.3830   32.2830   37.3150 C   0  0  0  0  0  2  0  0  0  0  0  0
   33.0990   31.1400   36.3730 C   0  0  0  0  0  2  0  0  0  0  0  0
  2  1  1  0  0  0  0
  3  2  1  0  0  0  0
  3 13  1  0  0  0  0
  4  3  2  0  0  0  0
  5  6  2  0  0  0  0
  5  4  1  0  0  0  0
  6  7  1  0  0  0  0
  7 22  1  0  0  0  0
  7  2  2  0  0  0  0
  8  4  1  0  0  0  0
  9  5  1  0  0  0  0
 10  6  1  0  0  0  0
 11 17  1  0  0  0  0
 12 18  1  0  0  0  0
 12 11  2  0  0  0  0
 13 12  1  0  0  0  0
 14 13  2  0  0  0  0
 14 15  1  0  0  0  0
 15 16  2  0  0  0  0
 16 11  1  0  0  0  0
 19 15  1  0  0  0  0
 20 24  1  0  0  0  0
 21 20  2  0  0  0  0
 22 23  1  0  0  0  0
 22 20  1  0  0  0  0
 24 25  1  0  0  0  0
 24 28  1  0  0  0  0
 25 26  1  0  0  0  0
 26 27  1  0  0  0  0
 28 27  1  0  0  0  0
M  END
>  <minimizedAffinity>
-5.09119415

$$$$

 OpenBabel03272503063D

 28 30  0  0  0  0  0  0  0  0999 V2000
   36.0850   27.7210   34.9420 F   0  0  0  0  0  0  0  0  0  0  0  0
   36.2470   28.2870   33.7180 C   0  0  0  0  0  0  0  0  0  0  0  0
   35.8100   29.5580   33.4840 C   0  0  0  0  0  0  0  0  0  0  0  0
   36.0040   30.0680   32.2290 C   0  0  0  0  0  0  0  0  0  0  0  0
   36.6100   29.3520   31.2320 C   0  0  0  0  0  0  0  0  0  0  0  0
   37.0470   28.0640   31.4890 C   0  0  0  0  0  0  0  0  0  0  0  0
   36.8600   27.5310   32.7490 C   0  0  0  0  0  0  0  0  0  0  0  0
   35.6590   31.0760   32.0360 H   0  0  0  0  0  0  0  0  0  0  0  0
   36.7590   29.7650   30.2400 H   0  0  0  0  0  0  0  0  0  0  0  0
   37.5380   27.4380   30.7350 H   0  0  0  0  0  0  0  0  0  0  0  0
   35.2220   31.7880   36.4960 C   0  0  0  0  0  0  0  0  0  0  0  0
   35.8660   31.1160   35.4400 C   0  0  0  0  0  0  0  0  0  0  0  0
   35.1670   30.2750   34.5970 C   0  0  0  0  0  0  0  0  0  0  0  0
   33.8400   30.1320   34.8410 N   0  0  0  0  0  0  0  0  0  0  0  0
   33.2320   30.7810   35.8570 C   0  0  0  0  0  0  0  0  0  0  0  0
   33.9030   31.5880   36.6640 N   0  0  0  0  0  0  0  0  0  0  0  0
   35.8440   32.4280   37.1080 H   0  0  0  0  0  0  0  0  0  0  0  0
   36.9240   31.2460   35.2650 H   0  0  0  0  0  0  0  0  0  0  0  0
   32.1620   30.5860   35.9520 H   0  0  0  0  0  0  0  0  0  0  0  0
   38.6300   26.1290   33.5800 C   0  0  0  0  0  0  0  0  0  0  0  0
   39.2230   27.2480   33.6830 O   0  0  0  0  0  0  0  0  0  0  0  0
   37.3000   26.1970   33.0520 N   0  0  0  0  0  0  0  0  0  0  0  0
   36.7460   25.3370   32.9200 H   0  0  0  0  0  0  0  0  0  0  0  0
   39.1340   24.7770   33.9340 C   0  0  0  0  0  3  0  0  0  0  0  0
   38.2650   24.0800   34.9300 C   0  0  0  0  0  2  0  0  0  0  0  0
   39.1470   23.7830   36.1400 C   0  0  0  0  0  2  0  0  0  0  0  0
   40.5600   23.8110   35.5830 C   0  0  0  0  0  2  0  0  0  0  0  0
   40.4670   24.9570   34.6070 C   0  0  0  0  0  2  0  0  0  0  0  0
  2  1  1  0  0  0  0
  3  2  1  0  0  0  0
  3 13  1  0  0  0  0
  4  3  2  0  0  0  0
  5  6  2  0  0  0  0
  5  4  1  0  0  0  0
  6  7  1  0  0  0  0
  7 22  1  0  0  0  0
  7  2  2  0  0  0  0
  8  4  1  0  0  0  0
  9  5  1  0  0  0  0
 10  6  1  0  0  0  0
 11 16  1  0  0  0  0
 11 17  1  0  0  0  0
 12 11  2  0  0  0  0
 13 14  2  0  0  0  0
 13 12  1  0  0  0  0
 14 15  1  0  0  0  0
 15 19  1  0  0  0  0
 15 16  2  0  0  0  0
 18 12  1  0  0  0  0
 20 21  2  0  0  0  0
 20 24  1  0  0  0  0
 22 20  1  0  0  0  0
 23 22  1  0  0  0  0
 24 28  1  0  0  0  0
 24 25  1  0  0  0  0
 25 26  1  0  0  0  0
 27 26  1  0  0  0  0
 28 27  1  0  0  0  0
M  END
>  <minimizedAffinity>
-5.07286787

$$$$

 OpenBabel03272503063D

 28 30  0  0  0  0  0  0  0  0999 V2000
   36.1310   27.7740   34.7290 F   0  0  0  0  0  0  0  0  0  0  0  0
   36.4060   28.1190   33.4450 C   0  0  0  0  0  0  0  0  0  0  0  0
   37.5100   27.6190   32.8180 C   0  0  0  0  0  0  0  0  0  0  0  0
   37.7280   28.0080   31.5250 C   0  0  0  0  0  0  0  0  0  0  0  0
   36.8880   28.8610   30.8640 C   0  0  0  0  0  0  0  0  0  0  0  0
   35.7720   29.3580   31.5160 C   0  0  0  0  0  0  0  0  0  0  0  0
   35.5340   28.9780   32.8210 C   0  0  0  0  0  0  0  0  0  0  0  0
   38.6040   27.6160   31.0230 H   0  0  0  0  0  0  0  0  0  0  0  0
   37.0700   29.1640   29.8380 H   0  0  0  0  0  0  0  0  0  0  0  0
   35.0610   30.0450   31.0430 H   0  0  0  0  0  0  0  0  0  0  0  0
   40.3610   26.2180   34.8920 C   0  0  0  0  0  0  0  0  0  0  0  0
   39.5580   27.1160   34.1640 C   0  0  0  0  0  0  0  0  0  0  0  0
   38.3740   26.7060   33.5850 C   0  0  0  0  0  0  0  0  0  0  0  0
   38.0310   25.4040   33.7520 N   0  0  0  0  0  0  0  0  0  0  0  0
   38.8110   24.5500   34.4520 C   0  0  0  0  0  0  0  0  0  0  0  0
   39.9450   24.9460   35.0070 N   0  0  0  0  0  0  0  0  0  0  0  0
   41.2730   26.6220   35.3130 H   0  0  0  0  0  0  0  0  0  0  0  0
   39.8510   28.1500   34.0450 H   0  0  0  0  0  0  0  0  0  0  0  0
   38.4300   23.5300   34.5170 H   0  0  0  0  0  0  0  0  0  0  0  0
   34.6190   30.7010   34.2290 C   0  0  0  0  0  0  0  0  0  0  0  0
   35.8010   31.1570   34.1340 O   0  0  0  0  0  0  0  0  0  0  0  0
   34.3850   29.4730   33.5300 N   0  0  0  0  0  0  0  0  0  0  0  0
   33.4590   29.0210   33.5620 H   0  0  0  0  0  0  0  0  0  0  0  0
   33.4610   31.2750   34.9640 C   0  0  0  0  0  3  0  0  0  0  0  0
   33.8750   32.2370   36.0310 C   0  0  0  0  0  2  0  0  0  0  0  0
   33.3350   31.6830   37.3460 C   0  0  0  0  0  2  0  0  0  0  0  0
   32.2000   30.7660   36.9230 C   0  0  0  0  0  2  0  0  0  0  0  0
   32.7780   30.1410   35.6780 C   0  0  0  0  0  2  0  0  0  0  0  0
  2  1  1  0  0  0  0
  3  2  2  0  0  0  0
  3 13  1  0  0  0  0
  4  3  1  0  0  0  0
  5  6  1  0  0  0  0
  5  4  2  0  0  0  0
  6  7  2  0  0  0  0
  7  2  1  0  0  0  0
  7 22  1  0  0  0  0
  8  4  1  0  0  0  0
  9  5  1  0  0  0  0
 10  6  1  0  0  0  0
 11 16  1  0  0  0  0
 11 17  1  0  0  0  0
 12 11  2  0  0  0  0
 13 14  2  0  0  0  0
 13 12  1  0  0  0  0
 14 15  1  0  0  0  0
 15 19  1  0  0  0  0
 15 16  2  0  0  0  0
 18 12  1  0  0  0  0
 20 24  1  0  0  0  0
 21 20  2  0  0  0  0
 22 23  1  0  0  0  0
 22 20  1  0  0  0  0
 24 28  1  0  0  0  0
 24 25  1  0  0  0  0
 25 26  1  0  0  0  0
 27 26  1  0  0  0  0
 28 27  1  0  0  0  0
M  END
>  <minimizedAffinity>
-4.97555685

$$$$

 OpenBabel03272503063D

 28 30  0  0  0  0  0  0  0  0999 V2000
   35.5470   28.3820   33.6740 F   0  0  0  0  0  0  0  0  0  0  0  0
   35.9110   28.9910   32.5160 C   0  0  0  0  0  0  0  0  0  0  0  0
   36.2970   28.2480   31.4380 C   0  0  0  0  0  0  0  0  0  0  0  0
   36.6510   28.9250   30.3030 C   0  0  0  0  0  0  0  0  0  0  0  0
   36.6260   30.2900   30.2250 C   0  0  0  0  0  0  0  0  0  0  0  0
   36.2320   31.0270   31.3280 C   0  0  0  0  0  0  0  0  0  0  0  0
   35.8710   30.3640   32.4830 C   0  0  0  0  0  0  0  0  0  0  0  0
   36.9590   28.3400   29.4450 H   0  0  0  0  0  0  0  0  0  0  0  0
   36.9100   30.8170   29.3200 H   0  0  0  0  0  0  0  0  0  0  0  0
   36.1920   32.1220   31.3310 H   0  0  0  0  0  0  0  0  0  0  0  0
   37.2830   24.7050   32.3680 C   0  0  0  0  0  0  0  0  0  0  0  0
   37.3090   26.1070   32.2430 C   0  0  0  0  0  0  0  0  0  0  0  0
   36.3000   26.7830   31.5860 C   0  0  0  0  0  0  0  0  0  0  0  0
   35.2940   26.0310   31.0740 N   0  0  0  0  0  0  0  0  0  0  0  0
   35.2790   24.6860   31.2000 C   0  0  0  0  0  0  0  0  0  0  0  0
   36.2470   24.0400   31.8300 N   0  0  0  0  0  0  0  0  0  0  0  0
   38.1130   24.2550   32.8980 H   0  0  0  0  0  0  0  0  0  0  0  0
   38.1210   26.6850   32.6600 H   0  0  0  0  0  0  0  0  0  0  0  0
   34.4180   24.1920   30.7470 H   0  0  0  0  0  0  0  0  0  0  0  0
   34.0430   31.3200   33.7220 C   0  0  0  0  0  0  0  0  0  0  0  0
   33.3760   30.8590   32.7450 O   0  0  0  0  0  0  0  0  0  0  0  0
   35.4560   31.0960   33.6490 N   0  0  0  0  0  0  0  0  0  0  0  0
   36.0800   31.4470   34.3910 H   0  0  0  0  0  0  0  0  0  0  0  0
   33.5500   32.0540   34.9170 C   0  0  0  0  0  3  0  0  0  0  0  0
   34.6300   32.8220   35.6080 C   0  0  0  0  0  2  0  0  0  0  0  0
   34.6990   32.2830   37.0340 C   0  0  0  0  0  2  0  0  0  0  0  0
   33.3350   31.6530   37.2580 C   0  0  0  0  0  2  0  0  0  0  0  0
   33.0780   31.0280   35.9100 C   0  0  0  0  0  2  0  0  0  0  0  0
  2  1  1  0  0  0  0
  3 13  1  0  0  0  0
  3  2  2  0  0  0  0
  4  3  1  0  0  0  0
  5  4  2  0  0  0  0
  5  6  1  0  0  0  0
  6 10  1  0  0  0  0
  6  7  2  0  0  0  0
  7  2  1  0  0  0  0
  7 22  1  0  0  0  0
  8  4  1  0  0  0  0
  9  5  1  0  0  0  0
 11 17  1  0  0  0  0
 12 11  1  0  0  0  0
 12 18  1  0  0  0  0
 13 12  2  0  0  0  0
 14 15  2  0  0  0  0
 14 13  1  0  0  0  0
 15 16  1  0  0  0  0
 16 11  2  0  0  0  0
 19 15  1  0  0  0  0
 20 24  1  0  0  0  0
 21 20  2  0  0  0  0
 22 20  1  0  0  0  0
 22 23  1  0  0  0  0
 24 25  1  0  0  0  0
 24 28  1  0  0  0  0
 25 26  1  0  0  0  0
 26 27  1  0  0  0  0
 28 27  1  0  0  0  0
M  END
>  <minimizedAffinity>
-4.96679831

$$$$

 OpenBabel03272503063D

 28 30  0  0  0  0  0  0  0  0999 V2000
   38.5210   26.5060   32.9800 F   0  0  0  0  0  0  0  0  0  0  0  0
   37.6920   25.5230   32.5450 C   0  0  0  0  0  0  0  0  0  0  0  0
   36.5980   25.8280   31.7880 C   0  0  0  0  0  0  0  0  0  0  0  0
   35.8040   24.7890   31.3830 C   0  0  0  0  0  0  0  0  0  0  0  0
   36.0750   23.4890   31.7100 C   0  0  0  0  0  0  0  0  0  0  0  0
   37.1890   23.1980   32.4790 C   0  0  0  0  0  0  0  0  0  0  0  0
   38.0030   24.2320   32.8970 C   0  0  0  0  0  0  0  0  0  0  0  0
   34.9340   25.0260   30.7830 H   0  0  0  0  0  0  0  0  0  0  0  0
   35.4390   22.6730   31.3850 H   0  0  0  0  0  0  0  0  0  0  0  0
   37.4610   22.1790   32.7750 H   0  0  0  0  0  0  0  0  0  0  0  0
   36.6990   29.2280   30.1090 C   0  0  0  0  0  0  0  0  0  0  0  0
   36.9450   27.8700   30.3860 C   0  0  0  0  0  0  0  0  0  0  0  0
   36.3620   27.2460   31.4710 C   0  0  0  0  0  0  0  0  0  0  0  0
   35.5490   28.0060   32.2480 N   0  0  0  0  0  0  0  0  0  0  0  0
   35.3210   29.3080   31.9730 C   0  0  0  0  0  0  0  0  0  0  0  0
   35.8800   29.9040   30.9320 N   0  0  0  0  0  0  0  0  0  0  0  0
   37.1960   29.6380   29.2390 H   0  0  0  0  0  0  0  0  0  0  0  0
   37.5960   27.2840   29.7520 H   0  0  0  0  0  0  0  0  0  0  0  0
   34.6490   29.8140   32.6690 H   0  0  0  0  0  0  0  0  0  0  0  0
   38.9450   24.0830   35.1060 C   0  0  0  0  0  0  0  0  0  0  0  0
   37.7640   24.4150   35.4370 O   0  0  0  0  0  0  0  0  0  0  0  0
   39.1690   23.9690   33.6960 N   0  0  0  0  0  0  0  0  0  0  0  0
   40.1010   23.7170   33.3330 H   0  0  0  0  0  0  0  0  0  0  0  0
   40.1090   23.8010   35.9860 C   0  0  0  0  0  3  0  0  0  0  0  0
   41.2050   23.0730   35.2780 C   0  0  0  0  0  2  0  0  0  0  0  0
   41.4120   21.7620   36.0320 C   0  0  0  0  0  2  0  0  0  0  0  0
   40.8440   22.0380   37.4140 C   0  0  0  0  0  2  0  0  0  0  0  0
   39.6360   22.8740   37.0720 C   0  0  0  0  0  2  0  0  0  0  0  0
  2  7  1  0  0  0  0
  2  1  1  0  0  0  0
  3  2  2  0  0  0  0
  4  5  2  0  0  0  0
  4  3  1  0  0  0  0
  5  6  1  0  0  0  0
  6 10  1  0  0  0  0
  6  7  2  0  0  0  0
  7 22  1  0  0  0  0
  8  4  1  0  0  0  0
  9  5  1  0  0  0  0
 11 12  2  0  0  0  0
 11 16  1  0  0  0  0
 12 13  1  0  0  0  0
 13  3  1  0  0  0  0
 13 14  2  0  0  0  0
 15 14  1  0  0  0  0
 15 19  1  0  0  0  0
 16 15  2  0  0  0  0
 17 11  1  0  0  0  0
 18 12  1  0  0  0  0
 20 21  2  0  0  0  0
 20 24  1  0  0  0  0
 22 20  1  0  0  0  0
 23 22  1  0  0  0  0
 24 28  1  0  0  0  0
 25 24  1  0  0  0  0
 25 26  1  0  0  0  0
 26 27  1  0  0  0  0
 28 27  1  0  0  0  0
M  END
>  <minimizedAffinity>
-4.95098829

$$$$
