
 OpenBabel03272509403D

 31 33  0  0  0  0  0  0  0  0999 V2000
   36.9910   30.9300   49.1340 C   0  0  0  0  0  0  0  0  0  0  0  0
   36.6260   31.8650   50.1250 C   0  0  0  0  0  0  0  0  0  0  0  0
   37.1960   33.1210   50.1980 C   0  0  0  0  0  0  0  0  0  0  0  0
   38.1660   33.5030   49.2720 C   0  0  0  0  0  0  0  0  0  0  0  0
   38.5160   32.5790   48.3060 C   0  0  0  0  0  0  0  0  0  0  0  0
   37.9300   31.3260   48.2550 C   0  0  0  0  0  0  0  0  0  0  0  0
   35.8830   31.5870   50.8430 H   0  0  0  0  0  0  0  0  0  0  0  0
   36.8640   33.7830   50.9860 H   0  0  0  0  0  0  0  0  0  0  0  0
   38.5990   34.4890   49.3470 H   0  0  0  0  0  0  0  0  0  0  0  0
   39.2730   32.9500   47.6280 H   0  0  0  0  0  0  0  0  0  0  0  0
   36.3400   29.6430   49.1390 C   0  0  0  0  0  0  0  0  0  0  0  0
   36.8710   28.7750   49.9050 O   0  0  0  0  0  0  0  0  0  0  0  0
   33.6460   30.1190   46.7410 C   0  0  0  0  0  0  0  0  0  0  0  0
   32.9560   28.9010   46.7660 C   0  0  0  0  0  0  0  0  0  0  0  0
   33.4170   27.9160   47.6060 C   0  0  0  0  0  0  0  0  0  0  0  0
   34.5090   28.1450   48.3790 N   0  0  0  0  0  0  0  0  0  0  0  0
   35.1560   29.3030   48.3470 C   0  0  0  0  0  0  0  0  0  0  0  0
   34.7110   30.2830   47.5210 N   0  0  0  0  0  0  0  0  0  0  0  0
   33.3390   30.9420   46.1010 H   0  0  0  0  0  0  0  0  0  0  0  0
   32.1080   28.8470   46.1070 H   0  0  0  0  0  0  0  0  0  0  0  0
   32.8880   26.9900   47.6210 H   0  0  0  0  0  0  0  0  0  0  0  0
   38.4100   30.4920   47.1880 C   0  0  0  0  0  3  0  0  0  0  0  0
   38.3390   30.7340   45.8860 C   0  0  0  0  0  3  0  0  0  0  0  0
   38.7900   29.9700   44.7090 C   0  0  0  0  0  0  0  0  0  0  0  0
   37.9230   29.5000   44.1660 H   0  0  0  0  0  0  0  0  0  0  0  0
   39.4120   29.1270   45.0720 H   0  0  0  0  0  0  0  0  0  0  0  0
   39.6230   30.7410   43.7390 C   0  0  0  0  0  3  0  0  0  0  0  0
   38.6450   31.5280   42.8620 C   0  0  0  0  0  2  0  0  0  0  0  0
   39.2610   32.8850   42.6840 C   0  0  0  0  0  2  0  0  0  0  0  0
   40.0970   33.1200   43.9000 C   0  0  0  0  0  2  0  0  0  0  0  0
   40.5330   31.7540   44.3600 C   0  0  0  0  0  2  0  0  0  0  0  0
  1 11  1  0  0  0  0
  1  2  1  0  0  0  0
  2  3  2  0  0  0  0
  2  7  1  0  0  0  0
  3  8  1  0  0  0  0
  4  9  1  0  0  0  0
  4  3  1  0  0  0  0
  5  4  2  0  0  0  0
  6  5  1  0  0  0  0
  6  1  2  0  0  0  0
 10  5  1  0  0  0  0
 11 12  2  0  0  0  0
 13 14  2  0  0  0  0
 13 18  1  0  0  0  0
 14 15  1  0  0  0  0
 15 21  1  0  0  0  0
 15 16  2  0  0  0  0
 17 16  1  0  0  0  0
 17 11  1  0  0  0  0
 18 17  2  0  0  0  0
 19 13  1  0  0  0  0
 20 14  1  0  0  0  0
 22  6  1  0  0  0  0
 23 22  2  0  0  0  0
 24 26  1  0  0  0  0
 24 23  1  0  0  0  0
 25 24  1  0  0  0  0
 27 31  1  0  0  0  0
 27 24  1  0  0  0  0
 28 27  1  0  0  0  0
 29 28  1  0  0  0  0
 29 30  1  0  0  0  0
 30 31  1  0  0  0  0
M  END
>  <minimizedAffinity>
-5.92797947

>  <minimizedRMSD>
1.08640087

$$$$
