
 OpenBabel03272504573D

 29 31  0  0  1  0  0  0  0  0999 V2000
   37.1860   31.8040   48.8260 C   0  0  1  0  0  0  0  0  0  0  0  0
   36.3190   30.8920   48.1170 C   0  0  0  0  0  0  0  0  0  0  0  0
   37.3430   30.3610   49.0610 C   0  0  2  0  0  0  0  0  0  0  0  0
   36.8460   32.3870   49.7510 H   0  0  0  0  0  0  0  0  0  0  0  0
   35.3120   31.2280   48.2720 H   0  0  0  0  0  0  0  0  0  0  0  0
   36.5380   30.7610   47.0350 H   0  0  0  0  0  0  0  0  0  0  0  0
   37.9450   29.6140   48.5630 H   0  0  0  0  0  0  0  0  0  0  0  0
   38.3150   32.5010   48.1170 C   0  0  0  0  0  0  0  0  0  0  0  0
   38.9350   33.5490   48.8330 C   0  0  0  0  0  0  0  0  0  0  0  0
   39.9700   34.1640   48.1720 C   0  0  0  0  0  0  0  0  0  0  0  0
   40.3300   33.7550   46.9270 N   0  0  0  0  0  0  0  0  0  0  0  0
   39.7100   32.7450   46.2750 C   0  0  0  0  0  0  0  0  0  0  0  0
   38.6690   32.1080   46.9030 N   0  0  0  0  0  0  0  0  0  0  0  0
   40.0750   32.2910   45.0020 N   0  0  0  0  0  0  0  0  0  0  0  0
   38.6520   33.8760   49.8230 H   0  0  0  0  0  0  0  0  0  0  0  0
   40.5040   34.9760   48.6410 H   0  0  0  0  0  0  0  0  0  0  0  0
   40.0680   32.8470   44.1150 H   0  0  0  0  0  0  0  0  0  0  0  0
   40.4170   31.3510   44.6680 H   0  0  0  0  0  0  0  0  0  0  0  0
   36.8580   29.9140   50.2960 O   0  0  0  0  0  0  0  0  0  0  0  0
   34.7980   28.8950   51.4620 O   0  0  0  0  0  0  0  0  0  0  0  0
   35.2770   29.4060   50.1420 P   0  0  1  0  0  0  0  0  0  0  0  0
   34.2760   30.8060   49.8770 O   0  0  0  0  0  0  0  0  0  0  0  0
   34.6310   31.5600   50.4140 H   0  0  0  0  0  0  0  0  0  0  0  0
   35.1190   28.3730   48.8660 O   0  0  0  0  0  0  0  0  0  0  0  0
   34.0640   27.5540   48.7730 C   0  0  0  0  0  0  0  0  0  0  0  0
   34.0660   26.9480   47.3810 C   0  0  0  0  0  0  0  0  0  0  0  0
   32.7960   26.1290   47.4540 C   0  0  0  0  0  0  0  0  0  0  0  0
   31.8690   26.9540   48.3030 C   0  0  0  0  0  0  0  0  0  0  0  0
   32.6950   28.1200   48.8440 C   0  0  0  0  0  0  0  0  0  0  0  0
  1  3  1  0  0  0  0
  1  4  1  1  0  0  0
  2  5  1  0  0  0  0
  2  1  1  0  0  0  0
  2  3  1  0  0  0  0
  3  7  1  6  0  0  0
  3 19  1  0  0  0  0
  6  2  1  0  0  0  0
  8  1  1  0  0  0  0
  8  9  1  0  0  0  0
  9 15  1  0  0  0  0
 10 16  1  0  0  0  0
 10  9  2  0  0  0  0
 11 10  1  0  0  0  0
 12 13  1  0  0  0  0
 12 11  2  0  0  0  0
 13  8  2  0  0  0  0
 14 12  1  0  0  0  0
 17 14  1  0  0  0  0
 18 14  1  0  0  0  0
 21 19  1  0  0  0  0
 21 20  2  1  0  0  0
 22 21  1  0  0  0  0
 22 23  1  0  0  0  0
 24 21  1  0  0  0  0
 25 29  1  0  0  0  0
 25 24  1  0  0  0  0
 26 27  1  0  0  0  0
 26 25  1  0  0  0  0
 27 28  1  0  0  0  0
 28 29  1  0  0  0  0
M  END
>  <minimizedAffinity>
-4.91861343

>  <minimizedRMSD>
1.59881353

$$$$
