
 OpenBabel03272507303D

 25 27  0  0  0  0  0  0  0  0999 V2000
   35.9070   29.2100   49.7650 C   0  0  0  0  0  0  0  0  0  0  0  0
   34.8670   29.7520   50.4430 C   0  0  0  0  0  0  0  0  0  0  0  0
   33.6860   29.1770   49.9750 C   0  0  0  0  0  0  0  0  0  0  0  0
   34.1080   28.2680   48.9800 C   0  0  0  0  0  0  0  0  0  0  0  0
   35.3950   28.3620   48.9370 O   0  0  0  0  0  0  0  0  0  0  0  0
   34.8950   30.5010   51.2220 H   0  0  0  0  0  0  0  0  0  0  0  0
   32.6750   29.3560   50.2730 H   0  0  0  0  0  0  0  0  0  0  0  0
   37.2860   29.5850   50.0050 C   0  0  0  0  0  0  0  0  0  0  0  0
   37.9170   29.0120   50.9030 O   0  0  0  0  0  0  0  0  0  0  0  0
   37.8410   30.6300   49.1550 C   0  0  0  0  0  0  0  0  0  0  0  0
   38.1560   31.8400   49.7740 C   0  0  0  0  0  0  0  0  0  0  0  0
   38.6860   32.8630   49.0030 C   0  0  0  0  0  0  0  0  0  0  0  0
   38.8680   32.6170   47.6640 N   0  0  0  0  0  0  0  0  0  0  0  0
   38.5590   31.4520   47.0920 C   0  0  0  0  0  0  0  0  0  0  0  0
   38.0450   30.4540   47.8290 N   0  0  0  0  0  0  0  0  0  0  0  0
   37.9880   31.9730   50.8370 H   0  0  0  0  0  0  0  0  0  0  0  0
   38.9290   33.7960   49.4800 H   0  0  0  0  0  0  0  0  0  0  0  0
   38.7420   31.3600   46.0280 H   0  0  0  0  0  0  0  0  0  0  0  0
   33.1960   27.4230   48.1990 C   0  0  0  0  0  0  0  0  0  0  0  0
   33.6660   26.5010   47.4770 O   0  0  0  0  0  0  0  0  0  0  0  0
   31.7620   27.7170   48.3170 C   0  0  0  0  0  0  0  0  0  0  0  0
   30.9170   26.4480   48.4210 C   0  0  0  0  0  0  0  0  0  0  0  0
   29.5260   27.0440   48.2970 C   0  0  0  0  0  0  0  0  0  0  0  0
   29.6960   28.3450   47.5000 C   0  0  0  0  0  0  0  0  0  0  0  0
   31.1620   28.2820   47.0520 C   0  0  0  0  0  0  0  0  0  0  0  0
  1  8  1  0  0  0  0
  1  2  2  0  0  0  0
  2  6  1  0  0  0  0
  3  7  1  0  0  0  0
  3  2  1  0  0  0  0
  4  3  2  0  0  0  0
  5  4  1  0  0  0  0
  5  1  1  0  0  0  0
  8  9  2  0  0  0  0
 10 11  1  0  0  0  0
 10  8  1  0  0  0  0
 11 16  1  0  0  0  0
 12 17  1  0  0  0  0
 12 11  2  0  0  0  0
 13 12  1  0  0  0  0
 14 13  2  0  0  0  0
 14 15  1  0  0  0  0
 15 10  2  0  0  0  0
 18 14  1  0  0  0  0
 19 21  1  0  0  0  0
 19  4  1  0  0  0  0
 20 19  2  0  0  0  0
 21 22  1  0  0  0  0
 23 22  1  0  0  0  0
 24 23  1  0  0  0  0
 25 24  1  0  0  0  0
 25 21  1  0  0  0  0
M  END
>  <minimizedAffinity>
-5.39882421

>  <minimizedRMSD>
2.87806082

$$$$
