
 OpenBabel03272507273D

 35 37  0  0  1  0  0  0  0  0999 V2000
   36.9020   30.1760   49.3350 C   0  0  0  0  0  0  0  0  0  0  0  0
   37.8780   30.8250   48.5620 C   0  0  0  0  0  0  0  0  0  0  0  0
   37.6090   31.0310   47.2010 C   0  0  0  0  0  0  0  0  0  0  0  0
   36.4440   30.5980   46.7190 N   0  0  0  0  0  0  0  0  0  0  0  0
   35.5250   29.9770   47.4850 C   0  0  0  0  0  0  0  0  0  0  0  0
   35.7600   29.7720   48.7790 N   0  0  0  0  0  0  0  0  0  0  0  0
   38.5570   31.6750   46.3860 N   0  0  0  0  0  0  0  0  0  0  0  0
   39.5340   32.6740   46.8320 C   0  0  0  0  0  0  0  0  0  0  0  0
   40.1650   33.2450   45.6070 C   0  0  0  0  0  0  0  0  0  0  0  0
   39.2000   32.8830   44.5370 C   0  0  0  0  0  0  0  0  0  0  0  0
   38.7760   31.5080   44.9780 C   0  0  2  0  0  0  0  0  0  0  0  0
   37.0490   29.9870   50.3870 H   0  0  0  0  0  0  0  0  0  0  0  0
   38.8000   31.1500   49.0150 H   0  0  0  0  0  0  0  0  0  0  0  0
   34.6130   29.6680   46.9900 H   0  0  0  0  0  0  0  0  0  0  0  0
   40.3220   32.0810   47.3610 H   0  0  0  0  0  0  0  0  0  0  0  0
   39.0940   33.4050   47.5050 H   0  0  0  0  0  0  0  0  0  0  0  0
   40.1330   34.3670   45.7380 H   0  0  0  0  0  0  0  0  0  0  0  0
   41.1880   32.9350   45.3940 H   0  0  0  0  0  0  0  0  0  0  0  0
   39.6880   32.7800   43.5330 H   0  0  0  0  0  0  0  0  0  0  0  0
   38.3360   33.5690   44.4920 H   0  0  0  0  0  0  0  0  0  0  0  0
   37.6570   30.9540   44.1620 C   0  0  0  0  0  0  0  0  0  0  0  0
   36.5030   31.5960   44.5780 F   0  0  0  0  0  0  0  0  0  0  0  0
   37.4420   29.6110   44.2820 F   0  0  0  0  0  0  0  0  0  0  0  0
   37.8840   31.3680   42.8560 F   0  0  0  0  0  0  0  0  0  0  0  0
   39.9310   30.5910   44.8570 C   0  0  0  0  0  0  0  0  0  0  0  0
   39.6020   29.6240   45.2880 H   0  0  0  0  0  0  0  0  0  0  0  0
   40.7100   30.9440   45.6010 H   0  0  0  0  0  0  0  0  0  0  0  0
   40.4340   30.7690   43.7390 O   0  0  0  0  0  0  0  0  0  0  0  0
   40.7390   30.0490   42.6390 C   0  0  0  0  0  0  0  0  0  0  0  0
   40.7260   30.8050   41.6330 O   0  0  0  0  0  0  0  0  0  0  0  0
   41.0930   28.8060   41.9720 C   0  0  0  0  0  3  0  0  0  0  0  0
   39.7980   28.0670   41.6450 C   0  0  0  0  0  2  0  0  0  0  0  0
   40.3480   27.0960   40.5910 C   0  0  0  0  0  2  0  0  0  0  0  0
   40.9630   28.1040   39.6400 C   0  0  0  0  0  2  0  0  0  0  0  0
   41.7350   29.0000   40.6170 C   0  0  0  0  0  2  0  0  0  0  0  0
  1 12  1  0  0  0  0
  2 13  1  0  0  0  0
  2  1  2  0  0  0  0
  3  2  1  0  0  0  0
  4  3  2  0  0  0  0
  4  5  1  0  0  0  0
  5  6  2  0  0  0  0
  6  1  1  0  0  0  0
  7  8  1  0  0  0  0
  7  3  1  0  0  0  0
  8 15  1  0  0  0  0
  8 16  1  0  0  0  0
  9 17  1  0  0  0  0
  9  8  1  0  0  0  0
 10 11  1  0  0  0  0
 10  9  1  0  0  0  0
 11 21  1  6  0  0  0
 11  7  1  0  0  0  0
 14  5  1  0  0  0  0
 18  9  1  0  0  0  0
 19 10  1  0  0  0  0
 20 10  1  0  0  0  0
 21 23  1  0  0  0  0
 21 22  1  0  0  0  0
 24 21  1  0  0  0  0
 25 11  1  0  0  0  0
 25 26  1  0  0  0  0
 25 27  1  0  0  0  0
 28 25  1  0  0  0  0
 29 28  1  0  0  0  0
 30 29  2  0  0  0  0
 31 29  1  0  0  0  0
 32 31  1  0  0  0  0
 33 32  1  0  0  0  0
 34 33  1  0  0  0  0
 34 35  1  0  0  0  0
 35 31  1  0  0  0  0
M  END
>  <minimizedAffinity>
-5.16162729

>  <minimizedRMSD>
1.50849187

$$$$
