
 OpenBabel03272509313D

 34 36  0  0  1  0  0  0  0  0999 V2000
   36.5180   30.8150   48.8760 C   0  0  2  0  0  0  0  0  0  0  0  0
   37.4180   31.5630   49.8100 C   0  0  0  0  0  0  0  0  0  0  0  0
   38.1020   30.6640   50.8150 C   0  0  0  0  0  0  0  0  0  0  0  0
   37.0850   29.8490   51.6050 C   0  0  0  0  0  0  0  0  0  0  0  0
   35.8770   29.4320   50.8060 C   0  0  0  0  0  0  0  0  0  0  0  0
   36.2730   29.4160   49.3190 C   0  0  1  0  0  0  0  0  0  0  0  0
   35.4960   31.2740   48.7560 H   0  0  0  0  0  0  0  0  0  0  0  0
   36.7030   32.1830   50.4480 H   0  0  0  0  0  0  0  0  0  0  0  0
   38.0980   32.2770   49.3870 H   0  0  0  0  0  0  0  0  0  0  0  0
   38.8880   30.0280   50.3940 H   0  0  0  0  0  0  0  0  0  0  0  0
   38.5780   31.3470   51.5490 H   0  0  0  0  0  0  0  0  0  0  0  0
   36.8190   30.3100   52.5700 H   0  0  0  0  0  0  0  0  0  0  0  0
   37.6180   28.8970   51.8770 H   0  0  0  0  0  0  0  0  0  0  0  0
   35.5270   28.4190   51.0910 H   0  0  0  0  0  0  0  0  0  0  0  0
   35.0800   30.1590   50.9850 H   0  0  0  0  0  0  0  0  0  0  0  0
   37.1690   28.8470   49.3640 H   0  0  0  0  0  0  0  0  0  0  0  0
   37.0720   30.7940   47.4940 C   0  0  0  0  0  0  0  0  0  0  0  0
   38.4510   31.0420   47.3930 C   0  0  0  0  0  0  0  0  0  0  0  0
   38.9890   31.0250   46.1010 C   0  0  0  0  0  0  0  0  0  0  0  0
   38.1620   30.7700   45.0340 N   0  0  0  0  0  0  0  0  0  0  0  0
   36.8190   30.5330   45.1940 C   0  0  0  0  0  0  0  0  0  0  0  0
   36.2930   30.5490   46.4320 N   0  0  0  0  0  0  0  0  0  0  0  0
   39.1940   31.2430   48.1360 H   0  0  0  0  0  0  0  0  0  0  0  0
   40.0220   31.1960   45.8610 H   0  0  0  0  0  0  0  0  0  0  0  0
   36.2360   30.3400   44.3160 H   0  0  0  0  0  0  0  0  0  0  0  0
   34.0510   28.3520   48.7150 C   0  0  0  0  0  0  0  0  0  0  0  0
   33.2560   28.6900   49.6370 O   0  0  0  0  0  0  0  0  0  0  0  0
   35.4160   28.6560   48.4830 N   0  0  0  0  0  0  0  0  0  0  0  0
   35.7130   28.2150   47.5550 H   0  0  0  0  0  0  0  0  0  0  0  0
   33.2060   27.4950   47.8350 C   0  0  0  0  0  3  0  0  0  0  0  0
   32.9310   28.1220   46.5120 C   0  0  0  0  0  2  0  0  0  0  0  0
   33.4630   27.1320   45.4800 C   0  0  0  0  0  2  0  0  0  0  0  0
   33.2390   25.8150   46.1850 C   0  0  0  0  0  2  0  0  0  0  0  0
   33.8240   26.1430   47.5640 C   0  0  0  0  0  2  0  0  0  0  0  0
  1  7  1  6  0  0  0
  1  6  1  0  0  0  0
  1  2  1  0  0  0  0
  2  8  1  0  0  0  0
  2  3  1  0  0  0  0
  3 11  1  0  0  0  0
  3  4  1  0  0  0  0
  4 13  1  0  0  0  0
  4 12  1  0  0  0  0
  5 15  1  0  0  0  0
  5 14  1  0  0  0  0
  5  4  1  0  0  0  0
  6 16  1  6  0  0  0
  6  5  1  0  0  0  0
  9  2  1  0  0  0  0
 10  3  1  0  0  0  0
 17  1  1  0  0  0  0
 18 17  1  0  0  0  0
 18 23  1  0  0  0  0
 19 18  2  0  0  0  0
 20 21  2  0  0  0  0
 20 19  1  0  0  0  0
 21 22  1  0  0  0  0
 22 17  2  0  0  0  0
 24 19  1  0  0  0  0
 25 21  1  0  0  0  0
 26 27  2  0  0  0  0
 28 26  1  0  0  0  0
 28  6  1  0  0  0  0
 29 28  1  0  0  0  0
 30 26  1  0  0  0  0
 31 30  1  0  0  0  0
 32 33  1  0  0  0  0
 32 31  1  0  0  0  0
 33 34  1  0  0  0  0
 34 30  1  0  0  0  0
M  END
>  <minimizedAffinity>
-5.87748623

>  <minimizedRMSD>
1.13086855

$$$$
