
 OpenBabel03272503493D

 33 35  0  0  1  0  0  0  0  0999 V2000
   33.1060   27.3370   45.8910 C   0  0  1  0  0  0  0  0  0  0  0  0
   33.9170   27.4760   47.1990 C   0  0  2  0  0  0  0  0  0  0  0  0
   33.8090   26.2420   47.7610 O   0  0  0  0  0  0  0  0  0  0  0  0
   34.0560   25.3640   46.7200 C   0  0  0  0  0  0  0  0  0  0  0  0
   33.4570   25.9550   45.4640 C   0  0  2  0  0  0  0  0  0  0  0  0
   33.4910   28.0760   45.1560 H   0  0  0  0  0  0  0  0  0  0  0  0
   34.9350   27.7810   46.8660 H   0  0  0  0  0  0  0  0  0  0  0  0
   35.1260   25.0950   46.6200 H   0  0  0  0  0  0  0  0  0  0  0  0
   33.5120   24.4240   46.9570 H   0  0  0  0  0  0  0  0  0  0  0  0
   32.6110   25.3480   45.0870 H   0  0  0  0  0  0  0  0  0  0  0  0
   31.7610   27.5410   46.1320 O   0  0  0  0  0  0  0  0  0  0  0  0
   31.3820   28.1290   45.4140 H   0  0  0  0  0  0  0  0  0  0  0  0
   33.3310   28.5150   47.8580 O   0  0  0  0  0  0  0  0  0  0  0  0
   35.3480   29.8270   46.7710 O   0  0  0  0  0  0  0  0  0  0  0  0
   34.0960   29.9960   47.6180 P   0  0  1  0  0  0  0  0  0  0  0  0
   33.0930   31.0320   46.7290 O   0  0  0  0  0  0  0  0  0  0  0  0
   32.2620   31.2180   47.2290 H   0  0  0  0  0  0  0  0  0  0  0  0
   34.4170   30.6450   49.1600 O   0  0  0  0  0  0  0  0  0  0  0  0
   35.6410   30.5190   49.7780 C   0  0  0  0  0  0  0  0  0  0  0  0
   35.9610   29.4980   50.7010 C   0  0  0  0  0  0  0  0  0  0  0  0
   37.2410   29.4970   51.2470 C   0  0  0  0  0  0  0  0  0  0  0  0
   38.1130   30.4750   50.8650 N   0  0  0  0  0  0  0  0  0  0  0  0
   37.7730   31.4460   49.9730 C   0  0  0  0  0  0  0  0  0  0  0  0
   36.5250   31.4640   49.4280 N   0  0  0  0  0  0  0  0  0  0  0  0
   35.1900   28.7740   50.9300 H   0  0  0  0  0  0  0  0  0  0  0  0
   37.4960   28.7240   51.9510 H   0  0  0  0  0  0  0  0  0  0  0  0
   38.5010   32.1930   49.7080 H   0  0  0  0  0  0  0  0  0  0  0  0
   34.4230   25.9920   44.4590 O   0  0  0  0  0  0  0  0  0  0  0  0
   34.1080   25.1800   43.3760 C   0  0  0  0  0  3  0  0  0  0  0  0
   33.7470   26.0250   42.1850 C   0  0  0  0  0  2  0  0  0  0  0  0
   34.7310   25.7180   41.1030 C   0  0  0  0  0  2  0  0  0  0  0  0
   35.5070   24.4940   41.5070 C   0  0  0  0  0  2  0  0  0  0  0  0
   35.2530   24.2910   42.9740 C   0  0  0  0  0  2  0  0  0  0  0  0
  1  6  1  6  0  0  0
  1 11  1  0  0  0  0
  1  2  1  0  0  0  0
  2  7  1  6  0  0  0
  2  3  1  0  0  0  0
  2 13  1  0  0  0  0
  4  9  1  0  0  0  0
  4  3  1  0  0  0  0
  5 10  1  6  0  0  0
  5  1  1  0  0  0  0
  5  4  1  0  0  0  0
  8  4  1  0  0  0  0
 12 11  1  0  0  0  0
 15 14  2  6  0  0  0
 15 13  1  0  0  0  0
 15 18  1  0  0  0  0
 16 17  1  0  0  0  0
 16 15  1  0  0  0  0
 18 19  1  0  0  0  0
 19 20  1  0  0  0  0
 20 25  1  0  0  0  0
 20 21  2  0  0  0  0
 21 26  1  0  0  0  0
 22 21  1  0  0  0  0
 23 22  2  0  0  0  0
 24 19  2  0  0  0  0
 24 23  1  0  0  0  0
 27 23  1  0  0  0  0
 28  5  1  0  0  0  0
 29 28  1  0  0  0  0
 30 29  1  0  0  0  0
 31 32  1  0  0  0  0
 31 30  1  0  0  0  0
 32 33  1  0  0  0  0
 33 29  1  0  0  0  0
M  END
>  <minimizedAffinity>
-3.91971731

>  <minimizedRMSD>
0.0998364016

$$$$
