
 OpenBabel03272501053D

 26 28  0  0  1  0  0  0  0  0999 V2000
   38.5800   31.3120   47.7580 C   0  0  2  0  0  0  0  0  0  0  0  0
   37.5820   31.9940   48.7030 C   0  0  2  0  0  0  0  0  0  0  0  0
   38.4430   33.0250   49.3120 C   0  0  0  0  0  0  0  0  0  0  0  0
   39.2600   33.4990   48.2930 O   0  0  0  0  0  0  0  0  0  0  0  0
   39.2580   32.6090   47.2620 C   0  0  0  0  0  0  0  0  0  0  0  0
   39.2910   30.7640   48.3620 H   0  0  0  0  0  0  0  0  0  0  0  0
   36.8310   32.4280   48.0060 H   0  0  0  0  0  0  0  0  0  0  0  0
   39.0340   32.6460   50.1740 H   0  0  0  0  0  0  0  0  0  0  0  0
   37.8100   33.8590   49.6800 H   0  0  0  0  0  0  0  0  0  0  0  0
   40.3100   32.3910   46.9910 H   0  0  0  0  0  0  0  0  0  0  0  0
   38.7380   33.0340   46.3990 H   0  0  0  0  0  0  0  0  0  0  0  0
   36.8930   29.6550   51.5900 C   0  0  0  0  0  0  0  0  0  0  0  0
   37.5840   30.5810   50.7700 C   0  0  0  0  0  0  0  0  0  0  0  0
   36.9390   31.0670   49.6040 C   0  0  0  0  0  0  0  0  0  0  0  0
   35.6700   30.6050   49.3440 N   0  0  0  0  0  0  0  0  0  0  0  0
   35.0480   29.7350   50.1350 C   0  0  0  0  0  0  0  0  0  0  0  0
   35.6470   29.2510   51.2610 N   0  0  0  0  0  0  0  0  0  0  0  0
   37.3400   29.2540   52.4880 H   0  0  0  0  0  0  0  0  0  0  0  0
   38.5770   30.8910   51.0540 H   0  0  0  0  0  0  0  0  0  0  0  0
   34.0480   29.4350   49.8340 H   0  0  0  0  0  0  0  0  0  0  0  0
   37.9710   30.6750   46.7230 O   0  0  0  0  0  0  0  0  0  0  0  0
   38.3510   30.9490   45.4500 C   0  0  0  0  0  0  0  0  0  0  0  0
   39.0890   29.8960   44.6980 C   0  0  0  0  0  0  0  0  0  0  0  0
   39.0070   30.4010   43.2530 C   0  0  0  0  0  0  0  0  0  0  0  0
   38.0180   31.5370   43.2570 C   0  0  0  0  0  0  0  0  0  0  0  0
   37.1970   31.2480   44.5110 C   0  0  0  0  0  0  0  0  0  0  0  0
  1  6  1  1  0  0  0
  1  2  1  0  0  0  0
  2  7  1  6  0  0  0
  2  3  1  0  0  0  0
  2 14  1  0  0  0  0
  3  9  1  0  0  0  0
  3  8  1  0  0  0  0
  4  3  1  0  0  0  0
  5  1  1  0  0  0  0
  5  4  1  0  0  0  0
 10  5  1  0  0  0  0
 11  5  1  0  0  0  0
 12 18  1  0  0  0  0
 13 19  1  0  0  0  0
 13 12  2  0  0  0  0
 14 13  1  0  0  0  0
 15 14  2  0  0  0  0
 15 16  1  0  0  0  0
 16 17  2  0  0  0  0
 17 12  1  0  0  0  0
 20 16  1  0  0  0  0
 21  1  1  0  0  0  0
 22 21  1  0  0  0  0
 23 22  1  0  0  0  0
 24 25  1  0  0  0  0
 24 23  1  0  0  0  0
 25 26  1  0  0  0  0
 26 22  1  0  0  0  0
M  END
>  <minimizedAffinity>
-5.16413355

>  <minimizedRMSD>
2.30470753

$$$$
