
 OpenBabel03272500583D

 31 33  0  0  0  0  0  0  0  0999 V2000
   38.1610   31.8850   47.4010 C   0  0  0  0  0  0  0  0  0  0  0  0
   38.6720   32.7650   48.3090 C   0  0  0  0  0  0  0  0  0  0  0  0
   38.2110   32.8340   49.6190 C   0  0  0  0  0  0  0  0  0  0  0  0
   37.1490   31.9280   50.0100 C   0  0  0  0  0  0  0  0  0  0  0  0
   36.6850   31.0790   49.0590 C   0  0  0  0  0  0  0  0  0  0  0  0
   37.1340   31.0190   47.7950 C   0  0  0  0  0  0  0  0  0  0  0  0
   39.4800   33.4680   48.0500 H   0  0  0  0  0  0  0  0  0  0  0  0
   38.6640   33.5660   50.3020 H   0  0  0  0  0  0  0  0  0  0  0  0
   36.8980   32.0940   51.0400 H   0  0  0  0  0  0  0  0  0  0  0  0
   35.9350   30.4910   49.5650 H   0  0  0  0  0  0  0  0  0  0  0  0
   40.0110   31.2540   45.9300 C   0  0  0  0  0  0  0  0  0  0  0  0
   38.7630   31.9140   46.0840 C   0  0  0  0  0  0  0  0  0  0  0  0
   38.2760   32.4970   44.9420 C   0  0  0  0  0  0  0  0  0  0  0  0
   38.9640   32.4220   43.7890 N   0  0  0  0  0  0  0  0  0  0  0  0
   40.1180   31.8080   43.6610 C   0  0  0  0  0  0  0  0  0  0  0  0
   40.6320   31.2280   44.7340 N   0  0  0  0  0  0  0  0  0  0  0  0
   40.4460   30.7800   46.7780 H   0  0  0  0  0  0  0  0  0  0  0  0
   37.3230   33.0010   45.0610 H   0  0  0  0  0  0  0  0  0  0  0  0
   40.6630   31.7530   42.7270 H   0  0  0  0  0  0  0  0  0  0  0  0
   35.1550   30.0170   47.0080 C   0  0  0  0  0  0  0  0  0  0  0  0
   34.5650   30.6680   47.9600 O   0  0  0  0  0  0  0  0  0  0  0  0
   36.5930   30.1500   46.8820 N   0  0  0  0  0  0  0  0  0  0  0  0
   37.1380   29.6400   46.1820 H   0  0  0  0  0  0  0  0  0  0  0  0
   34.4090   29.2350   46.1680 O   0  0  0  0  0  0  0  0  0  0  0  0
   33.1190   29.5340   45.7460 C   0  0  0  0  0  0  0  0  0  0  0  0
   32.8900   30.2660   44.6750 O   0  0  0  0  0  0  0  0  0  0  0  0
   31.9020   29.0420   46.4460 C   0  0  0  0  0  3  0  0  0  0  0  0
   30.6600   29.7750   45.9810 C   0  0  0  0  0  2  0  0  0  0  0  0
   29.5250   28.7910   46.1650 C   0  0  0  0  0  2  0  0  0  0  0  0
   30.1750   27.5190   46.7100 C   0  0  0  0  0  2  0  0  0  0  0  0
   31.5510   27.6330   46.0430 C   0  0  0  0  0  2  0  0  0  0  0  0
  1  6  2  0  0  0  0
  1  2  1  0  0  0  0
  2  3  2  0  0  0  0
  3  4  1  0  0  0  0
  3  8  1  0  0  0  0
  4  9  1  0  0  0  0
  5 10  1  0  0  0  0
  5  4  2  0  0  0  0
  6  5  1  0  0  0  0
  7  2  1  0  0  0  0
 11 12  1  0  0  0  0
 11 17  1  0  0  0  0
 12  1  1  0  0  0  0
 13 18  1  0  0  0  0
 13 12  2  0  0  0  0
 14 13  1  0  0  0  0
 15 14  2  0  0  0  0
 15 16  1  0  0  0  0
 16 11  2  0  0  0  0
 19 15  1  0  0  0  0
 20 21  2  0  0  0  0
 22 20  1  0  0  0  0
 22  6  1  0  0  0  0
 23 22  1  0  0  0  0
 24 20  1  0  0  0  0
 25 24  1  0  0  0  0
 25 27  1  0  0  0  0
 26 25  2  0  0  0  0
 28 29  1  0  0  0  0
 28 27  1  0  0  0  0
 29 30  1  0  0  0  0
 31 27  1  0  0  0  0
 31 30  1  0  0  0  0
M  END
>  <minimizedAffinity>
-5.41965961

>  <minimizedRMSD>
0.962066352

$$$$
