
 OpenBabel03272503503D

 33 35  0  0  1  0  0  0  0  0999 V2000
   33.0890   27.3190   45.9070 C   0  0  1  0  0  0  0  0  0  0  0  0
   33.9110   27.4780   47.2050 C   0  0  2  0  0  0  0  0  0  0  0  0
   33.8170   26.2510   47.7840 O   0  0  0  0  0  0  0  0  0  0  0  0
   34.0600   25.3620   46.7510 C   0  0  0  0  0  0  0  0  0  0  0  0
   33.4460   25.9340   45.4940 C   0  0  2  0  0  0  0  0  0  0  0  0
   33.4620   28.0510   45.1600 H   0  0  0  0  0  0  0  0  0  0  0  0
   34.9240   27.7870   46.8600 H   0  0  0  0  0  0  0  0  0  0  0  0
   35.1320   25.0990   46.6440 H   0  0  0  0  0  0  0  0  0  0  0  0
   33.5260   24.4210   47.0040 H   0  0  0  0  0  0  0  0  0  0  0  0
   32.6010   25.3160   45.1310 H   0  0  0  0  0  0  0  0  0  0  0  0
   31.7450   27.5160   46.1580 O   0  0  0  0  0  0  0  0  0  0  0  0
   31.3560   28.0930   45.4370 H   0  0  0  0  0  0  0  0  0  0  0  0
   33.3240   28.5220   47.8580 O   0  0  0  0  0  0  0  0  0  0  0  0
   35.3420   29.8270   46.7640 O   0  0  0  0  0  0  0  0  0  0  0  0
   34.0930   30.0000   47.6140 P   0  0  1  0  0  0  0  0  0  0  0  0
   33.0910   31.0380   46.7260 O   0  0  0  0  0  0  0  0  0  0  0  0
   32.2610   31.2270   47.2280 H   0  0  0  0  0  0  0  0  0  0  0  0
   34.4190   30.6500   49.1540 O   0  0  0  0  0  0  0  0  0  0  0  0
   35.6440   30.5210   49.7700 C   0  0  0  0  0  0  0  0  0  0  0  0
   35.9650   29.4960   50.6880 C   0  0  0  0  0  0  0  0  0  0  0  0
   37.2460   29.4920   51.2320 C   0  0  0  0  0  0  0  0  0  0  0  0
   38.1190   30.4710   50.8530 N   0  0  0  0  0  0  0  0  0  0  0  0
   37.7770   31.4450   49.9640 C   0  0  0  0  0  0  0  0  0  0  0  0
   36.5290   31.4670   49.4210 N   0  0  0  0  0  0  0  0  0  0  0  0
   35.1940   28.7720   50.9160 H   0  0  0  0  0  0  0  0  0  0  0  0
   37.5020   28.7170   51.9320 H   0  0  0  0  0  0  0  0  0  0  0  0
   38.5060   32.1920   49.7010 H   0  0  0  0  0  0  0  0  0  0  0  0
   34.4030   25.9650   44.4790 O   0  0  0  0  0  0  0  0  0  0  0  0
   34.1020   25.1080   43.4270 C   0  0  0  0  0  3  0  0  0  0  0  0
   35.0650   23.9530   43.4090 C   0  0  0  0  0  2  0  0  0  0  0  0
   34.2700   22.7030   43.6000 C   0  0  0  0  0  2  0  0  0  0  0  0
   32.8140   23.0440   43.4420 C   0  0  0  0  0  2  0  0  0  0  0  0
   32.7130   24.5400   43.5290 C   0  0  0  0  0  2  0  0  0  0  0  0
  1  6  1  6  0  0  0
  1 11  1  0  0  0  0
  1  2  1  0  0  0  0
  2  7  1  6  0  0  0
  2  3  1  0  0  0  0
  2 13  1  0  0  0  0
  4  9  1  0  0  0  0
  4  3  1  0  0  0  0
  5 10  1  6  0  0  0
  5  1  1  0  0  0  0
  5  4  1  0  0  0  0
  8  4  1  0  0  0  0
 12 11  1  0  0  0  0
 15 14  2  6  0  0  0
 15 13  1  0  0  0  0
 15 18  1  0  0  0  0
 16 17  1  0  0  0  0
 16 15  1  0  0  0  0
 18 19  1  0  0  0  0
 19 20  1  0  0  0  0
 20 25  1  0  0  0  0
 20 21  2  0  0  0  0
 21 26  1  0  0  0  0
 22 21  1  0  0  0  0
 23 22  2  0  0  0  0
 24 19  2  0  0  0  0
 24 23  1  0  0  0  0
 27 23  1  0  0  0  0
 28  5  1  0  0  0  0
 29 33  1  0  0  0  0
 29 28  1  0  0  0  0
 30 29  1  0  0  0  0
 30 31  1  0  0  0  0
 32 33  1  0  0  0  0
 32 31  1  0  0  0  0
M  END
>  <minimizedAffinity>
-3.91858339

>  <minimizedRMSD>
0.192275822

$$$$
