
 OpenBabel03272503513D

 33 35  0  0  1  0  0  0  0  0999 V2000
   37.4880   24.2330   32.1690 C   0  0  1  0  0  0  0  0  0  0  0  0
   37.0210   25.5460   32.8370 C   0  0  2  0  0  0  0  0  0  0  0  0
   36.3850   26.1980   31.8270 O   0  0  0  0  0  0  0  0  0  0  0  0
   35.5820   25.2310   31.2440 C   0  0  0  0  0  0  0  0  0  0  0  0
   36.3330   23.9210   31.2820 C   0  0  2  0  0  0  0  0  0  0  0  0
   37.5910   23.4540   32.9540 H   0  0  0  0  0  0  0  0  0  0  0  0
   36.3870   25.2160   33.6910 H   0  0  0  0  0  0  0  0  0  0  0  0
   34.5690   25.1780   31.6900 H   0  0  0  0  0  0  0  0  0  0  0  0
   35.4470   25.5260   30.1800 H   0  0  0  0  0  0  0  0  0  0  0  0
   36.6000   23.5700   30.2660 H   0  0  0  0  0  0  0  0  0  0  0  0
   38.6860   24.4250   31.5090 O   0  0  0  0  0  0  0  0  0  0  0  0
   39.2980   23.6570   31.7050 H   0  0  0  0  0  0  0  0  0  0  0  0
   38.1640   26.1110   33.3200 O   0  0  0  0  0  0  0  0  0  0  0  0
   39.3890   27.1240   35.4290 O   0  0  0  0  0  0  0  0  0  0  0  0
   38.0360   26.6630   34.9060 P   0  0  1  0  0  0  0  0  0  0  0  0
   37.0440   28.0350   34.9670 O   0  0  0  0  0  0  0  0  0  0  0  0
   36.1300   27.8100   34.6690 H   0  0  0  0  0  0  0  0  0  0  0  0
   37.3660   25.3930   35.8220 O   0  0  0  0  0  0  0  0  0  0  0  0
   38.1350   24.5330   36.5740 C   0  0  0  0  0  0  0  0  0  0  0  0
   37.9740   24.3390   37.9640 C   0  0  0  0  0  0  0  0  0  0  0  0
   38.8260   23.4360   38.5940 C   0  0  0  0  0  0  0  0  0  0  0  0
   39.7640   22.7900   37.8400 N   0  0  0  0  0  0  0  0  0  0  0  0
   39.8920   23.0010   36.5010 C   0  0  0  0  0  0  0  0  0  0  0  0
   39.0680   23.8810   35.8670 N   0  0  0  0  0  0  0  0  0  0  0  0
   37.1970   24.9040   38.4600 H   0  0  0  0  0  0  0  0  0  0  0  0
   38.7140   23.2790   39.6520 H   0  0  0  0  0  0  0  0  0  0  0  0
   40.6500   22.4650   35.9560 H   0  0  0  0  0  0  0  0  0  0  0  0
   35.5310   22.9390   31.8640 O   0  0  0  0  0  0  0  0  0  0  0  0
   36.2200   21.7600   32.1190 C   0  0  0  0  0  3  0  0  0  0  0  0
   35.4610   20.9230   33.1130 C   0  0  0  0  0  2  0  0  0  0  0  0
   35.1130   19.6340   32.4420 C   0  0  0  0  0  2  0  0  0  0  0  0
   35.8930   19.5480   31.1600 C   0  0  0  0  0  2  0  0  0  0  0  0
   36.4140   20.9290   30.8810 C   0  0  0  0  0  2  0  0  0  0  0  0
  1  2  1  0  0  0  0
  1  6  1  1  0  0  0
  2 13  1  0  0  0  0
  2  7  1  1  0  0  0
  3  2  1  0  0  0  0
  4  5  1  0  0  0  0
  4  8  1  0  0  0  0
  4  3  1  0  0  0  0
  5 10  1  6  0  0  0
  5 28  1  0  0  0  0
  5  1  1  0  0  0  0
  9  4  1  0  0  0  0
 11 12  1  0  0  0  0
 11  1  1  0  0  0  0
 13 15  1  0  0  0  0
 15 16  1  0  0  0  0
 15 14  2  1  0  0  0
 15 18  1  0  0  0  0
 17 16  1  0  0  0  0
 18 19  1  0  0  0  0
 19 20  1  0  0  0  0
 20 25  1  0  0  0  0
 20 21  2  0  0  0  0
 21 26  1  0  0  0  0
 22 21  1  0  0  0  0
 23 22  2  0  0  0  0
 24 23  1  0  0  0  0
 24 19  2  0  0  0  0
 27 23  1  0  0  0  0
 28 29  1  0  0  0  0
 29 30  1  0  0  0  0
 31 30  1  0  0  0  0
 32 31  1  0  0  0  0
 33 32  1  0  0  0  0
 33 29  1  0  0  0  0
M  END
>  <minimizedAffinity>
-5.53158951

$$$$

 OpenBabel03272503513D

 33 35  0  0  1  0  0  0  0  0999 V2000
   38.8200   23.5340   36.2670 C   0  0  1  0  0  0  0  0  0  0  0  0
   38.2260   24.8030   36.9170 C   0  0  2  0  0  0  0  0  0  0  0  0
   37.7020   24.3360   38.0830 O   0  0  0  0  0  0  0  0  0  0  0  0
   38.6930   23.5220   38.6050 C   0  0  0  0  0  0  0  0  0  0  0  0
   39.3700   22.8180   37.4520 C   0  0  2  0  0  0  0  0  0  0  0  0
   39.6440   23.8380   35.5870 H   0  0  0  0  0  0  0  0  0  0  0  0
   39.0870   25.5020   37.0060 H   0  0  0  0  0  0  0  0  0  0  0  0
   39.3940   24.0610   39.2740 H   0  0  0  0  0  0  0  0  0  0  0  0
   38.1820   22.7570   39.2310 H   0  0  0  0  0  0  0  0  0  0  0  0
   39.1850   21.7260   37.4710 H   0  0  0  0  0  0  0  0  0  0  0  0
   37.8450   22.8400   35.5780 O   0  0  0  0  0  0  0  0  0  0  0  0
   38.2110   22.5480   34.6910 H   0  0  0  0  0  0  0  0  0  0  0  0
   37.3500   25.2850   35.9900 O   0  0  0  0  0  0  0  0  0  0  0  0
   36.9750   27.6920   34.9710 O   0  0  0  0  0  0  0  0  0  0  0  0
   37.9680   26.5430   35.0560 P   0  0  1  0  0  0  0  0  0  0  0  0
   39.3440   27.1970   35.7970 O   0  0  0  0  0  0  0  0  0  0  0  0
   40.0550   26.5150   35.8630 H   0  0  0  0  0  0  0  0  0  0  0  0
   38.3580   25.8850   33.5340 O   0  0  0  0  0  0  0  0  0  0  0  0
   37.4430   25.2030   32.7630 C   0  0  0  0  0  0  0  0  0  0  0  0
   36.4420   25.8260   31.9860 C   0  0  0  0  0  0  0  0  0  0  0  0
   35.5850   25.0060   31.2560 C   0  0  0  0  0  0  0  0  0  0  0  0
   35.7580   23.6540   31.3290 N   0  0  0  0  0  0  0  0  0  0  0  0
   36.7350   23.0860   32.0880 C   0  0  0  0  0  0  0  0  0  0  0  0
   37.5820   23.8700   32.8100 N   0  0  0  0  0  0  0  0  0  0  0  0
   36.3970   26.9070   32.0030 H   0  0  0  0  0  0  0  0  0  0  0  0
   34.8190   25.4690   30.6610 H   0  0  0  0  0  0  0  0  0  0  0  0
   36.8250   22.0130   32.1080 H   0  0  0  0  0  0  0  0  0  0  0  0
   40.7490   23.0090   37.5330 O   0  0  0  0  0  0  0  0  0  0  0  0
   41.4280   22.5180   36.4250 C   0  0  0  0  0  3  0  0  0  0  0  0
   42.5460   23.4520   36.0480 C   0  0  0  0  0  2  0  0  0  0  0  0
   43.8260   22.6930   36.1690 C   0  0  0  0  0  2  0  0  0  0  0  0
   43.4940   21.2350   36.3300 C   0  0  0  0  0  2  0  0  0  0  0  0
   42.0340   21.1650   36.6770 C   0  0  0  0  0  2  0  0  0  0  0  0
  1  6  1  6  0  0  0
  1  2  1  0  0  0  0
  1  5  1  0  0  0  0
  2  7  1  1  0  0  0
  2  3  1  0  0  0  0
  3  4  1  0  0  0  0
  4  9  1  0  0  0  0
  4  8  1  0  0  0  0
  5 10  1  6  0  0  0
  5 28  1  0  0  0  0
  5  4  1  0  0  0  0
 11  1  1  0  0  0  0
 12 11  1  0  0  0  0
 13  2  1  0  0  0  0
 15 14  2  6  0  0  0
 15 16  1  0  0  0  0
 15 13  1  0  0  0  0
 16 17  1  0  0  0  0
 18 15  1  0  0  0  0
 19 24  1  0  0  0  0
 19 18  1  0  0  0  0
 20 25  1  0  0  0  0
 20 19  2  0  0  0  0
 21 22  2  0  0  0  0
 21 20  1  0  0  0  0
 22 23  1  0  0  0  0
 23 27  1  0  0  0  0
 23 24  2  0  0  0  0
 26 21  1  0  0  0  0
 29 33  1  0  0  0  0
 29 28  1  0  0  0  0
 30 31  1  0  0  0  0
 30 29  1  0  0  0  0
 31 32  1  0  0  0  0
 32 33  1  0  0  0  0
M  END
>  <minimizedAffinity>
-5.18943596

$$$$

 OpenBabel03272503513D

 33 35  0  0  1  0  0  0  0  0999 V2000
   37.6030   25.9390   34.4330 C   0  0  1  0  0  0  0  0  0  0  0  0
   38.5570   26.7020   33.4880 C   0  0  2  0  0  0  0  0  0  0  0  0
   39.5560   27.1060   34.3180 O   0  0  0  0  0  0  0  0  0  0  0  0
   39.8550   25.9830   35.0710 C   0  0  0  0  0  0  0  0  0  0  0  0
   38.5640   25.2440   35.3340 C   0  0  2  0  0  0  0  0  0  0  0  0
   37.0320   25.1970   33.8350 H   0  0  0  0  0  0  0  0  0  0  0  0
   38.8320   25.9580   32.7070 H   0  0  0  0  0  0  0  0  0  0  0  0
   40.6470   25.3530   34.6190 H   0  0  0  0  0  0  0  0  0  0  0  0
   40.2550   26.3460   36.0430 H   0  0  0  0  0  0  0  0  0  0  0  0
   38.2950   25.2550   36.4090 H   0  0  0  0  0  0  0  0  0  0  0  0
   36.7480   26.8170   35.0710 O   0  0  0  0  0  0  0  0  0  0  0  0
   35.8190   26.4400   35.0600 H   0  0  0  0  0  0  0  0  0  0  0  0
   37.7820   27.6730   32.9280 O   0  0  0  0  0  0  0  0  0  0  0  0
   37.6150   29.0380   30.6740 O   0  0  0  0  0  0  0  0  0  0  0  0
   37.7470   27.6350   31.2440 P   0  0  1  0  0  0  0  0  0  0  0  0
   39.2190   27.0470   30.6450 O   0  0  0  0  0  0  0  0  0  0  0  0
   39.3670   26.1190   30.9490 H   0  0  0  0  0  0  0  0  0  0  0  0
   36.4620   26.6090   30.7970 O   0  0  0  0  0  0  0  0  0  0  0  0
   36.5150   25.2420   30.9510 C   0  0  0  0  0  0  0  0  0  0  0  0
   35.4470   24.4590   31.4420 C   0  0  0  0  0  0  0  0  0  0  0  0
   35.6450   23.0850   31.5430 C   0  0  0  0  0  0  0  0  0  0  0  0
   36.8520   22.5710   31.1660 N   0  0  0  0  0  0  0  0  0  0  0  0
   37.8620   23.3540   30.6980 C   0  0  0  0  0  0  0  0  0  0  0  0
   37.6880   24.7010   30.5910 N   0  0  0  0  0  0  0  0  0  0  0  0
   34.5340   24.9740   31.7100 H   0  0  0  0  0  0  0  0  0  0  0  0
   34.8380   22.4780   31.9150 H   0  0  0  0  0  0  0  0  0  0  0  0
   38.7930   22.8950   30.4150 H   0  0  0  0  0  0  0  0  0  0  0  0
   38.7030   23.9100   34.9530 O   0  0  0  0  0  0  0  0  0  0  0  0
   38.4900   23.0240   36.0020 C   0  0  0  0  0  3  0  0  0  0  0  0
   39.7880   22.3740   36.4020 C   0  0  0  0  0  2  0  0  0  0  0  0
   40.0560   22.7440   37.8240 C   0  0  0  0  0  2  0  0  0  0  0  0
   38.8080   23.3630   38.3910 C   0  0  0  0  0  2  0  0  0  0  0  0
   37.9290   23.7030   37.2210 C   0  0  0  0  0  2  0  0  0  0  0  0
  1  6  1  6  0  0  0
  1 11  1  0  0  0  0
  1  5  1  0  0  0  0
  2  7  1  6  0  0  0
  2  3  1  0  0  0  0
  2  1  1  0  0  0  0
  3  4  1  0  0  0  0
  4  5  1  0  0  0  0
  4  9  1  0  0  0  0
  5 10  1  1  0  0  0
  8  4  1  0  0  0  0
 12 11  1  0  0  0  0
 13  2  1  0  0  0  0
 15 14  2  6  0  0  0
 15 13  1  0  0  0  0
 16 17  1  0  0  0  0
 16 15  1  0  0  0  0
 18 19  1  0  0  0  0
 18 15  1  0  0  0  0
 19 20  1  0  0  0  0
 20 21  2  0  0  0  0
 20 25  1  0  0  0  0
 21 26  1  0  0  0  0
 22 21  1  0  0  0  0
 23 22  2  0  0  0  0
 24 23  1  0  0  0  0
 24 19  2  0  0  0  0
 27 23  1  0  0  0  0
 28  5  1  0  0  0  0
 28 29  1  0  0  0  0
 29 30  1  0  0  0  0
 29 33  1  0  0  0  0
 30 31  1  0  0  0  0
 31 32  1  0  0  0  0
 33 32  1  0  0  0  0
M  END
>  <minimizedAffinity>
-5.00171471

$$$$

 OpenBabel03272503513D

 33 35  0  0  1  0  0  0  0  0999 V2000
   34.1120   29.6730   33.0680 C   0  0  1  0  0  0  0  0  0  0  0  0
   35.3050   29.3040   32.1580 C   0  0  2  0  0  0  0  0  0  0  0  0
   35.1030   30.0760   31.0570 O   0  0  0  0  0  0  0  0  0  0  0  0
   34.8010   31.3290   31.5630 C   0  0  0  0  0  0  0  0  0  0  0  0
   33.9870   31.1360   32.8220 C   0  0  2  0  0  0  0  0  0  0  0  0
   34.4020   29.4850   34.1240 H   0  0  0  0  0  0  0  0  0  0  0  0
   36.2060   29.5370   32.7680 H   0  0  0  0  0  0  0  0  0  0  0  0
   35.6950   31.9700   31.7040 H   0  0  0  0  0  0  0  0  0  0  0  0
   34.1630   31.8360   30.8080 H   0  0  0  0  0  0  0  0  0  0  0  0
   32.9500   31.5080   32.7010 H   0  0  0  0  0  0  0  0  0  0  0  0
   32.9960   28.9340   32.7270 O   0  0  0  0  0  0  0  0  0  0  0  0
   32.5530   28.5990   33.5620 H   0  0  0  0  0  0  0  0  0  0  0  0
   35.2090   27.9530   31.9980 O   0  0  0  0  0  0  0  0  0  0  0  0
   36.3000   25.7740   30.9800 O   0  0  0  0  0  0  0  0  0  0  0  0
   36.4980   27.2720   31.1540 P   0  0  1  0  0  0  0  0  0  0  0  0
   36.5610   27.8990   29.5820 O   0  0  0  0  0  0  0  0  0  0  0  0
   36.7200   28.8740   29.6060 H   0  0  0  0  0  0  0  0  0  0  0  0
   37.9160   27.6620   32.0150 O   0  0  0  0  0  0  0  0  0  0  0  0
   38.1880   27.1530   33.2650 C   0  0  0  0  0  0  0  0  0  0  0  0
   37.2080   26.6310   34.1380 C   0  0  0  0  0  0  0  0  0  0  0  0
   37.6320   26.1510   35.3740 C   0  0  0  0  0  0  0  0  0  0  0  0
   38.9620   26.2090   35.6750 N   0  0  0  0  0  0  0  0  0  0  0  0
   39.8820   26.7200   34.8090 C   0  0  0  0  0  0  0  0  0  0  0  0
   39.4870   27.1950   33.5960 N   0  0  0  0  0  0  0  0  0  0  0  0
   36.1820   26.6340   33.7940 H   0  0  0  0  0  0  0  0  0  0  0  0
   36.8950   25.7500   36.0470 H   0  0  0  0  0  0  0  0  0  0  0  0
   40.9180   26.7410   35.0990 H   0  0  0  0  0  0  0  0  0  0  0  0
   34.5670   31.8530   33.8690 O   0  0  0  0  0  0  0  0  0  0  0  0
   34.2980   31.3010   35.1150 C   0  0  0  0  0  3  0  0  0  0  0  0
   35.4100   31.6260   36.0750 C   0  0  0  0  0  2  0  0  0  0  0  0
   34.8200   32.4250   37.1910 C   0  0  0  0  0  2  0  0  0  0  0  0
   33.3220   32.3470   37.0830 C   0  0  0  0  0  2  0  0  0  0  0  0
   33.0190   31.8220   35.7090 C   0  0  0  0  0  2  0  0  0  0  0  0
  1  6  1  1  0  0  0
  2  7  1  1  0  0  0
  2  1  1  0  0  0  0
  3  4  1  0  0  0  0
  3  2  1  0  0  0  0
  4  8  1  0  0  0  0
  4  5  1  0  0  0  0
  5 10  1  6  0  0  0
  5  1  1  0  0  0  0
  5 28  1  0  0  0  0
  9  4  1  0  0  0  0
 11  1  1  0  0  0  0
 11 12  1  0  0  0  0
 13  2  1  0  0  0  0
 15 14  2  6  0  0  0
 15 13  1  0  0  0  0
 15 18  1  0  0  0  0
 16 17  1  0  0  0  0
 16 15  1  0  0  0  0
 18 19  1  0  0  0  0
 19 24  2  0  0  0  0
 19 20  1  0  0  0  0
 20 21  2  0  0  0  0
 21 22  1  0  0  0  0
 21 26  1  0  0  0  0
 23 27  1  0  0  0  0
 23 22  2  0  0  0  0
 24 23  1  0  0  0  0
 25 20  1  0  0  0  0
 28 29  1  0  0  0  0
 29 33  1  0  0  0  0
 29 30  1  0  0  0  0
 30 31  1  0  0  0  0
 32 31  1  0  0  0  0
 33 32  1  0  0  0  0
M  END
>  <minimizedAffinity>
-4.98492241

$$$$

 OpenBabel03272503513D

 33 35  0  0  1  0  0  0  0  0999 V2000
   39.1250   26.7730   33.5050 C   0  0  1  0  0  0  0  0  0  0  0  0
   37.6770   27.0020   33.0190 C   0  0  2  0  0  0  0  0  0  0  0  0
   37.3340   25.7960   32.4920 O   0  0  0  0  0  0  0  0  0  0  0  0
   37.7570   24.8730   33.4330 C   0  0  0  0  0  0  0  0  0  0  0  0
   39.0500   25.3810   34.0300 C   0  0  2  0  0  0  0  0  0  0  0  0
   39.3380   27.4830   34.3320 H   0  0  0  0  0  0  0  0  0  0  0  0
   37.1220   27.3200   33.9300 H   0  0  0  0  0  0  0  0  0  0  0  0
   36.9820   24.6310   34.1870 H   0  0  0  0  0  0  0  0  0  0  0  0
   37.9720   23.9300   32.8850 H   0  0  0  0  0  0  0  0  0  0  0  0
   39.9070   24.7300   33.7680 H   0  0  0  0  0  0  0  0  0  0  0  0
   40.0190   26.9480   32.4660 O   0  0  0  0  0  0  0  0  0  0  0  0
   40.7990   27.4870   32.7890 H   0  0  0  0  0  0  0  0  0  0  0  0
   37.7660   28.0550   32.1590 O   0  0  0  0  0  0  0  0  0  0  0  0
   36.4610   29.6370   30.4950 O   0  0  0  0  0  0  0  0  0  0  0  0
   36.3660   28.3270   31.2620 P   0  0  1  0  0  0  0  0  0  0  0  0
   36.1910   27.1280   30.0790 O   0  0  0  0  0  0  0  0  0  0  0  0
   36.0910   26.2410   30.5010 H   0  0  0  0  0  0  0  0  0  0  0  0
   35.0610   28.2890   32.3570 O   0  0  0  0  0  0  0  0  0  0  0  0
   34.7320   29.3600   33.1570 C   0  0  0  0  0  0  0  0  0  0  0  0
   35.4840   29.7700   34.2810 C   0  0  0  0  0  0  0  0  0  0  0  0
   35.0280   30.8730   34.9970 C   0  0  0  0  0  0  0  0  0  0  0  0
   33.8880   31.4960   34.5790 N   0  0  0  0  0  0  0  0  0  0  0  0
   33.1870   31.0750   33.4910 C   0  0  0  0  0  0  0  0  0  0  0  0
   33.6150   29.9980   32.7770 N   0  0  0  0  0  0  0  0  0  0  0  0
   36.3730   29.2010   34.5200 H   0  0  0  0  0  0  0  0  0  0  0  0
   35.5930   31.1940   35.8550 H   0  0  0  0  0  0  0  0  0  0  0  0
   32.2930   31.6050   33.2060 H   0  0  0  0  0  0  0  0  0  0  0  0
   38.9480   25.3950   35.4210 O   0  0  0  0  0  0  0  0  0  0  0  0
   38.5190   24.1820   35.9440 C   0  0  0  0  0  3  0  0  0  0  0  0
   39.6970   23.2770   36.1850 C   0  0  0  0  0  2  0  0  0  0  0  0
   39.7420   22.9790   37.6480 C   0  0  0  0  0  2  0  0  0  0  0  0
   38.4500   23.4430   38.2620 C   0  0  0  0  0  2  0  0  0  0  0  0
   37.7970   24.3450   37.2530 C   0  0  0  0  0  2  0  0  0  0  0  0
  1  5  1  0  0  0  0
  1  6  1  1  0  0  0
  2  1  1  0  0  0  0
  2  7  1  1  0  0  0
  3  2  1  0  0  0  0
  3  4  1  0  0  0  0
  4  5  1  0  0  0  0
  4  8  1  0  0  0  0
  5 10  1  6  0  0  0
  5 28  1  0  0  0  0
  9  4  1  0  0  0  0
 11 12  1  0  0  0  0
 11  1  1  0  0  0  0
 13  2  1  0  0  0  0
 15 14  2  6  0  0  0
 15 13  1  0  0  0  0
 15 18  1  0  0  0  0
 16 17  1  0  0  0  0
 16 15  1  0  0  0  0
 18 19  1  0  0  0  0
 19 20  1  0  0  0  0
 20 25  1  0  0  0  0
 20 21  2  0  0  0  0
 21 26  1  0  0  0  0
 22 21  1  0  0  0  0
 23 22  2  0  0  0  0
 24 19  2  0  0  0  0
 24 23  1  0  0  0  0
 27 23  1  0  0  0  0
 28 29  1  0  0  0  0
 29 30  1  0  0  0  0
 29 33  1  0  0  0  0
 30 31  1  0  0  0  0
 31 32  1  0  0  0  0
 33 32  1  0  0  0  0
M  END
>  <minimizedAffinity>
-4.96661711

$$$$

 OpenBabel03272503513D

 33 35  0  0  1  0  0  0  0  0999 V2000
   35.5020   24.8640   30.8980 C   0  0  1  0  0  0  0  0  0  0  0  0
   36.5950   25.9400   31.0830 C   0  0  2  0  0  0  0  0  0  0  0  0
   36.8860   25.8600   32.4090 O   0  0  0  0  0  0  0  0  0  0  0  0
   37.0070   24.5030   32.6550 C   0  0  0  0  0  0  0  0  0  0  0  0
   35.9860   23.7850   31.8030 C   0  0  2  0  0  0  0  0  0  0  0  0
   35.5210   24.5180   29.8430 H   0  0  0  0  0  0  0  0  0  0  0  0
   37.4040   25.6420   30.3790 H   0  0  0  0  0  0  0  0  0  0  0  0
   38.0410   24.1260   32.5260 H   0  0  0  0  0  0  0  0  0  0  0  0
   36.7420   24.3460   33.7240 H   0  0  0  0  0  0  0  0  0  0  0  0
   35.2040   23.2990   32.4190 H   0  0  0  0  0  0  0  0  0  0  0  0
   34.2600   25.3740   31.2240 O   0  0  0  0  0  0  0  0  0  0  0  0
   33.5930   25.0890   30.5330 H   0  0  0  0  0  0  0  0  0  0  0  0
   36.0190   27.0940   30.6400 O   0  0  0  0  0  0  0  0  0  0  0  0
   38.4940   27.9970   30.8130 O   0  0  0  0  0  0  0  0  0  0  0  0
   37.1250   28.2920   30.2190 P   0  0  1  0  0  0  0  0  0  0  0  0
   37.3610   28.3040   28.5420 O   0  0  0  0  0  0  0  0  0  0  0  0
   36.5160   28.5200   28.0780 H   0  0  0  0  0  0  0  0  0  0  0  0
   36.4750   29.7760   30.7460 O   0  0  0  0  0  0  0  0  0  0  0  0
   35.6100   29.8700   31.8140 C   0  0  0  0  0  0  0  0  0  0  0  0
   35.8940   29.3820   33.1090 C   0  0  0  0  0  0  0  0  0  0  0  0
   34.9220   29.5480   34.0900 C   0  0  0  0  0  0  0  0  0  0  0  0
   33.7540   30.1690   33.7530 N   0  0  0  0  0  0  0  0  0  0  0  0
   33.5120   30.6280   32.4940 C   0  0  0  0  0  0  0  0  0  0  0  0
   34.4500   30.4750   31.5200 N   0  0  0  0  0  0  0  0  0  0  0  0
   36.8540   28.9060   33.2620 H   0  0  0  0  0  0  0  0  0  0  0  0
   35.1270   29.1800   35.0810 H   0  0  0  0  0  0  0  0  0  0  0  0
   32.5720   31.1100   32.2840 H   0  0  0  0  0  0  0  0  0  0  0  0
   36.6160   22.7830   31.0640 O   0  0  0  0  0  0  0  0  0  0  0  0
   35.8940   21.5970   31.0380 C   0  0  0  0  0  3  0  0  0  0  0  0
   36.8290   20.4260   30.8950 C   0  0  0  0  0  2  0  0  0  0  0  0
   36.6620   19.5680   32.1070 C   0  0  0  0  0  2  0  0  0  0  0  0
   35.4390   20.0330   32.8470 C   0  0  0  0  0  2  0  0  0  0  0  0
   35.0920   21.3860   32.2930 C   0  0  0  0  0  2  0  0  0  0  0  0
  1  6  1  6  0  0  0
  1  2  1  0  0  0  0
  1 11  1  0  0  0  0
  1  5  1  0  0  0  0
  2  7  1  6  0  0  0
  2  3  1  0  0  0  0
  3  4  1  0  0  0  0
  4  9  1  0  0  0  0
  5 10  1  1  0  0  0
  5  4  1  0  0  0  0
  8  4  1  0  0  0  0
 12 11  1  0  0  0  0
 13  2  1  0  0  0  0
 15 13  1  0  0  0  0
 15 18  1  0  0  0  0
 15 14  2  1  0  0  0
 16 15  1  0  0  0  0
 17 16  1  0  0  0  0
 18 19  1  0  0  0  0
 19 20  1  0  0  0  0
 20 25  1  0  0  0  0
 20 21  2  0  0  0  0
 21 26  1  0  0  0  0
 22 21  1  0  0  0  0
 23 22  2  0  0  0  0
 24 19  2  0  0  0  0
 24 23  1  0  0  0  0
 27 23  1  0  0  0  0
 28  5  1  0  0  0  0
 29 28  1  0  0  0  0
 29 33  1  0  0  0  0
 30 29  1  0  0  0  0
 30 31  1  0  0  0  0
 31 32  1  0  0  0  0
 33 32  1  0  0  0  0
M  END
>  <minimizedAffinity>
-4.95180225

$$$$

 OpenBabel03272503513D

 33 35  0  0  1  0  0  0  0  0999 V2000
   38.0940   22.5870   34.7750 C   0  0  1  0  0  0  0  0  0  0  0  0
   39.4130   23.1200   34.1720 C   0  0  2  0  0  0  0  0  0  0  0  0
   39.9570   22.0150   33.5950 O   0  0  0  0  0  0  0  0  0  0  0  0
   38.9060   21.4310   32.9070 C   0  0  0  0  0  0  0  0  0  0  0  0
   37.6520   21.6250   33.7270 C   0  0  2  0  0  0  0  0  0  0  0  0
   37.3740   23.4290   34.8510 H   0  0  0  0  0  0  0  0  0  0  0  0
   39.0970   23.9350   33.4830 H   0  0  0  0  0  0  0  0  0  0  0  0
   38.8160   21.7890   31.8620 H   0  0  0  0  0  0  0  0  0  0  0  0
   39.1240   20.3420   32.8530 H   0  0  0  0  0  0  0  0  0  0  0  0
   37.2550   20.6630   34.1070 H   0  0  0  0  0  0  0  0  0  0  0  0
   38.3200   22.0220   36.0150 O   0  0  0  0  0  0  0  0  0  0  0  0
   37.6070   22.3240   36.6510 H   0  0  0  0  0  0  0  0  0  0  0  0
   40.0800   23.6610   35.2310 O   0  0  0  0  0  0  0  0  0  0  0  0
   42.6250   24.3040   35.5130 O   0  0  0  0  0  0  0  0  0  0  0  0
   41.3410   24.6870   34.7920 P   0  0  1  0  0  0  0  0  0  0  0  0
   41.6870   24.5130   33.1430 O   0  0  0  0  0  0  0  0  0  0  0  0
   40.9040   24.7740   32.5990 H   0  0  0  0  0  0  0  0  0  0  0  0
   40.8320   26.2760   35.1370 O   0  0  0  0  0  0  0  0  0  0  0  0
   39.6000   26.7600   34.7560 C   0  0  0  0  0  0  0  0  0  0  0  0
   38.6330   27.2590   35.6570 C   0  0  0  0  0  0  0  0  0  0  0  0
   37.4300   27.7160   35.1260 C   0  0  0  0  0  0  0  0  0  0  0  0
   37.2500   27.6590   33.7740 N   0  0  0  0  0  0  0  0  0  0  0  0
   38.2040   27.1720   32.9340 C   0  0  0  0  0  0  0  0  0  0  0  0
   39.3870   26.7200   33.4330 N   0  0  0  0  0  0  0  0  0  0  0  0
   38.8840   27.2560   36.7090 H   0  0  0  0  0  0  0  0  0  0  0  0
   36.6850   28.0980   35.8020 H   0  0  0  0  0  0  0  0  0  0  0  0
   38.0080   27.1500   31.8750 H   0  0  0  0  0  0  0  0  0  0  0  0
   36.6590   22.2000   32.9340 O   0  0  0  0  0  0  0  0  0  0  0  0
   35.5680   21.3610   32.7410 C   0  0  0  0  0  3  0  0  0  0  0  0
   35.5770   20.8150   31.3380 C   0  0  0  0  0  2  0  0  0  0  0  0
   35.6880   19.3290   31.4350 C   0  0  0  0  0  2  0  0  0  0  0  0
   35.4540   18.9330   32.8670 C   0  0  0  0  0  2  0  0  0  0  0  0
   35.5730   20.1890   33.6830 C   0  0  0  0  0  2  0  0  0  0  0  0
  1  6  1  1  0  0  0
  1 11  1  0  0  0  0
  2  7  1  6  0  0  0
  2  1  1  0  0  0  0
  2 13  1  0  0  0  0
  3  2  1  0  0  0  0
  4  3  1  0  0  0  0
  4  5  1  0  0  0  0
  5 10  1  1  0  0  0
  5  1  1  0  0  0  0
  8  4  1  0  0  0  0
  9  4  1  0  0  0  0
 11 12  1  0  0  0  0
 15 18  1  0  0  0  0
 15 13  1  0  0  0  0
 15 14  2  1  0  0  0
 16 15  1  0  0  0  0
 17 16  1  0  0  0  0
 19 18  1  0  0  0  0
 19 20  1  0  0  0  0
 20 25  1  0  0  0  0
 21 20  2  0  0  0  0
 21 26  1  0  0  0  0
 22 21  1  0  0  0  0
 23 24  1  0  0  0  0
 23 22  2  0  0  0  0
 24 19  2  0  0  0  0
 27 23  1  0  0  0  0
 28  5  1  0  0  0  0
 29 28  1  0  0  0  0
 29 33  1  0  0  0  0
 30 31  1  0  0  0  0
 30 29  1  0  0  0  0
 31 32  1  0  0  0  0
 32 33  1  0  0  0  0
M  END
>  <minimizedAffinity>
-4.94889736

$$$$

 OpenBabel03272503513D

 33 35  0  0  1  0  0  0  0  0999 V2000
   35.9160   24.7950   30.9410 C   0  0  1  0  0  0  0  0  0  0  0  0
   36.7770   26.0430   31.2350 C   0  0  2  0  0  0  0  0  0  0  0  0
   36.9130   26.0130   32.5880 O   0  0  0  0  0  0  0  0  0  0  0  0
   37.2340   24.6960   32.8740 C   0  0  0  0  0  0  0  0  0  0  0  0
   36.4640   23.8140   31.9180 C   0  0  2  0  0  0  0  0  0  0  0  0
   36.1230   24.4590   29.9030 H   0  0  0  0  0  0  0  0  0  0  0  0
   37.7050   25.8910   30.6400 H   0  0  0  0  0  0  0  0  0  0  0  0
   38.3260   24.5040   32.8780 H   0  0  0  0  0  0  0  0  0  0  0  0
   36.8720   24.4940   33.9050 H   0  0  0  0  0  0  0  0  0  0  0  0
   35.7080   23.1990   32.4450 H   0  0  0  0  0  0  0  0  0  0  0  0
   34.5740   25.0820   31.1050 O   0  0  0  0  0  0  0  0  0  0  0  0
   34.0560   24.6860   30.3440 H   0  0  0  0  0  0  0  0  0  0  0  0
   36.0700   27.0810   30.7040 O   0  0  0  0  0  0  0  0  0  0  0  0
   38.3920   28.3250   30.8770 O   0  0  0  0  0  0  0  0  0  0  0  0
   37.0250   28.3780   30.2130 P   0  0  1  0  0  0  0  0  0  0  0  0
   37.3320   28.2780   28.5500 O   0  0  0  0  0  0  0  0  0  0  0  0
   36.4880   28.3370   28.0400 H   0  0  0  0  0  0  0  0  0  0  0  0
   36.1600   29.7990   30.5810 O   0  0  0  0  0  0  0  0  0  0  0  0
   36.7450   31.0450   30.5830 C   0  0  0  0  0  0  0  0  0  0  0  0
   36.5580   32.0060   31.6020 C   0  0  0  0  0  0  0  0  0  0  0  0
   37.2150   33.2260   31.4690 C   0  0  0  0  0  0  0  0  0  0  0  0
   38.0000   33.4280   30.3700 N   0  0  0  0  0  0  0  0  0  0  0  0
   38.1590   32.4790   29.4060 C   0  0  0  0  0  0  0  0  0  0  0  0
   37.5250   31.2800   29.5170 N   0  0  0  0  0  0  0  0  0  0  0  0
   35.9130   31.7380   32.4280 H   0  0  0  0  0  0  0  0  0  0  0  0
   37.0810   33.9660   32.2380 H   0  0  0  0  0  0  0  0  0  0  0  0
   38.7910   32.6930   28.5610 H   0  0  0  0  0  0  0  0  0  0  0  0
   37.3420   22.9380   31.2800 O   0  0  0  0  0  0  0  0  0  0  0  0
   36.9680   21.6060   31.4130 C   0  0  0  0  0  3  0  0  0  0  0  0
   37.2270   21.1350   32.8190 C   0  0  0  0  0  2  0  0  0  0  0  0
   35.9140   20.7300   33.4060 C   0  0  0  0  0  2  0  0  0  0  0  0
   34.9020   20.6690   32.2950 C   0  0  0  0  0  2  0  0  0  0  0  0
   35.5080   21.3900   31.1240 C   0  0  0  0  0  2  0  0  0  0  0  0
  1  6  1  6  0  0  0
  1 11  1  0  0  0  0
  1  2  1  0  0  0  0
  1  5  1  0  0  0  0
  2  7  1  6  0  0  0
  2  3  1  0  0  0  0
  3  4  1  0  0  0  0
  4  8  1  0  0  0  0
  4  9  1  0  0  0  0
  5 10  1  1  0  0  0
  5  4  1  0  0  0  0
 12 11  1  0  0  0  0
 13  2  1  0  0  0  0
 15 18  1  0  0  0  0
 15 13  1  0  0  0  0
 15 14  2  1  0  0  0
 16 15  1  0  0  0  0
 17 16  1  0  0  0  0
 18 19  1  0  0  0  0
 19 20  1  0  0  0  0
 20 25  1  0  0  0  0
 21 20  2  0  0  0  0
 21 26  1  0  0  0  0
 22 21  1  0  0  0  0
 23 24  1  0  0  0  0
 23 22  2  0  0  0  0
 24 19  2  0  0  0  0
 27 23  1  0  0  0  0
 28 29  1  0  0  0  0
 28  5  1  0  0  0  0
 29 30  1  0  0  0  0
 30 31  1  0  0  0  0
 32 31  1  0  0  0  0
 33 29  1  0  0  0  0
 33 32  1  0  0  0  0
M  END
>  <minimizedAffinity>
-4.7982893

$$$$

 OpenBabel03272503513D

 33 35  0  0  1  0  0  0  0  0999 V2000
   37.2680   24.4670   32.0050 C   0  0  1  0  0  0  0  0  0  0  0  0
   36.6130   25.7960   32.4430 C   0  0  2  0  0  0  0  0  0  0  0  0
   35.8930   26.1610   31.3480 O   0  0  0  0  0  0  0  0  0  0  0  0
   35.2410   25.0030   30.9610 C   0  0  0  0  0  0  0  0  0  0  0  0
   36.1740   23.8400   31.2120 C   0  0  2  0  0  0  0  0  0  0  0  0
   37.4800   23.8610   32.9110 H   0  0  0  0  0  0  0  0  0  0  0  0
   36.0310   25.5350   33.3550 H   0  0  0  0  0  0  0  0  0  0  0  0
   34.2440   24.8840   31.4320 H   0  0  0  0  0  0  0  0  0  0  0  0
   35.0680   25.0820   29.8660 H   0  0  0  0  0  0  0  0  0  0  0  0
   36.4920   23.3570   30.2670 H   0  0  0  0  0  0  0  0  0  0  0  0
   38.4270   24.7090   31.2940 O   0  0  0  0  0  0  0  0  0  0  0  0
   39.1440   24.0820   31.6080 H   0  0  0  0  0  0  0  0  0  0  0  0
   37.6610   26.5950   32.7940 O   0  0  0  0  0  0  0  0  0  0  0  0
   36.7130   28.1390   34.7140 O   0  0  0  0  0  0  0  0  0  0  0  0
   37.6890   27.0080   34.4260 P   0  0  1  0  0  0  0  0  0  0  0  0
   37.1510   25.7050   35.3650 O   0  0  0  0  0  0  0  0  0  0  0  0
   37.7550   24.9310   35.2570 H   0  0  0  0  0  0  0  0  0  0  0  0
   39.3000   27.4040   34.8110 O   0  0  0  0  0  0  0  0  0  0  0  0
   40.3520   26.5480   34.5720 C   0  0  0  0  0  0  0  0  0  0  0  0
   41.6090   26.9590   34.0720 C   0  0  0  0  0  0  0  0  0  0  0  0
   42.5790   25.9800   33.8790 C   0  0  0  0  0  0  0  0  0  0  0  0
   42.2690   24.6860   34.1820 N   0  0  0  0  0  0  0  0  0  0  0  0
   41.0480   24.3240   34.6620 C   0  0  0  0  0  0  0  0  0  0  0  0
   40.0840   25.2660   34.8570 N   0  0  0  0  0  0  0  0  0  0  0  0
   41.7430   28.0130   33.8670 H   0  0  0  0  0  0  0  0  0  0  0  0
   43.5400   26.2810   33.4990 H   0  0  0  0  0  0  0  0  0  0  0  0
   40.8580   23.2870   34.8830 H   0  0  0  0  0  0  0  0  0  0  0  0
   35.5200   22.8720   31.9740 O   0  0  0  0  0  0  0  0  0  0  0  0
   36.2110   21.6680   32.0250 C   0  0  0  0  0  3  0  0  0  0  0  0
   36.1540   21.0980   33.4160 C   0  0  0  0  0  2  0  0  0  0  0  0
   35.4620   19.7760   33.3320 C   0  0  0  0  0  2  0  0  0  0  0  0
   35.3540   19.3950   31.8810 C   0  0  0  0  0  2  0  0  0  0  0  0
   35.6400   20.6390   31.0890 C   0  0  0  0  0  2  0  0  0  0  0  0
  1  2  1  0  0  0  0
  1  6  1  1  0  0  0
  2 13  1  0  0  0  0
  2  7  1  1  0  0  0
  3  2  1  0  0  0  0
  4  5  1  0  0  0  0
  4  3  1  0  0  0  0
  4  8  1  0  0  0  0
  5 10  1  6  0  0  0
  5 28  1  0  0  0  0
  5  1  1  0  0  0  0
  9  4  1  0  0  0  0
 11 12  1  0  0  0  0
 11  1  1  0  0  0  0
 13 15  1  0  0  0  0
 15 14  2  1  0  0  0
 15 18  1  0  0  0  0
 15 16  1  0  0  0  0
 17 16  1  0  0  0  0
 19 18  1  0  0  0  0
 19 24  1  0  0  0  0
 20 19  2  0  0  0  0
 21 20  1  0  0  0  0
 21 22  2  0  0  0  0
 22 23  1  0  0  0  0
 23 24  2  0  0  0  0
 23 27  1  0  0  0  0
 25 20  1  0  0  0  0
 26 21  1  0  0  0  0
 28 29  1  0  0  0  0
 29 30  1  0  0  0  0
 31 30  1  0  0  0  0
 32 31  1  0  0  0  0
 33 32  1  0  0  0  0
 33 29  1  0  0  0  0
M  END
>  <minimizedAffinity>
-4.77031946

$$$$
