
 OpenBabel03272507273D

 35 37  0  0  1  0  0  0  0  0999 V2000
   36.7900   29.9800   49.3510 C   0  0  0  0  0  0  0  0  0  0  0  0
   37.7780   30.6520   48.6160 C   0  0  0  0  0  0  0  0  0  0  0  0
   37.5250   30.9180   47.2610 C   0  0  0  0  0  0  0  0  0  0  0  0
   36.3610   30.5160   46.7500 N   0  0  0  0  0  0  0  0  0  0  0  0
   35.4300   29.8710   47.4810 C   0  0  0  0  0  0  0  0  0  0  0  0
   35.6490   29.6090   48.7680 N   0  0  0  0  0  0  0  0  0  0  0  0
   38.4860   31.5870   46.4830 N   0  0  0  0  0  0  0  0  0  0  0  0
   39.4670   32.5580   46.9800 C   0  0  0  0  0  0  0  0  0  0  0  0
   40.1150   33.1740   45.7870 C   0  0  0  0  0  0  0  0  0  0  0  0
   39.1580   32.8650   44.6930 C   0  0  0  0  0  0  0  0  0  0  0  0
   38.7180   31.4760   45.0710 C   0  0  2  0  0  0  0  0  0  0  0  0
   36.9240   29.7470   50.3950 H   0  0  0  0  0  0  0  0  0  0  0  0
   38.6980   30.9500   49.0900 H   0  0  0  0  0  0  0  0  0  0  0  0
   34.5200   29.5900   46.9650 H   0  0  0  0  0  0  0  0  0  0  0  0
   40.2440   31.9360   47.4920 H   0  0  0  0  0  0  0  0  0  0  0  0
   39.0260   33.2640   47.6790 H   0  0  0  0  0  0  0  0  0  0  0  0
   40.0910   34.2900   45.9640 H   0  0  0  0  0  0  0  0  0  0  0  0
   41.1380   32.8640   45.5710 H   0  0  0  0  0  0  0  0  0  0  0  0
   39.6550   32.8000   43.6900 H   0  0  0  0  0  0  0  0  0  0  0  0
   38.3010   33.5600   44.6680 H   0  0  0  0  0  0  0  0  0  0  0  0
   37.6020   30.9670   44.2230 C   0  0  0  0  0  0  0  0  0  0  0  0
   36.4490   31.5960   44.6590 F   0  0  0  0  0  0  0  0  0  0  0  0
   37.3800   29.6210   44.2790 F   0  0  0  0  0  0  0  0  0  0  0  0
   37.8430   31.4390   42.9390 F   0  0  0  0  0  0  0  0  0  0  0  0
   39.8670   30.5560   44.9240 C   0  0  0  0  0  0  0  0  0  0  0  0
   39.5270   29.5760   45.3160 H   0  0  0  0  0  0  0  0  0  0  0  0
   40.6440   30.8740   45.6850 H   0  0  0  0  0  0  0  0  0  0  0  0
   40.3780   30.7720   43.8170 O   0  0  0  0  0  0  0  0  0  0  0  0
   40.7060   30.0860   42.7000 C   0  0  0  0  0  0  0  0  0  0  0  0
   40.6750   30.8650   41.7130 O   0  0  0  0  0  0  0  0  0  0  0  0
   41.0940   28.8690   42.0060 C   0  0  0  0  0  3  0  0  0  0  0  0
   39.8230   28.0860   41.6920 C   0  0  0  0  0  2  0  0  0  0  0  0
   40.3880   27.1540   40.6090 C   0  0  0  0  0  2  0  0  0  0  0  0
   40.9460   28.2020   39.6650 C   0  0  0  0  0  2  0  0  0  0  0  0
   41.7010   29.1110   40.6430 C   0  0  0  0  0  2  0  0  0  0  0  0
  1 12  1  0  0  0  0
  2 13  1  0  0  0  0
  2  1  2  0  0  0  0
  3  2  1  0  0  0  0
  4  3  2  0  0  0  0
  4  5  1  0  0  0  0
  5  6  2  0  0  0  0
  6  1  1  0  0  0  0
  7  8  1  0  0  0  0
  7  3  1  0  0  0  0
  8 15  1  0  0  0  0
  8 16  1  0  0  0  0
  9 17  1  0  0  0  0
  9  8  1  0  0  0  0
 10 11  1  0  0  0  0
 10  9  1  0  0  0  0
 11 21  1  6  0  0  0
 11  7  1  0  0  0  0
 14  5  1  0  0  0  0
 18  9  1  0  0  0  0
 19 10  1  0  0  0  0
 20 10  1  0  0  0  0
 21 23  1  0  0  0  0
 21 22  1  0  0  0  0
 24 21  1  0  0  0  0
 25 11  1  0  0  0  0
 25 26  1  0  0  0  0
 25 27  1  0  0  0  0
 28 25  1  0  0  0  0
 29 28  1  0  0  0  0
 30 29  2  0  0  0  0
 31 29  1  0  0  0  0
 32 31  1  0  0  0  0
 33 32  1  0  0  0  0
 34 33  1  0  0  0  0
 34 35  1  0  0  0  0
 35 31  1  0  0  0  0
M  END
>  <minimizedAffinity>
-5.16526175

>  <minimizedRMSD>
0.925226629

$$$$
