
 OpenBabel03272509323D

 34 36  0  0  1  0  0  0  0  0999 V2000
   38.9090   25.6790   34.7870 C   0  0  2  0  0  0  0  0  0  0  0  0
   38.8260   27.0850   35.2930 C   0  0  0  0  0  0  0  0  0  0  0  0
   37.4830   27.7280   35.0330 C   0  0  0  0  0  0  0  0  0  0  0  0
   37.1290   27.6820   33.5510 C   0  0  0  0  0  0  0  0  0  0  0  0
   37.6060   26.4390   32.8440 C   0  0  0  0  0  0  0  0  0  0  0  0
   37.7710   25.3260   33.8950 C   0  0  1  0  0  0  0  0  0  0  0  0
   39.8370   25.4600   34.1880 H   0  0  0  0  0  0  0  0  0  0  0  0
   39.5370   27.6680   34.6160 H   0  0  0  0  0  0  0  0  0  0  0  0
   39.1740   27.2810   36.2890 H   0  0  0  0  0  0  0  0  0  0  0  0
   36.6670   27.3410   35.6530 H   0  0  0  0  0  0  0  0  0  0  0  0
   37.6140   28.8020   35.2790 H   0  0  0  0  0  0  0  0  0  0  0  0
   37.3980   28.6060   33.0140 H   0  0  0  0  0  0  0  0  0  0  0  0
   36.0060   27.6430   33.5170 H   0  0  0  0  0  0  0  0  0  0  0  0
   36.8800   26.0990   32.0790 H   0  0  0  0  0  0  0  0  0  0  0  0
   38.5640   26.6620   32.3660 H   0  0  0  0  0  0  0  0  0  0  0  0
   36.8360   25.3930   34.3940 H   0  0  0  0  0  0  0  0  0  0  0  0
   38.9620   24.7040   35.9100 C   0  0  0  0  0  0  0  0  0  0  0  0
   38.0030   24.8920   36.9190 C   0  0  0  0  0  0  0  0  0  0  0  0
   38.0370   23.9830   37.9830 C   0  0  0  0  0  0  0  0  0  0  0  0
   38.9800   22.9820   37.9790 N   0  0  0  0  0  0  0  0  0  0  0  0
   39.8940   22.8470   36.9630 C   0  0  0  0  0  0  0  0  0  0  0  0
   39.8680   23.7170   35.9380 N   0  0  0  0  0  0  0  0  0  0  0  0
   37.2220   25.6150   37.0320 H   0  0  0  0  0  0  0  0  0  0  0  0
   37.3730   23.9950   38.8260 H   0  0  0  0  0  0  0  0  0  0  0  0
   40.5990   22.0430   37.0270 H   0  0  0  0  0  0  0  0  0  0  0  0
   36.8590   23.4300   32.4800 C   0  0  0  0  0  0  0  0  0  0  0  0
   35.8390   23.9010   31.9040 O   0  0  0  0  0  0  0  0  0  0  0  0
   37.7970   24.0110   33.3700 N   0  0  0  0  0  0  0  0  0  0  0  0
   38.5530   23.2870   33.5930 H   0  0  0  0  0  0  0  0  0  0  0  0
   36.8960   22.0170   32.0030 C   0  0  0  0  0  3  0  0  0  0  0  0
   36.9320   21.0330   33.1190 C   0  0  0  0  0  2  0  0  0  0  0  0
   35.7080   20.1450   32.9130 C   0  0  0  0  0  2  0  0  0  0  0  0
   35.5820   20.1560   31.4070 C   0  0  0  0  0  2  0  0  0  0  0  0
   35.7120   21.6610   31.1350 C   0  0  0  0  0  2  0  0  0  0  0  0
  1  7  1  6  0  0  0
  1  2  1  0  0  0  0
  1 17  1  0  0  0  0
  2  9  1  0  0  0  0
  3 11  1  0  0  0  0
  3  2  1  0  0  0  0
  3 10  1  0  0  0  0
  4  3  1  0  0  0  0
  5  4  1  0  0  0  0
  5  6  1  0  0  0  0
  6 16  1  1  0  0  0
  6  1  1  0  0  0  0
  8  2  1  0  0  0  0
 12  4  1  0  0  0  0
 13  4  1  0  0  0  0
 14  5  1  0  0  0  0
 15  5  1  0  0  0  0
 17 22  2  0  0  0  0
 17 18  1  0  0  0  0
 18 23  1  0  0  0  0
 18 19  2  0  0  0  0
 19 24  1  0  0  0  0
 20 19  1  0  0  0  0
 21 25  1  0  0  0  0
 21 20  2  0  0  0  0
 22 21  1  0  0  0  0
 26 28  1  0  0  0  0
 27 26  2  0  0  0  0
 28 29  1  0  0  0  0
 28  6  1  0  0  0  0
 30 26  1  0  0  0  0
 30 31  1  0  0  0  0
 32 31  1  0  0  0  0
 33 32  1  0  0  0  0
 34 33  1  0  0  0  0
 34 30  1  0  0  0  0
M  END
>  <minimizedAffinity>
-5.59705257

$$$$

 OpenBabel03272509323D

 34 36  0  0  1  0  0  0  0  0999 V2000
   36.7200   22.1780   31.6170 C   0  0  2  0  0  0  0  0  0  0  0  0
   35.5940   21.5360   30.8680 C   0  0  0  0  0  0  0  0  0  0  0  0
   34.5910   20.8610   31.7770 C   0  0  0  0  0  0  0  0  0  0  0  0
   35.2690   19.8410   32.6830 C   0  0  0  0  0  0  0  0  0  0  0  0
   36.6550   20.2370   33.1260 C   0  0  0  0  0  0  0  0  0  0  0  0
   36.7600   21.7710   33.0470 C   0  0  1  0  0  0  0  0  0  0  0  0
   37.7420   21.9360   31.2090 H   0  0  0  0  0  0  0  0  0  0  0  0
   36.0860   20.6640   30.3190 H   0  0  0  0  0  0  0  0  0  0  0  0
   35.1130   22.1070   30.0990 H   0  0  0  0  0  0  0  0  0  0  0  0
   33.9610   21.5520   32.3480 H   0  0  0  0  0  0  0  0  0  0  0  0
   33.9290   20.2760   31.1060 H   0  0  0  0  0  0  0  0  0  0  0  0
   35.2270   18.8150   32.2850 H   0  0  0  0  0  0  0  0  0  0  0  0
   34.6440   19.8150   33.6170 H   0  0  0  0  0  0  0  0  0  0  0  0
   36.8580   19.9200   34.1680 H   0  0  0  0  0  0  0  0  0  0  0  0
   37.3770   19.7670   32.4520 H   0  0  0  0  0  0  0  0  0  0  0  0
   35.8770   22.0500   33.5680 H   0  0  0  0  0  0  0  0  0  0  0  0
   36.6400   23.6630   31.5410 C   0  0  0  0  0  0  0  0  0  0  0  0
   35.3900   24.1820   31.1690 C   0  0  0  0  0  0  0  0  0  0  0  0
   35.2960   25.5770   31.0930 C   0  0  0  0  0  0  0  0  0  0  0  0
   36.4030   26.3390   31.3820 N   0  0  0  0  0  0  0  0  0  0  0  0
   37.6020   25.7750   31.7410 C   0  0  0  0  0  0  0  0  0  0  0  0
   37.7000   24.4350   31.8150 N   0  0  0  0  0  0  0  0  0  0  0  0
   34.4630   23.7030   30.9310 H   0  0  0  0  0  0  0  0  0  0  0  0
   34.4110   26.1220   30.8230 H   0  0  0  0  0  0  0  0  0  0  0  0
   38.4220   26.4320   31.9530 H   0  0  0  0  0  0  0  0  0  0  0  0
   37.9080   22.3860   35.2240 C   0  0  0  0  0  0  0  0  0  0  0  0
   37.1620   21.9320   36.1360 O   0  0  0  0  0  0  0  0  0  0  0  0
   37.8130   22.3340   33.8100 N   0  0  0  0  0  0  0  0  0  0  0  0
   38.6810   22.7970   33.3900 H   0  0  0  0  0  0  0  0  0  0  0  0
   39.0090   23.0470   35.9810 C   0  0  0  0  0  3  0  0  0  0  0  0
   38.5160   23.8410   37.1410 C   0  0  0  0  0  2  0  0  0  0  0  0
   39.2180   23.2510   38.3600 C   0  0  0  0  0  2  0  0  0  0  0  0
   40.5320   22.8040   37.7620 C   0  0  0  0  0  2  0  0  0  0  0  0
   40.0250   22.0640   36.5170 C   0  0  0  0  0  2  0  0  0  0  0  0
  1  7  1  6  0  0  0
  1  6  1  0  0  0  0
  2  1  1  0  0  0  0
  2  3  1  0  0  0  0
  3 10  1  0  0  0  0
  3  4  1  0  0  0  0
  4  5  1  0  0  0  0
  4 13  1  0  0  0  0
  5 14  1  0  0  0  0
  6  5  1  0  0  0  0
  6 16  1  1  0  0  0
  6 28  1  0  0  0  0
  8  2  1  0  0  0  0
  9  2  1  0  0  0  0
 11  3  1  0  0  0  0
 12  4  1  0  0  0  0
 15  5  1  0  0  0  0
 17  1  1  0  0  0  0
 17 22  1  0  0  0  0
 18 17  2  0  0  0  0
 19 18  1  0  0  0  0
 19 20  2  0  0  0  0
 20 21  1  0  0  0  0
 21 22  2  0  0  0  0
 21 25  1  0  0  0  0
 23 18  1  0  0  0  0
 24 19  1  0  0  0  0
 26 30  1  0  0  0  0
 26 27  2  0  0  0  0
 28 26  1  0  0  0  0
 29 28  1  0  0  0  0
 30 34  1  0  0  0  0
 30 31  1  0  0  0  0
 31 32  1  0  0  0  0
 33 32  1  0  0  0  0
 34 33  1  0  0  0  0
M  END
>  <minimizedAffinity>
-5.32661152

$$$$

 OpenBabel03272509323D

 34 36  0  0  1  0  0  0  0  0999 V2000
   39.3610   25.3670   34.6660 C   0  0  2  0  0  0  0  0  0  0  0  0
   39.7080   26.7070   35.2360 C   0  0  0  0  0  0  0  0  0  0  0  0
   38.5100   27.4330   35.8070 C   0  0  0  0  0  0  0  0  0  0  0  0
   37.4060   27.5730   34.7660 C   0  0  0  0  0  0  0  0  0  0  0  0
   37.2950   26.4010   33.8250 C   0  0  0  0  0  0  0  0  0  0  0  0
   37.8930   25.1680   34.5270 C   0  0  1  0  0  0  0  0  0  0  0  0
   39.7870   25.1780   33.6410 H   0  0  0  0  0  0  0  0  0  0  0  0
   39.9900   27.3330   34.3230 H   0  0  0  0  0  0  0  0  0  0  0  0
   40.5590   26.7710   35.8860 H   0  0  0  0  0  0  0  0  0  0  0  0
   38.1300   27.0120   36.7440 H   0  0  0  0  0  0  0  0  0  0  0  0
   38.8610   28.4640   36.0170 H   0  0  0  0  0  0  0  0  0  0  0  0
   37.4300   28.5410   34.2400 H   0  0  0  0  0  0  0  0  0  0  0  0
   36.4480   27.5870   35.3550 H   0  0  0  0  0  0  0  0  0  0  0  0
   36.2390   26.1840   33.5650 H   0  0  0  0  0  0  0  0  0  0  0  0
   37.8560   26.6370   32.9160 H   0  0  0  0  0  0  0  0  0  0  0  0
   37.3920   25.2170   35.4620 H   0  0  0  0  0  0  0  0  0  0  0  0
   39.9190   24.2660   35.5000 C   0  0  0  0  0  0  0  0  0  0  0  0
   41.1830   23.7930   35.1080 C   0  0  0  0  0  0  0  0  0  0  0  0
   41.7230   22.7600   35.8820 C   0  0  0  0  0  0  0  0  0  0  0  0
   41.0080   22.2800   36.9530 N   0  0  0  0  0  0  0  0  0  0  0  0
   39.7760   22.7830   37.2900 C   0  0  0  0  0  0  0  0  0  0  0  0
   39.2490   23.7760   36.5510 N   0  0  0  0  0  0  0  0  0  0  0  0
   41.8350   24.0840   34.3120 H   0  0  0  0  0  0  0  0  0  0  0  0
   42.6750   22.2940   35.7090 H   0  0  0  0  0  0  0  0  0  0  0  0
   39.2760   22.3600   38.1390 H   0  0  0  0  0  0  0  0  0  0  0  0
   37.5850   23.5220   32.6220 C   0  0  0  0  0  0  0  0  0  0  0  0
   38.0530   24.0990   31.6010 O   0  0  0  0  0  0  0  0  0  0  0  0
   37.4980   23.9220   33.9800 N   0  0  0  0  0  0  0  0  0  0  0  0
   37.0780   23.1190   34.5480 H   0  0  0  0  0  0  0  0  0  0  0  0
   37.0980   22.2190   32.0840 C   0  0  0  0  0  3  0  0  0  0  0  0
   37.0390   21.1520   33.1210 C   0  0  0  0  0  2  0  0  0  0  0  0
   35.5860   20.6870   33.1360 C   0  0  0  0  0  2  0  0  0  0  0  0
   35.1890   20.8960   31.6930 C   0  0  0  0  0  2  0  0  0  0  0  0
   35.7210   22.3180   31.4700 C   0  0  0  0  0  2  0  0  0  0  0  0
  1  7  1  6  0  0  0
  1  2  1  0  0  0  0
  1 17  1  0  0  0  0
  2  3  1  0  0  0  0
  2  9  1  0  0  0  0
  3 11  1  0  0  0  0
  3 10  1  0  0  0  0
  4 13  1  0  0  0  0
  4  3  1  0  0  0  0
  5  6  1  0  0  0  0
  5  4  1  0  0  0  0
  6  1  1  0  0  0  0
  6 16  1  1  0  0  0
  8  2  1  0  0  0  0
 12  4  1  0  0  0  0
 14  5  1  0  0  0  0
 15  5  1  0  0  0  0
 17 22  1  0  0  0  0
 18 17  2  0  0  0  0
 18 19  1  0  0  0  0
 19 20  2  0  0  0  0
 20 21  1  0  0  0  0
 21 25  1  0  0  0  0
 22 21  2  0  0  0  0
 23 18  1  0  0  0  0
 24 19  1  0  0  0  0
 26 28  1  0  0  0  0
 27 26  2  0  0  0  0
 28  6  1  0  0  0  0
 28 29  1  0  0  0  0
 30 26  1  0  0  0  0
 30 31  1  0  0  0  0
 31 32  1  0  0  0  0
 33 32  1  0  0  0  0
 34 33  1  0  0  0  0
 34 30  1  0  0  0  0
M  END
>  <minimizedAffinity>
-5.19396591

$$$$

 OpenBabel03272509323D

 34 36  0  0  1  0  0  0  0  0999 V2000
   38.6030   26.7210   32.5080 C   0  0  2  0  0  0  0  0  0  0  0  0
   39.3000   27.4870   31.4270 C   0  0  0  0  0  0  0  0  0  0  0  0
   40.7810   27.1930   31.3560 C   0  0  0  0  0  0  0  0  0  0  0  0
   41.4570   27.4470   32.6990 C   0  0  0  0  0  0  0  0  0  0  0  0
   40.5990   27.1090   33.8920 C   0  0  0  0  0  0  0  0  0  0  0  0
   39.5550   26.0700   33.4490 C   0  0  1  0  0  0  0  0  0  0  0  0
   37.9270   27.3490   33.1550 H   0  0  0  0  0  0  0  0  0  0  0  0
   39.2590   28.5710   31.7830 H   0  0  0  0  0  0  0  0  0  0  0  0
   38.8500   27.5020   30.4530 H   0  0  0  0  0  0  0  0  0  0  0  0
   41.0280   26.2010   30.9630 H   0  0  0  0  0  0  0  0  0  0  0  0
   41.2010   27.9470   30.6600 H   0  0  0  0  0  0  0  0  0  0  0  0
   41.9110   28.4490   32.7710 H   0  0  0  0  0  0  0  0  0  0  0  0
   42.3240   26.7330   32.7310 H   0  0  0  0  0  0  0  0  0  0  0  0
   41.2000   26.6800   34.7190 H   0  0  0  0  0  0  0  0  0  0  0  0
   40.1090   28.0260   34.2320 H   0  0  0  0  0  0  0  0  0  0  0  0
   40.1810   25.3640   32.9610 H   0  0  0  0  0  0  0  0  0  0  0  0
   37.7010   25.6830   31.9380 C   0  0  0  0  0  0  0  0  0  0  0  0
   36.3500   26.0520   31.8280 C   0  0  0  0  0  0  0  0  0  0  0  0
   35.4880   25.0880   31.2920 C   0  0  0  0  0  0  0  0  0  0  0  0
   35.9980   23.8690   30.9120 N   0  0  0  0  0  0  0  0  0  0  0  0
   37.3300   23.5650   31.0430 C   0  0  0  0  0  0  0  0  0  0  0  0
   38.1660   24.4850   31.5580 N   0  0  0  0  0  0  0  0  0  0  0  0
   35.8380   26.9570   32.0760 H   0  0  0  0  0  0  0  0  0  0  0  0
   34.4320   25.2190   31.1460 H   0  0  0  0  0  0  0  0  0  0  0  0
   37.6570   22.5950   30.7250 H   0  0  0  0  0  0  0  0  0  0  0  0
   39.4220   24.1240   35.0700 C   0  0  0  0  0  0  0  0  0  0  0  0
   40.4510   23.4270   34.8430 O   0  0  0  0  0  0  0  0  0  0  0  0
   38.9580   25.3380   34.5060 N   0  0  0  0  0  0  0  0  0  0  0  0
   38.0620   25.6320   35.0120 H   0  0  0  0  0  0  0  0  0  0  0  0
   38.7230   23.3580   36.1420 C   0  0  0  0  0  3  0  0  0  0  0  0
   39.6650   22.7250   37.1060 C   0  0  0  0  0  2  0  0  0  0  0  0
   39.2790   23.2840   38.4720 C   0  0  0  0  0  2  0  0  0  0  0  0
   37.7910   23.4900   38.3020 C   0  0  0  0  0  2  0  0  0  0  0  0
   37.7730   24.2130   36.9480 C   0  0  0  0  0  2  0  0  0  0  0  0
  1  7  1  1  0  0  0
  1  6  1  0  0  0  0
  2  8  1  0  0  0  0
  2  1  1  0  0  0  0
  3  2  1  0  0  0  0
  3  4  1  0  0  0  0
  4 13  1  0  0  0  0
  4 12  1  0  0  0  0
  4  5  1  0  0  0  0
  5 15  1  0  0  0  0
  5 14  1  0  0  0  0
  6 16  1  6  0  0  0
  6  5  1  0  0  0  0
  6 28  1  0  0  0  0
  9  2  1  0  0  0  0
 10  3  1  0  0  0  0
 11  3  1  0  0  0  0
 17  1  1  0  0  0  0
 18 17  1  0  0  0  0
 18 23  1  0  0  0  0
 19 18  2  0  0  0  0
 20 21  2  0  0  0  0
 20 19  1  0  0  0  0
 21 22  1  0  0  0  0
 22 17  2  0  0  0  0
 24 19  1  0  0  0  0
 25 21  1  0  0  0  0
 26 30  1  0  0  0  0
 27 26  2  0  0  0  0
 28 29  1  0  0  0  0
 28 26  1  0  0  0  0
 30 34  1  0  0  0  0
 30 31  1  0  0  0  0
 31 32  1  0  0  0  0
 33 32  1  0  0  0  0
 34 33  1  0  0  0  0
M  END
>  <minimizedAffinity>
-5.04213667

$$$$

 OpenBabel03272509323D

 34 36  0  0  1  0  0  0  0  0999 V2000
   36.9360   22.6850   31.6050 C   0  0  2  0  0  0  0  0  0  0  0  0
   35.8240   21.7930   31.1480 C   0  0  0  0  0  0  0  0  0  0  0  0
   35.0700   21.1560   32.2930 C   0  0  0  0  0  0  0  0  0  0  0  0
   36.0130   20.3900   33.2130 C   0  0  0  0  0  0  0  0  0  0  0  0
   37.3730   21.0230   33.3650 C   0  0  0  0  0  0  0  0  0  0  0  0
   37.2370   22.5240   33.0540 C   0  0  1  0  0  0  0  0  0  0  0  0
   37.9150   22.5090   31.0760 H   0  0  0  0  0  0  0  0  0  0  0  0
   36.3580   20.9120   30.6550 H   0  0  0  0  0  0  0  0  0  0  0  0
   35.1600   22.1670   30.3930 H   0  0  0  0  0  0  0  0  0  0  0  0
   34.4320   21.8460   32.8550 H   0  0  0  0  0  0  0  0  0  0  0  0
   34.4140   20.3910   31.8280 H   0  0  0  0  0  0  0  0  0  0  0  0
   36.0680   19.3150   32.9760 H   0  0  0  0  0  0  0  0  0  0  0  0
   35.5360   20.4380   34.2300 H   0  0  0  0  0  0  0  0  0  0  0  0
   37.7660   20.9070   34.3950 H   0  0  0  0  0  0  0  0  0  0  0  0
   38.0550   20.5430   32.6560 H   0  0  0  0  0  0  0  0  0  0  0  0
   36.4050   22.7720   33.6650 H   0  0  0  0  0  0  0  0  0  0  0  0
   36.6270   24.1150   31.3330 C   0  0  0  0  0  0  0  0  0  0  0  0
   35.2690   24.4110   31.1280 C   0  0  0  0  0  0  0  0  0  0  0  0
   34.9600   25.7520   30.8720 C   0  0  0  0  0  0  0  0  0  0  0  0
   35.9750   26.6790   30.8390 N   0  0  0  0  0  0  0  0  0  0  0  0
   37.2860   26.3310   31.0480 C   0  0  0  0  0  0  0  0  0  0  0  0
   37.5920   25.0440   31.2940 N   0  0  0  0  0  0  0  0  0  0  0  0
   34.3980   23.7920   31.1360 H   0  0  0  0  0  0  0  0  0  0  0  0
   33.9730   26.1340   30.6950 H   0  0  0  0  0  0  0  0  0  0  0  0
   38.0240   27.1080   31.0080 H   0  0  0  0  0  0  0  0  0  0  0  0
   38.4600   23.7920   34.8780 C   0  0  0  0  0  0  0  0  0  0  0  0
   37.7970   23.5860   35.9320 O   0  0  0  0  0  0  0  0  0  0  0  0
   38.2910   23.3320   33.5480 N   0  0  0  0  0  0  0  0  0  0  0  0
   39.1030   23.6940   32.9530 H   0  0  0  0  0  0  0  0  0  0  0  0
   39.5560   24.6940   35.3360 C   0  0  0  0  0  3  0  0  0  0  0  0
   40.9110   24.1420   35.0590 C   0  0  0  0  0  2  0  0  0  0  0  0
   41.6030   25.1910   34.1930 C   0  0  0  0  0  2  0  0  0  0  0  0
   40.9760   26.4660   34.7090 C   0  0  0  0  0  2  0  0  0  0  0  0
   39.4950   26.0620   34.6970 C   0  0  0  0  0  2  0  0  0  0  0  0
  1  7  1  6  0  0  0
  1  6  1  0  0  0  0
  2  1  1  0  0  0  0
  2  3  1  0  0  0  0
  3 10  1  0  0  0  0
  3  4  1  0  0  0  0
  4  5  1  0  0  0  0
  4 13  1  0  0  0  0
  5 14  1  0  0  0  0
  6  5  1  0  0  0  0
  6 28  1  0  0  0  0
  6 16  1  1  0  0  0
  8  2  1  0  0  0  0
  9  2  1  0  0  0  0
 11  3  1  0  0  0  0
 12  4  1  0  0  0  0
 15  5  1  0  0  0  0
 17  1  1  0  0  0  0
 18 23  1  0  0  0  0
 18 17  2  0  0  0  0
 19 18  1  0  0  0  0
 20 19  2  0  0  0  0
 20 21  1  0  0  0  0
 21 22  2  0  0  0  0
 22 17  1  0  0  0  0
 24 19  1  0  0  0  0
 25 21  1  0  0  0  0
 26 30  1  0  0  0  0
 26 27  2  0  0  0  0
 28 26  1  0  0  0  0
 29 28  1  0  0  0  0
 31 30  1  0  0  0  0
 32 33  1  0  0  0  0
 32 31  1  0  0  0  0
 34 33  1  0  0  0  0
 34 30  1  0  0  0  0
M  END
>  <minimizedAffinity>
-4.98555183

$$$$

 OpenBabel03272509323D

 34 36  0  0  1  0  0  0  0  0999 V2000
   38.8490   25.8480   34.7750 C   0  0  2  0  0  0  0  0  0  0  0  0
   38.5750   27.2140   35.3230 C   0  0  0  0  0  0  0  0  0  0  0  0
   37.1950   27.7240   34.9740 C   0  0  0  0  0  0  0  0  0  0  0  0
   36.9690   27.7070   33.4660 C   0  0  0  0  0  0  0  0  0  0  0  0
   37.6310   26.5540   32.7580 C   0  0  0  0  0  0  0  0  0  0  0  0
   37.8310   25.4190   33.7780 C   0  0  1  0  0  0  0  0  0  0  0  0
   39.8400   25.7540   34.2480 H   0  0  0  0  0  0  0  0  0  0  0  0
   39.2710   27.8970   34.7300 H   0  0  0  0  0  0  0  0  0  0  0  0
   38.8190   27.4000   36.3510 H   0  0  0  0  0  0  0  0  0  0  0  0
   36.3790   27.2260   35.5090 H   0  0  0  0  0  0  0  0  0  0  0  0
   37.1900   28.7930   35.2680 H   0  0  0  0  0  0  0  0  0  0  0  0
   37.1780   28.6780   32.9890 H   0  0  0  0  0  0  0  0  0  0  0  0
   35.8620   27.5540   33.3370 H   0  0  0  0  0  0  0  0  0  0  0  0
   37.0090   26.1750   31.9220 H   0  0  0  0  0  0  0  0  0  0  0  0
   38.5950   26.8980   32.3710 H   0  0  0  0  0  0  0  0  0  0  0  0
   36.8570   25.3650   34.1980 H   0  0  0  0  0  0  0  0  0  0  0  0
   38.9160   24.8340   35.8620 C   0  0  0  0  0  0  0  0  0  0  0  0
   37.9890   25.0030   36.9040 C   0  0  0  0  0  0  0  0  0  0  0  0
   38.0380   24.0570   37.9350 C   0  0  0  0  0  0  0  0  0  0  0  0
   38.9630   23.0420   37.8700 N   0  0  0  0  0  0  0  0  0  0  0  0
   39.8450   22.9270   36.8250 C   0  0  0  0  0  0  0  0  0  0  0  0
   39.8060   23.8320   35.8300 N   0  0  0  0  0  0  0  0  0  0  0  0
   37.2250   25.7340   37.0640 H   0  0  0  0  0  0  0  0  0  0  0  0
   37.3980   24.0510   38.7970 H   0  0  0  0  0  0  0  0  0  0  0  0
   40.5380   22.1090   36.8410 H   0  0  0  0  0  0  0  0  0  0  0  0
   37.1430   23.4150   32.3830 C   0  0  0  0  0  0  0  0  0  0  0  0
   36.0090   23.7090   31.9110 O   0  0  0  0  0  0  0  0  0  0  0  0
   38.0400   24.1380   33.2090 N   0  0  0  0  0  0  0  0  0  0  0  0
   38.9280   23.5560   33.3440 H   0  0  0  0  0  0  0  0  0  0  0  0
   37.3850   22.0410   31.8580 C   0  0  0  0  0  3  0  0  0  0  0  0
   38.2010   22.0340   30.6130 C   0  0  0  0  0  2  0  0  0  0  0  0
   39.4200   21.1740   30.9360 C   0  0  0  0  0  2  0  0  0  0  0  0
   38.8380   20.1880   31.9220 C   0  0  0  0  0  2  0  0  0  0  0  0
   38.0880   21.1490   32.8550 C   0  0  0  0  0  2  0  0  0  0  0  0
  1  7  1  6  0  0  0
  1  2  1  0  0  0  0
  1 17  1  0  0  0  0
  2  9  1  0  0  0  0
  3 11  1  0  0  0  0
  3  2  1  0  0  0  0
  3 10  1  0  0  0  0
  4  3  1  0  0  0  0
  5  4  1  0  0  0  0
  5  6  1  0  0  0  0
  6 16  1  1  0  0  0
  6  1  1  0  0  0  0
  8  2  1  0  0  0  0
 12  4  1  0  0  0  0
 13  4  1  0  0  0  0
 14  5  1  0  0  0  0
 15  5  1  0  0  0  0
 17 18  1  0  0  0  0
 18 23  1  0  0  0  0
 18 19  2  0  0  0  0
 19 24  1  0  0  0  0
 20 19  1  0  0  0  0
 21 25  1  0  0  0  0
 21 20  2  0  0  0  0
 22 17  2  0  0  0  0
 22 21  1  0  0  0  0
 26 28  1  0  0  0  0
 27 26  2  0  0  0  0
 28 29  1  0  0  0  0
 28  6  1  0  0  0  0
 30 26  1  0  0  0  0
 30 34  1  0  0  0  0
 31 32  1  0  0  0  0
 31 30  1  0  0  0  0
 32 33  1  0  0  0  0
 33 34  1  0  0  0  0
M  END
>  <minimizedAffinity>
-4.93427658

$$$$

 OpenBabel03272509323D

 34 36  0  0  1  0  0  0  0  0999 V2000
   36.5390   25.2860   32.0560 C   0  0  2  0  0  0  0  0  0  0  0  0
   36.6700   26.1460   30.8380 C   0  0  0  0  0  0  0  0  0  0  0  0
   37.9240   26.9910   30.8450 C   0  0  0  0  0  0  0  0  0  0  0  0
   38.0020   27.8470   32.1040 C   0  0  0  0  0  0  0  0  0  0  0  0
   37.4430   27.1820   33.3350 C   0  0  0  0  0  0  0  0  0  0  0  0
   37.5050   25.6590   33.1240 C   0  0  1  0  0  0  0  0  0  0  0  0
   35.5240   25.3290   32.5430 H   0  0  0  0  0  0  0  0  0  0  0  0
   35.8310   26.9120   30.9460 H   0  0  0  0  0  0  0  0  0  0  0  0
   36.5040   25.6900   29.8810 H   0  0  0  0  0  0  0  0  0  0  0  0
   38.8500   26.4300   30.6820 H   0  0  0  0  0  0  0  0  0  0  0  0
   37.8080   27.7030   30.0030 H   0  0  0  0  0  0  0  0  0  0  0  0
   37.6130   28.8670   31.9570 H   0  0  0  0  0  0  0  0  0  0  0  0
   39.1020   27.9820   32.3000 H   0  0  0  0  0  0  0  0  0  0  0  0
   38.0270   27.4400   34.2410 H   0  0  0  0  0  0  0  0  0  0  0  0
   36.4070   27.5110   33.4610 H   0  0  0  0  0  0  0  0  0  0  0  0
   38.5130   25.5500   32.8080 H   0  0  0  0  0  0  0  0  0  0  0  0
   36.7210   23.8470   31.7210 C   0  0  0  0  0  0  0  0  0  0  0  0
   35.5360   23.1110   31.5560 C   0  0  0  0  0  0  0  0  0  0  0  0
   35.6890   21.7560   31.2400 C   0  0  0  0  0  0  0  0  0  0  0  0
   36.9550   21.2360   31.1100 N   0  0  0  0  0  0  0  0  0  0  0  0
   38.0790   22.0060   31.2830 C   0  0  0  0  0  0  0  0  0  0  0  0
   37.9410   23.3090   31.5880 N   0  0  0  0  0  0  0  0  0  0  0  0
   34.5070   23.3960   31.6200 H   0  0  0  0  0  0  0  0  0  0  0  0
   34.8820   21.0650   31.0830 H   0  0  0  0  0  0  0  0  0  0  0  0
   39.0340   21.5330   31.1660 H   0  0  0  0  0  0  0  0  0  0  0  0
   38.4950   24.2640   34.9970 C   0  0  0  0  0  0  0  0  0  0  0  0
   39.7400   24.2570   34.7880 O   0  0  0  0  0  0  0  0  0  0  0  0
   37.4230   24.8900   34.3120 N   0  0  0  0  0  0  0  0  0  0  0  0
   36.5140   24.6910   34.8400 H   0  0  0  0  0  0  0  0  0  0  0  0
   38.3490   23.4110   36.2120 C   0  0  0  0  0  3  0  0  0  0  0  0
   39.5110   22.5040   36.4230 C   0  0  0  0  0  2  0  0  0  0  0  0
   40.0470   22.8530   37.8080 C   0  0  0  0  0  2  0  0  0  0  0  0
   38.7820   23.2690   38.5230 C   0  0  0  0  0  2  0  0  0  0  0  0
   38.1810   24.2190   37.4780 C   0  0  0  0  0  2  0  0  0  0  0  0
  1  7  1  1  0  0  0
  1  6  1  0  0  0  0
  2  3  1  0  0  0  0
  2  8  1  0  0  0  0
  2  1  1  0  0  0  0
  3  4  1  0  0  0  0
  4 13  1  0  0  0  0
  4  5  1  0  0  0  0
  5 15  1  0  0  0  0
  5 14  1  0  0  0  0
  6 16  1  6  0  0  0
  6  5  1  0  0  0  0
  6 28  1  0  0  0  0
  9  2  1  0  0  0  0
 10  3  1  0  0  0  0
 11  3  1  0  0  0  0
 12  4  1  0  0  0  0
 17  1  1  0  0  0  0
 18 23  1  0  0  0  0
 18 17  2  0  0  0  0
 19 18  1  0  0  0  0
 20 19  2  0  0  0  0
 20 21  1  0  0  0  0
 21 22  2  0  0  0  0
 22 17  1  0  0  0  0
 24 19  1  0  0  0  0
 25 21  1  0  0  0  0
 26 30  1  0  0  0  0
 27 26  2  0  0  0  0
 28 29  1  0  0  0  0
 28 26  1  0  0  0  0
 30 31  1  0  0  0  0
 30 34  1  0  0  0  0
 31 32  1  0  0  0  0
 32 33  1  0  0  0  0
 34 33  1  0  0  0  0
M  END
>  <minimizedAffinity>
-4.92989683

$$$$

 OpenBabel03272509323D

 34 36  0  0  1  0  0  0  0  0999 V2000
   38.3800   26.0950   34.7980 C   0  0  2  0  0  0  0  0  0  0  0  0
   39.6070   26.8680   35.1700 C   0  0  0  0  0  0  0  0  0  0  0  0
   40.8660   26.3150   34.5420 C   0  0  0  0  0  0  0  0  0  0  0  0
   41.0490   24.8410   34.8850 C   0  0  0  0  0  0  0  0  0  0  0  0
   39.7590   24.0670   34.9790 C   0  0  0  0  0  0  0  0  0  0  0  0
   38.7000   24.8010   34.1370 C   0  0  1  0  0  0  0  0  0  0  0  0
   37.7210   25.8300   35.6720 H   0  0  0  0  0  0  0  0  0  0  0  0
   39.7460   26.6520   36.2820 H   0  0  0  0  0  0  0  0  0  0  0  0
   39.5660   27.9380   35.1020 H   0  0  0  0  0  0  0  0  0  0  0  0
   40.9500   26.4910   33.4640 H   0  0  0  0  0  0  0  0  0  0  0  0
   41.7040   26.8470   35.0370 H   0  0  0  0  0  0  0  0  0  0  0  0
   41.7080   24.6790   35.7530 H   0  0  0  0  0  0  0  0  0  0  0  0
   41.6080   24.4030   34.0120 H   0  0  0  0  0  0  0  0  0  0  0  0
   39.8710   23.0350   34.5890 H   0  0  0  0  0  0  0  0  0  0  0  0
   39.4580   24.0300   36.0300 H   0  0  0  0  0  0  0  0  0  0  0  0
   39.2360   24.9360   33.2300 H   0  0  0  0  0  0  0  0  0  0  0  0
   37.4950   26.8880   33.9020 C   0  0  0  0  0  0  0  0  0  0  0  0
   36.7350   27.8870   34.5330 C   0  0  0  0  0  0  0  0  0  0  0  0
   35.8980   28.6430   33.7050 C   0  0  0  0  0  0  0  0  0  0  0  0
   35.8690   28.3760   32.3560 N   0  0  0  0  0  0  0  0  0  0  0  0
   36.6360   27.3860   31.7950 C   0  0  0  0  0  0  0  0  0  0  0  0
   37.4430   26.6530   32.5830 N   0  0  0  0  0  0  0  0  0  0  0  0
   36.6750   28.1950   35.5550 H   0  0  0  0  0  0  0  0  0  0  0  0
   35.2570   29.4390   34.0370 H   0  0  0  0  0  0  0  0  0  0  0  0
   36.5620   27.2340   30.7360 H   0  0  0  0  0  0  0  0  0  0  0  0
   37.5380   23.0000   32.7800 C   0  0  0  0  0  0  0  0  0  0  0  0
   38.4330   22.5130   32.0340 O   0  0  0  0  0  0  0  0  0  0  0  0
   37.5810   24.0130   33.7720 N   0  0  0  0  0  0  0  0  0  0  0  0
   36.6120   24.0980   34.2180 H   0  0  0  0  0  0  0  0  0  0  0  0
   36.3170   22.2400   32.3880 C   0  0  0  0  0  3  0  0  0  0  0  0
   36.4250   21.6350   31.0320 C   0  0  0  0  0  2  0  0  0  0  0  0
   36.2200   20.1380   31.2420 C   0  0  0  0  0  2  0  0  0  0  0  0
   35.2750   20.1280   32.4220 C   0  0  0  0  0  2  0  0  0  0  0  0
   35.9900   21.1210   33.3490 C   0  0  0  0  0  2  0  0  0  0  0  0
  1  2  1  0  0  0  0
  1  7  1  1  0  0  0
  2  8  1  0  0  0  0
  3  4  1  0  0  0  0
  3 11  1  0  0  0  0
  3  2  1  0  0  0  0
  4  5  1  0  0  0  0
  4 12  1  0  0  0  0
  5 15  1  0  0  0  0
  6 16  1  6  0  0  0
  6  1  1  0  0  0  0
  6  5  1  0  0  0  0
  9  2  1  0  0  0  0
 10  3  1  0  0  0  0
 13  4  1  0  0  0  0
 14  5  1  0  0  0  0
 17 18  1  0  0  0  0
 17  1  1  0  0  0  0
 18 23  1  0  0  0  0
 19 24  1  0  0  0  0
 19 18  2  0  0  0  0
 20 19  1  0  0  0  0
 21 20  2  0  0  0  0
 21 22  1  0  0  0  0
 22 17  2  0  0  0  0
 25 21  1  0  0  0  0
 26 28  1  0  0  0  0
 27 26  2  0  0  0  0
 28  6  1  0  0  0  0
 28 29  1  0  0  0  0
 30 26  1  0  0  0  0
 30 34  1  0  0  0  0
 31 32  1  0  0  0  0
 31 30  1  0  0  0  0
 32 33  1  0  0  0  0
 33 34  1  0  0  0  0
M  END
>  <minimizedAffinity>
-4.89613533

$$$$

 OpenBabel03272509323D

 34 36  0  0  1  0  0  0  0  0999 V2000
   36.1750   25.7840   32.0090 C   0  0  2  0  0  0  0  0  0  0  0  0
   35.8600   26.6210   30.8090 C   0  0  0  0  0  0  0  0  0  0  0  0
   36.8440   27.7510   30.6040 C   0  0  0  0  0  0  0  0  0  0  0  0
   36.9400   28.6280   31.8470 C   0  0  0  0  0  0  0  0  0  0  0  0
   36.8020   27.8740   33.1440 C   0  0  0  0  0  0  0  0  0  0  0  0
   37.2000   26.4090   32.8880 C   0  0  1  0  0  0  0  0  0  0  0  0
   35.2900   25.5850   32.6770 H   0  0  0  0  0  0  0  0  0  0  0  0
   34.8920   27.1570   31.0890 H   0  0  0  0  0  0  0  0  0  0  0  0
   35.6380   26.1160   29.8890 H   0  0  0  0  0  0  0  0  0  0  0  0
   37.8340   27.4340   30.2580 H   0  0  0  0  0  0  0  0  0  0  0  0
   36.4000   28.3920   29.8150 H   0  0  0  0  0  0  0  0  0  0  0  0
   36.2890   29.5160   31.7990 H   0  0  0  0  0  0  0  0  0  0  0  0
   37.9880   29.0360   31.8390 H   0  0  0  0  0  0  0  0  0  0  0  0
   37.4610   28.2890   33.9320 H   0  0  0  0  0  0  0  0  0  0  0  0
   35.7590   27.9380   33.4680 H   0  0  0  0  0  0  0  0  0  0  0  0
   38.1260   26.5470   32.3880 H   0  0  0  0  0  0  0  0  0  0  0  0
   36.6430   24.4270   31.6120 C   0  0  0  0  0  0  0  0  0  0  0  0
   35.6490   23.4370   31.5600 C   0  0  0  0  0  0  0  0  0  0  0  0
   36.0710   22.1550   31.1870 C   0  0  0  0  0  0  0  0  0  0  0  0
   37.3990   21.9450   30.8980 N   0  0  0  0  0  0  0  0  0  0  0  0
   38.3270   22.9540   30.9650 C   0  0  0  0  0  0  0  0  0  0  0  0
   37.9300   24.1880   31.3240 N   0  0  0  0  0  0  0  0  0  0  0  0
   34.5970   23.4740   31.7510 H   0  0  0  0  0  0  0  0  0  0  0  0
   35.4330   21.2960   31.1030 H   0  0  0  0  0  0  0  0  0  0  0  0
   39.3450   22.7160   30.7250 H   0  0  0  0  0  0  0  0  0  0  0  0
   38.6670   25.8570   34.8830 C   0  0  0  0  0  0  0  0  0  0  0  0
   39.6040   26.7030   34.8540 O   0  0  0  0  0  0  0  0  0  0  0  0
   37.5330   25.6720   34.0520 N   0  0  0  0  0  0  0  0  0  0  0  0
   36.9470   24.8680   34.4450 H   0  0  0  0  0  0  0  0  0  0  0  0
   39.0070   25.0130   36.0640 C   0  0  0  0  0  3  0  0  0  0  0  0
   37.8030   24.5460   36.8050 C   0  0  0  0  0  2  0  0  0  0  0  0
   37.8910   23.0230   36.7970 C   0  0  0  0  0  2  0  0  0  0  0  0
   39.3870   22.8090   36.8040 C   0  0  0  0  0  2  0  0  0  0  0  0
   39.8040   23.7830   35.6950 C   0  0  0  0  0  2  0  0  0  0  0  0
  1  7  1  1  0  0  0
  1  6  1  0  0  0  0
  2  8  1  0  0  0  0
  2  1  1  0  0  0  0
  3  2  1  0  0  0  0
  3  4  1  0  0  0  0
  4  5  1  0  0  0  0
  5 15  1  0  0  0  0
  5 14  1  0  0  0  0
  6 16  1  6  0  0  0
  6  5  1  0  0  0  0
  6 28  1  0  0  0  0
  9  2  1  0  0  0  0
 10  3  1  0  0  0  0
 11  3  1  0  0  0  0
 12  4  1  0  0  0  0
 13  4  1  0  0  0  0
 17  1  1  0  0  0  0
 18 17  1  0  0  0  0
 18 23  1  0  0  0  0
 19 18  2  0  0  0  0
 20 21  2  0  0  0  0
 20 19  1  0  0  0  0
 21 22  1  0  0  0  0
 22 17  2  0  0  0  0
 24 19  1  0  0  0  0
 25 21  1  0  0  0  0
 26 30  1  0  0  0  0
 27 26  2  0  0  0  0
 28 29  1  0  0  0  0
 28 26  1  0  0  0  0
 30 31  1  0  0  0  0
 32 33  1  0  0  0  0
 32 31  1  0  0  0  0
 34 30  1  0  0  0  0
 34 33  1  0  0  0  0
M  END
>  <minimizedAffinity>
-4.84251308

$$$$
