
 OpenBabel03272509313D

 34 36  0  0  1  0  0  0  0  0999 V2000
   36.3140   30.6950   48.9940 C   0  0  2  0  0  0  0  0  0  0  0  0
   37.2550   31.5880   49.7390 C   0  0  0  0  0  0  0  0  0  0  0  0
   38.1490   30.8340   50.6980 C   0  0  0  0  0  0  0  0  0  0  0  0
   37.3280   30.0030   51.6760 C   0  0  0  0  0  0  0  0  0  0  0  0
   36.0700   29.4220   51.0840 C   0  0  0  0  0  0  0  0  0  0  0  0
   36.2630   29.3200   49.5600 C   0  0  1  0  0  0  0  0  0  0  0  0
   35.2460   31.0540   48.9860 H   0  0  0  0  0  0  0  0  0  0  0  0
   36.5770   32.1960   50.4270 H   0  0  0  0  0  0  0  0  0  0  0  0
   37.8030   32.3210   49.1770 H   0  0  0  0  0  0  0  0  0  0  0  0
   38.9280   30.2340   50.2150 H   0  0  0  0  0  0  0  0  0  0  0  0
   38.6520   31.6120   51.3090 H   0  0  0  0  0  0  0  0  0  0  0  0
   37.1500   30.5160   52.6350 H   0  0  0  0  0  0  0  0  0  0  0  0
   37.9800   29.1240   51.9350 H   0  0  0  0  0  0  0  0  0  0  0  0
   35.8580   28.4100   51.4840 H   0  0  0  0  0  0  0  0  0  0  0  0
   35.2380   30.0920   51.3220 H   0  0  0  0  0  0  0  0  0  0  0  0
   37.2060   28.8340   49.5190 H   0  0  0  0  0  0  0  0  0  0  0  0
   36.6780   30.6090   47.5530 C   0  0  0  0  0  0  0  0  0  0  0  0
   38.0400   30.7950   47.2620 C   0  0  0  0  0  0  0  0  0  0  0  0
   38.4010   30.7160   45.9120 C   0  0  0  0  0  0  0  0  0  0  0  0
   37.4300   30.4660   44.9720 N   0  0  0  0  0  0  0  0  0  0  0  0
   36.1120   30.2910   45.3160 C   0  0  0  0  0  0  0  0  0  0  0  0
   35.7560   30.3660   46.6110 N   0  0  0  0  0  0  0  0  0  0  0  0
   38.8820   30.9850   47.8940 H   0  0  0  0  0  0  0  0  0  0  0  0
   39.3980   30.8360   45.5330 H   0  0  0  0  0  0  0  0  0  0  0  0
   35.4100   30.0980   44.5290 H   0  0  0  0  0  0  0  0  0  0  0  0
   33.9760   28.3260   49.0950 C   0  0  0  0  0  0  0  0  0  0  0  0
   33.1710   28.9910   49.8060 O   0  0  0  0  0  0  0  0  0  0  0  0
   35.3780   28.4260   48.9070 N   0  0  0  0  0  0  0  0  0  0  0  0
   35.6790   27.7060   48.1760 H   0  0  0  0  0  0  0  0  0  0  0  0
   33.0950   27.3250   48.4280 C   0  0  0  0  0  3  0  0  0  0  0  0
   31.6470   27.6320   48.5900 C   0  0  0  0  0  2  0  0  0  0  0  0
   31.1000   27.7550   47.1720 C   0  0  0  0  0  2  0  0  0  0  0  0
   31.9810   26.7770   46.4260 C   0  0  0  0  0  2  0  0  0  0  0  0
   33.3590   27.2080   46.9440 C   0  0  0  0  0  2  0  0  0  0  0  0
  1  7  1  1  0  0  0
  1  6  1  0  0  0  0
  1  2  1  0  0  0  0
  2  8  1  0  0  0  0
  2  3  1  0  0  0  0
  3 11  1  0  0  0  0
  3  4  1  0  0  0  0
  4 13  1  0  0  0  0
  4 12  1  0  0  0  0
  5 15  1  0  0  0  0
  5 14  1  0  0  0  0
  5  4  1  0  0  0  0
  6 16  1  6  0  0  0
  6  5  1  0  0  0  0
  9  2  1  0  0  0  0
 10  3  1  0  0  0  0
 17  1  1  0  0  0  0
 18 17  1  0  0  0  0
 18 23  1  0  0  0  0
 19 18  2  0  0  0  0
 20 21  2  0  0  0  0
 20 19  1  0  0  0  0
 21 22  1  0  0  0  0
 22 17  2  0  0  0  0
 24 19  1  0  0  0  0
 25 21  1  0  0  0  0
 26 27  2  0  0  0  0
 28 26  1  0  0  0  0
 28  6  1  0  0  0  0
 29 28  1  0  0  0  0
 30 31  1  0  0  0  0
 30 26  1  0  0  0  0
 32 31  1  0  0  0  0
 33 34  1  0  0  0  0
 33 32  1  0  0  0  0
 34 30  1  0  0  0  0
M  END
>  <minimizedAffinity>
-5.94381428

>  <minimizedRMSD>
0.670201659

$$$$
