
 OpenBabel03272508273D

 34 37  0  0  1  0  0  0  0  0999 V2000
   33.9880   29.0190   47.3740 C   0  0  2  0  0  0  0  0  0  0  0  0
   34.7600   28.2430   48.4320 C   0  0  2  0  0  0  0  0  0  0  0  0
   33.8820   28.0460   49.4550 O   0  0  0  0  0  0  0  0  0  0  0  0
   32.5960   28.1030   48.9990 C   0  0  0  0  0  0  0  0  0  0  0  0
   32.6320   28.3220   47.5020 C   0  0  1  0  0  0  0  0  0  0  0  0
   33.9160   30.0850   47.6070 H   0  0  0  0  0  0  0  0  0  0  0  0
   35.0640   27.2650   48.0110 H   0  0  0  0  0  0  0  0  0  0  0  0
   32.1090   27.1120   49.1770 H   0  0  0  0  0  0  0  0  0  0  0  0
   31.9420   28.8360   49.5120 H   0  0  0  0  0  0  0  0  0  0  0  0
   32.7070   27.3500   46.9580 H   0  0  0  0  0  0  0  0  0  0  0  0
   35.8170   30.5240   49.0490 C   0  0  1  0  0  0  0  0  0  0  0  0
   35.9160   29.0970   48.8470 C   0  0  1  0  0  0  0  0  0  0  0  0
   36.0650   29.5930   50.2470 C   0  0  0  0  0  0  0  0  0  0  0  0
   34.9130   31.1290   49.2420 H   0  0  0  0  0  0  0  0  0  0  0  0
   36.8830   28.7430   48.3890 H   0  0  0  0  0  0  0  0  0  0  0  0
   37.0690   29.6080   50.7270 H   0  0  0  0  0  0  0  0  0  0  0  0
   35.2620   29.4360   50.9870 H   0  0  0  0  0  0  0  0  0  0  0  0
   37.0040   31.4390   48.7960 C   0  0  0  0  0  0  0  0  0  0  0  0
   37.1990   32.5010   49.6800 C   0  0  0  0  0  0  0  0  0  0  0  0
   38.2800   33.3210   49.3910 C   0  0  0  0  0  0  0  0  0  0  0  0
   39.0790   33.0720   48.2990 N   0  0  0  0  0  0  0  0  0  0  0  0
   38.8510   32.0330   47.4710 C   0  0  0  0  0  0  0  0  0  0  0  0
   37.8000   31.2020   47.7220 N   0  0  0  0  0  0  0  0  0  0  0  0
   36.5560   32.6670   50.5230 H   0  0  0  0  0  0  0  0  0  0  0  0
   38.5130   34.1750   50.0240 H   0  0  0  0  0  0  0  0  0  0  0  0
   39.5090   31.8800   46.6280 H   0  0  0  0  0  0  0  0  0  0  0  0
   34.5020   28.8810   46.1010 O   0  0  0  0  0  0  0  0  0  0  0  0
   34.3120   27.9290   45.8330 H   0  0  0  0  0  0  0  0  0  0  0  0
   31.6050   29.0970   47.0490 O   0  0  0  0  0  0  0  0  0  0  0  0
   30.7270   28.4740   46.2030 C   0  0  0  0  0  3  0  0  0  0  0  0
   30.0140   29.4900   45.3080 C   0  0  0  0  0  2  0  0  0  0  0  0
   28.6640   29.6700   45.9950 C   0  0  0  0  0  2  0  0  0  0  0  0
   28.3550   28.2010   46.3130 C   0  0  0  0  0  2  0  0  0  0  0  0
   29.6470   27.8170   47.0410 C   0  0  0  0  0  2  0  0  0  0  0  0
  1  5  1  0  0  0  0
  1  6  1  1  0  0  0
  1  2  1  0  0  0  0
  2  7  1  6  0  0  0
  2 12  1  0  0  0  0
  2  3  1  0  0  0  0
  4  8  1  0  0  0  0
  4  3  1  0  0  0  0
  4  9  1  0  0  0  0
  5 10  1  6  0  0  0
  5  4  1  0  0  0  0
 11 14  1  6  0  0  0
 11 13  1  0  0  0  0
 12 15  1  6  0  0  0
 12 11  1  0  0  0  0
 12 13  1  0  0  0  0
 13 16  1  0  0  0  0
 13 17  1  0  0  0  0
 18 11  1  0  0  0  0
 18 19  1  0  0  0  0
 19 24  1  0  0  0  0
 20 19  2  0  0  0  0
 20 25  1  0  0  0  0
 21 20  1  0  0  0  0
 22 23  1  0  0  0  0
 22 21  2  0  0  0  0
 23 18  2  0  0  0  0
 26 22  1  0  0  0  0
 27  1  1  0  0  0  0
 28 27  1  0  0  0  0
 29  5  1  0  0  0  0
 30 34  1  0  0  0  0
 30 29  1  0  0  0  0
 31 32  1  0  0  0  0
 31 30  1  0  0  0  0
 32 33  1  0  0  0  0
 33 34  1  0  0  0  0
M  END
>  <minimizedAffinity>
-4.92394972

>  <minimizedRMSD>
0.183198079

$$$$
