
 OpenBabel03272506123D

 40 43  0  0  1  0  0  0  0  0999 V2000
   38.4450   25.6790   33.1860 C   0  0  1  0  0  0  0  0  0  0  0  0
   39.1830   26.9900   32.6990 C   0  0  0  0  0  0  0  0  0  0  0  0
   40.5300   27.1400   33.3950 C   0  0  0  0  0  0  0  0  0  0  0  0
   40.3890   26.8930   34.8620 C   0  0  0  0  0  0  0  0  0  0  0  0
   38.9810   26.9730   35.2580 C   0  0  0  0  0  0  0  0  0  0  0  0
   38.1550   25.8890   34.6400 C   0  0  2  0  0  0  0  0  0  0  0  0
   39.2950   25.0820   33.2060 H   0  0  0  0  0  0  0  0  0  0  0  0
   39.3400   26.8360   31.6370 H   0  0  0  0  0  0  0  0  0  0  0  0
   38.4940   27.8250   32.8850 H   0  0  0  0  0  0  0  0  0  0  0  0
   40.8660   28.1630   33.1590 H   0  0  0  0  0  0  0  0  0  0  0  0
   41.2140   26.4330   32.8880 H   0  0  0  0  0  0  0  0  0  0  0  0
   40.9430   27.7430   35.3690 H   0  0  0  0  0  0  0  0  0  0  0  0
   40.9650   26.0070   35.0910 H   0  0  0  0  0  0  0  0  0  0  0  0
   38.8410   26.9070   36.3430 H   0  0  0  0  0  0  0  0  0  0  0  0
   38.5870   27.9600   34.9550 H   0  0  0  0  0  0  0  0  0  0  0  0
   37.1240   26.2550   34.8330 H   0  0  0  0  0  0  0  0  0  0  0  0
   36.8890   24.3270   31.8430 C   0  0  0  0  0  0  0  0  0  0  0  0
   35.7170   24.2890   31.1090 C   0  0  0  0  0  0  0  0  0  0  0  0
   34.9260   25.3740   30.8380 C   0  0  0  0  0  0  0  0  0  0  0  0
   35.3110   26.6260   31.3260 C   0  0  0  0  0  0  0  0  0  0  0  0
   36.4840   26.6640   32.0560 C   0  0  0  0  0  0  0  0  0  0  0  0
   37.2880   25.5660   32.3370 C   0  0  0  0  0  0  0  0  0  0  0  0
   35.3340   23.3400   30.6890 H   0  0  0  0  0  0  0  0  0  0  0  0
   34.0160   25.2460   30.2540 H   0  0  0  0  0  0  0  0  0  0  0  0
   34.6510   27.4400   31.0830 H   0  0  0  0  0  0  0  0  0  0  0  0
   36.6370   27.6980   32.3360 H   0  0  0  0  0  0  0  0  0  0  0  0
   36.9590   22.0880   32.8100 C   0  0  0  0  0  0  0  0  0  0  0  0
   37.5760   23.0890   31.9800 C   0  0  0  0  0  0  0  0  0  0  0  0
   38.7710   22.7610   31.3670 C   0  0  0  0  0  0  0  0  0  0  0  0
   39.3140   21.5340   31.5520 N   0  0  0  0  0  0  0  0  0  0  0  0
   38.7100   20.5910   32.3430 C   0  0  0  0  0  0  0  0  0  0  0  0
   37.5380   20.8810   32.9640 N   0  0  0  0  0  0  0  0  0  0  0  0
   36.0340   22.1960   33.3460 H   0  0  0  0  0  0  0  0  0  0  0  0
   39.4400   23.3180   30.7930 H   0  0  0  0  0  0  0  0  0  0  0  0
   39.1190   19.5970   32.5120 H   0  0  0  0  0  0  0  0  0  0  0  0
   38.1350   24.6040   35.4040 C   0  0  0  0  0  3  0  0  0  0  0  0
   38.1060   24.7630   36.9080 C   0  0  0  0  0  2  0  0  0  0  0  0
   37.9870   23.2790   37.2840 C   0  0  0  0  0  2  0  0  0  0  0  0
   38.6490   22.5090   36.1320 C   0  0  0  0  0  2  0  0  0  0  0  0
   39.2390   23.6470   35.2620 C   0  0  0  0  0  2  0  0  0  0  0  0
  1  7  1  6  0  0  0
  1  6  1  0  0  0  0
  2  9  1  0  0  0  0
  2  1  1  0  0  0  0
  2  3  1  0  0  0  0
  3  4  1  0  0  0  0
  4 13  1  0  0  0  0
  4  5  1  0  0  0  0
  4 12  1  0  0  0  0
  5 14  1  0  0  0  0
  6 16  1  1  0  0  0
  6  5  1  0  0  0  0
  6 36  1  0  0  0  0
  8  2  1  0  0  0  0
 10  3  1  0  0  0  0
 11  3  1  0  0  0  0
 15  5  1  0  0  0  0
 17 28  1  0  0  0  0
 17 22  1  0  0  0  0
 18 17  2  0  0  0  0
 19 18  1  0  0  0  0
 19 20  2  0  0  0  0
 20 21  1  0  0  0  0
 21 26  1  0  0  0  0
 21 22  2  0  0  0  0
 22  1  1  0  0  0  0
 23 18  1  0  0  0  0
 24 19  1  0  0  0  0
 25 20  1  0  0  0  0
 27 32  1  0  0  0  0
 27 33  1  0  0  0  0
 28 27  2  0  0  0  0
 29 30  2  0  0  0  0
 29 28  1  0  0  0  0
 30 31  1  0  0  0  0
 31 35  1  0  0  0  0
 31 32  2  0  0  0  0
 34 29  1  0  0  0  0
 36 37  1  0  0  0  0
 37 38  1  0  0  0  0
 39 38  1  0  0  0  0
 40 36  1  0  0  0  0
 40 39  1  0  0  0  0
M  END
>  <minimizedAffinity>
-5.80882692

$$$$

 OpenBabel03272506123D

 40 43  0  0  1  0  0  0  0  0999 V2000
   36.4120   27.3100   31.7130 C   0  0  1  0  0  0  0  0  0  0  0  0
   35.7650   26.3100   30.6730 C   0  0  0  0  0  0  0  0  0  0  0  0
   35.4810   24.9630   31.3250 C   0  0  0  0  0  0  0  0  0  0  0  0
   36.6600   24.5110   32.1240 C   0  0  0  0  0  0  0  0  0  0  0  0
   37.8540   25.2670   31.7380 C   0  0  0  0  0  0  0  0  0  0  0  0
   37.7400   26.7210   32.0760 C   0  0  2  0  0  0  0  0  0  0  0  0
   35.8100   27.0300   32.5140 H   0  0  0  0  0  0  0  0  0  0  0  0
   34.8290   26.7790   30.3890 H   0  0  0  0  0  0  0  0  0  0  0  0
   36.4580   26.2520   29.8220 H   0  0  0  0  0  0  0  0  0  0  0  0
   35.2370   24.2830   30.4920 H   0  0  0  0  0  0  0  0  0  0  0  0
   34.5630   25.1040   31.9270 H   0  0  0  0  0  0  0  0  0  0  0  0
   36.8270   23.4260   31.8360 H   0  0  0  0  0  0  0  0  0  0  0  0
   36.3500   24.4820   33.1590 H   0  0  0  0  0  0  0  0  0  0  0  0
   38.7670   24.8950   32.2200 H   0  0  0  0  0  0  0  0  0  0  0  0
   38.0090   25.1490   30.6510 H   0  0  0  0  0  0  0  0  0  0  0  0
   38.5830   27.1530   31.4970 H   0  0  0  0  0  0  0  0  0  0  0  0
   35.8160   29.6910   31.5530 C   0  0  0  0  0  0  0  0  0  0  0  0
   35.9900   30.8910   30.8850 C   0  0  0  0  0  0  0  0  0  0  0  0
   36.7490   31.0580   29.7570 C   0  0  0  0  0  0  0  0  0  0  0  0
   37.4080   29.9480   29.2180 C   0  0  0  0  0  0  0  0  0  0  0  0
   37.2310   28.7500   29.8840 C   0  0  0  0  0  0  0  0  0  0  0  0
   36.4640   28.5760   31.0290 C   0  0  0  0  0  0  0  0  0  0  0  0
   35.5100   31.8210   31.2430 H   0  0  0  0  0  0  0  0  0  0  0  0
   36.8300   32.0440   29.3030 H   0  0  0  0  0  0  0  0  0  0  0  0
   37.9890   30.1400   28.3340 H   0  0  0  0  0  0  0  0  0  0  0  0
   37.7870   28.0060   29.3290 H   0  0  0  0  0  0  0  0  0  0  0  0
   35.5130   30.2580   33.9050 C   0  0  0  0  0  0  0  0  0  0  0  0
   34.9590   29.7300   32.6860 C   0  0  0  0  0  0  0  0  0  0  0  0
   33.6360   29.3270   32.7090 C   0  0  0  0  0  0  0  0  0  0  0  0
   32.9120   29.4420   33.8470 N   0  0  0  0  0  0  0  0  0  0  0  0
   33.4550   29.9500   34.9990 C   0  0  0  0  0  0  0  0  0  0  0  0
   34.7520   30.3510   35.0140 N   0  0  0  0  0  0  0  0  0  0  0  0
   36.5200   30.6110   34.0410 H   0  0  0  0  0  0  0  0  0  0  0  0
   33.0370   28.8530   32.0000 H   0  0  0  0  0  0  0  0  0  0  0  0
   32.9010   30.0550   35.9300 H   0  0  0  0  0  0  0  0  0  0  0  0
   38.1540   27.0760   33.4680 C   0  0  0  0  0  3  0  0  0  0  0  0
   39.2580   26.2120   34.0390 C   0  0  0  0  0  2  0  0  0  0  0  0
   39.4450   26.9480   35.3730 C   0  0  0  0  0  2  0  0  0  0  0  0
   38.0830   27.5850   35.6860 C   0  0  0  0  0  2  0  0  0  0  0  0
   37.1790   27.0150   34.5640 C   0  0  0  0  0  2  0  0  0  0  0  0
  1  6  1  0  0  0  0
  1  7  1  1  0  0  0
  2  3  1  0  0  0  0
  2  1  1  0  0  0  0
  3 11  1  0  0  0  0
  3  4  1  0  0  0  0
  4 13  1  0  0  0  0
  5  6  1  0  0  0  0
  5  4  1  0  0  0  0
  5 14  1  0  0  0  0
  6 16  1  6  0  0  0
  6 36  1  0  0  0  0
  8  2  1  0  0  0  0
  9  2  1  0  0  0  0
 10  3  1  0  0  0  0
 12  4  1  0  0  0  0
 15  5  1  0  0  0  0
 17 28  1  0  0  0  0
 18 23  1  0  0  0  0
 18 17  2  0  0  0  0
 19 18  1  0  0  0  0
 20 19  2  0  0  0  0
 20 21  1  0  0  0  0
 21 22  2  0  0  0  0
 22 17  1  0  0  0  0
 22  1  1  0  0  0  0
 24 19  1  0  0  0  0
 25 20  1  0  0  0  0
 26 21  1  0  0  0  0
 27 33  1  0  0  0  0
 27 32  1  0  0  0  0
 28 29  1  0  0  0  0
 28 27  2  0  0  0  0
 29 30  2  0  0  0  0
 30 31  1  0  0  0  0
 31 32  2  0  0  0  0
 31 35  1  0  0  0  0
 34 29  1  0  0  0  0
 36 37  1  0  0  0  0
 36 40  1  0  0  0  0
 37 38  1  0  0  0  0
 38 39  1  0  0  0  0
 40 39  1  0  0  0  0
M  END
>  <minimizedAffinity>
-5.7388835

$$$$

 OpenBabel03272506123D

 40 43  0  0  1  0  0  0  0  0999 V2000
   39.4390   25.1780   33.9650 C   0  0  1  0  0  0  0  0  0  0  0  0
   40.9800   24.8250   34.0130 C   0  0  0  0  0  0  0  0  0  0  0  0
   41.7880   26.0070   34.5320 C   0  0  0  0  0  0  0  0  0  0  0  0
   41.3570   27.2700   33.8590 C   0  0  0  0  0  0  0  0  0  0  0  0
   40.5920   26.9640   32.6470 C   0  0  0  0  0  0  0  0  0  0  0  0
   39.3010   26.2710   32.9510 C   0  0  2  0  0  0  0  0  0  0  0  0
   39.4240   25.6980   34.8660 H   0  0  0  0  0  0  0  0  0  0  0  0
   41.0490   24.0020   34.7150 H   0  0  0  0  0  0  0  0  0  0  0  0
   41.2590   24.5100   32.9980 H   0  0  0  0  0  0  0  0  0  0  0  0
   42.8410   25.7490   34.3320 H   0  0  0  0  0  0  0  0  0  0  0  0
   41.6440   26.0160   35.6290 H   0  0  0  0  0  0  0  0  0  0  0  0
   42.3140   27.7910   33.5440 H   0  0  0  0  0  0  0  0  0  0  0  0
   40.9290   27.9060   34.6220 H   0  0  0  0  0  0  0  0  0  0  0  0
   40.3480   27.8590   32.0620 H   0  0  0  0  0  0  0  0  0  0  0  0
   41.2120   26.3250   31.9920 H   0  0  0  0  0  0  0  0  0  0  0  0
   39.0030   25.9020   31.9470 H   0  0  0  0  0  0  0  0  0  0  0  0
   38.2660   23.1220   34.6320 C   0  0  0  0  0  0  0  0  0  0  0  0
   37.5710   21.9950   34.2250 C   0  0  0  0  0  0  0  0  0  0  0  0
   37.3560   21.6340   32.9220 C   0  0  0  0  0  0  0  0  0  0  0  0
   37.8680   22.4460   31.9050 C   0  0  0  0  0  0  0  0  0  0  0  0
   38.5650   23.5690   32.3110 C   0  0  0  0  0  0  0  0  0  0  0  0
   38.7830   23.9410   33.6320 C   0  0  0  0  0  0  0  0  0  0  0  0
   37.1280   21.2990   34.9620 H   0  0  0  0  0  0  0  0  0  0  0  0
   36.7920   20.7300   32.6980 H   0  0  0  0  0  0  0  0  0  0  0  0
   37.6680   22.1130   30.9020 H   0  0  0  0  0  0  0  0  0  0  0  0
   38.9010   24.0640   31.4100 H   0  0  0  0  0  0  0  0  0  0  0  0
   39.5390   22.6720   36.6630 C   0  0  0  0  0  0  0  0  0  0  0  0
   38.4020   23.2940   36.0360 C   0  0  0  0  0  0  0  0  0  0  0  0
   37.5490   24.0250   36.8440 C   0  0  0  0  0  0  0  0  0  0  0  0
   37.8020   24.1400   38.1680 N   0  0  0  0  0  0  0  0  0  0  0  0
   38.8930   23.5440   38.7490 C   0  0  0  0  0  0  0  0  0  0  0  0
   39.7480   22.8150   37.9870 N   0  0  0  0  0  0  0  0  0  0  0  0
   40.2860   22.0780   36.1680 H   0  0  0  0  0  0  0  0  0  0  0  0
   36.6390   24.4960   36.6540 H   0  0  0  0  0  0  0  0  0  0  0  0
   39.1250   23.6170   39.8090 H   0  0  0  0  0  0  0  0  0  0  0  0
   38.1560   27.1840   33.2560 C   0  0  0  0  0  3  0  0  0  0  0  0
   37.6700   27.1320   34.6880 C   0  0  0  0  0  2  0  0  0  0  0  0
   36.6140   28.2440   34.6020 C   0  0  0  0  0  2  0  0  0  0  0  0
   36.1540   28.2610   33.1370 C   0  0  0  0  0  2  0  0  0  0  0  0
   36.8830   27.0310   32.5410 C   0  0  0  0  0  2  0  0  0  0  0  0
  1  2  1  0  0  0  0
  1  7  1  1  0  0  0
  2  3  1  0  0  0  0
  2  8  1  0  0  0  0
  3 11  1  0  0  0  0
  4  3  1  0  0  0  0
  4 13  1  0  0  0  0
  5  6  1  0  0  0  0
  5  4  1  0  0  0  0
  6 16  1  6  0  0  0
  6 36  1  0  0  0  0
  6  1  1  0  0  0  0
  9  2  1  0  0  0  0
 10  3  1  0  0  0  0
 12  4  1  0  0  0  0
 14  5  1  0  0  0  0
 15  5  1  0  0  0  0
 17 28  1  0  0  0  0
 18 17  1  0  0  0  0
 18 23  1  0  0  0  0
 19 18  2  0  0  0  0
 20 21  2  0  0  0  0
 20 19  1  0  0  0  0
 21 22  1  0  0  0  0
 22  1  1  0  0  0  0
 22 17  2  0  0  0  0
 24 19  1  0  0  0  0
 25 20  1  0  0  0  0
 26 21  1  0  0  0  0
 27 32  1  0  0  0  0
 28 27  2  0  0  0  0
 28 29  1  0  0  0  0
 29 30  2  0  0  0  0
 30 31  1  0  0  0  0
 31 35  1  0  0  0  0
 32 31  2  0  0  0  0
 33 27  1  0  0  0  0
 34 29  1  0  0  0  0
 36 37  1  0  0  0  0
 38 37  1  0  0  0  0
 39 38  1  0  0  0  0
 40 39  1  0  0  0  0
 40 36  1  0  0  0  0
M  END
>  <minimizedAffinity>
-5.72819281

$$$$

 OpenBabel03272506123D

 40 43  0  0  1  0  0  0  0  0999 V2000
   37.8340   23.9550   32.1460 C   0  0  1  0  0  0  0  0  0  0  0  0
   37.9700   23.8430   30.5750 C   0  0  0  0  0  0  0  0  0  0  0  0
   38.9210   24.9050   30.0390 C   0  0  0  0  0  0  0  0  0  0  0  0
   38.6110   26.2350   30.6440 C   0  0  0  0  0  0  0  0  0  0  0  0
   37.2760   26.2210   31.2460 C   0  0  0  0  0  0  0  0  0  0  0  0
   37.1870   25.2800   32.4070 C   0  0  2  0  0  0  0  0  0  0  0  0
   38.8390   24.1510   32.3240 H   0  0  0  0  0  0  0  0  0  0  0  0
   38.3950   22.8590   30.4070 H   0  0  0  0  0  0  0  0  0  0  0  0
   36.9520   23.9140   30.1670 H   0  0  0  0  0  0  0  0  0  0  0  0
   38.7900   24.8860   28.9450 H   0  0  0  0  0  0  0  0  0  0  0  0
   39.9420   24.5400   30.2640 H   0  0  0  0  0  0  0  0  0  0  0  0
   38.5940   26.9680   29.7780 H   0  0  0  0  0  0  0  0  0  0  0  0
   39.4680   26.5220   31.2370 H   0  0  0  0  0  0  0  0  0  0  0  0
   36.9610   27.2080   31.6060 H   0  0  0  0  0  0  0  0  0  0  0  0
   36.5440   25.9270   30.4720 H   0  0  0  0  0  0  0  0  0  0  0  0
   36.0890   25.2100   32.5560 H   0  0  0  0  0  0  0  0  0  0  0  0
   37.3570   22.1170   33.7100 C   0  0  0  0  0  0  0  0  0  0  0  0
   36.5120   21.0780   34.0610 C   0  0  0  0  0  0  0  0  0  0  0  0
   35.4140   20.6840   33.3430 C   0  0  0  0  0  0  0  0  0  0  0  0
   35.1020   21.3640   32.1620 C   0  0  0  0  0  0  0  0  0  0  0  0
   35.9480   22.3990   31.8100 C   0  0  0  0  0  0  0  0  0  0  0  0
   37.0610   22.8040   32.5360 C   0  0  0  0  0  0  0  0  0  0  0  0
   36.6810   20.4890   34.9810 H   0  0  0  0  0  0  0  0  0  0  0  0
   34.8040   19.8550   33.7020 H   0  0  0  0  0  0  0  0  0  0  0  0
   34.2290   21.0100   31.6420 H   0  0  0  0  0  0  0  0  0  0  0  0
   35.5740   22.7950   30.8760 H   0  0  0  0  0  0  0  0  0  0  0  0
   38.1610   22.8110   35.9050 C   0  0  0  0  0  0  0  0  0  0  0  0
   38.4600   22.3400   34.5780 C   0  0  0  0  0  0  0  0  0  0  0  0
   39.7890   22.1220   34.2640 C   0  0  0  0  0  0  0  0  0  0  0  0
   40.7510   22.3440   35.1900 N   0  0  0  0  0  0  0  0  0  0  0  0
   40.4480   22.7900   36.4510 C   0  0  0  0  0  0  0  0  0  0  0  0
   39.1540   23.0200   36.7930 N   0  0  0  0  0  0  0  0  0  0  0  0
   37.1810   23.0230   36.2940 H   0  0  0  0  0  0  0  0  0  0  0  0
   40.2640   21.8610   33.3730 H   0  0  0  0  0  0  0  0  0  0  0  0
   41.1950   22.9790   37.2190 H   0  0  0  0  0  0  0  0  0  0  0  0
   37.6030   25.8630   33.7200 C   0  0  0  0  0  3  0  0  0  0  0  0
   37.2160   27.3120   33.9190 C   0  0  0  0  0  2  0  0  0  0  0  0
   37.7100   27.4760   35.3640 C   0  0  0  0  0  2  0  0  0  0  0  0
   38.8560   26.4660   35.5220 C   0  0  0  0  0  2  0  0  0  0  0  0
   39.0240   25.9190   34.0820 C   0  0  0  0  0  2  0  0  0  0  0  0
  1  7  1  1  0  0  0
  1  6  1  0  0  0  0
  1 22  1  0  0  0  0
  2  1  1  0  0  0  0
  3 11  1  0  0  0  0
  3  2  1  0  0  0  0
  3  4  1  0  0  0  0
  4 13  1  0  0  0  0
  4  5  1  0  0  0  0
  5 14  1  0  0  0  0
  5  6  1  0  0  0  0
  6 16  1  1  0  0  0
  6 36  1  0  0  0  0
  8  2  1  0  0  0  0
  9  2  1  0  0  0  0
 10  3  1  0  0  0  0
 12  4  1  0  0  0  0
 15  5  1  0  0  0  0
 17 18  1  0  0  0  0
 17 28  1  0  0  0  0
 18 23  1  0  0  0  0
 19 24  1  0  0  0  0
 19 18  2  0  0  0  0
 20 19  1  0  0  0  0
 21 20  2  0  0  0  0
 21 22  1  0  0  0  0
 22 17  2  0  0  0  0
 25 20  1  0  0  0  0
 26 21  1  0  0  0  0
 27 33  1  0  0  0  0
 27 32  1  0  0  0  0
 28 27  2  0  0  0  0
 29 28  1  0  0  0  0
 29 30  2  0  0  0  0
 30 31  1  0  0  0  0
 31 32  2  0  0  0  0
 31 35  1  0  0  0  0
 34 29  1  0  0  0  0
 36 37  1  0  0  0  0
 36 40  1  0  0  0  0
 37 38  1  0  0  0  0
 38 39  1  0  0  0  0
 40 39  1  0  0  0  0
M  END
>  <minimizedAffinity>
-5.70983887

$$$$

 OpenBabel03272506123D

 40 43  0  0  1  0  0  0  0  0999 V2000
   38.8760   24.2610   34.1490 C   0  0  1  0  0  0  0  0  0  0  0  0
   38.5570   23.7650   32.6820 C   0  0  0  0  0  0  0  0  0  0  0  0
   37.2820   22.9340   32.6580 C   0  0  0  0  0  0  0  0  0  0  0  0
   37.2870   21.9380   33.7720 C   0  0  0  0  0  0  0  0  0  0  0  0
   38.6440   21.7750   34.3000 C   0  0  0  0  0  0  0  0  0  0  0  0
   39.1550   23.0250   34.9470 C   0  0  2  0  0  0  0  0  0  0  0  0
   37.8920   24.4790   34.4010 H   0  0  0  0  0  0  0  0  0  0  0  0
   38.4070   24.6760   32.1130 H   0  0  0  0  0  0  0  0  0  0  0  0
   39.4470   23.2200   32.3360 H   0  0  0  0  0  0  0  0  0  0  0  0
   37.2570   22.4670   31.6600 H   0  0  0  0  0  0  0  0  0  0  0  0
   36.4460   23.6580   32.7130 H   0  0  0  0  0  0  0  0  0  0  0  0
   36.9770   20.9530   33.3020 H   0  0  0  0  0  0  0  0  0  0  0  0
   36.4770   22.1990   34.4370 H   0  0  0  0  0  0  0  0  0  0  0  0
   38.7170   20.9740   35.0450 H   0  0  0  0  0  0  0  0  0  0  0  0
   39.3130   21.4860   33.4690 H   0  0  0  0  0  0  0  0  0  0  0  0
   40.2380   22.8010   35.0430 H   0  0  0  0  0  0  0  0  0  0  0  0
   39.7710   26.5230   33.7860 C   0  0  0  0  0  0  0  0  0  0  0  0
   40.8890   27.3390   33.7480 C   0  0  0  0  0  0  0  0  0  0  0  0
   42.1790   26.9100   33.9110 C   0  0  0  0  0  0  0  0  0  0  0  0
   42.4140   25.5490   34.1310 C   0  0  0  0  0  0  0  0  0  0  0  0
   41.2980   24.7340   34.1650 C   0  0  0  0  0  0  0  0  0  0  0  0
   39.9870   25.1650   34.0040 C   0  0  0  0  0  0  0  0  0  0  0  0
   40.7960   28.4290   33.5840 H   0  0  0  0  0  0  0  0  0  0  0  0
   42.9960   27.6290   33.8690 H   0  0  0  0  0  0  0  0  0  0  0  0
   43.4460   25.2720   34.2510 H   0  0  0  0  0  0  0  0  0  0  0  0
   41.6590   23.7270   34.3240 H   0  0  0  0  0  0  0  0  0  0  0  0
   37.7640   27.5420   34.7240 C   0  0  0  0  0  0  0  0  0  0  0  0
   38.5240   27.1670   33.5610 C   0  0  0  0  0  0  0  0  0  0  0  0
   37.9940   27.4840   32.3240 C   0  0  0  0  0  0  0  0  0  0  0  0
   36.8060   28.1270   32.2390 N   0  0  0  0  0  0  0  0  0  0  0  0
   36.0960   28.4800   33.3580 C   0  0  0  0  0  0  0  0  0  0  0  0
   36.5840   28.1800   34.5890 N   0  0  0  0  0  0  0  0  0  0  0  0
   38.0460   27.3650   35.7470 H   0  0  0  0  0  0  0  0  0  0  0  0
   38.3020   27.2610   31.3530 H   0  0  0  0  0  0  0  0  0  0  0  0
   35.1390   28.9970   33.3250 H   0  0  0  0  0  0  0  0  0  0  0  0
   38.7810   23.1840   36.3850 C   0  0  0  0  0  3  0  0  0  0  0  0
   38.1450   24.5130   36.7300 C   0  0  0  0  0  2  0  0  0  0  0  0
   37.8320   24.2320   38.2070 C   0  0  0  0  0  2  0  0  0  0  0  0
   38.8810   23.2060   38.6600 C   0  0  0  0  0  2  0  0  0  0  0  0
   39.8140   23.1100   37.4260 C   0  0  0  0  0  2  0  0  0  0  0  0
  1  7  1  1  0  0  0
  1  6  1  0  0  0  0
  2  1  1  0  0  0  0
  3  2  1  0  0  0  0
  3 11  1  0  0  0  0
  3  4  1  0  0  0  0
  4  5  1  0  0  0  0
  4 13  1  0  0  0  0
  5  6  1  0  0  0  0
  5 14  1  0  0  0  0
  6 16  1  6  0  0  0
  6 36  1  0  0  0  0
  8  2  1  0  0  0  0
  9  2  1  0  0  0  0
 10  3  1  0  0  0  0
 12  4  1  0  0  0  0
 15  5  1  0  0  0  0
 17 22  1  0  0  0  0
 18 17  2  0  0  0  0
 18 19  1  0  0  0  0
 19 20  2  0  0  0  0
 20 21  1  0  0  0  0
 20 25  1  0  0  0  0
 21 26  1  0  0  0  0
 22  1  1  0  0  0  0
 22 21  2  0  0  0  0
 23 18  1  0  0  0  0
 24 19  1  0  0  0  0
 27 33  1  0  0  0  0
 28 17  1  0  0  0  0
 28 27  2  0  0  0  0
 29 28  1  0  0  0  0
 30 29  2  0  0  0  0
 30 31  1  0  0  0  0
 31 32  2  0  0  0  0
 32 27  1  0  0  0  0
 34 29  1  0  0  0  0
 35 31  1  0  0  0  0
 36 37  1  0  0  0  0
 36 40  1  0  0  0  0
 37 38  1  0  0  0  0
 38 39  1  0  0  0  0
 40 39  1  0  0  0  0
M  END
>  <minimizedAffinity>
-5.56217241

$$$$

 OpenBabel03272506123D

 40 43  0  0  1  0  0  0  0  0999 V2000
   38.3500   26.5240   33.8300 C   0  0  1  0  0  0  0  0  0  0  0  0
   37.9600   27.8100   34.6640 C   0  0  0  0  0  0  0  0  0  0  0  0
   36.4890   28.1530   34.4700 C   0  0  0  0  0  0  0  0  0  0  0  0
   36.1260   28.0940   33.0220 C   0  0  0  0  0  0  0  0  0  0  0  0
   37.3350   28.1200   32.1940 C   0  0  0  0  0  0  0  0  0  0  0  0
   38.1850   26.9040   32.3910 C   0  0  2  0  0  0  0  0  0  0  0  0
   37.4750   26.0000   34.0310 H   0  0  0  0  0  0  0  0  0  0  0  0
   38.1330   27.5280   35.6970 H   0  0  0  0  0  0  0  0  0  0  0  0
   38.6460   28.6080   34.3470 H   0  0  0  0  0  0  0  0  0  0  0  0
   36.3650   29.1580   34.9060 H   0  0  0  0  0  0  0  0  0  0  0  0
   35.9240   27.4380   35.0990 H   0  0  0  0  0  0  0  0  0  0  0  0
   35.5420   29.0440   32.8140 H   0  0  0  0  0  0  0  0  0  0  0  0
   35.4100   27.2930   32.9050 H   0  0  0  0  0  0  0  0  0  0  0  0
   37.1150   28.1900   31.1220 H   0  0  0  0  0  0  0  0  0  0  0  0
   37.9160   29.0260   32.4490 H   0  0  0  0  0  0  0  0  0  0  0  0
   39.1350   27.2140   31.9080 H   0  0  0  0  0  0  0  0  0  0  0  0
   39.9870   24.9970   34.8490 C   0  0  0  0  0  0  0  0  0  0  0  0
   41.3170   24.7340   35.1260 C   0  0  0  0  0  0  0  0  0  0  0  0
   42.3590   25.5750   34.8380 C   0  0  0  0  0  0  0  0  0  0  0  0
   42.0850   26.8000   34.2200 C   0  0  0  0  0  0  0  0  0  0  0  0
   40.7550   27.0630   33.9480 C   0  0  0  0  0  0  0  0  0  0  0  0
   39.6960   26.2110   34.2350 C   0  0  0  0  0  0  0  0  0  0  0  0
   41.6260   23.7880   35.6090 H   0  0  0  0  0  0  0  0  0  0  0  0
   43.3770   25.2800   35.0890 H   0  0  0  0  0  0  0  0  0  0  0  0
   42.9410   27.4170   34.0180 H   0  0  0  0  0  0  0  0  0  0  0  0
   40.7240   28.0440   33.4940 H   0  0  0  0  0  0  0  0  0  0  0  0
   38.8670   22.8820   34.3770 C   0  0  0  0  0  0  0  0  0  0  0  0
   39.0590   24.0010   35.2610 C   0  0  0  0  0  0  0  0  0  0  0  0
   38.3460   24.0070   36.4470 C   0  0  0  0  0  0  0  0  0  0  0  0
   37.5120   22.9830   36.7410 N   0  0  0  0  0  0  0  0  0  0  0  0
   37.3430   21.9220   35.8880 C   0  0  0  0  0  0  0  0  0  0  0  0
   38.0230   21.8860   34.7130 N   0  0  0  0  0  0  0  0  0  0  0  0
   39.3500   22.7380   33.4270 H   0  0  0  0  0  0  0  0  0  0  0  0
   38.2510   24.7180   37.2030 H   0  0  0  0  0  0  0  0  0  0  0  0
   36.6810   21.0840   36.0940 H   0  0  0  0  0  0  0  0  0  0  0  0
   37.8130   25.7350   31.5370 C   0  0  0  0  0  3  0  0  0  0  0  0
   36.8000   24.7960   32.1550 C   0  0  0  0  0  2  0  0  0  0  0  0
   36.6260   23.8440   30.9630 C   0  0  0  0  0  2  0  0  0  0  0  0
   37.9540   23.9010   30.1950 C   0  0  0  0  0  2  0  0  0  0  0  0
   38.8410   24.7730   31.1200 C   0  0  0  0  0  2  0  0  0  0  0  0
  1  7  1  1  0  0  0
  1 22  1  0  0  0  0
  1  2  1  0  0  0  0
  2  8  1  0  0  0  0
  3  2  1  0  0  0  0
  3 10  1  0  0  0  0
  3 11  1  0  0  0  0
  4  3  1  0  0  0  0
  5  6  1  0  0  0  0
  5 15  1  0  0  0  0
  5  4  1  0  0  0  0
  6 16  1  6  0  0  0
  6  1  1  0  0  0  0
  9  2  1  0  0  0  0
 12  4  1  0  0  0  0
 13  4  1  0  0  0  0
 14  5  1  0  0  0  0
 17 18  1  0  0  0  0
 17 28  1  0  0  0  0
 18 23  1  0  0  0  0
 19 24  1  0  0  0  0
 19 18  2  0  0  0  0
 20 19  1  0  0  0  0
 21 20  2  0  0  0  0
 21 22  1  0  0  0  0
 22 17  2  0  0  0  0
 25 20  1  0  0  0  0
 26 21  1  0  0  0  0
 27 32  2  0  0  0  0
 27 28  1  0  0  0  0
 28 29  2  0  0  0  0
 29 30  1  0  0  0  0
 29 34  1  0  0  0  0
 31 35  1  0  0  0  0
 31 30  2  0  0  0  0
 32 31  1  0  0  0  0
 33 27  1  0  0  0  0
 36 37  1  0  0  0  0
 36  6  1  0  0  0  0
 38 37  1  0  0  0  0
 39 38  1  0  0  0  0
 39 40  1  0  0  0  0
 40 36  1  0  0  0  0
M  END
>  <minimizedAffinity>
-5.46660233

$$$$

 OpenBabel03272506123D

 40 43  0  0  1  0  0  0  0  0999 V2000
   38.2450   26.2180   33.0000 C   0  0  1  0  0  0  0  0  0  0  0  0
   37.8430   26.2970   34.5270 C   0  0  0  0  0  0  0  0  0  0  0  0
   38.7930   27.2120   35.2880 C   0  0  0  0  0  0  0  0  0  0  0  0
   40.2110   26.9050   34.9300 C   0  0  0  0  0  0  0  0  0  0  0  0
   40.2990   25.5930   34.2830 C   0  0  0  0  0  0  0  0  0  0  0  0
   39.5910   25.5620   32.9650 C   0  0  2  0  0  0  0  0  0  0  0  0
   38.4790   27.2260   32.9010 H   0  0  0  0  0  0  0  0  0  0  0  0
   36.8480   26.7290   34.5250 H   0  0  0  0  0  0  0  0  0  0  0  0
   37.8290   25.2640   34.9000 H   0  0  0  0  0  0  0  0  0  0  0  0
   38.5700   27.0400   36.3540 H   0  0  0  0  0  0  0  0  0  0  0  0
   38.4850   28.2450   35.0400 H   0  0  0  0  0  0  0  0  0  0  0  0
   40.7690   26.8450   35.9160 H   0  0  0  0  0  0  0  0  0  0  0  0
   40.6100   27.7790   34.4350 H   0  0  0  0  0  0  0  0  0  0  0  0
   41.3340   25.2780   34.1020 H   0  0  0  0  0  0  0  0  0  0  0  0
   39.8600   24.8380   34.9600 H   0  0  0  0  0  0  0  0  0  0  0  0
   39.5430   24.4710   32.7630 H   0  0  0  0  0  0  0  0  0  0  0  0
   36.2640   26.1180   31.5460 C   0  0  0  0  0  0  0  0  0  0  0  0
   35.3280   25.3220   30.9080 C   0  0  0  0  0  0  0  0  0  0  0  0
   35.2430   23.9610   31.0290 C   0  0  0  0  0  0  0  0  0  0  0  0
   36.1580   23.3000   31.8560 C   0  0  0  0  0  0  0  0  0  0  0  0
   37.0910   24.0960   32.4940 C   0  0  0  0  0  0  0  0  0  0  0  0
   37.1820   25.4770   32.3720 C   0  0  0  0  0  0  0  0  0  0  0  0
   34.5690   25.7600   30.2330 H   0  0  0  0  0  0  0  0  0  0  0  0
   34.4730   23.4170   30.4840 H   0  0  0  0  0  0  0  0  0  0  0  0
   36.0440   22.2330   31.9110 H   0  0  0  0  0  0  0  0  0  0  0  0
   37.6970   23.4330   33.0970 H   0  0  0  0  0  0  0  0  0  0  0  0
   35.3950   28.2830   32.2580 C   0  0  0  0  0  0  0  0  0  0  0  0
   36.1560   27.5160   31.3080 C   0  0  0  0  0  0  0  0  0  0  0  0
   36.7380   28.2000   30.2560 C   0  0  0  0  0  0  0  0  0  0  0  0
   36.5860   29.5410   30.1530 N   0  0  0  0  0  0  0  0  0  0  0  0
   35.8610   30.2580   31.0700 C   0  0  0  0  0  0  0  0  0  0  0  0
   35.2710   29.6170   32.1120 N   0  0  0  0  0  0  0  0  0  0  0  0
   34.8890   27.8930   33.1230 H   0  0  0  0  0  0  0  0  0  0  0  0
   37.2610   27.8760   29.4140 H   0  0  0  0  0  0  0  0  0  0  0  0
   35.7190   31.3350   31.0160 H   0  0  0  0  0  0  0  0  0  0  0  0
   40.4120   26.0180   31.8020 C   0  0  0  0  0  3  0  0  0  0  0  0
   40.1020   27.4180   31.3180 C   0  0  0  0  0  2  0  0  0  0  0  0
   41.1890   27.5240   30.2390 C   0  0  0  0  0  2  0  0  0  0  0  0
   41.4510   26.0840   29.7770 C   0  0  0  0  0  2  0  0  0  0  0  0
   40.3590   25.2840   30.5310 C   0  0  0  0  0  2  0  0  0  0  0  0
  1  7  1  6  0  0  0
  1  2  1  0  0  0  0
  2  9  1  0  0  0  0
  2  3  1  0  0  0  0
  3 10  1  0  0  0  0
  4  3  1  0  0  0  0
  4 12  1  0  0  0  0
  5  4  1  0  0  0  0
  5 15  1  0  0  0  0
  6 16  1  6  0  0  0
  6  1  1  0  0  0  0
  6  5  1  0  0  0  0
  8  2  1  0  0  0  0
 11  3  1  0  0  0  0
 13  4  1  0  0  0  0
 14  5  1  0  0  0  0
 17 22  1  0  0  0  0
 18 19  1  0  0  0  0
 18 17  2  0  0  0  0
 19 20  2  0  0  0  0
 20 25  1  0  0  0  0
 20 21  1  0  0  0  0
 21 26  1  0  0  0  0
 22 21  2  0  0  0  0
 22  1  1  0  0  0  0
 23 18  1  0  0  0  0
 24 19  1  0  0  0  0
 27 33  1  0  0  0  0
 28 17  1  0  0  0  0
 28 27  2  0  0  0  0
 29 28  1  0  0  0  0
 30 29  2  0  0  0  0
 30 31  1  0  0  0  0
 31 32  2  0  0  0  0
 32 27  1  0  0  0  0
 34 29  1  0  0  0  0
 35 31  1  0  0  0  0
 36  6  1  0  0  0  0
 37 36  1  0  0  0  0
 38 37  1  0  0  0  0
 39 38  1  0  0  0  0
 39 40  1  0  0  0  0
 40 36  1  0  0  0  0
M  END
>  <minimizedAffinity>
-5.23336458

$$$$

 OpenBabel03272506123D

 40 43  0  0  1  0  0  0  0  0999 V2000
   38.8410   23.4490   34.4340 C   0  0  1  0  0  0  0  0  0  0  0  0
   37.7330   22.4200   33.9730 C   0  0  0  0  0  0  0  0  0  0  0  0
   37.7200   22.2840   32.4560 C   0  0  0  0  0  0  0  0  0  0  0  0
   37.7690   23.6310   31.8110 C   0  0  0  0  0  0  0  0  0  0  0  0
   37.4170   24.6710   32.7810 C   0  0  0  0  0  0  0  0  0  0  0  0
   38.4190   24.7770   33.8880 C   0  0  2  0  0  0  0  0  0  0  0  0
   39.5620   23.1390   33.7520 H   0  0  0  0  0  0  0  0  0  0  0  0
   38.0320   21.4780   34.4190 H   0  0  0  0  0  0  0  0  0  0  0  0
   36.7820   22.7770   34.3930 H   0  0  0  0  0  0  0  0  0  0  0  0
   36.7990   21.7250   32.2220 H   0  0  0  0  0  0  0  0  0  0  0  0
   38.5820   21.6380   32.2020 H   0  0  0  0  0  0  0  0  0  0  0  0
   36.9650   23.6150   31.0110 H   0  0  0  0  0  0  0  0  0  0  0  0
   38.7030   23.6910   31.2700 H   0  0  0  0  0  0  0  0  0  0  0  0
   37.3330   25.6650   32.3260 H   0  0  0  0  0  0  0  0  0  0  0  0
   36.4220   24.4380   33.2010 H   0  0  0  0  0  0  0  0  0  0  0  0
   37.8730   25.4010   34.6260 H   0  0  0  0  0  0  0  0  0  0  0  0
   40.0510   23.0630   36.5410 C   0  0  0  0  0  0  0  0  0  0  0  0
   40.0110   23.0770   37.9240 C   0  0  0  0  0  0  0  0  0  0  0  0
   38.8990   23.3550   38.6740 C   0  0  0  0  0  0  0  0  0  0  0  0
   37.6990   23.6470   38.0160 C   0  0  0  0  0  0  0  0  0  0  0  0
   37.7400   23.6300   36.6350 C   0  0  0  0  0  0  0  0  0  0  0  0
   38.8660   23.3520   35.8700 C   0  0  0  0  0  0  0  0  0  0  0  0
   40.9140   22.8610   38.5260 H   0  0  0  0  0  0  0  0  0  0  0  0
   38.9640   23.3460   39.7610 H   0  0  0  0  0  0  0  0  0  0  0  0
   36.8610   23.8580   38.6560 H   0  0  0  0  0  0  0  0  0  0  0  0
   36.7380   23.8570   36.2960 H   0  0  0  0  0  0  0  0  0  0  0  0
   42.3030   23.7500   35.9050 C   0  0  0  0  0  0  0  0  0  0  0  0
   41.3020   22.7180   35.9600 C   0  0  0  0  0  0  0  0  0  0  0  0
   41.6430   21.4710   35.4660 C   0  0  0  0  0  0  0  0  0  0  0  0
   42.8810   21.2570   34.9630 N   0  0  0  0  0  0  0  0  0  0  0  0
   43.8240   22.2510   34.9210 C   0  0  0  0  0  0  0  0  0  0  0  0
   43.5220   23.4880   35.3920 N   0  0  0  0  0  0  0  0  0  0  0  0
   42.1870   24.7610   36.2490 H   0  0  0  0  0  0  0  0  0  0  0  0
   41.0890   20.5990   35.3250 H   0  0  0  0  0  0  0  0  0  0  0  0
   44.8270   22.1120   34.5230 H   0  0  0  0  0  0  0  0  0  0  0  0
   39.5860   25.6640   33.5940 C   0  0  0  0  0  3  0  0  0  0  0  0
   40.0890   26.4610   34.7780 C   0  0  0  0  0  2  0  0  0  0  0  0
   41.3000   27.1210   34.1010 C   0  0  0  0  0  2  0  0  0  0  0  0
   40.9390   27.2100   32.6110 C   0  0  0  0  0  2  0  0  0  0  0  0
   39.4660   26.7310   32.5920 C   0  0  0  0  0  2  0  0  0  0  0  0
  1  7  1  6  0  0  0
  1 22  1  0  0  0  0
  2  9  1  0  0  0  0
  2  8  1  0  0  0  0
  2  1  1  0  0  0  0
  3  2  1  0  0  0  0
  4  3  1  0  0  0  0
  4  5  1  0  0  0  0
  5 15  1  0  0  0  0
  5  6  1  0  0  0  0
  6  1  1  0  0  0  0
  6 16  1  1  0  0  0
 10  3  1  0  0  0  0
 11  3  1  0  0  0  0
 12  4  1  0  0  0  0
 13  4  1  0  0  0  0
 14  5  1  0  0  0  0
 17 18  1  0  0  0  0
 18 23  1  0  0  0  0
 18 19  2  0  0  0  0
 19 24  1  0  0  0  0
 20 25  1  0  0  0  0
 20 19  1  0  0  0  0
 21 20  2  0  0  0  0
 22 17  2  0  0  0  0
 22 21  1  0  0  0  0
 26 21  1  0  0  0  0
 27 28  1  0  0  0  0
 27 33  1  0  0  0  0
 28 17  1  0  0  0  0
 29 28  2  0  0  0  0
 30 29  1  0  0  0  0
 31 30  2  0  0  0  0
 31 32  1  0  0  0  0
 32 27  2  0  0  0  0
 34 29  1  0  0  0  0
 35 31  1  0  0  0  0
 36  6  1  0  0  0  0
 36 37  1  0  0  0  0
 38 37  1  0  0  0  0
 39 38  1  0  0  0  0
 40 39  1  0  0  0  0
 40 36  1  0  0  0  0
M  END
>  <minimizedAffinity>
-5.1950922

$$$$

 OpenBabel03272506123D

 40 43  0  0  1  0  0  0  0  0999 V2000
   36.6950   21.8700   32.1630 C   0  0  1  0  0  0  0  0  0  0  0  0
   35.3580   21.2720   32.7570 C   0  0  0  0  0  0  0  0  0  0  0  0
   35.5420   19.8090   33.1350 C   0  0  0  0  0  0  0  0  0  0  0  0
   36.2380   19.0710   32.0380 C   0  0  0  0  0  0  0  0  0  0  0  0
   36.1820   19.8420   30.7930 C   0  0  0  0  0  0  0  0  0  0  0  0
   36.9440   21.1270   30.8870 C   0  0  2  0  0  0  0  0  0  0  0  0
   37.3300   21.3930   32.8330 H   0  0  0  0  0  0  0  0  0  0  0  0
   35.1720   21.8560   33.6520 H   0  0  0  0  0  0  0  0  0  0  0  0
   34.5770   21.4390   32.0020 H   0  0  0  0  0  0  0  0  0  0  0  0
   34.5260   19.4300   33.3350 H   0  0  0  0  0  0  0  0  0  0  0  0
   36.0980   19.8090   34.0930 H   0  0  0  0  0  0  0  0  0  0  0  0
   35.6410   18.1180   31.8840 H   0  0  0  0  0  0  0  0  0  0  0  0
   37.1910   18.7440   32.4290 H   0  0  0  0  0  0  0  0  0  0  0  0
   36.5840   19.2910   29.9340 H   0  0  0  0  0  0  0  0  0  0  0  0
   35.1240   20.0520   30.5570 H   0  0  0  0  0  0  0  0  0  0  0  0
   36.5820   21.6670   29.9870 H   0  0  0  0  0  0  0  0  0  0  0  0
   37.2690   24.2170   32.6260 C   0  0  0  0  0  0  0  0  0  0  0  0
   37.0110   25.5510   32.3620 C   0  0  0  0  0  0  0  0  0  0  0  0
   36.0100   26.0110   31.5480 C   0  0  0  0  0  0  0  0  0  0  0  0
   35.1680   25.0820   30.9260 C   0  0  0  0  0  0  0  0  0  0  0  0
   35.4240   23.7510   31.1930 C   0  0  0  0  0  0  0  0  0  0  0  0
   36.4400   23.2800   32.0150 C   0  0  0  0  0  0  0  0  0  0  0  0
   37.6290   26.3530   32.8080 H   0  0  0  0  0  0  0  0  0  0  0  0
   35.8860   27.0820   31.3970 H   0  0  0  0  0  0  0  0  0  0  0  0
   34.4020   25.5010   30.2990 H   0  0  0  0  0  0  0  0  0  0  0  0
   34.6790   23.1820   30.6530 H   0  0  0  0  0  0  0  0  0  0  0  0
   39.6680   23.9610   32.9780 C   0  0  0  0  0  0  0  0  0  0  0  0
   38.3370   23.9580   33.5270 C   0  0  0  0  0  0  0  0  0  0  0  0
   38.2080   23.7270   34.8840 C   0  0  0  0  0  0  0  0  0  0  0  0
   39.3080   23.5210   35.6460 N   0  0  0  0  0  0  0  0  0  0  0  0
   40.5690   23.5310   35.1080 C   0  0  0  0  0  0  0  0  0  0  0  0
   40.7340   23.7490   33.7770 N   0  0  0  0  0  0  0  0  0  0  0  0
   39.9260   24.1270   31.9480 H   0  0  0  0  0  0  0  0  0  0  0  0
   37.3730   23.6010   35.4960 H   0  0  0  0  0  0  0  0  0  0  0  0
   41.4730   23.3690   35.6900 H   0  0  0  0  0  0  0  0  0  0  0  0
   38.4010   21.0160   30.5720 C   0  0  0  0  0  3  0  0  0  0  0  0
   38.9820   22.2070   29.8400 C   0  0  0  0  0  2  0  0  0  0  0  0
   40.4490   21.7540   29.8120 C   0  0  0  0  0  2  0  0  0  0  0  0
   40.4050   20.2200   29.8420 C   0  0  0  0  0  2  0  0  0  0  0  0
   38.8890   19.9230   29.7220 C   0  0  0  0  0  2  0  0  0  0  0  0
  1  2  1  0  0  0  0
  1  7  1  1  0  0  0
  2  3  1  0  0  0  0
  2  8  1  0  0  0  0
  3 10  1  0  0  0  0
  3 11  1  0  0  0  0
  4 13  1  0  0  0  0
  4  3  1  0  0  0  0
  5  6  1  0  0  0  0
  5  4  1  0  0  0  0
  6 16  1  6  0  0  0
  6  1  1  0  0  0  0
  9  2  1  0  0  0  0
 12  4  1  0  0  0  0
 14  5  1  0  0  0  0
 15  5  1  0  0  0  0
 17 28  1  0  0  0  0
 18 17  1  0  0  0  0
 18 23  1  0  0  0  0
 19 18  2  0  0  0  0
 20 21  2  0  0  0  0
 20 19  1  0  0  0  0
 21 22  1  0  0  0  0
 22  1  1  0  0  0  0
 22 17  2  0  0  0  0
 24 19  1  0  0  0  0
 25 20  1  0  0  0  0
 26 21  1  0  0  0  0
 27 28  2  0  0  0  0
 27 32  1  0  0  0  0
 28 29  1  0  0  0  0
 29 34  1  0  0  0  0
 29 30  2  0  0  0  0
 31 30  1  0  0  0  0
 31 35  1  0  0  0  0
 32 31  2  0  0  0  0
 33 27  1  0  0  0  0
 36  6  1  0  0  0  0
 37 36  1  0  0  0  0
 38 37  1  0  0  0  0
 38 39  1  0  0  0  0
 40 39  1  0  0  0  0
 40 36  1  0  0  0  0
M  END
>  <minimizedAffinity>
-5.0970149

$$$$
