
 OpenBabel03262521523D

 18 19  0  0  0  0  0  0  0  0999 V2000
   38.3770   23.4760   35.9540 C   0  0  0  0  0  0  0  0  0  0  0  0
   39.5430   22.8190   36.3520 C   0  0  0  0  0  0  0  0  0  0  0  0
   39.8600   22.7570   37.7140 C   0  0  0  0  0  0  0  0  0  0  0  0
   39.0110   23.3450   38.5960 N   0  0  0  0  0  0  0  0  0  0  0  0
   37.8920   23.9710   38.1680 C   0  0  0  0  0  0  0  0  0  0  0  0
   37.5940   24.0290   36.8790 N   0  0  0  0  0  0  0  0  0  0  0  0
   40.2310   22.3500   35.7020 H   0  0  0  0  0  0  0  0  0  0  0  0
   40.7680   22.2480   38.0450 H   0  0  0  0  0  0  0  0  0  0  0  0
   37.1950   24.4520   38.8540 H   0  0  0  0  0  0  0  0  0  0  0  0
   38.1310   23.4560   34.1800 S   0  0  0  0  0  0  0  0  0  0  0  0
   37.8000   21.7240   33.7350 C   0  0  0  0  0  0  0  0  0  0  0  0
   37.7010   21.1400   34.6600 H   0  0  0  0  0  0  0  0  0  0  0  0
   38.6260   21.3400   33.1070 H   0  0  0  0  0  0  0  0  0  0  0  0
   36.5290   21.6650   32.9110 C   0  0  0  0  0  3  0  0  0  0  0  0
   35.5560   20.6380   33.3910 C   0  0  0  0  0  2  0  0  0  0  0  0
   34.7770   20.2940   32.1490 C   0  0  0  0  0  2  0  0  0  0  0  0
   35.8690   20.2040   31.1060 C   0  0  0  0  0  2  0  0  0  0  0  0
   36.7720   21.3680   31.4710 C   0  0  0  0  0  2  0  0  0  0  0  0
  1  2  2  0  0  0  0
  1  6  1  0  0  0  0
  2  3  1  0  0  0  0
  3  8  1  0  0  0  0
  3  4  2  0  0  0  0
  5  4  1  0  0  0  0
  5  9  1  0  0  0  0
  6  5  2  0  0  0  0
  7  2  1  0  0  0  0
 10  1  1  0  0  0  0
 11 10  1  0  0  0  0
 11 12  1  0  0  0  0
 13 11  1  0  0  0  0
 14 15  1  0  0  0  0
 14 11  1  0  0  0  0
 16 15  1  0  0  0  0
 17 18  1  0  0  0  0
 17 16  1  0  0  0  0
 18 14  1  0  0  0  0
M  END
>  <minimizedAffinity>
-4.0446291

$$$$

 OpenBabel03262521523D

 18 19  0  0  0  0  0  0  0  0999 V2000
   38.6400   23.8100   35.9760 C   0  0  0  0  0  0  0  0  0  0  0  0
   37.7550   24.3710   36.8970 C   0  0  0  0  0  0  0  0  0  0  0  0
   37.9330   24.1080   38.2610 C   0  0  0  0  0  0  0  0  0  0  0  0
   38.9670   23.3090   38.6290 N   0  0  0  0  0  0  0  0  0  0  0  0
   39.8020   22.7850   37.7020 C   0  0  0  0  0  0  0  0  0  0  0  0
   39.6320   23.0360   36.4130 N   0  0  0  0  0  0  0  0  0  0  0  0
   36.9370   24.9960   36.6560 H   0  0  0  0  0  0  0  0  0  0  0  0
   37.2500   24.5370   38.9980 H   0  0  0  0  0  0  0  0  0  0  0  0
   40.6380   22.1410   37.9710 H   0  0  0  0  0  0  0  0  0  0  0  0
   38.2630   24.2540   34.2810 S   0  0  0  0  0  0  0  0  0  0  0  0
   37.5850   25.9410   34.3400 C   0  0  0  0  0  0  0  0  0  0  0  0
   37.1880   26.1210   35.3480 H   0  0  0  0  0  0  0  0  0  0  0  0
   36.7930   26.0470   33.5740 H   0  0  0  0  0  0  0  0  0  0  0  0
   38.6880   26.9240   34.0010 C   0  0  0  0  0  3  0  0  0  0  0  0
   39.4020   26.6010   32.7300 C   0  0  0  0  0  2  0  0  0  0  0  0
   40.7630   27.2140   32.9340 C   0  0  0  0  0  2  0  0  0  0  0  0
   41.0720   26.8270   34.3630 C   0  0  0  0  0  2  0  0  0  0  0  0
   39.7360   27.0220   35.0560 C   0  0  0  0  0  2  0  0  0  0  0  0
  1  6  2  0  0  0  0
  1  2  1  0  0  0  0
  2  3  2  0  0  0  0
  3  4  1  0  0  0  0
  3  8  1  0  0  0  0
  5  9  1  0  0  0  0
  5  4  2  0  0  0  0
  6  5  1  0  0  0  0
  7  2  1  0  0  0  0
 10 11  1  0  0  0  0
 10  1  1  0  0  0  0
 11 12  1  0  0  0  0
 13 11  1  0  0  0  0
 14 11  1  0  0  0  0
 14 18  1  0  0  0  0
 15 16  1  0  0  0  0
 15 14  1  0  0  0  0
 16 17  1  0  0  0  0
 17 18  1  0  0  0  0
M  END
>  <minimizedAffinity>
-3.96848583

$$$$

 OpenBabel03262521523D

 18 19  0  0  0  0  0  0  0  0999 V2000
   37.1910   25.2730   32.5150 C   0  0  0  0  0  0  0  0  0  0  0  0
   36.7980   23.9720   32.2010 C   0  0  0  0  0  0  0  0  0  0  0  0
   35.6990   23.7770   31.3560 C   0  0  0  0  0  0  0  0  0  0  0  0
   35.0590   24.8740   30.8750 N   0  0  0  0  0  0  0  0  0  0  0  0
   35.4740   26.1180   31.2050 C   0  0  0  0  0  0  0  0  0  0  0  0
   36.5140   26.3000   32.0050 N   0  0  0  0  0  0  0  0  0  0  0  0
   37.2640   23.0910   32.5530 H   0  0  0  0  0  0  0  0  0  0  0  0
   35.3740   22.7660   31.0990 H   0  0  0  0  0  0  0  0  0  0  0  0
   34.9780   27.0150   30.8340 H   0  0  0  0  0  0  0  0  0  0  0  0
   38.6120   25.3330   33.6050 S   0  0  0  0  0  0  0  0  0  0  0  0
   38.6120   23.7610   34.5200 C   0  0  0  0  0  0  0  0  0  0  0  0
   39.2800   23.0580   34.0050 H   0  0  0  0  0  0  0  0  0  0  0  0
   37.5800   23.3640   34.5730 H   0  0  0  0  0  0  0  0  0  0  0  0
   39.0780   24.0200   35.9390 C   0  0  0  0  0  3  0  0  0  0  0  0
   39.3100   22.7730   36.7260 C   0  0  0  0  0  2  0  0  0  0  0  0
   39.0950   23.2170   38.1500 C   0  0  0  0  0  2  0  0  0  0  0  0
   37.8650   24.0890   38.0250 C   0  0  0  0  0  2  0  0  0  0  0  0
   38.1230   24.8430   36.7330 C   0  0  0  0  0  2  0  0  0  0  0  0
  1 10  1  0  0  0  0
  2  1  1  0  0  0  0
  2  7  1  0  0  0  0
  3  2  2  0  0  0  0
  4  5  2  0  0  0  0
  4  3  1  0  0  0  0
  5  6  1  0  0  0  0
  6  1  2  0  0  0  0
  8  3  1  0  0  0  0
  9  5  1  0  0  0  0
 10 11  1  0  0  0  0
 11 13  1  0  0  0  0
 11 14  1  0  0  0  0
 12 11  1  0  0  0  0
 14 15  1  0  0  0  0
 14 18  1  0  0  0  0
 15 16  1  0  0  0  0
 17 16  1  0  0  0  0
 18 17  1  0  0  0  0
M  END
>  <minimizedAffinity>
-3.93323803

$$$$

 OpenBabel03262521523D

 18 19  0  0  0  0  0  0  0  0999 V2000
   38.8530   23.4710   35.8750 C   0  0  0  0  0  0  0  0  0  0  0  0
   37.7910   23.8870   36.6790 C   0  0  0  0  0  0  0  0  0  0  0  0
   37.8830   23.7270   38.0660 C   0  0  0  0  0  0  0  0  0  0  0  0
   39.0120   23.1670   38.5730 N   0  0  0  0  0  0  0  0  0  0  0  0
   40.0180   22.7770   37.7570 C   0  0  0  0  0  0  0  0  0  0  0  0
   39.9290   22.9300   36.4440 N   0  0  0  0  0  0  0  0  0  0  0  0
   36.8960   24.3250   36.3290 H   0  0  0  0  0  0  0  0  0  0  0  0
   37.0620   24.0460   38.7130 H   0  0  0  0  0  0  0  0  0  0  0  0
   40.9330   22.3250   38.1370 H   0  0  0  0  0  0  0  0  0  0  0  0
   38.5640   23.7530   34.1290 S   0  0  0  0  0  0  0  0  0  0  0  0
   39.7170   25.0680   33.6320 C   0  0  0  0  0  0  0  0  0  0  0  0
   39.9570   24.9380   32.5690 H   0  0  0  0  0  0  0  0  0  0  0  0
   40.6300   25.0140   34.2570 H   0  0  0  0  0  0  0  0  0  0  0  0
   39.0660   26.4130   33.8860 C   0  0  0  0  0  3  0  0  0  0  0  0
   39.2780   26.9240   35.2730 C   0  0  0  0  0  2  0  0  0  0  0  0
   38.0850   27.8170   35.4990 C   0  0  0  0  0  2  0  0  0  0  0  0
   36.9590   26.9920   34.9140 C   0  0  0  0  0  2  0  0  0  0  0  0
   37.5920   26.4060   33.6650 C   0  0  0  0  0  2  0  0  0  0  0  0
  1  6  2  0  0  0  0
  1  2  1  0  0  0  0
  2  3  2  0  0  0  0
  3  4  1  0  0  0  0
  3  8  1  0  0  0  0
  5  9  1  0  0  0  0
  5  4  2  0  0  0  0
  6  5  1  0  0  0  0
  7  2  1  0  0  0  0
 10  1  1  0  0  0  0
 11 14  1  0  0  0  0
 11 10  1  0  0  0  0
 11 13  1  0  0  0  0
 12 11  1  0  0  0  0
 14 15  1  0  0  0  0
 15 16  1  0  0  0  0
 17 16  1  0  0  0  0
 18 14  1  0  0  0  0
 18 17  1  0  0  0  0
M  END
>  <minimizedAffinity>
-3.87439251

$$$$

 OpenBabel03262521523D

 18 19  0  0  0  0  0  0  0  0999 V2000
   38.6630   24.2560   35.9630 C   0  0  0  0  0  0  0  0  0  0  0  0
   37.8530   24.4760   37.0770 C   0  0  0  0  0  0  0  0  0  0  0  0
   38.1620   23.8350   38.2820 C   0  0  0  0  0  0  0  0  0  0  0  0
   39.2460   23.0180   38.3130 N   0  0  0  0  0  0  0  0  0  0  0  0
   40.0050   22.8330   37.2100 C   0  0  0  0  0  0  0  0  0  0  0  0
   39.7110   23.4410   36.0700 N   0  0  0  0  0  0  0  0  0  0  0  0
   37.0000   25.1010   37.0990 H   0  0  0  0  0  0  0  0  0  0  0  0
   37.5390   23.9940   39.1660 H   0  0  0  0  0  0  0  0  0  0  0  0
   40.8790   22.1820   37.2070 H   0  0  0  0  0  0  0  0  0  0  0  0
   38.1200   25.1560   34.5120 S   0  0  0  0  0  0  0  0  0  0  0  0
   37.1900   26.5930   35.1280 C   0  0  0  0  0  0  0  0  0  0  0  0
   37.6730   26.9540   36.0450 H   0  0  0  0  0  0  0  0  0  0  0  0
   36.1400   26.2980   35.3200 H   0  0  0  0  0  0  0  0  0  0  0  0
   37.1790   27.6650   34.0560 C   0  0  0  0  0  3  0  0  0  0  0  0
   36.0490   28.6310   34.1930 C   0  0  0  0  0  2  0  0  0  0  0  0
   35.8370   29.1170   32.7830 C   0  0  0  0  0  2  0  0  0  0  0  0
   35.9460   27.8340   31.9880 C   0  0  0  0  0  2  0  0  0  0  0  0
   37.0940   27.1160   32.6730 C   0  0  0  0  0  2  0  0  0  0  0  0
  1  6  2  0  0  0  0
  1  2  1  0  0  0  0
  2  7  1  0  0  0  0
  2  3  2  0  0  0  0
  3  4  1  0  0  0  0
  3  8  1  0  0  0  0
  5  4  2  0  0  0  0
  6  5  1  0  0  0  0
  9  5  1  0  0  0  0
 10 11  1  0  0  0  0
 10  1  1  0  0  0  0
 11 13  1  0  0  0  0
 11 12  1  0  0  0  0
 14 15  1  0  0  0  0
 14 11  1  0  0  0  0
 16 15  1  0  0  0  0
 17 18  1  0  0  0  0
 17 16  1  0  0  0  0
 18 14  1  0  0  0  0
M  END
>  <minimizedAffinity>
-3.85888362

$$$$

 OpenBabel03262521523D

 18 19  0  0  0  0  0  0  0  0999 V2000
   37.3000   26.6610   34.0160 C   0  0  0  0  0  0  0  0  0  0  0  0
   37.0770   25.8550   32.9000 C   0  0  0  0  0  0  0  0  0  0  0  0
   36.3160   26.3570   31.8370 C   0  0  0  0  0  0  0  0  0  0  0  0
   35.8220   27.6180   31.9430 N   0  0  0  0  0  0  0  0  0  0  0  0
   36.0630   28.3660   33.0440 C   0  0  0  0  0  0  0  0  0  0  0  0
   36.7830   27.8890   34.0480 N   0  0  0  0  0  0  0  0  0  0  0  0
   37.4390   24.8700   32.7750 H   0  0  0  0  0  0  0  0  0  0  0  0
   36.1290   25.7410   30.9540 H   0  0  0  0  0  0  0  0  0  0  0  0
   35.6780   29.3790   33.1550 H   0  0  0  0  0  0  0  0  0  0  0  0
   38.2920   25.8590   35.2740 S   0  0  0  0  0  0  0  0  0  0  0  0
   38.2230   24.0780   34.9110 C   0  0  0  0  0  0  0  0  0  0  0  0
   39.1060   23.8090   34.3170 H   0  0  0  0  0  0  0  0  0  0  0  0
   37.2890   23.8490   34.3640 H   0  0  0  0  0  0  0  0  0  0  0  0
   38.1890   23.3130   36.2200 C   0  0  0  0  0  3  0  0  0  0  0  0
   38.0300   24.1910   37.4170 C   0  0  0  0  0  2  0  0  0  0  0  0
   38.6700   23.3890   38.5200 C   0  0  0  0  0  2  0  0  0  0  0  0
   39.9170   22.8610   37.8440 C   0  0  0  0  0  2  0  0  0  0  0  0
   39.4130   22.4980   36.4590 C   0  0  0  0  0  2  0  0  0  0  0  0
  1  6  1  0  0  0  0
  1 10  1  0  0  0  0
  2  1  2  0  0  0  0
  3  4  2  0  0  0  0
  3  2  1  0  0  0  0
  4  5  1  0  0  0  0
  5  9  1  0  0  0  0
  5  6  2  0  0  0  0
  7  2  1  0  0  0  0
  8  3  1  0  0  0  0
 11 10  1  0  0  0  0
 11 14  1  0  0  0  0
 12 11  1  0  0  0  0
 13 11  1  0  0  0  0
 14 18  1  0  0  0  0
 14 15  1  0  0  0  0
 15 16  1  0  0  0  0
 17 16  1  0  0  0  0
 18 17  1  0  0  0  0
M  END
>  <minimizedAffinity>
-3.84865618

$$$$

 OpenBabel03262521523D

 18 19  0  0  0  0  0  0  0  0999 V2000
   36.5160   25.1650   31.1690 C   0  0  0  0  0  0  0  0  0  0  0  0
   35.5260   24.2430   31.5090 C   0  0  0  0  0  0  0  0  0  0  0  0
   35.7970   22.8750   31.3870 C   0  0  0  0  0  0  0  0  0  0  0  0
   37.0230   22.5020   30.9370 N   0  0  0  0  0  0  0  0  0  0  0  0
   37.9550   23.4300   30.6190 C   0  0  0  0  0  0  0  0  0  0  0  0
   37.6960   24.7240   30.7360 N   0  0  0  0  0  0  0  0  0  0  0  0
   34.5590   24.4860   31.8600 H   0  0  0  0  0  0  0  0  0  0  0  0
   35.0340   22.1370   31.6470 H   0  0  0  0  0  0  0  0  0  0  0  0
   38.9450   23.1580   30.2550 H   0  0  0  0  0  0  0  0  0  0  0  0
   35.9970   26.8650   31.3880 S   0  0  0  0  0  0  0  0  0  0  0  0
   37.3420   27.6920   32.2900 C   0  0  0  0  0  0  0  0  0  0  0  0
   37.0460   28.7320   32.4810 H   0  0  0  0  0  0  0  0  0  0  0  0
   38.2710   27.6460   31.6910 H   0  0  0  0  0  0  0  0  0  0  0  0
   37.5920   26.9470   33.5860 C   0  0  0  0  0  3  0  0  0  0  0  0
   37.2420   27.7370   34.8040 C   0  0  0  0  0  2  0  0  0  0  0  0
   38.1380   27.1520   35.8650 C   0  0  0  0  0  2  0  0  0  0  0  0
   39.4510   27.0110   35.1250 C   0  0  0  0  0  2  0  0  0  0  0  0
   39.0100   26.5210   33.7580 C   0  0  0  0  0  2  0  0  0  0  0  0
  1 10  1  0  0  0  0
  1  2  1  0  0  0  0
  2  7  1  0  0  0  0
  3  2  2  0  0  0  0
  3  8  1  0  0  0  0
  4  3  1  0  0  0  0
  5  6  1  0  0  0  0
  5  4  2  0  0  0  0
  6  1  2  0  0  0  0
  9  5  1  0  0  0  0
 10 11  1  0  0  0  0
 11 12  1  0  0  0  0
 11 14  1  0  0  0  0
 13 11  1  0  0  0  0
 14 18  1  0  0  0  0
 14 15  1  0  0  0  0
 15 16  1  0  0  0  0
 17 16  1  0  0  0  0
 18 17  1  0  0  0  0
M  END
>  <minimizedAffinity>
-3.8157599

$$$$

 OpenBabel03262521523D

 18 19  0  0  0  0  0  0  0  0999 V2000
   36.5110   26.2670   32.1090 C   0  0  0  0  0  0  0  0  0  0  0  0
   37.0880   25.0330   32.4160 C   0  0  0  0  0  0  0  0  0  0  0  0
   36.5220   23.8660   31.8890 C   0  0  0  0  0  0  0  0  0  0  0  0
   35.4260   23.9870   31.0960 N   0  0  0  0  0  0  0  0  0  0  0  0
   34.8990   25.2020   30.8240 C   0  0  0  0  0  0  0  0  0  0  0  0
   35.4360   26.3060   31.3230 N   0  0  0  0  0  0  0  0  0  0  0  0
   37.9370   24.8920   33.0280 H   0  0  0  0  0  0  0  0  0  0  0  0
   36.9580   22.8910   32.1190 H   0  0  0  0  0  0  0  0  0  0  0  0
   34.0210   25.3270   30.1920 H   0  0  0  0  0  0  0  0  0  0  0  0
   37.3640   27.6480   32.8660 S   0  0  0  0  0  0  0  0  0  0  0  0
   37.0860   27.4930   34.6570 C   0  0  0  0  0  0  0  0  0  0  0  0
   36.2950   26.7500   34.8230 H   0  0  0  0  0  0  0  0  0  0  0  0
   36.8010   28.4780   35.0730 H   0  0  0  0  0  0  0  0  0  0  0  0
   38.3830   27.0720   35.3190 C   0  0  0  0  0  3  0  0  0  0  0  0
   39.5550   27.0860   34.3940 C   0  0  0  0  0  2  0  0  0  0  0  0
   40.4840   26.0650   34.9980 C   0  0  0  0  0  2  0  0  0  0  0  0
   39.5310   24.9490   35.3630 C   0  0  0  0  0  2  0  0  0  0  0  0
   38.3290   25.7020   35.9030 C   0  0  0  0  0  2  0  0  0  0  0  0
  1  2  1  0  0  0  0
  1 10  1  0  0  0  0
  2  7  1  0  0  0  0
  3  8  1  0  0  0  0
  3  2  2  0  0  0  0
  4  3  1  0  0  0  0
  5  4  2  0  0  0  0
  5  6  1  0  0  0  0
  6  1  2  0  0  0  0
  9  5  1  0  0  0  0
 10 11  1  0  0  0  0
 11 12  1  0  0  0  0
 11 13  1  0  0  0  0
 11 14  1  0  0  0  0
 14 18  1  0  0  0  0
 15 16  1  0  0  0  0
 15 14  1  0  0  0  0
 16 17  1  0  0  0  0
 17 18  1  0  0  0  0
M  END
>  <minimizedAffinity>
-3.77558708

$$$$

 OpenBabel03262521523D

 18 19  0  0  0  0  0  0  0  0999 V2000
   37.0620   22.2310   33.1290 C   0  0  0  0  0  0  0  0  0  0  0  0
   36.5540   22.4340   31.8450 C   0  0  0  0  0  0  0  0  0  0  0  0
   35.5080   21.6230   31.3900 C   0  0  0  0  0  0  0  0  0  0  0  0
   35.0310   20.6640   32.2250 N   0  0  0  0  0  0  0  0  0  0  0  0
   35.5530   20.5010   33.4620 C   0  0  0  0  0  0  0  0  0  0  0  0
   36.5420   21.2700   33.8910 N   0  0  0  0  0  0  0  0  0  0  0  0
   36.8950   23.1650   31.1630 H   0  0  0  0  0  0  0  0  0  0  0  0
   35.0970   21.7650   30.3870 H   0  0  0  0  0  0  0  0  0  0  0  0
   35.1900   19.7390   34.1510 H   0  0  0  0  0  0  0  0  0  0  0  0
   38.3920   23.3570   33.5440 S   0  0  0  0  0  0  0  0  0  0  0  0
   39.3830   22.5200   34.8190 C   0  0  0  0  0  0  0  0  0  0  0  0
   40.4010   22.3780   34.4320 H   0  0  0  0  0  0  0  0  0  0  0  0
   38.9140   21.5510   35.0730 H   0  0  0  0  0  0  0  0  0  0  0  0
   39.3880   23.3730   36.0720 C   0  0  0  0  0  3  0  0  0  0  0  0
   39.8090   22.6270   37.2960 C   0  0  0  0  0  2  0  0  0  0  0  0
   39.1290   23.3800   38.4100 C   0  0  0  0  0  2  0  0  0  0  0  0
   37.7530   23.6250   37.8310 C   0  0  0  0  0  2  0  0  0  0  0  0
   38.0590   23.9710   36.3850 C   0  0  0  0  0  2  0  0  0  0  0  0
  1 10  1  0  0  0  0
  1  6  1  0  0  0  0
  2  1  2  0  0  0  0
  3  2  1  0  0  0  0
  3  4  2  0  0  0  0
  4  5  1  0  0  0  0
  5  6  2  0  0  0  0
  5  9  1  0  0  0  0
  7  2  1  0  0  0  0
  8  3  1  0  0  0  0
 10 11  1  0  0  0  0
 11 13  1  0  0  0  0
 11 14  1  0  0  0  0
 12 11  1  0  0  0  0
 14 18  1  0  0  0  0
 14 15  1  0  0  0  0
 15 16  1  0  0  0  0
 17 16  1  0  0  0  0
 18 17  1  0  0  0  0
M  END
>  <minimizedAffinity>
-3.70470858

$$$$
