
 OpenBabel03272510273D

 41 45  0  0  1  0  0  0  0  0999 V2000
   36.2580   30.1670   46.9290 C   0  0  0  0  0  0  0  0  0  0  0  0
   37.0780   30.7420   47.8980 C   0  0  0  0  0  0  0  0  0  0  0  0
   38.0560   31.6800   47.5540 C   0  0  0  0  0  0  0  0  0  0  0  0
   38.1570   31.9990   46.2030 C   0  0  0  0  0  0  0  0  0  0  0  0
   39.0240   32.8820   45.6250 N   0  0  0  0  0  0  0  0  0  0  0  0
   38.7580   32.8660   44.3120 C   0  0  0  0  0  0  0  0  0  0  0  0
   37.7720   32.0170   44.0650 N   0  0  0  0  0  0  0  0  0  0  0  0
   37.3690   31.4560   45.2180 C   0  0  0  0  0  0  0  0  0  0  0  0
   36.4010   30.5190   45.5980 C   0  0  0  0  0  0  0  0  0  0  0  0
   35.5000   29.4400   47.1940 H   0  0  0  0  0  0  0  0  0  0  0  0
   38.7010   32.1350   48.3020 H   0  0  0  0  0  0  0  0  0  0  0  0
   39.7600   33.4610   46.1150 H   0  0  0  0  0  0  0  0  0  0  0  0
   35.7800   30.0920   44.8210 H   0  0  0  0  0  0  0  0  0  0  0  0
   37.4300   30.1190   51.5780 C   0  0  0  0  0  0  0  0  0  0  0  0
   37.7740   30.5710   50.3170 C   0  0  0  0  0  0  0  0  0  0  0  0
   36.8950   30.3460   49.2820 C   0  0  0  0  0  0  0  0  0  0  0  0
   35.7230   29.6780   49.5780 N   0  0  0  0  0  0  0  0  0  0  0  0
   35.4090   29.2460   50.8150 C   0  0  0  0  0  0  0  0  0  0  0  0
   36.2550   29.4650   51.7970 N   0  0  0  0  0  0  0  0  0  0  0  0
   38.1790   30.3390   52.3350 H   0  0  0  0  0  0  0  0  0  0  0  0
   38.6870   31.0940   50.0730 H   0  0  0  0  0  0  0  0  0  0  0  0
   34.4720   28.7290   50.9760 H   0  0  0  0  0  0  0  0  0  0  0  0
   39.4570   33.6540   43.3960 O   0  0  0  0  0  0  0  0  0  0  0  0
   39.7520   31.8850   41.9450 N   0  0  0  0  0  0  0  0  0  0  0  0
   39.3280   33.2740   42.0330 C   0  0  1  0  0  0  0  0  0  0  0  0
   37.9540   33.4170   41.5800 C   0  0  0  0  0  0  0  0  0  0  0  0
   37.8860   33.0510   40.2240 O   0  0  0  0  0  0  0  0  0  0  0  0
   38.3680   31.8090   39.9280 C   0  0  0  0  0  0  0  0  0  0  0  0
   39.7470   31.6100   40.5300 C   0  0  2  0  0  0  0  0  0  0  0  0
   39.1540   31.1840   42.3550 H   0  0  0  0  0  0  0  0  0  0  0  0
   40.0160   33.8540   41.3950 H   0  0  0  0  0  0  0  0  0  0  0  0
   37.7250   34.5270   41.5520 H   0  0  0  0  0  0  0  0  0  0  0  0
   37.1100   32.9500   42.0110 H   0  0  0  0  0  0  0  0  0  0  0  0
   37.6390   31.0720   40.2980 H   0  0  0  0  0  0  0  0  0  0  0  0
   38.5020   31.7530   38.8400 H   0  0  0  0  0  0  0  0  0  0  0  0
   40.3660   32.4180   40.0750 H   0  0  0  0  0  0  0  0  0  0  0  0
   40.3800   30.3260   40.1510 C   0  0  0  0  0  3  0  0  0  0  0  0
   41.1290   29.7090   41.3030 C   0  0  0  0  0  2  0  0  0  0  0  0
   41.7480   28.5020   40.5840 C   0  0  0  0  0  2  0  0  0  0  0  0
   42.3070   29.1710   39.3480 C   0  0  0  0  0  2  0  0  0  0  0  0
   41.4480   30.4200   39.1090 C   0  0  0  0  0  2  0  0  0  0  0  0
  1 10  1  0  0  0  0
  1  2  1  0  0  0  0
  2 16  1  0  0  0  0
  3  2  2  0  0  0  0
  3 11  1  0  0  0  0
  4  3  1  0  0  0  0
  5 12  1  0  0  0  0
  5  4  1  0  0  0  0
  6  5  1  0  0  0  0
  7  6  2  0  0  0  0
  7  8  1  0  0  0  0
  8  9  1  0  0  0  0
  8  4  2  0  0  0  0
  9  1  2  0  0  0  0
 13  9  1  0  0  0  0
 14 19  1  0  0  0  0
 14 20  1  0  0  0  0
 15 14  2  0  0  0  0
 16 17  2  0  0  0  0
 16 15  1  0  0  0  0
 17 18  1  0  0  0  0
 18 22  1  0  0  0  0
 18 19  2  0  0  0  0
 21 15  1  0  0  0  0
 23  6  1  0  0  0  0
 24 25  1  0  0  0  0
 24 30  1  0  0  0  0
 25 31  1  6  0  0  0
 25 23  1  0  0  0  0
 26 33  1  0  0  0  0
 26 25  1  0  0  0  0
 27 26  1  0  0  0  0
 28 27  1  0  0  0  0
 28 34  1  0  0  0  0
 28 29  1  0  0  0  0
 29 36  1  6  0  0  0
 29 24  1  0  0  0  0
 32 26  1  0  0  0  0
 35 28  1  0  0  0  0
 37 29  1  0  0  0  0
 37 38  1  0  0  0  0
 39 38  1  0  0  0  0
 40 39  1  0  0  0  0
 41 40  1  0  0  0  0
 41 37  1  0  0  0  0
M  END
>  <minimizedAffinity>
-6.0074029

>  <minimizedRMSD>
0.37329793

$$$$
