
 OpenBabel03272509343D

 37 41  0  0  1  0  0  0  0  0999 V2000
   39.2410   32.4810   45.8520 C   0  0  1  0  0  0  0  0  0  0  0  0
   40.6190   32.3050   45.3610 C   0  0  0  0  0  0  0  0  0  0  0  0
   39.7390   31.1080   45.3160 C   0  0  2  0  0  0  0  0  0  0  0  0
   38.4700   32.8670   45.2060 H   0  0  0  0  0  0  0  0  0  0  0  0
   41.4470   32.2710   46.1530 H   0  0  0  0  0  0  0  0  0  0  0  0
   40.8730   33.0120   44.5950 H   0  0  0  0  0  0  0  0  0  0  0  0
   39.4770   30.3380   46.0210 H   0  0  0  0  0  0  0  0  0  0  0  0
   39.4320   30.7420   43.9100 C   0  0  0  0  0  0  0  0  0  0  0  0
   40.5420   30.9700   43.0880 C   0  0  0  0  0  0  0  0  0  0  0  0
   40.5170   30.6320   41.7520 C   0  0  0  0  0  0  0  0  0  0  0  0
   39.3800   30.0470   41.1840 C   0  0  0  0  0  0  0  0  0  0  0  0
   38.3060   29.8330   42.0130 C   0  0  0  0  0  0  0  0  0  0  0  0
   37.1170   29.2810   41.5950 C   0  0  0  0  0  0  0  0  0  0  0  0
   36.0280   29.0680   42.4100 C   0  0  0  0  0  0  0  0  0  0  0  0
   36.1120   29.4260   43.7360 C   0  0  0  0  0  0  0  0  0  0  0  0
   37.2910   29.9820   44.1820 C   0  0  0  0  0  0  0  0  0  0  0  0
   38.3490   30.1740   43.3310 C   0  0  0  0  0  0  0  0  0  0  0  0
   41.5300   31.3630   43.1970 H   0  0  0  0  0  0  0  0  0  0  0  0
   41.2720   30.7390   40.9890 H   0  0  0  0  0  0  0  0  0  0  0  0
   39.1950   29.7260   40.1670 H   0  0  0  0  0  0  0  0  0  0  0  0
   37.0210   28.9840   40.5380 H   0  0  0  0  0  0  0  0  0  0  0  0
   35.1120   28.6260   42.0220 H   0  0  0  0  0  0  0  0  0  0  0  0
   35.3040   29.2920   44.4400 H   0  0  0  0  0  0  0  0  0  0  0  0
   37.3400   30.2630   45.2490 H   0  0  0  0  0  0  0  0  0  0  0  0
   39.0580   33.5810   49.4520 C   0  0  0  0  0  0  0  0  0  0  0  0
   39.2870   33.6120   48.0470 C   0  0  0  0  0  0  0  0  0  0  0  0
   39.0010   32.4860   47.3100 C   0  0  0  0  0  0  0  0  0  0  0  0
   38.5140   31.4210   47.9950 N   0  0  0  0  0  0  0  0  0  0  0  0
   38.2970   31.3900   49.3200 C   0  0  0  0  0  0  0  0  0  0  0  0
   38.5730   32.4880   50.0640 N   0  0  0  0  0  0  0  0  0  0  0  0
   39.2810   34.4620   50.0380 H   0  0  0  0  0  0  0  0  0  0  0  0
   39.6770   34.5180   47.6220 H   0  0  0  0  0  0  0  0  0  0  0  0
   37.7500   30.0880   49.8440 C   0  0  0  0  0  0  0  0  0  0  0  0
   36.6140   29.5920   49.0150 C   0  0  0  0  0  0  0  0  0  0  0  0
   35.4610   29.2800   49.9200 C   0  0  0  0  0  0  0  0  0  0  0  0
   35.9590   29.4270   51.3410 C   0  0  0  0  0  0  0  0  0  0  0  0
   37.2420   30.2340   51.2430 C   0  0  0  0  0  0  0  0  0  0  0  0
  1  4  1  6  0  0  0
  1 27  1  0  0  0  0
  2  1  1  0  0  0  0
  2  5  1  0  0  0  0
  3  2  1  0  0  0  0
  3  1  1  0  0  0  0
  3  7  1  1  0  0  0
  6  2  1  0  0  0  0
  8  3  1  0  0  0  0
  9 18  1  0  0  0  0
  9  8  2  0  0  0  0
 10  9  1  0  0  0  0
 11 10  2  0  0  0  0
 11 12  1  0  0  0  0
 12 17  1  0  0  0  0
 13 12  2  0  0  0  0
 13 14  1  0  0  0  0
 14 15  2  0  0  0  0
 15 16  1  0  0  0  0
 15 23  1  0  0  0  0
 16 24  1  0  0  0  0
 17  8  1  0  0  0  0
 17 16  2  0  0  0  0
 19 10  1  0  0  0  0
 20 11  1  0  0  0  0
 21 13  1  0  0  0  0
 22 14  1  0  0  0  0
 25 31  1  0  0  0  0
 25 30  1  0  0  0  0
 26 25  2  0  0  0  0
 27 28  2  0  0  0  0
 27 26  1  0  0  0  0
 28 29  1  0  0  0  0
 29 33  1  0  0  0  0
 29 30  2  0  0  0  0
 32 26  1  0  0  0  0
 33 37  1  0  0  0  0
 34 33  1  0  0  0  0
 34 35  1  0  0  0  0
 35 36  1  0  0  0  0
 37 36  1  0  0  0  0
M  END
>  <minimizedAffinity>
-6.97871876

>  <minimizedRMSD>
3.81469154

$$$$
