
 OpenBabel03272508283D

 34 37  0  0  1  0  0  0  0  0999 V2000
   33.8900   28.9190   47.2820 C   0  0  2  0  0  0  0  0  0  0  0  0
   34.6030   28.1580   48.3910 C   0  0  2  0  0  0  0  0  0  0  0  0
   33.6860   28.0230   49.3900 O   0  0  0  0  0  0  0  0  0  0  0  0
   32.4180   28.1010   48.8900 C   0  0  0  0  0  0  0  0  0  0  0  0
   32.5100   28.2660   47.3880 C   0  0  1  0  0  0  0  0  0  0  0  0
   33.8420   29.9940   47.4760 H   0  0  0  0  0  0  0  0  0  0  0  0
   34.8900   27.1570   48.0150 H   0  0  0  0  0  0  0  0  0  0  0  0
   31.8950   27.1320   49.0850 H   0  0  0  0  0  0  0  0  0  0  0  0
   31.7700   28.8700   49.3540 H   0  0  0  0  0  0  0  0  0  0  0  0
   32.5730   27.2730   46.8800 H   0  0  0  0  0  0  0  0  0  0  0  0
   35.6830   30.4130   49.0590 C   0  0  1  0  0  0  0  0  0  0  0  0
   35.7690   28.9930   48.8160 C   0  0  1  0  0  0  0  0  0  0  0  0
   35.9390   29.4480   50.2270 C   0  0  0  0  0  0  0  0  0  0  0  0
   34.7860   31.0190   49.2800 H   0  0  0  0  0  0  0  0  0  0  0  0
   36.7280   28.6450   48.3350 H   0  0  0  0  0  0  0  0  0  0  0  0
   36.9490   29.4430   50.6950 H   0  0  0  0  0  0  0  0  0  0  0  0
   35.1440   29.2750   50.9720 H   0  0  0  0  0  0  0  0  0  0  0  0
   36.8720   31.3280   48.8170 C   0  0  0  0  0  0  0  0  0  0  0  0
   37.0760   32.3720   49.7200 C   0  0  0  0  0  0  0  0  0  0  0  0
   38.1600   33.1930   49.4400 C   0  0  0  0  0  0  0  0  0  0  0  0
   38.9530   32.9600   48.3400 N   0  0  0  0  0  0  0  0  0  0  0  0
   38.7160   31.9370   47.4950 C   0  0  0  0  0  0  0  0  0  0  0  0
   37.6630   31.1070   47.7350 N   0  0  0  0  0  0  0  0  0  0  0  0
   36.4380   32.5260   50.5680 H   0  0  0  0  0  0  0  0  0  0  0  0
   38.4000   34.0350   50.0870 H   0  0  0  0  0  0  0  0  0  0  0  0
   39.3690   31.7970   46.6460 H   0  0  0  0  0  0  0  0  0  0  0  0
   34.4410   28.7210   46.0320 O   0  0  0  0  0  0  0  0  0  0  0  0
   34.2310   27.7650   45.7920 H   0  0  0  0  0  0  0  0  0  0  0  0
   31.5220   29.0540   46.8740 O   0  0  0  0  0  0  0  0  0  0  0  0
   30.5340   28.3910   46.1950 C   0  0  0  0  0  3  0  0  0  0  0  0
   31.1090   27.2170   45.3990 C   0  0  0  0  0  2  0  0  0  0  0  0
   31.2090   27.7750   43.9820 C   0  0  0  0  0  2  0  0  0  0  0  0
   29.8540   28.4900   43.9050 C   0  0  0  0  0  2  0  0  0  0  0  0
   29.9390   29.3430   45.1760 C   0  0  0  0  0  2  0  0  0  0  0  0
  1  5  1  0  0  0  0
  1  6  1  1  0  0  0
  1  2  1  0  0  0  0
  2  7  1  6  0  0  0
  2 12  1  0  0  0  0
  2  3  1  0  0  0  0
  4  8  1  0  0  0  0
  4  9  1  0  0  0  0
  4  3  1  0  0  0  0
  5 10  1  6  0  0  0
  5  4  1  0  0  0  0
 11 14  1  6  0  0  0
 11 13  1  0  0  0  0
 12 15  1  6  0  0  0
 12 11  1  0  0  0  0
 12 13  1  0  0  0  0
 13 16  1  0  0  0  0
 13 17  1  0  0  0  0
 18 11  1  0  0  0  0
 18 19  1  0  0  0  0
 19 24  1  0  0  0  0
 20 19  2  0  0  0  0
 20 25  1  0  0  0  0
 21 20  1  0  0  0  0
 22 23  1  0  0  0  0
 22 21  2  0  0  0  0
 23 18  2  0  0  0  0
 26 22  1  0  0  0  0
 27  1  1  0  0  0  0
 28 27  1  0  0  0  0
 29  5  1  0  0  0  0
 30 29  1  0  0  0  0
 31 30  1  0  0  0  0
 32 31  1  0  0  0  0
 33 32  1  0  0  0  0
 33 34  1  0  0  0  0
 34 30  1  0  0  0  0
M  END
>  <minimizedAffinity>
-4.71441269

>  <minimizedRMSD>
0.561161757

$$$$
