
 OpenBabel03272505463D

 21 23  0  0  0  0  0  0  0  0999 V2000
   35.9410   30.0710   47.8850 C   0  0  0  0  0  0  0  0  0  0  0  0
   34.8240   29.1560   47.8330 C   0  0  0  0  0  0  0  0  0  0  0  0
   34.5620   30.5560   48.2690 C   0  0  0  0  0  0  0  0  0  0  0  0
   34.4550   28.8980   46.7960 H   0  0  0  0  0  0  0  0  0  0  0  0
   34.6850   28.2830   48.4950 H   0  0  0  0  0  0  0  0  0  0  0  0
   34.4590   30.8450   49.3140 H   0  0  0  0  0  0  0  0  0  0  0  0
   34.1020   31.2620   47.5510 H   0  0  0  0  0  0  0  0  0  0  0  0
   38.1140   32.0840   45.6750 C   0  0  0  0  0  0  0  0  0  0  0  0
   37.6850   31.7470   44.3900 C   0  0  0  0  0  0  0  0  0  0  0  0
   36.6390   30.8230   44.2820 C   0  0  0  0  0  0  0  0  0  0  0  0
   36.1100   30.3120   45.4180 N   0  0  0  0  0  0  0  0  0  0  0  0
   36.5520   30.6580   46.6660 C   0  0  0  0  0  0  0  0  0  0  0  0
   37.5460   31.5380   46.7870 N   0  0  0  0  0  0  0  0  0  0  0  0
   38.9160   32.7940   45.7540 H   0  0  0  0  0  0  0  0  0  0  0  0
   38.1320   32.1770   43.5070 H   0  0  0  0  0  0  0  0  0  0  0  0
   36.2510   30.5120   43.3120 H   0  0  0  0  0  0  0  0  0  0  0  0
   36.9870   30.0220   48.9870 C   0  0  0  0  0  0  0  0  0  0  0  0
   36.8870   28.8820   49.9150 C   0  0  0  0  0  0  0  0  0  0  0  0
   37.0470   29.4210   51.3300 C   0  0  0  0  0  0  0  0  0  0  0  0
   37.4030   30.8800   51.2090 C   0  0  0  0  0  0  0  0  0  0  0  0
   36.9990   31.2930   49.8100 C   0  0  0  0  0  0  0  0  0  0  0  0
  1  3  1  0  0  0  0
  1 17  1  0  0  0  0
  2  1  1  0  0  0  0
  2  3  1  0  0  0  0
  2  5  1  0  0  0  0
  3  6  1  0  0  0  0
  4  2  1  0  0  0  0
  7  3  1  0  0  0  0
  8 14  1  0  0  0  0
  8 13  1  0  0  0  0
  9  8  2  0  0  0  0
 10  9  1  0  0  0  0
 10 11  2  0  0  0  0
 11 12  1  0  0  0  0
 12 13  2  0  0  0  0
 12  1  1  0  0  0  0
 15  9  1  0  0  0  0
 16 10  1  0  0  0  0
 17 21  1  0  0  0  0
 17 18  1  0  0  0  0
 18 19  1  0  0  0  0
 20 19  1  0  0  0  0
 21 20  1  0  0  0  0
M  END
>  <minimizedAffinity>
-4.62854719

>  <minimizedRMSD>
3.35682702

$$$$
