
 OpenBabel03272507583D

 28 30  0  0  0  0  0  0  0  0999 V2000
   35.2990   28.6720   49.8780 C   0  0  0  0  0  0  0  0  0  0  0  0
   36.3520   29.6060   49.7090 C   0  0  0  0  0  0  0  0  0  0  0  0
   36.2410   30.5450   48.6930 C   0  0  0  0  0  0  0  0  0  0  0  0
   35.1210   30.5250   47.9020 N   0  0  0  0  0  0  0  0  0  0  0  0
   34.1330   29.6000   48.1070 C   0  0  0  0  0  0  0  0  0  0  0  0
   34.2210   28.6850   49.0830 N   0  0  0  0  0  0  0  0  0  0  0  0
   33.0740   29.7740   47.1660 N   0  0  0  0  0  0  0  0  0  0  0  0
   35.3800   27.9360   50.6690 H   0  0  0  0  0  0  0  0  0  0  0  0
   32.8560   28.9430   46.5480 H   0  0  0  0  0  0  0  0  0  0  0  0
   32.5890   30.7040   47.1530 H   0  0  0  0  0  0  0  0  0  0  0  0
   37.3040   31.5270   48.4850 C   0  0  0  0  0  0  0  0  0  0  0  0
   37.2980   32.5220   49.4400 C   0  0  0  0  0  0  0  0  0  0  0  0
   38.2450   33.5300   49.3810 C   0  0  0  0  0  0  0  0  0  0  0  0
   39.1830   33.5390   48.3830 C   0  0  0  0  0  0  0  0  0  0  0  0
   39.1640   32.5210   47.4340 C   0  0  0  0  0  0  0  0  0  0  0  0
   38.2390   31.5600   47.5120 N   0  0  0  0  0  0  0  0  0  0  0  0
   36.6190   32.6490   50.2900 H   0  0  0  0  0  0  0  0  0  0  0  0
   38.3120   34.3450   50.0860 H   0  0  0  0  0  0  0  0  0  0  0  0
   39.9810   34.2610   48.2140 H   0  0  0  0  0  0  0  0  0  0  0  0
   40.1350   32.4400   46.3130 C   0  0  0  0  0  0  0  0  0  0  0  0
   39.8560   33.4220   45.2050 C   0  0  0  0  0  0  0  0  0  0  0  0
   39.5250   32.5910   43.9890 C   0  0  0  0  0  0  0  0  0  0  0  0
   40.5020   31.4270   44.1900 C   0  0  0  0  0  0  0  0  0  0  0  0
   40.1400   31.0750   45.6390 C   0  0  0  0  0  0  0  0  0  0  0  0
   37.5250   29.5400   50.6240 C   0  0  0  0  0  0  0  0  0  0  0  0
   38.6960   29.9390   49.9740 F   0  0  0  0  0  0  0  0  0  0  0  0
   37.3080   30.3750   51.6770 F   0  0  0  0  0  0  0  0  0  0  0  0
   37.7510   28.2660   51.1200 F   0  0  0  0  0  0  0  0  0  0  0  0
  1  8  1  0  0  0  0
  2  1  1  0  0  0  0
  2 25  1  0  0  0  0
  3  2  2  0  0  0  0
  4  5  2  0  0  0  0
  4  3  1  0  0  0  0
  5  6  1  0  0  0  0
  6  1  2  0  0  0  0
  7  5  1  0  0  0  0
  9  7  1  0  0  0  0
 10  7  1  0  0  0  0
 11  3  1  0  0  0  0
 11 12  1  0  0  0  0
 12 17  1  0  0  0  0
 13 12  2  0  0  0  0
 13 18  1  0  0  0  0
 14 13  1  0  0  0  0
 15 16  1  0  0  0  0
 15 14  2  0  0  0  0
 16 11  2  0  0  0  0
 19 14  1  0  0  0  0
 20 15  1  0  0  0  0
 21 20  1  0  0  0  0
 22 23  1  0  0  0  0
 22 21  1  0  0  0  0
 23 24  1  0  0  0  0
 24 20  1  0  0  0  0
 25 28  1  0  0  0  0
 25 27  1  0  0  0  0
 26 25  1  0  0  0  0
M  END
>  <minimizedAffinity>
-7.50086927

>  <minimizedRMSD>
0.80575788

$$$$
