
 OpenBabel03272508283D

 34 37  0  0  1  0  0  0  0  0999 V2000
   33.9860   29.0130   47.3420 C   0  0  2  0  0  0  0  0  0  0  0  0
   34.7390   28.2400   48.4170 C   0  0  2  0  0  0  0  0  0  0  0  0
   33.8450   28.0540   49.4280 O   0  0  0  0  0  0  0  0  0  0  0  0
   32.5660   28.1130   48.9520 C   0  0  0  0  0  0  0  0  0  0  0  0
   32.6250   28.3220   47.4550 C   0  0  1  0  0  0  0  0  0  0  0  0
   33.9150   30.0800   47.5670 H   0  0  0  0  0  0  0  0  0  0  0  0
   35.0440   27.2580   48.0070 H   0  0  0  0  0  0  0  0  0  0  0  0
   32.0710   27.1260   49.1300 H   0  0  0  0  0  0  0  0  0  0  0  0
   31.9080   28.8520   49.4500 H   0  0  0  0  0  0  0  0  0  0  0  0
   32.7040   27.3460   46.9180 H   0  0  0  0  0  0  0  0  0  0  0  0
   35.7930   30.5190   49.0430 C   0  0  1  0  0  0  0  0  0  0  0  0
   35.8920   29.0930   48.8440 C   0  0  1  0  0  0  0  0  0  0  0  0
   36.0270   29.5890   50.2440 C   0  0  0  0  0  0  0  0  0  0  0  0
   34.8890   31.1270   49.2260 H   0  0  0  0  0  0  0  0  0  0  0  0
   36.8630   28.7350   48.3950 H   0  0  0  0  0  0  0  0  0  0  0  0
   37.0260   29.6020   50.7350 H   0  0  0  0  0  0  0  0  0  0  0  0
   35.2160   29.4340   50.9760 H   0  0  0  0  0  0  0  0  0  0  0  0
   36.9850   31.4310   48.8020 C   0  0  0  0  0  0  0  0  0  0  0  0
   37.1760   32.4910   49.6910 C   0  0  0  0  0  0  0  0  0  0  0  0
   38.2610   33.3090   49.4120 C   0  0  0  0  0  0  0  0  0  0  0  0
   39.0690   33.0600   48.3260 N   0  0  0  0  0  0  0  0  0  0  0  0
   38.8440   32.0240   47.4940 C   0  0  0  0  0  0  0  0  0  0  0  0
   37.7890   31.1960   47.7340 N   0  0  0  0  0  0  0  0  0  0  0  0
   36.5270   32.6570   50.5280 H   0  0  0  0  0  0  0  0  0  0  0  0
   38.4920   34.1610   50.0490 H   0  0  0  0  0  0  0  0  0  0  0  0
   39.5080   31.8720   46.6550 H   0  0  0  0  0  0  0  0  0  0  0  0
   34.5180   28.8640   46.0770 O   0  0  0  0  0  0  0  0  0  0  0  0
   34.3280   27.9100   45.8140 H   0  0  0  0  0  0  0  0  0  0  0  0
   31.6080   29.0990   46.9810 O   0  0  0  0  0  0  0  0  0  0  0  0
   30.8660   28.5440   45.9720 C   0  0  0  0  0  3  0  0  0  0  0  0
   30.8270   29.4660   44.7510 C   0  0  0  0  0  2  0  0  0  0  0  0
   29.4720   30.1550   44.8820 C   0  0  0  0  0  2  0  0  0  0  0  0
   28.6170   28.9420   45.2680 C   0  0  0  0  0  2  0  0  0  0  0  0
   29.4330   28.4170   46.4540 C   0  0  0  0  0  2  0  0  0  0  0  0
  1  5  1  0  0  0  0
  1  6  1  1  0  0  0
  1  2  1  0  0  0  0
  2  7  1  6  0  0  0
  2 12  1  0  0  0  0
  2  3  1  0  0  0  0
  4  8  1  0  0  0  0
  4  3  1  0  0  0  0
  4  9  1  0  0  0  0
  5 10  1  6  0  0  0
  5  4  1  0  0  0  0
 11 14  1  6  0  0  0
 11 13  1  0  0  0  0
 12 15  1  6  0  0  0
 12 11  1  0  0  0  0
 12 13  1  0  0  0  0
 13 16  1  0  0  0  0
 13 17  1  0  0  0  0
 18 11  1  0  0  0  0
 18 19  1  0  0  0  0
 19 24  1  0  0  0  0
 20 19  2  0  0  0  0
 20 25  1  0  0  0  0
 21 20  1  0  0  0  0
 22 23  1  0  0  0  0
 22 21  2  0  0  0  0
 23 18  2  0  0  0  0
 26 22  1  0  0  0  0
 27  1  1  0  0  0  0
 28 27  1  0  0  0  0
 29  5  1  0  0  0  0
 30 34  1  0  0  0  0
 30 29  1  0  0  0  0
 31 32  1  0  0  0  0
 31 30  1  0  0  0  0
 32 33  1  0  0  0  0
 33 34  1  0  0  0  0
M  END
>  <minimizedAffinity>
-4.78929996

>  <minimizedRMSD>
0.0955643952

$$$$
