
 OpenBabel03272510053D

 33 35  0  0  0  0  0  0  0  0999 V2000
   36.7470   25.6980   32.3080 C   0  0  0  0  0  0  0  0  0  0  0  0
   37.3260   26.1840   33.4440 C   0  0  0  0  0  0  0  0  0  0  0  0
   37.0970   27.5030   33.8210 C   0  0  0  0  0  0  0  0  0  0  0  0
   36.3000   28.3630   33.0890 C   0  0  0  0  0  0  0  0  0  0  0  0
   35.7020   27.8940   31.9320 C   0  0  0  0  0  0  0  0  0  0  0  0
   35.9470   26.5930   31.5920 C   0  0  0  0  0  0  0  0  0  0  0  0
   37.5710   27.8730   34.7370 H   0  0  0  0  0  0  0  0  0  0  0  0
   36.1820   29.3700   33.4640 H   0  0  0  0  0  0  0  0  0  0  0  0
   35.0860   28.5920   31.3830 H   0  0  0  0  0  0  0  0  0  0  0  0
   35.4250   26.3410   30.6610 H   0  0  0  0  0  0  0  0  0  0  0  0
   40.2740   24.2640   34.5100 C   0  0  0  0  0  0  0  0  0  0  0  0
   39.4090   25.0550   33.7600 C   0  0  0  0  0  0  0  0  0  0  0  0
   38.1870   25.3840   34.2450 C   0  0  0  0  0  0  0  0  0  0  0  0
   37.8660   24.9080   35.4830 N   0  0  0  0  0  0  0  0  0  0  0  0
   38.6880   24.1530   36.2090 C   0  0  0  0  0  0  0  0  0  0  0  0
   39.8890   23.8330   35.7150 N   0  0  0  0  0  0  0  0  0  0  0  0
   41.2620   23.9130   34.2760 H   0  0  0  0  0  0  0  0  0  0  0  0
   39.9670   25.2820   32.8850 H   0  0  0  0  0  0  0  0  0  0  0  0
   38.2310   23.7690   37.5710 C   0  0  0  0  0  0  0  0  0  0  0  0
   37.2190   22.8200   37.5270 F   0  0  0  0  0  0  0  0  0  0  0  0
   39.3070   23.0600   38.2300 F   0  0  0  0  0  0  0  0  0  0  0  0
   37.9440   24.7410   38.4040 F   0  0  0  0  0  0  0  0  0  0  0  0
   36.9290   24.0740   31.7620 S   0  0  0  0  0  0  0  0  0  0  0  0
   37.5910   24.0360   30.4310 O   0  0  0  0  0  0  0  0  0  0  0  0
   35.5390   23.8400   31.2390 O   0  0  0  0  0  0  0  0  0  0  0  0
   36.7580   22.6290   32.6110 C   0  0  0  0  0  0  0  0  0  0  0  0
   36.6190   22.9190   33.7070 H   0  0  0  0  0  0  0  0  0  0  0  0
   37.7850   22.2030   32.6420 H   0  0  0  0  0  0  0  0  0  0  0  0
   35.7920   21.5550   32.4100 C   0  0  0  0  0  3  0  0  0  0  0  0
   36.3140   20.6460   31.3070 C   0  0  0  0  0  2  0  0  0  0  0  0
   36.6730   19.3910   32.0330 C   0  0  0  0  0  2  0  0  0  0  0  0
   35.5160   19.2490   33.0280 C   0  0  0  0  0  2  0  0  0  0  0  0
   35.4880   20.6830   33.5680 C   0  0  0  0  0  2  0  0  0  0  0  0
  1  2  1  0  0  0  0
  2  3  2  0  0  0  0
  2 13  1  0  0  0  0
  3  7  1  0  0  0  0
  4  8  1  0  0  0  0
  4  3  1  0  0  0  0
  5  4  2  0  0  0  0
  6  5  1  0  0  0  0
  6  1  2  0  0  0  0
  9  5  1  0  0  0  0
 10  6  1  0  0  0  0
 11 16  1  0  0  0  0
 12 13  1  0  0  0  0
 12 11  2  0  0  0  0
 13 14  2  0  0  0  0
 14 15  1  0  0  0  0
 15 19  1  0  0  0  0
 16 15  2  0  0  0  0
 17 11  1  0  0  0  0
 18 12  1  0  0  0  0
 19 21  1  0  0  0  0
 19 22  1  0  0  0  0
 20 19  1  0  0  0  0
 23  1  1  0  0  0  0
 23 26  1  0  0  0  0
 24 23  2  0  0  0  0
 25 23  2  0  0  0  0
 26 28  1  0  0  0  0
 26 27  1  0  0  0  0
 29 26  1  0  0  0  0
 29 33  1  0  0  0  0
 30 31  1  0  0  0  0
 30 29  1  0  0  0  0
 31 32  1  0  0  0  0
 32 33  1  0  0  0  0
M  END
>  <minimizedAffinity>
-6.33933306

$$$$

 OpenBabel03272510053D

 33 35  0  0  0  0  0  0  0  0999 V2000
   38.2550   24.7760   35.7720 C   0  0  0  0  0  0  0  0  0  0  0  0
   38.1380   24.6140   34.4220 C   0  0  0  0  0  0  0  0  0  0  0  0
   38.0180   25.7330   33.6050 C   0  0  0  0  0  0  0  0  0  0  0  0
   38.0100   27.0230   34.0990 C   0  0  0  0  0  0  0  0  0  0  0  0
   38.1260   27.2140   35.4660 C   0  0  0  0  0  0  0  0  0  0  0  0
   38.2430   26.0930   36.2390 C   0  0  0  0  0  0  0  0  0  0  0  0
   37.9270   25.5810   32.5230 H   0  0  0  0  0  0  0  0  0  0  0  0
   37.9130   27.8290   33.3840 H   0  0  0  0  0  0  0  0  0  0  0  0
   38.1150   28.2360   35.8190 H   0  0  0  0  0  0  0  0  0  0  0  0
   38.3230   26.3710   37.2970 H   0  0  0  0  0  0  0  0  0  0  0  0
   39.2110   21.6300   32.5650 C   0  0  0  0  0  0  0  0  0  0  0  0
   39.2080   22.8810   33.1730 C   0  0  0  0  0  0  0  0  0  0  0  0
   38.1060   23.3240   33.8240 C   0  0  0  0  0  0  0  0  0  0  0  0
   37.0270   22.4880   33.8520 N   0  0  0  0  0  0  0  0  0  0  0  0
   37.0210   21.2880   33.2750 C   0  0  0  0  0  0  0  0  0  0  0  0
   38.1150   20.8670   32.6320 N   0  0  0  0  0  0  0  0  0  0  0  0
   39.9880   21.1350   32.0120 H   0  0  0  0  0  0  0  0  0  0  0  0
   40.1910   23.2480   33.0030 H   0  0  0  0  0  0  0  0  0  0  0  0
   35.7990   20.4580   33.4490 C   0  0  0  0  0  0  0  0  0  0  0  0
   35.2750   20.5730   34.7290 F   0  0  0  0  0  0  0  0  0  0  0  0
   34.7500   21.0140   32.6230 F   0  0  0  0  0  0  0  0  0  0  0  0
   35.8660   19.2050   33.0650 F   0  0  0  0  0  0  0  0  0  0  0  0
   38.4440   23.4690   36.8790 S   0  0  0  0  0  0  0  0  0  0  0  0
   37.1300   22.8490   37.1930 O   0  0  0  0  0  0  0  0  0  0  0  0
   38.5460   24.2510   38.1590 O   0  0  0  0  0  0  0  0  0  0  0  0
   39.8430   22.6640   37.3610 C   0  0  0  0  0  0  0  0  0  0  0  0
   39.5020   21.8120   38.0400 H   0  0  0  0  0  0  0  0  0  0  0  0
   40.3110   23.3440   38.1070 H   0  0  0  0  0  0  0  0  0  0  0  0
   40.8840   22.0570   36.5380 C   0  0  0  0  0  3  0  0  0  0  0  0
   41.6350   23.1700   35.8240 C   0  0  0  0  0  2  0  0  0  0  0  0
   42.9750   23.1640   36.4840 C   0  0  0  0  0  2  0  0  0  0  0  0
   43.2530   21.6640   36.6390 C   0  0  0  0  0  2  0  0  0  0  0  0
   41.9040   21.2310   37.2250 C   0  0  0  0  0  2  0  0  0  0  0  0
  1  6  1  0  0  0  0
  1 23  1  0  0  0  0
  2  1  2  0  0  0  0
  3  4  2  0  0  0  0
  3  2  1  0  0  0  0
  4  5  1  0  0  0  0
  5  9  1  0  0  0  0
  5  6  2  0  0  0  0
  6 10  1  0  0  0  0
  7  3  1  0  0  0  0
  8  4  1  0  0  0  0
 11 16  2  0  0  0  0
 11 12  1  0  0  0  0
 12 13  2  0  0  0  0
 13 14  1  0  0  0  0
 13  2  1  0  0  0  0
 15 19  1  0  0  0  0
 15 14  2  0  0  0  0
 16 15  1  0  0  0  0
 17 11  1  0  0  0  0
 18 12  1  0  0  0  0
 19 20  1  0  0  0  0
 21 19  1  0  0  0  0
 22 19  1  0  0  0  0
 23 24  2  0  0  0  0
 23 26  1  0  0  0  0
 23 25  2  0  0  0  0
 26 27  1  0  0  0  0
 26 28  1  0  0  0  0
 29 33  1  0  0  0  0
 29 26  1  0  0  0  0
 30 31  1  0  0  0  0
 30 29  1  0  0  0  0
 31 32  1  0  0  0  0
 32 33  1  0  0  0  0
M  END
>  <minimizedAffinity>
-5.92793179

$$$$

 OpenBabel03272510053D

 33 35  0  0  0  0  0  0  0  0999 V2000
   36.8850   21.7650   33.1620 C   0  0  0  0  0  0  0  0  0  0  0  0
   36.4460   22.3940   32.0330 C   0  0  0  0  0  0  0  0  0  0  0  0
   35.4350   21.8150   31.2740 C   0  0  0  0  0  0  0  0  0  0  0  0
   34.8420   20.6120   31.6090 C   0  0  0  0  0  0  0  0  0  0  0  0
   35.2700   19.9530   32.7490 C   0  0  0  0  0  0  0  0  0  0  0  0
   36.2640   20.5510   33.4720 C   0  0  0  0  0  0  0  0  0  0  0  0
   35.0960   22.3370   30.3710 H   0  0  0  0  0  0  0  0  0  0  0  0
   34.0630   20.2430   30.9550 H   0  0  0  0  0  0  0  0  0  0  0  0
   34.7870   19.0150   32.9820 H   0  0  0  0  0  0  0  0  0  0  0  0
   36.5180   19.9370   34.3440 H   0  0  0  0  0  0  0  0  0  0  0  0
   38.6070   24.7580   30.2300 C   0  0  0  0  0  0  0  0  0  0  0  0
   38.0160   23.5810   30.6770 C   0  0  0  0  0  0  0  0  0  0  0  0
   37.0160   23.6190   31.5910 C   0  0  0  0  0  0  0  0  0  0  0  0
   36.6290   24.8520   32.0310 N   0  0  0  0  0  0  0  0  0  0  0  0
   37.1870   25.9850   31.6060 C   0  0  0  0  0  0  0  0  0  0  0  0
   38.1760   25.9300   30.7080 N   0  0  0  0  0  0  0  0  0  0  0  0
   39.4020   24.9030   29.5220 H   0  0  0  0  0  0  0  0  0  0  0  0
   38.5110   22.8220   30.1220 H   0  0  0  0  0  0  0  0  0  0  0  0
   36.6130   27.2570   32.1200 C   0  0  0  0  0  0  0  0  0  0  0  0
   35.2720   27.3890   31.7880 F   0  0  0  0  0  0  0  0  0  0  0  0
   36.5800   27.1910   33.5650 F   0  0  0  0  0  0  0  0  0  0  0  0
   37.2820   28.3590   31.8740 F   0  0  0  0  0  0  0  0  0  0  0  0
   38.1030   22.4020   34.1990 S   0  0  0  0  0  0  0  0  0  0  0  0
   39.3970   21.7000   33.9860 O   0  0  0  0  0  0  0  0  0  0  0  0
   37.7480   21.6720   35.4640 O   0  0  0  0  0  0  0  0  0  0  0  0
   38.1020   23.8140   35.1170 C   0  0  0  0  0  0  0  0  0  0  0  0
   37.0300   23.9540   35.4840 H   0  0  0  0  0  0  0  0  0  0  0  0
   38.1690   24.6330   34.3680 H   0  0  0  0  0  0  0  0  0  0  0  0
   38.9140   24.1540   36.2810 C   0  0  0  0  0  3  0  0  0  0  0  0
   38.0140   24.8190   37.3110 C   0  0  0  0  0  2  0  0  0  0  0  0
   37.9270   23.8030   38.4030 C   0  0  0  0  0  2  0  0  0  0  0  0
   39.3660   23.2780   38.4730 C   0  0  0  0  0  2  0  0  0  0  0  0
   39.6080   23.0450   36.9770 C   0  0  0  0  0  2  0  0  0  0  0  0
  1  6  1  0  0  0  0
  1 23  1  0  0  0  0
  2  1  2  0  0  0  0
  3  4  2  0  0  0  0
  3  2  1  0  0  0  0
  4  5  1  0  0  0  0
  5  9  1  0  0  0  0
  5  6  2  0  0  0  0
  6 10  1  0  0  0  0
  7  3  1  0  0  0  0
  8  4  1  0  0  0  0
 11 12  2  0  0  0  0
 11 16  1  0  0  0  0
 12 13  1  0  0  0  0
 13 14  2  0  0  0  0
 13  2  1  0  0  0  0
 15 14  1  0  0  0  0
 15 19  1  0  0  0  0
 16 15  2  0  0  0  0
 17 11  1  0  0  0  0
 18 12  1  0  0  0  0
 19 21  1  0  0  0  0
 20 19  1  0  0  0  0
 22 19  1  0  0  0  0
 23 26  1  0  0  0  0
 23 25  2  0  0  0  0
 24 23  2  0  0  0  0
 26 27  1  0  0  0  0
 26 29  1  0  0  0  0
 28 26  1  0  0  0  0
 29 33  1  0  0  0  0
 29 30  1  0  0  0  0
 30 31  1  0  0  0  0
 31 32  1  0  0  0  0
 33 32  1  0  0  0  0
M  END
>  <minimizedAffinity>
-5.88853216

$$$$

 OpenBabel03272510053D

 33 35  0  0  0  0  0  0  0  0999 V2000
   37.1880   24.2820   32.7000 C   0  0  0  0  0  0  0  0  0  0  0  0
   37.5060   23.0890   33.2810 C   0  0  0  0  0  0  0  0  0  0  0  0
   36.9180   21.9190   32.8130 C   0  0  0  0  0  0  0  0  0  0  0  0
   36.0090   21.9020   31.7730 C   0  0  0  0  0  0  0  0  0  0  0  0
   35.6680   23.1000   31.1670 C   0  0  0  0  0  0  0  0  0  0  0  0
   36.2650   24.2300   31.6510 C   0  0  0  0  0  0  0  0  0  0  0  0
   37.1890   20.9710   33.2930 H   0  0  0  0  0  0  0  0  0  0  0  0
   35.6060   20.9420   31.4810 H   0  0  0  0  0  0  0  0  0  0  0  0
   34.9530   23.0520   30.3580 H   0  0  0  0  0  0  0  0  0  0  0  0
   35.9150   25.1090   31.0970 H   0  0  0  0  0  0  0  0  0  0  0  0
   40.5800   22.4740   35.2000 C   0  0  0  0  0  0  0  0  0  0  0  0
   39.6730   22.5770   34.1510 C   0  0  0  0  0  0  0  0  0  0  0  0
   38.4080   23.0090   34.3770 C   0  0  0  0  0  0  0  0  0  0  0  0
   38.0890   23.3340   35.6640 N   0  0  0  0  0  0  0  0  0  0  0  0
   38.9520   23.2410   36.6750 C   0  0  0  0  0  0  0  0  0  0  0  0
   40.1940   22.8090   36.4350 N   0  0  0  0  0  0  0  0  0  0  0  0
   41.6050   22.1510   35.1950 H   0  0  0  0  0  0  0  0  0  0  0  0
   40.2390   22.2920   33.2980 H   0  0  0  0  0  0  0  0  0  0  0  0
   38.4830   23.6990   38.0100 C   0  0  0  0  0  0  0  0  0  0  0  0
   38.0110   25.0040   37.9720 F   0  0  0  0  0  0  0  0  0  0  0  0
   37.3010   22.9420   38.3620 F   0  0  0  0  0  0  0  0  0  0  0  0
   39.2900   23.5070   39.0270 F   0  0  0  0  0  0  0  0  0  0  0  0
   37.8790   25.7880   33.1690 S   0  0  0  0  0  0  0  0  0  0  0  0
   37.1510   26.3630   34.3310 O   0  0  0  0  0  0  0  0  0  0  0  0
   37.2360   26.6770   32.1410 O   0  0  0  0  0  0  0  0  0  0  0  0
   39.3480   26.4820   32.7240 C   0  0  0  0  0  0  0  0  0  0  0  0
   39.1040   27.2540   31.9190 H   0  0  0  0  0  0  0  0  0  0  0  0
   39.8490   25.7010   32.1110 H   0  0  0  0  0  0  0  0  0  0  0  0
   40.3380   27.1520   33.5600 C   0  0  0  0  0  3  0  0  0  0  0  0
   40.6240   26.2650   34.7620 C   0  0  0  0  0  2  0  0  0  0  0  0
   42.0180   25.7880   34.5170 C   0  0  0  0  0  2  0  0  0  0  0  0
   42.7020   27.0490   33.9780 C   0  0  0  0  0  2  0  0  0  0  0  0
   41.6480   27.4700   32.9470 C   0  0  0  0  0  2  0  0  0  0  0  0
  1 23  1  0  0  0  0
  1  2  1  0  0  0  0
  2 13  1  0  0  0  0
  3  2  2  0  0  0  0
  3  7  1  0  0  0  0
  4  3  1  0  0  0  0
  5  6  1  0  0  0  0
  5  4  2  0  0  0  0
  6  1  2  0  0  0  0
  8  4  1  0  0  0  0
  9  5  1  0  0  0  0
 10  6  1  0  0  0  0
 11 16  1  0  0  0  0
 12 13  1  0  0  0  0
 12 11  2  0  0  0  0
 13 14  2  0  0  0  0
 14 15  1  0  0  0  0
 15 19  1  0  0  0  0
 16 15  2  0  0  0  0
 17 11  1  0  0  0  0
 18 12  1  0  0  0  0
 19 21  1  0  0  0  0
 19 22  1  0  0  0  0
 20 19  1  0  0  0  0
 23 24  2  0  0  0  0
 25 23  2  0  0  0  0
 26 23  1  0  0  0  0
 26 29  1  0  0  0  0
 27 26  1  0  0  0  0
 28 26  1  0  0  0  0
 29 30  1  0  0  0  0
 31 30  1  0  0  0  0
 32 31  1  0  0  0  0
 33 29  1  0  0  0  0
 33 32  1  0  0  0  0
M  END
>  <minimizedAffinity>
-5.84538412

$$$$

 OpenBabel03272510053D

 33 35  0  0  0  0  0  0  0  0999 V2000
   37.6910   25.3060   33.6550 C   0  0  0  0  0  0  0  0  0  0  0  0
   37.9210   25.6100   34.9650 C   0  0  0  0  0  0  0  0  0  0  0  0
   37.6300   26.8860   35.4350 C   0  0  0  0  0  0  0  0  0  0  0  0
   37.1140   27.8810   34.6270 C   0  0  0  0  0  0  0  0  0  0  0  0
   36.8730   27.5980   33.2930 C   0  0  0  0  0  0  0  0  0  0  0  0
   37.1680   26.3340   32.8650 C   0  0  0  0  0  0  0  0  0  0  0  0
   37.8210   27.1090   36.4910 H   0  0  0  0  0  0  0  0  0  0  0  0
   36.9210   28.8420   35.0840 H   0  0  0  0  0  0  0  0  0  0  0  0
   36.4700   28.3990   32.6890 H   0  0  0  0  0  0  0  0  0  0  0  0
   36.9390   26.2340   31.7980 H   0  0  0  0  0  0  0  0  0  0  0  0
   38.2350   23.2970   37.8040 C   0  0  0  0  0  0  0  0  0  0  0  0
   37.7200   24.2150   36.8960 C   0  0  0  0  0  0  0  0  0  0  0  0
   38.4790   24.6610   35.8650 C   0  0  0  0  0  0  0  0  0  0  0  0
   39.7470   24.1630   35.7720 N   0  0  0  0  0  0  0  0  0  0  0  0
   40.2480   23.2810   36.6360 C   0  0  0  0  0  0  0  0  0  0  0  0
   39.4870   22.8540   37.6490 N   0  0  0  0  0  0  0  0  0  0  0  0
   37.7750   22.8500   38.6670 H   0  0  0  0  0  0  0  0  0  0  0  0
   36.7200   24.3630   37.2240 H   0  0  0  0  0  0  0  0  0  0  0  0
   41.6190   22.7730   36.3660 C   0  0  0  0  0  0  0  0  0  0  0  0
   42.0200   21.8400   37.3120 F   0  0  0  0  0  0  0  0  0  0  0  0
   41.5840   21.9960   35.1450 F   0  0  0  0  0  0  0  0  0  0  0  0
   42.5550   23.6640   36.1410 F   0  0  0  0  0  0  0  0  0  0  0  0
   37.9770   23.7510   32.9700 S   0  0  0  0  0  0  0  0  0  0  0  0
   39.3380   23.6800   32.3750 O   0  0  0  0  0  0  0  0  0  0  0  0
   37.2570   23.9290   31.6620 O   0  0  0  0  0  0  0  0  0  0  0  0
   37.1090   22.3200   33.1530 C   0  0  0  0  0  0  0  0  0  0  0  0
   36.3300   22.5220   33.9640 H   0  0  0  0  0  0  0  0  0  0  0  0
   37.8020   21.6430   33.7010 H   0  0  0  0  0  0  0  0  0  0  0  0
   36.3760   21.5550   32.1500 C   0  0  0  0  0  3  0  0  0  0  0  0
   37.0050   20.1740   32.0510 C   0  0  0  0  0  2  0  0  0  0  0  0
   35.9660   19.2770   32.6410 C   0  0  0  0  0  2  0  0  0  0  0  0
   34.6690   19.8650   32.0730 C   0  0  0  0  0  2  0  0  0  0  0  0
   34.9270   21.3460   32.3750 C   0  0  0  0  0  2  0  0  0  0  0  0
  1  2  1  0  0  0  0
  2  3  2  0  0  0  0
  2 13  1  0  0  0  0
  3  7  1  0  0  0  0
  4  8  1  0  0  0  0
  4  3  1  0  0  0  0
  5  4  2  0  0  0  0
  6  5  1  0  0  0  0
  6  1  2  0  0  0  0
  9  5  1  0  0  0  0
 10  6  1  0  0  0  0
 11 17  1  0  0  0  0
 12 18  1  0  0  0  0
 12 11  2  0  0  0  0
 13 12  1  0  0  0  0
 14 13  2  0  0  0  0
 14 15  1  0  0  0  0
 15 16  2  0  0  0  0
 16 11  1  0  0  0  0
 19 15  1  0  0  0  0
 19 20  1  0  0  0  0
 21 19  1  0  0  0  0
 22 19  1  0  0  0  0
 23 26  1  0  0  0  0
 23  1  1  0  0  0  0
 24 23  2  0  0  0  0
 25 23  2  0  0  0  0
 26 28  1  0  0  0  0
 26 27  1  0  0  0  0
 29 33  1  0  0  0  0
 29 26  1  0  0  0  0
 30 29  1  0  0  0  0
 30 31  1  0  0  0  0
 32 33  1  0  0  0  0
 32 31  1  0  0  0  0
M  END
>  <minimizedAffinity>
-5.79077005

$$$$

 OpenBabel03272510053D

 33 35  0  0  0  0  0  0  0  0999 V2000
   36.9160   24.1290   32.4550 C   0  0  0  0  0  0  0  0  0  0  0  0
   36.9320   25.4760   32.6690 C   0  0  0  0  0  0  0  0  0  0  0  0
   36.0980   26.3000   31.9210 C   0  0  0  0  0  0  0  0  0  0  0  0
   35.2410   25.8160   30.9510 C   0  0  0  0  0  0  0  0  0  0  0  0
   35.2080   24.4520   30.7130 C   0  0  0  0  0  0  0  0  0  0  0  0
   36.0380   23.6710   31.4670 C   0  0  0  0  0  0  0  0  0  0  0  0
   36.1250   27.3790   32.1100 H   0  0  0  0  0  0  0  0  0  0  0  0
   34.6320   26.5360   30.4220 H   0  0  0  0  0  0  0  0  0  0  0  0
   34.5270   24.1060   29.9480 H   0  0  0  0  0  0  0  0  0  0  0  0
   35.9250   22.6180   31.1860 H   0  0  0  0  0  0  0  0  0  0  0  0
   38.0810   27.2880   35.6530 C   0  0  0  0  0  0  0  0  0  0  0  0
   37.2620   26.6850   34.7050 C   0  0  0  0  0  0  0  0  0  0  0  0
   37.8020   26.0700   33.6240 C   0  0  0  0  0  0  0  0  0  0  0  0
   39.1640   26.0750   33.5280 N   0  0  0  0  0  0  0  0  0  0  0  0
   39.9560   26.6480   34.4340 C   0  0  0  0  0  0  0  0  0  0  0  0
   39.4070   27.2540   35.4920 N   0  0  0  0  0  0  0  0  0  0  0  0
   37.8190   27.8140   36.5540 H   0  0  0  0  0  0  0  0  0  0  0  0
   36.2810   26.8250   35.0890 H   0  0  0  0  0  0  0  0  0  0  0  0
   41.4230   26.5090   34.2340 C   0  0  0  0  0  0  0  0  0  0  0  0
   42.0210   25.8080   35.2710 F   0  0  0  0  0  0  0  0  0  0  0  0
   41.6490   25.6480   33.0940 F   0  0  0  0  0  0  0  0  0  0  0  0
   42.0930   27.5980   33.9390 F   0  0  0  0  0  0  0  0  0  0  0  0
   37.8760   23.0080   33.3440 S   0  0  0  0  0  0  0  0  0  0  0  0
   38.8150   22.2880   32.4440 O   0  0  0  0  0  0  0  0  0  0  0  0
   36.8870   21.8800   33.4530 O   0  0  0  0  0  0  0  0  0  0  0  0
   38.0930   22.8630   35.0080 C   0  0  0  0  0  0  0  0  0  0  0  0
   38.0030   21.7490   35.2440 H   0  0  0  0  0  0  0  0  0  0  0  0
   37.1440   23.2420   35.4460 H   0  0  0  0  0  0  0  0  0  0  0  0
   39.2170   23.3020   35.8290 C   0  0  0  0  0  3  0  0  0  0  0  0
   38.6620   24.0290   37.0440 C   0  0  0  0  0  2  0  0  0  0  0  0
   38.9620   23.0980   38.1730 C   0  0  0  0  0  2  0  0  0  0  0  0
   40.3690   22.6030   37.8180 C   0  0  0  0  0  2  0  0  0  0  0  0
   40.1370   22.2610   36.3420 C   0  0  0  0  0  2  0  0  0  0  0  0
  1  2  1  0  0  0  0
  1 23  1  0  0  0  0
  2 13  1  0  0  0  0
  3  7  1  0  0  0  0
  3  2  2  0  0  0  0
  4  3  1  0  0  0  0
  5  4  2  0  0  0  0
  5  6  1  0  0  0  0
  6  1  2  0  0  0  0
  8  4  1  0  0  0  0
  9  5  1  0  0  0  0
 10  6  1  0  0  0  0
 11 17  1  0  0  0  0
 12 18  1  0  0  0  0
 12 11  2  0  0  0  0
 13 12  1  0  0  0  0
 14 13  2  0  0  0  0
 14 15  1  0  0  0  0
 15 16  2  0  0  0  0
 16 11  1  0  0  0  0
 19 15  1  0  0  0  0
 19 20  1  0  0  0  0
 21 19  1  0  0  0  0
 22 19  1  0  0  0  0
 23 25  2  0  0  0  0
 23 26  1  0  0  0  0
 24 23  2  0  0  0  0
 26 27  1  0  0  0  0
 26 28  1  0  0  0  0
 26 29  1  0  0  0  0
 29 33  1  0  0  0  0
 29 30  1  0  0  0  0
 30 31  1  0  0  0  0
 32 31  1  0  0  0  0
 33 32  1  0  0  0  0
M  END
>  <minimizedAffinity>
-5.75259304

$$$$

 OpenBabel03272510053D

 33 35  0  0  0  0  0  0  0  0999 V2000
   37.3530   25.6480   33.2020 C   0  0  0  0  0  0  0  0  0  0  0  0
   36.8190   24.9940   32.1300 C   0  0  0  0  0  0  0  0  0  0  0  0
   36.0620   25.7010   31.2020 C   0  0  0  0  0  0  0  0  0  0  0  0
   35.8170   27.0560   31.3130 C   0  0  0  0  0  0  0  0  0  0  0  0
   36.3460   27.7430   32.3930 C   0  0  0  0  0  0  0  0  0  0  0  0
   37.0850   27.0180   33.2840 C   0  0  0  0  0  0  0  0  0  0  0  0
   35.6440   25.1560   30.3470 H   0  0  0  0  0  0  0  0  0  0  0  0
   35.2160   27.5170   30.5400 H   0  0  0  0  0  0  0  0  0  0  0  0
   36.1340   28.8010   32.4500 H   0  0  0  0  0  0  0  0  0  0  0  0
   37.4450   27.6660   34.0920 H   0  0  0  0  0  0  0  0  0  0  0  0
   38.2100   21.7990   30.9620 C   0  0  0  0  0  0  0  0  0  0  0  0
   38.0160   23.1590   31.1740 C   0  0  0  0  0  0  0  0  0  0  0  0
   36.9910   23.5940   31.9470 C   0  0  0  0  0  0  0  0  0  0  0  0
   36.1840   22.6390   32.4950 N   0  0  0  0  0  0  0  0  0  0  0  0
   36.3640   21.3340   32.3000 C   0  0  0  0  0  0  0  0  0  0  0  0
   37.3770   20.9220   31.5310 N   0  0  0  0  0  0  0  0  0  0  0  0
   38.9600   21.2930   30.3810 H   0  0  0  0  0  0  0  0  0  0  0  0
   38.8210   23.6150   30.6500 H   0  0  0  0  0  0  0  0  0  0  0  0
   35.4490   20.4090   33.0200 C   0  0  0  0  0  0  0  0  0  0  0  0
   34.2260   20.2870   32.3770 F   0  0  0  0  0  0  0  0  0  0  0  0
   35.9920   19.0710   32.9320 F   0  0  0  0  0  0  0  0  0  0  0  0
   35.2990   20.5990   34.3100 F   0  0  0  0  0  0  0  0  0  0  0  0
   38.3350   24.8860   34.3940 S   0  0  0  0  0  0  0  0  0  0  0  0
   38.8770   25.8880   35.3500 O   0  0  0  0  0  0  0  0  0  0  0  0
   39.6040   24.7390   33.6020 O   0  0  0  0  0  0  0  0  0  0  0  0
   38.4880   23.2530   34.7770 C   0  0  0  0  0  0  0  0  0  0  0  0
   39.5580   22.9610   34.5020 H   0  0  0  0  0  0  0  0  0  0  0  0
   37.9220   22.7260   33.9780 H   0  0  0  0  0  0  0  0  0  0  0  0
   38.2620   22.5830   36.0540 C   0  0  0  0  0  3  0  0  0  0  0  0
   39.6160   22.2290   36.6510 C   0  0  0  0  0  2  0  0  0  0  0  0
   39.7290   23.1490   37.8230 C   0  0  0  0  0  2  0  0  0  0  0  0
   38.3080   23.1210   38.3960 C   0  0  0  0  0  2  0  0  0  0  0  0
   37.5230   23.3320   37.0960 C   0  0  0  0  0  2  0  0  0  0  0  0
  1  6  1  0  0  0  0
  1 23  1  0  0  0  0
  2  1  2  0  0  0  0
  3  4  2  0  0  0  0
  3  2  1  0  0  0  0
  4  5  1  0  0  0  0
  5  9  1  0  0  0  0
  5  6  2  0  0  0  0
  6 10  1  0  0  0  0
  7  3  1  0  0  0  0
  8  4  1  0  0  0  0
 11 12  2  0  0  0  0
 11 16  1  0  0  0  0
 12 13  1  0  0  0  0
 13  2  1  0  0  0  0
 13 14  2  0  0  0  0
 15 14  1  0  0  0  0
 15 19  1  0  0  0  0
 16 15  2  0  0  0  0
 17 11  1  0  0  0  0
 18 12  1  0  0  0  0
 19 22  1  0  0  0  0
 20 19  1  0  0  0  0
 21 19  1  0  0  0  0
 23 26  1  0  0  0  0
 23 24  2  0  0  0  0
 25 23  2  0  0  0  0
 26 29  1  0  0  0  0
 27 26  1  0  0  0  0
 28 26  1  0  0  0  0
 29 30  1  0  0  0  0
 29 33  1  0  0  0  0
 30 31  1  0  0  0  0
 31 32  1  0  0  0  0
 33 32  1  0  0  0  0
M  END
>  <minimizedAffinity>
-5.74853897

$$$$

 OpenBabel03272510053D

 33 35  0  0  0  0  0  0  0  0999 V2000
   39.6230   25.8400   32.9550 C   0  0  0  0  0  0  0  0  0  0  0  0
   40.3980   25.5180   34.0310 C   0  0  0  0  0  0  0  0  0  0  0  0
   41.5530   26.2480   34.2880 C   0  0  0  0  0  0  0  0  0  0  0  0
   41.9660   27.3000   33.4930 C   0  0  0  0  0  0  0  0  0  0  0  0
   41.1980   27.6460   32.3940 C   0  0  0  0  0  0  0  0  0  0  0  0
   40.0690   26.9100   32.1720 C   0  0  0  0  0  0  0  0  0  0  0  0
   42.1610   25.9730   35.1580 H   0  0  0  0  0  0  0  0  0  0  0  0
   42.8800   27.8070   33.7750 H   0  0  0  0  0  0  0  0  0  0  0  0
   41.5500   28.4730   31.7940 H   0  0  0  0  0  0  0  0  0  0  0  0
   39.5500   27.2740   31.2780 H   0  0  0  0  0  0  0  0  0  0  0  0
   40.2030   22.1020   35.3740 C   0  0  0  0  0  0  0  0  0  0  0  0
   40.5130   23.1920   34.5670 C   0  0  0  0  0  0  0  0  0  0  0  0
   40.0710   24.4320   34.8880 C   0  0  0  0  0  0  0  0  0  0  0  0
   39.3260   24.5450   36.0270 N   0  0  0  0  0  0  0  0  0  0  0  0
   39.0270   23.5080   36.8080 C   0  0  0  0  0  0  0  0  0  0  0  0
   39.4670   22.2900   36.4740 N   0  0  0  0  0  0  0  0  0  0  0  0
   40.4670   21.0660   35.2630 H   0  0  0  0  0  0  0  0  0  0  0  0
   41.1230   22.7750   33.8030 H   0  0  0  0  0  0  0  0  0  0  0  0
   38.2690   23.7960   38.0540 C   0  0  0  0  0  0  0  0  0  0  0  0
   37.2660   22.8630   38.2760 F   0  0  0  0  0  0  0  0  0  0  0  0
   39.1520   23.5900   39.1820 F   0  0  0  0  0  0  0  0  0  0  0  0
   37.8330   25.0220   38.2210 F   0  0  0  0  0  0  0  0  0  0  0  0
   38.1540   25.0330   32.5590 S   0  0  0  0  0  0  0  0  0  0  0  0
   37.5410   25.6220   31.3390 O   0  0  0  0  0  0  0  0  0  0  0  0
   37.2330   25.7190   33.5300 O   0  0  0  0  0  0  0  0  0  0  0  0
   37.5380   23.5770   33.1390 C   0  0  0  0  0  0  0  0  0  0  0  0
   36.6490   23.8490   33.8020 H   0  0  0  0  0  0  0  0  0  0  0  0
   38.2730   23.2510   33.9070 H   0  0  0  0  0  0  0  0  0  0  0  0
   37.0700   22.4150   32.3910 C   0  0  0  0  0  3  0  0  0  0  0  0
   37.1440   21.2000   33.3030 C   0  0  0  0  0  2  0  0  0  0  0  0
   35.7100   20.8740   33.5640 C   0  0  0  0  0  2  0  0  0  0  0  0
   35.0720   21.0940   32.1890 C   0  0  0  0  0  2  0  0  0  0  0  0
   35.6900   22.4570   31.8550 C   0  0  0  0  0  2  0  0  0  0  0  0
  1  2  1  0  0  0  0
  2  3  2  0  0  0  0
  2 13  1  0  0  0  0
  3  7  1  0  0  0  0
  4  8  1  0  0  0  0
  4  3  1  0  0  0  0
  5  4  2  0  0  0  0
  6  5  1  0  0  0  0
  6  1  2  0  0  0  0
  9  5  1  0  0  0  0
 10  6  1  0  0  0  0
 11 16  1  0  0  0  0
 12 13  1  0  0  0  0
 12 11  2  0  0  0  0
 13 14  2  0  0  0  0
 14 15  1  0  0  0  0
 15 19  1  0  0  0  0
 16 15  2  0  0  0  0
 17 11  1  0  0  0  0
 18 12  1  0  0  0  0
 19 22  1  0  0  0  0
 19 20  1  0  0  0  0
 19 21  1  0  0  0  0
 23  1  1  0  0  0  0
 23 26  1  0  0  0  0
 23 25  2  0  0  0  0
 24 23  2  0  0  0  0
 26 27  1  0  0  0  0
 26 28  1  0  0  0  0
 29 26  1  0  0  0  0
 29 30  1  0  0  0  0
 30 31  1  0  0  0  0
 32 31  1  0  0  0  0
 33 32  1  0  0  0  0
 33 29  1  0  0  0  0
M  END
>  <minimizedAffinity>
-5.73857164

$$$$

 OpenBabel03272510053D

 33 35  0  0  0  0  0  0  0  0999 V2000
   36.8500   21.6900   33.2170 C   0  0  0  0  0  0  0  0  0  0  0  0
   36.4880   22.1700   31.9920 C   0  0  0  0  0  0  0  0  0  0  0  0
   35.4690   21.5430   31.2830 C   0  0  0  0  0  0  0  0  0  0  0  0
   34.7940   20.4370   31.7620 C   0  0  0  0  0  0  0  0  0  0  0  0
   35.1440   19.9290   33.0030 C   0  0  0  0  0  0  0  0  0  0  0  0
   36.1480   20.5700   33.6730 C   0  0  0  0  0  0  0  0  0  0  0  0
   35.1930   21.9460   30.3010 H   0  0  0  0  0  0  0  0  0  0  0  0
   34.0170   20.0190   31.1370 H   0  0  0  0  0  0  0  0  0  0  0  0
   34.5970   19.0630   33.3480 H   0  0  0  0  0  0  0  0  0  0  0  0
   36.3350   20.0770   34.6340 H   0  0  0  0  0  0  0  0  0  0  0  0
   38.9090   24.1290   30.0410 C   0  0  0  0  0  0  0  0  0  0  0  0
   38.2320   23.0640   30.6250 C   0  0  0  0  0  0  0  0  0  0  0  0
   37.1450   23.2850   31.4020 C   0  0  0  0  0  0  0  0  0  0  0  0
   36.7600   24.5840   31.5700 N   0  0  0  0  0  0  0  0  0  0  0  0
   37.4000   25.6110   31.0120 C   0  0  0  0  0  0  0  0  0  0  0  0
   38.4740   25.3760   30.2510 N   0  0  0  0  0  0  0  0  0  0  0  0
   39.7780   24.1300   29.4090 H   0  0  0  0  0  0  0  0  0  0  0  0
   38.7540   22.2080   30.2710 H   0  0  0  0  0  0  0  0  0  0  0  0
   36.8220   26.9640   31.2240 C   0  0  0  0  0  0  0  0  0  0  0  0
   35.6140   26.9100   31.9040 F   0  0  0  0  0  0  0  0  0  0  0  0
   37.6750   27.6850   32.1450 F   0  0  0  0  0  0  0  0  0  0  0  0
   36.7530   27.7570   30.1800 F   0  0  0  0  0  0  0  0  0  0  0  0
   38.0690   22.4050   34.2010 S   0  0  0  0  0  0  0  0  0  0  0  0
   39.3610   21.6850   34.0460 O   0  0  0  0  0  0  0  0  0  0  0  0
   37.7110   21.7770   35.5200 O   0  0  0  0  0  0  0  0  0  0  0  0
   38.0710   23.8850   35.0050 C   0  0  0  0  0  0  0  0  0  0  0  0
   38.7720   23.7610   35.8980 H   0  0  0  0  0  0  0  0  0  0  0  0
   37.0870   23.9210   35.5220 H   0  0  0  0  0  0  0  0  0  0  0  0
   38.3970   25.2100   34.4880 C   0  0  0  0  0  3  0  0  0  0  0  0
   37.4780   26.2210   35.1580 C   0  0  0  0  0  2  0  0  0  0  0  0
   38.3970   26.9880   36.0500 C   0  0  0  0  0  2  0  0  0  0  0  0
   39.6430   27.1480   35.1720 C   0  0  0  0  0  2  0  0  0  0  0  0
   39.7810   25.7000   34.6870 C   0  0  0  0  0  2  0  0  0  0  0  0
  1  6  1  0  0  0  0
  1 23  1  0  0  0  0
  2  1  2  0  0  0  0
  3  4  2  0  0  0  0
  3  2  1  0  0  0  0
  4  5  1  0  0  0  0
  5  9  1  0  0  0  0
  5  6  2  0  0  0  0
  6 10  1  0  0  0  0
  7  3  1  0  0  0  0
  8  4  1  0  0  0  0
 11 16  2  0  0  0  0
 11 12  1  0  0  0  0
 12 13  2  0  0  0  0
 13 14  1  0  0  0  0
 13  2  1  0  0  0  0
 15 19  1  0  0  0  0
 15 14  2  0  0  0  0
 16 15  1  0  0  0  0
 17 11  1  0  0  0  0
 18 12  1  0  0  0  0
 19 20  1  0  0  0  0
 19 21  1  0  0  0  0
 22 19  1  0  0  0  0
 23 26  1  0  0  0  0
 23 25  2  0  0  0  0
 24 23  2  0  0  0  0
 26 28  1  0  0  0  0
 26 27  1  0  0  0  0
 29 33  1  0  0  0  0
 29 26  1  0  0  0  0
 29 30  1  0  0  0  0
 30 31  1  0  0  0  0
 32 31  1  0  0  0  0
 33 32  1  0  0  0  0
M  END
>  <minimizedAffinity>
-5.6316905

$$$$
