
 OpenBabel03272506313D

 30 32  0  0  1  0  0  0  0  0999 V2000
   35.7510   29.7540   33.6690 C   0  0  1  0  0  0  0  0  0  0  0  0
   35.8080   30.5320   32.4200 C   0  0  0  0  0  0  0  0  0  0  0  0
   34.6140   30.4520   31.5100 C   0  0  0  0  0  0  0  0  0  0  0  0
   33.3050   30.4150   32.2070 C   0  0  0  0  0  0  0  0  0  0  0  0
   33.2320   29.5750   33.4250 C   0  0  0  0  0  0  0  0  0  0  0  0
   34.4180   29.8040   34.3280 C   0  0  2  0  0  0  0  0  0  0  0  0
   36.4570   30.2520   34.4080 H   0  0  0  0  0  0  0  0  0  0  0  0
   35.7880   31.6230   32.7520 H   0  0  0  0  0  0  0  0  0  0  0  0
   36.6990   30.4690   31.8210 H   0  0  0  0  0  0  0  0  0  0  0  0
   34.6810   29.5550   30.8580 H   0  0  0  0  0  0  0  0  0  0  0  0
   34.6320   31.3320   30.8340 H   0  0  0  0  0  0  0  0  0  0  0  0
   33.0420   31.4660   32.5010 H   0  0  0  0  0  0  0  0  0  0  0  0
   32.5260   30.0850   31.4930 H   0  0  0  0  0  0  0  0  0  0  0  0
   33.2490   28.5040   33.1310 H   0  0  0  0  0  0  0  0  0  0  0  0
   32.3230   29.7550   33.9810 H   0  0  0  0  0  0  0  0  0  0  0  0
   34.2770   29.1060   35.1650 H   0  0  0  0  0  0  0  0  0  0  0  0
   36.4460   27.6630   32.3650 C   0  0  0  0  0  0  0  0  0  0  0  0
   36.3200   28.3840   33.5780 C   0  0  0  0  0  0  0  0  0  0  0  0
   36.7610   27.7510   34.7250 C   0  0  0  0  0  0  0  0  0  0  0  0
   37.2840   26.5000   34.6500 N   0  0  0  0  0  0  0  0  0  0  0  0
   37.3850   25.8460   33.4630 C   0  0  0  0  0  0  0  0  0  0  0  0
   36.9610   26.4410   32.3190 N   0  0  0  0  0  0  0  0  0  0  0  0
   36.1190   28.1040   31.4370 H   0  0  0  0  0  0  0  0  0  0  0  0
   36.7600   28.1210   35.7340 H   0  0  0  0  0  0  0  0  0  0  0  0
   37.7940   24.8490   33.3600 H   0  0  0  0  0  0  0  0  0  0  0  0
   34.2940   31.1850   35.0130 C   0  0  0  0  0  3  0  0  0  0  0  0
   35.4590   31.3840   35.9510 C   0  0  0  0  0  2  0  0  0  0  0  0
   34.9350   32.3640   37.0080 C   0  0  0  0  0  2  0  0  0  0  0  0
   33.5360   31.8670   37.2160 C   0  0  0  0  0  2  0  0  0  0  0  0
   33.1080   31.2300   35.9140 C   0  0  0  0  0  2  0  0  0  0  0  0
  1  6  1  0  0  0  0
  1  7  1  1  0  0  0
  2  8  1  0  0  0  0
  2  1  1  0  0  0  0
  3  4  1  0  0  0  0
  3  2  1  0  0  0  0
  4 12  1  0  0  0  0
  4  5  1  0  0  0  0
  5 15  1  0  0  0  0
  5  6  1  0  0  0  0
  6 26  1  0  0  0  0
  6 16  1  1  0  0  0
  9  2  1  0  0  0  0
 10  3  1  0  0  0  0
 11  3  1  0  0  0  0
 13  4  1  0  0  0  0
 14  5  1  0  0  0  0
 17 18  1  0  0  0  0
 18  1  1  0  0  0  0
 18 19  2  0  0  0  0
 19 24  1  0  0  0  0
 20 19  1  0  0  0  0
 21 20  2  0  0  0  0
 22 17  2  0  0  0  0
 22 21  1  0  0  0  0
 23 17  1  0  0  0  0
 25 21  1  0  0  0  0
 26 30  1  0  0  0  0
 26 27  1  0  0  0  0
 27 28  1  0  0  0  0
 28 29  1  0  0  0  0
 30 29  1  0  0  0  0
M  END
>  <minimizedAffinity>
-4.84474373

$$$$

 OpenBabel03272506313D

 30 32  0  0  1  0  0  0  0  0999 V2000
   38.2260   26.3190   34.8330 C   0  0  1  0  0  0  0  0  0  0  0  0
   39.4800   26.9580   35.2660 C   0  0  0  0  0  0  0  0  0  0  0  0
   40.6330   26.9220   34.3020 C   0  0  0  0  0  0  0  0  0  0  0  0
   40.2560   27.1020   32.8780 C   0  0  0  0  0  0  0  0  0  0  0  0
   39.0310   26.4010   32.4280 C   0  0  0  0  0  0  0  0  0  0  0  0
   37.8980   26.5850   33.4060 C   0  0  2  0  0  0  0  0  0  0  0  0
   37.3820   26.8070   35.4180 H   0  0  0  0  0  0  0  0  0  0  0  0
   39.2420   28.0710   35.3170 H   0  0  0  0  0  0  0  0  0  0  0  0
   39.8510   26.7350   36.2510 H   0  0  0  0  0  0  0  0  0  0  0  0
   41.1860   25.9610   34.3910 H   0  0  0  0  0  0  0  0  0  0  0  0
   41.3480   27.7220   34.5840 H   0  0  0  0  0  0  0  0  0  0  0  0
   40.1080   28.1990   32.6980 H   0  0  0  0  0  0  0  0  0  0  0  0
   41.1050   26.7910   32.2390 H   0  0  0  0  0  0  0  0  0  0  0  0
   39.2360   25.3110   32.3680 H   0  0  0  0  0  0  0  0  0  0  0  0
   38.7140   26.7370   31.4510 H   0  0  0  0  0  0  0  0  0  0  0  0
   37.0680   25.9950   32.9930 H   0  0  0  0  0  0  0  0  0  0  0  0
   38.1880   23.8140   34.3090 C   0  0  0  0  0  0  0  0  0  0  0  0
   38.0840   24.8920   35.2210 C   0  0  0  0  0  0  0  0  0  0  0  0
   37.8380   24.5660   36.5420 C   0  0  0  0  0  0  0  0  0  0  0  0
   37.7100   23.2640   36.9060 N   0  0  0  0  0  0  0  0  0  0  0  0
   37.8170   22.2620   35.9940 C   0  0  0  0  0  0  0  0  0  0  0  0
   38.0580   22.5490   34.6900 N   0  0  0  0  0  0  0  0  0  0  0  0
   38.3780   24.0050   33.2650 H   0  0  0  0  0  0  0  0  0  0  0  0
   37.7320   25.2250   37.3840 H   0  0  0  0  0  0  0  0  0  0  0  0
   37.7210   21.2120   36.2420 H   0  0  0  0  0  0  0  0  0  0  0  0
   37.3610   28.0320   33.3180 C   0  0  0  0  0  3  0  0  0  0  0  0
   36.2840   28.2300   34.3540 C   0  0  0  0  0  2  0  0  0  0  0  0
   35.4040   29.3490   33.7840 C   0  0  0  0  0  2  0  0  0  0  0  0
   35.3610   28.9890   32.3290 C   0  0  0  0  0  2  0  0  0  0  0  0
   36.6510   28.2610   32.0280 C   0  0  0  0  0  2  0  0  0  0  0  0
  1 18  1  0  0  0  0
  1  2  1  0  0  0  0
  1  7  1  1  0  0  0
  2  8  1  0  0  0  0
  2  9  1  0  0  0  0
  3 10  1  0  0  0  0
  3 11  1  0  0  0  0
  3  2  1  0  0  0  0
  4  3  1  0  0  0  0
  5  4  1  0  0  0  0
  5  6  1  0  0  0  0
  6 16  1  6  0  0  0
  6  1  1  0  0  0  0
 12  4  1  0  0  0  0
 13  4  1  0  0  0  0
 14  5  1  0  0  0  0
 15  5  1  0  0  0  0
 17 22  2  0  0  0  0
 17 18  1  0  0  0  0
 18 19  2  0  0  0  0
 19 20  1  0  0  0  0
 19 24  1  0  0  0  0
 21 25  1  0  0  0  0
 21 20  2  0  0  0  0
 22 21  1  0  0  0  0
 23 17  1  0  0  0  0
 26  6  1  0  0  0  0
 26 27  1  0  0  0  0
 28 27  1  0  0  0  0
 29 28  1  0  0  0  0
 30 29  1  0  0  0  0
 30 26  1  0  0  0  0
M  END
>  <minimizedAffinity>
-4.81707811

$$$$

 OpenBabel03272506313D

 30 32  0  0  1  0  0  0  0  0999 V2000
   38.8690   24.5180   34.1170 C   0  0  1  0  0  0  0  0  0  0  0  0
   39.3170   25.9210   34.1120 C   0  0  0  0  0  0  0  0  0  0  0  0
   38.6540   26.8540   35.0860 C   0  0  0  0  0  0  0  0  0  0  0  0
   38.3610   26.2580   36.4130 C   0  0  0  0  0  0  0  0  0  0  0  0
   37.8440   24.8700   36.4110 C   0  0  0  0  0  0  0  0  0  0  0  0
   38.6400   23.9840   35.4870 C   0  0  2  0  0  0  0  0  0  0  0  0
   39.7220   23.8920   33.7020 H   0  0  0  0  0  0  0  0  0  0  0  0
   40.3890   25.8890   34.4970 H   0  0  0  0  0  0  0  0  0  0  0  0
   39.4060   26.4240   33.1640 H   0  0  0  0  0  0  0  0  0  0  0  0
   37.7000   27.2430   34.6670 H   0  0  0  0  0  0  0  0  0  0  0  0
   39.3140   27.7340   35.2300 H   0  0  0  0  0  0  0  0  0  0  0  0
   39.3110   26.2680   37.0110 H   0  0  0  0  0  0  0  0  0  0  0  0
   37.6450   26.9100   36.9500 H   0  0  0  0  0  0  0  0  0  0  0  0
   36.7970   24.8710   36.0400 H   0  0  0  0  0  0  0  0  0  0  0  0
   37.8470   24.4410   37.4030 H   0  0  0  0  0  0  0  0  0  0  0  0
   38.1450   23.0040   35.5360 H   0  0  0  0  0  0  0  0  0  0  0  0
   37.0380   25.1970   32.4610 C   0  0  0  0  0  0  0  0  0  0  0  0
   37.7690   24.2100   33.1650 C   0  0  0  0  0  0  0  0  0  0  0  0
   37.4190   22.8930   32.9330 C   0  0  0  0  0  0  0  0  0  0  0  0
   36.4170   22.6020   32.0630 N   0  0  0  0  0  0  0  0  0  0  0  0
   35.7420   23.5840   31.4090 C   0  0  0  0  0  0  0  0  0  0  0  0
   36.0630   24.8870   31.6160 N   0  0  0  0  0  0  0  0  0  0  0  0
   37.2650   26.2420   32.6010 H   0  0  0  0  0  0  0  0  0  0  0  0
   37.8470   22.0030   33.3560 H   0  0  0  0  0  0  0  0  0  0  0  0
   34.9380   23.3950   30.7090 H   0  0  0  0  0  0  0  0  0  0  0  0
   40.0270   23.6950   36.1050 C   0  0  0  0  0  3  0  0  0  0  0  0
   40.7670   22.7090   35.2360 C   0  0  0  0  0  2  0  0  0  0  0  0
   41.7380   22.0070   36.1940 C   0  0  0  0  0  2  0  0  0  0  0  0
   40.8900   21.8450   37.4190 C   0  0  0  0  0  2  0  0  0  0  0  0
   39.8930   22.9800   37.4070 C   0  0  0  0  0  2  0  0  0  0  0  0
  1  7  1  6  0  0  0
  1  6  1  0  0  0  0
  2  1  1  0  0  0  0
  2  8  1  0  0  0  0
  2  3  1  0  0  0  0
  3 11  1  0  0  0  0
  3  4  1  0  0  0  0
  4 13  1  0  0  0  0
  4 12  1  0  0  0  0
  5  4  1  0  0  0  0
  5 15  1  0  0  0  0
  6 16  1  6  0  0  0
  6 26  1  0  0  0  0
  6  5  1  0  0  0  0
  9  2  1  0  0  0  0
 10  3  1  0  0  0  0
 14  5  1  0  0  0  0
 17 23  1  0  0  0  0
 17 18  1  0  0  0  0
 18  1  1  0  0  0  0
 19 18  2  0  0  0  0
 19 24  1  0  0  0  0
 20 19  1  0  0  0  0
 21 22  1  0  0  0  0
 21 20  2  0  0  0  0
 22 17  2  0  0  0  0
 25 21  1  0  0  0  0
 26 30  1  0  0  0  0
 27 26  1  0  0  0  0
 27 28  1  0  0  0  0
 28 29  1  0  0  0  0
 30 29  1  0  0  0  0
M  END
>  <minimizedAffinity>
-4.73181581

$$$$

 OpenBabel03272506313D

 30 32  0  0  1  0  0  0  0  0999 V2000
   37.9950   26.5280   32.7570 C   0  0  1  0  0  0  0  0  0  0  0  0
   37.1940   27.7070   33.1290 C   0  0  0  0  0  0  0  0  0  0  0  0
   36.8020   27.8380   34.5740 C   0  0  0  0  0  0  0  0  0  0  0  0
   37.8450   27.4150   35.5400 C   0  0  0  0  0  0  0  0  0  0  0  0
   38.6020   26.1880   35.1970 C   0  0  0  0  0  0  0  0  0  0  0  0
   39.0470   26.1980   33.7560 C   0  0  2  0  0  0  0  0  0  0  0  0
   38.5680   26.7960   31.8120 H   0  0  0  0  0  0  0  0  0  0  0  0
   37.8940   28.5950   32.9850 H   0  0  0  0  0  0  0  0  0  0  0  0
   36.3440   27.9570   32.5190 H   0  0  0  0  0  0  0  0  0  0  0  0
   35.8820   27.2490   34.7830 H   0  0  0  0  0  0  0  0  0  0  0  0
   36.5450   28.8990   34.7690 H   0  0  0  0  0  0  0  0  0  0  0  0
   38.5830   28.2550   35.6380 H   0  0  0  0  0  0  0  0  0  0  0  0
   37.3820   27.2860   36.5370 H   0  0  0  0  0  0  0  0  0  0  0  0
   37.9430   25.3050   35.3280 H   0  0  0  0  0  0  0  0  0  0  0  0
   39.4660   26.0600   35.8340 H   0  0  0  0  0  0  0  0  0  0  0  0
   39.5540   25.2340   33.6090 H   0  0  0  0  0  0  0  0  0  0  0  0
   37.5810   24.0080   32.5650 C   0  0  0  0  0  0  0  0  0  0  0  0
   37.2040   25.3500   32.3120 C   0  0  0  0  0  0  0  0  0  0  0  0
   36.0280   25.5430   31.6120 C   0  0  0  0  0  0  0  0  0  0  0  0
   35.2980   24.4730   31.2040 N   0  0  0  0  0  0  0  0  0  0  0  0
   35.7000   23.2020   31.4700 C   0  0  0  0  0  0  0  0  0  0  0  0
   36.8510   22.9790   32.1550 N   0  0  0  0  0  0  0  0  0  0  0  0
   38.4890   23.7940   33.1060 H   0  0  0  0  0  0  0  0  0  0  0  0
   35.5660   26.4700   31.3250 H   0  0  0  0  0  0  0  0  0  0  0  0
   35.1490   22.3220   31.1630 H   0  0  0  0  0  0  0  0  0  0  0  0
   40.1950   27.2160   33.5700 C   0  0  0  0  0  3  0  0  0  0  0  0
   40.6920   27.1550   32.1470 C   0  0  0  0  0  2  0  0  0  0  0  0
   42.1470   27.6330   32.2290 C   0  0  0  0  0  2  0  0  0  0  0  0
   42.6100   26.9800   33.4960 C   0  0  0  0  0  2  0  0  0  0  0  0
   41.3890   26.8290   34.3740 C   0  0  0  0  0  2  0  0  0  0  0  0
  1  7  1  6  0  0  0
  1  2  1  0  0  0  0
  1  6  1  0  0  0  0
  2  3  1  0  0  0  0
  3 11  1  0  0  0  0
  3 10  1  0  0  0  0
  3  4  1  0  0  0  0
  4 12  1  0  0  0  0
  4 13  1  0  0  0  0
  5 14  1  0  0  0  0
  5  4  1  0  0  0  0
  5 15  1  0  0  0  0
  6 16  1  6  0  0  0
  6  5  1  0  0  0  0
  8  2  1  0  0  0  0
  9  2  1  0  0  0  0
 17 23  1  0  0  0  0
 18 17  1  0  0  0  0
 18  1  1  0  0  0  0
 19 18  2  0  0  0  0
 20 21  2  0  0  0  0
 20 19  1  0  0  0  0
 21 22  1  0  0  0  0
 22 17  2  0  0  0  0
 24 19  1  0  0  0  0
 25 21  1  0  0  0  0
 26  6  1  0  0  0  0
 26 30  1  0  0  0  0
 27 28  1  0  0  0  0
 27 26  1  0  0  0  0
 28 29  1  0  0  0  0
 29 30  1  0  0  0  0
M  END
>  <minimizedAffinity>
-4.72720671

$$$$

 OpenBabel03272506313D

 30 32  0  0  1  0  0  0  0  0999 V2000
   39.5990   25.8670   34.0820 C   0  0  1  0  0  0  0  0  0  0  0  0
   39.1110   24.5730   34.5870 C   0  0  0  0  0  0  0  0  0  0  0  0
   38.7220   24.5080   36.0380 C   0  0  0  0  0  0  0  0  0  0  0  0
   38.0360   25.7190   36.5500 C   0  0  0  0  0  0  0  0  0  0  0  0
   38.5730   27.0230   36.0950 C   0  0  0  0  0  0  0  0  0  0  0  0
   38.8290   27.0270   34.6090 C   0  0  2  0  0  0  0  0  0  0  0  0
   39.4110   25.8830   32.9610 H   0  0  0  0  0  0  0  0  0  0  0  0
   38.1130   24.4090   34.0610 H   0  0  0  0  0  0  0  0  0  0  0  0
   39.6720   23.6880   34.3440 H   0  0  0  0  0  0  0  0  0  0  0  0
   39.6160   24.3270   36.6730 H   0  0  0  0  0  0  0  0  0  0  0  0
   38.0550   23.6340   36.1810 H   0  0  0  0  0  0  0  0  0  0  0  0
   36.9600   25.6640   36.2340 H   0  0  0  0  0  0  0  0  0  0  0  0
   38.0390   25.6940   37.6570 H   0  0  0  0  0  0  0  0  0  0  0  0
   39.5480   27.2090   36.5940 H   0  0  0  0  0  0  0  0  0  0  0  0
   37.9080   27.8380   36.3420 H   0  0  0  0  0  0  0  0  0  0  0  0
   39.2590   28.0160   34.3980 H   0  0  0  0  0  0  0  0  0  0  0  0
   41.7540   27.1650   33.6040 C   0  0  0  0  0  0  0  0  0  0  0  0
   41.0720   26.0500   34.1500 C   0  0  0  0  0  0  0  0  0  0  0  0
   41.8500   25.0930   34.7770 C   0  0  0  0  0  0  0  0  0  0  0  0
   43.1960   25.2530   34.8450 N   0  0  0  0  0  0  0  0  0  0  0  0
   43.8070   26.3420   34.3060 C   0  0  0  0  0  0  0  0  0  0  0  0
   43.0710   27.2980   33.6840 N   0  0  0  0  0  0  0  0  0  0  0  0
   41.2010   27.9440   33.1030 H   0  0  0  0  0  0  0  0  0  0  0  0
   41.5340   24.1850   35.2560 H   0  0  0  0  0  0  0  0  0  0  0  0
   44.8760   26.5070   34.3380 H   0  0  0  0  0  0  0  0  0  0  0  0
   37.4850   27.0720   33.8470 C   0  0  0  0  0  3  0  0  0  0  0  0
   37.7240   27.5540   32.4380 C   0  0  0  0  0  2  0  0  0  0  0  0
   36.3910   28.1840   32.0170 C   0  0  0  0  0  2  0  0  0  0  0  0
   35.9770   28.8860   33.2750 C   0  0  0  0  0  2  0  0  0  0  0  0
   36.5790   28.1070   34.4210 C   0  0  0  0  0  2  0  0  0  0  0  0
  1  7  1  6  0  0  0
  1 18  1  0  0  0  0
  1  2  1  0  0  0  0
  1  6  1  0  0  0  0
  2  3  1  0  0  0  0
  3 11  1  0  0  0  0
  3  4  1  0  0  0  0
  3 10  1  0  0  0  0
  4 13  1  0  0  0  0
  5 15  1  0  0  0  0
  5  4  1  0  0  0  0
  5 14  1  0  0  0  0
  6 16  1  6  0  0  0
  6  5  1  0  0  0  0
  8  2  1  0  0  0  0
  9  2  1  0  0  0  0
 12  4  1  0  0  0  0
 17 22  2  0  0  0  0
 17 18  1  0  0  0  0
 18 19  2  0  0  0  0
 19 20  1  0  0  0  0
 19 24  1  0  0  0  0
 21 25  1  0  0  0  0
 21 20  2  0  0  0  0
 22 21  1  0  0  0  0
 23 17  1  0  0  0  0
 26 30  1  0  0  0  0
 26  6  1  0  0  0  0
 27 26  1  0  0  0  0
 28 27  1  0  0  0  0
 28 29  1  0  0  0  0
 29 30  1  0  0  0  0
M  END
>  <minimizedAffinity>
-4.62932444

$$$$

 OpenBabel03272506313D

 30 32  0  0  1  0  0  0  0  0999 V2000
   38.3320   26.1760   34.3410 C   0  0  1  0  0  0  0  0  0  0  0  0
   39.3360   26.9490   35.0920 C   0  0  0  0  0  0  0  0  0  0  0  0
   40.7400   26.9520   34.5540 C   0  0  0  0  0  0  0  0  0  0  0  0
   40.8350   27.0050   33.0750 C   0  0  0  0  0  0  0  0  0  0  0  0
   39.8690   26.1720   32.3220 C   0  0  0  0  0  0  0  0  0  0  0  0
   38.4710   26.3190   32.8660 C   0  0  2  0  0  0  0  0  0  0  0  0
   37.3150   26.6250   34.5790 H   0  0  0  0  0  0  0  0  0  0  0  0
   39.0240   28.0380   34.9640 H   0  0  0  0  0  0  0  0  0  0  0  0
   39.3790   26.8240   36.1600 H   0  0  0  0  0  0  0  0  0  0  0  0
   41.2920   26.0520   34.9010 H   0  0  0  0  0  0  0  0  0  0  0  0
   41.2720   27.8280   34.9770 H   0  0  0  0  0  0  0  0  0  0  0  0
   40.6860   28.0720   32.7590 H   0  0  0  0  0  0  0  0  0  0  0  0
   41.8640   26.7290   32.7710 H   0  0  0  0  0  0  0  0  0  0  0  0
   40.1500   25.1020   32.4280 H   0  0  0  0  0  0  0  0  0  0  0  0
   39.8670   26.4140   31.2690 H   0  0  0  0  0  0  0  0  0  0  0  0
   37.8590   25.6320   32.2640 H   0  0  0  0  0  0  0  0  0  0  0  0
   38.0340   23.6710   33.9060 C   0  0  0  0  0  0  0  0  0  0  0  0
   38.1610   24.7700   34.7900 C   0  0  0  0  0  0  0  0  0  0  0  0
   38.1220   24.4870   36.1430 C   0  0  0  0  0  0  0  0  0  0  0  0
   37.9680   23.2040   36.5630 N   0  0  0  0  0  0  0  0  0  0  0  0
   37.8500   22.1810   35.6760 C   0  0  0  0  0  0  0  0  0  0  0  0
   37.8840   22.4260   34.3420 N   0  0  0  0  0  0  0  0  0  0  0  0
   38.0560   23.8290   32.8400 H   0  0  0  0  0  0  0  0  0  0  0  0
   38.2060   25.1670   36.9700 H   0  0  0  0  0  0  0  0  0  0  0  0
   37.7250   21.1460   35.9680 H   0  0  0  0  0  0  0  0  0  0  0  0
   37.9030   27.7040   32.4810 C   0  0  0  0  0  3  0  0  0  0  0  0
   36.4540   27.7830   32.8940 C   0  0  0  0  0  2  0  0  0  0  0  0
   35.8390   28.8120   31.9370 C   0  0  0  0  0  2  0  0  0  0  0  0
   36.5100   28.4600   30.6430 C   0  0  0  0  0  2  0  0  0  0  0  0
   37.8540   27.8700   31.0010 C   0  0  0  0  0  2  0  0  0  0  0  0
  1  7  1  1  0  0  0
  1 18  1  0  0  0  0
  1  2  1  0  0  0  0
  2  9  1  0  0  0  0
  3 10  1  0  0  0  0
  3 11  1  0  0  0  0
  3  2  1  0  0  0  0
  4  3  1  0  0  0  0
  5 14  1  0  0  0  0
  5  6  1  0  0  0  0
  5  4  1  0  0  0  0
  6 16  1  6  0  0  0
  6  1  1  0  0  0  0
  8  2  1  0  0  0  0
 12  4  1  0  0  0  0
 13  4  1  0  0  0  0
 15  5  1  0  0  0  0
 17 22  2  0  0  0  0
 17 18  1  0  0  0  0
 18 19  2  0  0  0  0
 19 20  1  0  0  0  0
 19 24  1  0  0  0  0
 21 25  1  0  0  0  0
 21 20  2  0  0  0  0
 22 21  1  0  0  0  0
 23 17  1  0  0  0  0
 26  6  1  0  0  0  0
 26 27  1  0  0  0  0
 28 27  1  0  0  0  0
 29 30  1  0  0  0  0
 29 28  1  0  0  0  0
 30 26  1  0  0  0  0
M  END
>  <minimizedAffinity>
-4.62436533

$$$$

 OpenBabel03272506313D

 30 32  0  0  1  0  0  0  0  0999 V2000
   37.1160   22.2570   31.9560 C   0  0  1  0  0  0  0  0  0  0  0  0
   37.4130   21.8070   33.3270 C   0  0  0  0  0  0  0  0  0  0  0  0
   36.2940   21.1510   34.0880 C   0  0  0  0  0  0  0  0  0  0  0  0
   35.4280   20.2640   33.2740 C   0  0  0  0  0  0  0  0  0  0  0  0
   35.0730   20.7520   31.9210 C   0  0  0  0  0  0  0  0  0  0  0  0
   36.2790   21.2910   31.1930 C   0  0  2  0  0  0  0  0  0  0  0  0
   38.1020   22.2910   31.3930 H   0  0  0  0  0  0  0  0  0  0  0  0
   38.1550   20.9510   33.2010 H   0  0  0  0  0  0  0  0  0  0  0  0
   37.9220   22.4870   33.9860 H   0  0  0  0  0  0  0  0  0  0  0  0
   35.6470   21.9170   34.5670 H   0  0  0  0  0  0  0  0  0  0  0  0
   36.7370   20.5560   34.9130 H   0  0  0  0  0  0  0  0  0  0  0  0
   35.9560   19.2810   33.1550 H   0  0  0  0  0  0  0  0  0  0  0  0
   34.4980   20.0540   33.8370 H   0  0  0  0  0  0  0  0  0  0  0  0
   34.3480   21.5870   32.0130 H   0  0  0  0  0  0  0  0  0  0  0  0
   34.6160   19.9760   31.3230 H   0  0  0  0  0  0  0  0  0  0  0  0
   35.8910   21.6560   30.2330 H   0  0  0  0  0  0  0  0  0  0  0  0
   35.6020   24.0830   30.9930 C   0  0  0  0  0  0  0  0  0  0  0  0
   36.6510   23.6640   31.8470 C   0  0  0  0  0  0  0  0  0  0  0  0
   37.2570   24.6430   32.6120 C   0  0  0  0  0  0  0  0  0  0  0  0
   36.8360   25.9320   32.5200 N   0  0  0  0  0  0  0  0  0  0  0  0
   35.8240   26.2860   31.6850 C   0  0  0  0  0  0  0  0  0  0  0  0
   35.2100   25.3480   30.9210 N   0  0  0  0  0  0  0  0  0  0  0  0
   35.0910   23.3650   30.3710 H   0  0  0  0  0  0  0  0  0  0  0  0
   38.0570   24.5380   33.3210 H   0  0  0  0  0  0  0  0  0  0  0  0
   35.4600   27.3010   31.5810 H   0  0  0  0  0  0  0  0  0  0  0  0
   37.1980   20.1230   30.7660 C   0  0  0  0  0  3  0  0  0  0  0  0
   38.3410   20.6610   29.9430 C   0  0  0  0  0  2  0  0  0  0  0  0
   38.7630   19.4830   29.0570 C   0  0  0  0  0  2  0  0  0  0  0  0
   37.4360   18.8910   28.6880 C   0  0  0  0  0  2  0  0  0  0  0  0
   36.4930   19.2050   29.8270 C   0  0  0  0  0  2  0  0  0  0  0  0
  1  7  1  6  0  0  0
  1  2  1  0  0  0  0
  2  9  1  0  0  0  0
  2  3  1  0  0  0  0
  3 10  1  0  0  0  0
  3 11  1  0  0  0  0
  4 13  1  0  0  0  0
  4  3  1  0  0  0  0
  5 14  1  0  0  0  0
  5  4  1  0  0  0  0
  6 16  1  6  0  0  0
  6  5  1  0  0  0  0
  6  1  1  0  0  0  0
  8  2  1  0  0  0  0
 12  4  1  0  0  0  0
 15  5  1  0  0  0  0
 17 18  1  0  0  0  0
 18  1  1  0  0  0  0
 18 19  2  0  0  0  0
 19 24  1  0  0  0  0
 20 19  1  0  0  0  0
 21 20  2  0  0  0  0
 22 17  2  0  0  0  0
 22 21  1  0  0  0  0
 23 17  1  0  0  0  0
 25 21  1  0  0  0  0
 26  6  1  0  0  0  0
 27 26  1  0  0  0  0
 28 27  1  0  0  0  0
 29 28  1  0  0  0  0
 29 30  1  0  0  0  0
 30 26  1  0  0  0  0
M  END
>  <minimizedAffinity>
-4.54877186

$$$$

 OpenBabel03272506313D

 30 32  0  0  1  0  0  0  0  0999 V2000
   38.7070   24.3830   35.0820 C   0  0  1  0  0  0  0  0  0  0  0  0
   37.8050   25.1720   35.9380 C   0  0  0  0  0  0  0  0  0  0  0  0
   38.2950   26.5210   36.3880 C   0  0  0  0  0  0  0  0  0  0  0  0
   39.0630   27.2730   35.3660 C   0  0  0  0  0  0  0  0  0  0  0  0
   40.0220   26.4880   34.5530 C   0  0  0  0  0  0  0  0  0  0  0  0
   39.4050   25.2050   34.0560 C   0  0  2  0  0  0  0  0  0  0  0  0
   38.0600   23.6650   34.4850 H   0  0  0  0  0  0  0  0  0  0  0  0
   36.9260   25.4450   35.2660 H   0  0  0  0  0  0  0  0  0  0  0  0
   37.3390   24.6820   36.7740 H   0  0  0  0  0  0  0  0  0  0  0  0
   38.9340   26.4210   37.2920 H   0  0  0  0  0  0  0  0  0  0  0  0
   37.4170   27.1270   36.6900 H   0  0  0  0  0  0  0  0  0  0  0  0
   38.3280   27.7470   34.6630 H   0  0  0  0  0  0  0  0  0  0  0  0
   39.6040   28.1030   35.8600 H   0  0  0  0  0  0  0  0  0  0  0  0
   40.8920   26.2080   35.1850 H   0  0  0  0  0  0  0  0  0  0  0  0
   40.3890   27.0550   33.7090 H   0  0  0  0  0  0  0  0  0  0  0  0
   40.2110   24.6960   33.5100 H   0  0  0  0  0  0  0  0  0  0  0  0
   39.4930   23.1720   37.1970 C   0  0  0  0  0  0  0  0  0  0  0  0
   39.6060   23.4520   35.8130 C   0  0  0  0  0  0  0  0  0  0  0  0
   40.6190   22.8060   35.1290 C   0  0  0  0  0  0  0  0  0  0  0  0
   41.4440   21.9510   35.7890 N   0  0  0  0  0  0  0  0  0  0  0  0
   41.2970   21.7140   37.1190 C   0  0  0  0  0  0  0  0  0  0  0  0
   40.3120   22.3330   37.8180 N   0  0  0  0  0  0  0  0  0  0  0  0
   38.7230   23.6460   37.7830 H   0  0  0  0  0  0  0  0  0  0  0  0
   40.8700   22.8730   34.0870 H   0  0  0  0  0  0  0  0  0  0  0  0
   41.9320   21.0420   37.6820 H   0  0  0  0  0  0  0  0  0  0  0  0
   38.3810   25.5140   32.9400 C   0  0  0  0  0  3  0  0  0  0  0  0
   37.8380   24.2210   32.3870 C   0  0  0  0  0  2  0  0  0  0  0  0
   37.4120   24.5660   30.9540 C   0  0  0  0  0  2  0  0  0  0  0  0
   38.5250   25.4700   30.5170 C   0  0  0  0  0  2  0  0  0  0  0  0
   39.0470   26.1440   31.7640 C   0  0  0  0  0  2  0  0  0  0  0  0
  1  7  1  6  0  0  0
  1 18  1  0  0  0  0
  1  2  1  0  0  0  0
  2  3  1  0  0  0  0
  2  9  1  0  0  0  0
  3 11  1  0  0  0  0
  3 10  1  0  0  0  0
  4 13  1  0  0  0  0
  4  3  1  0  0  0  0
  5 14  1  0  0  0  0
  5  4  1  0  0  0  0
  6 16  1  6  0  0  0
  6  5  1  0  0  0  0
  6  1  1  0  0  0  0
  8  2  1  0  0  0  0
 12  4  1  0  0  0  0
 15  5  1  0  0  0  0
 17 23  1  0  0  0  0
 17 22  1  0  0  0  0
 18 17  2  0  0  0  0
 19 20  2  0  0  0  0
 19 18  1  0  0  0  0
 20 21  1  0  0  0  0
 21 25  1  0  0  0  0
 21 22  2  0  0  0  0
 24 19  1  0  0  0  0
 26  6  1  0  0  0  0
 27 26  1  0  0  0  0
 28 27  1  0  0  0  0
 29 28  1  0  0  0  0
 29 30  1  0  0  0  0
 30 26  1  0  0  0  0
M  END
>  <minimizedAffinity>
-4.53364325

$$$$

 OpenBabel03272506313D

 30 32  0  0  1  0  0  0  0  0999 V2000
   39.2170   24.7040   34.1650 C   0  0  1  0  0  0  0  0  0  0  0  0
   40.1360   25.8500   34.0550 C   0  0  0  0  0  0  0  0  0  0  0  0
   39.5450   27.2200   34.2360 C   0  0  0  0  0  0  0  0  0  0  0  0
   38.4980   27.3090   35.2820 C   0  0  0  0  0  0  0  0  0  0  0  0
   37.5310   26.1880   35.3450 C   0  0  0  0  0  0  0  0  0  0  0  0
   38.2280   24.8530   35.2660 C   0  0  2  0  0  0  0  0  0  0  0  0
   39.8410   23.8000   34.4580 H   0  0  0  0  0  0  0  0  0  0  0  0
   40.8250   25.7620   34.9590 H   0  0  0  0  0  0  0  0  0  0  0  0
   40.8170   25.8780   33.2230 H   0  0  0  0  0  0  0  0  0  0  0  0
   39.1070   27.5840   33.2810 H   0  0  0  0  0  0  0  0  0  0  0  0
   40.3650   27.9220   34.4920 H   0  0  0  0  0  0  0  0  0  0  0  0
   39.0110   27.3730   36.2780 H   0  0  0  0  0  0  0  0  0  0  0  0
   37.9410   28.2580   35.1550 H   0  0  0  0  0  0  0  0  0  0  0  0
   36.8450   26.2490   34.4740 H   0  0  0  0  0  0  0  0  0  0  0  0
   36.9340   26.2240   36.2450 H   0  0  0  0  0  0  0  0  0  0  0  0
   37.4190   24.1100   35.2790 H   0  0  0  0  0  0  0  0  0  0  0  0
   37.4850   23.4130   32.7910 C   0  0  0  0  0  0  0  0  0  0  0  0
   38.6170   24.2590   32.8800 C   0  0  0  0  0  0  0  0  0  0  0  0
   39.1740   24.6800   31.6860 C   0  0  0  0  0  0  0  0  0  0  0  0
   38.6300   24.2800   30.5070 N   0  0  0  0  0  0  0  0  0  0  0  0
   37.5420   23.4670   30.4710 C   0  0  0  0  0  0  0  0  0  0  0  0
   36.9730   23.0360   31.6260 N   0  0  0  0  0  0  0  0  0  0  0  0
   37.0080   23.0520   33.6880 H   0  0  0  0  0  0  0  0  0  0  0  0
   40.0210   25.3220   31.5330 H   0  0  0  0  0  0  0  0  0  0  0  0
   37.0790   23.1250   29.5540 H   0  0  0  0  0  0  0  0  0  0  0  0
   38.9690   24.5700   36.5930 C   0  0  0  0  0  3  0  0  0  0  0  0
   39.6270   23.2150   36.5200 C   0  0  0  0  0  2  0  0  0  0  0  0
   39.7270   22.7590   37.9810 C   0  0  0  0  0  2  0  0  0  0  0  0
   38.4130   23.2220   38.5340 C   0  0  0  0  0  2  0  0  0  0  0  0
   38.0070   24.4310   37.7230 C   0  0  0  0  0  2  0  0  0  0  0  0
  1  7  1  1  0  0  0
  1  6  1  0  0  0  0
  2  1  1  0  0  0  0
  2  3  1  0  0  0  0
  2  8  1  0  0  0  0
  3 11  1  0  0  0  0
  3  4  1  0  0  0  0
  4  5  1  0  0  0  0
  4 12  1  0  0  0  0
  5 15  1  0  0  0  0
  6 16  1  6  0  0  0
  6  5  1  0  0  0  0
  6 26  1  0  0  0  0
  9  2  1  0  0  0  0
 10  3  1  0  0  0  0
 13  4  1  0  0  0  0
 14  5  1  0  0  0  0
 17 18  1  0  0  0  0
 17 23  1  0  0  0  0
 18  1  1  0  0  0  0
 19 18  2  0  0  0  0
 20 19  1  0  0  0  0
 21 20  2  0  0  0  0
 21 22  1  0  0  0  0
 22 17  2  0  0  0  0
 24 19  1  0  0  0  0
 25 21  1  0  0  0  0
 26 30  1  0  0  0  0
 27 26  1  0  0  0  0
 27 28  1  0  0  0  0
 28 29  1  0  0  0  0
 30 29  1  0  0  0  0
M  END
>  <minimizedAffinity>
-4.49953413

$$$$
