
 OpenBabel03272507363D

 15 16  0  0  0  0  0  0  0  0999 V2000
   36.5870   29.6230   50.8560 C   0  0  0  0  0  0  0  0  0  0  0  0
   36.8470   30.3650   49.7040 C   0  0  0  0  0  0  0  0  0  0  0  0
   35.8130   30.6640   48.8310 C   0  0  0  0  0  0  0  0  0  0  0  0
   34.5750   30.2030   49.1620 N   0  0  0  0  0  0  0  0  0  0  0  0
   34.3350   29.4850   50.2810 C   0  0  0  0  0  0  0  0  0  0  0  0
   35.3370   29.1980   51.1220 N   0  0  0  0  0  0  0  0  0  0  0  0
   35.8660   31.2140   47.9270 H   0  0  0  0  0  0  0  0  0  0  0  0
   33.3400   29.1250   50.5280 H   0  0  0  0  0  0  0  0  0  0  0  0
   38.1860   30.8890   49.3060 C   0  0  0  0  0  3  0  0  0  0  0  0
   38.2710   31.0200   47.8170 C   0  0  0  0  0  2  0  0  0  0  0  0
   38.7750   32.3900   47.5060 C   0  0  0  0  0  2  0  0  0  0  0  0
   38.5150   33.1800   48.7640 C   0  0  0  0  0  2  0  0  0  0  0  0
   38.4840   32.2130   49.9080 C   0  0  0  0  0  2  0  0  0  0  0  0
   37.7340   29.4250   51.6000 O   0  0  0  0  0  0  0  0  0  0  0  0
   38.4830   28.8260   51.3370 H   0  0  0  0  0  0  0  0  0  0  0  0
  1  6  1  0  0  0  0
  1 14  1  0  0  0  0
  2  1  2  0  0  0  0
  3  4  2  0  0  0  0
  3  2  1  0  0  0  0
  4  5  1  0  0  0  0
  5  8  1  0  0  0  0
  5  6  2  0  0  0  0
  7  3  1  0  0  0  0
  9  2  1  0  0  0  0
  9 13  1  0  0  0  0
 10  9  1  0  0  0  0
 11 10  1  0  0  0  0
 11 12  1  0  0  0  0
 12 13  1  0  0  0  0
 15 14  1  0  0  0  0
M  END
>  <minimizedAffinity>
-5.30282927

>  <minimizedRMSD>
1.81136

$$$$
