
 OpenBabel03272506193D

 30 32  0  0  0  0  0  0  0  0999 V2000
   35.4600   30.2970   49.8530 C   0  0  0  0  0  0  0  0  0  0  0  0
   36.4520   31.1450   49.0800 C   0  0  0  0  0  0  0  0  0  0  0  0
   37.8750   30.7080   49.2670 C   0  0  0  0  0  0  0  0  0  0  0  0
   38.2610   30.6760   50.7220 C   0  0  0  0  0  0  0  0  0  0  0  0
   37.2390   30.0070   51.5950 C   0  0  0  0  0  0  0  0  0  0  0  0
   36.1180   29.3610   50.8080 C   0  0  0  0  0  0  0  0  0  0  0  0
   34.7330   30.9800   50.3370 H   0  0  0  0  0  0  0  0  0  0  0  0
   36.3960   32.1890   49.4520 H   0  0  0  0  0  0  0  0  0  0  0  0
   36.2250   31.1660   47.9990 H   0  0  0  0  0  0  0  0  0  0  0  0
   37.9940   29.6920   48.8100 H   0  0  0  0  0  0  0  0  0  0  0  0
   38.5130   31.4160   48.7340 H   0  0  0  0  0  0  0  0  0  0  0  0
   38.3160   31.7490   51.0410 H   0  0  0  0  0  0  0  0  0  0  0  0
   39.2690   30.2490   50.8140 H   0  0  0  0  0  0  0  0  0  0  0  0
   36.7590   30.7130   52.3040 H   0  0  0  0  0  0  0  0  0  0  0  0
   37.7260   29.2110   52.1920 H   0  0  0  0  0  0  0  0  0  0  0  0
   35.3970   28.9850   51.5410 H   0  0  0  0  0  0  0  0  0  0  0  0
   36.5890   28.5320   50.2130 H   0  0  0  0  0  0  0  0  0  0  0  0
   34.6580   29.4730   48.8960 C   0  0  0  0  0  0  0  0  0  0  0  0
   34.2520   30.1310   47.7200 C   0  0  0  0  0  0  0  0  0  0  0  0
   33.4880   29.3700   46.8170 C   0  0  0  0  0  0  0  0  0  0  0  0
   33.1800   28.0590   47.1120 N   0  0  0  0  0  0  0  0  0  0  0  0
   33.6060   27.4750   48.2750 C   0  0  0  0  0  0  0  0  0  0  0  0
   34.3300   28.1820   49.1400 N   0  0  0  0  0  0  0  0  0  0  0  0
   34.4550   31.1380   47.4370 H   0  0  0  0  0  0  0  0  0  0  0  0
   33.3820   26.4650   48.5250 H   0  0  0  0  0  0  0  0  0  0  0  0
   32.9740   29.8660   45.5490 C   0  0  0  0  0  0  0  0  0  0  0  0
   34.0840   30.3070   44.5870 C   0  0  0  0  0  0  0  0  0  0  0  0
   33.1790   30.7380   43.4250 C   0  0  0  0  0  0  0  0  0  0  0  0
   32.1170   31.5300   44.1510 C   0  0  0  0  0  0  0  0  0  0  0  0
   32.1610   31.1180   45.6090 C   0  0  0  0  0  0  0  0  0  0  0  0
  1  7  1  0  0  0  0
  1  6  1  0  0  0  0
  2  3  1  0  0  0  0
  2  8  1  0  0  0  0
  2  1  1  0  0  0  0
  3  4  1  0  0  0  0
  4 13  1  0  0  0  0
  4 12  1  0  0  0  0
  4  5  1  0  0  0  0
  5 15  1  0  0  0  0
  5 14  1  0  0  0  0
  6 16  1  0  0  0  0
  6  5  1  0  0  0  0
  9  2  1  0  0  0  0
 10  3  1  0  0  0  0
 11  3  1  0  0  0  0
 17  6  1  0  0  0  0
 18 23  1  0  0  0  0
 18  1  1  0  0  0  0
 19 18  2  0  0  0  0
 20 21  2  0  0  0  0
 20 19  1  0  0  0  0
 21 22  1  0  0  0  0
 22 25  1  0  0  0  0
 22 23  2  0  0  0  0
 24 19  1  0  0  0  0
 26 30  1  0  0  0  0
 26 20  1  0  0  0  0
 27 26  1  0  0  0  0
 28 29  1  0  0  0  0
 28 27  1  0  0  0  0
 29 30  1  0  0  0  0
M  END
>  <minimizedAffinity>
-5.30512619

>  <minimizedRMSD>
0.3305116

$$$$
