
 OpenBabel03272508453D

 23 25  0  0  0  0  0  0  0  0999 V2000
   35.6830   29.9520   50.0870 C   0  0  0  0  0  0  0  0  0  0  0  0
   36.4430   29.6160   51.2020 C   0  0  0  0  0  0  0  0  0  0  0  0
   37.6210   30.3480   50.9780 C   0  0  0  0  0  0  0  0  0  0  0  0
   37.5150   31.0490   49.8040 C   0  0  0  0  0  0  0  0  0  0  0  0
   36.3340   30.7870   49.2920 O   0  0  0  0  0  0  0  0  0  0  0  0
   36.1300   28.9540   51.9900 H   0  0  0  0  0  0  0  0  0  0  0  0
   38.4580   30.3080   51.6920 H   0  0  0  0  0  0  0  0  0  0  0  0
   38.5170   31.9280   49.2170 C   0  0  0  0  0  3  0  0  0  0  0  0
   38.3300   33.3850   49.5750 C   0  0  0  0  0  2  0  0  0  0  0  0
   39.3920   34.0270   48.6920 C   0  0  0  0  0  2  0  0  0  0  0  0
   39.5240   33.1080   47.4850 C   0  0  0  0  0  2  0  0  0  0  0  0
   38.4690   32.0260   47.7050 C   0  0  0  0  0  2  0  0  0  0  0  0
   34.3250   29.4280   49.8470 C   0  0  0  0  0  0  0  0  0  0  0  0
   33.4690   29.5810   50.7360 O   0  0  0  0  0  0  0  0  0  0  0  0
   33.8080   26.7460   47.4350 C   0  0  0  0  0  0  0  0  0  0  0  0
   33.4710   27.4310   46.2680 C   0  0  0  0  0  0  0  0  0  0  0  0
   33.4170   28.8110   46.2900 C   0  0  0  0  0  0  0  0  0  0  0  0
   33.6990   29.4280   47.4640 N   0  0  0  0  0  0  0  0  0  0  0  0
   34.0260   28.7530   48.5970 C   0  0  0  0  0  0  0  0  0  0  0  0
   34.0760   27.4160   48.5620 N   0  0  0  0  0  0  0  0  0  0  0  0
   33.8350   25.6730   47.3600 H   0  0  0  0  0  0  0  0  0  0  0  0
   33.2370   26.9990   45.3060 H   0  0  0  0  0  0  0  0  0  0  0  0
   33.1770   29.5000   45.4940 H   0  0  0  0  0  0  0  0  0  0  0  0
  1  2  2  0  0  0  0
  2  6  1  0  0  0  0
  3  2  1  0  0  0  0
  3  7  1  0  0  0  0
  4  3  2  0  0  0  0
  5  4  1  0  0  0  0
  5  1  1  0  0  0  0
  8  9  1  0  0  0  0
  8  4  1  0  0  0  0
 10  9  1  0  0  0  0
 11 12  1  0  0  0  0
 11 10  1  0  0  0  0
 12  8  1  0  0  0  0
 13  1  1  0  0  0  0
 13 14  2  0  0  0  0
 15 20  1  0  0  0  0
 16 17  1  0  0  0  0
 16 15  2  0  0  0  0
 17 18  2  0  0  0  0
 18 19  1  0  0  0  0
 19 13  1  0  0  0  0
 20 19  2  0  0  0  0
 21 15  1  0  0  0  0
 22 16  1  0  0  0  0
 23 17  1  0  0  0  0
M  END
>  <minimizedAffinity>
-5.66592979

>  <minimizedRMSD>
2.18353128

$$$$
