
 OpenBabel03272501513D

 26 28  0  0  0  0  0  0  0  0999 V2000
   33.4190   30.5260   35.7320 C   0  0  0  0  0  0  0  0  0  0  0  0
   33.4900   31.4360   36.7660 C   0  0  0  0  0  0  0  0  0  0  0  0
   34.6480   32.2090   36.9300 C   0  0  0  0  0  0  0  0  0  0  0  0
   35.7110   32.0510   36.0490 C   0  0  0  0  0  0  0  0  0  0  0  0
   35.6340   31.1330   35.0100 C   0  0  0  0  0  0  0  0  0  0  0  0
   34.4870   30.3840   34.8670 C   0  0  0  0  0  0  0  0  0  0  0  0
   32.6490   31.5590   37.4600 H   0  0  0  0  0  0  0  0  0  0  0  0
   34.6340   32.8960   37.7530 H   0  0  0  0  0  0  0  0  0  0  0  0
   36.5390   32.7150   36.2970 H   0  0  0  0  0  0  0  0  0  0  0  0
   36.5070   31.0840   34.3780 H   0  0  0  0  0  0  0  0  0  0  0  0
   29.9140   29.3600   34.9390 C   0  0  0  0  0  0  0  0  0  0  0  0
   31.0360   30.2070   34.9590 C   0  0  0  0  0  0  0  0  0  0  0  0
   32.1820   29.7630   35.6240 C   0  0  0  0  0  0  0  0  0  0  0  0
   32.1230   28.5440   36.2020 N   0  0  0  0  0  0  0  0  0  0  0  0
   31.0300   27.7540   36.1660 C   0  0  0  0  0  0  0  0  0  0  0  0
   29.9210   28.1670   35.5300 N   0  0  0  0  0  0  0  0  0  0  0  0
   31.1710   26.5180   36.8400 N   0  0  0  0  0  0  0  0  0  0  0  0
   29.0380   29.7270   34.4170 H   0  0  0  0  0  0  0  0  0  0  0  0
   31.0700   31.1660   34.4980 H   0  0  0  0  0  0  0  0  0  0  0  0
   31.4740   25.6390   36.3660 H   0  0  0  0  0  0  0  0  0  0  0  0
   30.9490   26.5340   37.8640 H   0  0  0  0  0  0  0  0  0  0  0  0
   34.4140   29.4010   33.7570 C   0  0  0  0  0  3  0  0  0  0  0  0
   33.8510   30.1210   32.5730 C   0  0  0  0  0  2  0  0  0  0  0  0
   35.0250   30.5760   31.7350 C   0  0  0  0  0  2  0  0  0  0  0  0
   36.1760   29.6790   32.1040 C   0  0  0  0  0  2  0  0  0  0  0  0
   35.8240   28.9730   33.3730 C   0  0  0  0  0  2  0  0  0  0  0  0
  1  2  1  0  0  0  0
  2  3  2  0  0  0  0
  2  7  1  0  0  0  0
  3  8  1  0  0  0  0
  4  9  1  0  0  0  0
  4  3  1  0  0  0  0
  5  4  2  0  0  0  0
  6  5  1  0  0  0  0
  6  1  2  0  0  0  0
 10  5  1  0  0  0  0
 11 12  2  0  0  0  0
 11 16  1  0  0  0  0
 12 13  1  0  0  0  0
 13  1  1  0  0  0  0
 13 14  2  0  0  0  0
 15 14  1  0  0  0  0
 15 17  1  0  0  0  0
 16 15  2  0  0  0  0
 17 21  1  0  0  0  0
 18 11  1  0  0  0  0
 19 12  1  0  0  0  0
 20 17  1  0  0  0  0
 22  6  1  0  0  0  0
 23 22  1  0  0  0  0
 24 25  1  0  0  0  0
 24 23  1  0  0  0  0
 25 26  1  0  0  0  0
 26 22  1  0  0  0  0
M  END
>  <minimizedAffinity>
-5.45160198

$$$$

 OpenBabel03272501513D

 26 28  0  0  0  0  0  0  0  0999 V2000
   38.4640   25.4870   34.9820 C   0  0  0  0  0  0  0  0  0  0  0  0
   38.0880   26.6320   35.6540 C   0  0  0  0  0  0  0  0  0  0  0  0
   37.3400   27.6110   34.9870 C   0  0  0  0  0  0  0  0  0  0  0  0
   36.9840   27.4190   33.6570 C   0  0  0  0  0  0  0  0  0  0  0  0
   37.3660   26.2650   32.9870 C   0  0  0  0  0  0  0  0  0  0  0  0
   38.1010   25.3150   33.6600 C   0  0  0  0  0  0  0  0  0  0  0  0
   38.3700   26.7800   36.7040 H   0  0  0  0  0  0  0  0  0  0  0  0
   37.0820   28.4740   35.5700 H   0  0  0  0  0  0  0  0  0  0  0  0
   36.4060   28.2590   33.2720 H   0  0  0  0  0  0  0  0  0  0  0  0
   37.0410   26.2050   31.9600 H   0  0  0  0  0  0  0  0  0  0  0  0
   41.1410   23.1320   36.2290 C   0  0  0  0  0  0  0  0  0  0  0  0
   40.5190   24.0800   35.3980 C   0  0  0  0  0  0  0  0  0  0  0  0
   39.2360   24.5130   35.7430 C   0  0  0  0  0  0  0  0  0  0  0  0
   38.6880   23.9830   36.8580 N   0  0  0  0  0  0  0  0  0  0  0  0
   39.3120   23.0740   37.6350 C   0  0  0  0  0  0  0  0  0  0  0  0
   40.5450   22.6470   37.3170 N   0  0  0  0  0  0  0  0  0  0  0  0
   38.5620   22.6390   38.7540 N   0  0  0  0  0  0  0  0  0  0  0  0
   42.1360   22.8110   35.9410 H   0  0  0  0  0  0  0  0  0  0  0  0
   40.9630   24.4900   34.5220 H   0  0  0  0  0  0  0  0  0  0  0  0
   38.6350   23.0770   39.6980 H   0  0  0  0  0  0  0  0  0  0  0  0
   37.9150   21.8330   38.5790 H   0  0  0  0  0  0  0  0  0  0  0  0
   38.5090   24.0860   32.9350 C   0  0  0  0  0  3  0  0  0  0  0  0
   37.4250   23.0770   33.1410 C   0  0  0  0  0  2  0  0  0  0  0  0
   36.5110   23.1600   31.9380 C   0  0  0  0  0  2  0  0  0  0  0  0
   37.3300   23.7700   30.8320 C   0  0  0  0  0  2  0  0  0  0  0  0
   38.5520   24.3770   31.4410 C   0  0  0  0  0  2  0  0  0  0  0  0
  1  2  1  0  0  0  0
  1 13  1  0  0  0  0
  2  7  1  0  0  0  0
  3  8  1  0  0  0  0
  3  2  2  0  0  0  0
  4  3  1  0  0  0  0
  5  4  2  0  0  0  0
  5  6  1  0  0  0  0
  6  1  2  0  0  0  0
  9  4  1  0  0  0  0
 10  5  1  0  0  0  0
 11 16  1  0  0  0  0
 12 13  1  0  0  0  0
 12 11  2  0  0  0  0
 13 14  2  0  0  0  0
 14 15  1  0  0  0  0
 15 17  1  0  0  0  0
 16 15  2  0  0  0  0
 17 20  1  0  0  0  0
 18 11  1  0  0  0  0
 19 12  1  0  0  0  0
 21 17  1  0  0  0  0
 22 23  1  0  0  0  0
 22  6  1  0  0  0  0
 24 23  1  0  0  0  0
 25 26  1  0  0  0  0
 25 24  1  0  0  0  0
 26 22  1  0  0  0  0
M  END
>  <minimizedAffinity>
-5.23615265

$$$$

 OpenBabel03272501513D

 26 28  0  0  0  0  0  0  0  0999 V2000
   39.1390   22.8220   34.7690 C   0  0  0  0  0  0  0  0  0  0  0  0
   40.3030   22.0960   34.6250 C   0  0  0  0  0  0  0  0  0  0  0  0
   41.5410   22.7380   34.7690 C   0  0  0  0  0  0  0  0  0  0  0  0
   41.5820   24.0980   35.0540 C   0  0  0  0  0  0  0  0  0  0  0  0
   40.4070   24.8230   35.1970 C   0  0  0  0  0  0  0  0  0  0  0  0
   39.2010   24.1730   35.0520 C   0  0  0  0  0  0  0  0  0  0  0  0
   40.2670   21.0230   34.4000 H   0  0  0  0  0  0  0  0  0  0  0  0
   42.4030   22.1140   34.6450 H   0  0  0  0  0  0  0  0  0  0  0  0
   42.6070   24.4590   35.1370 H   0  0  0  0  0  0  0  0  0  0  0  0
   40.5400   25.8700   35.4200 H   0  0  0  0  0  0  0  0  0  0  0  0
   36.1260   21.0140   33.3810 C   0  0  0  0  0  0  0  0  0  0  0  0
   37.3390   21.7250   33.3780 C   0  0  0  0  0  0  0  0  0  0  0  0
   37.8910   22.0840   34.6100 C   0  0  0  0  0  0  0  0  0  0  0  0
   37.2120   21.7190   35.7190 N   0  0  0  0  0  0  0  0  0  0  0  0
   36.0490   21.0360   35.6880 C   0  0  0  0  0  0  0  0  0  0  0  0
   35.5040   20.6840   34.5120 N   0  0  0  0  0  0  0  0  0  0  0  0
   35.4940   20.7570   36.9600 N   0  0  0  0  0  0  0  0  0  0  0  0
   35.7170   20.7470   32.4140 H   0  0  0  0  0  0  0  0  0  0  0  0
   37.8650   22.0060   32.4970 H   0  0  0  0  0  0  0  0  0  0  0  0
   35.6730   19.8720   37.4810 H   0  0  0  0  0  0  0  0  0  0  0  0
   34.8790   21.5060   37.3580 H   0  0  0  0  0  0  0  0  0  0  0  0
   37.9490   24.9550   35.2020 C   0  0  0  0  0  3  0  0  0  0  0  0
   38.1970   25.9790   36.2630 C   0  0  0  0  0  2  0  0  0  0  0  0
   38.5950   27.2570   35.5580 C   0  0  0  0  0  2  0  0  0  0  0  0
   38.0520   27.1490   34.1580 C   0  0  0  0  0  2  0  0  0  0  0  0
   37.6810   25.7230   33.9140 C   0  0  0  0  0  2  0  0  0  0  0  0
  1  6  1  0  0  0  0
  2  3  1  0  0  0  0
  2  1  2  0  0  0  0
  3  4  2  0  0  0  0
  4  9  1  0  0  0  0
  4  5  1  0  0  0  0
  5 10  1  0  0  0  0
  6  5  2  0  0  0  0
  6 22  1  0  0  0  0
  7  2  1  0  0  0  0
  8  3  1  0  0  0  0
 11 16  1  0  0  0  0
 12 11  2  0  0  0  0
 12 13  1  0  0  0  0
 13  1  1  0  0  0  0
 13 14  2  0  0  0  0
 15 14  1  0  0  0  0
 15 17  1  0  0  0  0
 16 15  2  0  0  0  0
 17 21  1  0  0  0  0
 17 20  1  0  0  0  0
 18 11  1  0  0  0  0
 19 12  1  0  0  0  0
 22 23  1  0  0  0  0
 24 23  1  0  0  0  0
 25 24  1  0  0  0  0
 26 25  1  0  0  0  0
 26 22  1  0  0  0  0
M  END
>  <minimizedAffinity>
-5.16016722

$$$$

 OpenBabel03272501513D

 26 28  0  0  0  0  0  0  0  0999 V2000
   36.1650   29.1440   32.9230 C   0  0  0  0  0  0  0  0  0  0  0  0
   36.2520   29.7950   31.7100 C   0  0  0  0  0  0  0  0  0  0  0  0
   37.1380   29.3200   30.7330 C   0  0  0  0  0  0  0  0  0  0  0  0
   37.9180   28.2000   30.9970 C   0  0  0  0  0  0  0  0  0  0  0  0
   37.8260   27.5510   32.2200 C   0  0  0  0  0  0  0  0  0  0  0  0
   36.9490   28.0330   33.1660 C   0  0  0  0  0  0  0  0  0  0  0  0
   35.6350   30.6780   31.5050 H   0  0  0  0  0  0  0  0  0  0  0  0
   37.1540   29.8730   29.8150 H   0  0  0  0  0  0  0  0  0  0  0  0
   38.5560   27.9480   30.1490 H   0  0  0  0  0  0  0  0  0  0  0  0
   38.4690   26.6910   32.3300 H   0  0  0  0  0  0  0  0  0  0  0  0
   33.0660   29.9840   34.9150 C   0  0  0  0  0  0  0  0  0  0  0  0
   33.8590   29.3720   33.9280 C   0  0  0  0  0  0  0  0  0  0  0  0
   35.2180   29.6930   33.8860 C   0  0  0  0  0  0  0  0  0  0  0  0
   35.6700   30.5740   34.8050 N   0  0  0  0  0  0  0  0  0  0  0  0
   34.8830   31.1440   35.7400 C   0  0  0  0  0  0  0  0  0  0  0  0
   33.5740   30.8470   35.7930 N   0  0  0  0  0  0  0  0  0  0  0  0
   35.5490   32.0460   36.6040 N   0  0  0  0  0  0  0  0  0  0  0  0
   32.0150   29.7190   34.9270 H   0  0  0  0  0  0  0  0  0  0  0  0
   33.4910   28.6790   33.2100 H   0  0  0  0  0  0  0  0  0  0  0  0
   35.9540   31.7650   37.5230 H   0  0  0  0  0  0  0  0  0  0  0  0
   35.6140   33.0350   36.2620 H   0  0  0  0  0  0  0  0  0  0  0  0
   36.8600   27.3360   34.4730 C   0  0  0  0  0  3  0  0  0  0  0  0
   37.3320   25.9340   34.2540 C   0  0  0  0  0  2  0  0  0  0  0  0
   38.7950   25.8970   34.6390 C   0  0  0  0  0  2  0  0  0  0  0  0
   39.0130   27.0590   35.5690 C   0  0  0  0  0  2  0  0  0  0  0  0
   37.8380   27.9740   35.4500 C   0  0  0  0  0  2  0  0  0  0  0  0
  1  6  1  0  0  0  0
  1 13  1  0  0  0  0
  2  1  2  0  0  0  0
  3  4  2  0  0  0  0
  3  2  1  0  0  0  0
  4  5  1  0  0  0  0
  5 10  1  0  0  0  0
  5  6  2  0  0  0  0
  6 22  1  0  0  0  0
  7  2  1  0  0  0  0
  8  3  1  0  0  0  0
  9  4  1  0  0  0  0
 11 18  1  0  0  0  0
 11 16  1  0  0  0  0
 12 11  2  0  0  0  0
 13 12  1  0  0  0  0
 13 14  2  0  0  0  0
 14 15  1  0  0  0  0
 15 16  2  0  0  0  0
 15 17  1  0  0  0  0
 17 20  1  0  0  0  0
 19 12  1  0  0  0  0
 21 17  1  0  0  0  0
 22 26  1  0  0  0  0
 23 22  1  0  0  0  0
 23 24  1  0  0  0  0
 24 25  1  0  0  0  0
 26 25  1  0  0  0  0
M  END
>  <minimizedAffinity>
-5.12220669

$$$$

 OpenBabel03272501513D

 26 28  0  0  0  0  0  0  0  0999 V2000
   34.8810   30.5430   35.0810 C   0  0  0  0  0  0  0  0  0  0  0  0
   35.6830   31.5030   35.6640 C   0  0  0  0  0  0  0  0  0  0  0  0
   35.1590   32.3200   36.6760 C   0  0  0  0  0  0  0  0  0  0  0  0
   33.8400   32.1540   37.0810 C   0  0  0  0  0  0  0  0  0  0  0  0
   33.0390   31.1870   36.4900 C   0  0  0  0  0  0  0  0  0  0  0  0
   33.5720   30.3940   35.4980 C   0  0  0  0  0  0  0  0  0  0  0  0
   36.7240   31.6300   35.3430 H   0  0  0  0  0  0  0  0  0  0  0  0
   35.8370   33.0430   37.0840 H   0  0  0  0  0  0  0  0  0  0  0  0
   33.5730   32.8560   37.8720 H   0  0  0  0  0  0  0  0  0  0  0  0
   32.0310   31.1320   36.8720 H   0  0  0  0  0  0  0  0  0  0  0  0
   36.7480   27.8710   33.1710 C   0  0  0  0  0  0  0  0  0  0  0  0
   36.2080   28.5500   34.2770 C   0  0  0  0  0  0  0  0  0  0  0  0
   35.4970   29.7290   34.0400 C   0  0  0  0  0  0  0  0  0  0  0  0
   35.3830   30.1310   32.7550 N   0  0  0  0  0  0  0  0  0  0  0  0
   35.9150   29.4560   31.7150 C   0  0  0  0  0  0  0  0  0  0  0  0
   36.6010   28.3210   31.9260 N   0  0  0  0  0  0  0  0  0  0  0  0
   35.6890   30.0490   30.4490 N   0  0  0  0  0  0  0  0  0  0  0  0
   37.2950   26.9590   33.3810 H   0  0  0  0  0  0  0  0  0  0  0  0
   36.3040   28.2230   35.2850 H   0  0  0  0  0  0  0  0  0  0  0  0
   34.8840   29.7980   29.8360 H   0  0  0  0  0  0  0  0  0  0  0  0
   36.3910   30.7700   30.1570 H   0  0  0  0  0  0  0  0  0  0  0  0
   32.7080   29.3650   34.8680 C   0  0  0  0  0  3  0  0  0  0  0  0
   31.7860   28.8590   35.9300 C   0  0  0  0  0  2  0  0  0  0  0  0
   30.4940   29.6370   35.8010 C   0  0  0  0  0  2  0  0  0  0  0  0
   30.4590   30.1560   34.3890 C   0  0  0  0  0  2  0  0  0  0  0  0
   31.8310   30.0260   33.8120 C   0  0  0  0  0  2  0  0  0  0  0  0
  1  6  2  0  0  0  0
  1  2  1  0  0  0  0
  2  3  2  0  0  0  0
  3  4  1  0  0  0  0
  3  8  1  0  0  0  0
  4  9  1  0  0  0  0
  5 10  1  0  0  0  0
  5  4  2  0  0  0  0
  6  5  1  0  0  0  0
  7  2  1  0  0  0  0
 11 18  1  0  0  0  0
 11 12  1  0  0  0  0
 12 19  1  0  0  0  0
 13 12  2  0  0  0  0
 13  1  1  0  0  0  0
 14 13  1  0  0  0  0
 15 16  1  0  0  0  0
 15 14  2  0  0  0  0
 16 11  2  0  0  0  0
 17 15  1  0  0  0  0
 20 17  1  0  0  0  0
 21 17  1  0  0  0  0
 22  6  1  0  0  0  0
 22 23  1  0  0  0  0
 24 23  1  0  0  0  0
 25 24  1  0  0  0  0
 26 25  1  0  0  0  0
 26 22  1  0  0  0  0
M  END
>  <minimizedAffinity>
-5.10731506

$$$$

 OpenBabel03272501513D

 26 28  0  0  0  0  0  0  0  0999 V2000
   37.5290   23.4020   33.1790 C   0  0  0  0  0  0  0  0  0  0  0  0
   37.4050   24.7440   32.8830 C   0  0  0  0  0  0  0  0  0  0  0  0
   36.5040   25.1530   31.8900 C   0  0  0  0  0  0  0  0  0  0  0  0
   35.7460   24.2040   31.2150 C   0  0  0  0  0  0  0  0  0  0  0  0
   35.8750   22.8550   31.5170 C   0  0  0  0  0  0  0  0  0  0  0  0
   36.7660   22.4740   32.4960 C   0  0  0  0  0  0  0  0  0  0  0  0
   38.0050   25.4900   33.4180 H   0  0  0  0  0  0  0  0  0  0  0  0
   36.4590   26.2090   31.7130 H   0  0  0  0  0  0  0  0  0  0  0  0
   35.0930   24.6670   30.4750 H   0  0  0  0  0  0  0  0  0  0  0  0
   35.2440   22.1960   30.9420 H   0  0  0  0  0  0  0  0  0  0  0  0
   40.6130   22.3780   35.1050 C   0  0  0  0  0  0  0  0  0  0  0  0
   39.8100   22.6890   33.9940 C   0  0  0  0  0  0  0  0  0  0  0  0
   38.4820   23.0540   34.2260 C   0  0  0  0  0  0  0  0  0  0  0  0
   38.0670   23.0800   35.5110 N   0  0  0  0  0  0  0  0  0  0  0  0
   38.8630   22.7750   36.5560 C   0  0  0  0  0  0  0  0  0  0  0  0
   40.1420   22.4220   36.3500 N   0  0  0  0  0  0  0  0  0  0  0  0
   38.2330   22.8550   37.8220 N   0  0  0  0  0  0  0  0  0  0  0  0
   41.6400   22.0980   34.9000 H   0  0  0  0  0  0  0  0  0  0  0  0
   40.1500   22.6660   32.9850 H   0  0  0  0  0  0  0  0  0  0  0  0
   38.2540   23.7110   38.4180 H   0  0  0  0  0  0  0  0  0  0  0  0
   37.7330   21.9890   38.1330 H   0  0  0  0  0  0  0  0  0  0  0  0
   36.9020   21.0300   32.8100 C   0  0  0  0  0  3  0  0  0  0  0  0
   35.5990   20.5840   33.3920 C   0  0  0  0  0  2  0  0  0  0  0  0
   34.7920   19.9870   32.2610 C   0  0  0  0  0  2  0  0  0  0  0  0
   35.7860   19.5840   31.2050 C   0  0  0  0  0  2  0  0  0  0  0  0
   37.0860   20.2500   31.5140 C   0  0  0  0  0  2  0  0  0  0  0  0
  1 13  1  0  0  0  0
  2  1  1  0  0  0  0
  2  7  1  0  0  0  0
  3  2  2  0  0  0  0
  4  5  2  0  0  0  0
  4  3  1  0  0  0  0
  5  6  1  0  0  0  0
  6 22  1  0  0  0  0
  6  1  2  0  0  0  0
  8  3  1  0  0  0  0
  9  4  1  0  0  0  0
 10  5  1  0  0  0  0
 11 16  1  0  0  0  0
 12 13  1  0  0  0  0
 12 11  2  0  0  0  0
 13 14  2  0  0  0  0
 14 15  1  0  0  0  0
 15 17  1  0  0  0  0
 16 15  2  0  0  0  0
 17 21  1  0  0  0  0
 17 20  1  0  0  0  0
 18 11  1  0  0  0  0
 19 12  1  0  0  0  0
 22 23  1  0  0  0  0
 24 23  1  0  0  0  0
 25 26  1  0  0  0  0
 25 24  1  0  0  0  0
 26 22  1  0  0  0  0
M  END
>  <minimizedAffinity>
-5.08160162

$$$$

 OpenBabel03272501513D

 26 28  0  0  0  0  0  0  0  0999 V2000
   38.3080   23.2650   34.1050 C   0  0  0  0  0  0  0  0  0  0  0  0
   37.7520   22.1230   33.5670 C   0  0  0  0  0  0  0  0  0  0  0  0
   36.8640   22.2280   32.4880 C   0  0  0  0  0  0  0  0  0  0  0  0
   36.5540   23.4800   31.9710 C   0  0  0  0  0  0  0  0  0  0  0  0
   37.1160   24.6260   32.5160 C   0  0  0  0  0  0  0  0  0  0  0  0
   37.9870   24.5010   33.5760 C   0  0  0  0  0  0  0  0  0  0  0  0
   37.9990   21.1360   33.9770 H   0  0  0  0  0  0  0  0  0  0  0  0
   36.4700   21.3010   32.1200 H   0  0  0  0  0  0  0  0  0  0  0  0
   35.8540   23.4070   31.1380 H   0  0  0  0  0  0  0  0  0  0  0  0
   36.8180   25.5500   32.0470 H   0  0  0  0  0  0  0  0  0  0  0  0
   41.3690   22.7580   36.2610 C   0  0  0  0  0  0  0  0  0  0  0  0
   40.6100   22.9370   35.0910 C   0  0  0  0  0  0  0  0  0  0  0  0
   39.2260   23.0760   35.2220 C   0  0  0  0  0  0  0  0  0  0  0  0
   38.7180   23.0260   36.4720 N   0  0  0  0  0  0  0  0  0  0  0  0
   39.4740   22.8530   37.5760 C   0  0  0  0  0  0  0  0  0  0  0  0
   40.8060   22.7180   37.4680 N   0  0  0  0  0  0  0  0  0  0  0  0
   38.7480   22.8230   38.7910 N   0  0  0  0  0  0  0  0  0  0  0  0
   42.4400   22.6530   36.1340 H   0  0  0  0  0  0  0  0  0  0  0  0
   41.0220   22.9740   34.1110 H   0  0  0  0  0  0  0  0  0  0  0  0
   38.5830   23.6670   39.3800 H   0  0  0  0  0  0  0  0  0  0  0  0
   38.3770   21.8840   39.0720 H   0  0  0  0  0  0  0  0  0  0  0  0
   38.5810   25.7310   34.1580 C   0  0  0  0  0  3  0  0  0  0  0  0
   38.5890   26.7650   33.0770 C   0  0  0  0  0  2  0  0  0  0  0  0
   37.3420   27.6030   33.2610 C   0  0  0  0  0  2  0  0  0  0  0  0
   36.9340   27.4350   34.7000 C   0  0  0  0  0  2  0  0  0  0  0  0
   37.6670   26.2580   35.2560 C   0  0  0  0  0  2  0  0  0  0  0  0
  1 13  1  0  0  0  0
  2  7  1  0  0  0  0
  2  1  2  0  0  0  0
  3  2  1  0  0  0  0
  4  3  2  0  0  0  0
  4  5  1  0  0  0  0
  5  6  2  0  0  0  0
  6  1  1  0  0  0  0
  6 22  1  0  0  0  0
  8  3  1  0  0  0  0
  9  4  1  0  0  0  0
 10  5  1  0  0  0  0
 11 16  1  0  0  0  0
 12 13  1  0  0  0  0
 12 11  2  0  0  0  0
 13 14  2  0  0  0  0
 14 15  1  0  0  0  0
 15 17  1  0  0  0  0
 16 15  2  0  0  0  0
 17 21  1  0  0  0  0
 17 20  1  0  0  0  0
 18 11  1  0  0  0  0
 19 12  1  0  0  0  0
 22 26  1  0  0  0  0
 23 24  1  0  0  0  0
 23 22  1  0  0  0  0
 24 25  1  0  0  0  0
 25 26  1  0  0  0  0
M  END
>  <minimizedAffinity>
-5.07810688

$$$$

 OpenBabel03272501513D

 26 28  0  0  0  0  0  0  0  0999 V2000
   36.5620   28.7740   32.2820 C   0  0  0  0  0  0  0  0  0  0  0  0
   36.9130   29.2540   31.0370 C   0  0  0  0  0  0  0  0  0  0  0  0
   38.0170   28.7050   30.3700 C   0  0  0  0  0  0  0  0  0  0  0  0
   38.7460   27.6850   30.9700 C   0  0  0  0  0  0  0  0  0  0  0  0
   38.3880   27.2070   32.2230 C   0  0  0  0  0  0  0  0  0  0  0  0
   37.3000   27.7600   32.8610 C   0  0  0  0  0  0  0  0  0  0  0  0
   36.3350   30.0590   30.5670 H   0  0  0  0  0  0  0  0  0  0  0  0
   38.2310   29.1250   29.4070 H   0  0  0  0  0  0  0  0  0  0  0  0
   39.5720   27.3580   30.3370 H   0  0  0  0  0  0  0  0  0  0  0  0
   39.0110   26.4130   32.6040 H   0  0  0  0  0  0  0  0  0  0  0  0
   34.2530   30.9710   34.3110 C   0  0  0  0  0  0  0  0  0  0  0  0
   35.4600   30.4840   33.7780 C   0  0  0  0  0  0  0  0  0  0  0  0
   35.4000   29.3910   32.9110 C   0  0  0  0  0  0  0  0  0  0  0  0
   34.1770   28.8800   32.6480 N   0  0  0  0  0  0  0  0  0  0  0  0
   33.0370   29.3710   33.1760 C   0  0  0  0  0  0  0  0  0  0  0  0
   33.0780   30.4220   34.0120 N   0  0  0  0  0  0  0  0  0  0  0  0
   31.8620   28.6890   32.7800 N   0  0  0  0  0  0  0  0  0  0  0  0
   34.3250   31.8200   34.9810 H   0  0  0  0  0  0  0  0  0  0  0  0
   36.4180   30.8960   33.9930 H   0  0  0  0  0  0  0  0  0  0  0  0
   31.2770   28.9800   31.9670 H   0  0  0  0  0  0  0  0  0  0  0  0
   31.6050   27.8570   33.3630 H   0  0  0  0  0  0  0  0  0  0  0  0
   36.9260   27.2470   34.2030 C   0  0  0  0  0  3  0  0  0  0  0  0
   37.4350   25.8430   34.2920 C   0  0  0  0  0  2  0  0  0  0  0  0
   38.7780   25.9040   34.9850 C   0  0  0  0  0  2  0  0  0  0  0  0
   38.7880   27.1900   35.7670 C   0  0  0  0  0  2  0  0  0  0  0  0
   37.6680   28.0440   35.2680 C   0  0  0  0  0  2  0  0  0  0  0  0
  1  6  1  0  0  0  0
  1 13  1  0  0  0  0
  2  1  2  0  0  0  0
  3  4  2  0  0  0  0
  3  2  1  0  0  0  0
  4  5  1  0  0  0  0
  5 10  1  0  0  0  0
  5  6  2  0  0  0  0
  6 22  1  0  0  0  0
  7  2  1  0  0  0  0
  8  3  1  0  0  0  0
  9  4  1  0  0  0  0
 11 18  1  0  0  0  0
 12 19  1  0  0  0  0
 12 11  2  0  0  0  0
 13 12  1  0  0  0  0
 14 13  2  0  0  0  0
 14 15  1  0  0  0  0
 15 16  2  0  0  0  0
 16 11  1  0  0  0  0
 17 15  1  0  0  0  0
 17 21  1  0  0  0  0
 20 17  1  0  0  0  0
 22 23  1  0  0  0  0
 22 26  1  0  0  0  0
 23 24  1  0  0  0  0
 24 25  1  0  0  0  0
 26 25  1  0  0  0  0
M  END
>  <minimizedAffinity>
-5.06857443

$$$$

 OpenBabel03272501513D

 26 28  0  0  0  0  0  0  0  0999 V2000
   39.6450   25.5480   34.5970 C   0  0  0  0  0  0  0  0  0  0  0  0
   40.7040   26.4070   34.8040 C   0  0  0  0  0  0  0  0  0  0  0  0
   41.1720   27.1950   33.7430 C   0  0  0  0  0  0  0  0  0  0  0  0
   40.5660   27.1020   32.4960 C   0  0  0  0  0  0  0  0  0  0  0  0
   39.5010   26.2350   32.2940 C   0  0  0  0  0  0  0  0  0  0  0  0
   39.0560   25.4700   33.3500 C   0  0  0  0  0  0  0  0  0  0  0  0
   41.1800   26.4790   35.7890 H   0  0  0  0  0  0  0  0  0  0  0  0
   41.9970   27.8400   33.9740 H   0  0  0  0  0  0  0  0  0  0  0  0
   41.0330   27.7700   31.7720 H   0  0  0  0  0  0  0  0  0  0  0  0
   39.0950   26.2340   31.2950 H   0  0  0  0  0  0  0  0  0  0  0  0
   37.8370   24.2540   37.6520 C   0  0  0  0  0  0  0  0  0  0  0  0
   38.1380   25.1070   36.5750 C   0  0  0  0  0  0  0  0  0  0  0  0
   39.2110   24.7650   35.7480 C   0  0  0  0  0  0  0  0  0  0  0  0
   39.8830   23.6330   36.0490 N   0  0  0  0  0  0  0  0  0  0  0  0
   39.5690   22.8350   37.0910 C   0  0  0  0  0  0  0  0  0  0  0  0
   38.5410   23.1500   37.8950 N   0  0  0  0  0  0  0  0  0  0  0  0
   40.4020   21.7000   37.2380 N   0  0  0  0  0  0  0  0  0  0  0  0
   37.0010   24.5400   38.2790 H   0  0  0  0  0  0  0  0  0  0  0  0
   37.6000   25.9970   36.3490 H   0  0  0  0  0  0  0  0  0  0  0  0
   40.1790   20.7700   36.8230 H   0  0  0  0  0  0  0  0  0  0  0  0
   41.2740   21.8490   37.7990 H   0  0  0  0  0  0  0  0  0  0  0  0
   37.9190   24.5410   33.1250 C   0  0  0  0  0  3  0  0  0  0  0  0
   36.8140   25.3420   32.5140 C   0  0  0  0  0  2  0  0  0  0  0  0
   36.9120   25.1570   31.0160 C   0  0  0  0  0  2  0  0  0  0  0  0
   37.6650   23.8710   30.8020 C   0  0  0  0  0  2  0  0  0  0  0  0
   38.3210   23.4980   32.0910 C   0  0  0  0  0  2  0  0  0  0  0  0
  1  2  1  0  0  0  0
  1 13  1  0  0  0  0
  2  7  1  0  0  0  0
  3  8  1  0  0  0  0
  3  2  2  0  0  0  0
  4  3  1  0  0  0  0
  5  4  2  0  0  0  0
  5  6  1  0  0  0  0
  6  1  2  0  0  0  0
  9  4  1  0  0  0  0
 10  5  1  0  0  0  0
 11 16  1  0  0  0  0
 11 18  1  0  0  0  0
 12 11  2  0  0  0  0
 13 14  2  0  0  0  0
 13 12  1  0  0  0  0
 14 15  1  0  0  0  0
 15 17  1  0  0  0  0
 15 16  2  0  0  0  0
 17 21  1  0  0  0  0
 19 12  1  0  0  0  0
 20 17  1  0  0  0  0
 22  6  1  0  0  0  0
 23 22  1  0  0  0  0
 24 23  1  0  0  0  0
 25 24  1  0  0  0  0
 25 26  1  0  0  0  0
 26 22  1  0  0  0  0
M  END
>  <minimizedAffinity>
-5.05527973

$$$$
