
 OpenBabel03272502593D

 30 32  0  0  1  0  0  0  0  0999 V2000
   35.9770   29.6900   48.7600 N   0  0  0  0  0  0  0  0  0  0  0  0
   36.7940   28.9460   49.6950 C   0  0  0  0  0  0  0  0  0  0  0  0
   37.3500   29.6660   50.8410 C   0  0  0  0  0  0  0  0  0  0  0  0
   37.5540   31.1130   50.7340 C   0  0  0  0  0  0  0  0  0  0  0  0
   36.7150   31.7840   49.6740 C   0  0  0  0  0  0  0  0  0  0  0  0
   36.6720   30.9030   48.4200 C   0  0  1  0  0  0  0  0  0  0  0  0
   37.6290   28.5200   49.0670 H   0  0  0  0  0  0  0  0  0  0  0  0
   36.1950   28.0670   50.0180 H   0  0  0  0  0  0  0  0  0  0  0  0
   36.6960   29.4500   51.7300 H   0  0  0  0  0  0  0  0  0  0  0  0
   38.3280   29.1940   51.1180 H   0  0  0  0  0  0  0  0  0  0  0  0
   37.2860   31.6260   51.7050 H   0  0  0  0  0  0  0  0  0  0  0  0
   38.6300   31.3730   50.5790 H   0  0  0  0  0  0  0  0  0  0  0  0
   37.1650   32.7630   49.3840 H   0  0  0  0  0  0  0  0  0  0  0  0
   35.6800   31.9160   50.0210 H   0  0  0  0  0  0  0  0  0  0  0  0
   36.1680   31.4600   47.6280 H   0  0  0  0  0  0  0  0  0  0  0  0
   34.7000   29.2670   48.2720 C   0  0  0  0  0  0  0  0  0  0  0  0
   34.1250   29.7220   47.0890 C   0  0  0  0  0  0  0  0  0  0  0  0
   32.8820   29.2390   46.7220 C   0  0  0  0  0  0  0  0  0  0  0  0
   32.2810   28.3330   47.5460 N   0  0  0  0  0  0  0  0  0  0  0  0
   32.8700   27.9160   48.6860 C   0  0  0  0  0  0  0  0  0  0  0  0
   34.0730   28.3860   49.0380 N   0  0  0  0  0  0  0  0  0  0  0  0
   34.6660   30.4300   46.5050 H   0  0  0  0  0  0  0  0  0  0  0  0
   32.4300   29.5880   45.8040 H   0  0  0  0  0  0  0  0  0  0  0  0
   32.3470   27.1960   49.3010 H   0  0  0  0  0  0  0  0  0  0  0  0
   38.0210   30.6450   48.1100 O   0  0  0  0  0  0  0  0  0  0  0  0
   38.3890   31.5350   47.1300 C   0  0  0  0  0  3  0  0  0  0  0  0
   39.7310   31.2030   46.4940 C   0  0  0  0  0  2  0  0  0  0  0  0
   39.7120   32.1100   45.2670 C   0  0  0  0  0  2  0  0  0  0  0  0
   38.2770   32.4000   44.9640 C   0  0  0  0  0  2  0  0  0  0  0  0
   37.5000   31.5190   45.9260 C   0  0  0  0  0  2  0  0  0  0  0  0
  1  2  1  0  0  0  0
  2  8  1  0  0  0  0
  2  3  1  0  0  0  0
  3 10  1  0  0  0  0
  3  9  1  0  0  0  0
  4  3  1  0  0  0  0
  4 11  1  0  0  0  0
  5 14  1  0  0  0  0
  5  4  1  0  0  0  0
  6 15  1  6  0  0  0
  6  1  1  0  0  0  0
  6  5  1  0  0  0  0
  7  2  1  0  0  0  0
 12  4  1  0  0  0  0
 13  5  1  0  0  0  0
 16  1  1  0  0  0  0
 16 21  1  0  0  0  0
 17 16  2  0  0  0  0
 18 17  1  0  0  0  0
 18 19  2  0  0  0  0
 19 20  1  0  0  0  0
 20 21  2  0  0  0  0
 20 24  1  0  0  0  0
 22 17  1  0  0  0  0
 23 18  1  0  0  0  0
 25  6  1  0  0  0  0
 26 25  1  0  0  0  0
 27 26  1  0  0  0  0
 28 27  1  0  0  0  0
 29 28  1  0  0  0  0
 29 30  1  0  0  0  0
 30 26  1  0  0  0  0
M  END
>  <minimizedAffinity>
-5.28136301

>  <minimizedRMSD>
0.706687987

$$$$
