
 OpenBabel03272507343D

 32 35  0  0  1  0  0  0  0  0999 V2000
   35.8290   29.1310   49.8010 C   0  0  0  0  0  0  0  0  0  0  0  0
   34.7540   29.6020   50.5200 C   0  0  0  0  0  0  0  0  0  0  0  0
   33.6030   29.0060   49.9890 C   0  0  0  0  0  0  0  0  0  0  0  0
   34.0560   28.2000   48.9690 C   0  0  0  0  0  0  0  0  0  0  0  0
   35.3650   28.3040   48.8930 O   0  0  0  0  0  0  0  0  0  0  0  0
   34.7610   30.3110   51.3570 H   0  0  0  0  0  0  0  0  0  0  0  0
   32.5750   29.1440   50.3060 H   0  0  0  0  0  0  0  0  0  0  0  0
   37.1960   29.5440   50.0840 C   0  0  0  0  0  0  0  0  0  0  0  0
   37.8050   29.0140   51.0200 O   0  0  0  0  0  0  0  0  0  0  0  0
   37.7550   30.5590   49.2370 C   0  0  0  0  0  0  0  0  0  0  0  0
   38.1050   31.7590   49.8360 C   0  0  0  0  0  0  0  0  0  0  0  0
   38.6500   32.7700   49.0390 C   0  0  0  0  0  0  0  0  0  0  0  0
   38.8130   32.5210   47.6960 N   0  0  0  0  0  0  0  0  0  0  0  0
   38.4630   31.3480   47.1530 C   0  0  0  0  0  0  0  0  0  0  0  0
   37.9400   30.3740   47.9100 N   0  0  0  0  0  0  0  0  0  0  0  0
   37.9880   31.9860   50.8980 H   0  0  0  0  0  0  0  0  0  0  0  0
   38.9300   33.7090   49.4800 H   0  0  0  0  0  0  0  0  0  0  0  0
   38.6030   31.1790   46.0870 H   0  0  0  0  0  0  0  0  0  0  0  0
   33.2250   27.3590   48.1080 C   0  0  0  0  0  0  0  0  0  0  0  0
   31.9660   27.3420   48.3080 O   0  0  0  0  0  0  0  0  0  0  0  0
   33.8540   26.5350   47.0210 C   0  0  1  0  0  0  0  0  0  0  0  0
   33.7760   25.0090   47.3940 C   0  0  0  0  0  0  0  0  0  0  0  0
   33.0530   25.5940   46.2370 C   0  0  2  0  0  0  0  0  0  0  0  0
   34.9330   26.7620   46.8910 H   0  0  0  0  0  0  0  0  0  0  0  0
   33.1470   24.7330   48.2530 H   0  0  0  0  0  0  0  0  0  0  0  0
   34.6590   24.3950   47.2670 H   0  0  0  0  0  0  0  0  0  0  0  0
   31.9600   25.6800   46.2860 H   0  0  0  0  0  0  0  0  0  0  0  0
   33.5860   25.3320   44.8280 C   0  0  0  0  0  3  0  0  0  0  0  0
   34.9500   24.6790   44.8720 C   0  0  0  0  0  2  0  0  0  0  0  0
   35.4460   25.0190   43.4600 C   0  0  0  0  0  2  0  0  0  0  0  0
   35.2290   26.5370   43.4960 C   0  0  0  0  0  2  0  0  0  0  0  0
   33.8500   26.6380   44.1160 C   0  0  0  0  0  2  0  0  0  0  0  0
  1  8  1  0  0  0  0
  1  2  2  0  0  0  0
  2  6  1  0  0  0  0
  3  7  1  0  0  0  0
  3  2  1  0  0  0  0
  4  3  2  0  0  0  0
  5  4  1  0  0  0  0
  5  1  1  0  0  0  0
  8  9  2  0  0  0  0
 10 11  1  0  0  0  0
 10  8  1  0  0  0  0
 11 16  1  0  0  0  0
 12 17  1  0  0  0  0
 12 11  2  0  0  0  0
 13 12  1  0  0  0  0
 14 13  2  0  0  0  0
 14 15  1  0  0  0  0
 15 10  2  0  0  0  0
 18 14  1  0  0  0  0
 19 20  2  0  0  0  0
 19  4  1  0  0  0  0
 21 24  1  6  0  0  0
 21 22  1  0  0  0  0
 21 19  1  0  0  0  0
 22 25  1  0  0  0  0
 23 27  1  1  0  0  0
 23 21  1  0  0  0  0
 23 22  1  0  0  0  0
 26 22  1  0  0  0  0
 28 29  1  0  0  0  0
 28 23  1  0  0  0  0
 30 31  1  0  0  0  0
 30 29  1  0  0  0  0
 31 32  1  0  0  0  0
 32 28  1  0  0  0  0
M  END
>  <minimizedAffinity>
-5.15900469

>  <minimizedRMSD>
0.482367069

$$$$
