
 OpenBabel03272507353D

 32 35  0  0  1  0  0  0  0  0999 V2000
   37.8930   25.5750   35.9410 C   0  0  0  0  0  0  0  0  0  0  0  0
   38.3810   26.7780   36.3980 C   0  0  0  0  0  0  0  0  0  0  0  0
   37.9960   27.7610   35.4770 C   0  0  0  0  0  0  0  0  0  0  0  0
   37.2900   27.0850   34.5070 C   0  0  0  0  0  0  0  0  0  0  0  0
   37.2550   25.8080   34.8180 O   0  0  0  0  0  0  0  0  0  0  0  0
   38.9640   26.9680   37.3070 H   0  0  0  0  0  0  0  0  0  0  0  0
   38.2040   28.8240   35.5120 H   0  0  0  0  0  0  0  0  0  0  0  0
   38.1070   24.3250   36.6580 C   0  0  0  0  0  0  0  0  0  0  0  0
   37.2300   23.9110   37.4230 O   0  0  0  0  0  0  0  0  0  0  0  0
   39.3490   23.6450   36.4200 C   0  0  0  0  0  0  0  0  0  0  0  0
   39.8280   22.8330   37.4350 C   0  0  0  0  0  0  0  0  0  0  0  0
   41.0360   22.1580   37.2370 C   0  0  0  0  0  0  0  0  0  0  0  0
   41.6890   22.3340   36.0390 N   0  0  0  0  0  0  0  0  0  0  0  0
   41.1940   23.1280   35.0810 C   0  0  0  0  0  0  0  0  0  0  0  0
   40.0370   23.7790   35.2630 N   0  0  0  0  0  0  0  0  0  0  0  0
   39.3330   22.6740   38.3960 H   0  0  0  0  0  0  0  0  0  0  0  0
   41.4290   21.5230   38.0090 H   0  0  0  0  0  0  0  0  0  0  0  0
   41.7330   23.2490   34.1430 H   0  0  0  0  0  0  0  0  0  0  0  0
   36.6730   27.6830   33.3230 C   0  0  0  0  0  0  0  0  0  0  0  0
   36.6630   27.0110   32.2390 O   0  0  0  0  0  0  0  0  0  0  0  0
   36.0750   29.0590   33.3960 C   0  0  1  0  0  0  0  0  0  0  0  0
   34.5930   29.0260   32.8720 C   0  0  0  0  0  0  0  0  0  0  0  0
   34.9430   29.3360   34.2800 C   0  0  2  0  0  0  0  0  0  0  0  0
   36.6110   29.7860   32.7500 H   0  0  0  0  0  0  0  0  0  0  0  0
   34.1410   28.0380   32.7040 H   0  0  0  0  0  0  0  0  0  0  0  0
   34.2680   29.7940   32.1790 H   0  0  0  0  0  0  0  0  0  0  0  0
   34.7020   28.6000   35.0580 H   0  0  0  0  0  0  0  0  0  0  0  0
   34.8550   30.7870   34.7580 C   0  0  0  0  0  3  0  0  0  0  0  0
   35.9930   31.1220   35.6950 C   0  0  0  0  0  2  0  0  0  0  0  0
   35.3950   32.3470   36.4010 C   0  0  0  0  0  2  0  0  0  0  0  0
   34.0700   31.7260   36.8630 C   0  0  0  0  0  2  0  0  0  0  0  0
   33.6280   30.9820   35.6200 C   0  0  0  0  0  2  0  0  0  0  0  0
  1  2  2  0  0  0  0
  1  8  1  0  0  0  0
  2  6  1  0  0  0  0
  3  7  1  0  0  0  0
  3  2  1  0  0  0  0
  4  5  1  0  0  0  0
  4  3  2  0  0  0  0
  5  1  1  0  0  0  0
  8  9  2  0  0  0  0
 10  8  1  0  0  0  0
 10 11  1  0  0  0  0
 11 16  1  0  0  0  0
 12 11  2  0  0  0  0
 12 17  1  0  0  0  0
 13 12  1  0  0  0  0
 14 15  1  0  0  0  0
 14 13  2  0  0  0  0
 15 10  2  0  0  0  0
 18 14  1  0  0  0  0
 19 21  1  0  0  0  0
 19  4  1  0  0  0  0
 20 19  2  0  0  0  0
 21 24  1  6  0  0  0
 21 23  1  0  0  0  0
 22 21  1  0  0  0  0
 22 23  1  0  0  0  0
 23 28  1  0  0  0  0
 23 27  1  1  0  0  0
 25 22  1  0  0  0  0
 26 22  1  0  0  0  0
 28 32  1  0  0  0  0
 28 29  1  0  0  0  0
 29 30  1  0  0  0  0
 30 31  1  0  0  0  0
 32 31  1  0  0  0  0
M  END
>  <minimizedAffinity>
-6.03542185

$$$$

 OpenBabel03272507353D

 32 35  0  0  1  0  0  0  0  0999 V2000
   36.5970   25.5610   31.7990 C   0  0  0  0  0  0  0  0  0  0  0  0
   36.5480   26.9130   31.5530 C   0  0  0  0  0  0  0  0  0  0  0  0
   37.5100   27.5220   32.3700 C   0  0  0  0  0  0  0  0  0  0  0  0
   38.0900   26.4880   33.0700 C   0  0  0  0  0  0  0  0  0  0  0  0
   37.5250   25.3570   32.7050 O   0  0  0  0  0  0  0  0  0  0  0  0
   35.8930   27.4490   30.8540 H   0  0  0  0  0  0  0  0  0  0  0  0
   37.7510   28.5760   32.4420 H   0  0  0  0  0  0  0  0  0  0  0  0
   35.7270   24.6130   31.1180 C   0  0  0  0  0  0  0  0  0  0  0  0
   34.7500   25.0340   30.4890 O   0  0  0  0  0  0  0  0  0  0  0  0
   36.0710   23.2230   31.2250 C   0  0  0  0  0  0  0  0  0  0  0  0
   35.1620   22.3950   31.8640 C   0  0  0  0  0  0  0  0  0  0  0  0
   35.4680   21.0370   31.9880 C   0  0  0  0  0  0  0  0  0  0  0  0
   36.6600   20.5890   31.4650 N   0  0  0  0  0  0  0  0  0  0  0  0
   37.5130   21.4200   30.8540 C   0  0  0  0  0  0  0  0  0  0  0  0
   37.2280   22.7240   30.7310 N   0  0  0  0  0  0  0  0  0  0  0  0
   34.2100   22.7210   32.2890 H   0  0  0  0  0  0  0  0  0  0  0  0
   34.7800   20.3740   32.4800 H   0  0  0  0  0  0  0  0  0  0  0  0
   38.4490   21.0380   30.4500 H   0  0  0  0  0  0  0  0  0  0  0  0
   39.1620   26.6160   34.0560 C   0  0  0  0  0  0  0  0  0  0  0  0
   40.1620   27.3550   33.7740 O   0  0  0  0  0  0  0  0  0  0  0  0
   39.0770   25.8830   35.3640 C   0  0  1  0  0  0  0  0  0  0  0  0
   38.3890   26.7960   36.4450 C   0  0  0  0  0  0  0  0  0  0  0  0
   37.7780   25.5390   35.9460 C   0  0  2  0  0  0  0  0  0  0  0  0
   40.0780   25.6300   35.7710 H   0  0  0  0  0  0  0  0  0  0  0  0
   37.9170   27.7240   36.0920 H   0  0  0  0  0  0  0  0  0  0  0  0
   38.8360   26.8650   37.4300 H   0  0  0  0  0  0  0  0  0  0  0  0
   36.8910   25.6030   35.3030 H   0  0  0  0  0  0  0  0  0  0  0  0
   37.7970   24.3030   36.8470 C   0  0  0  0  0  3  0  0  0  0  0  0
   38.0980   24.6780   38.2810 C   0  0  0  0  0  2  0  0  0  0  0  0
   38.5740   23.3180   38.8100 C   0  0  0  0  0  2  0  0  0  0  0  0
   39.6580   23.0270   37.7630 C   0  0  0  0  0  2  0  0  0  0  0  0
   38.9520   23.4000   36.4760 C   0  0  0  0  0  2  0  0  0  0  0  0
  1  5  1  0  0  0  0
  2  1  2  0  0  0  0
  2  3  1  0  0  0  0
  3  7  1  0  0  0  0
  3  4  2  0  0  0  0
  4 19  1  0  0  0  0
  5  4  1  0  0  0  0
  6  2  1  0  0  0  0
  8 10  1  0  0  0  0
  8  1  1  0  0  0  0
  9  8  2  0  0  0  0
 10 11  1  0  0  0  0
 11 12  2  0  0  0  0
 11 16  1  0  0  0  0
 12 17  1  0  0  0  0
 13 12  1  0  0  0  0
 14 13  2  0  0  0  0
 15 14  1  0  0  0  0
 15 10  2  0  0  0  0
 18 14  1  0  0  0  0
 19 21  1  0  0  0  0
 20 19  2  0  0  0  0
 21 24  1  1  0  0  0
 21 23  1  0  0  0  0
 21 22  1  0  0  0  0
 22 26  1  0  0  0  0
 23 27  1  6  0  0  0
 23 22  1  0  0  0  0
 23 28  1  0  0  0  0
 25 22  1  0  0  0  0
 28 29  1  0  0  0  0
 29 30  1  0  0  0  0
 31 30  1  0  0  0  0
 32 28  1  0  0  0  0
 32 31  1  0  0  0  0
M  END
>  <minimizedAffinity>
-5.75178146

$$$$

 OpenBabel03272507353D

 32 35  0  0  1  0  0  0  0  0999 V2000
   37.7520   25.6620   34.5340 C   0  0  0  0  0  0  0  0  0  0  0  0
   38.0880   26.6880   35.3880 C   0  0  0  0  0  0  0  0  0  0  0  0
   37.5130   27.8590   34.8790 C   0  0  0  0  0  0  0  0  0  0  0  0
   36.8560   27.4680   33.7350 C   0  0  0  0  0  0  0  0  0  0  0  0
   37.0230   26.1730   33.5700 O   0  0  0  0  0  0  0  0  0  0  0  0
   38.6910   26.6340   36.3030 H   0  0  0  0  0  0  0  0  0  0  0  0
   37.5690   28.8610   35.2910 H   0  0  0  0  0  0  0  0  0  0  0  0
   38.1840   24.2900   34.7570 C   0  0  0  0  0  0  0  0  0  0  0  0
   38.3230   23.5360   33.7880 O   0  0  0  0  0  0  0  0  0  0  0  0
   38.4260   23.8980   36.1170 C   0  0  0  0  0  0  0  0  0  0  0  0
   39.6520   23.3150   36.3970 C   0  0  0  0  0  0  0  0  0  0  0  0
   39.9180   22.9190   37.7120 C   0  0  0  0  0  0  0  0  0  0  0  0
   38.9480   23.1320   38.6630 N   0  0  0  0  0  0  0  0  0  0  0  0
   37.7750   23.7000   38.3540 C   0  0  0  0  0  0  0  0  0  0  0  0
   37.5110   24.0810   37.0960 N   0  0  0  0  0  0  0  0  0  0  0  0
   40.4410   23.1330   35.6640 H   0  0  0  0  0  0  0  0  0  0  0  0
   40.8610   22.4640   37.9550 H   0  0  0  0  0  0  0  0  0  0  0  0
   37.0250   23.8560   39.1270 H   0  0  0  0  0  0  0  0  0  0  0  0
   36.0910   28.3400   32.8440 C   0  0  0  0  0  0  0  0  0  0  0  0
   35.9140   27.9700   31.6370 O   0  0  0  0  0  0  0  0  0  0  0  0
   35.5390   29.6410   33.3520 C   0  0  1  0  0  0  0  0  0  0  0  0
   33.9790   29.6740   33.1540 C   0  0  0  0  0  0  0  0  0  0  0  0
   34.6210   29.6700   34.4920 C   0  0  2  0  0  0  0  0  0  0  0  0
   35.9360   30.5140   32.7930 H   0  0  0  0  0  0  0  0  0  0  0  0
   33.4900   28.7340   32.8610 H   0  0  0  0  0  0  0  0  0  0  0  0
   33.5250   30.5660   32.7380 H   0  0  0  0  0  0  0  0  0  0  0  0
   34.5400   28.7680   35.1130 H   0  0  0  0  0  0  0  0  0  0  0  0
   34.6530   30.9700   35.2970 C   0  0  0  0  0  3  0  0  0  0  0  0
   34.3770   32.1660   34.4120 C   0  0  0  0  0  2  0  0  0  0  0  0
   34.9770   33.2770   35.2840 C   0  0  0  0  0  2  0  0  0  0  0  0
   36.3750   32.6800   35.4930 C   0  0  0  0  0  2  0  0  0  0  0  0
   36.0500   31.2350   35.8110 C   0  0  0  0  0  2  0  0  0  0  0  0
  1  8  1  0  0  0  0
  1  2  2  0  0  0  0
  2  6  1  0  0  0  0
  3  7  1  0  0  0  0
  3  2  1  0  0  0  0
  4  3  2  0  0  0  0
  5  4  1  0  0  0  0
  5  1  1  0  0  0  0
  8 10  1  0  0  0  0
  9  8  2  0  0  0  0
 10 11  2  0  0  0  0
 10 15  1  0  0  0  0
 11 12  1  0  0  0  0
 12 17  1  0  0  0  0
 12 13  2  0  0  0  0
 14 13  1  0  0  0  0
 14 18  1  0  0  0  0
 15 14  2  0  0  0  0
 16 11  1  0  0  0  0
 19 21  1  0  0  0  0
 19  4  1  0  0  0  0
 20 19  2  0  0  0  0
 21 24  1  6  0  0  0
 21 23  1  0  0  0  0
 22 21  1  0  0  0  0
 22 23  1  0  0  0  0
 23 27  1  1  0  0  0
 23 28  1  0  0  0  0
 25 22  1  0  0  0  0
 26 22  1  0  0  0  0
 28 32  1  0  0  0  0
 29 30  1  0  0  0  0
 29 28  1  0  0  0  0
 30 31  1  0  0  0  0
 31 32  1  0  0  0  0
M  END
>  <minimizedAffinity>
-5.69338131

$$$$

 OpenBabel03272507353D

 32 35  0  0  1  0  0  0  0  0999 V2000
   37.9850   26.3000   34.3190 C   0  0  0  0  0  0  0  0  0  0  0  0
   38.6190   27.1180   33.4120 C   0  0  0  0  0  0  0  0  0  0  0  0
   38.0400   26.8790   32.1590 C   0  0  0  0  0  0  0  0  0  0  0  0
   37.0790   25.9200   32.3870 C   0  0  0  0  0  0  0  0  0  0  0  0
   37.0820   25.6090   33.6650 O   0  0  0  0  0  0  0  0  0  0  0  0
   39.4280   27.8340   33.6000 H   0  0  0  0  0  0  0  0  0  0  0  0
   38.2880   27.3450   31.2120 H   0  0  0  0  0  0  0  0  0  0  0  0
   38.3360   26.2850   35.7320 C   0  0  0  0  0  0  0  0  0  0  0  0
   38.2770   27.3360   36.3800 O   0  0  0  0  0  0  0  0  0  0  0  0
   38.7340   25.0230   36.2890 C   0  0  0  0  0  0  0  0  0  0  0  0
   38.0780   24.6030   37.4340 C   0  0  0  0  0  0  0  0  0  0  0  0
   38.4430   23.3790   38.0030 C   0  0  0  0  0  0  0  0  0  0  0  0
   39.4380   22.6510   37.3930 N   0  0  0  0  0  0  0  0  0  0  0  0
   40.0500   23.0900   36.2860 C   0  0  0  0  0  0  0  0  0  0  0  0
   39.7060   24.2620   35.7340 N   0  0  0  0  0  0  0  0  0  0  0  0
   37.2850   25.1580   37.9410 H   0  0  0  0  0  0  0  0  0  0  0  0
   37.9490   23.0310   38.8920 H   0  0  0  0  0  0  0  0  0  0  0  0
   40.8350   22.4930   35.8250 H   0  0  0  0  0  0  0  0  0  0  0  0
   36.1920   25.3390   31.3780 C   0  0  0  0  0  0  0  0  0  0  0  0
   35.3860   26.1110   30.7620 O   0  0  0  0  0  0  0  0  0  0  0  0
   36.2380   23.8660   31.0910 C   0  0  1  0  0  0  0  0  0  0  0  0
   37.5890   23.5020   30.3740 C   0  0  0  0  0  0  0  0  0  0  0  0
   37.2390   23.0100   31.7290 C   0  0  2  0  0  0  0  0  0  0  0  0
   35.4300   23.5460   30.4000 H   0  0  0  0  0  0  0  0  0  0  0  0
   38.3650   24.2800   30.3390 H   0  0  0  0  0  0  0  0  0  0  0  0
   37.5610   22.8570   29.5040 H   0  0  0  0  0  0  0  0  0  0  0  0
   37.7860   23.4100   32.5930 H   0  0  0  0  0  0  0  0  0  0  0  0
   36.8110   21.5510   31.8940 C   0  0  0  0  0  3  0  0  0  0  0  0
   35.3560   21.3650   31.5250 C   0  0  0  0  0  2  0  0  0  0  0  0
   35.0690   20.0470   32.2580 C   0  0  0  0  0  2  0  0  0  0  0  0
   35.5440   20.4520   33.6600 C   0  0  0  0  0  2  0  0  0  0  0  0
   36.8510   21.1530   33.3520 C   0  0  0  0  0  2  0  0  0  0  0  0
  1  8  1  0  0  0  0
  2  6  1  0  0  0  0
  2  1  2  0  0  0  0
  3  4  2  0  0  0  0
  3  2  1  0  0  0  0
  4  5  1  0  0  0  0
  5  1  1  0  0  0  0
  7  3  1  0  0  0  0
  8 10  1  0  0  0  0
  8  9  2  0  0  0  0
 10 11  1  0  0  0  0
 11 16  1  0  0  0  0
 11 12  2  0  0  0  0
 12 17  1  0  0  0  0
 13 12  1  0  0  0  0
 14 13  2  0  0  0  0
 15 14  1  0  0  0  0
 15 10  2  0  0  0  0
 18 14  1  0  0  0  0
 19  4  1  0  0  0  0
 20 19  2  0  0  0  0
 21 24  1  6  0  0  0
 21 19  1  0  0  0  0
 21 23  1  0  0  0  0
 22 21  1  0  0  0  0
 22 23  1  0  0  0  0
 23 28  1  0  0  0  0
 23 27  1  1  0  0  0
 25 22  1  0  0  0  0
 26 22  1  0  0  0  0
 28 32  1  0  0  0  0
 29 28  1  0  0  0  0
 29 30  1  0  0  0  0
 30 31  1  0  0  0  0
 32 31  1  0  0  0  0
M  END
>  <minimizedAffinity>
-5.59593201

$$$$

 OpenBabel03272507353D

 32 35  0  0  1  0  0  0  0  0999 V2000
   36.5350   23.8080   31.2440 C   0  0  0  0  0  0  0  0  0  0  0  0
   35.2520   24.0520   30.8120 C   0  0  0  0  0  0  0  0  0  0  0  0
   34.9660   25.3960   31.0890 C   0  0  0  0  0  0  0  0  0  0  0  0
   36.1080   25.8890   31.6790 C   0  0  0  0  0  0  0  0  0  0  0  0
   37.0010   24.9260   31.7510 O   0  0  0  0  0  0  0  0  0  0  0  0
   34.5550   23.3510   30.3360 H   0  0  0  0  0  0  0  0  0  0  0  0
   34.0480   25.9370   30.8870 H   0  0  0  0  0  0  0  0  0  0  0  0
   37.1660   22.5030   31.1130 C   0  0  0  0  0  0  0  0  0  0  0  0
   38.2000   22.3970   30.4450 O   0  0  0  0  0  0  0  0  0  0  0  0
   36.5300   21.4040   31.7840 C   0  0  0  0  0  0  0  0  0  0  0  0
   36.2290   20.2880   31.0200 C   0  0  0  0  0  0  0  0  0  0  0  0
   35.6070   19.2010   31.6420 C   0  0  0  0  0  0  0  0  0  0  0  0
   35.3260   19.2960   32.9860 N   0  0  0  0  0  0  0  0  0  0  0  0
   35.6330   20.3920   33.6910 C   0  0  0  0  0  0  0  0  0  0  0  0
   36.2290   21.4380   33.1020 N   0  0  0  0  0  0  0  0  0  0  0  0
   36.4390   20.1840   29.9530 H   0  0  0  0  0  0  0  0  0  0  0  0
   35.3630   18.3240   31.0720 H   0  0  0  0  0  0  0  0  0  0  0  0
   35.3990   20.4390   34.7530 H   0  0  0  0  0  0  0  0  0  0  0  0
   36.3060   27.2600   32.1480 C   0  0  0  0  0  0  0  0  0  0  0  0
   35.5810   28.1840   31.6490 O   0  0  0  0  0  0  0  0  0  0  0  0
   37.3460   27.5600   33.1890 C   0  0  1  0  0  0  0  0  0  0  0  0
   36.6560   28.1100   34.4910 C   0  0  0  0  0  0  0  0  0  0  0  0
   37.3790   26.8160   34.4490 C   0  0  2  0  0  0  0  0  0  0  0  0
   38.0540   28.3500   32.8630 H   0  0  0  0  0  0  0  0  0  0  0  0
   35.5600   28.0380   34.5490 H   0  0  0  0  0  0  0  0  0  0  0  0
   37.0750   28.9860   34.9730 H   0  0  0  0  0  0  0  0  0  0  0  0
   36.8000   25.8850   34.5150 H   0  0  0  0  0  0  0  0  0  0  0  0
   38.7640   26.7250   35.0930 C   0  0  0  0  0  3  0  0  0  0  0  0
   39.8500   27.0790   34.1020 C   0  0  0  0  0  2  0  0  0  0  0  0
   41.0530   26.4150   34.7870 C   0  0  0  0  0  2  0  0  0  0  0  0
   40.4780   25.0020   34.9490 C   0  0  0  0  0  2  0  0  0  0  0  0
   39.0810   25.2920   35.4570 C   0  0  0  0  0  2  0  0  0  0  0  0
  1  5  1  0  0  0  0
  2  3  1  0  0  0  0
  2  1  2  0  0  0  0
  3  4  2  0  0  0  0
  4  5  1  0  0  0  0
  4 19  1  0  0  0  0
  6  2  1  0  0  0  0
  7  3  1  0  0  0  0
  8  1  1  0  0  0  0
  8 10  1  0  0  0  0
  9  8  2  0  0  0  0
 10 15  1  0  0  0  0
 11 12  1  0  0  0  0
 11 10  2  0  0  0  0
 12 13  2  0  0  0  0
 13 14  1  0  0  0  0
 14 18  1  0  0  0  0
 15 14  2  0  0  0  0
 16 11  1  0  0  0  0
 17 12  1  0  0  0  0
 19 21  1  0  0  0  0
 20 19  2  0  0  0  0
 21 24  1  6  0  0  0
 21 23  1  0  0  0  0
 21 22  1  0  0  0  0
 22 25  1  0  0  0  0
 22 26  1  0  0  0  0
 23 22  1  0  0  0  0
 23 27  1  1  0  0  0
 23 28  1  0  0  0  0
 28 32  1  0  0  0  0
 29 30  1  0  0  0  0
 29 28  1  0  0  0  0
 30 31  1  0  0  0  0
 31 32  1  0  0  0  0
M  END
>  <minimizedAffinity>
-5.58339596

$$$$

 OpenBabel03272507353D

 32 35  0  0  1  0  0  0  0  0999 V2000
   37.9840   25.4910   35.9920 C   0  0  0  0  0  0  0  0  0  0  0  0
   38.4800   26.7260   36.3430 C   0  0  0  0  0  0  0  0  0  0  0  0
   38.0870   27.6310   35.3490 C   0  0  0  0  0  0  0  0  0  0  0  0
   37.3680   26.8810   34.4460 C   0  0  0  0  0  0  0  0  0  0  0  0
   37.3330   25.6340   34.8610 O   0  0  0  0  0  0  0  0  0  0  0  0
   39.0750   26.9870   37.2260 H   0  0  0  0  0  0  0  0  0  0  0  0
   38.2990   28.6940   35.2950 H   0  0  0  0  0  0  0  0  0  0  0  0
   38.2020   24.3040   36.8060 C   0  0  0  0  0  0  0  0  0  0  0  0
   37.3860   24.0190   37.6890 O   0  0  0  0  0  0  0  0  0  0  0  0
   39.3750   23.5280   36.5190 C   0  0  0  0  0  0  0  0  0  0  0  0
   39.8810   22.7460   37.5450 C   0  0  0  0  0  0  0  0  0  0  0  0
   41.0250   21.9800   37.3000 C   0  0  0  0  0  0  0  0  0  0  0  0
   41.5900   22.0400   36.0480 N   0  0  0  0  0  0  0  0  0  0  0  0
   41.0720   22.8080   35.0810 C   0  0  0  0  0  0  0  0  0  0  0  0
   39.9760   23.5460   35.3070 N   0  0  0  0  0  0  0  0  0  0  0  0
   39.4550   22.6780   38.5490 H   0  0  0  0  0  0  0  0  0  0  0  0
   41.4370   21.3660   38.0800 H   0  0  0  0  0  0  0  0  0  0  0  0
   41.5410   22.8360   34.0990 H   0  0  0  0  0  0  0  0  0  0  0  0
   36.7380   27.3830   33.2250 C   0  0  0  0  0  0  0  0  0  0  0  0
   36.4070   28.6130   33.1730 O   0  0  0  0  0  0  0  0  0  0  0  0
   36.4880   26.4570   32.0690 C   0  0  1  0  0  0  0  0  0  0  0  0
   37.4330   26.8320   30.8690 C   0  0  0  0  0  0  0  0  0  0  0  0
   37.5330   25.5450   31.6010 C   0  0  2  0  0  0  0  0  0  0  0  0
   35.4520   26.5410   31.6780 H   0  0  0  0  0  0  0  0  0  0  0  0
   38.2390   27.5530   31.0700 H   0  0  0  0  0  0  0  0  0  0  0  0
   37.0120   26.8940   29.8730 H   0  0  0  0  0  0  0  0  0  0  0  0
   38.3990   25.3740   32.2530 H   0  0  0  0  0  0  0  0  0  0  0  0
   37.0080   24.2740   30.9300 C   0  0  0  0  0  3  0  0  0  0  0  0
   35.7050   23.8270   31.5540 C   0  0  0  0  0  2  0  0  0  0  0  0
   35.6990   22.3560   31.1140 C   0  0  0  0  0  2  0  0  0  0  0  0
   37.0800   21.9490   31.6470 C   0  0  0  0  0  2  0  0  0  0  0  0
   37.9390   23.1140   31.2030 C   0  0  0  0  0  2  0  0  0  0  0  0
  1  2  2  0  0  0  0
  1  8  1  0  0  0  0
  2  6  1  0  0  0  0
  3  2  1  0  0  0  0
  4  5  1  0  0  0  0
  4  3  2  0  0  0  0
  5  1  1  0  0  0  0
  7  3  1  0  0  0  0
  8  9  2  0  0  0  0
 10  8  1  0  0  0  0
 10 11  1  0  0  0  0
 11 16  1  0  0  0  0
 12 11  2  0  0  0  0
 12 17  1  0  0  0  0
 13 12  1  0  0  0  0
 14 15  1  0  0  0  0
 14 13  2  0  0  0  0
 15 10  2  0  0  0  0
 18 14  1  0  0  0  0
 19  4  1  0  0  0  0
 20 19  2  0  0  0  0
 21 24  1  6  0  0  0
 21 19  1  0  0  0  0
 22 25  1  0  0  0  0
 22 23  1  0  0  0  0
 22 21  1  0  0  0  0
 23 21  1  0  0  0  0
 23 27  1  1  0  0  0
 26 22  1  0  0  0  0
 28 32  1  0  0  0  0
 28 29  1  0  0  0  0
 28 23  1  0  0  0  0
 30 29  1  0  0  0  0
 30 31  1  0  0  0  0
 32 31  1  0  0  0  0
M  END
>  <minimizedAffinity>
-5.53110886

$$$$

 OpenBabel03272507353D

 32 35  0  0  1  0  0  0  0  0999 V2000
   36.0060   28.2750   32.4020 C   0  0  0  0  0  0  0  0  0  0  0  0
   35.9370   27.0340   31.8110 C   0  0  0  0  0  0  0  0  0  0  0  0
   37.0570   26.3070   32.2340 C   0  0  0  0  0  0  0  0  0  0  0  0
   37.7450   27.1620   33.0650 C   0  0  0  0  0  0  0  0  0  0  0  0
   37.0950   28.3030   33.1350 O   0  0  0  0  0  0  0  0  0  0  0  0
   35.1640   26.6530   31.1320 H   0  0  0  0  0  0  0  0  0  0  0  0
   37.3300   25.2920   31.9680 H   0  0  0  0  0  0  0  0  0  0  0  0
   34.9960   29.3000   32.1840 C   0  0  0  0  0  0  0  0  0  0  0  0
   35.1360   30.0960   31.2490 O   0  0  0  0  0  0  0  0  0  0  0  0
   33.8810   29.3160   33.0880 C   0  0  0  0  0  0  0  0  0  0  0  0
   34.1250   29.7460   34.3830 C   0  0  0  0  0  0  0  0  0  0  0  0
   33.0610   29.7710   35.2900 C   0  0  0  0  0  0  0  0  0  0  0  0
   31.8220   29.3670   34.8490 N   0  0  0  0  0  0  0  0  0  0  0  0
   31.6250   28.9580   33.5900 C   0  0  0  0  0  0  0  0  0  0  0  0
   32.6390   28.9310   32.7130 N   0  0  0  0  0  0  0  0  0  0  0  0
   35.0960   30.0720   34.7620 H   0  0  0  0  0  0  0  0  0  0  0  0
   33.2250   30.1000   36.3000 H   0  0  0  0  0  0  0  0  0  0  0  0
   30.6340   28.6440   33.2680 H   0  0  0  0  0  0  0  0  0  0  0  0
   38.9930   26.8570   33.7640 C   0  0  0  0  0  0  0  0  0  0  0  0
   40.0860   27.2910   33.2720 O   0  0  0  0  0  0  0  0  0  0  0  0
   38.9730   26.0450   35.0270 C   0  0  1  0  0  0  0  0  0  0  0  0
   38.4910   26.9370   36.2300 C   0  0  0  0  0  0  0  0  0  0  0  0
   37.7140   25.7790   35.7250 C   0  0  2  0  0  0  0  0  0  0  0  0
   39.9810   25.6750   35.3070 H   0  0  0  0  0  0  0  0  0  0  0  0
   38.0770   27.9270   35.9870 H   0  0  0  0  0  0  0  0  0  0  0  0
   39.0420   26.8970   37.1620 H   0  0  0  0  0  0  0  0  0  0  0  0
   36.7750   25.9660   35.1880 H   0  0  0  0  0  0  0  0  0  0  0  0
   37.7060   24.4860   36.5430 C   0  0  0  0  0  3  0  0  0  0  0  0
   38.0130   24.7600   37.9990 C   0  0  0  0  0  2  0  0  0  0  0  0
   38.4600   23.3580   38.4370 C   0  0  0  0  0  2  0  0  0  0  0  0
   39.5390   23.1140   37.3730 C   0  0  0  0  0  2  0  0  0  0  0  0
   38.8420   23.5850   36.1130 C   0  0  0  0  0  2  0  0  0  0  0  0
  1  5  1  0  0  0  0
  2  3  1  0  0  0  0
  2  1  2  0  0  0  0
  3  4  2  0  0  0  0
  4  5  1  0  0  0  0
  4 19  1  0  0  0  0
  6  2  1  0  0  0  0
  7  3  1  0  0  0  0
  8  1  1  0  0  0  0
  8 10  1  0  0  0  0
  9  8  2  0  0  0  0
 10 11  1  0  0  0  0
 11 16  1  0  0  0  0
 11 12  2  0  0  0  0
 12 17  1  0  0  0  0
 13 12  1  0  0  0  0
 14 13  2  0  0  0  0
 15 10  2  0  0  0  0
 15 14  1  0  0  0  0
 18 14  1  0  0  0  0
 19 21  1  0  0  0  0
 20 19  2  0  0  0  0
 21 24  1  1  0  0  0
 21 23  1  0  0  0  0
 21 22  1  0  0  0  0
 22 26  1  0  0  0  0
 23 27  1  6  0  0  0
 23 22  1  0  0  0  0
 23 28  1  0  0  0  0
 25 22  1  0  0  0  0
 28 29  1  0  0  0  0
 29 30  1  0  0  0  0
 31 30  1  0  0  0  0
 32 28  1  0  0  0  0
 32 31  1  0  0  0  0
M  END
>  <minimizedAffinity>
-5.49877405

$$$$

 OpenBabel03272507353D

 32 35  0  0  1  0  0  0  0  0999 V2000
   38.0910   25.3220   35.9850 C   0  0  0  0  0  0  0  0  0  0  0  0
   38.4810   26.6280   36.1720 C   0  0  0  0  0  0  0  0  0  0  0  0
   38.0990   27.3450   35.0320 C   0  0  0  0  0  0  0  0  0  0  0  0
   37.4930   26.4190   34.2130 C   0  0  0  0  0  0  0  0  0  0  0  0
   37.5110   25.2470   34.8100 O   0  0  0  0  0  0  0  0  0  0  0  0
   38.9960   27.0600   37.0390 H   0  0  0  0  0  0  0  0  0  0  0  0
   38.2440   28.4010   34.8300 H   0  0  0  0  0  0  0  0  0  0  0  0
   38.3300   24.2860   36.9810 C   0  0  0  0  0  0  0  0  0  0  0  0
   37.6000   24.2250   37.9750 O   0  0  0  0  0  0  0  0  0  0  0  0
   39.4220   23.3880   36.7330 C   0  0  0  0  0  0  0  0  0  0  0  0
   39.8660   23.2800   35.4240 C   0  0  0  0  0  0  0  0  0  0  0  0
   40.9260   22.4120   35.1480 C   0  0  0  0  0  0  0  0  0  0  0  0
   41.4780   21.7080   36.1930 N   0  0  0  0  0  0  0  0  0  0  0  0
   41.0220   21.8390   37.4450 C   0  0  0  0  0  0  0  0  0  0  0  0
   40.0060   22.6690   37.7190 N   0  0  0  0  0  0  0  0  0  0  0  0
   39.4490   23.8250   34.5750 H   0  0  0  0  0  0  0  0  0  0  0  0
   41.2890   22.3100   34.1410 H   0  0  0  0  0  0  0  0  0  0  0  0
   41.4780   21.2690   38.2530 H   0  0  0  0  0  0  0  0  0  0  0  0
   36.9170   26.6870   32.8960 C   0  0  0  0  0  0  0  0  0  0  0  0
   36.3460   25.7290   32.2760 O   0  0  0  0  0  0  0  0  0  0  0  0
   37.0080   28.0600   32.2960 C   0  0  1  0  0  0  0  0  0  0  0  0
   38.0750   28.0700   31.1410 C   0  0  0  0  0  0  0  0  0  0  0  0
   36.6290   28.2940   30.9020 C   0  0  2  0  0  0  0  0  0  0  0  0
   37.3470   28.8200   33.0310 H   0  0  0  0  0  0  0  0  0  0  0  0
   38.4650   27.0970   30.8080 H   0  0  0  0  0  0  0  0  0  0  0  0
   38.7950   28.8790   31.1030 H   0  0  0  0  0  0  0  0  0  0  0  0
   36.0520   27.5160   30.3850 H   0  0  0  0  0  0  0  0  0  0  0  0
   36.1430   29.7150   30.6090 C   0  0  0  0  0  3  0  0  0  0  0  0
   37.2610   30.5720   30.0580 C   0  0  0  0  0  2  0  0  0  0  0  0
   36.6940   31.9650   30.3620 C   0  0  0  0  0  2  0  0  0  0  0  0
   36.4220   31.7840   31.8610 C   0  0  0  0  0  2  0  0  0  0  0  0
   35.7690   30.4180   31.8950 C   0  0  0  0  0  2  0  0  0  0  0  0
  1  2  2  0  0  0  0
  1  8  1  0  0  0  0
  2  6  1  0  0  0  0
  3  2  1  0  0  0  0
  4  5  1  0  0  0  0
  4  3  2  0  0  0  0
  5  1  1  0  0  0  0
  7  3  1  0  0  0  0
  8  9  2  0  0  0  0
 10  8  1  0  0  0  0
 10 15  1  0  0  0  0
 11 10  2  0  0  0  0
 12 11  1  0  0  0  0
 12 13  2  0  0  0  0
 13 14  1  0  0  0  0
 14 15  2  0  0  0  0
 14 18  1  0  0  0  0
 16 11  1  0  0  0  0
 17 12  1  0  0  0  0
 19  4  1  0  0  0  0
 20 19  2  0  0  0  0
 21 19  1  0  0  0  0
 21 24  1  1  0  0  0
 22 21  1  0  0  0  0
 23 27  1  6  0  0  0
 23 22  1  0  0  0  0
 23 21  1  0  0  0  0
 25 22  1  0  0  0  0
 26 22  1  0  0  0  0
 28 23  1  0  0  0  0
 28 32  1  0  0  0  0
 29 30  1  0  0  0  0
 29 28  1  0  0  0  0
 30 31  1  0  0  0  0
 31 32  1  0  0  0  0
M  END
>  <minimizedAffinity>
-5.45527267

$$$$

 OpenBabel03272507353D

 32 35  0  0  1  0  0  0  0  0999 V2000
   38.3080   26.4690   33.7410 C   0  0  0  0  0  0  0  0  0  0  0  0
   37.4930   25.4970   33.2080 C   0  0  0  0  0  0  0  0  0  0  0  0
   36.6280   26.1260   32.3040 C   0  0  0  0  0  0  0  0  0  0  0  0
   36.9760   27.4570   32.3430 C   0  0  0  0  0  0  0  0  0  0  0  0
   37.9630   27.6140   33.1990 O   0  0  0  0  0  0  0  0  0  0  0  0
   37.4930   24.4220   33.4280 H   0  0  0  0  0  0  0  0  0  0  0  0
   35.8510   25.6710   31.6990 H   0  0  0  0  0  0  0  0  0  0  0  0
   39.3370   26.1690   34.7260 C   0  0  0  0  0  0  0  0  0  0  0  0
   40.3640   26.8560   34.7540 O   0  0  0  0  0  0  0  0  0  0  0  0
   39.0830   25.0730   35.6180 C   0  0  0  0  0  0  0  0  0  0  0  0
   38.1100   25.2600   36.5860 C   0  0  0  0  0  0  0  0  0  0  0  0
   37.8390   24.2130   37.4720 C   0  0  0  0  0  0  0  0  0  0  0  0
   38.5540   23.0460   37.3360 N   0  0  0  0  0  0  0  0  0  0  0  0
   39.4880   22.9030   36.3870 C   0  0  0  0  0  0  0  0  0  0  0  0
   39.7540   23.9010   35.5330 N   0  0  0  0  0  0  0  0  0  0  0  0
   37.5260   26.1740   36.7190 H   0  0  0  0  0  0  0  0  0  0  0  0
   37.0890   24.3330   38.2320 H   0  0  0  0  0  0  0  0  0  0  0  0
   40.0390   21.9680   36.3020 H   0  0  0  0  0  0  0  0  0  0  0  0
   36.3580   28.5280   31.5630 C   0  0  0  0  0  0  0  0  0  0  0  0
   36.4470   28.4820   30.2920 O   0  0  0  0  0  0  0  0  0  0  0  0
   35.6430   29.6520   32.2560 C   0  0  1  0  0  0  0  0  0  0  0  0
   34.2210   29.1730   32.7270 C   0  0  0  0  0  0  0  0  0  0  0  0
   35.2960   29.5560   33.6750 C   0  0  2  0  0  0  0  0  0  0  0  0
   35.4650   30.5170   31.5830 H   0  0  0  0  0  0  0  0  0  0  0  0
   34.0080   28.0960   32.6650 H   0  0  0  0  0  0  0  0  0  0  0  0
   33.3660   29.8120   32.5400 H   0  0  0  0  0  0  0  0  0  0  0  0
   35.7780   28.7710   34.2730 H   0  0  0  0  0  0  0  0  0  0  0  0
   35.1970   30.9030   34.3940 C   0  0  0  0  0  3  0  0  0  0  0  0
   36.0500   30.9180   35.6430 C   0  0  0  0  0  2  0  0  0  0  0  0
   35.3800   32.0740   36.3990 C   0  0  0  0  0  2  0  0  0  0  0  0
   33.9320   31.5670   36.3650 C   0  0  0  0  0  2  0  0  0  0  0  0
   33.7980   31.1120   34.9270 C   0  0  0  0  0  2  0  0  0  0  0  0
  1  8  1  0  0  0  0
  2  6  1  0  0  0  0
  2  1  2  0  0  0  0
  3  4  2  0  0  0  0
  3  2  1  0  0  0  0
  4  5  1  0  0  0  0
  5  1  1  0  0  0  0
  7  3  1  0  0  0  0
  8  9  2  0  0  0  0
  8 10  1  0  0  0  0
 10 11  1  0  0  0  0
 11 16  1  0  0  0  0
 11 12  2  0  0  0  0
 12 17  1  0  0  0  0
 13 12  1  0  0  0  0
 14 13  2  0  0  0  0
 15 10  2  0  0  0  0
 15 14  1  0  0  0  0
 18 14  1  0  0  0  0
 19 21  1  0  0  0  0
 19  4  1  0  0  0  0
 20 19  2  0  0  0  0
 21 24  1  6  0  0  0
 21 22  1  0  0  0  0
 21 23  1  0  0  0  0
 22 23  1  0  0  0  0
 23 27  1  1  0  0  0
 23 28  1  0  0  0  0
 25 22  1  0  0  0  0
 26 22  1  0  0  0  0
 28 32  1  0  0  0  0
 28 29  1  0  0  0  0
 29 30  1  0  0  0  0
 31 30  1  0  0  0  0
 32 31  1  0  0  0  0
M  END
>  <minimizedAffinity>
-5.42853689

$$$$
