
 OpenBabel03272510333D

 24 26  0  0  0  0  0  0  0  0999 V2000
   35.6000   30.0270   48.0420 C   0  0  0  0  0  0  0  0  0  0  0  0
   34.6760   30.2780   47.0520 C   0  0  0  0  0  0  0  0  0  0  0  0
   33.5540   29.4670   46.9470 C   0  0  0  0  0  0  0  0  0  0  0  0
   33.3860   28.4320   47.8300 C   0  0  0  0  0  0  0  0  0  0  0  0
   34.3140   28.1740   48.8300 C   0  0  0  0  0  0  0  0  0  0  0  0
   35.4560   28.9750   48.9610 C   0  0  0  0  0  0  0  0  0  0  0  0
   34.7940   31.0920   46.3470 H   0  0  0  0  0  0  0  0  0  0  0  0
   32.8210   29.6430   46.1840 H   0  0  0  0  0  0  0  0  0  0  0  0
   32.4860   27.8170   47.7100 H   0  0  0  0  0  0  0  0  0  0  0  0
   34.1030   27.3410   49.4790 H   0  0  0  0  0  0  0  0  0  0  0  0
   37.7330   32.8130   49.0580 C   0  0  0  0  0  0  0  0  0  0  0  0
   38.8960   32.6540   48.3110 C   0  0  0  0  0  0  0  0  0  0  0  0
   38.9460   31.5420   47.4200 C   0  0  0  0  0  0  0  0  0  0  0  0
   37.8740   30.7120   47.3520 N   0  0  0  0  0  0  0  0  0  0  0  0
   36.7600   30.9090   48.1020 C   0  0  0  0  0  0  0  0  0  0  0  0
   36.7270   31.9580   48.9330 N   0  0  0  0  0  0  0  0  0  0  0  0
   37.7520   33.6710   49.7130 H   0  0  0  0  0  0  0  0  0  0  0  0
   39.7950   33.2580   48.2990 H   0  0  0  0  0  0  0  0  0  0  0  0
   39.7710   31.2900   46.7840 H   0  0  0  0  0  0  0  0  0  0  0  0
   36.4340   28.7030   50.0190 C   0  0  0  0  0  3  0  0  0  0  0  0
   37.7660   29.3510   49.8470 C   0  0  0  0  0  2  0  0  0  0  0  0
   38.1480   29.9730   51.1930 C   0  0  0  0  0  2  0  0  0  0  0  0
   36.7980   30.3710   51.7340 C   0  0  0  0  0  2  0  0  0  0  0  0
   35.9330   29.2080   51.3610 C   0  0  0  0  0  2  0  0  0  0  0  0
  1 15  1  0  0  0  0
  1  6  1  0  0  0  0
  2  1  2  0  0  0  0
  3  2  1  0  0  0  0
  3  4  2  0  0  0  0
  4  5  1  0  0  0  0
  5  6  2  0  0  0  0
  5 10  1  0  0  0  0
  6 20  1  0  0  0  0
  7  2  1  0  0  0  0
  8  3  1  0  0  0  0
  9  4  1  0  0  0  0
 11 17  1  0  0  0  0
 12 11  2  0  0  0  0
 13 12  1  0  0  0  0
 14 13  2  0  0  0  0
 14 15  1  0  0  0  0
 15 16  2  0  0  0  0
 16 11  1  0  0  0  0
 18 12  1  0  0  0  0
 19 13  1  0  0  0  0
 20 24  1  0  0  0  0
 21 20  1  0  0  0  0
 21 22  1  0  0  0  0
 22 23  1  0  0  0  0
 24 23  1  0  0  0  0
M  END
>  <minimizedAffinity>
-5.07250738

>  <minimizedRMSD>
1.08346391

$$$$
