
 OpenBabel03272503543D

 40 43  0  0  1  0  0  0  0  0999 V2000
   37.0490   30.6490   46.3440 C   0  0  1  0  0  0  0  0  0  0  0  0
   35.4960   30.7000   46.2440 C   0  0  0  0  0  0  0  0  0  0  0  0
   35.1440   29.5130   45.3410 C   0  0  0  0  0  0  0  0  0  0  0  0
   35.5800   29.9080   43.9670 C   0  0  0  0  0  0  0  0  0  0  0  0
   37.0670   30.1020   43.9670 C   0  0  0  0  0  0  0  0  0  0  0  0
   37.5160   31.1200   45.0010 C   0  0  2  0  0  0  0  0  0  0  0  0
   37.2750   29.5750   46.4820 H   0  0  0  0  0  0  0  0  0  0  0  0
   35.2300   31.6140   45.6730 H   0  0  0  0  0  0  0  0  0  0  0  0
   35.0500   30.6340   47.2350 H   0  0  0  0  0  0  0  0  0  0  0  0
   34.0600   29.3630   45.4260 H   0  0  0  0  0  0  0  0  0  0  0  0
   35.7330   28.6610   45.6690 H   0  0  0  0  0  0  0  0  0  0  0  0
   35.3660   29.0660   43.2770 H   0  0  0  0  0  0  0  0  0  0  0  0
   35.0450   30.8280   43.6070 H   0  0  0  0  0  0  0  0  0  0  0  0
   37.4830   29.1280   44.3010 H   0  0  0  0  0  0  0  0  0  0  0  0
   37.4210   30.3650   42.9530 H   0  0  0  0  0  0  0  0  0  0  0  0
   36.9830   32.0570   44.7570 H   0  0  0  0  0  0  0  0  0  0  0  0
   37.1390   31.3040   48.7690 C   0  0  0  0  0  0  0  0  0  0  0  0
   37.7070   32.0720   49.7770 C   0  0  0  0  0  0  0  0  0  0  0  0
   38.6890   33.0260   49.4730 C   0  0  0  0  0  0  0  0  0  0  0  0
   39.0580   33.1650   48.1470 C   0  0  0  0  0  0  0  0  0  0  0  0
   38.5040   32.4140   47.1470 C   0  0  0  0  0  0  0  0  0  0  0  0
   37.5230   31.4620   47.4690 C   0  0  0  0  0  0  0  0  0  0  0  0
   37.4210   31.9670   50.8150 H   0  0  0  0  0  0  0  0  0  0  0  0
   39.1040   33.5980   50.2730 H   0  0  0  0  0  0  0  0  0  0  0  0
   39.8090   33.9030   47.9540 H   0  0  0  0  0  0  0  0  0  0  0  0
   38.8710   32.6120   46.1530 H   0  0  0  0  0  0  0  0  0  0  0  0
   35.2070   28.2070   49.7430 C   0  0  0  0  0  0  0  0  0  0  0  0
   36.2920   29.0000   49.3000 C   0  0  0  0  0  0  0  0  0  0  0  0
   36.1110   30.3760   49.2010 C   0  0  0  0  0  0  0  0  0  0  0  0
   34.8980   30.8500   49.5410 N   0  0  0  0  0  0  0  0  0  0  0  0
   33.8700   30.0930   49.9610 C   0  0  0  0  0  0  0  0  0  0  0  0
   34.0280   28.7810   50.0600 N   0  0  0  0  0  0  0  0  0  0  0  0
   35.3840   27.1560   49.8070 H   0  0  0  0  0  0  0  0  0  0  0  0
   37.2490   28.6220   49.0320 H   0  0  0  0  0  0  0  0  0  0  0  0
   32.9310   30.5680   50.2120 H   0  0  0  0  0  0  0  0  0  0  0  0
   38.9980   31.3440   44.9160 C   0  0  0  0  0  0  0  0  0  0  0  0
   39.7790   30.1540   44.5070 C   0  0  0  0  0  0  0  0  0  0  0  0
   40.0990   30.2870   43.0570 C   0  0  0  0  0  0  0  0  0  0  0  0
   39.9780   31.7260   42.7060 C   0  0  0  0  0  0  0  0  0  0  0  0
   39.3670   32.3910   43.9010 C   0  0  0  0  0  0  0  0  0  0  0  0
  1  7  1  1  0  0  0
  1 22  1  0  0  0  0
  2  1  1  0  0  0  0
  2  9  1  0  0  0  0
  3 10  1  0  0  0  0
  3 11  1  0  0  0  0
  3  2  1  0  0  0  0
  4  5  1  0  0  0  0
  4  3  1  0  0  0  0
  5 14  1  0  0  0  0
  5  6  1  0  0  0  0
  6 16  1  6  0  0  0
  6  1  1  0  0  0  0
  8  2  1  0  0  0  0
 12  4  1  0  0  0  0
 13  4  1  0  0  0  0
 15  5  1  0  0  0  0
 17 29  1  0  0  0  0
 17 18  1  0  0  0  0
 18 23  1  0  0  0  0
 19 18  2  0  0  0  0
 19 24  1  0  0  0  0
 20 19  1  0  0  0  0
 21 22  1  0  0  0  0
 21 20  2  0  0  0  0
 22 17  2  0  0  0  0
 25 20  1  0  0  0  0
 26 21  1  0  0  0  0
 27 33  1  0  0  0  0
 27 32  1  0  0  0  0
 28 27  2  0  0  0  0
 29 28  1  0  0  0  0
 29 30  2  0  0  0  0
 30 31  1  0  0  0  0
 31 32  2  0  0  0  0
 31 35  1  0  0  0  0
 34 28  1  0  0  0  0
 36  6  1  0  0  0  0
 37 36  1  0  0  0  0
 38 37  1  0  0  0  0
 39 38  1  0  0  0  0
 39 40  1  0  0  0  0
 40 36  1  0  0  0  0
M  END
>  <minimizedAffinity>
-5.60822058

>  <minimizedRMSD>
2.27701163

$$$$
