
 OpenBabel03272508453D

 23 25  0  0  0  0  0  0  0  0999 V2000
   34.0360   28.8100   48.4620 C   0  0  0  0  0  0  0  0  0  0  0  0
   34.7290   28.2090   49.5070 C   0  0  0  0  0  0  0  0  0  0  0  0
   35.8190   29.0800   49.6670 C   0  0  0  0  0  0  0  0  0  0  0  0
   35.7310   30.1040   48.7600 C   0  0  0  0  0  0  0  0  0  0  0  0
   34.6440   29.9110   48.0470 O   0  0  0  0  0  0  0  0  0  0  0  0
   34.4320   27.3060   50.0100 H   0  0  0  0  0  0  0  0  0  0  0  0
   36.5870   28.8940   50.4340 H   0  0  0  0  0  0  0  0  0  0  0  0
   36.6620   31.2130   48.5980 C   0  0  0  0  0  3  0  0  0  0  0  0
   38.0360   30.7870   48.1270 C   0  0  0  0  0  2  0  0  0  0  0  0
   38.7860   32.1080   48.2290 C   0  0  0  0  0  2  0  0  0  0  0  0
   38.1010   32.8780   49.3490 C   0  0  0  0  0  2  0  0  0  0  0  0
   37.0390   31.9190   49.8850 C   0  0  0  0  0  2  0  0  0  0  0  0
   32.7830   28.2650   47.9050 C   0  0  0  0  0  0  0  0  0  0  0  0
   32.0580   27.5800   48.6470 O   0  0  0  0  0  0  0  0  0  0  0  0
   32.5550   27.8960   44.2870 C   0  0  0  0  0  0  0  0  0  0  0  0
   31.8010   29.0040   43.9030 C   0  0  0  0  0  0  0  0  0  0  0  0
   31.3630   29.8870   44.8700 C   0  0  0  0  0  0  0  0  0  0  0  0
   31.6970   29.6210   46.1570 N   0  0  0  0  0  0  0  0  0  0  0  0
   32.4320   28.5390   46.5230 C   0  0  0  0  0  0  0  0  0  0  0  0
   32.8520   27.6910   45.5760 N   0  0  0  0  0  0  0  0  0  0  0  0
   32.8700   27.2420   43.4930 H   0  0  0  0  0  0  0  0  0  0  0  0
   31.5030   29.2710   42.9000 H   0  0  0  0  0  0  0  0  0  0  0  0
   30.7750   30.7870   44.7610 H   0  0  0  0  0  0  0  0  0  0  0  0
  1  2  2  0  0  0  0
  2  3  1  0  0  0  0
  2  6  1  0  0  0  0
  3  7  1  0  0  0  0
  4  3  2  0  0  0  0
  5  1  1  0  0  0  0
  5  4  1  0  0  0  0
  8  4  1  0  0  0  0
  8 12  1  0  0  0  0
  9 10  1  0  0  0  0
  9  8  1  0  0  0  0
 10 11  1  0  0  0  0
 11 12  1  0  0  0  0
 13  1  1  0  0  0  0
 13 14  2  0  0  0  0
 15 20  1  0  0  0  0
 16 15  2  0  0  0  0
 16 17  1  0  0  0  0
 17 18  2  0  0  0  0
 18 19  1  0  0  0  0
 19 13  1  0  0  0  0
 20 19  2  0  0  0  0
 21 15  1  0  0  0  0
 22 16  1  0  0  0  0
 23 17  1  0  0  0  0
M  END
>  <minimizedAffinity>
-5.01448345

>  <minimizedRMSD>
3.45154333

$$$$
