
 OpenBabel03272507343D

 32 35  0  0  1  0  0  0  0  0999 V2000
   35.8290   29.1310   49.8020 C   0  0  0  0  0  0  0  0  0  0  0  0
   34.7550   29.6010   50.5200 C   0  0  0  0  0  0  0  0  0  0  0  0
   33.6040   29.0050   49.9900 C   0  0  0  0  0  0  0  0  0  0  0  0
   34.0560   28.2000   48.9690 C   0  0  0  0  0  0  0  0  0  0  0  0
   35.3650   28.3040   48.8930 O   0  0  0  0  0  0  0  0  0  0  0  0
   34.7620   30.3100   51.3580 H   0  0  0  0  0  0  0  0  0  0  0  0
   32.5760   29.1430   50.3080 H   0  0  0  0  0  0  0  0  0  0  0  0
   37.1970   29.5430   50.0830 C   0  0  0  0  0  0  0  0  0  0  0  0
   37.8060   29.0140   51.0190 O   0  0  0  0  0  0  0  0  0  0  0  0
   37.7560   30.5590   49.2370 C   0  0  0  0  0  0  0  0  0  0  0  0
   38.1060   31.7580   49.8360 C   0  0  0  0  0  0  0  0  0  0  0  0
   38.6510   32.7700   49.0390 C   0  0  0  0  0  0  0  0  0  0  0  0
   38.8130   32.5210   47.6960 N   0  0  0  0  0  0  0  0  0  0  0  0
   38.4620   31.3490   47.1520 C   0  0  0  0  0  0  0  0  0  0  0  0
   37.9390   30.3740   47.9090 N   0  0  0  0  0  0  0  0  0  0  0  0
   37.9890   31.9850   50.8980 H   0  0  0  0  0  0  0  0  0  0  0  0
   38.9310   33.7090   49.4800 H   0  0  0  0  0  0  0  0  0  0  0  0
   38.6020   31.1800   46.0860 H   0  0  0  0  0  0  0  0  0  0  0  0
   33.2250   27.3590   48.1080 C   0  0  0  0  0  0  0  0  0  0  0  0
   31.9660   27.3430   48.3080 O   0  0  0  0  0  0  0  0  0  0  0  0
   33.8540   26.5350   47.0220 C   0  0  1  0  0  0  0  0  0  0  0  0
   33.7750   25.0090   47.3930 C   0  0  0  0  0  0  0  0  0  0  0  0
   33.0520   25.5950   46.2370 C   0  0  2  0  0  0  0  0  0  0  0  0
   34.9330   26.7620   46.8920 H   0  0  0  0  0  0  0  0  0  0  0  0
   33.1460   24.7330   48.2530 H   0  0  0  0  0  0  0  0  0  0  0  0
   34.6580   24.3950   47.2660 H   0  0  0  0  0  0  0  0  0  0  0  0
   31.9590   25.6810   46.2870 H   0  0  0  0  0  0  0  0  0  0  0  0
   33.5850   25.3330   44.8270 C   0  0  0  0  0  3  0  0  0  0  0  0
   34.9490   24.6800   44.8720 C   0  0  0  0  0  2  0  0  0  0  0  0
   35.4450   25.0200   43.4600 C   0  0  0  0  0  2  0  0  0  0  0  0
   35.2290   26.5380   43.4960 C   0  0  0  0  0  2  0  0  0  0  0  0
   33.8500   26.6400   44.1150 C   0  0  0  0  0  2  0  0  0  0  0  0
  1  8  1  0  0  0  0
  1  2  2  0  0  0  0
  2  6  1  0  0  0  0
  3  7  1  0  0  0  0
  3  2  1  0  0  0  0
  4  3  2  0  0  0  0
  5  4  1  0  0  0  0
  5  1  1  0  0  0  0
  8  9  2  0  0  0  0
 10 11  1  0  0  0  0
 10  8  1  0  0  0  0
 11 16  1  0  0  0  0
 12 17  1  0  0  0  0
 12 11  2  0  0  0  0
 13 12  1  0  0  0  0
 14 13  2  0  0  0  0
 14 15  1  0  0  0  0
 15 10  2  0  0  0  0
 18 14  1  0  0  0  0
 19 20  2  0  0  0  0
 19  4  1  0  0  0  0
 21 24  1  6  0  0  0
 21 22  1  0  0  0  0
 21 19  1  0  0  0  0
 22 25  1  0  0  0  0
 23 27  1  1  0  0  0
 23 21  1  0  0  0  0
 23 22  1  0  0  0  0
 26 22  1  0  0  0  0
 28 29  1  0  0  0  0
 28 23  1  0  0  0  0
 30 31  1  0  0  0  0
 30 29  1  0  0  0  0
 31 32  1  0  0  0  0
 32 28  1  0  0  0  0
M  END
>  <minimizedAffinity>
-5.1591754

>  <minimizedRMSD>
1.38898838

$$$$
