
 OpenBabel03272510343D

 24 26  0  0  0  0  0  0  0  0999 V2000
   36.7320   30.5450   46.3270 C   0  0  0  0  0  0  0  0  0  0  0  0
   35.8370   30.4420   45.2860 C   0  0  0  0  0  0  0  0  0  0  0  0
   34.5540   29.9750   45.5350 C   0  0  0  0  0  0  0  0  0  0  0  0
   34.2000   29.6260   46.8120 C   0  0  0  0  0  0  0  0  0  0  0  0
   35.0980   29.7290   47.8670 C   0  0  0  0  0  0  0  0  0  0  0  0
   36.4000   30.1960   47.6470 C   0  0  0  0  0  0  0  0  0  0  0  0
   36.1010   30.7140   44.2710 H   0  0  0  0  0  0  0  0  0  0  0  0
   33.8390   29.8860   44.7390 H   0  0  0  0  0  0  0  0  0  0  0  0
   33.1760   29.2620   46.9630 H   0  0  0  0  0  0  0  0  0  0  0  0
   34.7360   29.4320   48.8370 H   0  0  0  0  0  0  0  0  0  0  0  0
   39.5340   32.8640   45.9810 C   0  0  0  0  0  0  0  0  0  0  0  0
   40.5610   32.0940   45.4430 C   0  0  0  0  0  0  0  0  0  0  0  0
   40.2750   30.7200   45.1890 C   0  0  0  0  0  0  0  0  0  0  0  0
   39.0370   30.2460   45.4820 N   0  0  0  0  0  0  0  0  0  0  0  0
   38.0670   31.0380   46.0060 C   0  0  0  0  0  0  0  0  0  0  0  0
   38.3490   32.3260   46.2380 N   0  0  0  0  0  0  0  0  0  0  0  0
   39.8070   33.8940   46.1510 H   0  0  0  0  0  0  0  0  0  0  0  0
   41.5720   32.3810   45.1800 H   0  0  0  0  0  0  0  0  0  0  0  0
   40.9620   30.0070   44.7800 H   0  0  0  0  0  0  0  0  0  0  0  0
   37.3460   30.3050   48.7610 C   0  0  0  0  0  3  0  0  0  0  0  0
   37.1780   31.5010   49.6340 C   0  0  0  0  0  2  0  0  0  0  0  0
   37.2430   31.0200   51.0860 C   0  0  0  0  0  2  0  0  0  0  0  0
   36.6260   29.6480   50.9770 C   0  0  0  0  0  2  0  0  0  0  0  0
   37.2090   29.1190   49.7030 C   0  0  0  0  0  2  0  0  0  0  0  0
  1  6  1  0  0  0  0
  2  3  1  0  0  0  0
  2  1  2  0  0  0  0
  3  4  2  0  0  0  0
  4  9  1  0  0  0  0
  4  5  1  0  0  0  0
  5 10  1  0  0  0  0
  6  5  2  0  0  0  0
  6 20  1  0  0  0  0
  7  2  1  0  0  0  0
  8  3  1  0  0  0  0
 11 17  1  0  0  0  0
 11 16  1  0  0  0  0
 12 11  2  0  0  0  0
 13 12  1  0  0  0  0
 13 14  2  0  0  0  0
 14 15  1  0  0  0  0
 15 16  2  0  0  0  0
 15  1  1  0  0  0  0
 18 12  1  0  0  0  0
 19 13  1  0  0  0  0
 20 21  1  0  0  0  0
 20 24  1  0  0  0  0
 21 22  1  0  0  0  0
 23 22  1  0  0  0  0
 24 23  1  0  0  0  0
M  END
>  <minimizedAffinity>
-5.49666119

>  <minimizedRMSD>
2.82133079

$$$$
