
 OpenBabel03272508253D

 21 23  0  0  1  0  0  0  0  0999 V2000
   35.9910   30.4180   49.5990 C   0  0  1  0  0  0  0  0  0  0  0  0
   36.0170   28.9880   49.3240 C   0  0  1  0  0  0  0  0  0  0  0  0
   36.4880   29.4580   50.6700 C   0  0  0  0  0  0  0  0  0  0  0  0
   35.1000   31.0100   49.9030 H   0  0  0  0  0  0  0  0  0  0  0  0
   36.8010   28.6590   48.5840 H   0  0  0  0  0  0  0  0  0  0  0  0
   37.5670   29.3660   50.8400 H   0  0  0  0  0  0  0  0  0  0  0  0
   35.8540   29.3190   51.5410 H   0  0  0  0  0  0  0  0  0  0  0  0
   37.1000   31.2970   49.0680 C   0  0  0  0  0  0  0  0  0  0  0  0
   37.2800   32.5440   49.7450 C   0  0  0  0  0  0  0  0  0  0  0  0
   38.2900   33.3470   49.2440 C   0  0  0  0  0  0  0  0  0  0  0  0
   39.0240   32.9380   48.1890 N   0  0  0  0  0  0  0  0  0  0  0  0
   38.8270   31.7530   47.5740 C   0  0  0  0  0  0  0  0  0  0  0  0
   37.8620   30.9330   48.0160 N   0  0  0  0  0  0  0  0  0  0  0  0
   36.6690   32.8180   50.5760 H   0  0  0  0  0  0  0  0  0  0  0  0
   38.4860   34.3220   49.7150 H   0  0  0  0  0  0  0  0  0  0  0  0
   39.4180   31.4360   46.7340 H   0  0  0  0  0  0  0  0  0  0  0  0
   34.8100   28.1200   49.3230 C   0  0  0  0  0  0  0  0  0  0  0  0
   34.4010   27.8690   47.8870 C   0  0  0  0  0  0  0  0  0  0  0  0
   32.8940   27.7930   47.8890 C   0  0  0  0  0  0  0  0  0  0  0  0
   32.4140   28.3060   49.2050 C   0  0  0  0  0  0  0  0  0  0  0  0
   33.6300   28.9160   49.8310 C   0  0  0  0  0  0  0  0  0  0  0  0
  1  4  1  1  0  0  0
  1  3  1  0  0  0  0
  2  5  1  6  0  0  0
  2  1  1  0  0  0  0
  2  3  1  0  0  0  0
  3  6  1  0  0  0  0
  3  7  1  0  0  0  0
  8  1  1  0  0  0  0
  8  9  1  0  0  0  0
  9 14  1  0  0  0  0
 10 15  1  0  0  0  0
 10  9  2  0  0  0  0
 11 10  1  0  0  0  0
 12 13  1  0  0  0  0
 12 11  2  0  0  0  0
 13  8  2  0  0  0  0
 16 12  1  0  0  0  0
 17  2  1  0  0  0  0
 17 21  1  0  0  0  0
 18 19  1  0  0  0  0
 18 17  1  0  0  0  0
 19 20  1  0  0  0  0
 20 21  1  0  0  0  0
M  END
>  <minimizedAffinity>
-5.05768156

>  <minimizedRMSD>
0.591533363

$$$$
