
 OpenBabel03272510043D

 33 35  0  0  0  0  0  0  0  0999 V2000
   36.5590   30.7070   44.8490 C   0  0  0  0  0  0  0  0  0  0  0  0
   36.1140   30.4360   46.1100 C   0  0  0  0  0  0  0  0  0  0  0  0
   34.8480   29.8890   46.2870 C   0  0  0  0  0  0  0  0  0  0  0  0
   34.0010   29.6020   45.2330 C   0  0  0  0  0  0  0  0  0  0  0  0
   34.4290   29.8700   43.9440 C   0  0  0  0  0  0  0  0  0  0  0  0
   35.6790   30.4060   43.8050 C   0  0  0  0  0  0  0  0  0  0  0  0
   34.5100   29.6770   47.3090 H   0  0  0  0  0  0  0  0  0  0  0  0
   33.0360   29.1780   45.4730 H   0  0  0  0  0  0  0  0  0  0  0  0
   33.7430   29.6350   43.1430 H   0  0  0  0  0  0  0  0  0  0  0  0
   35.9020   30.5750   42.7450 H   0  0  0  0  0  0  0  0  0  0  0  0
   38.6000   32.0360   48.2920 C   0  0  0  0  0  0  0  0  0  0  0  0
   37.8040   31.7330   47.1930 C   0  0  0  0  0  0  0  0  0  0  0  0
   36.9010   30.7240   47.2580 C   0  0  0  0  0  0  0  0  0  0  0  0
   36.8190   30.0450   48.4400 N   0  0  0  0  0  0  0  0  0  0  0  0
   37.5750   30.3310   49.4980 C   0  0  0  0  0  0  0  0  0  0  0  0
   38.4650   31.3260   49.4160 N   0  0  0  0  0  0  0  0  0  0  0  0
   39.3580   32.7910   48.4060 H   0  0  0  0  0  0  0  0  0  0  0  0
   38.0850   32.4570   46.4680 H   0  0  0  0  0  0  0  0  0  0  0  0
   37.3230   29.5530   50.7400 C   0  0  0  0  0  0  0  0  0  0  0  0
   37.5050   30.3250   51.8790 F   0  0  0  0  0  0  0  0  0  0  0  0
   35.9140   29.2280   50.7960 F   0  0  0  0  0  0  0  0  0  0  0  0
   37.9160   28.3870   50.8480 F   0  0  0  0  0  0  0  0  0  0  0  0
   38.1200   31.3500   44.5040 S   0  0  0  0  0  0  0  0  0  0  0  0
   38.1830   32.7950   44.8480 O   0  0  0  0  0  0  0  0  0  0  0  0
   37.9710   31.5600   43.0230 O   0  0  0  0  0  0  0  0  0  0  0  0
   39.5600   30.5480   44.1570 C   0  0  0  0  0  0  0  0  0  0  0  0
   39.9250   30.1070   45.1450 H   0  0  0  0  0  0  0  0  0  0  0  0
   40.3030   31.3620   44.0100 H   0  0  0  0  0  0  0  0  0  0  0  0
   39.8080   29.4840   43.1900 C   0  0  0  0  0  0  0  0  0  0  0  0
   39.0090   28.2610   43.6120 C   0  0  0  0  0  0  0  0  0  0  0  0
   37.9480   28.1610   42.5660 C   0  0  0  0  0  0  0  0  0  0  0  0
   38.7220   28.4980   41.2860 C   0  0  0  0  0  0  0  0  0  0  0  0
   39.4580   29.7510   41.7760 C   0  0  0  0  0  0  0  0  0  0  0  0
  1  2  1  0  0  0  0
  2  3  2  0  0  0  0
  2 13  1  0  0  0  0
  3  7  1  0  0  0  0
  4  8  1  0  0  0  0
  4  3  1  0  0  0  0
  5  4  2  0  0  0  0
  6  5  1  0  0  0  0
  6  1  2  0  0  0  0
  9  5  1  0  0  0  0
 10  6  1  0  0  0  0
 11 17  1  0  0  0  0
 11 16  1  0  0  0  0
 12 13  1  0  0  0  0
 12 11  2  0  0  0  0
 13 14  2  0  0  0  0
 14 15  1  0  0  0  0
 15 19  1  0  0  0  0
 16 15  2  0  0  0  0
 18 12  1  0  0  0  0
 19 21  1  0  0  0  0
 19 22  1  0  0  0  0
 19 20  1  0  0  0  0
 23 24  2  0  0  0  0
 23  1  1  0  0  0  0
 25 23  2  0  0  0  0
 26 23  1  0  0  0  0
 26 27  1  0  0  0  0
 28 26  1  0  0  0  0
 29 30  1  0  0  0  0
 29 26  1  0  0  0  0
 31 30  1  0  0  0  0
 32 33  1  0  0  0  0
 32 31  1  0  0  0  0
 33 29  1  0  0  0  0
M  END
>  <minimizedAffinity>
-5.6011591

>  <minimizedRMSD>
2.06909895

$$$$
