
 OpenBabel03272504483D

 23 25  0  0  0  0  0  0  0  0999 V2000
   35.9160   29.3440   49.6810 C   0  0  0  0  0  0  0  0  0  0  0  0
   36.1120   30.3700   48.7560 C   0  0  0  0  0  0  0  0  0  0  0  0
   35.3760   30.3170   47.5800 C   0  0  0  0  0  0  0  0  0  0  0  0
   34.5000   29.2770   47.3770 N   0  0  0  0  0  0  0  0  0  0  0  0
   34.3470   28.3100   48.3010 C   0  0  0  0  0  0  0  0  0  0  0  0
   35.0570   28.3550   49.4420 N   0  0  0  0  0  0  0  0  0  0  0  0
   36.5210   29.4570   50.5630 H   0  0  0  0  0  0  0  0  0  0  0  0
   35.4000   31.0190   46.7620 H   0  0  0  0  0  0  0  0  0  0  0  0
   33.4160   27.2210   48.0620 C   0  0  0  0  0  0  0  0  0  0  0  0
   33.8390   26.0710   47.4400 C   0  0  0  0  0  0  0  0  0  0  0  0
   33.0030   25.0030   47.1850 C   0  0  0  0  0  0  0  0  0  0  0  0
   31.6980   25.1750   47.6080 C   0  0  0  0  0  0  0  0  0  0  0  0
   31.2330   26.3210   48.2410 C   0  0  0  0  0  0  0  0  0  0  0  0
   32.1390   27.3100   48.4410 N   0  0  0  0  0  0  0  0  0  0  0  0
   34.8810   25.9920   47.1290 H   0  0  0  0  0  0  0  0  0  0  0  0
   33.3120   24.0870   46.6970 H   0  0  0  0  0  0  0  0  0  0  0  0
   30.9790   24.3720   47.4410 H   0  0  0  0  0  0  0  0  0  0  0  0
   30.2030   26.4180   48.5570 H   0  0  0  0  0  0  0  0  0  0  0  0
   37.0190   31.5010   48.9030 C   0  0  0  0  0  0  0  0  0  0  0  0
   37.8440   31.8290   47.6840 C   0  0  0  0  0  0  0  0  0  0  0  0
   38.9080   32.7690   48.2550 C   0  0  0  0  0  0  0  0  0  0  0  0
   38.8250   32.6540   49.7560 C   0  0  0  0  0  0  0  0  0  0  0  0
   38.1180   31.3090   49.9280 C   0  0  0  0  0  0  0  0  0  0  0  0
  1  7  1  0  0  0  0
  2 19  1  0  0  0  0
  2  1  2  0  0  0  0
  3  2  1  0  0  0  0
  4  3  2  0  0  0  0
  4  5  1  0  0  0  0
  5  6  2  0  0  0  0
  6  1  1  0  0  0  0
  8  3  1  0  0  0  0
  9  5  1  0  0  0  0
  9 14  1  0  0  0  0
 10  9  2  0  0  0  0
 11 10  1  0  0  0  0
 11 12  2  0  0  0  0
 12 13  1  0  0  0  0
 13 14  2  0  0  0  0
 13 18  1  0  0  0  0
 15 10  1  0  0  0  0
 16 11  1  0  0  0  0
 17 12  1  0  0  0  0
 19 23  1  0  0  0  0
 20 21  1  0  0  0  0
 20 19  1  0  0  0  0
 21 22  1  0  0  0  0
 22 23  1  0  0  0  0
M  END
>  <minimizedAffinity>
-5.40359592

>  <minimizedRMSD>
4.14343834

$$$$
