
 OpenBabel03272508163D

 27 29  0  0  0  0  0  0  0  0999 V2000
   34.2930   29.1830   49.5290 Cl  0  0  0  0  0  0  0  0  0  0  0  0
   34.7290   29.4280   47.8780 C   0  0  0  0  0  0  0  0  0  0  0  0
   33.9500   28.7150   47.0130 C   0  0  0  0  0  0  0  0  0  0  0  0
   34.2130   28.8350   45.6230 C   0  0  0  0  0  0  0  0  0  0  0  0
   35.2150   29.6380   45.1580 C   0  0  0  0  0  0  0  0  0  0  0  0
   35.9780   30.3410   46.0530 C   0  0  0  0  0  0  0  0  0  0  0  0
   37.2610   31.3740   45.5060 Cl  0  0  0  0  0  0  0  0  0  0  0  0
   35.7320   30.2320   47.3840 C   0  0  0  0  0  0  0  0  0  0  0  0
   33.6540   28.3120   44.8610 H   0  0  0  0  0  0  0  0  0  0  0  0
   35.4410   29.7510   44.1040 H   0  0  0  0  0  0  0  0  0  0  0  0
   33.1360   26.4410   47.4920 C   0  0  0  0  0  0  0  0  0  0  0  0
   32.8310   27.7970   47.2750 C   0  0  0  0  0  0  0  0  0  0  0  0
   31.4940   28.1990   47.3190 C   0  0  0  0  0  0  0  0  0  0  0  0
   30.5670   27.2290   47.5720 N   0  0  0  0  0  0  0  0  0  0  0  0
   30.8990   25.9330   47.7770 C   0  0  0  0  0  0  0  0  0  0  0  0
   32.2030   25.5340   47.7360 N   0  0  0  0  0  0  0  0  0  0  0  0
   34.1750   26.1320   47.4580 H   0  0  0  0  0  0  0  0  0  0  0  0
   31.2770   29.2230   47.1530 H   0  0  0  0  0  0  0  0  0  0  0  0
   30.1290   25.1930   47.9770 H   0  0  0  0  0  0  0  0  0  0  0  0
   36.5000   30.9500   48.4210 C   0  0  0  0  0  0  0  0  0  0  0  0
   36.1170   31.3050   49.5530 O   0  0  0  0  0  0  0  0  0  0  0  0
   37.8390   31.3770   48.3230 O   0  0  0  0  0  0  0  0  0  0  0  0
   38.2670   32.6820   48.4110 C   0  0  0  0  0  3  0  0  0  0  0  0
   39.4730   33.0060   47.5630 C   0  0  0  0  0  2  0  0  0  0  0  0
   39.9020   34.3310   48.1800 C   0  0  0  0  0  2  0  0  0  0  0  0
   39.5960   34.1700   49.6680 C   0  0  0  0  0  2  0  0  0  0  0  0
   38.7730   32.9340   49.8140 C   0  0  0  0  0  2  0  0  0  0  0  0
  2  1  1  0  0  0  0
  3 12  1  0  0  0  0
  3  2  2  0  0  0  0
  4  3  1  0  0  0  0
  5  4  2  0  0  0  0
  5  6  1  0  0  0  0
  6  8  2  0  0  0  0
  7  6  1  0  0  0  0
  8  2  1  0  0  0  0
  8 20  1  0  0  0  0
  9  4  1  0  0  0  0
 10  5  1  0  0  0  0
 11 16  1  0  0  0  0
 12 13  1  0  0  0  0
 12 11  2  0  0  0  0
 13 14  2  0  0  0  0
 14 15  1  0  0  0  0
 15 19  1  0  0  0  0
 16 15  2  0  0  0  0
 17 11  1  0  0  0  0
 18 13  1  0  0  0  0
 20 21  2  0  0  0  0
 22 23  1  0  0  0  0
 22 20  1  0  0  0  0
 23 27  1  0  0  0  0
 24 25  1  0  0  0  0
 24 23  1  0  0  0  0
 25 26  1  0  0  0  0
 26 27  1  0  0  0  0
M  END
>  <minimizedAffinity>
-5.05202246

>  <minimizedRMSD>
3.92580295

$$$$
