
 OpenBabel03272508453D

 23 25  0  0  0  0  0  0  0  0999 V2000
   35.6610   29.9510   50.1420 C   0  0  0  0  0  0  0  0  0  0  0  0
   36.4820   29.5080   51.1730 C   0  0  0  0  0  0  0  0  0  0  0  0
   37.6680   30.2170   50.9200 C   0  0  0  0  0  0  0  0  0  0  0  0
   37.5080   31.0070   49.8110 C   0  0  0  0  0  0  0  0  0  0  0  0
   36.2860   30.8220   49.3650 O   0  0  0  0  0  0  0  0  0  0  0  0
   36.1990   28.7990   51.9310 H   0  0  0  0  0  0  0  0  0  0  0  0
   38.5500   30.0970   51.5680 H   0  0  0  0  0  0  0  0  0  0  0  0
   38.5000   31.8940   49.2190 C   0  0  0  0  0  3  0  0  0  0  0  0
   38.3030   33.3500   49.5790 C   0  0  0  0  0  2  0  0  0  0  0  0
   39.3540   34.0010   48.6910 C   0  0  0  0  0  2  0  0  0  0  0  0
   39.4890   33.0840   47.4830 C   0  0  0  0  0  2  0  0  0  0  0  0
   38.4420   31.9940   47.7070 C   0  0  0  0  0  2  0  0  0  0  0  0
   34.2710   29.4890   49.9610 C   0  0  0  0  0  0  0  0  0  0  0  0
   33.4580   29.6980   50.8780 O   0  0  0  0  0  0  0  0  0  0  0  0
   32.6530   27.1270   47.7070 C   0  0  0  0  0  0  0  0  0  0  0  0
   33.1470   27.4950   46.4550 C   0  0  0  0  0  0  0  0  0  0  0  0
   34.0350   28.5500   46.3670 C   0  0  0  0  0  0  0  0  0  0  0  0
   34.3790   29.1750   47.5200 N   0  0  0  0  0  0  0  0  0  0  0  0
   33.8940   28.8100   48.7340 C   0  0  0  0  0  0  0  0  0  0  0  0
   33.0350   27.7860   48.8070 N   0  0  0  0  0  0  0  0  0  0  0  0
   31.9660   26.2990   47.7170 H   0  0  0  0  0  0  0  0  0  0  0  0
   32.9120   27.0390   45.5050 H   0  0  0  0  0  0  0  0  0  0  0  0
   34.5140   28.9700   45.4950 H   0  0  0  0  0  0  0  0  0  0  0  0
  1  2  2  0  0  0  0
  2  6  1  0  0  0  0
  3  2  1  0  0  0  0
  3  7  1  0  0  0  0
  4  3  2  0  0  0  0
  5  4  1  0  0  0  0
  5  1  1  0  0  0  0
  8  9  1  0  0  0  0
  8  4  1  0  0  0  0
 10  9  1  0  0  0  0
 11 12  1  0  0  0  0
 11 10  1  0  0  0  0
 12  8  1  0  0  0  0
 13  1  1  0  0  0  0
 13 14  2  0  0  0  0
 15 21  1  0  0  0  0
 15 20  1  0  0  0  0
 16 15  2  0  0  0  0
 17 16  1  0  0  0  0
 17 18  2  0  0  0  0
 18 19  1  0  0  0  0
 19 20  2  0  0  0  0
 19 13  1  0  0  0  0
 22 16  1  0  0  0  0
 23 17  1  0  0  0  0
M  END
>  <minimizedAffinity>
-5.62903404

>  <minimizedRMSD>
2.0395925

$$$$
