
 OpenBabel03272509103D

 36 39  0  0  0  0  0  0  0  0999 V2000
   36.9110   27.8510   34.4610 C   0  0  0  0  0  3  0  0  0  0  0  0
   36.2050   28.4120   33.5340 C   0  0  0  0  0  3  0  0  0  0  0  0
   37.6460   24.5610   33.0570 C   0  0  0  0  0  0  0  0  0  0  0  0
   38.0790   23.8510   34.1880 C   0  0  0  0  0  0  0  0  0  0  0  0
   38.1070   24.5350   35.4280 C   0  0  0  0  0  0  0  0  0  0  0  0
   37.7100   25.8470   35.4460 N   0  0  0  0  0  0  0  0  0  0  0  0
   37.3040   26.4630   34.3060 C   0  0  0  0  0  0  0  0  0  0  0  0
   37.2750   25.8240   33.1340 N   0  0  0  0  0  0  0  0  0  0  0  0
   37.6640   23.9520   32.1760 H   0  0  0  0  0  0  0  0  0  0  0  0
   38.4040   22.8200   34.2420 H   0  0  0  0  0  0  0  0  0  0  0  0
   38.5370   23.9040   36.6710 C   0  0  0  0  0  0  0  0  0  0  0  0
   38.0020   24.2340   37.8900 C   0  0  0  0  0  0  0  0  0  0  0  0
   38.6380   23.4440   38.8550 C   0  0  0  0  0  0  0  0  0  0  0  0
   39.5300   22.6690   38.1840 N   0  0  0  0  0  0  0  0  0  0  0  0
   39.4670   22.9480   36.8770 N   0  0  0  0  0  0  0  0  0  0  0  0
   37.2170   24.9790   38.0880 H   0  0  0  0  0  0  0  0  0  0  0  0
   38.4210   23.4870   39.8990 H   0  0  0  0  0  0  0  0  0  0  0  0
   40.1290   21.9890   38.7070 H   0  0  0  0  0  0  0  0  0  0  0  0
   35.7090   29.7970   33.4990 C   0  0  0  0  0  0  0  0  0  0  0  0
   36.3980   30.3890   34.1570 H   0  0  0  0  0  0  0  0  0  0  0  0
   35.7380   30.2610   32.5140 H   0  0  0  0  0  0  0  0  0  0  0  0
   34.3710   29.9620   34.1480 C   0  0  0  0  0  0  0  0  0  0  0  0
   33.2120   29.3500   33.6750 C   0  0  0  0  0  0  0  0  0  0  0  0
   32.0050   29.5330   34.3090 C   0  0  0  0  0  0  0  0  0  0  0  0
   31.9170   30.3300   35.4330 C   0  0  0  0  0  0  0  0  0  0  0  0
   33.0480   30.9280   35.8950 C   0  0  0  0  0  0  0  0  0  0  0  0
   34.2680   30.7540   35.2720 C   0  0  0  0  0  0  0  0  0  0  0  0
   33.3940   28.7470   32.7880 H   0  0  0  0  0  0  0  0  0  0  0  0
   31.2200   28.9850   33.8060 H   0  0  0  0  0  0  0  0  0  0  0  0
   30.9260   30.3930   35.8350 H   0  0  0  0  0  0  0  0  0  0  0  0
   32.9170   31.5390   36.7780 H   0  0  0  0  0  0  0  0  0  0  0  0
   35.4000   31.4610   35.8840 C   0  0  0  0  0  3  0  0  0  0  0  0
   34.8900   32.1930   37.1010 C   0  0  0  0  0  2  0  0  0  0  0  0
   34.7710   33.6310   36.6500 C   0  0  0  0  0  2  0  0  0  0  0  0
   35.7820   33.8250   35.5650 C   0  0  0  0  0  2  0  0  0  0  0  0
   36.0800   32.4580   35.0110 C   0  0  0  0  0  2  0  0  0  0  0  0
  2  1  2  0  0  0  0
  3  8  2  0  0  0  0
  3  4  1  0  0  0  0
  4 10  1  0  0  0  0
  4  5  2  0  0  0  0
  5  6  1  0  0  0  0
  5 11  1  0  0  0  0
  7  1  1  0  0  0  0
  7  6  2  0  0  0  0
  8  7  1  0  0  0  0
  9  3  1  0  0  0  0
 11 15  2  0  0  0  0
 11 12  1  0  0  0  0
 12 16  1  0  0  0  0
 12 13  2  0  0  0  0
 13 17  1  0  0  0  0
 14 18  1  0  0  0  0
 14 13  1  0  0  0  0
 15 14  1  0  0  0  0
 19  2  1  0  0  0  0
 19 22  1  0  0  0  0
 19 20  1  0  0  0  0
 21 19  1  0  0  0  0
 22 27  1  0  0  0  0
 23 22  2  0  0  0  0
 23 24  1  0  0  0  0
 24 25  2  0  0  0  0
 25 30  1  0  0  0  0
 25 26  1  0  0  0  0
 26 31  1  0  0  0  0
 27 32  1  0  0  0  0
 27 26  2  0  0  0  0
 28 23  1  0  0  0  0
 29 24  1  0  0  0  0
 32 33  1  0  0  0  0
 34 33  1  0  0  0  0
 35 34  1  0  0  0  0
 36 35  1  0  0  0  0
 36 32  1  0  0  0  0
M  END
>  <minimizedAffinity>
-6.66165304

$$$$

 OpenBabel03272509103D

 36 39  0  0  0  0  0  0  0  0999 V2000
   36.4930   27.9310   34.5580 C   0  0  0  0  0  3  0  0  0  0  0  0
   36.2150   28.6520   33.5220 C   0  0  0  0  0  3  0  0  0  0  0  0
   39.5190   26.1710   33.5170 C   0  0  0  0  0  0  0  0  0  0  0  0
   39.6720   25.2230   34.5410 C   0  0  0  0  0  0  0  0  0  0  0  0
   38.7130   25.2130   35.5830 C   0  0  0  0  0  0  0  0  0  0  0  0
   37.6950   26.1300   35.5260 N   0  0  0  0  0  0  0  0  0  0  0  0
   37.6170   27.0140   34.4990 C   0  0  0  0  0  0  0  0  0  0  0  0
   38.5180   27.0290   33.5140 N   0  0  0  0  0  0  0  0  0  0  0  0
   40.2950   26.0910   32.7840 H   0  0  0  0  0  0  0  0  0  0  0  0
   40.4480   24.4760   34.6450 H   0  0  0  0  0  0  0  0  0  0  0  0
   38.7660   24.2760   36.7010 C   0  0  0  0  0  0  0  0  0  0  0  0
   37.9200   24.3620   37.7770 C   0  0  0  0  0  0  0  0  0  0  0  0
   38.2460   23.3190   38.6500 C   0  0  0  0  0  0  0  0  0  0  0  0
   39.2720   22.6430   38.0700 N   0  0  0  0  0  0  0  0  0  0  0  0
   39.5810   23.2200   36.9030 N   0  0  0  0  0  0  0  0  0  0  0  0
   37.1270   25.1080   37.9370 H   0  0  0  0  0  0  0  0  0  0  0  0
   37.7470   23.1390   39.5770 H   0  0  0  0  0  0  0  0  0  0  0  0
   39.6870   21.8110   38.5490 H   0  0  0  0  0  0  0  0  0  0  0  0
   35.1280   29.6340   33.3770 C   0  0  0  0  0  0  0  0  0  0  0  0
   35.4760   30.3670   32.6020 H   0  0  0  0  0  0  0  0  0  0  0  0
   34.1890   29.2160   33.0180 H   0  0  0  0  0  0  0  0  0  0  0  0
   34.9270   30.4760   34.5970 C   0  0  0  0  0  0  0  0  0  0  0  0
   35.8700   31.3930   35.0570 C   0  0  0  0  0  0  0  0  0  0  0  0
   35.6370   32.1440   36.1840 C   0  0  0  0  0  0  0  0  0  0  0  0
   34.4580   32.0060   36.8890 C   0  0  0  0  0  0  0  0  0  0  0  0
   33.5360   31.1100   36.4410 C   0  0  0  0  0  0  0  0  0  0  0  0
   33.7540   30.3490   35.3100 C   0  0  0  0  0  0  0  0  0  0  0  0
   36.7600   31.4220   34.4300 H   0  0  0  0  0  0  0  0  0  0  0  0
   36.4730   32.7990   36.3900 H   0  0  0  0  0  0  0  0  0  0  0  0
   34.3940   32.6450   37.7460 H   0  0  0  0  0  0  0  0  0  0  0  0
   32.6330   31.0460   37.0330 H   0  0  0  0  0  0  0  0  0  0  0  0
   32.6700   29.4260   34.9480 C   0  0  0  0  0  3  0  0  0  0  0  0
   31.6920   30.1750   34.0770 C   0  0  0  0  0  2  0  0  0  0  0  0
   30.5430   30.5050   35.0030 C   0  0  0  0  0  2  0  0  0  0  0  0
   30.5240   29.4440   36.0570 C   0  0  0  0  0  2  0  0  0  0  0  0
   31.9070   28.8540   36.0930 C   0  0  0  0  0  2  0  0  0  0  0  0
  2  1  2  0  0  0  0
  3  4  1  0  0  0  0
  4 10  1  0  0  0  0
  4  5  2  0  0  0  0
  5 11  1  0  0  0  0
  6  5  1  0  0  0  0
  7  1  1  0  0  0  0
  7  6  2  0  0  0  0
  8  3  2  0  0  0  0
  8  7  1  0  0  0  0
  9  3  1  0  0  0  0
 11 15  2  0  0  0  0
 11 12  1  0  0  0  0
 12 16  1  0  0  0  0
 12 13  2  0  0  0  0
 13 17  1  0  0  0  0
 14 18  1  0  0  0  0
 14 13  1  0  0  0  0
 15 14  1  0  0  0  0
 19  2  1  0  0  0  0
 19 22  1  0  0  0  0
 20 19  1  0  0  0  0
 21 19  1  0  0  0  0
 22 23  2  0  0  0  0
 22 27  1  0  0  0  0
 23 24  1  0  0  0  0
 24 29  1  0  0  0  0
 24 25  2  0  0  0  0
 25 30  1  0  0  0  0
 26 25  1  0  0  0  0
 26 31  1  0  0  0  0
 27 26  2  0  0  0  0
 28 23  1  0  0  0  0
 32 27  1  0  0  0  0
 32 36  1  0  0  0  0
 33 32  1  0  0  0  0
 33 34  1  0  0  0  0
 34 35  1  0  0  0  0
 35 36  1  0  0  0  0
M  END
>  <minimizedAffinity>
-6.35280657

$$$$

 OpenBabel03272509103D

 36 39  0  0  0  0  0  0  0  0999 V2000
   36.7670   27.5760   34.0890 C   0  0  0  0  0  3  0  0  0  0  0  0
   36.3800   28.0380   32.9450 C   0  0  0  0  0  3  0  0  0  0  0  0
   39.7360   25.6200   33.2530 C   0  0  0  0  0  0  0  0  0  0  0  0
   39.8580   24.7820   34.3720 C   0  0  0  0  0  0  0  0  0  0  0  0
   38.8970   24.9130   35.4050 C   0  0  0  0  0  0  0  0  0  0  0  0
   37.9090   25.8500   35.2470 N   0  0  0  0  0  0  0  0  0  0  0  0
   37.8610   26.6230   34.1320 C   0  0  0  0  0  0  0  0  0  0  0  0
   38.7630   26.5050   33.1550 N   0  0  0  0  0  0  0  0  0  0  0  0
   40.5090   25.4380   32.5360 H   0  0  0  0  0  0  0  0  0  0  0  0
   40.6090   24.0250   34.5570 H   0  0  0  0  0  0  0  0  0  0  0  0
   38.9200   24.0980   36.6150 C   0  0  0  0  0  0  0  0  0  0  0  0
   38.0300   24.2790   37.6430 C   0  0  0  0  0  0  0  0  0  0  0  0
   38.3350   23.3380   38.6320 C   0  0  0  0  0  0  0  0  0  0  0  0
   39.3940   22.6250   38.1660 N   0  0  0  0  0  0  0  0  0  0  0  0
   39.7410   23.0840   36.9580 N   0  0  0  0  0  0  0  0  0  0  0  0
   37.2210   25.0220   37.6940 H   0  0  0  0  0  0  0  0  0  0  0  0
   37.8030   23.2450   39.5530 H   0  0  0  0  0  0  0  0  0  0  0  0
   39.8020   21.8550   38.7450 H   0  0  0  0  0  0  0  0  0  0  0  0
   35.3000   29.0040   32.6860 C   0  0  0  0  0  0  0  0  0  0  0  0
   34.9070   28.7590   31.6640 H   0  0  0  0  0  0  0  0  0  0  0  0
   34.4590   28.9330   33.3740 H   0  0  0  0  0  0  0  0  0  0  0  0
   35.7870   30.4120   32.5510 C   0  0  0  0  0  0  0  0  0  0  0  0
   36.3030   30.9310   31.3650 C   0  0  0  0  0  0  0  0  0  0  0  0
   36.7370   32.2340   31.2930 C   0  0  0  0  0  0  0  0  0  0  0  0
   36.6710   33.0580   32.3980 C   0  0  0  0  0  0  0  0  0  0  0  0
   36.1680   32.5520   33.5560 C   0  0  0  0  0  0  0  0  0  0  0  0
   35.7270   31.2470   33.6470 C   0  0  0  0  0  0  0  0  0  0  0  0
   36.3090   30.1990   30.5600 H   0  0  0  0  0  0  0  0  0  0  0  0
   37.1020   32.4620   30.3010 H   0  0  0  0  0  0  0  0  0  0  0  0
   37.0380   34.0480   32.2160 H   0  0  0  0  0  0  0  0  0  0  0  0
   36.1410   33.2440   34.3870 H   0  0  0  0  0  0  0  0  0  0  0  0
   35.2100   30.8410   34.9600 C   0  0  0  0  0  3  0  0  0  0  0  0
   33.7240   31.1030   34.9760 C   0  0  0  0  0  2  0  0  0  0  0  0
   33.5780   32.3790   35.7740 C   0  0  0  0  0  2  0  0  0  0  0  0
   34.7380   32.4300   36.7170 C   0  0  0  0  0  2  0  0  0  0  0  0
   35.8050   31.5480   36.1290 C   0  0  0  0  0  2  0  0  0  0  0  0
  1  7  1  0  0  0  0
  2  1  2  0  0  0  0
  3  4  1  0  0  0  0
  4 10  1  0  0  0  0
  4  5  2  0  0  0  0
  5 11  1  0  0  0  0
  6  5  1  0  0  0  0
  7  6  2  0  0  0  0
  8  3  2  0  0  0  0
  8  7  1  0  0  0  0
  9  3  1  0  0  0  0
 11 15  2  0  0  0  0
 11 12  1  0  0  0  0
 12 16  1  0  0  0  0
 12 13  2  0  0  0  0
 13 17  1  0  0  0  0
 14 13  1  0  0  0  0
 14 18  1  0  0  0  0
 15 14  1  0  0  0  0
 19  2  1  0  0  0  0
 19 21  1  0  0  0  0
 20 19  1  0  0  0  0
 22 19  1  0  0  0  0
 22 27  1  0  0  0  0
 23 22  2  0  0  0  0
 24 23  1  0  0  0  0
 24 25  2  0  0  0  0
 25 26  1  0  0  0  0
 26 27  2  0  0  0  0
 26 31  1  0  0  0  0
 27 32  1  0  0  0  0
 28 23  1  0  0  0  0
 29 24  1  0  0  0  0
 30 25  1  0  0  0  0
 32 33  1  0  0  0  0
 32 36  1  0  0  0  0
 33 34  1  0  0  0  0
 34 35  1  0  0  0  0
 36 35  1  0  0  0  0
M  END
>  <minimizedAffinity>
-6.28578329

$$$$

 OpenBabel03272509103D

 36 39  0  0  0  0  0  0  0  0999 V2000
   36.8270   27.8770   33.7520 C   0  0  0  0  0  3  0  0  0  0  0  0
   36.2710   28.7930   34.4760 C   0  0  0  0  0  3  0  0  0  0  0  0
   37.9840   25.0050   35.6880 C   0  0  0  0  0  0  0  0  0  0  0  0
   39.3760   25.0890   35.5320 C   0  0  0  0  0  0  0  0  0  0  0  0
   39.8910   26.1520   34.7500 C   0  0  0  0  0  0  0  0  0  0  0  0
   38.9980   27.0320   34.1950 N   0  0  0  0  0  0  0  0  0  0  0  0
   37.6640   26.8800   34.3950 C   0  0  0  0  0  0  0  0  0  0  0  0
   37.1710   25.8810   35.1300 N   0  0  0  0  0  0  0  0  0  0  0  0
   37.7030   24.1690   36.2950 H   0  0  0  0  0  0  0  0  0  0  0  0
   40.1320   24.4320   35.9410 H   0  0  0  0  0  0  0  0  0  0  0  0
   41.3190   26.3430   34.5160 C   0  0  0  0  0  0  0  0  0  0  0  0
   41.8030   27.2560   33.6140 C   0  0  0  0  0  0  0  0  0  0  0  0
   43.1990   27.1750   33.6440 C   0  0  0  0  0  0  0  0  0  0  0  0
   43.5060   26.2210   34.5620 N   0  0  0  0  0  0  0  0  0  0  0  0
   42.3770   25.7250   35.0810 N   0  0  0  0  0  0  0  0  0  0  0  0
   41.2140   27.9320   32.9760 H   0  0  0  0  0  0  0  0  0  0  0  0
   43.8450   27.7740   33.0410 H   0  0  0  0  0  0  0  0  0  0  0  0
   44.5060   25.9860   34.7570 H   0  0  0  0  0  0  0  0  0  0  0  0
   35.3940   29.8850   34.0230 C   0  0  0  0  0  0  0  0  0  0  0  0
   36.0690   30.6440   33.5460 H   0  0  0  0  0  0  0  0  0  0  0  0
   34.6640   29.5930   33.2700 H   0  0  0  0  0  0  0  0  0  0  0  0
   34.7560   30.6350   35.1500 C   0  0  0  0  0  0  0  0  0  0  0  0
   35.4290   31.5880   35.9120 C   0  0  0  0  0  0  0  0  0  0  0  0
   34.7970   32.2500   36.9370 C   0  0  0  0  0  0  0  0  0  0  0  0
   33.4760   31.9840   37.2350 C   0  0  0  0  0  0  0  0  0  0  0  0
   32.8180   31.0540   36.4920 C   0  0  0  0  0  0  0  0  0  0  0  0
   33.4370   30.3800   35.4590 C   0  0  0  0  0  0  0  0  0  0  0  0
   36.4620   31.7190   35.5930 H   0  0  0  0  0  0  0  0  0  0  0  0
   35.4690   32.9500   37.4140 H   0  0  0  0  0  0  0  0  0  0  0  0
   33.0970   32.5640   38.0530 H   0  0  0  0  0  0  0  0  0  0  0  0
   31.7850   30.8880   36.7720 H   0  0  0  0  0  0  0  0  0  0  0  0
   32.6010   29.4050   34.7460 C   0  0  0  0  0  3  0  0  0  0  0  0
   31.8640   30.1350   33.6510 C   0  0  0  0  0  2  0  0  0  0  0  0
   30.4650   30.3140   34.1970 C   0  0  0  0  0  2  0  0  0  0  0  0
   30.2300   29.1860   35.1490 C   0  0  0  0  0  2  0  0  0  0  0  0
   31.5870   28.7000   35.5790 C   0  0  0  0  0  2  0  0  0  0  0  0
  1  7  1  0  0  0  0
  1  2  2  0  0  0  0
  3  9  1  0  0  0  0
  4  3  1  0  0  0  0
  4 10  1  0  0  0  0
  5  4  2  0  0  0  0
  6  7  2  0  0  0  0
  6  5  1  0  0  0  0
  7  8  1  0  0  0  0
  8  3  2  0  0  0  0
 11  5  1  0  0  0  0
 11 15  2  0  0  0  0
 12 13  2  0  0  0  0
 12 11  1  0  0  0  0
 13 14  1  0  0  0  0
 14 18  1  0  0  0  0
 14 15  1  0  0  0  0
 16 12  1  0  0  0  0
 17 13  1  0  0  0  0
 19  2  1  0  0  0  0
 19 22  1  0  0  0  0
 20 19  1  0  0  0  0
 21 19  1  0  0  0  0
 22 27  2  0  0  0  0
 22 23  1  0  0  0  0
 23 24  2  0  0  0  0
 24 25  1  0  0  0  0
 24 29  1  0  0  0  0
 25 30  1  0  0  0  0
 26 31  1  0  0  0  0
 26 25  2  0  0  0  0
 27 26  1  0  0  0  0
 28 23  1  0  0  0  0
 32 27  1  0  0  0  0
 32 36  1  0  0  0  0
 33 34  1  0  0  0  0
 33 32  1  0  0  0  0
 34 35  1  0  0  0  0
 35 36  1  0  0  0  0
M  END
>  <minimizedAffinity>
-5.90723705

$$$$

 OpenBabel03272509103D

 36 39  0  0  0  0  0  0  0  0999 V2000
   36.7480   28.3450   34.7420 C   0  0  0  0  0  3  0  0  0  0  0  0
   35.6090   28.5580   34.1710 C   0  0  0  0  0  3  0  0  0  0  0  0
   38.5220   25.6500   33.0320 C   0  0  0  0  0  0  0  0  0  0  0  0
   38.7990   24.7670   34.0870 C   0  0  0  0  0  0  0  0  0  0  0  0
   38.3600   25.1280   35.3850 C   0  0  0  0  0  0  0  0  0  0  0  0
   37.6930   26.3170   35.5290 N   0  0  0  0  0  0  0  0  0  0  0  0
   37.4640   27.1160   34.4550 C   0  0  0  0  0  0  0  0  0  0  0  0
   37.8750   26.7820   33.2290 N   0  0  0  0  0  0  0  0  0  0  0  0
   38.8960   25.2820   32.0990 H   0  0  0  0  0  0  0  0  0  0  0  0
   39.3180   23.8180   34.0420 H   0  0  0  0  0  0  0  0  0  0  0  0
   38.5890   24.2920   36.5590 C   0  0  0  0  0  0  0  0  0  0  0  0
   37.9360   24.4960   37.7480 C   0  0  0  0  0  0  0  0  0  0  0  0
   38.3900   23.5260   38.6470 C   0  0  0  0  0  0  0  0  0  0  0  0
   39.2970   22.7730   37.9700 N   0  0  0  0  0  0  0  0  0  0  0  0
   39.4130   23.2360   36.7200 N   0  0  0  0  0  0  0  0  0  0  0  0
   37.1910   25.2760   37.9690 H   0  0  0  0  0  0  0  0  0  0  0  0
   38.0530   23.4420   39.6570 H   0  0  0  0  0  0  0  0  0  0  0  0
   39.7760   21.9760   38.4480 H   0  0  0  0  0  0  0  0  0  0  0  0
   34.7320   29.7310   34.3250 C   0  0  0  0  0  0  0  0  0  0  0  0
   34.1450   29.8040   33.3720 H   0  0  0  0  0  0  0  0  0  0  0  0
   34.0100   29.6490   35.1360 H   0  0  0  0  0  0  0  0  0  0  0  0
   35.4820   31.0250   34.3810 C   0  0  0  0  0  0  0  0  0  0  0  0
   35.9110   31.6090   35.5700 C   0  0  0  0  0  0  0  0  0  0  0  0
   36.5980   32.8000   35.5670 C   0  0  0  0  0  0  0  0  0  0  0  0
   36.8780   33.4450   34.3790 C   0  0  0  0  0  0  0  0  0  0  0  0
   36.4590   32.8760   33.2160 C   0  0  0  0  0  0  0  0  0  0  0  0
   35.7690   31.6800   33.2020 C   0  0  0  0  0  0  0  0  0  0  0  0
   35.6390   31.0190   36.4430 H   0  0  0  0  0  0  0  0  0  0  0  0
   36.8500   33.1010   36.5740 H   0  0  0  0  0  0  0  0  0  0  0  0
   37.4170   34.3620   34.5070 H   0  0  0  0  0  0  0  0  0  0  0  0
   36.7070   33.4260   32.3190 H   0  0  0  0  0  0  0  0  0  0  0  0
   35.3820   31.1870   31.8730 C   0  0  0  0  0  3  0  0  0  0  0  0
   36.5920   30.5410   31.2450 C   0  0  0  0  0  2  0  0  0  0  0  0
   37.0970   31.5710   30.2600 C   0  0  0  0  0  2  0  0  0  0  0  0
   35.9100   32.3790   29.8400 C   0  0  0  0  0  2  0  0  0  0  0  0
   34.8820   32.2230   30.9270 C   0  0  0  0  0  2  0  0  0  0  0  0
  2 19  1  0  0  0  0
  2  1  2  0  0  0  0
  3  8  2  0  0  0  0
  3  4  1  0  0  0  0
  4  5  2  0  0  0  0
  5  6  1  0  0  0  0
  5 11  1  0  0  0  0
  7  1  1  0  0  0  0
  7  6  2  0  0  0  0
  8  7  1  0  0  0  0
  9  3  1  0  0  0  0
 10  4  1  0  0  0  0
 11 15  2  0  0  0  0
 11 12  1  0  0  0  0
 12 16  1  0  0  0  0
 12 13  2  0  0  0  0
 13 17  1  0  0  0  0
 14 18  1  0  0  0  0
 14 13  1  0  0  0  0
 15 14  1  0  0  0  0
 19 22  1  0  0  0  0
 19 21  1  0  0  0  0
 20 19  1  0  0  0  0
 22 23  1  0  0  0  0
 23 28  1  0  0  0  0
 24 23  2  0  0  0  0
 24 29  1  0  0  0  0
 25 30  1  0  0  0  0
 25 24  1  0  0  0  0
 26 25  2  0  0  0  0
 27 26  1  0  0  0  0
 27 22  2  0  0  0  0
 31 26  1  0  0  0  0
 32 27  1  0  0  0  0
 33 32  1  0  0  0  0
 34 33  1  0  0  0  0
 35 34  1  0  0  0  0
 35 36  1  0  0  0  0
 36 32  1  0  0  0  0
M  END
>  <minimizedAffinity>
-5.89072895

$$$$

 OpenBabel03272509103D

 36 39  0  0  0  0  0  0  0  0999 V2000
   37.0290   24.7870   32.2910 C   0  0  0  0  0  3  0  0  0  0  0  0
   36.5190   23.5990   32.2780 C   0  0  0  0  0  3  0  0  0  0  0  0
   37.7550   27.1120   35.0120 C   0  0  0  0  0  0  0  0  0  0  0  0
   38.3270   26.2660   35.9740 C   0  0  0  0  0  0  0  0  0  0  0  0
   38.4510   24.8910   35.6570 C   0  0  0  0  0  0  0  0  0  0  0  0
   38.0050   24.4730   34.4300 N   0  0  0  0  0  0  0  0  0  0  0  0
   37.4630   25.3560   33.5540 C   0  0  0  0  0  0  0  0  0  0  0  0
   37.3430   26.6540   33.8460 N   0  0  0  0  0  0  0  0  0  0  0  0
   37.7090   28.1260   35.3530 H   0  0  0  0  0  0  0  0  0  0  0  0
   38.6970   26.5300   36.9560 H   0  0  0  0  0  0  0  0  0  0  0  0
   39.0290   23.9150   36.5760 C   0  0  0  0  0  0  0  0  0  0  0  0
   40.1940   23.2450   36.3030 C   0  0  0  0  0  0  0  0  0  0  0  0
   40.4530   22.3970   37.3850 C   0  0  0  0  0  0  0  0  0  0  0  0
   39.4380   22.5870   38.2690 N   0  0  0  0  0  0  0  0  0  0  0  0
   38.5870   23.4960   37.7800 N   0  0  0  0  0  0  0  0  0  0  0  0
   40.8200   23.3450   35.4030 H   0  0  0  0  0  0  0  0  0  0  0  0
   41.3000   21.7510   37.4480 H   0  0  0  0  0  0  0  0  0  0  0  0
   39.4200   22.0510   39.1670 H   0  0  0  0  0  0  0  0  0  0  0  0
   36.0230   22.8480   31.1140 C   0  0  0  0  0  0  0  0  0  0  0  0
   34.9510   23.1530   30.9850 H   0  0  0  0  0  0  0  0  0  0  0  0
   36.5320   23.0780   30.1800 H   0  0  0  0  0  0  0  0  0  0  0  0
   35.9450   21.3730   31.3530 C   0  0  0  0  0  0  0  0  0  0  0  0
   34.8540   20.7520   31.9560 C   0  0  0  0  0  0  0  0  0  0  0  0
   34.8320   19.3920   32.1530 C   0  0  0  0  0  0  0  0  0  0  0  0
   35.8960   18.6080   31.7540 C   0  0  0  0  0  0  0  0  0  0  0  0
   36.9630   19.2130   31.1650 C   0  0  0  0  0  0  0  0  0  0  0  0
   37.0010   20.5770   30.9600 C   0  0  0  0  0  0  0  0  0  0  0  0
   34.0740   21.4610   32.2300 H   0  0  0  0  0  0  0  0  0  0  0  0
   33.9110   19.0870   32.6310 H   0  0  0  0  0  0  0  0  0  0  0  0
   35.7600   17.5650   31.9610 H   0  0  0  0  0  0  0  0  0  0  0  0
   37.7650   18.5480   30.8740 H   0  0  0  0  0  0  0  0  0  0  0  0
   38.2170   21.0880   30.3120 C   0  0  0  0  0  3  0  0  0  0  0  0
   38.6600   20.0740   29.2870 C   0  0  0  0  0  2  0  0  0  0  0  0
   39.8130   19.3530   29.9490 C   0  0  0  0  0  2  0  0  0  0  0  0
   40.4270   20.3200   30.9100 C   0  0  0  0  0  2  0  0  0  0  0  0
   39.3690   21.3410   31.2230 C   0  0  0  0  0  2  0  0  0  0  0  0
  1  7  1  0  0  0  0
  2  1  2  0  0  0  0
  3  9  1  0  0  0  0
  3  4  1  0  0  0  0
  4 10  1  0  0  0  0
  5  4  2  0  0  0  0
  5 11  1  0  0  0  0
  6  5  1  0  0  0  0
  7  8  1  0  0  0  0
  7  6  2  0  0  0  0
  8  3  2  0  0  0  0
 11 15  2  0  0  0  0
 12 11  1  0  0  0  0
 12 13  2  0  0  0  0
 13 17  1  0  0  0  0
 13 14  1  0  0  0  0
 14 18  1  0  0  0  0
 15 14  1  0  0  0  0
 16 12  1  0  0  0  0
 19 22  1  0  0  0  0
 19  2  1  0  0  0  0
 20 19  1  0  0  0  0
 21 19  1  0  0  0  0
 22 23  1  0  0  0  0
 23 24  2  0  0  0  0
 23 28  1  0  0  0  0
 24 29  1  0  0  0  0
 25 30  1  0  0  0  0
 25 24  1  0  0  0  0
 26 25  2  0  0  0  0
 27 26  1  0  0  0  0
 27 22  2  0  0  0  0
 31 26  1  0  0  0  0
 32 27  1  0  0  0  0
 32 36  1  0  0  0  0
 33 34  1  0  0  0  0
 33 32  1  0  0  0  0
 34 35  1  0  0  0  0
 35 36  1  0  0  0  0
M  END
>  <minimizedAffinity>
-5.88233089

$$$$

 OpenBabel03272509103D

 36 39  0  0  0  0  0  0  0  0999 V2000
   37.3840   27.5260   33.6820 C   0  0  0  0  0  3  0  0  0  0  0  0
   37.8400   27.3120   34.8720 C   0  0  0  0  0  3  0  0  0  0  0  0
   34.4780   29.2570   32.3060 C   0  0  0  0  0  0  0  0  0  0  0  0
   34.1410   30.1350   33.3480 C   0  0  0  0  0  0  0  0  0  0  0  0
   34.9370   30.1090   34.5190 C   0  0  0  0  0  0  0  0  0  0  0  0
   35.9870   29.2290   34.5620 N   0  0  0  0  0  0  0  0  0  0  0  0
   36.2470   28.4110   33.5100 C   0  0  0  0  0  0  0  0  0  0  0  0
   35.5000   28.4300   32.4030 N   0  0  0  0  0  0  0  0  0  0  0  0
   33.8140   29.3580   31.4720 H   0  0  0  0  0  0  0  0  0  0  0  0
   33.3300   30.8510   33.3780 H   0  0  0  0  0  0  0  0  0  0  0  0
   34.6850   30.9740   35.6670 C   0  0  0  0  0  0  0  0  0  0  0  0
   33.4230   31.2060   36.1540 C   0  0  0  0  0  0  0  0  0  0  0  0
   33.5480   32.0710   37.2460 C   0  0  0  0  0  0  0  0  0  0  0  0
   34.8760   32.3290   37.3780 N   0  0  0  0  0  0  0  0  0  0  0  0
   35.5530   31.6710   36.4300 N   0  0  0  0  0  0  0  0  0  0  0  0
   32.4790   30.7930   35.7670 H   0  0  0  0  0  0  0  0  0  0  0  0
   32.7230   32.4250   37.8240 H   0  0  0  0  0  0  0  0  0  0  0  0
   35.2120   32.9620   38.1390 H   0  0  0  0  0  0  0  0  0  0  0  0
   38.9750   26.4570   35.2580 C   0  0  0  0  0  0  0  0  0  0  0  0
   39.3620   26.0100   34.3050 H   0  0  0  0  0  0  0  0  0  0  0  0
   39.8050   26.9910   35.7170 H   0  0  0  0  0  0  0  0  0  0  0  0
   38.5680   25.2670   36.0680 C   0  0  0  0  0  0  0  0  0  0  0  0
   38.1490   25.3520   37.3940 C   0  0  0  0  0  0  0  0  0  0  0  0
   37.7850   24.2260   38.0950 C   0  0  0  0  0  0  0  0  0  0  0  0
   37.8270   22.9820   37.4980 C   0  0  0  0  0  0  0  0  0  0  0  0
   38.2360   22.8980   36.2030 C   0  0  0  0  0  0  0  0  0  0  0  0
   38.6050   24.0180   35.4840 C   0  0  0  0  0  0  0  0  0  0  0  0
   38.1530   26.3750   37.7650 H   0  0  0  0  0  0  0  0  0  0  0  0
   37.4880   24.4810   39.1040 H   0  0  0  0  0  0  0  0  0  0  0  0
   37.5190   22.1860   38.1450 H   0  0  0  0  0  0  0  0  0  0  0  0
   38.2480   21.8990   35.7890 H   0  0  0  0  0  0  0  0  0  0  0  0
   39.0240   23.7730   34.0980 C   0  0  0  0  0  3  0  0  0  0  0  0
   37.7990   23.8510   33.2200 C   0  0  0  0  0  2  0  0  0  0  0  0
   37.4510   22.4070   32.9330 C   0  0  0  0  0  2  0  0  0  0  0  0
   38.7300   21.6360   33.0110 C   0  0  0  0  0  2  0  0  0  0  0  0
   39.6730   22.4550   33.8490 C   0  0  0  0  0  2  0  0  0  0  0  0
  1  2  2  0  0  0  0
  2 19  1  0  0  0  0
  3  8  2  0  0  0  0
  3  4  1  0  0  0  0
  4 10  1  0  0  0  0
  4  5  2  0  0  0  0
  5  6  1  0  0  0  0
  5 11  1  0  0  0  0
  7  1  1  0  0  0  0
  7  6  2  0  0  0  0
  8  7  1  0  0  0  0
  9  3  1  0  0  0  0
 11 12  1  0  0  0  0
 11 15  2  0  0  0  0
 12 13  2  0  0  0  0
 13 14  1  0  0  0  0
 13 17  1  0  0  0  0
 14 18  1  0  0  0  0
 15 14  1  0  0  0  0
 16 12  1  0  0  0  0
 19 21  1  0  0  0  0
 19 22  1  0  0  0  0
 20 19  1  0  0  0  0
 22 23  1  0  0  0  0
 23 28  1  0  0  0  0
 23 24  2  0  0  0  0
 24 29  1  0  0  0  0
 25 24  1  0  0  0  0
 25 30  1  0  0  0  0
 26 25  2  0  0  0  0
 27 22  2  0  0  0  0
 27 26  1  0  0  0  0
 31 26  1  0  0  0  0
 32 27  1  0  0  0  0
 33 32  1  0  0  0  0
 34 35  1  0  0  0  0
 34 33  1  0  0  0  0
 35 36  1  0  0  0  0
 36 32  1  0  0  0  0
M  END
>  <minimizedAffinity>
-5.86600447

$$$$

 OpenBabel03272509103D

 36 39  0  0  0  0  0  0  0  0999 V2000
   37.3790   26.4050   33.7720 C   0  0  0  0  0  3  0  0  0  0  0  0
   38.2590   25.8390   33.0120 C   0  0  0  0  0  3  0  0  0  0  0  0
   35.8270   28.9050   31.6100 C   0  0  0  0  0  0  0  0  0  0  0  0
   35.3340   29.8320   32.5420 C   0  0  0  0  0  0  0  0  0  0  0  0
   35.5540   29.5690   33.9160 C   0  0  0  0  0  0  0  0  0  0  0  0
   36.2330   28.4250   34.2500 N   0  0  0  0  0  0  0  0  0  0  0  0
   36.6770   27.5790   33.2870 C   0  0  0  0  0  0  0  0  0  0  0  0
   36.4730   27.8210   31.9890 N   0  0  0  0  0  0  0  0  0  0  0  0
   35.6070   29.2000   30.6040 H   0  0  0  0  0  0  0  0  0  0  0  0
   34.7940   30.7490   32.3460 H   0  0  0  0  0  0  0  0  0  0  0  0
   35.0900   30.4570   34.9770 C   0  0  0  0  0  0  0  0  0  0  0  0
   35.9430   31.2590   35.6930 C   0  0  0  0  0  0  0  0  0  0  0  0
   35.1710   31.9700   36.6180 C   0  0  0  0  0  0  0  0  0  0  0  0
   33.8850   31.5740   36.4260 N   0  0  0  0  0  0  0  0  0  0  0  0
   33.8420   30.6670   35.4430 N   0  0  0  0  0  0  0  0  0  0  0  0
   37.0330   31.3380   35.5730 H   0  0  0  0  0  0  0  0  0  0  0  0
   35.5710   32.6750   37.3130 H   0  0  0  0  0  0  0  0  0  0  0  0
   33.1200   31.9780   37.0140 H   0  0  0  0  0  0  0  0  0  0  0  0
   39.0730   24.6500   33.3130 C   0  0  0  0  0  0  0  0  0  0  0  0
   39.4890   24.3050   32.3290 H   0  0  0  0  0  0  0  0  0  0  0  0
   39.9230   24.8410   33.9660 H   0  0  0  0  0  0  0  0  0  0  0  0
   38.2630   23.4840   33.7850 C   0  0  0  0  0  0  0  0  0  0  0  0
   37.5500   22.6510   32.9250 C   0  0  0  0  0  0  0  0  0  0  0  0
   36.8210   21.5910   33.4100 C   0  0  0  0  0  0  0  0  0  0  0  0
   36.7800   21.3280   34.7650 C   0  0  0  0  0  0  0  0  0  0  0  0
   37.4760   22.1410   35.6050 C   0  0  0  0  0  0  0  0  0  0  0  0
   38.2140   23.2090   35.1350 C   0  0  0  0  0  0  0  0  0  0  0  0
   37.6510   22.9470   31.8830 H   0  0  0  0  0  0  0  0  0  0  0  0
   36.3370   21.0570   32.6040 H   0  0  0  0  0  0  0  0  0  0  0  0
   36.1800   20.4770   35.0170 H   0  0  0  0  0  0  0  0  0  0  0  0
   37.4070   21.8850   36.6540 H   0  0  0  0  0  0  0  0  0  0  0  0
   38.9120   23.9970   36.1590 C   0  0  0  0  0  3  0  0  0  0  0  0
   40.2570   23.3570   36.4030 C   0  0  0  0  0  2  0  0  0  0  0  0
   40.0800   22.5980   37.6990 C   0  0  0  0  0  2  0  0  0  0  0  0
   39.0200   23.3150   38.4740 C   0  0  0  0  0  2  0  0  0  0  0  0
   38.2170   24.0990   37.4730 C   0  0  0  0  0  2  0  0  0  0  0  0
  2 19  1  0  0  0  0
  2  1  2  0  0  0  0
  3  8  2  0  0  0  0
  3  4  1  0  0  0  0
  4  5  2  0  0  0  0
  5  6  1  0  0  0  0
  5 11  1  0  0  0  0
  7  1  1  0  0  0  0
  7  6  2  0  0  0  0
  8  7  1  0  0  0  0
  9  3  1  0  0  0  0
 10  4  1  0  0  0  0
 11 15  2  0  0  0  0
 11 12  1  0  0  0  0
 12 13  2  0  0  0  0
 13 17  1  0  0  0  0
 14 13  1  0  0  0  0
 14 18  1  0  0  0  0
 15 14  1  0  0  0  0
 16 12  1  0  0  0  0
 19 22  1  0  0  0  0
 19 21  1  0  0  0  0
 20 19  1  0  0  0  0
 22 27  1  0  0  0  0
 23 24  1  0  0  0  0
 23 22  2  0  0  0  0
 24 25  2  0  0  0  0
 25 30  1  0  0  0  0
 25 26  1  0  0  0  0
 26 31  1  0  0  0  0
 27 26  2  0  0  0  0
 27 32  1  0  0  0  0
 28 23  1  0  0  0  0
 29 24  1  0  0  0  0
 32 33  1  0  0  0  0
 32 36  1  0  0  0  0
 33 34  1  0  0  0  0
 34 35  1  0  0  0  0
 36 35  1  0  0  0  0
M  END
>  <minimizedAffinity>
-5.861094

$$$$

 OpenBabel03272509103D

 36 39  0  0  0  0  0  0  0  0999 V2000
   36.8720   27.5990   33.1880 C   0  0  0  0  0  3  0  0  0  0  0  0
   37.3170   27.0380   32.1120 C   0  0  0  0  0  3  0  0  0  0  0  0
   34.7480   30.2630   31.8710 C   0  0  0  0  0  0  0  0  0  0  0  0
   34.4200   30.9760   33.0350 C   0  0  0  0  0  0  0  0  0  0  0  0
   34.9470   30.5150   34.2660 C   0  0  0  0  0  0  0  0  0  0  0  0
   35.7450   29.4000   34.2440 N   0  0  0  0  0  0  0  0  0  0  0  0
   36.0160   28.7660   33.0750 C   0  0  0  0  0  0  0  0  0  0  0  0
   35.5220   29.1960   31.9110 N   0  0  0  0  0  0  0  0  0  0  0  0
   34.2990   30.6950   31.0010 H   0  0  0  0  0  0  0  0  0  0  0  0
   33.7990   31.8590   33.1210 H   0  0  0  0  0  0  0  0  0  0  0  0
   34.6770   31.1730   35.5400 C   0  0  0  0  0  0  0  0  0  0  0  0
   33.4090   31.3110   36.0440 C   0  0  0  0  0  0  0  0  0  0  0  0
   33.5150   31.9810   37.2680 C   0  0  0  0  0  0  0  0  0  0  0  0
   34.8390   32.2220   37.4560 N   0  0  0  0  0  0  0  0  0  0  0  0
   35.5310   31.7370   36.4190 N   0  0  0  0  0  0  0  0  0  0  0  0
   32.4720   30.9630   35.5830 H   0  0  0  0  0  0  0  0  0  0  0  0
   32.6820   32.2270   37.8880 H   0  0  0  0  0  0  0  0  0  0  0  0
   35.1620   32.7200   38.3170 H   0  0  0  0  0  0  0  0  0  0  0  0
   38.1890   25.8570   32.0110 C   0  0  0  0  0  0  0  0  0  0  0  0
   38.6370   25.8920   30.9830 H   0  0  0  0  0  0  0  0  0  0  0  0
   39.0180   25.8480   32.7170 H   0  0  0  0  0  0  0  0  0  0  0  0
   37.4360   24.5640   32.0260 C   0  0  0  0  0  0  0  0  0  0  0  0
   36.4210   24.2600   31.1220 C   0  0  0  0  0  0  0  0  0  0  0  0
   35.7590   23.0560   31.1780 C   0  0  0  0  0  0  0  0  0  0  0  0
   36.0890   22.1180   32.1370 C   0  0  0  0  0  0  0  0  0  0  0  0
   37.0790   22.4150   33.0210 C   0  0  0  0  0  0  0  0  0  0  0  0
   37.7540   23.6180   32.9780 C   0  0  0  0  0  0  0  0  0  0  0  0
   36.2440   25.0660   30.4120 H   0  0  0  0  0  0  0  0  0  0  0  0
   35.0080   22.9940   30.4030 H   0  0  0  0  0  0  0  0  0  0  0  0
   35.5040   21.2230   32.0770 H   0  0  0  0  0  0  0  0  0  0  0  0
   37.2930   21.6420   33.7470 H   0  0  0  0  0  0  0  0  0  0  0  0
   38.7990   23.7960   33.9950 C   0  0  0  0  0  3  0  0  0  0  0  0
   39.3120   22.4310   34.3810 C   0  0  0  0  0  2  0  0  0  0  0  0
   38.6480   22.1430   35.7090 C   0  0  0  0  0  2  0  0  0  0  0  0
   38.3860   23.4680   36.3520 C   0  0  0  0  0  2  0  0  0  0  0  0
   38.3660   24.4850   35.2440 C   0  0  0  0  0  2  0  0  0  0  0  0
  2  1  2  0  0  0  0
  3  8  2  0  0  0  0
  3  4  1  0  0  0  0
  4 10  1  0  0  0  0
  4  5  2  0  0  0  0
  5 11  1  0  0  0  0
  6  5  1  0  0  0  0
  7  1  1  0  0  0  0
  7  6  2  0  0  0  0
  8  7  1  0  0  0  0
  9  3  1  0  0  0  0
 11 12  1  0  0  0  0
 11 15  2  0  0  0  0
 12 13  2  0  0  0  0
 13 14  1  0  0  0  0
 13 17  1  0  0  0  0
 14 18  1  0  0  0  0
 15 14  1  0  0  0  0
 16 12  1  0  0  0  0
 19 22  1  0  0  0  0
 19  2  1  0  0  0  0
 19 21  1  0  0  0  0
 20 19  1  0  0  0  0
 22 27  1  0  0  0  0
 23 24  1  0  0  0  0
 23 22  2  0  0  0  0
 24 25  2  0  0  0  0
 25 26  1  0  0  0  0
 26 31  1  0  0  0  0
 27 26  2  0  0  0  0
 27 32  1  0  0  0  0
 28 23  1  0  0  0  0
 29 24  1  0  0  0  0
 30 25  1  0  0  0  0
 32 33  1  0  0  0  0
 32 36  1  0  0  0  0
 33 34  1  0  0  0  0
 34 35  1  0  0  0  0
 36 35  1  0  0  0  0
M  END
>  <minimizedAffinity>
-5.79697847

$$$$
