
 OpenBabel03272510273D

 41 45  0  0  1  0  0  0  0  0999 V2000
   36.2510   30.1840   46.9180 C   0  0  0  0  0  0  0  0  0  0  0  0
   37.0820   30.7480   47.8830 C   0  0  0  0  0  0  0  0  0  0  0  0
   38.0680   31.6760   47.5340 C   0  0  0  0  0  0  0  0  0  0  0  0
   38.1670   31.9940   46.1830 C   0  0  0  0  0  0  0  0  0  0  0  0
   39.0410   32.8670   45.6010 N   0  0  0  0  0  0  0  0  0  0  0  0
   38.7670   32.8550   44.2890 C   0  0  0  0  0  0  0  0  0  0  0  0
   37.7710   32.0170   44.0470 N   0  0  0  0  0  0  0  0  0  0  0  0
   37.3670   31.4610   45.2020 C   0  0  0  0  0  0  0  0  0  0  0  0
   36.3900   30.5350   45.5860 C   0  0  0  0  0  0  0  0  0  0  0  0
   35.4860   29.4650   47.1860 H   0  0  0  0  0  0  0  0  0  0  0  0
   38.7220   32.1220   48.2790 H   0  0  0  0  0  0  0  0  0  0  0  0
   39.7850   33.4380   46.0870 H   0  0  0  0  0  0  0  0  0  0  0  0
   35.7610   30.1140   44.8120 H   0  0  0  0  0  0  0  0  0  0  0  0
   37.4390   30.1300   51.5630 C   0  0  0  0  0  0  0  0  0  0  0  0
   37.7810   30.5810   50.3010 C   0  0  0  0  0  0  0  0  0  0  0  0
   36.9010   30.3530   49.2670 C   0  0  0  0  0  0  0  0  0  0  0  0
   35.7300   29.6840   49.5650 N   0  0  0  0  0  0  0  0  0  0  0  0
   35.4190   29.2530   50.8040 C   0  0  0  0  0  0  0  0  0  0  0  0
   36.2660   29.4750   51.7850 N   0  0  0  0  0  0  0  0  0  0  0  0
   38.1900   30.3520   52.3180 H   0  0  0  0  0  0  0  0  0  0  0  0
   38.6930   31.1050   50.0550 H   0  0  0  0  0  0  0  0  0  0  0  0
   34.4830   28.7360   50.9660 H   0  0  0  0  0  0  0  0  0  0  0  0
   39.4700   33.6360   43.3700 O   0  0  0  0  0  0  0  0  0  0  0  0
   39.7010   31.8680   41.9070 N   0  0  0  0  0  0  0  0  0  0  0  0
   39.3180   33.2680   42.0070 C   0  0  1  0  0  0  0  0  0  0  0  0
   37.9440   33.4530   41.5670 C   0  0  0  0  0  0  0  0  0  0  0  0
   37.8540   33.0980   40.2100 O   0  0  0  0  0  0  0  0  0  0  0  0
   38.2960   31.8440   39.9020 C   0  0  0  0  0  0  0  0  0  0  0  0
   39.6740   31.6010   40.4900 C   0  0  2  0  0  0  0  0  0  0  0  0
   39.0860   31.1820   42.3180 H   0  0  0  0  0  0  0  0  0  0  0  0
   40.0160   33.8310   41.3650 H   0  0  0  0  0  0  0  0  0  0  0  0
   37.7480   34.5700   41.5470 H   0  0  0  0  0  0  0  0  0  0  0  0
   37.0920   33.0090   42.0030 H   0  0  0  0  0  0  0  0  0  0  0  0
   37.5490   31.1260   40.2750 H   0  0  0  0  0  0  0  0  0  0  0  0
   38.4180   31.7910   38.8130 H   0  0  0  0  0  0  0  0  0  0  0  0
   40.3130   32.3940   40.0340 H   0  0  0  0  0  0  0  0  0  0  0  0
   40.2660   30.3020   40.0980 C   0  0  0  0  0  3  0  0  0  0  0  0
   39.2160   29.2360   39.9230 C   0  0  0  0  0  2  0  0  0  0  0  0
   40.1240   28.0290   39.6510 C   0  0  0  0  0  2  0  0  0  0  0  0
   41.1330   28.1820   40.7670 C   0  0  0  0  0  2  0  0  0  0  0  0
   41.1690   29.6760   41.1140 C   0  0  0  0  0  2  0  0  0  0  0  0
  1 10  1  0  0  0  0
  1  2  1  0  0  0  0
  2 16  1  0  0  0  0
  3  2  2  0  0  0  0
  3 11  1  0  0  0  0
  4  3  1  0  0  0  0
  5 12  1  0  0  0  0
  5  4  1  0  0  0  0
  6  5  1  0  0  0  0
  7  6  2  0  0  0  0
  7  8  1  0  0  0  0
  8  9  1  0  0  0  0
  8  4  2  0  0  0  0
  9  1  2  0  0  0  0
 13  9  1  0  0  0  0
 14 19  1  0  0  0  0
 14 20  1  0  0  0  0
 15 14  2  0  0  0  0
 16 17  2  0  0  0  0
 16 15  1  0  0  0  0
 17 18  1  0  0  0  0
 18 22  1  0  0  0  0
 18 19  2  0  0  0  0
 21 15  1  0  0  0  0
 23  6  1  0  0  0  0
 24 25  1  0  0  0  0
 24 30  1  0  0  0  0
 25 31  1  6  0  0  0
 25 23  1  0  0  0  0
 26 33  1  0  0  0  0
 26 25  1  0  0  0  0
 27 26  1  0  0  0  0
 28 27  1  0  0  0  0
 28 34  1  0  0  0  0
 28 29  1  0  0  0  0
 29 36  1  6  0  0  0
 29 24  1  0  0  0  0
 32 26  1  0  0  0  0
 35 28  1  0  0  0  0
 37 29  1  0  0  0  0
 37 41  1  0  0  0  0
 38 37  1  0  0  0  0
 39 38  1  0  0  0  0
 39 40  1  0  0  0  0
 40 41  1  0  0  0  0
M  END
>  <minimizedAffinity>
-5.91996241

>  <minimizedRMSD>
0.240925416

$$$$
