
 OpenBabel03272510333D

 24 26  0  0  0  0  0  0  0  0999 V2000
   35.6340   30.0910   48.1250 C   0  0  0  0  0  0  0  0  0  0  0  0
   34.7190   30.3540   47.1300 C   0  0  0  0  0  0  0  0  0  0  0  0
   33.6260   29.5130   46.9720 C   0  0  0  0  0  0  0  0  0  0  0  0
   33.4770   28.4370   47.8080 C   0  0  0  0  0  0  0  0  0  0  0  0
   34.3970   28.1670   48.8130 C   0  0  0  0  0  0  0  0  0  0  0  0
   35.5100   28.9970   48.9970 C   0  0  0  0  0  0  0  0  0  0  0  0
   34.8220   31.1990   46.4610 H   0  0  0  0  0  0  0  0  0  0  0  0
   32.8990   29.6980   46.2040 H   0  0  0  0  0  0  0  0  0  0  0  0
   32.5990   27.7990   47.6470 H   0  0  0  0  0  0  0  0  0  0  0  0
   34.2020   27.3010   49.4230 H   0  0  0  0  0  0  0  0  0  0  0  0
   37.6590   32.9000   49.2880 C   0  0  0  0  0  0  0  0  0  0  0  0
   38.8400   32.8070   48.5580 C   0  0  0  0  0  0  0  0  0  0  0  0
   38.9410   31.7330   47.6260 C   0  0  0  0  0  0  0  0  0  0  0  0
   37.8980   30.8730   47.5050 N   0  0  0  0  0  0  0  0  0  0  0  0
   36.7650   31.0060   48.2410 C   0  0  0  0  0  0  0  0  0  0  0  0
   36.6830   32.0200   49.1120 N   0  0  0  0  0  0  0  0  0  0  0  0
   37.6380   33.7320   49.9770 H   0  0  0  0  0  0  0  0  0  0  0  0
   39.7190   33.4390   48.5870 H   0  0  0  0  0  0  0  0  0  0  0  0
   39.7850   31.5320   46.9970 H   0  0  0  0  0  0  0  0  0  0  0  0
   36.4790   28.7120   50.0590 C   0  0  0  0  0  3  0  0  0  0  0  0
   37.8050   29.3800   49.9180 C   0  0  0  0  0  2  0  0  0  0  0  0
   38.1640   29.9750   51.2830 C   0  0  0  0  0  2  0  0  0  0  0  0
   36.8030   30.3420   51.8190 C   0  0  0  0  0  2  0  0  0  0  0  0
   35.9560   29.1790   51.4080 C   0  0  0  0  0  2  0  0  0  0  0  0
  1 15  1  0  0  0  0
  1  6  1  0  0  0  0
  2  1  2  0  0  0  0
  3  2  1  0  0  0  0
  3  4  2  0  0  0  0
  4  5  1  0  0  0  0
  5  6  2  0  0  0  0
  5 10  1  0  0  0  0
  6 20  1  0  0  0  0
  7  2  1  0  0  0  0
  8  3  1  0  0  0  0
  9  4  1  0  0  0  0
 11 17  1  0  0  0  0
 12 18  1  0  0  0  0
 12 11  2  0  0  0  0
 13 12  1  0  0  0  0
 14 13  2  0  0  0  0
 14 15  1  0  0  0  0
 15 16  2  0  0  0  0
 16 11  1  0  0  0  0
 19 13  1  0  0  0  0
 20 24  1  0  0  0  0
 21 20  1  0  0  0  0
 21 22  1  0  0  0  0
 22 23  1  0  0  0  0
 24 23  1  0  0  0  0
M  END
>  <minimizedAffinity>
-5.06208849

>  <minimizedRMSD>
0.950662136

$$$$
