
 OpenBabel03272506223D

 24 26  0  0  0  0  0  0  0  0999 V2000
   37.6320   30.4800   50.9260 C   0  0  0  0  0  0  0  0  0  0  0  0
   37.1860   30.8060   49.6110 C   0  0  0  0  0  0  0  0  0  0  0  0
   35.9640   30.2570   49.1850 C   0  0  0  0  0  0  0  0  0  0  0  0
   35.2830   29.4540   50.0410 N   0  0  0  0  0  0  0  0  0  0  0  0
   35.7330   29.1590   51.2920 C   0  0  0  0  0  0  0  0  0  0  0  0
   36.8950   29.6730   51.7150 N   0  0  0  0  0  0  0  0  0  0  0  0
   38.5540   30.8440   51.3570 H   0  0  0  0  0  0  0  0  0  0  0  0
   35.1040   28.5060   51.8870 H   0  0  0  0  0  0  0  0  0  0  0  0
   38.0410   31.6760   48.8360 C   0  0  0  0  0  0  0  0  0  0  0  0
   38.5510   31.1760   47.6660 C   0  0  0  0  0  0  0  0  0  0  0  0
   39.3730   31.8750   46.8090 C   0  0  0  0  0  0  0  0  0  0  0  0
   39.7230   33.1880   47.1370 C   0  0  0  0  0  0  0  0  0  0  0  0
   39.2090   33.7040   48.3280 C   0  0  0  0  0  0  0  0  0  0  0  0
   38.3890   32.9900   49.1730 C   0  0  0  0  0  0  0  0  0  0  0  0
   38.4050   30.1690   47.2400 H   0  0  0  0  0  0  0  0  0  0  0  0
   39.8020   31.5520   45.8870 H   0  0  0  0  0  0  0  0  0  0  0  0
   40.3540   33.8340   46.5510 H   0  0  0  0  0  0  0  0  0  0  0  0
   39.4050   34.7020   48.6940 H   0  0  0  0  0  0  0  0  0  0  0  0
   37.9820   33.3740   50.0990 H   0  0  0  0  0  0  0  0  0  0  0  0
   35.4390   30.5690   47.8660 C   0  0  0  0  0  0  0  0  0  0  0  0
   33.9250   30.5880   47.9480 C   0  0  0  0  0  0  0  0  0  0  0  0
   33.4480   29.9800   46.6720 C   0  0  0  0  0  0  0  0  0  0  0  0
   34.6730   29.5260   45.8870 C   0  0  0  0  0  0  0  0  0  0  0  0
   35.7860   29.4450   46.9130 C   0  0  0  0  0  0  0  0  0  0  0  0
  1  7  1  0  0  0  0
  1  6  1  0  0  0  0
  2  1  2  0  0  0  0
  3  2  1  0  0  0  0
  3  4  2  0  0  0  0
  4  5  1  0  0  0  0
  5  6  2  0  0  0  0
  5  8  1  0  0  0  0
  9 14  1  0  0  0  0
  9  2  1  0  0  0  0
 10  9  2  0  0  0  0
 11 12  2  0  0  0  0
 11 10  1  0  0  0  0
 12 13  1  0  0  0  0
 13 18  1  0  0  0  0
 13 14  2  0  0  0  0
 14 19  1  0  0  0  0
 15 10  1  0  0  0  0
 16 11  1  0  0  0  0
 17 12  1  0  0  0  0
 20 21  1  0  0  0  0
 20  3  1  0  0  0  0
 22 21  1  0  0  0  0
 23 22  1  0  0  0  0
 23 24  1  0  0  0  0
 24 20  1  0  0  0  0
M  END
>  <minimizedAffinity>
-5.01696301

>  <minimizedRMSD>
0.866002321

$$$$
