
 OpenBabel03272508183D

 21 23  0  0  0  0  0  0  0  0999 V2000
   35.6240   30.2530   48.0540 C   0  0  0  0  0  0  0  0  0  0  0  0
   36.8270   30.8410   47.6530 C   0  0  0  0  0  0  0  0  0  0  0  0
   37.0580   30.8700   46.2860 C   0  0  0  0  0  0  0  0  0  0  0  0
   36.1450   30.3500   45.4280 N   0  0  0  0  0  0  0  0  0  0  0  0
   34.9810   29.7830   45.8480 C   0  0  0  0  0  0  0  0  0  0  0  0
   34.7350   29.7430   47.1660 N   0  0  0  0  0  0  0  0  0  0  0  0
   37.8720   31.2420   45.7110 H   0  0  0  0  0  0  0  0  0  0  0  0
   34.2440   29.3650   45.1770 H   0  0  0  0  0  0  0  0  0  0  0  0
   35.3190   30.3070   49.5280 C   0  0  0  0  0  0  0  0  0  0  0  0
   34.2780   29.4980   50.1130 C   0  0  0  0  0  0  0  0  0  0  0  0
   35.6870   28.9770   50.2130 C   0  0  0  0  0  0  0  0  0  0  0  0
   35.8070   31.1570   50.0390 H   0  0  0  0  0  0  0  0  0  0  0  0
   33.7780   29.8290   51.0560 H   0  0  0  0  0  0  0  0  0  0  0  0
   33.6110   28.9420   49.3950 H   0  0  0  0  0  0  0  0  0  0  0  0
   35.9550   28.1340   49.5620 H   0  0  0  0  0  0  0  0  0  0  0  0
   36.2650   29.0860   51.1230 H   0  0  0  0  0  0  0  0  0  0  0  0
   37.9080   31.4200   48.4780 C   0  0  0  0  0  0  0  0  0  0  0  0
   38.7450   32.3680   47.6530 C   0  0  0  0  0  0  0  0  0  0  0  0
   39.2480   33.3760   48.6490 C   0  0  0  0  0  0  0  0  0  0  0  0
   37.9530   33.6420   49.4230 C   0  0  0  0  0  0  0  0  0  0  0  0
   37.4200   32.2320   49.6270 C   0  0  0  0  0  0  0  0  0  0  0  0
  1  9  1  0  0  0  0
  2  1  1  0  0  0  0
  2 17  1  0  0  0  0
  3  2  2  0  0  0  0
  4  5  2  0  0  0  0
  4  3  1  0  0  0  0
  5  6  1  0  0  0  0
  6  1  2  0  0  0  0
  7  3  1  0  0  0  0
  8  5  1  0  0  0  0
  9 12  1  0  0  0  0
  9 10  1  0  0  0  0
  9 11  1  0  0  0  0
 10 11  1  0  0  0  0
 10 13  1  0  0  0  0
 11 16  1  0  0  0  0
 14 10  1  0  0  0  0
 15 11  1  0  0  0  0
 17 21  1  0  0  0  0
 18 17  1  0  0  0  0
 18 19  1  0  0  0  0
 19 20  1  0  0  0  0
 20 21  1  0  0  0  0
M  END
>  <minimizedAffinity>
-5.22173786

>  <minimizedRMSD>
3.23252845

$$$$
