
 OpenBabel03272510343D

 24 26  0  0  0  0  0  0  0  0999 V2000
   35.7250   30.0200   47.8180 C   0  0  0  0  0  0  0  0  0  0  0  0
   34.7380   30.2160   46.8780 C   0  0  0  0  0  0  0  0  0  0  0  0
   33.5640   29.4790   46.9610 C   0  0  0  0  0  0  0  0  0  0  0  0
   33.4080   28.5720   47.9760 C   0  0  0  0  0  0  0  0  0  0  0  0
   34.4000   28.3700   48.9270 C   0  0  0  0  0  0  0  0  0  0  0  0
   35.5960   29.0970   48.8690 C   0  0  0  0  0  0  0  0  0  0  0  0
   34.8450   30.9290   46.0700 H   0  0  0  0  0  0  0  0  0  0  0  0
   32.7810   29.6150   46.2400 H   0  0  0  0  0  0  0  0  0  0  0  0
   32.4650   28.0120   48.0030 H   0  0  0  0  0  0  0  0  0  0  0  0
   34.1930   27.6370   49.6890 H   0  0  0  0  0  0  0  0  0  0  0  0
   38.1190   32.7290   48.3420 C   0  0  0  0  0  0  0  0  0  0  0  0
   39.1890   32.4170   47.5080 C   0  0  0  0  0  0  0  0  0  0  0  0
   39.0790   31.2250   46.7340 C   0  0  0  0  0  0  0  0  0  0  0  0
   37.9570   30.4710   46.8510 N   0  0  0  0  0  0  0  0  0  0  0  0
   36.9390   30.8180   47.6790 C   0  0  0  0  0  0  0  0  0  0  0  0
   37.0550   31.9400   48.4000 N   0  0  0  0  0  0  0  0  0  0  0  0
   38.2580   33.6410   48.9030 H   0  0  0  0  0  0  0  0  0  0  0  0
   40.1180   32.9510   47.3510 H   0  0  0  0  0  0  0  0  0  0  0  0
   39.8180   30.8560   46.0510 H   0  0  0  0  0  0  0  0  0  0  0  0
   36.6410   28.8850   49.8750 C   0  0  0  0  0  3  0  0  0  0  0  0
   37.8850   29.6860   49.6900 C   0  0  0  0  0  2  0  0  0  0  0  0
   38.2520   30.2780   51.0540 C   0  0  0  0  0  2  0  0  0  0  0  0
   36.8910   30.4950   51.6640 C   0  0  0  0  0  2  0  0  0  0  0  0
   36.1430   29.2630   51.2600 C   0  0  0  0  0  2  0  0  0  0  0  0
  1  6  1  0  0  0  0
  2  3  1  0  0  0  0
  2  1  2  0  0  0  0
  3  4  2  0  0  0  0
  4  9  1  0  0  0  0
  4  5  1  0  0  0  0
  5 10  1  0  0  0  0
  6  5  2  0  0  0  0
  6 20  1  0  0  0  0
  7  2  1  0  0  0  0
  8  3  1  0  0  0  0
 11 16  1  0  0  0  0
 11 17  1  0  0  0  0
 12 11  2  0  0  0  0
 13 14  2  0  0  0  0
 13 12  1  0  0  0  0
 14 15  1  0  0  0  0
 15  1  1  0  0  0  0
 15 16  2  0  0  0  0
 18 12  1  0  0  0  0
 19 13  1  0  0  0  0
 20 24  1  0  0  0  0
 21 20  1  0  0  0  0
 21 22  1  0  0  0  0
 22 23  1  0  0  0  0
 24 23  1  0  0  0  0
M  END
>  <minimizedAffinity>
-5.19131708

>  <minimizedRMSD>
1.16262579

$$$$
