
 OpenBabel03262523263D

 36 39  0  0  1  0  0  0  0  0999 V2000
   39.5900   33.0450   44.5860 C   0  0  0  0  0  0  0  0  0  0  0  0
   40.4600   32.0400   44.1810 C   0  0  0  0  0  0  0  0  0  0  0  0
   40.5350   30.9000   44.9530 C   0  0  0  0  0  0  0  0  0  0  0  0
   39.7540   30.8280   46.0640 N   0  0  0  0  0  0  0  0  0  0  0  0
   38.9100   31.8290   46.4370 C   0  0  0  0  0  0  0  0  0  0  0  0
   38.8310   32.9280   45.7000 N   0  0  0  0  0  0  0  0  0  0  0  0
   38.1180   31.6700   47.6320 N   0  0  0  0  0  0  0  0  0  0  0  0
   38.0010   32.7590   48.5630 C   0  0  0  0  0  0  0  0  0  0  0  0
   37.8120   32.2970   49.9890 C   0  0  0  0  0  0  0  0  0  0  0  0
   38.3350   30.8760   50.0920 C   0  0  0  0  0  0  0  0  0  0  0  0
   37.3460   30.0400   49.3150 C   0  0  0  0  0  0  0  0  0  0  0  0
   37.4530   30.3860   47.8710 C   0  0  1  0  0  0  0  0  0  0  0  0
   39.4480   33.9830   44.0600 H   0  0  0  0  0  0  0  0  0  0  0  0
   41.0360   32.1850   43.2930 H   0  0  0  0  0  0  0  0  0  0  0  0
   41.1990   30.0900   44.6780 H   0  0  0  0  0  0  0  0  0  0  0  0
   37.1180   33.3760   48.2920 H   0  0  0  0  0  0  0  0  0  0  0  0
   38.8750   33.4450   48.5010 H   0  0  0  0  0  0  0  0  0  0  0  0
   36.7260   32.2520   50.2160 H   0  0  0  0  0  0  0  0  0  0  0  0
   38.3830   32.9410   50.7060 H   0  0  0  0  0  0  0  0  0  0  0  0
   39.3270   30.7550   49.6120 H   0  0  0  0  0  0  0  0  0  0  0  0
   38.3610   30.5700   51.1590 H   0  0  0  0  0  0  0  0  0  0  0  0
   36.3740   30.2800   49.7910 H   0  0  0  0  0  0  0  0  0  0  0  0
   37.5410   28.9500   49.4780 H   0  0  0  0  0  0  0  0  0  0  0  0
   38.1240   29.6440   47.3560 H   0  0  0  0  0  0  0  0  0  0  0  0
   36.1630   30.3060   47.1560 C   0  0  0  0  0  0  0  0  0  0  0  0
   34.8870   30.2240   47.7170 C   0  0  0  0  0  0  0  0  0  0  0  0
   33.8260   30.1560   46.8850 C   0  0  0  0  0  0  0  0  0  0  0  0
   34.0630   30.1700   45.4580 C   0  0  0  0  0  0  0  0  0  0  0  0
   35.9550   30.2940   45.4460 S   0  0  0  0  0  0  0  0  0  0  0  0
   34.6270   30.2080   48.7680 H   0  0  0  0  0  0  0  0  0  0  0  0
   32.7780   30.0890   46.9860 H   0  0  0  0  0  0  0  0  0  0  0  0
   33.3840   30.1250   44.2080 C   0  0  0  0  0  0  0  0  0  0  0  0
   33.9820   31.1120   43.2380 C   0  0  0  0  0  0  0  0  0  0  0  0
   32.9770   31.0790   42.1130 C   0  0  0  0  0  0  0  0  0  0  0  0
   31.6450   30.9780   42.8240 C   0  0  0  0  0  0  0  0  0  0  0  0
   31.9310   30.5470   44.2480 C   0  0  0  0  0  0  0  0  0  0  0  0
  1  6  1  0  0  0  0
  2  1  2  0  0  0  0
  2  3  1  0  0  0  0
  3  4  2  0  0  0  0
  4  5  1  0  0  0  0
  5  7  1  0  0  0  0
  6  5  2  0  0  0  0
  7 12  1  0  0  0  0
  7  8  1  0  0  0  0
  8  9  1  0  0  0  0
  9 10  1  0  0  0  0
  9 18  1  0  0  0  0
  9 19  1  0  0  0  0
 10 21  1  0  0  0  0
 11 23  1  0  0  0  0
 11 22  1  0  0  0  0
 11 10  1  0  0  0  0
 12 24  1  6  0  0  0
 12 11  1  0  0  0  0
 13  1  1  0  0  0  0
 14  2  1  0  0  0  0
 15  3  1  0  0  0  0
 16  8  1  0  0  0  0
 17  8  1  0  0  0  0
 20 10  1  0  0  0  0
 25 26  2  0  0  0  0
 25 12  1  0  0  0  0
 26 30  1  0  0  0  0
 27 31  1  0  0  0  0
 27 26  1  0  0  0  0
 28 27  2  0  0  0  0
 29 28  1  0  0  0  0
 29 25  1  0  0  0  0
 32 36  1  0  0  0  0
 32 28  1  0  0  0  0
 33 32  1  0  0  0  0
 34 35  1  0  0  0  0
 34 33  1  0  0  0  0
 35 36  1  0  0  0  0
M  END
>  <minimizedAffinity>
-5.57227612

>  <minimizedRMSD>
0.14728272

$$$$
