
 OpenBabel03262522533D

 29 32  0  0  0  0  0  0  0  0999 V2000
   38.1080   25.2350   34.8900 C   0  0  0  0  0  0  0  0  0  0  0  0
   37.7980   24.9370   33.6310 C   0  0  0  0  0  0  0  0  0  0  0  0
   37.2360   25.9040   32.8300 C   0  0  0  0  0  0  0  0  0  0  0  0
   37.0370   27.1210   33.4050 C   0  0  0  0  0  0  0  0  0  0  0  0
   37.6570   26.8790   35.1030 S   0  0  0  0  0  0  0  0  0  0  0  0
   37.9950   23.9190   33.2440 H   0  0  0  0  0  0  0  0  0  0  0  0
   36.9480   25.7590   31.7880 H   0  0  0  0  0  0  0  0  0  0  0  0
   38.5870   23.4780   38.0460 C   0  0  0  0  0  0  0  0  0  0  0  0
   39.7950   22.7920   37.8640 C   0  0  0  0  0  0  0  0  0  0  0  0
   40.4620   22.9390   36.6200 C   0  0  0  0  0  0  0  0  0  0  0  0
   39.8760   23.7410   35.6900 N   0  0  0  0  0  0  0  0  0  0  0  0
   38.7110   24.3750   35.9260 C   0  0  0  0  0  0  0  0  0  0  0  0
   38.0550   24.2630   37.0800 N   0  0  0  0  0  0  0  0  0  0  0  0
   38.0330   23.4010   38.9820 H   0  0  0  0  0  0  0  0  0  0  0  0
   40.2020   22.1710   38.6470 H   0  0  0  0  0  0  0  0  0  0  0  0
   41.3890   22.4280   36.4440 H   0  0  0  0  0  0  0  0  0  0  0  0
   36.4700   28.3340   32.8220 C   0  0  0  0  0  0  0  0  0  0  0  0
   36.4210   28.4710   31.4640 C   0  0  0  0  0  0  0  0  0  0  0  0
   35.8740   29.6370   30.9760 C   0  0  0  0  0  0  0  0  0  0  0  0
   35.4040   30.6070   31.7840 N   0  0  0  0  0  0  0  0  0  0  0  0
   35.4990   30.3730   33.1160 C   0  0  0  0  0  0  0  0  0  0  0  0
   36.0170   29.2660   33.6720 N   0  0  0  0  0  0  0  0  0  0  0  0
   36.7860   27.7200   30.7730 H   0  0  0  0  0  0  0  0  0  0  0  0
   35.8320   29.7490   29.8940 H   0  0  0  0  0  0  0  0  0  0  0  0
   34.9750   31.4530   33.9990 C   0  0  0  0  0  3  0  0  0  0  0  0
   35.9700   32.5490   34.2060 C   0  0  0  0  0  2  0  0  0  0  0  0
   36.3830   32.5070   35.6550 C   0  0  0  0  0  2  0  0  0  0  0  0
   35.1050   32.0250   36.3290 C   0  0  0  0  0  2  0  0  0  0  0  0
   34.6480   30.9330   35.3780 C   0  0  0  0  0  2  0  0  0  0  0  0
  1  5  1  0  0  0  0
  1 12  1  0  0  0  0
  2  1  2  0  0  0  0
  3  4  2  0  0  0  0
  3  2  1  0  0  0  0
  4  5  1  0  0  0  0
  6  2  1  0  0  0  0
  7  3  1  0  0  0  0
  8 14  1  0  0  0  0
  9  8  1  0  0  0  0
  9 15  1  0  0  0  0
 10  9  2  0  0  0  0
 11 12  2  0  0  0  0
 11 10  1  0  0  0  0
 12 13  1  0  0  0  0
 13  8  2  0  0  0  0
 16 10  1  0  0  0  0
 17  4  1  0  0  0  0
 17 22  1  0  0  0  0
 18 17  2  0  0  0  0
 19 18  1  0  0  0  0
 19 20  2  0  0  0  0
 20 21  1  0  0  0  0
 21 22  2  0  0  0  0
 21 25  1  0  0  0  0
 23 18  1  0  0  0  0
 24 19  1  0  0  0  0
 25 26  1  0  0  0  0
 25 29  1  0  0  0  0
 26 27  1  0  0  0  0
 27 28  1  0  0  0  0
 29 28  1  0  0  0  0
M  END
>  <minimizedAffinity>
-5.68149567

$$$$

 OpenBabel03262522533D

 29 32  0  0  0  0  0  0  0  0999 V2000
   38.1410   25.1510   34.9370 C   0  0  0  0  0  0  0  0  0  0  0  0
   37.8320   24.8420   33.6800 C   0  0  0  0  0  0  0  0  0  0  0  0
   37.2660   25.8010   32.8720 C   0  0  0  0  0  0  0  0  0  0  0  0
   37.0620   27.0220   33.4370 C   0  0  0  0  0  0  0  0  0  0  0  0
   37.6820   26.7950   35.1370 S   0  0  0  0  0  0  0  0  0  0  0  0
   38.0340   23.8230   33.3010 H   0  0  0  0  0  0  0  0  0  0  0  0
   36.9790   25.6470   31.8300 H   0  0  0  0  0  0  0  0  0  0  0  0
   40.4400   22.8660   36.6010 C   0  0  0  0  0  0  0  0  0  0  0  0
   39.8970   22.7240   37.8840 C   0  0  0  0  0  0  0  0  0  0  0  0
   38.7050   23.4360   38.1840 C   0  0  0  0  0  0  0  0  0  0  0  0
   38.1750   24.2080   37.1970 N   0  0  0  0  0  0  0  0  0  0  0  0
   38.7460   24.3030   35.9790 C   0  0  0  0  0  0  0  0  0  0  0  0
   39.8630   23.6510   35.6600 N   0  0  0  0  0  0  0  0  0  0  0  0
   41.3530   22.3420   36.3160 H   0  0  0  0  0  0  0  0  0  0  0  0
   40.3710   22.0940   38.6200 H   0  0  0  0  0  0  0  0  0  0  0  0
   38.2600   23.3520   39.1570 H   0  0  0  0  0  0  0  0  0  0  0  0
   36.4900   28.2280   32.8450 C   0  0  0  0  0  0  0  0  0  0  0  0
   36.4510   28.3580   31.4850 C   0  0  0  0  0  0  0  0  0  0  0  0
   35.8980   29.5180   30.9880 C   0  0  0  0  0  0  0  0  0  0  0  0
   35.4150   30.4870   31.7880 N   0  0  0  0  0  0  0  0  0  0  0  0
   35.5020   30.2600   33.1210 C   0  0  0  0  0  0  0  0  0  0  0  0
   36.0250   29.1600   33.6870 N   0  0  0  0  0  0  0  0  0  0  0  0
   36.8260   27.6060   30.8000 H   0  0  0  0  0  0  0  0  0  0  0  0
   35.8640   29.6250   29.9050 H   0  0  0  0  0  0  0  0  0  0  0  0
   34.9630   31.3400   33.9960 C   0  0  0  0  0  3  0  0  0  0  0  0
   35.9550   32.4370   34.2190 C   0  0  0  0  0  2  0  0  0  0  0  0
   36.3450   32.3950   35.6750 C   0  0  0  0  0  2  0  0  0  0  0  0
   35.0560   31.9130   36.3280 C   0  0  0  0  0  2  0  0  0  0  0  0
   34.6140   30.8200   35.3700 C   0  0  0  0  0  2  0  0  0  0  0  0
  1  5  1  0  0  0  0
  1 12  1  0  0  0  0
  2  1  2  0  0  0  0
  3  4  2  0  0  0  0
  3  2  1  0  0  0  0
  4  5  1  0  0  0  0
  6  2  1  0  0  0  0
  7  3  1  0  0  0  0
  8  9  1  0  0  0  0
  9 10  2  0  0  0  0
  9 15  1  0  0  0  0
 10 16  1  0  0  0  0
 11 10  1  0  0  0  0
 12 11  2  0  0  0  0
 13 12  1  0  0  0  0
 13  8  2  0  0  0  0
 14  8  1  0  0  0  0
 17  4  1  0  0  0  0
 17 22  1  0  0  0  0
 18 17  2  0  0  0  0
 19 18  1  0  0  0  0
 19 20  2  0  0  0  0
 20 21  1  0  0  0  0
 21 22  2  0  0  0  0
 21 25  1  0  0  0  0
 23 18  1  0  0  0  0
 24 19  1  0  0  0  0
 25 26  1  0  0  0  0
 25 29  1  0  0  0  0
 26 27  1  0  0  0  0
 27 28  1  0  0  0  0
 29 28  1  0  0  0  0
M  END
>  <minimizedAffinity>
-5.67477989

$$$$

 OpenBabel03262522533D

 29 32  0  0  0  0  0  0  0  0999 V2000
   36.4100   23.8610   31.9020 C   0  0  0  0  0  0  0  0  0  0  0  0
   37.3330   24.4570   32.6530 C   0  0  0  0  0  0  0  0  0  0  0  0
   37.3750   25.8310   32.7030 C   0  0  0  0  0  0  0  0  0  0  0  0
   36.4430   26.4890   31.9620 C   0  0  0  0  0  0  0  0  0  0  0  0
   35.5020   25.1330   31.1870 S   0  0  0  0  0  0  0  0  0  0  0  0
   38.0540   23.8420   33.2250 H   0  0  0  0  0  0  0  0  0  0  0  0
   38.0910   26.4110   33.2870 H   0  0  0  0  0  0  0  0  0  0  0  0
   36.8670   20.4350   30.7480 C   0  0  0  0  0  0  0  0  0  0  0  0
   35.7660   19.7550   31.2830 C   0  0  0  0  0  0  0  0  0  0  0  0
   34.8410   20.4980   32.0630 C   0  0  0  0  0  0  0  0  0  0  0  0
   35.0930   21.8240   32.2340 N   0  0  0  0  0  0  0  0  0  0  0  0
   36.1720   22.4210   31.6920 C   0  0  0  0  0  0  0  0  0  0  0  0
   37.0620   21.7590   30.9550 N   0  0  0  0  0  0  0  0  0  0  0  0
   37.6090   19.9140   30.1420 H   0  0  0  0  0  0  0  0  0  0  0  0
   35.6280   18.7000   31.1070 H   0  0  0  0  0  0  0  0  0  0  0  0
   33.9850   20.0100   32.4900 H   0  0  0  0  0  0  0  0  0  0  0  0
   36.2310   27.9260   31.8130 C   0  0  0  0  0  0  0  0  0  0  0  0
   36.5000   28.5270   30.6160 C   0  0  0  0  0  0  0  0  0  0  0  0
   36.2780   29.8840   30.5380 C   0  0  0  0  0  0  0  0  0  0  0  0
   35.8180   30.6010   31.5810 N   0  0  0  0  0  0  0  0  0  0  0  0
   35.5840   29.9100   32.7230 C   0  0  0  0  0  0  0  0  0  0  0  0
   35.7730   28.5900   32.8820 N   0  0  0  0  0  0  0  0  0  0  0  0
   36.8700   27.9940   29.7480 H   0  0  0  0  0  0  0  0  0  0  0  0
   36.4900   30.3670   29.5850 H   0  0  0  0  0  0  0  0  0  0  0  0
   35.0750   30.7150   33.8700 C   0  0  0  0  0  3  0  0  0  0  0  0
   35.2430   32.1840   33.6510 C   0  0  0  0  0  2  0  0  0  0  0  0
   36.2620   32.6700   34.6500 C   0  0  0  0  0  2  0  0  0  0  0  0
   36.0030   31.7460   35.8330 C   0  0  0  0  0  2  0  0  0  0  0  0
   35.8260   30.4040   35.1430 C   0  0  0  0  0  2  0  0  0  0  0  0
  1  2  2  0  0  0  0
  2  3  1  0  0  0  0
  2  6  1  0  0  0  0
  3  7  1  0  0  0  0
  4  3  2  0  0  0  0
  5  1  1  0  0  0  0
  5  4  1  0  0  0  0
  8 13  2  0  0  0  0
  8  9  1  0  0  0  0
  9 10  2  0  0  0  0
 10 11  1  0  0  0  0
 10 16  1  0  0  0  0
 12  1  1  0  0  0  0
 12 11  2  0  0  0  0
 13 12  1  0  0  0  0
 14  8  1  0  0  0  0
 15  9  1  0  0  0  0
 17  4  1  0  0  0  0
 17 22  1  0  0  0  0
 18 17  2  0  0  0  0
 19 18  1  0  0  0  0
 19 20  2  0  0  0  0
 20 21  1  0  0  0  0
 21 22  2  0  0  0  0
 21 25  1  0  0  0  0
 23 18  1  0  0  0  0
 24 19  1  0  0  0  0
 25 29  1  0  0  0  0
 26 25  1  0  0  0  0
 26 27  1  0  0  0  0
 27 28  1  0  0  0  0
 29 28  1  0  0  0  0
M  END
>  <minimizedAffinity>
-5.49299145

$$$$

 OpenBabel03262522533D

 29 32  0  0  0  0  0  0  0  0999 V2000
   38.6080   25.4860   35.3790 C   0  0  0  0  0  0  0  0  0  0  0  0
   38.5850   26.6030   36.1030 C   0  0  0  0  0  0  0  0  0  0  0  0
   37.8310   27.6680   35.6700 C   0  0  0  0  0  0  0  0  0  0  0  0
   37.1500   27.4920   34.5060 C   0  0  0  0  0  0  0  0  0  0  0  0
   37.5930   25.7890   34.0260 S   0  0  0  0  0  0  0  0  0  0  0  0
   39.1710   26.6600   37.0400 H   0  0  0  0  0  0  0  0  0  0  0  0
   37.7470   28.6240   36.1910 H   0  0  0  0  0  0  0  0  0  0  0  0
   40.7110   22.5600   34.8370 C   0  0  0  0  0  0  0  0  0  0  0  0
   40.6910   21.9030   36.0740 C   0  0  0  0  0  0  0  0  0  0  0  0
   39.9320   22.4850   37.1240 C   0  0  0  0  0  0  0  0  0  0  0  0
   39.2750   23.6450   36.8490 N   0  0  0  0  0  0  0  0  0  0  0  0
   39.3340   24.2290   35.6360 C   0  0  0  0  0  0  0  0  0  0  0  0
   40.0340   23.7130   34.6270 N   0  0  0  0  0  0  0  0  0  0  0  0
   41.2770   22.1570   33.9970 H   0  0  0  0  0  0  0  0  0  0  0  0
   41.2360   20.9840   36.2230 H   0  0  0  0  0  0  0  0  0  0  0  0
   39.8930   22.0110   38.0860 H   0  0  0  0  0  0  0  0  0  0  0  0
   36.2740   28.4220   33.8000 C   0  0  0  0  0  0  0  0  0  0  0  0
   36.0780   28.2770   32.4560 C   0  0  0  0  0  0  0  0  0  0  0  0
   35.2390   29.1850   31.8480 C   0  0  0  0  0  0  0  0  0  0  0  0
   34.6330   30.1760   32.5300 N   0  0  0  0  0  0  0  0  0  0  0  0
   34.8940   30.2330   33.8590 C   0  0  0  0  0  0  0  0  0  0  0  0
   35.6970   29.3880   34.5270 N   0  0  0  0  0  0  0  0  0  0  0  0
   36.5420   27.4970   31.8640 H   0  0  0  0  0  0  0  0  0  0  0  0
   35.0800   29.0720   30.7770 H   0  0  0  0  0  0  0  0  0  0  0  0
   34.2170   31.3320   34.6020 C   0  0  0  0  0  3  0  0  0  0  0  0
   35.1880   32.2160   35.3170 C   0  0  0  0  0  2  0  0  0  0  0  0
   34.9730   32.0100   36.7950 C   0  0  0  0  0  2  0  0  0  0  0  0
   33.4780   31.7260   36.8550 C   0  0  0  0  0  2  0  0  0  0  0  0
   33.2920   30.7960   35.6690 C   0  0  0  0  0  2  0  0  0  0  0  0
  1 12  1  0  0  0  0
  1  2  2  0  0  0  0
  2  6  1  0  0  0  0
  3  2  1  0  0  0  0
  3  7  1  0  0  0  0
  4  3  2  0  0  0  0
  5  4  1  0  0  0  0
  5  1  1  0  0  0  0
  8  9  1  0  0  0  0
  9 15  1  0  0  0  0
  9 10  2  0  0  0  0
 10 16  1  0  0  0  0
 11 10  1  0  0  0  0
 12 11  2  0  0  0  0
 13  8  2  0  0  0  0
 13 12  1  0  0  0  0
 14  8  1  0  0  0  0
 17  4  1  0  0  0  0
 17 22  1  0  0  0  0
 18 17  2  0  0  0  0
 19 18  1  0  0  0  0
 19 20  2  0  0  0  0
 20 21  1  0  0  0  0
 21 22  2  0  0  0  0
 21 25  1  0  0  0  0
 23 18  1  0  0  0  0
 24 19  1  0  0  0  0
 25 26  1  0  0  0  0
 25 29  1  0  0  0  0
 26 27  1  0  0  0  0
 27 28  1  0  0  0  0
 29 28  1  0  0  0  0
M  END
>  <minimizedAffinity>
-5.47747517

$$$$

 OpenBabel03262522533D

 29 32  0  0  0  0  0  0  0  0999 V2000
   39.8650   24.8880   35.2080 C   0  0  0  0  0  0  0  0  0  0  0  0
   40.3730   26.0750   34.8830 C   0  0  0  0  0  0  0  0  0  0  0  0
   39.5510   27.0290   34.3300 C   0  0  0  0  0  0  0  0  0  0  0  0
   38.2490   26.6750   34.1550 C   0  0  0  0  0  0  0  0  0  0  0  0
   38.2020   24.9640   34.7850 S   0  0  0  0  0  0  0  0  0  0  0  0
   41.4460   26.2790   35.0610 H   0  0  0  0  0  0  0  0  0  0  0  0
   39.8700   28.0290   34.0310 H   0  0  0  0  0  0  0  0  0  0  0  0
   40.5630   22.0880   37.4330 C   0  0  0  0  0  0  0  0  0  0  0  0
   41.7610   21.5600   36.9350 C   0  0  0  0  0  0  0  0  0  0  0  0
   42.3440   22.1860   35.8020 C   0  0  0  0  0  0  0  0  0  0  0  0
   41.6930   23.2600   35.2790 N   0  0  0  0  0  0  0  0  0  0  0  0
   40.5410   23.7220   35.8050 C   0  0  0  0  0  0  0  0  0  0  0  0
   39.9640   23.1630   36.8670 N   0  0  0  0  0  0  0  0  0  0  0  0
   40.0720   21.6470   38.3000 H   0  0  0  0  0  0  0  0  0  0  0  0
   42.2240   20.7030   37.4000 H   0  0  0  0  0  0  0  0  0  0  0  0
   43.2620   21.8090   35.3920 H   0  0  0  0  0  0  0  0  0  0  0  0
   37.1470   27.4580   33.6030 C   0  0  0  0  0  0  0  0  0  0  0  0
   36.6110   27.1100   32.3960 C   0  0  0  0  0  0  0  0  0  0  0  0
   35.5720   27.8860   31.9300 C   0  0  0  0  0  0  0  0  0  0  0  0
   35.0950   28.9410   32.6180 N   0  0  0  0  0  0  0  0  0  0  0  0
   35.6970   29.2020   33.8050 C   0  0  0  0  0  0  0  0  0  0  0  0
   36.7120   28.4960   34.3300 N   0  0  0  0  0  0  0  0  0  0  0  0
   36.9590   26.2710   31.8050 H   0  0  0  0  0  0  0  0  0  0  0  0
   35.1420   27.6120   30.9680 H   0  0  0  0  0  0  0  0  0  0  0  0
   35.1590   30.3710   34.5560 C   0  0  0  0  0  3  0  0  0  0  0  0
   35.0260   31.5860   33.6960 C   0  0  0  0  0  2  0  0  0  0  0  0
   36.0280   32.5960   34.1950 C   0  0  0  0  0  2  0  0  0  0  0  0
   36.0620   32.2900   35.6860 C   0  0  0  0  0  2  0  0  0  0  0  0
   36.0740   30.7710   35.6890 C   0  0  0  0  0  2  0  0  0  0  0  0
  1 12  1  0  0  0  0
  2  6  1  0  0  0  0
  2  1  2  0  0  0  0
  3  2  1  0  0  0  0
  4  3  2  0  0  0  0
  4  5  1  0  0  0  0
  5  1  1  0  0  0  0
  7  3  1  0  0  0  0
  8 14  1  0  0  0  0
  9 15  1  0  0  0  0
  9  8  1  0  0  0  0
 10  9  2  0  0  0  0
 11 10  1  0  0  0  0
 11 12  2  0  0  0  0
 12 13  1  0  0  0  0
 13  8  2  0  0  0  0
 16 10  1  0  0  0  0
 17  4  1  0  0  0  0
 17 22  1  0  0  0  0
 18 17  2  0  0  0  0
 19 18  1  0  0  0  0
 19 20  2  0  0  0  0
 20 21  1  0  0  0  0
 21 22  2  0  0  0  0
 21 25  1  0  0  0  0
 23 18  1  0  0  0  0
 24 19  1  0  0  0  0
 25 29  1  0  0  0  0
 26 27  1  0  0  0  0
 26 25  1  0  0  0  0
 27 28  1  0  0  0  0
 28 29  1  0  0  0  0
M  END
>  <minimizedAffinity>
-5.44167852

$$$$

 OpenBabel03262522533D

 29 32  0  0  0  0  0  0  0  0999 V2000
   38.6300   25.6140   35.4100 C   0  0  0  0  0  0  0  0  0  0  0  0
   38.5070   26.7990   36.0020 C   0  0  0  0  0  0  0  0  0  0  0  0
   37.7810   27.7890   35.3810 C   0  0  0  0  0  0  0  0  0  0  0  0
   37.2300   27.4670   34.1780 C   0  0  0  0  0  0  0  0  0  0  0  0
   37.7570   25.7390   33.9350 S   0  0  0  0  0  0  0  0  0  0  0  0
   38.9890   26.9750   36.9820 H   0  0  0  0  0  0  0  0  0  0  0  0
   37.6220   28.7910   35.7830 H   0  0  0  0  0  0  0  0  0  0  0  0
   41.0580   22.9000   35.5450 C   0  0  0  0  0  0  0  0  0  0  0  0
   40.7090   22.2000   36.7070 C   0  0  0  0  0  0  0  0  0  0  0  0
   39.6070   22.6760   37.4640 C   0  0  0  0  0  0  0  0  0  0  0  0
   38.9660   23.7840   37.0030 N   0  0  0  0  0  0  0  0  0  0  0  0
   39.3510   24.4150   35.8750 C   0  0  0  0  0  0  0  0  0  0  0  0
   40.3790   23.9980   35.1380 N   0  0  0  0  0  0  0  0  0  0  0  0
   41.8960   22.5780   34.9260 H   0  0  0  0  0  0  0  0  0  0  0  0
   41.2620   21.3260   37.0140 H   0  0  0  0  0  0  0  0  0  0  0  0
   39.3100   22.1660   38.3600 H   0  0  0  0  0  0  0  0  0  0  0  0
   36.4150   28.2890   33.2890 C   0  0  0  0  0  0  0  0  0  0  0  0
   36.8380   28.5260   32.0120 C   0  0  0  0  0  0  0  0  0  0  0  0
   36.0230   29.3070   31.2220 C   0  0  0  0  0  0  0  0  0  0  0  0
   34.8620   29.8220   31.6700 N   0  0  0  0  0  0  0  0  0  0  0  0
   34.5340   29.5280   32.9520 C   0  0  0  0  0  0  0  0  0  0  0  0
   35.2690   28.7750   33.7870 N   0  0  0  0  0  0  0  0  0  0  0  0
   37.7630   28.1350   31.6050 H   0  0  0  0  0  0  0  0  0  0  0  0
   36.3570   29.4970   30.2030 H   0  0  0  0  0  0  0  0  0  0  0  0
   33.2460   30.1020   33.4350 C   0  0  0  0  0  3  0  0  0  0  0  0
   33.2270   30.2810   34.9200 C   0  0  0  0  0  2  0  0  0  0  0  0
   32.2120   29.3130   35.4720 C   0  0  0  0  0  2  0  0  0  0  0  0
   31.1870   29.2610   34.3460 C   0  0  0  0  0  2  0  0  0  0  0  0
   32.0800   29.1960   33.1190 C   0  0  0  0  0  2  0  0  0  0  0  0
  1 12  1  0  0  0  0
  1  2  2  0  0  0  0
  2  6  1  0  0  0  0
  3  7  1  0  0  0  0
  3  2  1  0  0  0  0
  4  3  2  0  0  0  0
  5  4  1  0  0  0  0
  5  1  1  0  0  0  0
  8  9  1  0  0  0  0
  9 15  1  0  0  0  0
  9 10  2  0  0  0  0
 10 16  1  0  0  0  0
 11 10  1  0  0  0  0
 12 11  2  0  0  0  0
 13  8  2  0  0  0  0
 13 12  1  0  0  0  0
 14  8  1  0  0  0  0
 17 22  1  0  0  0  0
 17  4  1  0  0  0  0
 18 17  2  0  0  0  0
 19 20  2  0  0  0  0
 19 18  1  0  0  0  0
 20 21  1  0  0  0  0
 21 25  1  0  0  0  0
 21 22  2  0  0  0  0
 23 18  1  0  0  0  0
 24 19  1  0  0  0  0
 25 26  1  0  0  0  0
 26 27  1  0  0  0  0
 28 27  1  0  0  0  0
 29 25  1  0  0  0  0
 29 28  1  0  0  0  0
M  END
>  <minimizedAffinity>
-5.40366697

$$$$

 OpenBabel03262522533D

 29 32  0  0  0  0  0  0  0  0999 V2000
   38.0090   25.1940   34.8590 C   0  0  0  0  0  0  0  0  0  0  0  0
   37.9870   24.8610   33.5700 C   0  0  0  0  0  0  0  0  0  0  0  0
   37.4720   25.7510   32.6560 C   0  0  0  0  0  0  0  0  0  0  0  0
   37.0160   26.9320   33.1540 C   0  0  0  0  0  0  0  0  0  0  0  0
   37.3240   26.7670   34.9440 S   0  0  0  0  0  0  0  0  0  0  0  0
   38.3800   23.8770   33.2510 H   0  0  0  0  0  0  0  0  0  0  0  0
   37.4100   25.5720   31.5810 H   0  0  0  0  0  0  0  0  0  0  0  0
   38.2660   23.8230   38.2250 C   0  0  0  0  0  0  0  0  0  0  0  0
   39.3890   22.9890   38.1590 C   0  0  0  0  0  0  0  0  0  0  0  0
   40.0770   22.8970   36.9210 C   0  0  0  0  0  0  0  0  0  0  0  0
   39.5910   23.6300   35.8820 N   0  0  0  0  0  0  0  0  0  0  0  0
   38.5040   24.4160   36.0090 C   0  0  0  0  0  0  0  0  0  0  0  0
   37.8320   24.5290   37.1540 N   0  0  0  0  0  0  0  0  0  0  0  0
   37.7000   23.9320   39.1510 H   0  0  0  0  0  0  0  0  0  0  0  0
   39.7190   22.4350   39.0240 H   0  0  0  0  0  0  0  0  0  0  0  0
   40.9410   22.2680   36.8320 H   0  0  0  0  0  0  0  0  0  0  0  0
   36.4250   28.0640   32.4470 C   0  0  0  0  0  0  0  0  0  0  0  0
   37.0410   28.5580   31.3320 C   0  0  0  0  0  0  0  0  0  0  0  0
   36.4330   29.6260   30.7080 C   0  0  0  0  0  0  0  0  0  0  0  0
   35.2870   30.1700   31.1620 N   0  0  0  0  0  0  0  0  0  0  0  0
   34.7580   29.6050   32.2750 C   0  0  0  0  0  0  0  0  0  0  0  0
   35.2850   28.5650   32.9410 N   0  0  0  0  0  0  0  0  0  0  0  0
   37.9630   28.1560   30.9280 H   0  0  0  0  0  0  0  0  0  0  0  0
   36.9200   30.0230   29.8190 H   0  0  0  0  0  0  0  0  0  0  0  0
   33.4900   30.2140   32.7650 C   0  0  0  0  0  3  0  0  0  0  0  0
   33.6610   30.8950   34.0860 C   0  0  0  0  0  2  0  0  0  0  0  0
   32.8720   30.1060   35.0990 C   0  0  0  0  0  2  0  0  0  0  0  0
   31.7110   29.5910   34.2580 C   0  0  0  0  0  2  0  0  0  0  0  0
   32.4190   29.1720   32.9810 C   0  0  0  0  0  2  0  0  0  0  0  0
  1  5  1  0  0  0  0
  1 12  1  0  0  0  0
  2  1  2  0  0  0  0
  3  4  2  0  0  0  0
  3  2  1  0  0  0  0
  4  5  1  0  0  0  0
  6  2  1  0  0  0  0
  7  3  1  0  0  0  0
  8 14  1  0  0  0  0
  9  8  1  0  0  0  0
  9 15  1  0  0  0  0
 10  9  2  0  0  0  0
 11 12  2  0  0  0  0
 11 10  1  0  0  0  0
 12 13  1  0  0  0  0
 13  8  2  0  0  0  0
 16 10  1  0  0  0  0
 17 22  1  0  0  0  0
 17  4  1  0  0  0  0
 18 17  2  0  0  0  0
 19 20  2  0  0  0  0
 19 18  1  0  0  0  0
 20 21  1  0  0  0  0
 21 25  1  0  0  0  0
 21 22  2  0  0  0  0
 23 18  1  0  0  0  0
 24 19  1  0  0  0  0
 25 29  1  0  0  0  0
 25 26  1  0  0  0  0
 26 27  1  0  0  0  0
 28 27  1  0  0  0  0
 29 28  1  0  0  0  0
M  END
>  <minimizedAffinity>
-5.39818239

$$$$

 OpenBabel03262522533D

 29 32  0  0  0  0  0  0  0  0999 V2000
   37.9580   25.2670   34.8540 C   0  0  0  0  0  0  0  0  0  0  0  0
   37.8460   24.9080   33.5780 C   0  0  0  0  0  0  0  0  0  0  0  0
   37.3500   25.8110   32.6660 C   0  0  0  0  0  0  0  0  0  0  0  0
   37.0040   27.0330   33.1560 C   0  0  0  0  0  0  0  0  0  0  0  0
   37.3910   26.8870   34.9320 S   0  0  0  0  0  0  0  0  0  0  0  0
   38.1520   23.8920   33.2660 H   0  0  0  0  0  0  0  0  0  0  0  0
   37.2200   25.6130   31.6010 H   0  0  0  0  0  0  0  0  0  0  0  0
   38.2280   23.8840   38.2140 C   0  0  0  0  0  0  0  0  0  0  0  0
   39.3460   23.0430   38.1380 C   0  0  0  0  0  0  0  0  0  0  0  0
   40.0260   22.9520   36.8950 C   0  0  0  0  0  0  0  0  0  0  0  0
   39.5380   23.6910   35.8620 N   0  0  0  0  0  0  0  0  0  0  0  0
   38.4560   24.4830   35.9990 C   0  0  0  0  0  0  0  0  0  0  0  0
   37.7920   24.5960   37.1480 N   0  0  0  0  0  0  0  0  0  0  0  0
   37.6690   23.9920   39.1440 H   0  0  0  0  0  0  0  0  0  0  0  0
   39.6780   22.4840   38.9990 H   0  0  0  0  0  0  0  0  0  0  0  0
   40.8860   22.3180   36.7990 H   0  0  0  0  0  0  0  0  0  0  0  0
   36.4590   28.1880   32.4490 C   0  0  0  0  0  0  0  0  0  0  0  0
   35.3720   28.8400   32.9600 C   0  0  0  0  0  0  0  0  0  0  0  0
   34.9060   29.9230   32.2470 C   0  0  0  0  0  0  0  0  0  0  0  0
   35.4810   30.3350   31.1010 N   0  0  0  0  0  0  0  0  0  0  0  0
   36.5530   29.6190   30.6800 C   0  0  0  0  0  0  0  0  0  0  0  0
   37.0690   28.5540   31.3140 N   0  0  0  0  0  0  0  0  0  0  0  0
   34.8750   28.5480   33.8770 H   0  0  0  0  0  0  0  0  0  0  0  0
   34.0410   30.4460   32.6510 H   0  0  0  0  0  0  0  0  0  0  0  0
   37.1800   30.0850   29.4110 C   0  0  0  0  0  3  0  0  0  0  0  0
   38.2200   29.1340   28.9110 C   0  0  0  0  0  2  0  0  0  0  0  0
   39.5520   29.8320   29.0240 C   0  0  0  0  0  2  0  0  0  0  0  0
   39.1640   31.2840   28.7770 C   0  0  0  0  0  2  0  0  0  0  0  0
   37.8890   31.4060   29.5930 C   0  0  0  0  0  2  0  0  0  0  0  0
  1  5  1  0  0  0  0
  1 12  1  0  0  0  0
  2  1  2  0  0  0  0
  3  4  2  0  0  0  0
  3  2  1  0  0  0  0
  4  5  1  0  0  0  0
  6  2  1  0  0  0  0
  7  3  1  0  0  0  0
  8 14  1  0  0  0  0
  9  8  1  0  0  0  0
  9 15  1  0  0  0  0
 10  9  2  0  0  0  0
 11 12  2  0  0  0  0
 11 10  1  0  0  0  0
 12 13  1  0  0  0  0
 13  8  2  0  0  0  0
 16 10  1  0  0  0  0
 17 18  1  0  0  0  0
 17  4  1  0  0  0  0
 18 23  1  0  0  0  0
 19 24  1  0  0  0  0
 19 18  2  0  0  0  0
 20 19  1  0  0  0  0
 21 20  2  0  0  0  0
 21 22  1  0  0  0  0
 22 17  2  0  0  0  0
 25 29  1  0  0  0  0
 25 21  1  0  0  0  0
 26 27  1  0  0  0  0
 26 25  1  0  0  0  0
 28 27  1  0  0  0  0
 28 29  1  0  0  0  0
M  END
>  <minimizedAffinity>
-5.27345514

$$$$

 OpenBabel03262522533D

 29 32  0  0  0  0  0  0  0  0999 V2000
   36.1510   28.4750   33.4670 C   0  0  0  0  0  0  0  0  0  0  0  0
   36.8370   28.2030   32.3590 C   0  0  0  0  0  0  0  0  0  0  0  0
   38.0130   27.4950   32.4540 C   0  0  0  0  0  0  0  0  0  0  0  0
   38.3910   27.1180   33.7060 C   0  0  0  0  0  0  0  0  0  0  0  0
   37.0550   27.7830   34.7540 S   0  0  0  0  0  0  0  0  0  0  0  0
   36.4550   28.5480   31.3800 H   0  0  0  0  0  0  0  0  0  0  0  0
   38.6450   27.2230   31.6070 H   0  0  0  0  0  0  0  0  0  0  0  0
   32.8050   29.7310   32.7590 C   0  0  0  0  0  0  0  0  0  0  0  0
   32.5200   30.5530   33.8570 C   0  0  0  0  0  0  0  0  0  0  0  0
   33.5080   30.6780   34.8680 C   0  0  0  0  0  0  0  0  0  0  0  0
   34.6670   29.9860   34.6960 N   0  0  0  0  0  0  0  0  0  0  0  0
   34.8820   29.2100   33.6150 C   0  0  0  0  0  0  0  0  0  0  0  0
   33.9800   29.0680   32.6460 N   0  0  0  0  0  0  0  0  0  0  0  0
   32.0820   29.5990   31.9540 H   0  0  0  0  0  0  0  0  0  0  0  0
   31.5780   31.0740   33.9290 H   0  0  0  0  0  0  0  0  0  0  0  0
   33.3260   31.2990   35.7240 H   0  0  0  0  0  0  0  0  0  0  0  0
   39.5690   26.3650   34.1250 C   0  0  0  0  0  0  0  0  0  0  0  0
   40.8060   26.9370   34.0230 C   0  0  0  0  0  0  0  0  0  0  0  0
   41.8780   26.1760   34.4370 C   0  0  0  0  0  0  0  0  0  0  0  0
   41.7330   24.9280   34.9220 N   0  0  0  0  0  0  0  0  0  0  0  0
   40.4640   24.4550   34.9820 C   0  0  0  0  0  0  0  0  0  0  0  0
   39.3670   25.1290   34.6000 N   0  0  0  0  0  0  0  0  0  0  0  0
   40.9740   27.9360   33.6400 H   0  0  0  0  0  0  0  0  0  0  0  0
   42.8650   26.6280   34.3570 H   0  0  0  0  0  0  0  0  0  0  0  0
   40.3170   23.0730   35.5200 C   0  0  0  0  0  3  0  0  0  0  0  0
   39.3110   22.9990   36.6240 C   0  0  0  0  0  2  0  0  0  0  0  0
   40.0620   22.6770   37.8910 C   0  0  0  0  0  2  0  0  0  0  0  0
   41.2000   21.8110   37.3650 C   0  0  0  0  0  2  0  0  0  0  0  0
   41.6100   22.5670   36.1140 C   0  0  0  0  0  2  0  0  0  0  0  0
  1 12  1  0  0  0  0
  1  5  1  0  0  0  0
  2  3  1  0  0  0  0
  2  1  2  0  0  0  0
  3  4  2  0  0  0  0
  4 17  1  0  0  0  0
  4  5  1  0  0  0  0
  6  2  1  0  0  0  0
  7  3  1  0  0  0  0
  8  9  1  0  0  0  0
  9 15  1  0  0  0  0
  9 10  2  0  0  0  0
 10 16  1  0  0  0  0
 11 10  1  0  0  0  0
 12 11  2  0  0  0  0
 13  8  2  0  0  0  0
 13 12  1  0  0  0  0
 14  8  1  0  0  0  0
 17 22  1  0  0  0  0
 18 17  2  0  0  0  0
 18 19  1  0  0  0  0
 19 20  2  0  0  0  0
 20 21  1  0  0  0  0
 21 25  1  0  0  0  0
 22 21  2  0  0  0  0
 23 18  1  0  0  0  0
 24 19  1  0  0  0  0
 25 29  1  0  0  0  0
 25 26  1  0  0  0  0
 26 27  1  0  0  0  0
 28 27  1  0  0  0  0
 29 28  1  0  0  0  0
M  END
>  <minimizedAffinity>
-5.22643423

$$$$
