
 OpenBabel03272502433D

 24 26  0  0  0  0  0  0  0  0999 V2000
   34.7900   29.3640   32.1580 C   0  0  0  0  0  0  0  0  0  0  0  0
   35.6720   28.3150   32.4160 C   0  0  0  0  0  0  0  0  0  0  0  0
   36.2950   28.2880   33.6900 C   0  0  0  0  0  0  0  0  0  0  0  0
   35.9800   29.2850   34.5430 N   0  0  0  0  0  0  0  0  0  0  0  0
   35.1230   30.2870   34.2590 C   0  0  0  0  0  0  0  0  0  0  0  0
   34.5350   30.3090   33.0550 N   0  0  0  0  0  0  0  0  0  0  0  0
   34.3610   29.3110   31.1720 H   0  0  0  0  0  0  0  0  0  0  0  0
   35.9420   27.5040   31.7540 H   0  0  0  0  0  0  0  0  0  0  0  0
   32.6630   29.8540   35.8500 Cl  0  0  0  0  0  0  0  0  0  0  0  0
   33.7330   31.2050   36.0550 C   0  0  0  0  0  0  0  0  0  0  0  0
   34.8540   31.3210   35.2670 C   0  0  0  0  0  0  0  0  0  0  0  0
   35.7320   32.3640   35.3840 C   0  0  0  0  0  0  0  0  0  0  0  0
   35.4900   33.3510   36.3330 C   0  0  0  0  0  0  0  0  0  0  0  0
   34.3820   33.2710   37.1400 C   0  0  0  0  0  0  0  0  0  0  0  0
   33.9690   34.4540   38.3750 Cl  0  0  0  0  0  0  0  0  0  0  0  0
   33.5380   32.2000   36.9740 C   0  0  0  0  0  0  0  0  0  0  0  0
   36.5960   32.4210   34.7520 H   0  0  0  0  0  0  0  0  0  0  0  0
   36.1430   34.1980   36.4760 H   0  0  0  0  0  0  0  0  0  0  0  0
   32.6440   32.1060   37.6030 H   0  0  0  0  0  0  0  0  0  0  0  0
   37.2570   27.2610   34.1520 C   0  0  0  0  0  3  0  0  0  0  0  0
   37.8390   27.7490   35.4740 C   0  0  0  0  0  2  0  0  0  0  0  0
   39.0970   26.8990   35.6130 C   0  0  0  0  0  2  0  0  0  0  0  0
   39.4490   26.4320   34.2350 C   0  0  0  0  0  2  0  0  0  0  0  0
   38.4980   27.1650   33.3110 C   0  0  0  0  0  2  0  0  0  0  0  0
  1  2  2  0  0  0  0
  1  6  1  0  0  0  0
  2  3  1  0  0  0  0
  3 20  1  0  0  0  0
  3  4  2  0  0  0  0
  5  4  1  0  0  0  0
  5 11  1  0  0  0  0
  6  5  2  0  0  0  0
  7  1  1  0  0  0  0
  8  2  1  0  0  0  0
  9 10  1  0  0  0  0
 10 16  1  0  0  0  0
 11 12  1  0  0  0  0
 11 10  2  0  0  0  0
 12 13  2  0  0  0  0
 13 18  1  0  0  0  0
 13 14  1  0  0  0  0
 14 15  1  0  0  0  0
 16 14  2  0  0  0  0
 16 19  1  0  0  0  0
 17 12  1  0  0  0  0
 20 21  1  0  0  0  0
 21 22  1  0  0  0  0
 23 22  1  0  0  0  0
 24 20  1  0  0  0  0
 24 23  1  0  0  0  0
M  END
>  <minimizedAffinity>
-5.43512201

$$$$

 OpenBabel03272502433D

 24 26  0  0  0  0  0  0  0  0999 V2000
   38.6000   23.3790   38.0690 C   0  0  0  0  0  0  0  0  0  0  0  0
   39.7940   22.7420   37.7340 C   0  0  0  0  0  0  0  0  0  0  0  0
   40.4210   23.1310   36.5240 C   0  0  0  0  0  0  0  0  0  0  0  0
   39.8050   24.0890   35.7990 N   0  0  0  0  0  0  0  0  0  0  0  0
   38.6480   24.6840   36.1530 C   0  0  0  0  0  0  0  0  0  0  0  0
   38.0580   24.3140   37.2990 N   0  0  0  0  0  0  0  0  0  0  0  0
   38.1900   23.0260   39.0000 H   0  0  0  0  0  0  0  0  0  0  0  0
   40.3100   21.9740   38.2940 H   0  0  0  0  0  0  0  0  0  0  0  0
   37.7830   23.7210   33.4890 Cl  0  0  0  0  0  0  0  0  0  0  0  0
   37.6360   25.3630   34.0290 C   0  0  0  0  0  0  0  0  0  0  0  0
   38.0670   25.7170   35.2860 C   0  0  0  0  0  0  0  0  0  0  0  0
   37.9760   26.9960   35.7630 C   0  0  0  0  0  0  0  0  0  0  0  0
   37.4280   27.9850   34.9540 C   0  0  0  0  0  0  0  0  0  0  0  0
   36.9860   27.6730   33.6920 C   0  0  0  0  0  0  0  0  0  0  0  0
   36.2760   28.8330   32.5760 Cl  0  0  0  0  0  0  0  0  0  0  0  0
   37.1050   26.3710   33.2690 C   0  0  0  0  0  0  0  0  0  0  0  0
   38.3220   27.2340   36.7490 H   0  0  0  0  0  0  0  0  0  0  0  0
   37.3280   29.0120   35.2710 H   0  0  0  0  0  0  0  0  0  0  0  0
   36.7610   26.0880   32.2670 H   0  0  0  0  0  0  0  0  0  0  0  0
   41.6890   22.5740   35.9970 C   0  0  0  0  0  3  0  0  0  0  0  0
   41.9630   21.2800   36.7550 C   0  0  0  0  0  2  0  0  0  0  0  0
   43.4460   21.0510   36.4900 C   0  0  0  0  0  2  0  0  0  0  0  0
   44.0230   22.3840   36.1220 C   0  0  0  0  0  2  0  0  0  0  0  0
   42.9050   23.3790   36.3570 C   0  0  0  0  0  2  0  0  0  0  0  0
  1  7  1  0  0  0  0
  2  1  1  0  0  0  0
  2  8  1  0  0  0  0
  3  2  2  0  0  0  0
  4  5  2  0  0  0  0
  4  3  1  0  0  0  0
  5  6  1  0  0  0  0
  6  1  2  0  0  0  0
  9 10  1  0  0  0  0
 10 11  1  0  0  0  0
 11 12  2  0  0  0  0
 11  5  1  0  0  0  0
 12 17  1  0  0  0  0
 13 18  1  0  0  0  0
 13 12  1  0  0  0  0
 14 13  2  0  0  0  0
 15 14  1  0  0  0  0
 16 14  1  0  0  0  0
 16 10  2  0  0  0  0
 19 16  1  0  0  0  0
 20 24  1  0  0  0  0
 20  3  1  0  0  0  0
 20 21  1  0  0  0  0
 22 21  1  0  0  0  0
 23 24  1  0  0  0  0
 23 22  1  0  0  0  0
M  END
>  <minimizedAffinity>
-5.39861679

$$$$

 OpenBabel03272502433D

 24 26  0  0  0  0  0  0  0  0999 V2000
   35.2020   25.9890   30.8840 C   0  0  0  0  0  0  0  0  0  0  0  0
   35.9250   26.8380   31.7220 C   0  0  0  0  0  0  0  0  0  0  0  0
   36.8530   26.2380   32.6100 C   0  0  0  0  0  0  0  0  0  0  0  0
   36.9560   24.8930   32.5660 N   0  0  0  0  0  0  0  0  0  0  0  0
   36.2390   24.1020   31.7430 C   0  0  0  0  0  0  0  0  0  0  0  0
   35.3620   24.6720   30.9040 N   0  0  0  0  0  0  0  0  0  0  0  0
   34.5210   26.5230   30.2430 H   0  0  0  0  0  0  0  0  0  0  0  0
   35.8630   27.9160   31.7780 H   0  0  0  0  0  0  0  0  0  0  0  0
   38.5680   23.1240   30.1950 Cl  0  0  0  0  0  0  0  0  0  0  0  0
   37.4910   22.1000   31.0910 C   0  0  0  0  0  0  0  0  0  0  0  0
   36.4340   22.6460   31.7810 C   0  0  0  0  0  0  0  0  0  0  0  0
   35.5540   21.8880   32.5020 C   0  0  0  0  0  0  0  0  0  0  0  0
   35.7260   20.5080   32.5480 C   0  0  0  0  0  0  0  0  0  0  0  0
   36.7680   19.9240   31.8730 C   0  0  0  0  0  0  0  0  0  0  0  0
   37.0900   18.1940   31.8530 Cl  0  0  0  0  0  0  0  0  0  0  0  0
   37.6180   20.7390   31.1650 C   0  0  0  0  0  0  0  0  0  0  0  0
   34.7420   22.3490   33.0280 H   0  0  0  0  0  0  0  0  0  0  0  0
   35.0670   19.8540   33.0990 H   0  0  0  0  0  0  0  0  0  0  0  0
   38.4620   20.3040   30.6150 H   0  0  0  0  0  0  0  0  0  0  0  0
   37.7120   26.9660   33.5730 C   0  0  0  0  0  3  0  0  0  0  0  0
   39.0430   26.2260   33.6400 C   0  0  0  0  0  2  0  0  0  0  0  0
   39.6430   26.7480   34.9410 C   0  0  0  0  0  2  0  0  0  0  0  0
   38.5000   27.2590   35.7620 C   0  0  0  0  0  2  0  0  0  0  0  0
   37.2530   26.8600   34.9990 C   0  0  0  0  0  2  0  0  0  0  0  0
  1  6  2  0  0  0  0
  1  2  1  0  0  0  0
  2  8  1  0  0  0  0
  2  3  2  0  0  0  0
  3 20  1  0  0  0  0
  4  3  1  0  0  0  0
  5 11  1  0  0  0  0
  5  4  2  0  0  0  0
  6  5  1  0  0  0  0
  7  1  1  0  0  0  0
  9 10  1  0  0  0  0
 10 16  2  0  0  0  0
 10 11  1  0  0  0  0
 11 12  2  0  0  0  0
 12 13  1  0  0  0  0
 12 17  1  0  0  0  0
 13 18  1  0  0  0  0
 14 13  2  0  0  0  0
 15 14  1  0  0  0  0
 16 14  1  0  0  0  0
 19 16  1  0  0  0  0
 20 21  1  0  0  0  0
 20 24  1  0  0  0  0
 21 22  1  0  0  0  0
 22 23  1  0  0  0  0
 24 23  1  0  0  0  0
M  END
>  <minimizedAffinity>
-5.37999582

$$$$

 OpenBabel03272502433D

 24 26  0  0  0  0  0  0  0  0999 V2000
   37.8320   23.6270   37.9100 C   0  0  0  0  0  0  0  0  0  0  0  0
   39.0880   23.0750   38.1590 C   0  0  0  0  0  0  0  0  0  0  0  0
   40.0720   23.2160   37.1480 C   0  0  0  0  0  0  0  0  0  0  0  0
   39.7050   23.8750   36.0280 N   0  0  0  0  0  0  0  0  0  0  0  0
   38.4790   24.3950   35.8200 C   0  0  0  0  0  0  0  0  0  0  0  0
   37.5500   24.2610   36.7780 N   0  0  0  0  0  0  0  0  0  0  0  0
   37.1440   23.4770   38.7250 H   0  0  0  0  0  0  0  0  0  0  0  0
   39.4090   22.5440   39.0440 H   0  0  0  0  0  0  0  0  0  0  0  0
   38.7840   27.3390   35.9390 Cl  0  0  0  0  0  0  0  0  0  0  0  0
   38.3060   26.4640   34.5190 C   0  0  0  0  0  0  0  0  0  0  0  0
   38.1910   25.0940   34.5600 C   0  0  0  0  0  0  0  0  0  0  0  0
   37.8160   24.3530   33.4730 C   0  0  0  0  0  0  0  0  0  0  0  0
   37.5400   25.0000   32.2730 C   0  0  0  0  0  0  0  0  0  0  0  0
   37.6440   26.3660   32.1910 C   0  0  0  0  0  0  0  0  0  0  0  0
   37.3210   27.2980   30.7330 Cl  0  0  0  0  0  0  0  0  0  0  0  0
   38.0230   27.0550   33.3180 C   0  0  0  0  0  0  0  0  0  0  0  0
   37.7380   23.2860   33.5420 H   0  0  0  0  0  0  0  0  0  0  0  0
   37.2410   24.4740   31.3790 H   0  0  0  0  0  0  0  0  0  0  0  0
   38.1160   28.1480   33.2850 H   0  0  0  0  0  0  0  0  0  0  0  0
   41.4590   22.7010   37.2240 C   0  0  0  0  0  3  0  0  0  0  0  0
   42.2200   23.2770   36.0350 C   0  0  0  0  0  2  0  0  0  0  0  0
   43.4320   22.3570   35.9440 C   0  0  0  0  0  2  0  0  0  0  0  0
   43.0530   21.0850   36.6370 C   0  0  0  0  0  2  0  0  0  0  0  0
   41.5780   21.2290   36.9540 C   0  0  0  0  0  2  0  0  0  0  0  0
  1  2  1  0  0  0  0
  1  7  1  0  0  0  0
  2  8  1  0  0  0  0
  3 20  1  0  0  0  0
  3  2  2  0  0  0  0
  4  3  1  0  0  0  0
  5  4  2  0  0  0  0
  5  6  1  0  0  0  0
  6  1  2  0  0  0  0
 10 11  1  0  0  0  0
 10  9  1  0  0  0  0
 11  5  1  0  0  0  0
 12 17  1  0  0  0  0
 12 11  2  0  0  0  0
 13 12  1  0  0  0  0
 14 13  2  0  0  0  0
 14 16  1  0  0  0  0
 15 14  1  0  0  0  0
 16 10  2  0  0  0  0
 18 13  1  0  0  0  0
 19 16  1  0  0  0  0
 21 20  1  0  0  0  0
 22 21  1  0  0  0  0
 22 23  1  0  0  0  0
 23 24  1  0  0  0  0
 24 20  1  0  0  0  0
M  END
>  <minimizedAffinity>
-5.27958155

$$$$

 OpenBabel03272502433D

 24 26  0  0  0  0  0  0  0  0999 V2000
   38.5260   24.1660   30.4520 C   0  0  0  0  0  0  0  0  0  0  0  0
   37.7960   22.9870   30.5960 C   0  0  0  0  0  0  0  0  0  0  0  0
   36.6590   23.0260   31.4430 C   0  0  0  0  0  0  0  0  0  0  0  0
   36.3830   24.2050   32.0390 N   0  0  0  0  0  0  0  0  0  0  0  0
   37.1140   25.3270   31.8780 C   0  0  0  0  0  0  0  0  0  0  0  0
   38.1870   25.2880   31.0760 N   0  0  0  0  0  0  0  0  0  0  0  0
   39.3710   24.0520   29.7940 H   0  0  0  0  0  0  0  0  0  0  0  0
   37.9920   22.0300   30.1330 H   0  0  0  0  0  0  0  0  0  0  0  0
   38.0860   25.5330   34.6680 Cl  0  0  0  0  0  0  0  0  0  0  0  0
   37.1250   26.7420   33.8780 C   0  0  0  0  0  0  0  0  0  0  0  0
   36.7190   26.5580   32.5770 C   0  0  0  0  0  0  0  0  0  0  0  0
   35.9600   27.4760   31.9050 C   0  0  0  0  0  0  0  0  0  0  0  0
   35.5780   28.6450   32.5530 C   0  0  0  0  0  0  0  0  0  0  0  0
   35.9630   28.8670   33.8520 C   0  0  0  0  0  0  0  0  0  0  0  0
   35.5440   30.3040   34.7770 Cl  0  0  0  0  0  0  0  0  0  0  0  0
   36.7240   27.9070   34.4730 C   0  0  0  0  0  0  0  0  0  0  0  0
   35.6620   27.2980   30.8900 H   0  0  0  0  0  0  0  0  0  0  0  0
   34.9800   29.4090   32.0790 H   0  0  0  0  0  0  0  0  0  0  0  0
   37.0490   28.0540   35.5110 H   0  0  0  0  0  0  0  0  0  0  0  0
   35.7590   21.8820   31.7230 C   0  0  0  0  0  3  0  0  0  0  0  0
   36.0920   21.3790   33.1240 C   0  0  0  0  0  2  0  0  0  0  0  0
   35.4780   19.9840   33.1260 C   0  0  0  0  0  2  0  0  0  0  0  0
   35.3490   19.5740   31.6910 C   0  0  0  0  0  2  0  0  0  0  0  0
   36.0530   20.6600   30.9030 C   0  0  0  0  0  2  0  0  0  0  0  0
  1  2  2  0  0  0  0
  1  6  1  0  0  0  0
  2  3  1  0  0  0  0
  3 20  1  0  0  0  0
  3  4  2  0  0  0  0
  5  4  1  0  0  0  0
  5 11  1  0  0  0  0
  6  5  2  0  0  0  0
  7  1  1  0  0  0  0
  8  2  1  0  0  0  0
 10 16  1  0  0  0  0
 10  9  1  0  0  0  0
 11 10  2  0  0  0  0
 12 13  2  0  0  0  0
 12 11  1  0  0  0  0
 13 14  1  0  0  0  0
 14 16  2  0  0  0  0
 14 15  1  0  0  0  0
 16 19  1  0  0  0  0
 17 12  1  0  0  0  0
 18 13  1  0  0  0  0
 20 21  1  0  0  0  0
 21 22  1  0  0  0  0
 23 22  1  0  0  0  0
 24 23  1  0  0  0  0
 24 20  1  0  0  0  0
M  END
>  <minimizedAffinity>
-5.24741793

$$$$

 OpenBabel03272502433D

 24 26  0  0  0  0  0  0  0  0999 V2000
   36.1230   30.2140   31.0560 C   0  0  0  0  0  0  0  0  0  0  0  0
   35.8090   30.7380   32.3100 C   0  0  0  0  0  0  0  0  0  0  0  0
   35.6530   29.8190   33.3780 C   0  0  0  0  0  0  0  0  0  0  0  0
   35.8230   28.5120   33.0880 N   0  0  0  0  0  0  0  0  0  0  0  0
   36.1250   28.0390   31.8610 C   0  0  0  0  0  0  0  0  0  0  0  0
   36.2720   28.9110   30.8530 N   0  0  0  0  0  0  0  0  0  0  0  0
   36.2230   30.9760   30.3030 H   0  0  0  0  0  0  0  0  0  0  0  0
   35.6670   31.7780   32.5720 H   0  0  0  0  0  0  0  0  0  0  0  0
   38.8280   26.9990   32.4810 Cl  0  0  0  0  0  0  0  0  0  0  0  0
   37.5100   26.0200   31.9220 C   0  0  0  0  0  0  0  0  0  0  0  0
   36.2880   26.5930   31.6600 C   0  0  0  0  0  0  0  0  0  0  0  0
   35.2140   25.8710   31.2160 C   0  0  0  0  0  0  0  0  0  0  0  0
   35.3530   24.5010   31.0210 C   0  0  0  0  0  0  0  0  0  0  0  0
   36.5560   23.8900   31.2710 C   0  0  0  0  0  0  0  0  0  0  0  0
   36.8550   22.1690   31.0620 Cl  0  0  0  0  0  0  0  0  0  0  0  0
   37.5970   24.6700   31.7140 C   0  0  0  0  0  0  0  0  0  0  0  0
   34.2770   26.3530   31.0230 H   0  0  0  0  0  0  0  0  0  0  0  0
   34.5450   23.8750   30.6730 H   0  0  0  0  0  0  0  0  0  0  0  0
   38.5720   24.2120   31.9240 H   0  0  0  0  0  0  0  0  0  0  0  0
   35.3220   30.1790   34.7770 C   0  0  0  0  0  3  0  0  0  0  0  0
   33.8460   30.5600   34.8070 C   0  0  0  0  0  2  0  0  0  0  0  0
   33.7320   31.3290   36.1190 C   0  0  0  0  0  2  0  0  0  0  0  0
   35.1120   31.8040   36.4540 C   0  0  0  0  0  2  0  0  0  0  0  0
   35.9570   31.4560   35.2450 C   0  0  0  0  0  2  0  0  0  0  0  0
  1  2  1  0  0  0  0
  2  8  1  0  0  0  0
  2  3  2  0  0  0  0
  3 20  1  0  0  0  0
  4  3  1  0  0  0  0
  5  4  2  0  0  0  0
  6  1  2  0  0  0  0
  6  5  1  0  0  0  0
  7  1  1  0  0  0  0
 10  9  1  0  0  0  0
 11  5  1  0  0  0  0
 11 10  2  0  0  0  0
 12 11  1  0  0  0  0
 13 12  2  0  0  0  0
 13 14  1  0  0  0  0
 14 16  2  0  0  0  0
 15 14  1  0  0  0  0
 16 10  1  0  0  0  0
 16 19  1  0  0  0  0
 17 12  1  0  0  0  0
 18 13  1  0  0  0  0
 20 21  1  0  0  0  0
 20 24  1  0  0  0  0
 21 22  1  0  0  0  0
 22 23  1  0  0  0  0
 24 23  1  0  0  0  0
M  END
>  <minimizedAffinity>
-5.21007872

$$$$

 OpenBabel03272502433D

 24 26  0  0  0  0  0  0  0  0999 V2000
   36.1870   29.1400   31.1760 C   0  0  0  0  0  0  0  0  0  0  0  0
   37.1460   28.2840   31.7160 C   0  0  0  0  0  0  0  0  0  0  0  0
   37.0060   27.9290   33.0810 C   0  0  0  0  0  0  0  0  0  0  0  0
   35.9520   28.4550   33.7420 N   0  0  0  0  0  0  0  0  0  0  0  0
   35.0440   29.2830   33.1880 C   0  0  0  0  0  0  0  0  0  0  0  0
   35.1780   29.6160   31.8960 N   0  0  0  0  0  0  0  0  0  0  0  0
   36.3660   29.3590   30.1370 H   0  0  0  0  0  0  0  0  0  0  0  0
   37.9980   27.8480   31.2120 H   0  0  0  0  0  0  0  0  0  0  0  0
   35.8510   31.1480   35.3430 Cl  0  0  0  0  0  0  0  0  0  0  0  0
   34.2130   30.6680   35.0290 C   0  0  0  0  0  0  0  0  0  0  0  0
   33.9350   29.7950   34.0040 C   0  0  0  0  0  0  0  0  0  0  0  0
   32.6640   29.3820   33.7110 C   0  0  0  0  0  0  0  0  0  0  0  0
   31.6030   29.8590   34.4750 C   0  0  0  0  0  0  0  0  0  0  0  0
   31.8390   30.7320   35.5070 C   0  0  0  0  0  0  0  0  0  0  0  0
   30.5840   31.4030   36.5430 Cl  0  0  0  0  0  0  0  0  0  0  0  0
   33.1370   31.1090   35.7520 C   0  0  0  0  0  0  0  0  0  0  0  0
   32.4850   28.7010   32.9040 H   0  0  0  0  0  0  0  0  0  0  0  0
   30.5780   29.5730   34.2960 H   0  0  0  0  0  0  0  0  0  0  0  0
   33.3600   31.8060   36.5690 H   0  0  0  0  0  0  0  0  0  0  0  0
   37.9170   27.0350   33.8330 C   0  0  0  0  0  3  0  0  0  0  0  0
   37.9260   27.5140   35.2810 C   0  0  0  0  0  2  0  0  0  0  0  0
   39.1890   26.8640   35.8340 C   0  0  0  0  0  2  0  0  0  0  0  0
   40.0600   26.5570   34.6550 C   0  0  0  0  0  2  0  0  0  0  0  0
   39.3650   27.1960   33.4700 C   0  0  0  0  0  2  0  0  0  0  0  0
  1  2  2  0  0  0  0
  1  6  1  0  0  0  0
  2  3  1  0  0  0  0
  3  4  2  0  0  0  0
  3 20  1  0  0  0  0
  5  4  1  0  0  0  0
  5 11  1  0  0  0  0
  6  5  2  0  0  0  0
  7  1  1  0  0  0  0
  8  2  1  0  0  0  0
 10  9  1  0  0  0  0
 10 16  1  0  0  0  0
 11 10  2  0  0  0  0
 12 11  1  0  0  0  0
 12 13  2  0  0  0  0
 13 14  1  0  0  0  0
 14 16  2  0  0  0  0
 14 15  1  0  0  0  0
 16 19  1  0  0  0  0
 17 12  1  0  0  0  0
 18 13  1  0  0  0  0
 20 21  1  0  0  0  0
 21 22  1  0  0  0  0
 23 22  1  0  0  0  0
 24 20  1  0  0  0  0
 24 23  1  0  0  0  0
M  END
>  <minimizedAffinity>
-5.11768198

$$$$

 OpenBabel03272502433D

 24 26  0  0  0  0  0  0  0  0999 V2000
   36.5720   29.3730   31.6100 C   0  0  0  0  0  0  0  0  0  0  0  0
   35.9090   30.1650   32.5480 C   0  0  0  0  0  0  0  0  0  0  0  0
   35.7370   29.6250   33.8480 C   0  0  0  0  0  0  0  0  0  0  0  0
   36.2300   28.3880   34.0650 N   0  0  0  0  0  0  0  0  0  0  0  0
   36.8650   27.6490   33.1330 C   0  0  0  0  0  0  0  0  0  0  0  0
   37.0270   28.1610   31.9040 N   0  0  0  0  0  0  0  0  0  0  0  0
   36.6610   29.8550   30.6520 H   0  0  0  0  0  0  0  0  0  0  0  0
   35.5050   31.1570   32.4040 H   0  0  0  0  0  0  0  0  0  0  0  0
   38.4810   27.5350   35.6120 Cl  0  0  0  0  0  0  0  0  0  0  0  0
   38.1230   26.1600   34.6160 C   0  0  0  0  0  0  0  0  0  0  0  0
   37.3620   26.3110   33.4810 C   0  0  0  0  0  0  0  0  0  0  0  0
   37.0490   25.2630   32.6580 C   0  0  0  0  0  0  0  0  0  0  0  0
   37.5130   23.9910   32.9740 C   0  0  0  0  0  0  0  0  0  0  0  0
   38.2750   23.7980   34.1000 C   0  0  0  0  0  0  0  0  0  0  0  0
   38.9190   22.2400   34.6050 Cl  0  0  0  0  0  0  0  0  0  0  0  0
   38.5560   24.8900   34.8850 C   0  0  0  0  0  0  0  0  0  0  0  0
   36.4530   25.4190   31.7810 H   0  0  0  0  0  0  0  0  0  0  0  0
   37.3010   23.1230   32.3680 H   0  0  0  0  0  0  0  0  0  0  0  0
   39.1630   24.7700   35.7910 H   0  0  0  0  0  0  0  0  0  0  0  0
   35.0630   30.3080   34.9780 C   0  0  0  0  0  3  0  0  0  0  0  0
   34.1280   31.3540   34.3790 C   0  0  0  0  0  2  0  0  0  0  0  0
   33.8600   32.2710   35.5670 C   0  0  0  0  0  2  0  0  0  0  0  0
   34.9910   32.0660   36.5270 C   0  0  0  0  0  2  0  0  0  0  0  0
   35.9750   31.1750   35.7970 C   0  0  0  0  0  2  0  0  0  0  0  0
  1  6  2  0  0  0  0
  1  2  1  0  0  0  0
  2  3  2  0  0  0  0
  3  4  1  0  0  0  0
  3 20  1  0  0  0  0
  5 11  1  0  0  0  0
  5  4  2  0  0  0  0
  6  5  1  0  0  0  0
  7  1  1  0  0  0  0
  8  2  1  0  0  0  0
 10 16  1  0  0  0  0
 10  9  1  0  0  0  0
 11 10  2  0  0  0  0
 12 13  2  0  0  0  0
 12 11  1  0  0  0  0
 13 14  1  0  0  0  0
 14 15  1  0  0  0  0
 14 16  2  0  0  0  0
 16 19  1  0  0  0  0
 17 12  1  0  0  0  0
 18 13  1  0  0  0  0
 20 24  1  0  0  0  0
 21 20  1  0  0  0  0
 21 22  1  0  0  0  0
 22 23  1  0  0  0  0
 24 23  1  0  0  0  0
M  END
>  <minimizedAffinity>
-5.06953716

$$$$

 OpenBabel03272502433D

 24 26  0  0  0  0  0  0  0  0999 V2000
   39.5690   22.4570   33.1400 C   0  0  0  0  0  0  0  0  0  0  0  0
   39.3690   22.2290   34.5020 C   0  0  0  0  0  0  0  0  0  0  0  0
   38.6060   23.1860   35.2160 C   0  0  0  0  0  0  0  0  0  0  0  0
   38.1380   24.2390   34.5140 N   0  0  0  0  0  0  0  0  0  0  0  0
   38.3520   24.4300   33.1970 C   0  0  0  0  0  0  0  0  0  0  0  0
   39.0730   23.5230   32.5230 N   0  0  0  0  0  0  0  0  0  0  0  0
   40.1570   21.6860   32.6730 H   0  0  0  0  0  0  0  0  0  0  0  0
   39.7300   21.3960   35.0890 H   0  0  0  0  0  0  0  0  0  0  0  0
   40.0580   26.8470   33.3380 Cl  0  0  0  0  0  0  0  0  0  0  0  0
   38.5140   26.7860   32.5470 C   0  0  0  0  0  0  0  0  0  0  0  0
   37.7930   25.6160   32.5340 C   0  0  0  0  0  0  0  0  0  0  0  0
   36.5710   25.5100   31.9270 C   0  0  0  0  0  0  0  0  0  0  0  0
   36.0290   26.6240   31.2950 C   0  0  0  0  0  0  0  0  0  0  0  0
   36.7180   27.8110   31.2860 C   0  0  0  0  0  0  0  0  0  0  0  0
   36.1380   29.2860   30.5220 Cl  0  0  0  0  0  0  0  0  0  0  0  0
   37.9390   27.8550   31.9130 C   0  0  0  0  0  0  0  0  0  0  0  0
   36.0380   24.5800   31.9370 H   0  0  0  0  0  0  0  0  0  0  0  0
   35.0700   26.6060   30.7980 H   0  0  0  0  0  0  0  0  0  0  0  0
   38.5160   28.7880   31.9230 H   0  0  0  0  0  0  0  0  0  0  0  0
   38.2840   23.1210   36.6610 C   0  0  0  0  0  3  0  0  0  0  0  0
   37.7980   24.5040   37.0780 C   0  0  0  0  0  2  0  0  0  0  0  0
   37.9430   24.4600   38.5950 C   0  0  0  0  0  2  0  0  0  0  0  0
   38.9440   23.3870   38.8950 C   0  0  0  0  0  2  0  0  0  0  0  0
   39.4870   22.9610   37.5460 C   0  0  0  0  0  2  0  0  0  0  0  0
  1  2  1  0  0  0  0
  2  8  1  0  0  0  0
  2  3  2  0  0  0  0
  3 20  1  0  0  0  0
  4  3  1  0  0  0  0
  5  4  2  0  0  0  0
  6  1  2  0  0  0  0
  6  5  1  0  0  0  0
  7  1  1  0  0  0  0
 10  9  1  0  0  0  0
 11 10  1  0  0  0  0
 11  5  1  0  0  0  0
 12 17  1  0  0  0  0
 12 11  2  0  0  0  0
 13 12  1  0  0  0  0
 14 13  2  0  0  0  0
 14 16  1  0  0  0  0
 15 14  1  0  0  0  0
 16 19  1  0  0  0  0
 16 10  2  0  0  0  0
 18 13  1  0  0  0  0
 20 21  1  0  0  0  0
 20 24  1  0  0  0  0
 21 22  1  0  0  0  0
 22 23  1  0  0  0  0
 24 23  1  0  0  0  0
M  END
>  <minimizedAffinity>
-5.04005527

$$$$
