
 OpenBabel03272508463D

 23 25  0  0  0  0  0  0  0  0999 V2000
   37.9870   25.4920   35.8320 C   0  0  0  0  0  0  0  0  0  0  0  0
   38.3420   26.7310   36.3540 C   0  0  0  0  0  0  0  0  0  0  0  0
   37.9410   27.6010   35.3270 C   0  0  0  0  0  0  0  0  0  0  0  0
   37.3950   26.8810   34.2960 C   0  0  0  0  0  0  0  0  0  0  0  0
   37.4390   25.6110   34.6320 O   0  0  0  0  0  0  0  0  0  0  0  0
   38.8040   26.8920   37.3120 H   0  0  0  0  0  0  0  0  0  0  0  0
   38.0810   28.6890   35.4180 H   0  0  0  0  0  0  0  0  0  0  0  0
   36.8590   27.4070   33.0480 C   0  0  0  0  0  3  0  0  0  0  0  0
   37.9230   27.7580   32.0320 C   0  0  0  0  0  2  0  0  0  0  0  0
   37.0730   28.4190   30.9560 C   0  0  0  0  0  2  0  0  0  0  0  0
   35.8880   29.0290   31.6940 C   0  0  0  0  0  2  0  0  0  0  0  0
   36.1670   28.7510   33.1690 C   0  0  0  0  0  2  0  0  0  0  0  0
   38.2080   24.2210   36.5480 C   0  0  0  0  0  0  0  0  0  0  0  0
   37.2530   23.7230   37.1700 O   0  0  0  0  0  0  0  0  0  0  0  0
   40.9920   22.0410   37.4270 C   0  0  0  0  0  0  0  0  0  0  0  0
   41.9650   22.3750   36.4850 C   0  0  0  0  0  0  0  0  0  0  0  0
   41.6830   23.3440   35.5420 C   0  0  0  0  0  0  0  0  0  0  0  0
   40.4580   23.9230   35.5890 N   0  0  0  0  0  0  0  0  0  0  0  0
   39.5160   23.5920   36.5100 C   0  0  0  0  0  0  0  0  0  0  0  0
   39.8020   22.6520   37.4180 N   0  0  0  0  0  0  0  0  0  0  0  0
   41.2660   21.2810   38.1370 H   0  0  0  0  0  0  0  0  0  0  0  0
   42.9540   21.9520   36.3960 H   0  0  0  0  0  0  0  0  0  0  0  0
   42.3040   23.7270   34.7460 H   0  0  0  0  0  0  0  0  0  0  0  0
  1  2  2  0  0  0  0
  1 13  1  0  0  0  0
  2  6  1  0  0  0  0
  3  7  1  0  0  0  0
  3  2  1  0  0  0  0
  4  5  1  0  0  0  0
  4  3  2  0  0  0  0
  5  1  1  0  0  0  0
  8 12  1  0  0  0  0
  8  4  1  0  0  0  0
  9  8  1  0  0  0  0
 10 11  1  0  0  0  0
 10  9  1  0  0  0  0
 11 12  1  0  0  0  0
 13 14  2  0  0  0  0
 15 21  1  0  0  0  0
 16 15  2  0  0  0  0
 17 18  2  0  0  0  0
 17 16  1  0  0  0  0
 18 19  1  0  0  0  0
 19 13  1  0  0  0  0
 19 20  2  0  0  0  0
 20 15  1  0  0  0  0
 22 16  1  0  0  0  0
 23 17  1  0  0  0  0
M  END
>  <minimizedAffinity>
-5.10389948

$$$$

 OpenBabel03272508463D

 23 25  0  0  0  0  0  0  0  0999 V2000
   37.8210   24.3130   33.3260 C   0  0  0  0  0  0  0  0  0  0  0  0
   37.1000   25.1630   32.4950 C   0  0  0  0  0  0  0  0  0  0  0  0
   36.3040   24.2550   31.7760 C   0  0  0  0  0  0  0  0  0  0  0  0
   36.5720   22.9760   32.1890 C   0  0  0  0  0  0  0  0  0  0  0  0
   37.4920   23.0460   33.1240 O   0  0  0  0  0  0  0  0  0  0  0  0
   37.1910   26.2350   32.4730 H   0  0  0  0  0  0  0  0  0  0  0  0
   35.5940   24.6050   31.0110 H   0  0  0  0  0  0  0  0  0  0  0  0
   35.9600   21.7510   31.6940 C   0  0  0  0  0  3  0  0  0  0  0  0
   35.2150   20.9730   32.7560 C   0  0  0  0  0  2  0  0  0  0  0  0
   34.8610   19.7120   31.9800 C   0  0  0  0  0  2  0  0  0  0  0  0
   35.9670   19.5490   30.9460 C   0  0  0  0  0  2  0  0  0  0  0  0
   36.9400   20.6880   31.2390 C   0  0  0  0  0  2  0  0  0  0  0  0
   38.8210   24.7910   34.2990 C   0  0  0  0  0  0  0  0  0  0  0  0
   39.6550   25.6320   33.9210 O   0  0  0  0  0  0  0  0  0  0  0  0
   39.7640   22.8700   37.2480 C   0  0  0  0  0  0  0  0  0  0  0  0
   38.8270   23.2710   38.2000 C   0  0  0  0  0  0  0  0  0  0  0  0
   37.8650   24.1980   37.8480 C   0  0  0  0  0  0  0  0  0  0  0  0
   37.8900   24.6710   36.5770 N   0  0  0  0  0  0  0  0  0  0  0  0
   38.8060   24.2760   35.6570 C   0  0  0  0  0  0  0  0  0  0  0  0
   39.7320   23.3760   36.0100 N   0  0  0  0  0  0  0  0  0  0  0  0
   40.4890   22.1460   37.5770 H   0  0  0  0  0  0  0  0  0  0  0  0
   38.7550   22.9330   39.2230 H   0  0  0  0  0  0  0  0  0  0  0  0
   37.0700   24.6200   38.4440 H   0  0  0  0  0  0  0  0  0  0  0  0
  1 13  1  0  0  0  0
  2  1  2  0  0  0  0
  3  4  2  0  0  0  0
  3  2  1  0  0  0  0
  4  5  1  0  0  0  0
  5  1  1  0  0  0  0
  6  2  1  0  0  0  0
  7  3  1  0  0  0  0
  8  4  1  0  0  0  0
  8  9  1  0  0  0  0
 10  9  1  0  0  0  0
 11 12  1  0  0  0  0
 11 10  1  0  0  0  0
 12  8  1  0  0  0  0
 13 19  1  0  0  0  0
 14 13  2  0  0  0  0
 15 21  1  0  0  0  0
 15 16  1  0  0  0  0
 16 22  1  0  0  0  0
 17 16  2  0  0  0  0
 17 23  1  0  0  0  0
 18 17  1  0  0  0  0
 19 20  1  0  0  0  0
 19 18  2  0  0  0  0
 20 15  2  0  0  0  0
M  END
>  <minimizedAffinity>
-4.99587965

$$$$

 OpenBabel03272508463D

 23 25  0  0  0  0  0  0  0  0999 V2000
   38.4980   25.2370   35.8390 C   0  0  0  0  0  0  0  0  0  0  0  0
   37.7510   24.5000   36.7510 C   0  0  0  0  0  0  0  0  0  0  0  0
   38.5970   23.4050   36.9960 C   0  0  0  0  0  0  0  0  0  0  0  0
   39.7460   23.5340   36.2600 C   0  0  0  0  0  0  0  0  0  0  0  0
   39.6540   24.6490   35.5720 O   0  0  0  0  0  0  0  0  0  0  0  0
   36.7790   24.7730   37.1220 H   0  0  0  0  0  0  0  0  0  0  0  0
   38.3030   22.6060   37.6930 H   0  0  0  0  0  0  0  0  0  0  0  0
   40.8740   22.6130   36.2310 C   0  0  0  0  0  3  0  0  0  0  0  0
   40.9790   21.7440   37.4650 C   0  0  0  0  0  2  0  0  0  0  0  0
   42.3100   21.0510   37.2040 C   0  0  0  0  0  2  0  0  0  0  0  0
   43.1220   22.0340   36.3710 C   0  0  0  0  0  2  0  0  0  0  0  0
   42.2370   23.2740   36.2650 C   0  0  0  0  0  2  0  0  0  0  0  0
   38.0330   26.5120   35.2580 C   0  0  0  0  0  0  0  0  0  0  0  0
   38.2460   27.5600   35.8920 O   0  0  0  0  0  0  0  0  0  0  0  0
   36.1770   27.7100   32.3610 C   0  0  0  0  0  0  0  0  0  0  0  0
   36.0450   26.5650   31.5740 C   0  0  0  0  0  0  0  0  0  0  0  0
   36.5860   25.3760   32.0220 C   0  0  0  0  0  0  0  0  0  0  0  0
   37.2240   25.3910   33.2190 N   0  0  0  0  0  0  0  0  0  0  0  0
   37.3470   26.5100   33.9780 C   0  0  0  0  0  0  0  0  0  0  0  0
   36.8180   27.6560   33.5340 N   0  0  0  0  0  0  0  0  0  0  0  0
   35.7360   28.6070   31.9640 H   0  0  0  0  0  0  0  0  0  0  0  0
   35.5510   26.4890   30.6170 H   0  0  0  0  0  0  0  0  0  0  0  0
   36.5830   24.4020   31.5540 H   0  0  0  0  0  0  0  0  0  0  0  0
  1  2  2  0  0  0  0
  2  3  1  0  0  0  0
  2  6  1  0  0  0  0
  3  7  1  0  0  0  0
  4  3  2  0  0  0  0
  5  1  1  0  0  0  0
  5  4  1  0  0  0  0
  8  4  1  0  0  0  0
  8 12  1  0  0  0  0
  8  9  1  0  0  0  0
 10  9  1  0  0  0  0
 11 10  1  0  0  0  0
 12 11  1  0  0  0  0
 13  1  1  0  0  0  0
 13 14  2  0  0  0  0
 15 20  1  0  0  0  0
 16 17  1  0  0  0  0
 16 15  2  0  0  0  0
 17 18  2  0  0  0  0
 18 19  1  0  0  0  0
 19 13  1  0  0  0  0
 20 19  2  0  0  0  0
 21 15  1  0  0  0  0
 22 16  1  0  0  0  0
 23 17  1  0  0  0  0
M  END
>  <minimizedAffinity>
-4.92530537

$$$$

 OpenBabel03272508463D

 23 25  0  0  0  0  0  0  0  0999 V2000
   37.5100   22.4840   36.1330 C   0  0  0  0  0  0  0  0  0  0  0  0
   36.4820   21.7720   36.7410 C   0  0  0  0  0  0  0  0  0  0  0  0
   35.9610   21.0410   35.6610 C   0  0  0  0  0  0  0  0  0  0  0  0
   36.6630   21.3350   34.5210 C   0  0  0  0  0  0  0  0  0  0  0  0
   37.5900   22.2100   34.8400 O   0  0  0  0  0  0  0  0  0  0  0  0
   36.2200   21.8270   37.7830 H   0  0  0  0  0  0  0  0  0  0  0  0
   35.1110   20.3550   35.7970 H   0  0  0  0  0  0  0  0  0  0  0  0
   36.4390   20.7890   33.1890 C   0  0  0  0  0  3  0  0  0  0  0  0
   35.7570   21.7540   32.2450 C   0  0  0  0  0  2  0  0  0  0  0  0
   35.5200   20.8480   31.0450 C   0  0  0  0  0  2  0  0  0  0  0  0
   35.3730   19.4450   31.6190 C   0  0  0  0  0  2  0  0  0  0  0  0
   35.4560   19.6360   33.1320 C   0  0  0  0  0  2  0  0  0  0  0  0
   38.3840   23.4220   36.8630 C   0  0  0  0  0  0  0  0  0  0  0  0
   38.7060   23.1390   38.0300 O   0  0  0  0  0  0  0  0  0  0  0  0
   38.5450   26.9200   35.8550 C   0  0  0  0  0  0  0  0  0  0  0  0
   39.6510   26.9540   35.0060 C   0  0  0  0  0  0  0  0  0  0  0  0
   40.3520   25.7880   34.7690 C   0  0  0  0  0  0  0  0  0  0  0  0
   39.9170   24.6610   35.3850 N   0  0  0  0  0  0  0  0  0  0  0  0
   38.8390   24.6370   36.2100 C   0  0  0  0  0  0  0  0  0  0  0  0
   38.1670   25.7730   36.4310 N   0  0  0  0  0  0  0  0  0  0  0  0
   38.0370   27.8570   36.0040 H   0  0  0  0  0  0  0  0  0  0  0  0
   40.0460   27.8160   34.4890 H   0  0  0  0  0  0  0  0  0  0  0  0
   41.2230   25.6250   34.1500 H   0  0  0  0  0  0  0  0  0  0  0  0
  1  2  2  0  0  0  0
  1 13  1  0  0  0  0
  2  6  1  0  0  0  0
  3  7  1  0  0  0  0
  3  2  1  0  0  0  0
  4  5  1  0  0  0  0
  4  3  2  0  0  0  0
  5  1  1  0  0  0  0
  8  4  1  0  0  0  0
  9  8  1  0  0  0  0
 10 11  1  0  0  0  0
 10  9  1  0  0  0  0
 11 12  1  0  0  0  0
 12  8  1  0  0  0  0
 13 14  2  0  0  0  0
 15 21  1  0  0  0  0
 15 20  1  0  0  0  0
 16 15  2  0  0  0  0
 17 16  1  0  0  0  0
 17 18  2  0  0  0  0
 18 19  1  0  0  0  0
 19 20  2  0  0  0  0
 19 13  1  0  0  0  0
 22 16  1  0  0  0  0
 23 17  1  0  0  0  0
M  END
>  <minimizedAffinity>
-4.92518234

$$$$

 OpenBabel03272508463D

 23 25  0  0  0  0  0  0  0  0999 V2000
   37.3180   25.3330   33.3420 C   0  0  0  0  0  0  0  0  0  0  0  0
   37.1890   26.6150   33.8650 C   0  0  0  0  0  0  0  0  0  0  0  0
   37.7100   26.4510   35.1590 C   0  0  0  0  0  0  0  0  0  0  0  0
   38.1040   25.1500   35.3380 C   0  0  0  0  0  0  0  0  0  0  0  0
   37.8530   24.5020   34.2240 O   0  0  0  0  0  0  0  0  0  0  0  0
   36.7820   27.4610   33.3400 H   0  0  0  0  0  0  0  0  0  0  0  0
   37.7590   27.2970   35.8630 H   0  0  0  0  0  0  0  0  0  0  0  0
   38.6950   24.5730   36.5380 C   0  0  0  0  0  3  0  0  0  0  0  0
   39.4880   23.3110   36.2770 C   0  0  0  0  0  2  0  0  0  0  0  0
   39.8070   22.8840   37.7030 C   0  0  0  0  0  2  0  0  0  0  0  0
   38.6570   23.4090   38.5510 C   0  0  0  0  0  2  0  0  0  0  0  0
   37.6960   24.0440   37.5480 C   0  0  0  0  0  2  0  0  0  0  0  0
   36.9000   24.9730   31.9730 C   0  0  0  0  0  0  0  0  0  0  0  0
   36.6270   25.8920   31.1810 O   0  0  0  0  0  0  0  0  0  0  0  0
   35.5060   21.6680   31.3350 C   0  0  0  0  0  0  0  0  0  0  0  0
   36.6080   20.9420   30.8840 C   0  0  0  0  0  0  0  0  0  0  0  0
   37.8350   21.5700   30.7920 C   0  0  0  0  0  0  0  0  0  0  0  0
   37.8970   22.8750   31.1520 N   0  0  0  0  0  0  0  0  0  0  0  0
   36.8190   23.5750   31.5910 C   0  0  0  0  0  0  0  0  0  0  0  0
   35.6360   22.9550   31.6760 N   0  0  0  0  0  0  0  0  0  0  0  0
   34.5770   21.1290   31.3870 H   0  0  0  0  0  0  0  0  0  0  0  0
   36.6240   19.9050   30.5830 H   0  0  0  0  0  0  0  0  0  0  0  0
   38.7860   21.1720   30.4670 H   0  0  0  0  0  0  0  0  0  0  0  0
  1  2  2  0  0  0  0
  1  5  1  0  0  0  0
  2  3  1  0  0  0  0
  3  4  2  0  0  0  0
  3  7  1  0  0  0  0
  4  8  1  0  0  0  0
  5  4  1  0  0  0  0
  6  2  1  0  0  0  0
  8 12  1  0  0  0  0
  9  8  1  0  0  0  0
  9 10  1  0  0  0  0
 10 11  1  0  0  0  0
 12 11  1  0  0  0  0
 13  1  1  0  0  0  0
 14 13  2  0  0  0  0
 15 21  1  0  0  0  0
 15 20  1  0  0  0  0
 16 15  2  0  0  0  0
 17 16  1  0  0  0  0
 17 18  2  0  0  0  0
 18 19  1  0  0  0  0
 19 20  2  0  0  0  0
 19 13  1  0  0  0  0
 22 16  1  0  0  0  0
 23 17  1  0  0  0  0
M  END
>  <minimizedAffinity>
-4.8794179

$$$$

 OpenBabel03272508463D

 23 25  0  0  0  0  0  0  0  0999 V2000
   36.7540   24.9040   31.7610 C   0  0  0  0  0  0  0  0  0  0  0  0
   35.5170   24.8380   31.1300 C   0  0  0  0  0  0  0  0  0  0  0  0
   35.2260   23.4660   31.2140 C   0  0  0  0  0  0  0  0  0  0  0  0
   36.2460   22.8140   31.8570 C   0  0  0  0  0  0  0  0  0  0  0  0
   37.1530   23.7110   32.1730 O   0  0  0  0  0  0  0  0  0  0  0  0
   34.9880   25.6760   30.7110 H   0  0  0  0  0  0  0  0  0  0  0  0
   34.2910   23.0580   30.7990 H   0  0  0  0  0  0  0  0  0  0  0  0
   36.3280   21.3890   32.1450 C   0  0  0  0  0  3  0  0  0  0  0  0
   36.2470   20.5150   30.9130 C   0  0  0  0  0  2  0  0  0  0  0  0
   36.1860   19.1350   31.5540 C   0  0  0  0  0  2  0  0  0  0  0  0
   35.5190   19.3460   32.9060 C   0  0  0  0  0  2  0  0  0  0  0  0
   35.1600   20.8300   32.9330 C   0  0  0  0  0  2  0  0  0  0  0  0
   37.5060   26.1620   31.9350 C   0  0  0  0  0  0  0  0  0  0  0  0
   37.7350   26.8550   30.9280 O   0  0  0  0  0  0  0  0  0  0  0  0
   39.6480   26.5460   34.8570 C   0  0  0  0  0  0  0  0  0  0  0  0
   38.8490   27.2680   35.7430 C   0  0  0  0  0  0  0  0  0  0  0  0
   37.5740   27.6310   35.3550 C   0  0  0  0  0  0  0  0  0  0  0  0
   37.1680   27.2580   34.1160 N   0  0  0  0  0  0  0  0  0  0  0  0
   37.9530   26.5550   33.2590 C   0  0  0  0  0  0  0  0  0  0  0  0
   39.1860   26.2080   33.6480 N   0  0  0  0  0  0  0  0  0  0  0  0
   40.6310   26.2890   35.2120 H   0  0  0  0  0  0  0  0  0  0  0  0
   39.1130   27.5930   36.7380 H   0  0  0  0  0  0  0  0  0  0  0  0
   36.8230   28.1840   35.9000 H   0  0  0  0  0  0  0  0  0  0  0  0
  1 13  1  0  0  0  0
  1  5  1  0  0  0  0
  2  3  1  0  0  0  0
  2  1  2  0  0  0  0
  3  4  2  0  0  0  0
  4  8  1  0  0  0  0
  4  5  1  0  0  0  0
  6  2  1  0  0  0  0
  7  3  1  0  0  0  0
  8 12  1  0  0  0  0
  9 10  1  0  0  0  0
  9  8  1  0  0  0  0
 10 11  1  0  0  0  0
 11 12  1  0  0  0  0
 13 19  1  0  0  0  0
 14 13  2  0  0  0  0
 15 21  1  0  0  0  0
 15 16  1  0  0  0  0
 16 22  1  0  0  0  0
 17 16  2  0  0  0  0
 17 23  1  0  0  0  0
 18 17  1  0  0  0  0
 19 20  1  0  0  0  0
 19 18  2  0  0  0  0
 20 15  2  0  0  0  0
M  END
>  <minimizedAffinity>
-4.86453438

$$$$

 OpenBabel03272508463D

 23 25  0  0  0  0  0  0  0  0999 V2000
   37.3320   26.2040   33.6300 C   0  0  0  0  0  0  0  0  0  0  0  0
   37.2690   27.3740   34.3800 C   0  0  0  0  0  0  0  0  0  0  0  0
   37.7970   26.9540   35.6120 C   0  0  0  0  0  0  0  0  0  0  0  0
   38.1310   25.6260   35.5440 C   0  0  0  0  0  0  0  0  0  0  0  0
   37.8370   25.2040   34.3350 O   0  0  0  0  0  0  0  0  0  0  0  0
   36.8960   28.3190   34.0260 H   0  0  0  0  0  0  0  0  0  0  0  0
   37.8930   27.6530   36.4560 H   0  0  0  0  0  0  0  0  0  0  0  0
   38.7080   24.8140   36.6070 C   0  0  0  0  0  3  0  0  0  0  0  0
   39.3560   23.5390   36.1130 C   0  0  0  0  0  2  0  0  0  0  0  0
   39.6880   22.8650   37.4370 C   0  0  0  0  0  2  0  0  0  0  0  0
   38.6330   23.3570   38.4180 C   0  0  0  0  0  2  0  0  0  0  0  0
   37.7020   24.2300   37.5790 C   0  0  0  0  0  2  0  0  0  0  0  0
   36.8820   26.1190   32.2280 C   0  0  0  0  0  0  0  0  0  0  0  0
   36.0340   25.2600   31.9320 O   0  0  0  0  0  0  0  0  0  0  0  0
   37.0520   28.6330   29.5950 C   0  0  0  0  0  0  0  0  0  0  0  0
   38.4220   28.7580   29.3650 C   0  0  0  0  0  0  0  0  0  0  0  0
   39.3000   27.9890   30.1030 C   0  0  0  0  0  0  0  0  0  0  0  0
   38.7710   27.1440   31.0220 N   0  0  0  0  0  0  0  0  0  0  0  0
   37.4350   27.0280   31.2400 C   0  0  0  0  0  0  0  0  0  0  0  0
   36.5940   27.7780   30.5170 N   0  0  0  0  0  0  0  0  0  0  0  0
   36.4140   29.2550   28.9920 H   0  0  0  0  0  0  0  0  0  0  0  0
   38.9030   29.4100   28.6510 H   0  0  0  0  0  0  0  0  0  0  0  0
   40.3790   27.9530   30.0640 H   0  0  0  0  0  0  0  0  0  0  0  0
  1  5  1  0  0  0  0
  1  2  2  0  0  0  0
  2  3  1  0  0  0  0
  3  7  1  0  0  0  0
  4  3  2  0  0  0  0
  4  8  1  0  0  0  0
  5  4  1  0  0  0  0
  6  2  1  0  0  0  0
  8 12  1  0  0  0  0
  9  8  1  0  0  0  0
  9 10  1  0  0  0  0
 10 11  1  0  0  0  0
 12 11  1  0  0  0  0
 13  1  1  0  0  0  0
 14 13  2  0  0  0  0
 15 20  1  0  0  0  0
 16 15  2  0  0  0  0
 16 17  1  0  0  0  0
 17 18  2  0  0  0  0
 18 19  1  0  0  0  0
 19 13  1  0  0  0  0
 20 19  2  0  0  0  0
 21 15  1  0  0  0  0
 22 16  1  0  0  0  0
 23 17  1  0  0  0  0
M  END
>  <minimizedAffinity>
-4.82156229

$$$$

 OpenBabel03272508463D

 23 25  0  0  0  0  0  0  0  0999 V2000
   36.2530   28.2610   32.5740 C   0  0  0  0  0  0  0  0  0  0  0  0
   36.7570   27.6910   33.7380 C   0  0  0  0  0  0  0  0  0  0  0  0
   36.3970   28.6450   34.7040 C   0  0  0  0  0  0  0  0  0  0  0  0
   35.7310   29.6830   34.1040 C   0  0  0  0  0  0  0  0  0  0  0  0
   35.6620   29.4200   32.8190 O   0  0  0  0  0  0  0  0  0  0  0  0
   37.2790   26.7520   33.7940 H   0  0  0  0  0  0  0  0  0  0  0  0
   36.6500   28.5020   35.7650 H   0  0  0  0  0  0  0  0  0  0  0  0
   35.1910   30.8690   34.7560 C   0  0  0  0  0  3  0  0  0  0  0  0
   36.0320   31.3600   35.9140 C   0  0  0  0  0  2  0  0  0  0  0  0
   35.1330   32.4590   36.4630 C   0  0  0  0  0  2  0  0  0  0  0  0
   33.7120   32.0270   36.1260 C   0  0  0  0  0  2  0  0  0  0  0  0
   33.8700   30.6580   35.4690 C   0  0  0  0  0  2  0  0  0  0  0  0
   36.3780   27.6290   31.2460 C   0  0  0  0  0  0  0  0  0  0  0  0
   36.4040   28.3650   30.2450 O   0  0  0  0  0  0  0  0  0  0  0  0
   37.7900   24.3030   30.7790 C   0  0  0  0  0  0  0  0  0  0  0  0
   36.6860   23.4650   30.9400 C   0  0  0  0  0  0  0  0  0  0  0  0
   35.4520   24.0240   31.2090 C   0  0  0  0  0  0  0  0  0  0  0  0
   35.3850   25.3750   31.3020 N   0  0  0  0  0  0  0  0  0  0  0  0
   36.4640   26.1830   31.1440 C   0  0  0  0  0  0  0  0  0  0  0  0
   37.6550   25.6300   30.8820 N   0  0  0  0  0  0  0  0  0  0  0  0
   38.7250   23.8140   30.5710 H   0  0  0  0  0  0  0  0  0  0  0  0
   36.6740   22.3870   30.8780 H   0  0  0  0  0  0  0  0  0  0  0  0
   34.4990   23.5390   31.3630 H   0  0  0  0  0  0  0  0  0  0  0  0
  1  5  1  0  0  0  0
  1  2  2  0  0  0  0
  2  6  1  0  0  0  0
  2  3  1  0  0  0  0
  3  7  1  0  0  0  0
  4  3  2  0  0  0  0
  4  8  1  0  0  0  0
  5  4  1  0  0  0  0
  8 12  1  0  0  0  0
  8  9  1  0  0  0  0
  9 10  1  0  0  0  0
 11 10  1  0  0  0  0
 12 11  1  0  0  0  0
 13  1  1  0  0  0  0
 14 13  2  0  0  0  0
 15 20  2  0  0  0  0
 15 16  1  0  0  0  0
 16 17  2  0  0  0  0
 17 18  1  0  0  0  0
 17 23  1  0  0  0  0
 19 13  1  0  0  0  0
 19 18  2  0  0  0  0
 20 19  1  0  0  0  0
 21 15  1  0  0  0  0
 22 16  1  0  0  0  0
M  END
>  <minimizedAffinity>
-4.81383324

$$$$

 OpenBabel03272508463D

 23 25  0  0  0  0  0  0  0  0999 V2000
   38.0790   24.3490   33.7490 C   0  0  0  0  0  0  0  0  0  0  0  0
   38.7780   24.4790   32.5530 C   0  0  0  0  0  0  0  0  0  0  0  0
   38.4580   25.7940   32.1760 C   0  0  0  0  0  0  0  0  0  0  0  0
   37.6300   26.3570   33.1130 C   0  0  0  0  0  0  0  0  0  0  0  0
   37.4200   25.4580   34.0480 O   0  0  0  0  0  0  0  0  0  0  0  0
   39.3850   23.7150   32.1030 H   0  0  0  0  0  0  0  0  0  0  0  0
   38.8590   26.2320   31.2490 H   0  0  0  0  0  0  0  0  0  0  0  0
   37.0740   27.7030   33.0930 C   0  0  0  0  0  3  0  0  0  0  0  0
   36.4360   28.1150   34.4010 C   0  0  0  0  0  2  0  0  0  0  0  0
   35.8210   29.4500   34.0020 C   0  0  0  0  0  2  0  0  0  0  0  0
   35.5100   29.3240   32.5170 C   0  0  0  0  0  2  0  0  0  0  0  0
   35.8920   27.8890   32.1610 C   0  0  0  0  0  2  0  0  0  0  0  0
   38.0890   23.1170   34.5600 C   0  0  0  0  0  0  0  0  0  0  0  0
   37.8190   22.0410   33.9980 O   0  0  0  0  0  0  0  0  0  0  0  0
   39.9370   22.7670   37.6800 C   0  0  0  0  0  0  0  0  0  0  0  0
   39.0640   23.3030   38.6270 C   0  0  0  0  0  0  0  0  0  0  0  0
   37.8390   23.7870   38.2120 C   0  0  0  0  0  0  0  0  0  0  0  0
   37.5530   23.7130   36.8890 N   0  0  0  0  0  0  0  0  0  0  0  0
   38.4090   23.1900   35.9740 C   0  0  0  0  0  0  0  0  0  0  0  0
   39.5920   22.7220   36.3880 N   0  0  0  0  0  0  0  0  0  0  0  0
   40.8760   22.4040   38.0590 H   0  0  0  0  0  0  0  0  0  0  0  0
   39.2330   23.3900   39.6900 H   0  0  0  0  0  0  0  0  0  0  0  0
   37.0450   24.2330   38.7950 H   0  0  0  0  0  0  0  0  0  0  0  0
  1  5  1  0  0  0  0
  1 13  1  0  0  0  0
  2  1  2  0  0  0  0
  3  2  1  0  0  0  0
  3  4  2  0  0  0  0
  4  5  1  0  0  0  0
  6  2  1  0  0  0  0
  7  3  1  0  0  0  0
  8  4  1  0  0  0  0
  8  9  1  0  0  0  0
 10  9  1  0  0  0  0
 11 10  1  0  0  0  0
 12 11  1  0  0  0  0
 12  8  1  0  0  0  0
 13 19  1  0  0  0  0
 14 13  2  0  0  0  0
 15 21  1  0  0  0  0
 15 16  1  0  0  0  0
 16 22  1  0  0  0  0
 17 16  2  0  0  0  0
 17 23  1  0  0  0  0
 18 17  1  0  0  0  0
 19 20  1  0  0  0  0
 19 18  2  0  0  0  0
 20 15  2  0  0  0  0
M  END
>  <minimizedAffinity>
-4.75081348

$$$$
