
 OpenBabel03272500403D

 21 23  0  0  1  0  0  0  0  0999 V2000
   37.3570   31.5990   47.6740 C   0  0  1  0  0  0  0  0  0  0  0  0
   36.3070   30.6350   47.3590 C   0  0  0  0  0  0  0  0  0  0  0  0
   37.5970   30.1250   47.9520 C   0  0  2  0  0  0  0  0  0  0  0  0
   37.2580   32.2160   48.5950 H   0  0  0  0  0  0  0  0  0  0  0  0
   35.3640   30.6170   47.9350 H   0  0  0  0  0  0  0  0  0  0  0  0
   36.0960   30.4000   46.2740 H   0  0  0  0  0  0  0  0  0  0  0  0
   38.2780   29.5630   47.2730 H   0  0  0  0  0  0  0  0  0  0  0  0
   38.2490   32.1520   46.5880 C   0  0  0  0  0  0  0  0  0  0  0  0
   39.4930   32.6830   46.9750 C   0  0  0  0  0  0  0  0  0  0  0  0
   40.2610   33.2020   45.9470 C   0  0  0  0  0  0  0  0  0  0  0  0
   39.8130   33.1820   44.6730 N   0  0  0  0  0  0  0  0  0  0  0  0
   38.6110   32.6640   44.3320 C   0  0  0  0  0  0  0  0  0  0  0  0
   37.8180   32.1400   45.3130 N   0  0  0  0  0  0  0  0  0  0  0  0
   39.7400   32.6430   48.0280 H   0  0  0  0  0  0  0  0  0  0  0  0
   41.2170   33.6120   46.2310 H   0  0  0  0  0  0  0  0  0  0  0  0
   38.3130   32.6810   43.2930 H   0  0  0  0  0  0  0  0  0  0  0  0
   37.4650   29.6780   49.3620 C   0  0  0  0  0  0  0  0  0  0  0  0
   37.9330   30.8060   50.2590 C   0  0  0  0  0  0  0  0  0  0  0  0
   37.4470   30.3040   51.6210 C   0  0  0  0  0  0  0  0  0  0  0  0
   36.2340   29.4420   51.3220 C   0  0  0  0  0  0  0  0  0  0  0  0
   36.0480   29.4560   49.8170 C   0  0  0  0  0  0  0  0  0  0  0  0
  1  3  1  0  0  0  0
  1  4  1  1  0  0  0
  2  1  1  0  0  0  0
  2  5  1  0  0  0  0
  2  3  1  0  0  0  0
  3  7  1  6  0  0  0
  3 17  1  0  0  0  0
  6  2  1  0  0  0  0
  8  9  1  0  0  0  0
  8  1  1  0  0  0  0
  9 14  1  0  0  0  0
 10 15  1  0  0  0  0
 10  9  2  0  0  0  0
 11 10  1  0  0  0  0
 12 11  2  0  0  0  0
 12 13  1  0  0  0  0
 13  8  2  0  0  0  0
 16 12  1  0  0  0  0
 17 21  1  0  0  0  0
 17 18  1  0  0  0  0
 18 19  1  0  0  0  0
 20 19  1  0  0  0  0
 21 20  1  0  0  0  0
M  END
>  <minimizedAffinity>
-5.5230546

>  <minimizedRMSD>
3.36603522

$$$$
