
 OpenBabel03272509343D

 37 41  0  0  1  0  0  0  0  0999 V2000
   37.4270   31.7220   48.3470 C   0  0  1  0  0  0  0  0  0  0  0  0
   38.6900   32.4600   48.5280 C   0  0  0  0  0  0  0  0  0  0  0  0
   38.7020   31.3550   47.5350 C   0  0  2  0  0  0  0  0  0  0  0  0
   36.6630   32.0910   47.6810 H   0  0  0  0  0  0  0  0  0  0  0  0
   39.2720   32.2530   49.4940 H   0  0  0  0  0  0  0  0  0  0  0  0
   38.5680   33.5180   48.3930 H   0  0  0  0  0  0  0  0  0  0  0  0
   38.8620   30.2920   47.5910 H   0  0  0  0  0  0  0  0  0  0  0  0
   38.8470   31.8960   46.1590 C   0  0  0  0  0  0  0  0  0  0  0  0
   39.7910   32.9290   46.1320 C   0  0  0  0  0  0  0  0  0  0  0  0
   40.1480   33.5340   44.9460 C   0  0  0  0  0  0  0  0  0  0  0  0
   39.5780   33.1260   43.7360 C   0  0  0  0  0  0  0  0  0  0  0  0
   38.6550   32.1090   43.7900 C   0  0  0  0  0  0  0  0  0  0  0  0
   38.0020   31.6130   42.6860 C   0  0  0  0  0  0  0  0  0  0  0  0
   37.0680   30.6010   42.7240 C   0  0  0  0  0  0  0  0  0  0  0  0
   36.7510   30.0360   43.9380 C   0  0  0  0  0  0  0  0  0  0  0  0
   37.3910   30.5140   45.0610 C   0  0  0  0  0  0  0  0  0  0  0  0
   38.3150   31.5240   44.9720 C   0  0  0  0  0  0  0  0  0  0  0  0
   40.4060   33.4470   46.8370 H   0  0  0  0  0  0  0  0  0  0  0  0
   40.8470   34.3320   44.7510 H   0  0  0  0  0  0  0  0  0  0  0  0
   39.7430   33.4890   42.7300 H   0  0  0  0  0  0  0  0  0  0  0  0
   38.2350   32.0460   41.7000 H   0  0  0  0  0  0  0  0  0  0  0  0
   36.5820   30.2490   41.8150 H   0  0  0  0  0  0  0  0  0  0  0  0
   36.0310   29.2390   44.0530 H   0  0  0  0  0  0  0  0  0  0  0  0
   37.1240   30.0480   46.0260 H   0  0  0  0  0  0  0  0  0  0  0  0
   35.3980   29.4820   50.5980 C   0  0  0  0  0  0  0  0  0  0  0  0
   35.7260   30.4670   49.6240 C   0  0  0  0  0  0  0  0  0  0  0  0
   37.0530   30.6960   49.3420 C   0  0  0  0  0  0  0  0  0  0  0  0
   37.9550   29.9500   50.0270 N   0  0  0  0  0  0  0  0  0  0  0  0
   37.6480   29.0200   50.9460 C   0  0  0  0  0  0  0  0  0  0  0  0
   36.3480   28.7800   51.2380 N   0  0  0  0  0  0  0  0  0  0  0  0
   34.3570   29.2970   50.8250 H   0  0  0  0  0  0  0  0  0  0  0  0
   34.9180   30.9930   49.1490 H   0  0  0  0  0  0  0  0  0  0  0  0
   38.8310   28.3250   51.5670 C   0  0  0  0  0  3  0  0  0  0  0  0
   39.2440   27.1270   50.7810 C   0  0  0  0  0  2  0  0  0  0  0  0
   39.3450   25.9550   51.7080 C   0  0  0  0  0  2  0  0  0  0  0  0
   39.1550   26.4850   53.1140 C   0  0  0  0  0  2  0  0  0  0  0  0
   38.5210   27.8540   52.9510 C   0  0  0  0  0  2  0  0  0  0  0  0
  1  4  1  6  0  0  0
  1  2  1  0  0  0  0
  1 27  1  0  0  0  0
  2  5  1  0  0  0  0
  3  7  1  1  0  0  0
  3  1  1  0  0  0  0
  3  2  1  0  0  0  0
  6  2  1  0  0  0  0
  8  3  1  0  0  0  0
  9  8  1  0  0  0  0
  9 18  1  0  0  0  0
 10  9  2  0  0  0  0
 11 12  2  0  0  0  0
 11 10  1  0  0  0  0
 12 17  1  0  0  0  0
 13 14  2  0  0  0  0
 13 12  1  0  0  0  0
 14 15  1  0  0  0  0
 15 23  1  0  0  0  0
 15 16  2  0  0  0  0
 16 24  1  0  0  0  0
 17 16  1  0  0  0  0
 17  8  2  0  0  0  0
 19 10  1  0  0  0  0
 20 11  1  0  0  0  0
 21 13  1  0  0  0  0
 22 14  1  0  0  0  0
 25 31  1  0  0  0  0
 25 30  1  0  0  0  0
 26 25  2  0  0  0  0
 27 26  1  0  0  0  0
 27 28  2  0  0  0  0
 28 29  1  0  0  0  0
 29 30  2  0  0  0  0
 29 33  1  0  0  0  0
 32 26  1  0  0  0  0
 33 37  1  0  0  0  0
 34 33  1  0  0  0  0
 34 35  1  0  0  0  0
 35 36  1  0  0  0  0
 37 36  1  0  0  0  0
M  END
>  <minimizedAffinity>
-1.40197027

>  <minimizedRMSD>
1.50534558

$$$$
