
 OpenBabel03272500513D

 41 46  0  0  1  0  0  0  0  0999 V2000
   31.6280   27.9030   48.7790 C   0  0  1  0  0  0  0  0  0  0  0  0
   32.0620   26.7530   47.7990 C   0  0  0  0  0  0  0  0  0  0  0  0
   31.9440   28.1890   47.3810 C   0  0  2  0  0  0  0  0  0  0  0  0
   32.3960   28.1440   49.5420 H   0  0  0  0  0  0  0  0  0  0  0  0
   33.0790   26.3480   47.9630 H   0  0  0  0  0  0  0  0  0  0  0  0
   31.2730   26.0390   47.5700 H   0  0  0  0  0  0  0  0  0  0  0  0
   31.1150   28.3480   46.6610 H   0  0  0  0  0  0  0  0  0  0  0  0
   28.1410   28.4910   49.4270 C   0  0  0  0  0  0  0  0  0  0  0  0
   28.3670   27.3840   50.2450 C   0  0  0  0  0  0  0  0  0  0  0  0
   29.7220   27.0150   50.1070 C   0  0  0  0  0  0  0  0  0  0  0  0
   30.2530   27.8850   49.2360 N   0  0  0  0  0  0  0  0  0  0  0  0
   29.3100   28.7210   48.8660 N   0  0  0  0  0  0  0  0  0  0  0  0
   27.6290   26.8880   50.8830 H   0  0  0  0  0  0  0  0  0  0  0  0
   30.2040   26.1820   50.6230 H   0  0  0  0  0  0  0  0  0  0  0  0
   25.6430   28.4990   49.6770 C   0  0  0  0  0  0  0  0  0  0  0  0
   26.8660   29.1330   49.3200 C   0  0  0  0  0  0  0  0  0  0  0  0
   26.7740   30.4300   48.8520 C   0  0  0  0  0  0  0  0  0  0  0  0
   25.5500   31.0180   48.7600 N   0  0  0  0  0  0  0  0  0  0  0  0
   24.4210   30.3790   49.1090 C   0  0  0  0  0  0  0  0  0  0  0  0
   24.4570   29.0940   49.5780 N   0  0  0  0  0  0  0  0  0  0  0  0
   25.7240   27.4830   50.0420 H   0  0  0  0  0  0  0  0  0  0  0  0
   27.6200   31.0160   48.5510 H   0  0  0  0  0  0  0  0  0  0  0  0
   23.4350   30.8320   49.0420 H   0  0  0  0  0  0  0  0  0  0  0  0
   33.1940   28.9560   47.0400 C   0  0  0  0  0  0  0  0  0  0  0  0
   33.5210   29.4230   45.7810 C   0  0  0  0  0  0  0  0  0  0  0  0
   34.7130   30.0730   45.8840 N   0  0  0  0  0  0  0  0  0  0  0  0
   35.1270   30.0180   47.1730 C   0  0  0  0  0  0  0  0  0  0  0  0
   34.1980   29.3370   47.8730 N   0  0  0  0  0  0  0  0  0  0  0  0
   32.9230   29.2860   44.8870 H   0  0  0  0  0  0  0  0  0  0  0  0
   35.2190   30.5350   45.0960 H   0  0  0  0  0  0  0  0  0  0  0  0
   36.3830   30.6060   47.7270 C   0  0  0  0  0  0  0  0  0  0  0  0
   36.4730   30.9660   49.0930 C   0  0  0  0  0  0  0  0  0  0  0  0
   38.1770   31.6210   49.2290 S   0  0  0  0  0  0  0  0  0  0  0  0
   38.4720   31.2900   47.3920 C   0  0  0  0  0  0  0  0  0  0  0  0
   37.4850   30.8510   47.0650 N   0  0  0  0  0  0  0  0  0  0  0  0
   35.6790   30.8530   49.8340 H   0  0  0  0  0  0  0  0  0  0  0  0
   39.7670   31.5780   46.6200 C   0  0  0  0  0  0  0  0  0  0  0  0
   39.7730   30.7450   45.3570 C   0  0  0  0  0  0  0  0  0  0  0  0
   40.5160   31.5750   44.3630 C   0  0  0  0  0  0  0  0  0  0  0  0
   40.4930   33.0090   44.8650 C   0  0  0  0  0  0  0  0  0  0  0  0
   39.7250   32.9990   46.1720 C   0  0  0  0  0  0  0  0  0  0  0  0
  1 11  1  0  0  0  0
  1  4  1  1  0  0  0
  2  5  1  0  0  0  0
  2  1  1  0  0  0  0
  3  7  1  6  0  0  0
  3  2  1  0  0  0  0
  3  1  1  0  0  0  0
  6  2  1  0  0  0  0
  8  9  1  0  0  0  0
  9 13  1  0  0  0  0
 10  9  2  0  0  0  0
 10 14  1  0  0  0  0
 11 10  1  0  0  0  0
 12 11  1  0  0  0  0
 12  8  2  0  0  0  0
 15 21  1  0  0  0  0
 16  8  1  0  0  0  0
 16 15  2  0  0  0  0
 17 16  1  0  0  0  0
 18 17  2  0  0  0  0
 18 19  1  0  0  0  0
 19 20  2  0  0  0  0
 20 15  1  0  0  0  0
 22 17  1  0  0  0  0
 23 19  1  0  0  0  0
 24  3  1  0  0  0  0
 24 28  1  0  0  0  0
 25 26  1  0  0  0  0
 25 24  2  0  0  0  0
 26 27  1  0  0  0  0
 27 31  1  0  0  0  0
 27 28  2  0  0  0  0
 29 25  1  0  0  0  0
 30 26  1  0  0  0  0
 31 32  2  0  0  0  0
 32 33  1  0  0  0  0
 32 36  1  0  0  0  0
 34 33  1  0  0  0  0
 35 34  2  0  0  0  0
 35 31  1  0  0  0  0
 37 34  1  0  0  0  0
 38 37  1  0  0  0  0
 39 40  1  0  0  0  0
 39 38  1  0  0  0  0
 40 41  1  0  0  0  0
 41 37  1  0  0  0  0
M  END
>  <minimizedAffinity>
-7.34012222

>  <minimizedRMSD>
2.04070401

$$$$
