
 OpenBabel03272507113D

 23 25  0  0  0  0  0  0  0  0999 V2000
   37.1570   27.3150   34.4310 C   0  0  0  0  0  0  0  0  0  0  0  0
   37.9350   27.9300   35.3830 C   0  0  0  0  0  0  0  0  0  0  0  0
   38.3860   26.9450   36.2620 C   0  0  0  0  0  0  0  0  0  0  0  0
   37.8340   25.7530   35.7730 C   0  0  0  0  0  0  0  0  0  0  0  0
   37.1330   26.0430   34.7100 O   0  0  0  0  0  0  0  0  0  0  0  0
   38.1810   28.9880   35.4700 H   0  0  0  0  0  0  0  0  0  0  0  0
   39.0190   27.1180   37.1160 H   0  0  0  0  0  0  0  0  0  0  0  0
   38.0640   24.4260   36.4240 C   0  0  0  0  0  3  0  0  0  0  0  0
   39.4520   23.8950   36.1470 C   0  0  0  0  0  2  0  0  0  0  0  0
   39.6240   22.8480   37.2150 C   0  0  0  0  0  2  0  0  0  0  0  0
   38.6060   23.1620   38.3090 C   0  0  0  0  0  2  0  0  0  0  0  0
   38.0590   24.5400   37.9300 C   0  0  0  0  0  2  0  0  0  0  0  0
   36.5250   28.0530   33.3570 C   0  0  0  0  0  0  0  0  0  0  0  0
   35.4670   28.6760   33.5920 O   0  0  0  0  0  0  0  0  0  0  0  0
   37.1650   28.0260   32.0510 C   0  0  0  0  0  0  0  0  0  0  0  0
   36.4700   28.5910   30.9910 C   0  0  0  0  0  0  0  0  0  0  0  0
   37.0620   28.5750   29.7380 C   0  0  0  0  0  0  0  0  0  0  0  0
   38.3040   28.0040   29.6130 N   0  0  0  0  0  0  0  0  0  0  0  0
   38.9530   27.4670   30.6530 C   0  0  0  0  0  0  0  0  0  0  0  0
   38.3910   27.4740   31.8700 N   0  0  0  0  0  0  0  0  0  0  0  0
   35.5080   29.0420   31.0430 H   0  0  0  0  0  0  0  0  0  0  0  0
   36.5780   28.9990   28.8580 H   0  0  0  0  0  0  0  0  0  0  0  0
   39.9310   27.0150   30.5600 H   0  0  0  0  0  0  0  0  0  0  0  0
  1  5  1  0  0  0  0
  1  2  2  0  0  0  0
  2  6  1  0  0  0  0
  2  3  1  0  0  0  0
  3  7  1  0  0  0  0
  4  3  2  0  0  0  0
  4  8  1  0  0  0  0
  5  4  1  0  0  0  0
  8 12  1  0  0  0  0
  9  8  1  0  0  0  0
  9 10  1  0  0  0  0
 10 11  1  0  0  0  0
 12 11  1  0  0  0  0
 13 14  2  0  0  0  0
 13  1  1  0  0  0  0
 15 13  1  0  0  0  0
 16 21  1  0  0  0  0
 16 15  2  0  0  0  0
 17 16  1  0  0  0  0
 18 17  2  0  0  0  0
 18 19  1  0  0  0  0
 19 20  2  0  0  0  0
 20 15  1  0  0  0  0
 22 17  1  0  0  0  0
 23 19  1  0  0  0  0
M  END
>  <minimizedAffinity>
-5.10138035

$$$$

 OpenBabel03272507113D

 23 25  0  0  0  0  0  0  0  0999 V2000
   38.0140   25.4190   36.0290 C   0  0  0  0  0  0  0  0  0  0  0  0
   38.4220   26.6780   36.3990 C   0  0  0  0  0  0  0  0  0  0  0  0
   38.0500   27.5590   35.3830 C   0  0  0  0  0  0  0  0  0  0  0  0
   37.4180   26.7520   34.4270 C   0  0  0  0  0  0  0  0  0  0  0  0
   37.4340   25.5230   34.8670 O   0  0  0  0  0  0  0  0  0  0  0  0
   38.9410   26.9770   37.3090 H   0  0  0  0  0  0  0  0  0  0  0  0
   38.2330   28.6200   35.3840 H   0  0  0  0  0  0  0  0  0  0  0  0
   36.8550   27.2960   33.1520 C   0  0  0  0  0  3  0  0  0  0  0  0
   36.1640   28.6240   33.3620 C   0  0  0  0  0  2  0  0  0  0  0  0
   36.0910   29.1830   31.9660 C   0  0  0  0  0  2  0  0  0  0  0  0
   37.1390   28.4410   31.1390 C   0  0  0  0  0  2  0  0  0  0  0  0
   37.9480   27.6550   32.1720 C   0  0  0  0  0  2  0  0  0  0  0  0
   38.2440   24.2570   36.8620 C   0  0  0  0  0  0  0  0  0  0  0  0
   37.4430   24.0110   37.7910 O   0  0  0  0  0  0  0  0  0  0  0  0
   39.4070   23.4340   36.5680 C   0  0  0  0  0  0  0  0  0  0  0  0
   39.9440   22.6960   37.6140 C   0  0  0  0  0  0  0  0  0  0  0  0
   41.0520   21.9040   37.3550 C   0  0  0  0  0  0  0  0  0  0  0  0
   41.5580   21.8920   36.0790 N   0  0  0  0  0  0  0  0  0  0  0  0
   41.0190   22.6140   35.0880 C   0  0  0  0  0  0  0  0  0  0  0  0
   39.9480   23.3840   35.3260 N   0  0  0  0  0  0  0  0  0  0  0  0
   39.5840   22.6760   38.6150 H   0  0  0  0  0  0  0  0  0  0  0  0
   41.5290   21.2980   38.1250 H   0  0  0  0  0  0  0  0  0  0  0  0
   41.4150   22.6080   34.0810 H   0  0  0  0  0  0  0  0  0  0  0  0
  1  2  2  0  0  0  0
  1 13  1  0  0  0  0
  2  6  1  0  0  0  0
  3  7  1  0  0  0  0
  3  2  1  0  0  0  0
  4  5  1  0  0  0  0
  4  3  2  0  0  0  0
  5  1  1  0  0  0  0
  8  9  1  0  0  0  0
  8  4  1  0  0  0  0
 10  9  1  0  0  0  0
 11 10  1  0  0  0  0
 11 12  1  0  0  0  0
 12  8  1  0  0  0  0
 13 14  2  0  0  0  0
 15 13  1  0  0  0  0
 15 16  1  0  0  0  0
 16 21  1  0  0  0  0
 17 16  2  0  0  0  0
 17 22  1  0  0  0  0
 18 17  1  0  0  0  0
 19 20  1  0  0  0  0
 19 18  2  0  0  0  0
 20 15  2  0  0  0  0
 23 19  1  0  0  0  0
M  END
>  <minimizedAffinity>
-5.09600163

$$$$

 OpenBabel03272507113D

 23 25  0  0  0  0  0  0  0  0999 V2000
   38.4950   25.4090   35.6910 C   0  0  0  0  0  0  0  0  0  0  0  0
   37.7980   24.6900   36.6330 C   0  0  0  0  0  0  0  0  0  0  0  0
   38.5460   23.5520   36.9350 C   0  0  0  0  0  0  0  0  0  0  0  0
   39.6890   23.6540   36.1300 C   0  0  0  0  0  0  0  0  0  0  0  0
   39.5920   24.7550   35.4350 O   0  0  0  0  0  0  0  0  0  0  0  0
   36.8370   24.9300   37.0860 H   0  0  0  0  0  0  0  0  0  0  0  0
   38.2600   22.7910   37.6420 H   0  0  0  0  0  0  0  0  0  0  0  0
   40.7780   22.6280   36.1350 C   0  0  0  0  0  3  0  0  0  0  0  0
   42.1490   23.2610   36.0550 C   0  0  0  0  0  2  0  0  0  0  0  0
   43.0530   22.1520   36.5220 C   0  0  0  0  0  2  0  0  0  0  0  0
   42.1790   21.1680   37.2960 C   0  0  0  0  0  2  0  0  0  0  0  0
   40.8410   21.8940   37.4540 C   0  0  0  0  0  2  0  0  0  0  0  0
   37.9990   26.6580   35.1510 C   0  0  0  0  0  0  0  0  0  0  0  0
   38.2040   27.7150   35.7860 O   0  0  0  0  0  0  0  0  0  0  0  0
   37.2830   26.6100   33.8850 C   0  0  0  0  0  0  0  0  0  0  0  0
   36.7210   27.7940   33.4280 C   0  0  0  0  0  0  0  0  0  0  0  0
   36.0350   27.7700   32.2240 C   0  0  0  0  0  0  0  0  0  0  0  0
   35.9480   26.5780   31.5490 N   0  0  0  0  0  0  0  0  0  0  0  0
   36.5000   25.4510   32.0130 C   0  0  0  0  0  0  0  0  0  0  0  0
   37.1660   25.4600   33.1760 N   0  0  0  0  0  0  0  0  0  0  0  0
   36.7640   28.7370   33.9180 H   0  0  0  0  0  0  0  0  0  0  0  0
   35.5670   28.6590   31.8010 H   0  0  0  0  0  0  0  0  0  0  0  0
   36.4340   24.5090   31.4850 H   0  0  0  0  0  0  0  0  0  0  0  0
  1  2  2  0  0  0  0
  2  3  1  0  0  0  0
  2  6  1  0  0  0  0
  3  7  1  0  0  0  0
  4  8  1  0  0  0  0
  4  3  2  0  0  0  0
  5  1  1  0  0  0  0
  5  4  1  0  0  0  0
  8 12  1  0  0  0  0
  9  8  1  0  0  0  0
  9 10  1  0  0  0  0
 10 11  1  0  0  0  0
 11 12  1  0  0  0  0
 13  1  1  0  0  0  0
 13 14  2  0  0  0  0
 15 13  1  0  0  0  0
 16 15  1  0  0  0  0
 16 21  1  0  0  0  0
 17 16  2  0  0  0  0
 18 19  2  0  0  0  0
 18 17  1  0  0  0  0
 19 20  1  0  0  0  0
 20 15  2  0  0  0  0
 22 17  1  0  0  0  0
 23 19  1  0  0  0  0
M  END
>  <minimizedAffinity>
-4.97456646

$$$$

 OpenBabel03272507113D

 23 25  0  0  0  0  0  0  0  0999 V2000
   36.2330   28.3000   32.3600 C   0  0  0  0  0  0  0  0  0  0  0  0
   36.7140   27.7570   33.5280 C   0  0  0  0  0  0  0  0  0  0  0  0
   36.3550   28.6110   34.5710 C   0  0  0  0  0  0  0  0  0  0  0  0
   35.6560   29.6560   33.9500 C   0  0  0  0  0  0  0  0  0  0  0  0
   35.6250   29.4100   32.6680 O   0  0  0  0  0  0  0  0  0  0  0  0
   37.2750   26.8320   33.6590 H   0  0  0  0  0  0  0  0  0  0  0  0
   36.5910   28.4540   35.6100 H   0  0  0  0  0  0  0  0  0  0  0  0
   35.0830   30.8110   34.7090 C   0  0  0  0  0  3  0  0  0  0  0  0
   33.7980   30.4390   35.4140 C   0  0  0  0  0  2  0  0  0  0  0  0
   33.6530   31.5360   36.4350 C   0  0  0  0  0  2  0  0  0  0  0  0
   35.0350   32.1600   36.6110 C   0  0  0  0  0  2  0  0  0  0  0  0
   35.9740   31.2150   35.8590 C   0  0  0  0  0  2  0  0  0  0  0  0
   36.4300   27.6640   31.0750 C   0  0  0  0  0  0  0  0  0  0  0  0
   36.5540   28.3810   30.0570 O   0  0  0  0  0  0  0  0  0  0  0  0
   36.4740   26.2100   31.0400 C   0  0  0  0  0  0  0  0  0  0  0  0
   35.2650   25.5360   31.1410 C   0  0  0  0  0  0  0  0  0  0  0  0
   35.2840   24.1500   31.1100 C   0  0  0  0  0  0  0  0  0  0  0  0
   36.4960   23.5200   30.9800 N   0  0  0  0  0  0  0  0  0  0  0  0
   37.6470   24.1950   30.8840 C   0  0  0  0  0  0  0  0  0  0  0  0
   37.6430   25.5350   30.9130 N   0  0  0  0  0  0  0  0  0  0  0  0
   34.3050   25.9840   31.2430 H   0  0  0  0  0  0  0  0  0  0  0  0
   34.3750   23.5520   31.1850 H   0  0  0  0  0  0  0  0  0  0  0  0
   38.6050   23.7030   30.7820 H   0  0  0  0  0  0  0  0  0  0  0  0
  1  5  1  0  0  0  0
  1  2  2  0  0  0  0
  2  6  1  0  0  0  0
  2  3  1  0  0  0  0
  3  7  1  0  0  0  0
  4  3  2  0  0  0  0
  4  8  1  0  0  0  0
  5  4  1  0  0  0  0
  8  9  1  0  0  0  0
  8 12  1  0  0  0  0
  9 10  1  0  0  0  0
 10 11  1  0  0  0  0
 12 11  1  0  0  0  0
 13  1  1  0  0  0  0
 14 13  2  0  0  0  0
 15 13  1  0  0  0  0
 15 16  1  0  0  0  0
 16 21  1  0  0  0  0
 17 16  2  0  0  0  0
 17 22  1  0  0  0  0
 18 17  1  0  0  0  0
 19 20  1  0  0  0  0
 19 18  2  0  0  0  0
 20 15  2  0  0  0  0
 23 19  1  0  0  0  0
M  END
>  <minimizedAffinity>
-4.95680141

$$$$

 OpenBabel03272507113D

 23 25  0  0  0  0  0  0  0  0999 V2000
   38.0420   24.1420   33.5020 C   0  0  0  0  0  0  0  0  0  0  0  0
   37.3690   25.0180   32.6840 C   0  0  0  0  0  0  0  0  0  0  0  0
   36.4750   24.2750   31.9130 C   0  0  0  0  0  0  0  0  0  0  0  0
   36.6680   22.9490   32.3240 C   0  0  0  0  0  0  0  0  0  0  0  0
   37.5910   22.9460   33.2480 O   0  0  0  0  0  0  0  0  0  0  0  0
   37.4820   26.1000   32.6190 H   0  0  0  0  0  0  0  0  0  0  0  0
   35.8050   24.6820   31.1750 H   0  0  0  0  0  0  0  0  0  0  0  0
   35.9010   21.8010   31.7470 C   0  0  0  0  0  3  0  0  0  0  0  0
   36.8070   20.8100   31.0520 C   0  0  0  0  0  2  0  0  0  0  0  0
   35.9450   19.5800   30.9640 C   0  0  0  0  0  2  0  0  0  0  0  0
   34.8410   19.7390   32.0070 C   0  0  0  0  0  2  0  0  0  0  0  0
   35.2720   20.9550   32.8290 C   0  0  0  0  0  2  0  0  0  0  0  0
   39.0530   24.5830   34.4400 C   0  0  0  0  0  0  0  0  0  0  0  0
   39.9690   25.3320   34.0330 O   0  0  0  0  0  0  0  0  0  0  0  0
   38.9450   24.1250   35.8160 C   0  0  0  0  0  0  0  0  0  0  0  0
   39.9330   23.2680   36.2800 C   0  0  0  0  0  0  0  0  0  0  0  0
   39.8480   22.8200   37.5890 C   0  0  0  0  0  0  0  0  0  0  0  0
   38.7930   23.2480   38.3560 N   0  0  0  0  0  0  0  0  0  0  0  0
   37.8540   24.0760   37.8820 C   0  0  0  0  0  0  0  0  0  0  0  0
   37.9240   24.5160   36.6180 N   0  0  0  0  0  0  0  0  0  0  0  0
   40.7650   22.9120   35.7220 H   0  0  0  0  0  0  0  0  0  0  0  0
   40.5860   22.1450   38.0240 H   0  0  0  0  0  0  0  0  0  0  0  0
   37.0200   24.4160   38.4820 H   0  0  0  0  0  0  0  0  0  0  0  0
  1 13  1  0  0  0  0
  2  1  2  0  0  0  0
  3  4  2  0  0  0  0
  3  2  1  0  0  0  0
  4  5  1  0  0  0  0
  5  1  1  0  0  0  0
  6  2  1  0  0  0  0
  7  3  1  0  0  0  0
  8  4  1  0  0  0  0
  8 12  1  0  0  0  0
  9  8  1  0  0  0  0
 10  9  1  0  0  0  0
 10 11  1  0  0  0  0
 11 12  1  0  0  0  0
 13 15  1  0  0  0  0
 14 13  2  0  0  0  0
 15 16  2  0  0  0  0
 15 20  1  0  0  0  0
 16 17  1  0  0  0  0
 17 22  1  0  0  0  0
 17 18  2  0  0  0  0
 19 18  1  0  0  0  0
 19 23  1  0  0  0  0
 20 19  2  0  0  0  0
 21 16  1  0  0  0  0
M  END
>  <minimizedAffinity>
-4.94708347

$$$$

 OpenBabel03272507113D

 23 25  0  0  0  0  0  0  0  0999 V2000
   36.7070   25.0650   31.8900 C   0  0  0  0  0  0  0  0  0  0  0  0
   35.5360   24.8540   31.2020 C   0  0  0  0  0  0  0  0  0  0  0  0
   35.2860   23.4810   31.2050 C   0  0  0  0  0  0  0  0  0  0  0  0
   36.3580   22.9260   31.9180 C   0  0  0  0  0  0  0  0  0  0  0  0
   37.1430   23.9030   32.2850 O   0  0  0  0  0  0  0  0  0  0  0  0
   34.8920   25.5930   30.7270 H   0  0  0  0  0  0  0  0  0  0  0  0
   34.4380   23.0040   30.7430 H   0  0  0  0  0  0  0  0  0  0  0  0
   36.4930   21.4570   32.1660 C   0  0  0  0  0  3  0  0  0  0  0  0
   35.4880   20.9620   33.1810 C   0  0  0  0  0  2  0  0  0  0  0  0
   35.4830   19.4750   32.9440 C   0  0  0  0  0  2  0  0  0  0  0  0
   36.0560   19.2510   31.5460 C   0  0  0  0  0  2  0  0  0  0  0  0
   36.1310   20.6530   30.9390 C   0  0  0  0  0  2  0  0  0  0  0  0
   37.2630   26.3890   32.0780 C   0  0  0  0  0  0  0  0  0  0  0  0
   37.1540   27.2270   31.1560 O   0  0  0  0  0  0  0  0  0  0  0  0
   37.9230   26.6710   33.3430 C   0  0  0  0  0  0  0  0  0  0  0  0
   39.3110   26.6340   33.3580 C   0  0  0  0  0  0  0  0  0  0  0  0
   39.9600   26.9000   34.5530 C   0  0  0  0  0  0  0  0  0  0  0  0
   39.1960   27.1860   35.6570 N   0  0  0  0  0  0  0  0  0  0  0  0
   37.8590   27.2160   35.6150 C   0  0  0  0  0  0  0  0  0  0  0  0
   37.2200   26.9600   34.4650 N   0  0  0  0  0  0  0  0  0  0  0  0
   39.9400   26.4160   32.5280 H   0  0  0  0  0  0  0  0  0  0  0  0
   41.0460   26.8880   34.6430 H   0  0  0  0  0  0  0  0  0  0  0  0
   37.2530   27.4410   36.4820 H   0  0  0  0  0  0  0  0  0  0  0  0
  1 13  1  0  0  0  0
  1  5  1  0  0  0  0
  2  3  1  0  0  0  0
  2  1  2  0  0  0  0
  3  4  2  0  0  0  0
  4  8  1  0  0  0  0
  4  5  1  0  0  0  0
  6  2  1  0  0  0  0
  7  3  1  0  0  0  0
  8  9  1  0  0  0  0
 10  9  1  0  0  0  0
 11 10  1  0  0  0  0
 12 11  1  0  0  0  0
 12  8  1  0  0  0  0
 13 15  1  0  0  0  0
 14 13  2  0  0  0  0
 15 16  2  0  0  0  0
 15 20  1  0  0  0  0
 16 17  1  0  0  0  0
 17 22  1  0  0  0  0
 17 18  2  0  0  0  0
 19 18  1  0  0  0  0
 19 23  1  0  0  0  0
 20 19  2  0  0  0  0
 21 16  1  0  0  0  0
M  END
>  <minimizedAffinity>
-4.86683178

$$$$

 OpenBabel03272507113D

 23 25  0  0  0  0  0  0  0  0999 V2000
   37.6370   23.9040   32.6580 C   0  0  0  0  0  0  0  0  0  0  0  0
   37.3350   25.2210   32.9090 C   0  0  0  0  0  0  0  0  0  0  0  0
   37.7460   25.5090   34.2110 C   0  0  0  0  0  0  0  0  0  0  0  0
   38.2890   24.3070   34.6860 C   0  0  0  0  0  0  0  0  0  0  0  0
   38.1930   23.4200   33.7330 O   0  0  0  0  0  0  0  0  0  0  0  0
   36.8630   25.9410   32.2420 H   0  0  0  0  0  0  0  0  0  0  0  0
   37.6420   26.4640   34.6970 H   0  0  0  0  0  0  0  0  0  0  0  0
   38.8580   24.1630   36.0620 C   0  0  0  0  0  3  0  0  0  0  0  0
   37.7760   24.0350   37.1090 C   0  0  0  0  0  2  0  0  0  0  0  0
   38.5190   23.4610   38.2850 C   0  0  0  0  0  2  0  0  0  0  0  0
   39.8000   22.8370   37.7350 C   0  0  0  0  0  2  0  0  0  0  0  0
   39.6090   22.8610   36.2170 C   0  0  0  0  0  2  0  0  0  0  0  0
   37.3430   23.2720   31.3890 C   0  0  0  0  0  0  0  0  0  0  0  0
   37.6850   23.8480   30.3330 O   0  0  0  0  0  0  0  0  0  0  0  0
   36.6570   21.9900   31.4150 C   0  0  0  0  0  0  0  0  0  0  0  0
   35.4980   21.9040   32.1740 C   0  0  0  0  0  0  0  0  0  0  0  0
   34.8290   20.6910   32.2120 C   0  0  0  0  0  0  0  0  0  0  0  0
   35.3480   19.6400   31.4980 N   0  0  0  0  0  0  0  0  0  0  0  0
   36.4680   19.7500   30.7740 C   0  0  0  0  0  0  0  0  0  0  0  0
   37.1250   20.9180   30.7290 N   0  0  0  0  0  0  0  0  0  0  0  0
   35.0620   22.6920   32.7410 H   0  0  0  0  0  0  0  0  0  0  0  0
   33.9130   20.5470   32.7860 H   0  0  0  0  0  0  0  0  0  0  0  0
   36.8820   18.9240   30.2100 H   0  0  0  0  0  0  0  0  0  0  0  0
  1  2  2  0  0  0  0
  1  5  1  0  0  0  0
  2  3  1  0  0  0  0
  3  4  2  0  0  0  0
  3  7  1  0  0  0  0
  4  8  1  0  0  0  0
  5  4  1  0  0  0  0
  6  2  1  0  0  0  0
  8 12  1  0  0  0  0
  8  9  1  0  0  0  0
  9 10  1  0  0  0  0
 11 10  1  0  0  0  0
 12 11  1  0  0  0  0
 13 15  1  0  0  0  0
 13  1  1  0  0  0  0
 14 13  2  0  0  0  0
 15 16  1  0  0  0  0
 16 17  2  0  0  0  0
 16 21  1  0  0  0  0
 17 22  1  0  0  0  0
 18 17  1  0  0  0  0
 19 18  2  0  0  0  0
 20 19  1  0  0  0  0
 20 15  2  0  0  0  0
 23 19  1  0  0  0  0
M  END
>  <minimizedAffinity>
-4.84888554

$$$$

 OpenBabel03272507113D

 23 25  0  0  0  0  0  0  0  0999 V2000
   36.1990   28.6980   33.1130 C   0  0  0  0  0  0  0  0  0  0  0  0
   35.9220   29.5640   32.0820 C   0  0  0  0  0  0  0  0  0  0  0  0
   35.3180   30.6960   32.6320 C   0  0  0  0  0  0  0  0  0  0  0  0
   35.2630   30.4360   34.0080 C   0  0  0  0  0  0  0  0  0  0  0  0
   35.7910   29.2590   34.2150 O   0  0  0  0  0  0  0  0  0  0  0  0
   36.1220   29.4320   31.0200 H   0  0  0  0  0  0  0  0  0  0  0  0
   34.9840   31.5540   32.0730 H   0  0  0  0  0  0  0  0  0  0  0  0
   34.6810   31.4000   34.9930 C   0  0  0  0  0  3  0  0  0  0  0  0
   33.4890   30.8150   35.7170 C   0  0  0  0  0  2  0  0  0  0  0  0
   33.3590   31.7140   36.9170 C   0  0  0  0  0  2  0  0  0  0  0  0
   34.7070   32.4100   37.0960 C   0  0  0  0  0  2  0  0  0  0  0  0
   35.6390   31.6800   36.1270 C   0  0  0  0  0  2  0  0  0  0  0  0
   36.8330   27.4150   32.8920 C   0  0  0  0  0  0  0  0  0  0  0  0
   36.2120   26.5350   32.2570 O   0  0  0  0  0  0  0  0  0  0  0  0
   38.1710   27.2210   33.4300 C   0  0  0  0  0  0  0  0  0  0  0  0
   38.2870   27.0570   34.8030 C   0  0  0  0  0  0  0  0  0  0  0  0
   39.5530   26.8710   35.3360 C   0  0  0  0  0  0  0  0  0  0  0  0
   40.6230   26.8580   34.4770 N   0  0  0  0  0  0  0  0  0  0  0  0
   40.4830   27.0170   33.1550 C   0  0  0  0  0  0  0  0  0  0  0  0
   39.2640   27.1990   32.6280 N   0  0  0  0  0  0  0  0  0  0  0  0
   37.4860   27.0620   35.5030 H   0  0  0  0  0  0  0  0  0  0  0  0
   39.7230   26.7370   36.4040 H   0  0  0  0  0  0  0  0  0  0  0  0
   41.3240   27.0080   32.4750 H   0  0  0  0  0  0  0  0  0  0  0  0
  1  5  1  0  0  0  0
  2  3  1  0  0  0  0
  2  1  2  0  0  0  0
  3  4  2  0  0  0  0
  4  5  1  0  0  0  0
  4  8  1  0  0  0  0
  6  2  1  0  0  0  0
  7  3  1  0  0  0  0
  8  9  1  0  0  0  0
  8 12  1  0  0  0  0
  9 10  1  0  0  0  0
 10 11  1  0  0  0  0
 12 11  1  0  0  0  0
 13  1  1  0  0  0  0
 13 15  1  0  0  0  0
 14 13  2  0  0  0  0
 15 16  1  0  0  0  0
 16 17  2  0  0  0  0
 16 21  1  0  0  0  0
 17 22  1  0  0  0  0
 18 17  1  0  0  0  0
 19 18  2  0  0  0  0
 20 19  1  0  0  0  0
 20 15  2  0  0  0  0
 23 19  1  0  0  0  0
M  END
>  <minimizedAffinity>
-4.75669289

$$$$

 OpenBabel03272507113D

 23 25  0  0  0  0  0  0  0  0999 V2000
   37.2020   26.0020   33.4220 C   0  0  0  0  0  0  0  0  0  0  0  0
   37.1190   27.1510   34.1710 C   0  0  0  0  0  0  0  0  0  0  0  0
   37.6940   26.8880   35.4150 C   0  0  0  0  0  0  0  0  0  0  0  0
   38.1020   25.5490   35.3410 C   0  0  0  0  0  0  0  0  0  0  0  0
   37.7840   25.0980   34.1570 O   0  0  0  0  0  0  0  0  0  0  0  0
   36.6930   28.1120   33.8840 H   0  0  0  0  0  0  0  0  0  0  0  0
   37.7780   27.5960   36.2210 H   0  0  0  0  0  0  0  0  0  0  0  0
   38.7770   24.8440   36.4750 C   0  0  0  0  0  3  0  0  0  0  0  0
   37.7910   24.4090   37.5350 C   0  0  0  0  0  2  0  0  0  0  0  0
   38.5660   23.3710   38.3020 C   0  0  0  0  0  2  0  0  0  0  0  0
   39.7020   22.9080   37.3920 C   0  0  0  0  0  2  0  0  0  0  0  0
   39.3720   23.5270   36.0320 C   0  0  0  0  0  2  0  0  0  0  0  0
   36.6950   25.9250   32.0670 C   0  0  0  0  0  0  0  0  0  0  0  0
   35.8000   25.0920   31.8030 O   0  0  0  0  0  0  0  0  0  0  0  0
   37.2630   26.8310   31.0820 C   0  0  0  0  0  0  0  0  0  0  0  0
   38.5970   26.6480   30.7440 C   0  0  0  0  0  0  0  0  0  0  0  0
   39.1570   27.5010   29.8060 C   0  0  0  0  0  0  0  0  0  0  0  0
   38.3640   28.4800   29.2620 N   0  0  0  0  0  0  0  0  0  0  0  0
   37.0790   28.6330   29.6050 C   0  0  0  0  0  0  0  0  0  0  0  0
   36.5260   27.8160   30.5110 N   0  0  0  0  0  0  0  0  0  0  0  0
   39.2460   25.9050   31.1410 H   0  0  0  0  0  0  0  0  0  0  0  0
   40.1980   27.4200   29.4920 H   0  0  0  0  0  0  0  0  0  0  0  0
   36.4500   29.4040   29.1790 H   0  0  0  0  0  0  0  0  0  0  0  0
  1  5  1  0  0  0  0
  1  2  2  0  0  0  0
  2  3  1  0  0  0  0
  3  7  1  0  0  0  0
  4  3  2  0  0  0  0
  4  8  1  0  0  0  0
  5  4  1  0  0  0  0
  6  2  1  0  0  0  0
  8  9  1  0  0  0  0
  9 10  1  0  0  0  0
 11 10  1  0  0  0  0
 12  8  1  0  0  0  0
 12 11  1  0  0  0  0
 13  1  1  0  0  0  0
 14 13  2  0  0  0  0
 15 13  1  0  0  0  0
 16 15  1  0  0  0  0
 16 21  1  0  0  0  0
 17 16  2  0  0  0  0
 18 19  2  0  0  0  0
 18 17  1  0  0  0  0
 19 20  1  0  0  0  0
 20 15  2  0  0  0  0
 22 17  1  0  0  0  0
 23 19  1  0  0  0  0
M  END
>  <minimizedAffinity>
-4.74093246

$$$$
