
 OpenBabel03272510343D

 24 26  0  0  0  0  0  0  0  0999 V2000
   35.5990   30.0270   48.0410 C   0  0  0  0  0  0  0  0  0  0  0  0
   34.6760   30.2780   47.0510 C   0  0  0  0  0  0  0  0  0  0  0  0
   33.5540   29.4670   46.9460 C   0  0  0  0  0  0  0  0  0  0  0  0
   33.3860   28.4320   47.8290 C   0  0  0  0  0  0  0  0  0  0  0  0
   34.3140   28.1750   48.8290 C   0  0  0  0  0  0  0  0  0  0  0  0
   35.4560   28.9750   48.9600 C   0  0  0  0  0  0  0  0  0  0  0  0
   34.7940   31.0920   46.3460 H   0  0  0  0  0  0  0  0  0  0  0  0
   32.8210   29.6440   46.1830 H   0  0  0  0  0  0  0  0  0  0  0  0
   32.4850   27.8170   47.7080 H   0  0  0  0  0  0  0  0  0  0  0  0
   34.1020   27.3410   49.4780 H   0  0  0  0  0  0  0  0  0  0  0  0
   37.7330   32.8130   49.0580 C   0  0  0  0  0  0  0  0  0  0  0  0
   38.8960   32.6540   48.3110 C   0  0  0  0  0  0  0  0  0  0  0  0
   38.9460   31.5420   47.4200 C   0  0  0  0  0  0  0  0  0  0  0  0
   37.8740   30.7120   47.3510 N   0  0  0  0  0  0  0  0  0  0  0  0
   36.7600   30.9090   48.1010 C   0  0  0  0  0  0  0  0  0  0  0  0
   36.7270   31.9580   48.9330 N   0  0  0  0  0  0  0  0  0  0  0  0
   37.7520   33.6700   49.7140 H   0  0  0  0  0  0  0  0  0  0  0  0
   39.7950   33.2580   48.3000 H   0  0  0  0  0  0  0  0  0  0  0  0
   39.7710   31.2900   46.7840 H   0  0  0  0  0  0  0  0  0  0  0  0
   36.4330   28.7030   50.0180 C   0  0  0  0  0  3  0  0  0  0  0  0
   37.7660   29.3500   49.8460 C   0  0  0  0  0  2  0  0  0  0  0  0
   38.1470   29.9730   51.1920 C   0  0  0  0  0  2  0  0  0  0  0  0
   36.7980   30.3700   51.7340 C   0  0  0  0  0  2  0  0  0  0  0  0
   35.9320   29.2090   51.3610 C   0  0  0  0  0  2  0  0  0  0  0  0
  1 15  1  0  0  0  0
  1  6  1  0  0  0  0
  2  1  2  0  0  0  0
  3  2  1  0  0  0  0
  3  4  2  0  0  0  0
  4  5  1  0  0  0  0
  5  6  2  0  0  0  0
  5 10  1  0  0  0  0
  6 20  1  0  0  0  0
  7  2  1  0  0  0  0
  8  3  1  0  0  0  0
  9  4  1  0  0  0  0
 11 17  1  0  0  0  0
 12 11  2  0  0  0  0
 13 12  1  0  0  0  0
 14 13  2  0  0  0  0
 14 15  1  0  0  0  0
 15 16  2  0  0  0  0
 16 11  1  0  0  0  0
 18 12  1  0  0  0  0
 19 13  1  0  0  0  0
 20 24  1  0  0  0  0
 21 20  1  0  0  0  0
 21 22  1  0  0  0  0
 22 23  1  0  0  0  0
 24 23  1  0  0  0  0
M  END
>  <minimizedAffinity>
-5.07195997

>  <minimizedRMSD>
1.0366205

$$$$
