
 OpenBabel03272505343D

 31 33  0  0  1  0  0  0  0  0999 V2000
   36.8840   31.0930   49.0940 C   0  0  0  0  0  0  0  0  0  0  0  0
   37.1270   32.2670   49.7960 C   0  0  0  0  0  0  0  0  0  0  0  0
   37.9870   33.2100   49.2260 C   0  0  0  0  0  0  0  0  0  0  0  0
   38.5390   32.9130   48.0030 N   0  0  0  0  0  0  0  0  0  0  0  0
   38.2780   31.7640   47.3560 C   0  0  0  0  0  0  0  0  0  0  0  0
   37.4620   30.8840   47.9090 N   0  0  0  0  0  0  0  0  0  0  0  0
   38.9000   31.5590   46.0960 N   0  0  0  0  0  0  0  0  0  0  0  0
   40.1990   30.8920   46.0560 C   0  0  0  0  0  0  0  0  0  0  0  0
   41.1360   31.5900   45.0850 C   0  0  0  0  0  0  0  0  0  0  0  0
   40.5080   31.9090   43.8380 N   0  0  0  0  0  0  0  0  0  0  0  0
   39.1570   31.4280   43.7300 C   0  0  0  0  0  0  0  0  0  0  0  0
   38.2870   31.9950   44.8540 C   0  0  1  0  0  0  0  0  0  0  0  0
   36.6590   32.4250   50.7450 H   0  0  0  0  0  0  0  0  0  0  0  0
   38.2050   34.1270   49.7270 H   0  0  0  0  0  0  0  0  0  0  0  0
   40.0820   29.8370   45.7990 H   0  0  0  0  0  0  0  0  0  0  0  0
   40.6730   30.9760   47.0560 H   0  0  0  0  0  0  0  0  0  0  0  0
   41.9690   30.8860   44.8550 H   0  0  0  0  0  0  0  0  0  0  0  0
   41.6500   32.4660   45.5590 H   0  0  0  0  0  0  0  0  0  0  0  0
   40.4500   32.9660   43.7330 H   0  0  0  0  0  0  0  0  0  0  0  0
   38.7900   31.7620   42.7340 H   0  0  0  0  0  0  0  0  0  0  0  0
   39.1370   30.3260   43.8520 H   0  0  0  0  0  0  0  0  0  0  0  0
   38.3280   33.0960   44.7750 H   0  0  0  0  0  0  0  0  0  0  0  0
   36.8540   31.5980   44.6960 C   0  0  0  0  0  0  0  0  0  0  0  0
   36.2620   32.2980   43.4770 C   0  0  0  0  0  0  0  0  0  0  0  0
   35.8760   31.1700   42.5530 C   0  0  0  0  0  0  0  0  0  0  0  0
   35.4490   30.1120   43.5210 C   0  0  0  0  0  0  0  0  0  0  0  0
   36.5940   30.1420   44.5430 C   0  0  0  0  0  0  0  0  0  0  0  0
   35.9600   30.0750   49.6960 C   0  0  0  0  0  0  0  0  0  0  0  0
   34.6590   30.5940   49.7250 F   0  0  0  0  0  0  0  0  0  0  0  0
   36.0730   28.9290   48.9920 F   0  0  0  0  0  0  0  0  0  0  0  0
   36.3500   29.9230   51.0300 F   0  0  0  0  0  0  0  0  0  0  0  0
  1 28  1  0  0  0  0
  1  2  1  0  0  0  0
  2 13  1  0  0  0  0
  3 14  1  0  0  0  0
  3  2  2  0  0  0  0
  4  3  1  0  0  0  0
  5  6  1  0  0  0  0
  5  4  2  0  0  0  0
  6  1  2  0  0  0  0
  7  5  1  0  0  0  0
  8  7  1  0  0  0  0
  8 16  1  0  0  0  0
  9 18  1  0  0  0  0
  9  8  1  0  0  0  0
 10  9  1  0  0  0  0
 11 10  1  0  0  0  0
 11 21  1  0  0  0  0
 11 12  1  0  0  0  0
 12 22  1  6  0  0  0
 12  7  1  0  0  0  0
 15  8  1  0  0  0  0
 17  9  1  0  0  0  0
 19 10  1  0  0  0  0
 20 11  1  0  0  0  0
 23 12  1  0  0  0  0
 24 23  1  0  0  0  0
 25 24  1  0  0  0  0
 25 26  1  0  0  0  0
 26 27  1  0  0  0  0
 27 23  1  0  0  0  0
 28 29  1  0  0  0  0
 28 31  1  0  0  0  0
 30 28  1  0  0  0  0
M  END
>  <minimizedAffinity>
-5.7039566

>  <minimizedRMSD>
0.495171726

$$$$
