
 OpenBabel03272510273D

 41 45  0  0  1  0  0  0  0  0999 V2000
   36.2400   30.1930   46.9230 C   0  0  0  0  0  0  0  0  0  0  0  0
   37.0780   30.7490   47.8870 C   0  0  0  0  0  0  0  0  0  0  0  0
   38.0710   31.6690   47.5360 C   0  0  0  0  0  0  0  0  0  0  0  0
   38.1690   31.9890   46.1860 C   0  0  0  0  0  0  0  0  0  0  0  0
   39.0490   32.8550   45.6030 N   0  0  0  0  0  0  0  0  0  0  0  0
   38.7720   32.8470   44.2920 C   0  0  0  0  0  0  0  0  0  0  0  0
   37.7680   32.0190   44.0510 N   0  0  0  0  0  0  0  0  0  0  0  0
   37.3620   31.4640   45.2060 C   0  0  0  0  0  0  0  0  0  0  0  0
   36.3790   30.5450   45.5920 C   0  0  0  0  0  0  0  0  0  0  0  0
   35.4700   29.4810   47.1920 H   0  0  0  0  0  0  0  0  0  0  0  0
   38.7310   32.1090   48.2810 H   0  0  0  0  0  0  0  0  0  0  0  0
   39.7990   33.4190   46.0880 H   0  0  0  0  0  0  0  0  0  0  0  0
   35.7440   30.1320   44.8180 H   0  0  0  0  0  0  0  0  0  0  0  0
   37.4370   30.1290   51.5660 C   0  0  0  0  0  0  0  0  0  0  0  0
   37.7780   30.5810   50.3050 C   0  0  0  0  0  0  0  0  0  0  0  0
   36.8980   30.3540   49.2710 C   0  0  0  0  0  0  0  0  0  0  0  0
   35.7270   29.6850   49.5690 N   0  0  0  0  0  0  0  0  0  0  0  0
   35.4160   29.2530   50.8070 C   0  0  0  0  0  0  0  0  0  0  0  0
   36.2630   29.4740   51.7880 N   0  0  0  0  0  0  0  0  0  0  0  0
   38.1880   30.3500   52.3210 H   0  0  0  0  0  0  0  0  0  0  0  0
   38.6900   31.1040   50.0590 H   0  0  0  0  0  0  0  0  0  0  0  0
   34.4800   28.7360   50.9700 H   0  0  0  0  0  0  0  0  0  0  0  0
   39.4790   33.6240   43.3720 O   0  0  0  0  0  0  0  0  0  0  0  0
   39.6640   31.8600   41.8970 N   0  0  0  0  0  0  0  0  0  0  0  0
   39.3100   33.2670   42.0080 C   0  0  1  0  0  0  0  0  0  0  0  0
   37.9380   33.4830   41.5780 C   0  0  0  0  0  0  0  0  0  0  0  0
   37.8320   33.1370   40.2200 O   0  0  0  0  0  0  0  0  0  0  0  0
   38.2470   31.8760   39.9020 C   0  0  0  0  0  0  0  0  0  0  0  0
   39.6230   31.6020   40.4790 C   0  0  2  0  0  0  0  0  0  0  0  0
   39.0380   31.1840   42.3090 H   0  0  0  0  0  0  0  0  0  0  0  0
   40.0160   33.8200   41.3650 H   0  0  0  0  0  0  0  0  0  0  0  0
   37.7640   34.6030   41.5660 H   0  0  0  0  0  0  0  0  0  0  0  0
   37.0800   33.0540   42.0170 H   0  0  0  0  0  0  0  0  0  0  0  0
   37.4870   31.1710   40.2750 H   0  0  0  0  0  0  0  0  0  0  0  0
   38.3610   31.8270   38.8110 H   0  0  0  0  0  0  0  0  0  0  0  0
   40.2750   32.3840   40.0240 H   0  0  0  0  0  0  0  0  0  0  0  0
   40.1850   30.2930   40.0770 C   0  0  0  0  0  3  0  0  0  0  0  0
   39.1510   29.2000   40.1210 C   0  0  0  0  0  2  0  0  0  0  0  0
   40.0410   27.9950   39.7830 C   0  0  0  0  0  2  0  0  0  0  0  0
   41.2000   28.2330   40.7270 C   0  0  0  0  0  2  0  0  0  0  0  0
   41.2460   29.7450   40.9800 C   0  0  0  0  0  2  0  0  0  0  0  0
  1 10  1  0  0  0  0
  1  2  1  0  0  0  0
  2 16  1  0  0  0  0
  3  2  2  0  0  0  0
  3 11  1  0  0  0  0
  4  3  1  0  0  0  0
  5 12  1  0  0  0  0
  5  4  1  0  0  0  0
  6  5  1  0  0  0  0
  7  6  2  0  0  0  0
  7  8  1  0  0  0  0
  8  9  1  0  0  0  0
  8  4  2  0  0  0  0
  9  1  2  0  0  0  0
 13  9  1  0  0  0  0
 14 19  1  0  0  0  0
 14 20  1  0  0  0  0
 15 14  2  0  0  0  0
 16 17  2  0  0  0  0
 16 15  1  0  0  0  0
 17 18  1  0  0  0  0
 18 22  1  0  0  0  0
 18 19  2  0  0  0  0
 21 15  1  0  0  0  0
 23  6  1  0  0  0  0
 24 25  1  0  0  0  0
 24 30  1  0  0  0  0
 25 31  1  6  0  0  0
 25 23  1  0  0  0  0
 26 25  1  0  0  0  0
 26 33  1  0  0  0  0
 27 26  1  0  0  0  0
 28 27  1  0  0  0  0
 28 34  1  0  0  0  0
 28 29  1  0  0  0  0
 29 36  1  6  0  0  0
 29 24  1  0  0  0  0
 32 26  1  0  0  0  0
 35 28  1  0  0  0  0
 37 38  1  0  0  0  0
 37 29  1  0  0  0  0
 37 41  1  0  0  0  0
 39 38  1  0  0  0  0
 39 40  1  0  0  0  0
 40 41  1  0  0  0  0
M  END
>  <minimizedAffinity>
-5.9184494

>  <minimizedRMSD>
0.180548236

$$$$
