
 OpenBabel03272501133D

 24 26  0  0  1  0  0  0  0  0999 V2000
   37.3590   26.6590   35.1970 C   0  0  1  0  0  0  0  0  0  0  0  0
   38.4030   25.7150   35.5260 C   0  0  1  0  0  0  0  0  0  0  0  0
   38.5370   27.1300   36.0480 C   0  0  0  0  0  0  0  0  0  0  0  0
   36.3720   26.6450   35.7080 H   0  0  0  0  0  0  0  0  0  0  0  0
   39.1390   25.4820   34.7030 H   0  0  0  0  0  0  0  0  0  0  0  0
   39.2780   27.8020   35.6110 H   0  0  0  0  0  0  0  0  0  0  0  0
   38.2840   27.2840   37.1160 H   0  0  0  0  0  0  0  0  0  0  0  0
   37.3190   27.3610   33.8540 C   0  0  0  0  0  0  0  0  0  0  0  0
   36.3160   28.3190   33.6940 C   0  0  0  0  0  0  0  0  0  0  0  0
   36.2890   28.9320   32.4420 C   0  0  0  0  0  0  0  0  0  0  0  0
   37.1930   28.5940   31.4720 N   0  0  0  0  0  0  0  0  0  0  0  0
   38.1540   27.6470   31.6860 C   0  0  0  0  0  0  0  0  0  0  0  0
   38.2080   27.0240   32.9090 N   0  0  0  0  0  0  0  0  0  0  0  0
   35.6290   28.5480   34.4880 H   0  0  0  0  0  0  0  0  0  0  0  0
   35.5370   29.6880   32.2450 H   0  0  0  0  0  0  0  0  0  0  0  0
   38.8510   27.4050   30.8970 H   0  0  0  0  0  0  0  0  0  0  0  0
   38.0660   24.5860   36.4550 C   0  0  0  0  0  0  0  0  0  0  0  0
   37.8350   24.9710   37.4570 H   0  0  0  0  0  0  0  0  0  0  0  0
   37.1140   24.1100   36.0850 H   0  0  0  0  0  0  0  0  0  0  0  0
   39.0880   23.4840   36.4680 C   0  0  0  0  0  3  0  0  0  0  0  0
   39.5370   23.0920   37.8590 C   0  0  0  0  0  2  0  0  0  0  0  0
   40.6660   22.1130   37.5180 C   0  0  0  0  0  2  0  0  0  0  0  0
   41.3300   22.7250   36.3260 C   0  0  0  0  0  2  0  0  0  0  0  0
   40.3670   23.7870   35.7760 C   0  0  0  0  0  2  0  0  0  0  0  0
  1  2  1  0  0  0  0
  1  4  1  1  0  0  0
  1  3  1  0  0  0  0
  2  5  1  6  0  0  0
  2  3  1  0  0  0  0
  2 17  1  0  0  0  0
  3  7  1  0  0  0  0
  6  3  1  0  0  0  0
  8  1  1  0  0  0  0
  9  8  1  0  0  0  0
  9 14  1  0  0  0  0
 10  9  2  0  0  0  0
 11 12  2  0  0  0  0
 11 10  1  0  0  0  0
 12 13  1  0  0  0  0
 13  8  2  0  0  0  0
 15 10  1  0  0  0  0
 16 12  1  0  0  0  0
 17 20  1  0  0  0  0
 17 18  1  0  0  0  0
 19 17  1  0  0  0  0
 20 21  1  0  0  0  0
 22 21  1  0  0  0  0
 23 22  1  0  0  0  0
 24 23  1  0  0  0  0
 24 20  1  0  0  0  0
M  END
>  <minimizedAffinity>
-4.62095594

$$$$

 OpenBabel03272501133D

 24 26  0  0  1  0  0  0  0  0999 V2000
   37.0690   26.7910   34.8770 C   0  0  1  0  0  0  0  0  0  0  0  0
   38.1910   25.9420   34.5470 C   0  0  1  0  0  0  0  0  0  0  0  0
   38.4150   27.0530   35.5510 C   0  0  0  0  0  0  0  0  0  0  0  0
   36.2520   26.4510   35.5500 H   0  0  0  0  0  0  0  0  0  0  0  0
   38.6910   26.1430   33.5550 H   0  0  0  0  0  0  0  0  0  0  0  0
   38.9940   27.9340   35.2670 H   0  0  0  0  0  0  0  0  0  0  0  0
   38.4480   26.7510   36.6170 H   0  0  0  0  0  0  0  0  0  0  0  0
   36.6560   27.9420   33.9820 C   0  0  0  0  0  0  0  0  0  0  0  0
   37.0660   27.8590   32.6490 C   0  0  0  0  0  0  0  0  0  0  0  0
   36.6910   28.9420   31.8550 C   0  0  0  0  0  0  0  0  0  0  0  0
   35.9770   29.9860   32.3770 N   0  0  0  0  0  0  0  0  0  0  0  0
   35.6030   30.0130   33.6910 C   0  0  0  0  0  0  0  0  0  0  0  0
   35.9560   28.9620   34.5000 N   0  0  0  0  0  0  0  0  0  0  0  0
   37.6260   27.0170   32.2880 H   0  0  0  0  0  0  0  0  0  0  0  0
   36.9750   28.9460   30.8080 H   0  0  0  0  0  0  0  0  0  0  0  0
   35.0410   30.8540   34.0690 H   0  0  0  0  0  0  0  0  0  0  0  0
   38.1460   24.5100   34.9890 C   0  0  0  0  0  0  0  0  0  0  0  0
   37.1300   24.1070   34.8810 H   0  0  0  0  0  0  0  0  0  0  0  0
   38.7860   23.9120   34.2810 H   0  0  0  0  0  0  0  0  0  0  0  0
   38.7310   24.2760   36.3540 C   0  0  0  0  0  3  0  0  0  0  0  0
   39.5960   23.0370   36.4360 C   0  0  0  0  0  2  0  0  0  0  0  0
   39.8730   22.9950   37.9430 C   0  0  0  0  0  2  0  0  0  0  0  0
   38.5820   23.4250   38.5620 C   0  0  0  0  0  2  0  0  0  0  0  0
   37.7470   24.0710   37.4470 C   0  0  0  0  0  2  0  0  0  0  0  0
  1  4  1  1  0  0  0
  1  3  1  0  0  0  0
  2  5  1  6  0  0  0
  2  1  1  0  0  0  0
  2 17  1  0  0  0  0
  2  3  1  0  0  0  0
  3  7  1  0  0  0  0
  6  3  1  0  0  0  0
  8 13  1  0  0  0  0
  8  1  1  0  0  0  0
  9  8  2  0  0  0  0
 10 11  2  0  0  0  0
 10  9  1  0  0  0  0
 11 12  1  0  0  0  0
 12 16  1  0  0  0  0
 12 13  2  0  0  0  0
 14  9  1  0  0  0  0
 15 10  1  0  0  0  0
 17 20  1  0  0  0  0
 18 17  1  0  0  0  0
 19 17  1  0  0  0  0
 20 21  1  0  0  0  0
 20 24  1  0  0  0  0
 21 22  1  0  0  0  0
 22 23  1  0  0  0  0
 24 23  1  0  0  0  0
M  END
>  <minimizedAffinity>
-4.59031963

$$$$

 OpenBabel03272501133D

 24 26  0  0  1  0  0  0  0  0999 V2000
   39.1580   25.1680   34.6500 C   0  0  1  0  0  0  0  0  0  0  0  0
   38.3020   26.2740   34.2860 C   0  0  1  0  0  0  0  0  0  0  0  0
   39.6940   26.5920   34.7890 C   0  0  0  0  0  0  0  0  0  0  0  0
   39.6600   24.5370   33.8840 H   0  0  0  0  0  0  0  0  0  0  0  0
   37.4970   26.5440   35.0300 H   0  0  0  0  0  0  0  0  0  0  0  0
   39.8280   27.0180   35.7860 H   0  0  0  0  0  0  0  0  0  0  0  0
   40.4430   26.8650   34.0200 H   0  0  0  0  0  0  0  0  0  0  0  0
   39.0340   24.4790   35.9940 C   0  0  0  0  0  0  0  0  0  0  0  0
   39.9580   23.4620   36.2480 C   0  0  0  0  0  0  0  0  0  0  0  0
   39.8070   22.8310   37.4820 C   0  0  0  0  0  0  0  0  0  0  0  0
   38.8190   23.2080   38.3500 N   0  0  0  0  0  0  0  0  0  0  0  0
   37.9430   24.2120   38.0480 C   0  0  0  0  0  0  0  0  0  0  0  0
   38.0640   24.8530   36.8400 N   0  0  0  0  0  0  0  0  0  0  0  0
   40.7160   23.2030   35.5320 H   0  0  0  0  0  0  0  0  0  0  0  0
   40.4890   22.0310   37.7480 H   0  0  0  0  0  0  0  0  0  0  0  0
   37.1740   24.4820   38.7560 H   0  0  0  0  0  0  0  0  0  0  0  0
   37.9540   26.4510   32.8380 C   0  0  0  0  0  0  0  0  0  0  0  0
   37.9470   27.5170   32.5720 H   0  0  0  0  0  0  0  0  0  0  0  0
   38.7830   25.9920   32.2280 H   0  0  0  0  0  0  0  0  0  0  0  0
   36.7030   25.7310   32.4200 C   0  0  0  0  0  3  0  0  0  0  0  0
   36.9650   24.3840   31.7810 C   0  0  0  0  0  2  0  0  0  0  0  0
   35.5480   24.0160   31.3270 C   0  0  0  0  0  2  0  0  0  0  0  0
   34.9670   25.3120   30.8600 C   0  0  0  0  0  2  0  0  0  0  0  0
   35.8700   26.4270   31.4060 C   0  0  0  0  0  2  0  0  0  0  0  0
  1  4  1  6  0  0  0
  1  3  1  0  0  0  0
  1  8  1  0  0  0  0
  2  1  1  0  0  0  0
  2  3  1  0  0  0  0
  2  5  1  1  0  0  0
  3  6  1  0  0  0  0
  7  3  1  0  0  0  0
  8  9  2  0  0  0  0
  8 13  1  0  0  0  0
  9 10  1  0  0  0  0
 10 15  1  0  0  0  0
 10 11  2  0  0  0  0
 12 11  1  0  0  0  0
 12 16  1  0  0  0  0
 13 12  2  0  0  0  0
 14  9  1  0  0  0  0
 17  2  1  0  0  0  0
 18 17  1  0  0  0  0
 19 17  1  0  0  0  0
 20 17  1  0  0  0  0
 21 20  1  0  0  0  0
 22 21  1  0  0  0  0
 23 22  1  0  0  0  0
 23 24  1  0  0  0  0
 24 20  1  0  0  0  0
M  END
>  <minimizedAffinity>
-4.51670504

$$$$

 OpenBabel03272501133D

 24 26  0  0  1  0  0  0  0  0999 V2000
   39.2930   25.2650   34.6840 C   0  0  1  0  0  0  0  0  0  0  0  0
   38.8580   26.6380   34.5580 C   0  0  1  0  0  0  0  0  0  0  0  0
   40.3290   26.3810   34.8090 C   0  0  0  0  0  0  0  0  0  0  0  0
   39.4050   24.6010   33.8000 H   0  0  0  0  0  0  0  0  0  0  0  0
   38.3330   27.0760   35.4560 H   0  0  0  0  0  0  0  0  0  0  0  0
   40.7610   26.6030   35.7870 H   0  0  0  0  0  0  0  0  0  0  0  0
   40.9990   26.4690   33.9310 H   0  0  0  0  0  0  0  0  0  0  0  0
   39.1330   24.4990   35.9820 C   0  0  0  0  0  0  0  0  0  0  0  0
   38.0860   24.9100   36.8100 C   0  0  0  0  0  0  0  0  0  0  0  0
   37.9760   24.2030   38.0070 C   0  0  0  0  0  0  0  0  0  0  0  0
   38.8460   23.1900   38.3100 N   0  0  0  0  0  0  0  0  0  0  0  0
   39.8530   22.8310   37.4590 C   0  0  0  0  0  0  0  0  0  0  0  0
   39.9880   23.5080   36.2720 N   0  0  0  0  0  0  0  0  0  0  0  0
   37.4300   25.7120   36.5270 H   0  0  0  0  0  0  0  0  0  0  0  0
   37.1860   24.4670   38.7010 H   0  0  0  0  0  0  0  0  0  0  0  0
   40.5210   22.0280   37.7310 H   0  0  0  0  0  0  0  0  0  0  0  0
   38.3830   27.1070   33.2150 C   0  0  0  0  0  0  0  0  0  0  0  0
   39.1050   27.8090   32.7770 H   0  0  0  0  0  0  0  0  0  0  0  0
   38.3690   26.2150   32.5260 H   0  0  0  0  0  0  0  0  0  0  0  0
   36.9750   27.6330   33.2190 C   0  0  0  0  0  3  0  0  0  0  0  0
   36.7250   28.6970   32.1720 C   0  0  0  0  0  2  0  0  0  0  0  0
   35.3060   29.1310   32.5530 C   0  0  0  0  0  2  0  0  0  0  0  0
   35.3050   29.0990   34.0480 C   0  0  0  0  0  2  0  0  0  0  0  0
   36.5400   28.2930   34.4760 C   0  0  0  0  0  2  0  0  0  0  0  0
  1  4  1  6  0  0  0
  1  3  1  0  0  0  0
  1  8  1  0  0  0  0
  2  1  1  0  0  0  0
  2  3  1  0  0  0  0
  2  5  1  1  0  0  0
  3  6  1  0  0  0  0
  7  3  1  0  0  0  0
  8 13  2  0  0  0  0
  8  9  1  0  0  0  0
  9 10  2  0  0  0  0
 10 11  1  0  0  0  0
 10 15  1  0  0  0  0
 12 16  1  0  0  0  0
 12 11  2  0  0  0  0
 13 12  1  0  0  0  0
 14  9  1  0  0  0  0
 17 20  1  0  0  0  0
 17  2  1  0  0  0  0
 18 17  1  0  0  0  0
 19 17  1  0  0  0  0
 20 24  1  0  0  0  0
 21 22  1  0  0  0  0
 21 20  1  0  0  0  0
 22 23  1  0  0  0  0
 23 24  1  0  0  0  0
M  END
>  <minimizedAffinity>
-4.50662184

$$$$

 OpenBabel03272501133D

 24 26  0  0  1  0  0  0  0  0999 V2000
   38.5710   25.6470   34.9880 C   0  0  1  0  0  0  0  0  0  0  0  0
   37.4520   26.5600   34.9110 C   0  0  1  0  0  0  0  0  0  0  0  0
   38.7820   27.1080   35.3840 C   0  0  0  0  0  0  0  0  0  0  0  0
   39.1180   25.3110   34.0810 H   0  0  0  0  0  0  0  0  0  0  0  0
   36.6920   26.4840   35.7410 H   0  0  0  0  0  0  0  0  0  0  0  0
   38.9220   27.3620   36.4370 H   0  0  0  0  0  0  0  0  0  0  0  0
   39.3620   27.6920   34.6430 H   0  0  0  0  0  0  0  0  0  0  0  0
   38.7520   24.7140   36.1680 C   0  0  0  0  0  0  0  0  0  0  0  0
   39.7520   23.7470   36.0360 C   0  0  0  0  0  0  0  0  0  0  0  0
   39.8810   22.8880   37.1260 C   0  0  0  0  0  0  0  0  0  0  0  0
   39.0720   23.0140   38.2230 N   0  0  0  0  0  0  0  0  0  0  0  0
   38.1090   23.9800   38.2960 C   0  0  0  0  0  0  0  0  0  0  0  0
   37.9560   24.8430   37.2380 N   0  0  0  0  0  0  0  0  0  0  0  0
   40.3610   23.6890   35.1520 H   0  0  0  0  0  0  0  0  0  0  0  0
   40.6380   22.1120   37.0950 H   0  0  0  0  0  0  0  0  0  0  0  0
   37.4870   24.0500   39.1760 H   0  0  0  0  0  0  0  0  0  0  0  0
   36.9210   26.9110   33.5530 C   0  0  0  0  0  0  0  0  0  0  0  0
   37.5370   26.4490   32.7690 H   0  0  0  0  0  0  0  0  0  0  0  0
   35.9010   26.4420   33.4520 H   0  0  0  0  0  0  0  0  0  0  0  0
   36.7080   28.3840   33.3450 C   0  0  0  0  0  3  0  0  0  0  0  0
   35.6200   28.9670   34.2210 C   0  0  0  0  0  2  0  0  0  0  0  0
   35.5400   30.3870   33.6500 C   0  0  0  0  0  2  0  0  0  0  0  0
   35.7240   30.1990   32.1790 C   0  0  0  0  0  2  0  0  0  0  0  0
   36.2890   28.7850   31.9780 C   0  0  0  0  0  2  0  0  0  0  0  0
  1  4  1  6  0  0  0
  1  3  1  0  0  0  0
  1  8  1  0  0  0  0
  2  1  1  0  0  0  0
  2  3  1  0  0  0  0
  2  5  1  1  0  0  0
  3  6  1  0  0  0  0
  7  3  1  0  0  0  0
  8 13  1  0  0  0  0
  9  8  2  0  0  0  0
  9 10  1  0  0  0  0
 10 11  2  0  0  0  0
 11 12  1  0  0  0  0
 12 16  1  0  0  0  0
 13 12  2  0  0  0  0
 14  9  1  0  0  0  0
 15 10  1  0  0  0  0
 17  2  1  0  0  0  0
 18 17  1  0  0  0  0
 19 17  1  0  0  0  0
 20 17  1  0  0  0  0
 20 21  1  0  0  0  0
 22 21  1  0  0  0  0
 23 22  1  0  0  0  0
 24 23  1  0  0  0  0
 24 20  1  0  0  0  0
M  END
>  <minimizedAffinity>
-4.45643902

$$$$

 OpenBabel03272501133D

 24 26  0  0  1  0  0  0  0  0999 V2000
   36.7870   28.0410   32.9500 C   0  0  1  0  0  0  0  0  0  0  0  0
   35.7470   28.8610   33.5280 C   0  0  1  0  0  0  0  0  0  0  0  0
   36.6160   28.0540   34.4680 C   0  0  0  0  0  0  0  0  0  0  0  0
   37.7360   28.4770   32.5690 H   0  0  0  0  0  0  0  0  0  0  0  0
   34.6960   28.4560   33.4500 H   0  0  0  0  0  0  0  0  0  0  0  0
   36.2060   27.1730   34.9680 H   0  0  0  0  0  0  0  0  0  0  0  0
   37.4100   28.6120   35.0030 H   0  0  0  0  0  0  0  0  0  0  0  0
   36.4860   26.6770   32.3620 C   0  0  0  0  0  0  0  0  0  0  0  0
   35.4530   26.6290   31.4230 C   0  0  0  0  0  0  0  0  0  0  0  0
   35.1830   25.3590   30.9160 C   0  0  0  0  0  0  0  0  0  0  0  0
   35.8980   24.2670   31.3300 N   0  0  0  0  0  0  0  0  0  0  0  0
   36.9000   24.3750   32.2530 C   0  0  0  0  0  0  0  0  0  0  0  0
   37.1900   25.6120   32.7720 N   0  0  0  0  0  0  0  0  0  0  0  0
   34.9210   27.5150   31.1310 H   0  0  0  0  0  0  0  0  0  0  0  0
   34.3930   25.2440   30.1820 H   0  0  0  0  0  0  0  0  0  0  0  0
   37.4430   23.4920   32.5580 H   0  0  0  0  0  0  0  0  0  0  0  0
   35.8930   30.3510   33.4410 C   0  0  0  0  0  0  0  0  0  0  0  0
   36.9540   30.6290   33.3870 H   0  0  0  0  0  0  0  0  0  0  0  0
   35.4410   30.6840   32.4640 H   0  0  0  0  0  0  0  0  0  0  0  0
   35.1410   31.0990   34.5060 C   0  0  0  0  0  3  0  0  0  0  0  0
   35.9450   31.3230   35.7690 C   0  0  0  0  0  2  0  0  0  0  0  0
   34.8670   31.9250   36.6770 C   0  0  0  0  0  2  0  0  0  0  0  0
   33.6310   31.1560   36.3340 C   0  0  0  0  0  2  0  0  0  0  0  0
   33.9100   30.4360   35.0070 C   0  0  0  0  0  2  0  0  0  0  0  0
  1  4  1  6  0  0  0
  1  2  1  0  0  0  0
  1  3  1  0  0  0  0
  2  5  1  6  0  0  0
  2  3  1  0  0  0  0
  3  6  1  0  0  0  0
  3  7  1  0  0  0  0
  8 13  1  0  0  0  0
  8  1  1  0  0  0  0
  9  8  2  0  0  0  0
 10 11  2  0  0  0  0
 10  9  1  0  0  0  0
 11 12  1  0  0  0  0
 12 16  1  0  0  0  0
 12 13  2  0  0  0  0
 14  9  1  0  0  0  0
 15 10  1  0  0  0  0
 17  2  1  0  0  0  0
 17 20  1  0  0  0  0
 18 17  1  0  0  0  0
 19 17  1  0  0  0  0
 20 24  1  0  0  0  0
 20 21  1  0  0  0  0
 21 22  1  0  0  0  0
 23 22  1  0  0  0  0
 24 23  1  0  0  0  0
M  END
>  <minimizedAffinity>
-4.39321852

$$$$

 OpenBabel03272501133D

 24 26  0  0  1  0  0  0  0  0999 V2000
   36.0510   24.5450   31.9150 C   0  0  1  0  0  0  0  0  0  0  0  0
   36.5670   25.8010   31.4230 C   0  0  1  0  0  0  0  0  0  0  0  0
   35.2540   25.3040   30.8550 C   0  0  0  0  0  0  0  0  0  0  0  0
   35.5650   24.4590   32.9110 H   0  0  0  0  0  0  0  0  0  0  0  0
   37.4160   25.7330   30.6830 H   0  0  0  0  0  0  0  0  0  0  0  0
   35.2160   24.9160   29.8350 H   0  0  0  0  0  0  0  0  0  0  0  0
   34.3370   25.7870   31.2450 H   0  0  0  0  0  0  0  0  0  0  0  0
   36.5620   23.2180   31.3910 C   0  0  0  0  0  0  0  0  0  0  0  0
   35.6780   22.1410   31.4860 C   0  0  0  0  0  0  0  0  0  0  0  0
   36.1820   20.9280   31.0170 C   0  0  0  0  0  0  0  0  0  0  0  0
   37.4510   20.8410   30.5100 N   0  0  0  0  0  0  0  0  0  0  0  0
   38.2720   21.9310   30.4420 C   0  0  0  0  0  0  0  0  0  0  0  0
   37.8050   23.1400   30.8960 N   0  0  0  0  0  0  0  0  0  0  0  0
   34.6910   22.2610   31.8930 H   0  0  0  0  0  0  0  0  0  0  0  0
   35.5520   20.0470   31.0580 H   0  0  0  0  0  0  0  0  0  0  0  0
   39.2680   21.8250   30.0370 H   0  0  0  0  0  0  0  0  0  0  0  0
   36.5990   26.9690   32.3640 C   0  0  0  0  0  0  0  0  0  0  0  0
   36.8870   27.8840   31.8300 H   0  0  0  0  0  0  0  0  0  0  0  0
   35.5460   27.1460   32.7250 H   0  0  0  0  0  0  0  0  0  0  0  0
   37.4130   26.7280   33.6040 C   0  0  0  0  0  3  0  0  0  0  0  0
   37.0900   27.6810   34.7340 C   0  0  0  0  0  2  0  0  0  0  0  0
   38.1800   27.2950   35.7400 C   0  0  0  0  0  2  0  0  0  0  0  0
   39.3820   27.0310   34.8910 C   0  0  0  0  0  2  0  0  0  0  0  0
   38.8820   26.8810   33.4470 C   0  0  0  0  0  2  0  0  0  0  0  0
  1  4  1  1  0  0  0
  2  5  1  6  0  0  0
  2  1  1  0  0  0  0
  2 17  1  0  0  0  0
  3  7  1  0  0  0  0
  3  2  1  0  0  0  0
  3  1  1  0  0  0  0
  6  3  1  0  0  0  0
  8  9  1  0  0  0  0
  8  1  1  0  0  0  0
  9 14  1  0  0  0  0
 10 15  1  0  0  0  0
 10  9  2  0  0  0  0
 11 10  1  0  0  0  0
 12 11  2  0  0  0  0
 12 13  1  0  0  0  0
 13  8  2  0  0  0  0
 16 12  1  0  0  0  0
 17 19  1  0  0  0  0
 17 20  1  0  0  0  0
 18 17  1  0  0  0  0
 20 21  1  0  0  0  0
 21 22  1  0  0  0  0
 23 22  1  0  0  0  0
 24 20  1  0  0  0  0
 24 23  1  0  0  0  0
M  END
>  <minimizedAffinity>
-4.30954838

$$$$

 OpenBabel03272501133D

 24 26  0  0  1  0  0  0  0  0999 V2000
   36.5890   25.2850   31.3730 C   0  0  1  0  0  0  0  0  0  0  0  0
   36.2150   23.9580   31.8050 C   0  0  1  0  0  0  0  0  0  0  0  0
   35.2010   24.7570   31.0150 C   0  0  0  0  0  0  0  0  0  0  0  0
   37.2760   25.4530   30.5160 H   0  0  0  0  0  0  0  0  0  0  0  0
   35.9350   23.8500   32.8930 H   0  0  0  0  0  0  0  0  0  0  0  0
   34.3240   25.1710   31.5180 H   0  0  0  0  0  0  0  0  0  0  0  0
   35.0870   24.4860   29.9470 H   0  0  0  0  0  0  0  0  0  0  0  0
   36.5140   26.4740   32.3110 C   0  0  0  0  0  0  0  0  0  0  0  0
   37.0840   26.2950   33.5730 C   0  0  0  0  0  0  0  0  0  0  0  0
   36.9810   27.3960   34.4220 C   0  0  0  0  0  0  0  0  0  0  0  0
   36.3610   28.5460   34.0130 N   0  0  0  0  0  0  0  0  0  0  0  0
   35.8200   28.6630   32.7640 C   0  0  0  0  0  0  0  0  0  0  0  0
   35.9050   27.5970   31.9030 N   0  0  0  0  0  0  0  0  0  0  0  0
   37.5590   25.3710   33.8470 H   0  0  0  0  0  0  0  0  0  0  0  0
   37.4020   27.3300   35.4190 H   0  0  0  0  0  0  0  0  0  0  0  0
   35.3370   29.5850   32.4750 H   0  0  0  0  0  0  0  0  0  0  0  0
   36.9190   22.7890   31.1820 C   0  0  0  0  0  0  0  0  0  0  0  0
   36.8230   22.8220   30.0880 H   0  0  0  0  0  0  0  0  0  0  0  0
   38.0200   22.9000   31.3930 H   0  0  0  0  0  0  0  0  0  0  0  0
   36.5300   21.4610   31.7680 C   0  0  0  0  0  3  0  0  0  0  0  0
   35.1620   20.9840   31.3300 C   0  0  0  0  0  2  0  0  0  0  0  0
   35.0060   19.7440   32.2170 C   0  0  0  0  0  2  0  0  0  0  0  0
   35.6160   20.1490   33.5200 C   0  0  0  0  0  2  0  0  0  0  0  0
   36.4410   21.4160   33.2500 C   0  0  0  0  0  2  0  0  0  0  0  0
  1  4  1  6  0  0  0
  1  2  1  0  0  0  0
  1  8  1  0  0  0  0
  2  5  1  1  0  0  0
  3  1  1  0  0  0  0
  3  6  1  0  0  0  0
  3  2  1  0  0  0  0
  7  3  1  0  0  0  0
  8  9  1  0  0  0  0
  9 14  1  0  0  0  0
  9 10  2  0  0  0  0
 10 15  1  0  0  0  0
 11 10  1  0  0  0  0
 12 11  2  0  0  0  0
 13  8  2  0  0  0  0
 13 12  1  0  0  0  0
 16 12  1  0  0  0  0
 17 19  1  0  0  0  0
 17 20  1  0  0  0  0
 17  2  1  0  0  0  0
 18 17  1  0  0  0  0
 20 24  1  0  0  0  0
 21 20  1  0  0  0  0
 21 22  1  0  0  0  0
 22 23  1  0  0  0  0
 24 23  1  0  0  0  0
M  END
>  <minimizedAffinity>
-4.28481007

$$$$

 OpenBabel03272501133D

 24 26  0  0  1  0  0  0  0  0999 V2000
   35.9250   30.0490   34.3380 C   0  0  1  0  0  0  0  0  0  0  0  0
   35.4510   28.9760   33.4930 C   0  0  1  0  0  0  0  0  0  0  0  0
   35.5640   30.3590   32.8860 C   0  0  0  0  0  0  0  0  0  0  0  0
   36.9990   30.1590   34.6010 H   0  0  0  0  0  0  0  0  0  0  0  0
   34.3810   28.6560   33.6510 H   0  0  0  0  0  0  0  0  0  0  0  0
   34.6600   30.9330   32.6700 H   0  0  0  0  0  0  0  0  0  0  0  0
   36.4420   30.5380   32.2350 H   0  0  0  0  0  0  0  0  0  0  0  0
   35.0030   30.7580   35.3100 C   0  0  0  0  0  0  0  0  0  0  0  0
   35.6010   31.7160   36.1320 C   0  0  0  0  0  0  0  0  0  0  0  0
   34.7350   32.3360   37.0320 C   0  0  0  0  0  0  0  0  0  0  0  0
   33.4070   32.0050   37.0740 N   0  0  0  0  0  0  0  0  0  0  0  0
   32.8780   31.0580   36.2440 C   0  0  0  0  0  0  0  0  0  0  0  0
   33.7040   30.4280   35.3470 N   0  0  0  0  0  0  0  0  0  0  0  0
   36.6500   31.9400   36.0600 H   0  0  0  0  0  0  0  0  0  0  0  0
   35.1290   33.0920   37.7030 H   0  0  0  0  0  0  0  0  0  0  0  0
   31.8260   30.8210   36.3060 H   0  0  0  0  0  0  0  0  0  0  0  0
   36.4200   27.8950   33.1160 C   0  0  0  0  0  0  0  0  0  0  0  0
   35.8810   26.9830   32.8230 H   0  0  0  0  0  0  0  0  0  0  0  0
   36.9680   28.2330   32.1910 H   0  0  0  0  0  0  0  0  0  0  0  0
   37.4850   27.6470   34.1460 C   0  0  0  0  0  3  0  0  0  0  0  0
   38.7880   27.1480   33.5590 C   0  0  0  0  0  2  0  0  0  0  0  0
   39.5650   26.8340   34.8430 C   0  0  0  0  0  2  0  0  0  0  0  0
   38.5330   26.2630   35.7620 C   0  0  0  0  0  2  0  0  0  0  0  0
   37.1620   26.6180   35.1670 C   0  0  0  0  0  2  0  0  0  0  0  0
  1  4  1  1  0  0  0
  1  8  1  0  0  0  0
  2  5  1  1  0  0  0
  2  1  1  0  0  0  0
  3  2  1  0  0  0  0
  3  1  1  0  0  0  0
  6  3  1  0  0  0  0
  7  3  1  0  0  0  0
  8 13  2  0  0  0  0
  8  9  1  0  0  0  0
  9 10  2  0  0  0  0
 10 11  1  0  0  0  0
 10 15  1  0  0  0  0
 12 16  1  0  0  0  0
 12 11  2  0  0  0  0
 13 12  1  0  0  0  0
 14  9  1  0  0  0  0
 17  2  1  0  0  0  0
 17 20  1  0  0  0  0
 18 17  1  0  0  0  0
 19 17  1  0  0  0  0
 20 24  1  0  0  0  0
 21 20  1  0  0  0  0
 21 22  1  0  0  0  0
 22 23  1  0  0  0  0
 24 23  1  0  0  0  0
M  END
>  <minimizedAffinity>
-4.24982452

$$$$
