
 OpenBabel03272507343D

 32 35  0  0  1  0  0  0  0  0999 V2000
   35.8180   29.1170   49.7930 C   0  0  0  0  0  0  0  0  0  0  0  0
   34.7870   29.6270   50.5480 C   0  0  0  0  0  0  0  0  0  0  0  0
   33.5960   29.0790   50.0540 C   0  0  0  0  0  0  0  0  0  0  0  0
   33.9830   28.2600   49.0170 C   0  0  0  0  0  0  0  0  0  0  0  0
   35.2920   28.3130   48.8990 O   0  0  0  0  0  0  0  0  0  0  0  0
   34.8490   30.3320   51.3870 H   0  0  0  0  0  0  0  0  0  0  0  0
   32.5860   29.2550   50.4060 H   0  0  0  0  0  0  0  0  0  0  0  0
   37.2090   29.4750   50.0310 C   0  0  0  0  0  0  0  0  0  0  0  0
   37.8450   28.8750   50.9040 O   0  0  0  0  0  0  0  0  0  0  0  0
   37.7580   30.5210   49.2160 C   0  0  0  0  0  0  0  0  0  0  0  0
   38.1020   31.7030   49.8540 C   0  0  0  0  0  0  0  0  0  0  0  0
   38.6370   32.7440   49.0890 C   0  0  0  0  0  0  0  0  0  0  0  0
   38.7970   32.5400   47.7380 N   0  0  0  0  0  0  0  0  0  0  0  0
   38.4530   31.3840   47.1570 C   0  0  0  0  0  0  0  0  0  0  0  0
   37.9390   30.3810   47.8830 N   0  0  0  0  0  0  0  0  0  0  0  0
   37.9860   31.8940   50.9230 H   0  0  0  0  0  0  0  0  0  0  0  0
   38.9110   33.6700   49.5600 H   0  0  0  0  0  0  0  0  0  0  0  0
   38.5910   31.2510   46.0860 H   0  0  0  0  0  0  0  0  0  0  0  0
   33.0910   27.4560   48.1820 C   0  0  0  0  0  0  0  0  0  0  0  0
   31.8500   27.4240   48.4740 O   0  0  0  0  0  0  0  0  0  0  0  0
   33.6390   26.6870   47.0140 C   0  0  1  0  0  0  0  0  0  0  0  0
   33.7670   25.1650   47.3890 C   0  0  0  0  0  0  0  0  0  0  0  0
   32.8330   25.6620   46.3490 C   0  0  2  0  0  0  0  0  0  0  0  0
   34.6600   27.0190   46.7320 H   0  0  0  0  0  0  0  0  0  0  0  0
   33.2980   24.8370   48.3280 H   0  0  0  0  0  0  0  0  0  0  0  0
   34.6810   24.6410   47.1350 H   0  0  0  0  0  0  0  0  0  0  0  0
   31.7540   25.6390   46.5540 H   0  0  0  0  0  0  0  0  0  0  0  0
   33.1830   25.4390   44.8770 C   0  0  0  0  0  3  0  0  0  0  0  0
   32.6580   24.1070   44.3870 C   0  0  0  0  0  2  0  0  0  0  0  0
   33.5590   23.9100   43.1590 C   0  0  0  0  0  2  0  0  0  0  0  0
   34.9220   24.0860   43.8400 C   0  0  0  0  0  2  0  0  0  0  0  0
   34.6790   25.3040   44.7080 C   0  0  0  0  0  2  0  0  0  0  0  0
  1  8  1  0  0  0  0
  1  2  2  0  0  0  0
  2  6  1  0  0  0  0
  3  7  1  0  0  0  0
  3  2  1  0  0  0  0
  4  3  2  0  0  0  0
  5  4  1  0  0  0  0
  5  1  1  0  0  0  0
  8  9  2  0  0  0  0
 10 11  1  0  0  0  0
 10  8  1  0  0  0  0
 11 16  1  0  0  0  0
 12 17  1  0  0  0  0
 12 11  2  0  0  0  0
 13 12  1  0  0  0  0
 14 13  2  0  0  0  0
 14 15  1  0  0  0  0
 15 10  2  0  0  0  0
 18 14  1  0  0  0  0
 19 20  2  0  0  0  0
 19  4  1  0  0  0  0
 21 24  1  6  0  0  0
 21 22  1  0  0  0  0
 21 19  1  0  0  0  0
 22 25  1  0  0  0  0
 23 27  1  1  0  0  0
 23 21  1  0  0  0  0
 23 22  1  0  0  0  0
 26 22  1  0  0  0  0
 28 23  1  0  0  0  0
 29 28  1  0  0  0  0
 30 31  1  0  0  0  0
 30 29  1  0  0  0  0
 31 32  1  0  0  0  0
 32 28  1  0  0  0  0
M  END
>  <minimizedAffinity>
-4.96757746

>  <minimizedRMSD>
0.404122084

$$$$
