
 OpenBabel03262522523D

 29 32  0  0  0  0  0  0  0  0999 V2000
   36.1610   30.1730   48.8460 C   0  0  0  0  0  0  0  0  0  0  0  0
   36.1970   29.1150   49.6520 C   0  0  0  0  0  0  0  0  0  0  0  0
   35.1120   28.2710   49.7030 C   0  0  0  0  0  0  0  0  0  0  0  0
   34.0600   28.5930   48.9020 C   0  0  0  0  0  0  0  0  0  0  0  0
   34.6280   30.1150   48.0720 S   0  0  0  0  0  0  0  0  0  0  0  0
   37.0950   28.9280   50.2710 H   0  0  0  0  0  0  0  0  0  0  0  0
   35.0440   27.3810   50.3300 H   0  0  0  0  0  0  0  0  0  0  0  0
   38.1640   33.1820   49.3060 C   0  0  0  0  0  0  0  0  0  0  0  0
   39.0790   33.1370   48.2470 C   0  0  0  0  0  0  0  0  0  0  0  0
   39.0040   32.0400   47.3500 C   0  0  0  0  0  0  0  0  0  0  0  0
   38.0420   31.1060   47.5860 N   0  0  0  0  0  0  0  0  0  0  0  0
   37.1890   31.2060   48.6240 C   0  0  0  0  0  0  0  0  0  0  0  0
   37.2280   32.2200   49.4870 N   0  0  0  0  0  0  0  0  0  0  0  0
   38.1760   34.0020   50.0250 H   0  0  0  0  0  0  0  0  0  0  0  0
   39.8180   33.9130   48.1200 H   0  0  0  0  0  0  0  0  0  0  0  0
   39.6890   31.9710   46.5270 H   0  0  0  0  0  0  0  0  0  0  0  0
   32.7850   27.9030   48.7330 C   0  0  0  0  0  0  0  0  0  0  0  0
   32.6960   26.8540   47.8620 C   0  0  0  0  0  0  0  0  0  0  0  0
   31.4660   26.2430   47.7480 C   0  0  0  0  0  0  0  0  0  0  0  0
   30.3920   26.6470   48.4540 N   0  0  0  0  0  0  0  0  0  0  0  0
   30.5870   27.6960   49.2900 C   0  0  0  0  0  0  0  0  0  0  0  0
   31.7500   28.3460   49.4590 N   0  0  0  0  0  0  0  0  0  0  0  0
   33.5300   26.4930   47.2720 H   0  0  0  0  0  0  0  0  0  0  0  0
   31.3910   25.4070   47.0560 H   0  0  0  0  0  0  0  0  0  0  0  0
   29.3910   28.1320   50.0650 C   0  0  0  0  0  0  0  0  0  0  0  0
   28.8250   27.0300   50.9020 C   0  0  0  0  0  0  0  0  0  0  0  0
   27.4750   26.6840   50.3280 C   0  0  0  0  0  0  0  0  0  0  0  0
   27.0040   28.0340   49.8040 C   0  0  0  0  0  0  0  0  0  0  0  0
   28.2680   28.5710   49.1560 C   0  0  0  0  0  0  0  0  0  0  0  0
  1  2  2  0  0  0  0
  2  3  1  0  0  0  0
  2  6  1  0  0  0  0
  3  7  1  0  0  0  0
  4  3  2  0  0  0  0
  5  1  1  0  0  0  0
  5  4  1  0  0  0  0
  8 13  1  0  0  0  0
  8 14  1  0  0  0  0
  9  8  2  0  0  0  0
 10 11  2  0  0  0  0
 10  9  1  0  0  0  0
 11 12  1  0  0  0  0
 12  1  1  0  0  0  0
 12 13  2  0  0  0  0
 15  9  1  0  0  0  0
 16 10  1  0  0  0  0
 17  4  1  0  0  0  0
 17 22  1  0  0  0  0
 18 17  2  0  0  0  0
 19 18  1  0  0  0  0
 19 20  2  0  0  0  0
 20 21  1  0  0  0  0
 21 22  2  0  0  0  0
 21 25  1  0  0  0  0
 23 18  1  0  0  0  0
 24 19  1  0  0  0  0
 25 26  1  0  0  0  0
 27 26  1  0  0  0  0
 28 27  1  0  0  0  0
 29 28  1  0  0  0  0
 29 25  1  0  0  0  0
M  END
>  <minimizedAffinity>
-6.66350508

>  <minimizedRMSD>
0.994397104

$$$$
