
 OpenBabel03272505393D

 27 29  0  0  0  0  0  0  0  0999 V2000
   36.5370   30.6130   46.6000 C   0  0  0  0  0  0  0  0  0  0  0  0
   35.2830   30.0160   46.5180 C   0  0  0  0  0  0  0  0  0  0  0  0
   34.7100   29.7790   45.2900 C   0  0  0  0  0  0  0  0  0  0  0  0
   35.3490   30.1220   44.0970 C   0  0  0  0  0  0  0  0  0  0  0  0
   36.5840   30.7100   44.1860 C   0  0  0  0  0  0  0  0  0  0  0  0
   37.1610   30.9470   45.4260 C   0  0  0  0  0  0  0  0  0  0  0  0
   34.8070   29.7580   47.4640 H   0  0  0  0  0  0  0  0  0  0  0  0
   33.7390   29.3120   45.3620 H   0  0  0  0  0  0  0  0  0  0  0  0
   34.7890   29.8830   43.2040 H   0  0  0  0  0  0  0  0  0  0  0  0
   36.9730   30.9340   43.2100 H   0  0  0  0  0  0  0  0  0  0  0  0
   37.4490   30.3120   50.1340 C   0  0  0  0  0  0  0  0  0  0  0  0
   38.2360   31.4400   50.3600 C   0  0  0  0  0  0  0  0  0  0  0  0
   38.4500   32.3080   49.2710 C   0  0  0  0  0  0  0  0  0  0  0  0
   37.8700   31.9700   48.0880 N   0  0  0  0  0  0  0  0  0  0  0  0
   37.1200   30.8800   47.9050 C   0  0  0  0  0  0  0  0  0  0  0  0
   36.9140   30.0520   48.9400 N   0  0  0  0  0  0  0  0  0  0  0  0
   38.6950   31.7090   51.2900 H   0  0  0  0  0  0  0  0  0  0  0  0
   39.0510   33.1970   49.3850 H   0  0  0  0  0  0  0  0  0  0  0  0
   37.2120   29.3990   51.3100 C   0  0  0  0  0  0  0  0  0  0  0  0
   35.8340   29.1620   51.4380 F   0  0  0  0  0  0  0  0  0  0  0  0
   37.9090   28.2630   51.1110 F   0  0  0  0  0  0  0  0  0  0  0  0
   37.5940   30.0650   52.4540 F   0  0  0  0  0  0  0  0  0  0  0  0
   38.5240   31.5880   45.3800 C   0  0  0  0  0  0  0  0  0  0  0  0
   38.6340   32.6160   44.3240 C   0  0  0  0  0  0  0  0  0  0  0  0
   39.9690   32.3850   43.6640 C   0  0  0  0  0  0  0  0  0  0  0  0
   40.1720   30.8910   43.7650 C   0  0  0  0  0  0  0  0  0  0  0  0
   39.5780   30.5600   45.0950 C   0  0  0  0  0  0  0  0  0  0  0  0
  1 15  1  0  0  0  0
  2  1  1  0  0  0  0
  2  7  1  0  0  0  0
  3  8  1  0  0  0  0
  3  2  2  0  0  0  0
  4  5  2  0  0  0  0
  4  3  1  0  0  0  0
  5  6  1  0  0  0  0
  6  1  2  0  0  0  0
  9  4  1  0  0  0  0
 10  5  1  0  0  0  0
 11 12  1  0  0  0  0
 11 19  1  0  0  0  0
 12 17  1  0  0  0  0
 13 18  1  0  0  0  0
 13 12  2  0  0  0  0
 14 13  1  0  0  0  0
 15 14  2  0  0  0  0
 15 16  1  0  0  0  0
 16 11  2  0  0  0  0
 19 20  1  0  0  0  0
 19 22  1  0  0  0  0
 21 19  1  0  0  0  0
 23  6  1  0  0  0  0
 24 23  1  0  0  0  0
 25 26  1  0  0  0  0
 25 24  1  0  0  0  0
 26 27  1  0  0  0  0
 27 23  1  0  0  0  0
M  END
>  <minimizedAffinity>
-6.50789785

>  <minimizedRMSD>
0.320797682

$$$$
