
 OpenBabel03272510273D

 41 45  0  0  1  0  0  0  0  0999 V2000
   36.1540   30.2000   46.9820 C   0  0  0  0  0  0  0  0  0  0  0  0
   37.0230   30.7290   47.9340 C   0  0  0  0  0  0  0  0  0  0  0  0
   38.0350   31.6230   47.5720 C   0  0  0  0  0  0  0  0  0  0  0  0
   38.1180   31.9470   46.2220 C   0  0  0  0  0  0  0  0  0  0  0  0
   39.0110   32.7930   45.6270 N   0  0  0  0  0  0  0  0  0  0  0  0
   38.7120   32.7990   44.3210 C   0  0  0  0  0  0  0  0  0  0  0  0
   37.6820   31.9990   44.0940 N   0  0  0  0  0  0  0  0  0  0  0  0
   37.2810   31.4490   45.2530 C   0  0  0  0  0  0  0  0  0  0  0  0
   36.2800   30.5560   45.6510 C   0  0  0  0  0  0  0  0  0  0  0  0
   35.3700   29.5070   47.2610 H   0  0  0  0  0  0  0  0  0  0  0  0
   38.7180   32.0410   48.3070 H   0  0  0  0  0  0  0  0  0  0  0  0
   39.7840   33.3330   46.1030 H   0  0  0  0  0  0  0  0  0  0  0  0
   35.6210   30.1630   44.8860 H   0  0  0  0  0  0  0  0  0  0  0  0
   37.4170   30.1000   51.6090 C   0  0  0  0  0  0  0  0  0  0  0  0
   37.7470   30.5540   50.3450 C   0  0  0  0  0  0  0  0  0  0  0  0
   36.8560   30.3300   49.3200 C   0  0  0  0  0  0  0  0  0  0  0  0
   35.6870   29.6630   49.6280 N   0  0  0  0  0  0  0  0  0  0  0  0
   35.3870   29.2300   50.8680 C   0  0  0  0  0  0  0  0  0  0  0  0
   36.2440   29.4470   51.8410 N   0  0  0  0  0  0  0  0  0  0  0  0
   38.1760   30.3180   52.3570 H   0  0  0  0  0  0  0  0  0  0  0  0
   38.6570   31.0760   50.0910 H   0  0  0  0  0  0  0  0  0  0  0  0
   34.4520   28.7140   51.0390 H   0  0  0  0  0  0  0  0  0  0  0  0
   39.4240   33.5610   43.3930 O   0  0  0  0  0  0  0  0  0  0  0  0
   39.8360   31.6000   42.2520 N   0  0  0  0  0  0  0  0  0  0  0  0
   39.5180   33.0100   42.0880 C   0  0  1  0  0  0  0  0  0  0  0  0
   38.2670   33.1690   41.3640 C   0  0  0  0  0  0  0  0  0  0  0  0
   38.4210   32.6300   40.0750 O   0  0  0  0  0  0  0  0  0  0  0  0
   38.8460   31.3330   40.0290 C   0  0  0  0  0  0  0  0  0  0  0  0
   40.0700   31.1380   40.9060 C   0  0  2  0  0  0  0  0  0  0  0  0
   39.1180   30.9950   42.6200 H   0  0  0  0  0  0  0  0  0  0  0  0
   40.3560   33.4590   41.5290 H   0  0  0  0  0  0  0  0  0  0  0  0
   38.1380   34.2770   41.1580 H   0  0  0  0  0  0  0  0  0  0  0  0
   37.3240   32.8130   41.6760 H   0  0  0  0  0  0  0  0  0  0  0  0
   38.0040   30.6950   40.3380 H   0  0  0  0  0  0  0  0  0  0  0  0
   39.1730   31.1250   39.0020 H   0  0  0  0  0  0  0  0  0  0  0  0
   40.8260   31.8420   40.4850 H   0  0  0  0  0  0  0  0  0  0  0  0
   40.6550   29.7810   40.8140 C   0  0  0  0  0  3  0  0  0  0  0  0
   40.5840   29.2320   39.4150 C   0  0  0  0  0  2  0  0  0  0  0  0
   41.1360   27.8220   39.6680 C   0  0  0  0  0  2  0  0  0  0  0  0
   40.3250   27.4190   40.8800 C   0  0  0  0  0  2  0  0  0  0  0  0
   39.9430   28.7220   41.5940 C   0  0  0  0  0  2  0  0  0  0  0  0
  1 10  1  0  0  0  0
  1  2  1  0  0  0  0
  2 16  1  0  0  0  0
  3  2  2  0  0  0  0
  3 11  1  0  0  0  0
  4  3  1  0  0  0  0
  5 12  1  0  0  0  0
  5  4  1  0  0  0  0
  6  5  1  0  0  0  0
  7  6  2  0  0  0  0
  7  8  1  0  0  0  0
  8  9  1  0  0  0  0
  8  4  2  0  0  0  0
  9  1  2  0  0  0  0
 13  9  1  0  0  0  0
 14 19  1  0  0  0  0
 14 20  1  0  0  0  0
 15 14  2  0  0  0  0
 16 17  2  0  0  0  0
 16 15  1  0  0  0  0
 17 18  1  0  0  0  0
 18 22  1  0  0  0  0
 18 19  2  0  0  0  0
 21 15  1  0  0  0  0
 23  6  1  0  0  0  0
 24 30  1  0  0  0  0
 25 31  1  6  0  0  0
 25 24  1  0  0  0  0
 25 23  1  0  0  0  0
 26 33  1  0  0  0  0
 26 25  1  0  0  0  0
 27 26  1  0  0  0  0
 28 27  1  0  0  0  0
 28 34  1  0  0  0  0
 28 29  1  0  0  0  0
 29 36  1  6  0  0  0
 29 24  1  0  0  0  0
 32 26  1  0  0  0  0
 35 28  1  0  0  0  0
 37 29  1  0  0  0  0
 37 41  1  0  0  0  0
 38 39  1  0  0  0  0
 38 37  1  0  0  0  0
 39 40  1  0  0  0  0
 40 41  1  0  0  0  0
M  END
>  <minimizedAffinity>
-5.91174412

>  <minimizedRMSD>
0.781106949

$$$$
