
 OpenBabel03262520533D

 21 23  0  0  1  0  0  0  0  0999 V2000
   38.1370   30.6710   47.6050 C   0  0  2  0  0  0  0  0  0  0  0  0
   36.6850   30.5820   47.3220 C   0  0  0  0  0  0  0  0  0  0  0  0
   37.2140   31.4960   48.3990 C   0  0  1  0  0  0  0  0  0  0  0  0
   38.5680   29.7650   48.0770 H   0  0  0  0  0  0  0  0  0  0  0  0
   36.3760   31.0240   46.3400 H   0  0  0  0  0  0  0  0  0  0  0  0
   36.0970   29.7100   47.5880 H   0  0  0  0  0  0  0  0  0  0  0  0
   37.1410   32.5890   48.1150 H   0  0  0  0  0  0  0  0  0  0  0  0
   40.1670   33.2910   45.8750 C   0  0  0  0  0  0  0  0  0  0  0  0
   40.7300   32.5440   44.8380 C   0  0  0  0  0  0  0  0  0  0  0  0
   40.4200   31.1590   44.7190 C   0  0  0  0  0  0  0  0  0  0  0  0
   39.5850   30.6250   45.6280 N   0  0  0  0  0  0  0  0  0  0  0  0
   39.0430   31.3730   46.6360 C   0  0  0  0  0  0  0  0  0  0  0  0
   39.3330   32.6980   46.7580 N   0  0  0  0  0  0  0  0  0  0  0  0
   40.4070   34.3400   45.9570 H   0  0  0  0  0  0  0  0  0  0  0  0
   41.4010   32.9730   44.1080 H   0  0  0  0  0  0  0  0  0  0  0  0
   40.8500   30.5670   43.9180 H   0  0  0  0  0  0  0  0  0  0  0  0
   36.9590   31.2800   49.8400 C   0  0  0  0  0  0  0  0  0  0  0  0
   35.7310   30.4060   50.0370 C   0  0  0  0  0  0  0  0  0  0  0  0
   36.2030   29.2870   50.9330 C   0  0  0  0  0  0  0  0  0  0  0  0
   37.2730   29.9890   51.7650 C   0  0  0  0  0  0  0  0  0  0  0  0
   38.0500   30.7000   50.6510 C   0  0  0  0  0  0  0  0  0  0  0  0
  1  4  1  1  0  0  0
  1  3  1  0  0  0  0
  2  6  1  0  0  0  0
  2  1  1  0  0  0  0
  2  3  1  0  0  0  0
  3  7  1  6  0  0  0
  3 17  1  0  0  0  0
  5  2  1  0  0  0  0
  8 14  1  0  0  0  0
  8 13  1  0  0  0  0
  9  8  2  0  0  0  0
 10  9  1  0  0  0  0
 10 11  2  0  0  0  0
 11 12  1  0  0  0  0
 12 13  2  0  0  0  0
 12  1  1  0  0  0  0
 15  9  1  0  0  0  0
 16 10  1  0  0  0  0
 17 18  1  0  0  0  0
 17 21  1  0  0  0  0
 18 19  1  0  0  0  0
 19 20  1  0  0  0  0
 21 20  1  0  0  0  0
M  END
>  <minimizedAffinity>
-5.94027519

>  <minimizedRMSD>
3.51407743

$$$$
