
 OpenBabel03272509383D

 26 28  0  0  1  0  0  0  0  0999 V2000
   34.6420   29.1620   46.8040 C   0  0  0  0  0  0  0  0  0  0  0  0
   33.8790   27.9820   46.8040 C   0  0  0  0  0  0  0  0  0  0  0  0
   33.7250   27.2160   47.9800 C   0  0  0  0  0  0  0  0  0  0  0  0
   34.3510   27.6560   49.1690 C   0  0  0  0  0  0  0  0  0  0  0  0
   35.1010   28.8350   49.1230 C   0  0  0  0  0  0  0  0  0  0  0  0
   35.2280   29.5500   47.9650 C   0  0  0  0  0  0  0  0  0  0  0  0
   33.4060   27.6600   45.8880 H   0  0  0  0  0  0  0  0  0  0  0  0
   33.1220   26.3230   47.8910 H   0  0  0  0  0  0  0  0  0  0  0  0
   34.1880   27.0190   50.0270 H   0  0  0  0  0  0  0  0  0  0  0  0
   35.5040   29.0230   50.1060 H   0  0  0  0  0  0  0  0  0  0  0  0
   36.0380   30.7360   48.1890 C   0  0  0  0  0  3  0  0  0  0  0  0
   35.7880   31.1520   49.6280 C   0  0  0  0  0  2  0  0  0  0  0  0
   37.0890   31.9100   49.9000 C   0  0  0  0  0  2  0  0  0  0  0  0
   38.0860   30.8710   49.4440 C   0  0  0  0  0  2  0  0  0  0  0  0
   37.5380   30.3640   48.1590 C   0  0  0  0  0  2  0  0  0  0  0  0
   34.7550   29.8890   45.5670 C   0  0  2  0  0  3  0  0  0  0  0  0
   35.9330   29.8420   45.0440 O   0  0  0  0  0  1  0  0  0  0  0  0
   31.5620   31.5610   45.1870 C   0  0  0  0  0  0  0  0  0  0  0  0
   31.5930   32.0620   43.8950 C   0  0  0  0  0  0  0  0  0  0  0  0
   32.7140   31.8210   43.1320 C   0  0  0  0  0  0  0  0  0  0  0  0
   33.7760   31.1020   43.6330 N   0  0  0  0  0  0  0  0  0  0  0  0
   33.7030   30.6370   44.8900 C   0  0  0  0  0  0  0  0  0  0  0  0
   32.6160   30.8790   45.6070 N   0  0  0  0  0  0  0  0  0  0  0  0
   30.7080   31.7270   45.8140 H   0  0  0  0  0  0  0  0  0  0  0  0
   30.7490   32.6200   43.5340 H   0  0  0  0  0  0  0  0  0  0  0  0
   32.7690   32.2000   42.1180 H   0  0  0  0  0  0  0  0  0  0  0  0
  1  6  1  0  0  0  0
  2  1  2  0  0  0  0
  2  3  1  0  0  0  0
  3  4  2  0  0  0  0
  4  9  1  0  0  0  0
  5  4  1  0  0  0  0
  5 10  1  0  0  0  0
  6 11  1  0  0  0  0
  6  5  2  0  0  0  0
  7  2  1  0  0  0  0
  8  3  1  0  0  0  0
 11 12  1  0  0  0  0
 12 13  1  0  0  0  0
 14 13  1  0  0  0  0
 15 11  1  0  0  0  0
 15 14  1  0  0  0  0
 16 17  1  1  0  0  0
 16  1  1  0  0  0  0
 18 23  1  0  0  0  0
 18 24  1  0  0  0  0
 19 18  2  0  0  0  0
 20 21  2  0  0  0  0
 20 19  1  0  0  0  0
 21 22  1  0  0  0  0
 22 16  1  0  0  0  0
 22 23  2  0  0  0  0
 25 19  1  0  0  0  0
 26 20  1  0  0  0  0
M  END
>  <minimizedAffinity>
-5.12465239

>  <minimizedRMSD>
3.93529725

$$$$
