
 OpenBabel03272506353D

 15 16  0  0  0  0  0  0  0  0999 V2000
   38.9100   23.2270   37.8740 C   0  0  0  0  0  0  0  0  0  0  0  0
   40.0760   22.7550   37.2530 C   0  0  0  0  0  0  0  0  0  0  0  0
   40.4420   23.3210   36.0320 C   0  0  0  0  0  0  0  0  0  0  0  0
   39.6490   24.3030   35.5130 N   0  0  0  0  0  0  0  0  0  0  0  0
   38.5310   24.7360   36.1400 C   0  0  0  0  0  0  0  0  0  0  0  0
   38.1680   24.1940   37.3180 N   0  0  0  0  0  0  0  0  0  0  0  0
   40.7180   21.9830   37.6400 H   0  0  0  0  0  0  0  0  0  0  0  0
   41.3310   22.9740   35.5390 H   0  0  0  0  0  0  0  0  0  0  0  0
   37.6670   25.8020   35.5770 C   0  0  0  0  0  3  0  0  0  0  0  0
   37.6550   25.8070   34.0640 C   0  0  0  0  0  2  0  0  0  0  0  0
   37.0380   27.1530   33.7650 C   0  0  0  0  0  2  0  0  0  0  0  0
   37.3360   28.0340   34.9750 C   0  0  0  0  0  2  0  0  0  0  0  0
   38.2410   27.1870   35.8620 C   0  0  0  0  0  2  0  0  0  0  0  0
   38.6530   22.5820   39.0860 O   0  0  0  0  0  0  0  0  0  0  0  0
   38.9090   23.0080   39.9650 H   0  0  0  0  0  0  0  0  0  0  0  0
  1 14  1  0  0  0  0
  2  7  1  0  0  0  0
  2  1  2  0  0  0  0
  3  2  1  0  0  0  0
  4  3  2  0  0  0  0
  4  5  1  0  0  0  0
  5  6  2  0  0  0  0
  6  1  1  0  0  0  0
  8  3  1  0  0  0  0
  9 13  1  0  0  0  0
  9  5  1  0  0  0  0
 10  9  1  0  0  0  0
 11 10  1  0  0  0  0
 11 12  1  0  0  0  0
 12 13  1  0  0  0  0
 14 15  1  0  0  0  0
M  END
>  <minimizedAffinity>
-4.56525993

$$$$

 OpenBabel03272506353D

 15 16  0  0  0  0  0  0  0  0999 V2000
   39.6930   22.8610   37.5460 C   0  0  0  0  0  0  0  0  0  0  0  0
   38.7620   23.2220   38.5310 C   0  0  0  0  0  0  0  0  0  0  0  0
   37.9260   24.3080   38.2740 C   0  0  0  0  0  0  0  0  0  0  0  0
   38.0580   24.9550   37.0790 N   0  0  0  0  0  0  0  0  0  0  0  0
   38.9660   24.5790   36.1500 C   0  0  0  0  0  0  0  0  0  0  0  0
   39.7790   23.5330   36.3900 N   0  0  0  0  0  0  0  0  0  0  0  0
   38.6370   22.7300   39.4800 H   0  0  0  0  0  0  0  0  0  0  0  0
   37.2050   24.6030   39.0150 H   0  0  0  0  0  0  0  0  0  0  0  0
   39.1130   25.2810   34.8520 C   0  0  0  0  0  3  0  0  0  0  0  0
   40.2680   26.2590   34.8430 C   0  0  0  0  0  2  0  0  0  0  0  0
   39.9750   27.0710   33.6040 C   0  0  0  0  0  2  0  0  0  0  0  0
   38.4680   26.9780   33.3830 C   0  0  0  0  0  2  0  0  0  0  0  0
   37.9400   26.2240   34.5970 C   0  0  0  0  0  2  0  0  0  0  0  0
   40.4680   21.7620   37.9230 O   0  0  0  0  0  0  0  0  0  0  0  0
   40.2440   20.8330   37.5970 H   0  0  0  0  0  0  0  0  0  0  0  0
  1 14  1  0  0  0  0
  1  2  1  0  0  0  0
  2  7  1  0  0  0  0
  3  2  2  0  0  0  0
  3  8  1  0  0  0  0
  4  3  1  0  0  0  0
  5  6  1  0  0  0  0
  5  4  2  0  0  0  0
  6  1  2  0  0  0  0
  9  5  1  0  0  0  0
 10  9  1  0  0  0  0
 11 10  1  0  0  0  0
 12 11  1  0  0  0  0
 12 13  1  0  0  0  0
 13  9  1  0  0  0  0
 15 14  1  0  0  0  0
M  END
>  <minimizedAffinity>
-4.48377752

$$$$

 OpenBabel03272506353D

 15 16  0  0  0  0  0  0  0  0999 V2000
   39.6630   22.8160   37.5900 C   0  0  0  0  0  0  0  0  0  0  0  0
   38.9030   23.2700   38.6780 C   0  0  0  0  0  0  0  0  0  0  0  0
   38.0170   24.3250   38.4630 C   0  0  0  0  0  0  0  0  0  0  0  0
   37.9370   24.8540   37.2070 N   0  0  0  0  0  0  0  0  0  0  0  0
   38.6840   24.3910   36.1790 C   0  0  0  0  0  0  0  0  0  0  0  0
   39.5440   23.3740   36.3780 N   0  0  0  0  0  0  0  0  0  0  0  0
   38.9460   22.8710   39.6760 H   0  0  0  0  0  0  0  0  0  0  0  0
   37.4240   24.6890   39.2830 H   0  0  0  0  0  0  0  0  0  0  0  0
   38.6010   24.9650   34.8140 C   0  0  0  0  0  3  0  0  0  0  0  0
   37.5570   26.0550   34.7010 C   0  0  0  0  0  2  0  0  0  0  0  0
   37.4180   26.1950   33.2040 C   0  0  0  0  0  2  0  0  0  0  0  0
   37.8300   24.8500   32.6120 C   0  0  0  0  0  2  0  0  0  0  0  0
   38.0560   23.9450   33.8180 C   0  0  0  0  0  2  0  0  0  0  0  0
   40.5090   21.7600   37.9340 O   0  0  0  0  0  0  0  0  0  0  0  0
   40.2500   20.8030   37.7400 H   0  0  0  0  0  0  0  0  0  0  0  0
  1 14  1  0  0  0  0
  1  2  1  0  0  0  0
  2  7  1  0  0  0  0
  3  2  2  0  0  0  0
  3  8  1  0  0  0  0
  4  3  1  0  0  0  0
  5  6  1  0  0  0  0
  5  4  2  0  0  0  0
  6  1  2  0  0  0  0
  9  5  1  0  0  0  0
 10  9  1  0  0  0  0
 11 10  1  0  0  0  0
 12 11  1  0  0  0  0
 12 13  1  0  0  0  0
 13  9  1  0  0  0  0
 15 14  1  0  0  0  0
M  END
>  <minimizedAffinity>
-4.25346184

$$$$

 OpenBabel03272506353D

 15 16  0  0  0  0  0  0  0  0999 V2000
   35.6060   25.2190   31.0780 C   0  0  0  0  0  0  0  0  0  0  0  0
   35.8060   23.8300   31.1200 C   0  0  0  0  0  0  0  0  0  0  0  0
   36.7380   23.3310   32.0280 C   0  0  0  0  0  0  0  0  0  0  0  0
   37.4010   24.2180   32.8260 N   0  0  0  0  0  0  0  0  0  0  0  0
   37.1830   25.5510   32.7610 C   0  0  0  0  0  0  0  0  0  0  0  0
   36.2850   26.0430   31.8860 N   0  0  0  0  0  0  0  0  0  0  0  0
   35.2980   23.1100   30.5030 H   0  0  0  0  0  0  0  0  0  0  0  0
   36.9080   22.2700   32.0770 H   0  0  0  0  0  0  0  0  0  0  0  0
   37.9020   26.5180   33.6250 C   0  0  0  0  0  3  0  0  0  0  0  0
   39.2620   26.0150   34.0600 C   0  0  0  0  0  2  0  0  0  0  0  0
   39.6020   26.9700   35.1790 C   0  0  0  0  0  2  0  0  0  0  0  0
   38.2680   27.4760   35.7240 C   0  0  0  0  0  2  0  0  0  0  0  0
   37.2110   26.6720   34.9770 C   0  0  0  0  0  2  0  0  0  0  0  0
   34.6500   25.5910   30.1310 O   0  0  0  0  0  0  0  0  0  0  0  0
   33.6970   25.7850   30.4030 H   0  0  0  0  0  0  0  0  0  0  0  0
  1  2  2  0  0  0  0
  1  6  1  0  0  0  0
  2  3  1  0  0  0  0
  3  8  1  0  0  0  0
  3  4  2  0  0  0  0
  5  4  1  0  0  0  0
  5  9  1  0  0  0  0
  6  5  2  0  0  0  0
  7  2  1  0  0  0  0
  9 10  1  0  0  0  0
  9 13  1  0  0  0  0
 10 11  1  0  0  0  0
 11 12  1  0  0  0  0
 13 12  1  0  0  0  0
 14 15  1  0  0  0  0
 14  1  1  0  0  0  0
M  END
>  <minimizedAffinity>
-4.16868782

$$$$

 OpenBabel03272506353D

 15 16  0  0  0  0  0  0  0  0999 V2000
   36.0090   24.0810   31.5410 C   0  0  0  0  0  0  0  0  0  0  0  0
   35.3220   25.0980   30.8600 C   0  0  0  0  0  0  0  0  0  0  0  0
   35.5550   26.4170   31.2480 C   0  0  0  0  0  0  0  0  0  0  0  0
   36.4370   26.6450   32.2650 N   0  0  0  0  0  0  0  0  0  0  0  0
   37.0830   25.6400   32.8990 C   0  0  0  0  0  0  0  0  0  0  0  0
   36.8640   24.3630   32.5330 N   0  0  0  0  0  0  0  0  0  0  0  0
   34.6230   24.9460   30.0570 H   0  0  0  0  0  0  0  0  0  0  0  0
   35.0390   27.2120   30.7410 H   0  0  0  0  0  0  0  0  0  0  0  0
   38.0410   25.8840   34.0040 C   0  0  0  0  0  3  0  0  0  0  0  0
   37.4760   26.7860   35.0800 C   0  0  0  0  0  2  0  0  0  0  0  0
   38.7180   27.1620   35.8520 C   0  0  0  0  0  2  0  0  0  0  0  0
   39.8820   27.0290   34.8730 C   0  0  0  0  0  2  0  0  0  0  0  0
   39.2310   26.7160   33.5320 C   0  0  0  0  0  2  0  0  0  0  0  0
   35.6900   22.8090   31.0600 O   0  0  0  0  0  0  0  0  0  0  0  0
   36.2950   22.3360   30.4040 H   0  0  0  0  0  0  0  0  0  0  0  0
  1  6  1  0  0  0  0
  2  3  1  0  0  0  0
  2  1  2  0  0  0  0
  3  4  2  0  0  0  0
  4  5  1  0  0  0  0
  5  9  1  0  0  0  0
  6  5  2  0  0  0  0
  7  2  1  0  0  0  0
  8  3  1  0  0  0  0
  9 10  1  0  0  0  0
 10 11  1  0  0  0  0
 12 11  1  0  0  0  0
 13  9  1  0  0  0  0
 13 12  1  0  0  0  0
 14  1  1  0  0  0  0
 15 14  1  0  0  0  0
M  END
>  <minimizedAffinity>
-4.06579304

$$$$

 OpenBabel03272506353D

 15 16  0  0  0  0  0  0  0  0999 V2000
   36.6800   28.3150   30.5890 C   0  0  0  0  0  0  0  0  0  0  0  0
   35.8580   29.4210   30.8550 C   0  0  0  0  0  0  0  0  0  0  0  0
   35.6410   29.7680   32.1880 C   0  0  0  0  0  0  0  0  0  0  0  0
   36.2400   29.0170   33.1570 N   0  0  0  0  0  0  0  0  0  0  0  0
   37.0280   27.9570   32.8650 C   0  0  0  0  0  0  0  0  0  0  0  0
   37.2430   27.6120   31.5810 N   0  0  0  0  0  0  0  0  0  0  0  0
   35.3750   30.0300   30.1120 H   0  0  0  0  0  0  0  0  0  0  0  0
   35.0140   30.6120   32.4150 H   0  0  0  0  0  0  0  0  0  0  0  0
   37.6790   27.1370   33.9150 C   0  0  0  0  0  3  0  0  0  0  0  0
   37.5810   27.7620   35.2900 C   0  0  0  0  0  2  0  0  0  0  0  0
   38.5980   26.9610   36.0670 C   0  0  0  0  0  2  0  0  0  0  0  0
   39.6050   26.4460   35.0420 C   0  0  0  0  0  2  0  0  0  0  0  0
   39.1930   27.0990   33.7280 C   0  0  0  0  0  2  0  0  0  0  0  0
   36.8190   28.0720   29.2210 O   0  0  0  0  0  0  0  0  0  0  0  0
   37.6330   28.3920   28.7170 H   0  0  0  0  0  0  0  0  0  0  0  0
  1  2  2  0  0  0  0
  1  6  1  0  0  0  0
  2  3  1  0  0  0  0
  3  8  1  0  0  0  0
  3  4  2  0  0  0  0
  5  4  1  0  0  0  0
  5  9  1  0  0  0  0
  6  5  2  0  0  0  0
  7  2  1  0  0  0  0
  9 10  1  0  0  0  0
 10 11  1  0  0  0  0
 12 11  1  0  0  0  0
 13  9  1  0  0  0  0
 13 12  1  0  0  0  0
 14  1  1  0  0  0  0
 15 14  1  0  0  0  0
M  END
>  <minimizedAffinity>
-4.05353022

$$$$

 OpenBabel03272506353D

 15 16  0  0  0  0  0  0  0  0999 V2000
   40.9090   22.5190   36.9780 C   0  0  0  0  0  0  0  0  0  0  0  0
   42.2540   22.5200   36.5770 C   0  0  0  0  0  0  0  0  0  0  0  0
   42.6470   23.4450   35.6110 C   0  0  0  0  0  0  0  0  0  0  0  0
   41.7040   24.2970   35.1110 N   0  0  0  0  0  0  0  0  0  0  0  0
   40.4160   24.2680   35.5200 C   0  0  0  0  0  0  0  0  0  0  0  0
   40.0260   23.3780   36.4520 N   0  0  0  0  0  0  0  0  0  0  0  0
   43.0160   21.8610   36.9550 H   0  0  0  0  0  0  0  0  0  0  0  0
   43.6720   23.4640   35.2890 H   0  0  0  0  0  0  0  0  0  0  0  0
   39.3890   25.1910   34.9790 C   0  0  0  0  0  3  0  0  0  0  0  0
   39.7630   26.6480   35.1500 C   0  0  0  0  0  2  0  0  0  0  0  0
   38.4490   27.3380   34.8760 C   0  0  0  0  0  2  0  0  0  0  0  0
   37.3580   26.3220   35.2080 C   0  0  0  0  0  2  0  0  0  0  0  0
   38.1020   25.1300   35.7970 C   0  0  0  0  0  2  0  0  0  0  0  0
   40.6430   21.5500   37.9470 O   0  0  0  0  0  0  0  0  0  0  0  0
   40.6000   21.7930   38.9260 H   0  0  0  0  0  0  0  0  0  0  0  0
  1 14  1  0  0  0  0
  2  7  1  0  0  0  0
  2  1  1  0  0  0  0
  3  2  2  0  0  0  0
  4  5  2  0  0  0  0
  4  3  1  0  0  0  0
  5  6  1  0  0  0  0
  6  1  2  0  0  0  0
  8  3  1  0  0  0  0
  9 10  1  0  0  0  0
  9  5  1  0  0  0  0
  9 13  1  0  0  0  0
 11 10  1  0  0  0  0
 11 12  1  0  0  0  0
 12 13  1  0  0  0  0
 14 15  1  0  0  0  0
M  END
>  <minimizedAffinity>
-4.04798031

$$$$

 OpenBabel03272506353D

 15 16  0  0  0  0  0  0  0  0999 V2000
   35.9100   25.0270   31.0380 C   0  0  0  0  0  0  0  0  0  0  0  0
   37.0000   25.4450   31.8160 C   0  0  0  0  0  0  0  0  0  0  0  0
   37.6050   24.5070   32.6520 C   0  0  0  0  0  0  0  0  0  0  0  0
   37.1060   23.2360   32.6650 N   0  0  0  0  0  0  0  0  0  0  0  0
   36.0530   22.8670   31.9010 C   0  0  0  0  0  0  0  0  0  0  0  0
   35.4610   23.7660   31.0910 N   0  0  0  0  0  0  0  0  0  0  0  0
   37.4140   26.4380   31.8250 H   0  0  0  0  0  0  0  0  0  0  0  0
   38.4420   24.8050   33.2570 H   0  0  0  0  0  0  0  0  0  0  0  0
   35.5070   21.4880   31.9130 C   0  0  0  0  0  3  0  0  0  0  0  0
   35.6650   20.8080   33.2560 C   0  0  0  0  0  2  0  0  0  0  0  0
   35.3900   19.3650   32.9070 C   0  0  0  0  0  2  0  0  0  0  0  0
   35.7340   19.2150   31.4270 C   0  0  0  0  0  2  0  0  0  0  0  0
   36.3300   20.5590   31.0250 C   0  0  0  0  0  2  0  0  0  0  0  0
   35.3950   26.0550   30.2470 O   0  0  0  0  0  0  0  0  0  0  0  0
   35.6470   26.1360   29.2730 H   0  0  0  0  0  0  0  0  0  0  0  0
  1  6  2  0  0  0  0
  1  2  1  0  0  0  0
  2  7  1  0  0  0  0
  2  3  2  0  0  0  0
  3  4  1  0  0  0  0
  3  8  1  0  0  0  0
  5  9  1  0  0  0  0
  5  4  2  0  0  0  0
  6  5  1  0  0  0  0
  9 10  1  0  0  0  0
 11 10  1  0  0  0  0
 12 11  1  0  0  0  0
 13 12  1  0  0  0  0
 13  9  1  0  0  0  0
 14  1  1  0  0  0  0
 15 14  1  0  0  0  0
M  END
>  <minimizedAffinity>
-4.04105902

$$$$

 OpenBabel03272506353D

 15 16  0  0  0  0  0  0  0  0999 V2000
   38.8220   23.0570   37.9490 C   0  0  0  0  0  0  0  0  0  0  0  0
   38.0120   23.9390   37.2170 C   0  0  0  0  0  0  0  0  0  0  0  0
   38.4970   24.4130   35.9980 C   0  0  0  0  0  0  0  0  0  0  0  0
   39.7280   23.9920   35.5850 N   0  0  0  0  0  0  0  0  0  0  0  0
   40.4820   23.1400   36.3160 C   0  0  0  0  0  0  0  0  0  0  0  0
   40.0240   22.6780   37.4940 N   0  0  0  0  0  0  0  0  0  0  0  0
   37.0400   24.2860   37.5190 H   0  0  0  0  0  0  0  0  0  0  0  0
   37.8930   25.0900   35.4210 H   0  0  0  0  0  0  0  0  0  0  0  0
   41.8200   22.6820   35.8700 C   0  0  0  0  0  3  0  0  0  0  0  0
   42.1850   21.3190   36.4190 C   0  0  0  0  0  2  0  0  0  0  0  0
   43.6670   21.2600   36.1400 C   0  0  0  0  0  2  0  0  0  0  0  0
   44.1460   22.7090   36.0850 C   0  0  0  0  0  2  0  0  0  0  0  0
   42.9290   23.5380   36.4770 C   0  0  0  0  0  2  0  0  0  0  0  0
   38.2270   22.6560   39.1460 O   0  0  0  0  0  0  0  0  0  0  0  0
   37.7500   21.7690   39.2170 H   0  0  0  0  0  0  0  0  0  0  0  0
  1 14  1  0  0  0  0
  2  7  1  0  0  0  0
  2  1  2  0  0  0  0
  3  2  1  0  0  0  0
  4  3  2  0  0  0  0
  4  5  1  0  0  0  0
  5  6  2  0  0  0  0
  6  1  1  0  0  0  0
  8  3  1  0  0  0  0
  9  5  1  0  0  0  0
  9 10  1  0  0  0  0
  9 13  1  0  0  0  0
 11 10  1  0  0  0  0
 12 11  1  0  0  0  0
 12 13  1  0  0  0  0
 14 15  1  0  0  0  0
M  END
>  <minimizedAffinity>
-3.99419975

$$$$
