
 OpenBabel03272508163D

 27 29  0  0  0  0  0  0  0  0999 V2000
   35.5290   30.0270   45.0320 Cl  0  0  0  0  0  0  0  0  0  0  0  0
   37.0160   29.8210   44.1820 C   0  0  0  0  0  0  0  0  0  0  0  0
   36.9110   28.9520   43.1330 C   0  0  0  0  0  0  0  0  0  0  0  0
   38.0710   28.7000   42.3560 C   0  0  0  0  0  0  0  0  0  0  0  0
   39.2610   29.3050   42.6430 C   0  0  0  0  0  0  0  0  0  0  0  0
   39.3330   30.1720   43.7020 C   0  0  0  0  0  0  0  0  0  0  0  0
   40.8250   30.9620   44.1020 Cl  0  0  0  0  0  0  0  0  0  0  0  0
   38.2270   30.4180   44.4500 C   0  0  0  0  0  0  0  0  0  0  0  0
   38.0900   28.0310   41.5080 H   0  0  0  0  0  0  0  0  0  0  0  0
   40.1650   29.1340   42.0690 H   0  0  0  0  0  0  0  0  0  0  0  0
   35.5720   26.8860   43.1310 C   0  0  0  0  0  0  0  0  0  0  0  0
   35.7530   28.1910   42.6400 C   0  0  0  0  0  0  0  0  0  0  0  0
   34.8320   28.6950   41.7180 C   0  0  0  0  0  0  0  0  0  0  0  0
   33.8090   27.8670   41.3550 N   0  0  0  0  0  0  0  0  0  0  0  0
   33.6670   26.6160   41.8500 C   0  0  0  0  0  0  0  0  0  0  0  0
   34.5620   26.1180   42.7510 N   0  0  0  0  0  0  0  0  0  0  0  0
   36.2880   26.4980   43.8470 H   0  0  0  0  0  0  0  0  0  0  0  0
   34.9790   29.6790   41.3550 H   0  0  0  0  0  0  0  0  0  0  0  0
   32.8370   25.9900   41.5340 H   0  0  0  0  0  0  0  0  0  0  0  0
   38.2080   31.3350   45.6070 C   0  0  0  0  0  0  0  0  0  0  0  0
   38.0950   32.5760   45.6020 O   0  0  0  0  0  0  0  0  0  0  0  0
   38.3150   30.9700   46.9640 O   0  0  0  0  0  0  0  0  0  0  0  0
   37.4120   31.2950   47.9500 C   0  0  0  0  0  3  0  0  0  0  0  0
   38.0280   31.8960   49.1910 C   0  0  0  0  0  2  0  0  0  0  0  0
   36.8720   31.7590   50.1720 C   0  0  0  0  0  2  0  0  0  0  0  0
   36.2040   30.4410   49.7850 C   0  0  0  0  0  2  0  0  0  0  0  0
   36.7860   30.0230   48.4760 C   0  0  0  0  0  2  0  0  0  0  0  0
  2  8  1  0  0  0  0
  2  1  1  0  0  0  0
  3  2  2  0  0  0  0
  4  5  2  0  0  0  0
  4  3  1  0  0  0  0
  5  6  1  0  0  0  0
  6  7  1  0  0  0  0
  6  8  2  0  0  0  0
  8 20  1  0  0  0  0
  9  4  1  0  0  0  0
 10  5  1  0  0  0  0
 11 17  1  0  0  0  0
 12 11  2  0  0  0  0
 12  3  1  0  0  0  0
 13 12  1  0  0  0  0
 14 13  2  0  0  0  0
 14 15  1  0  0  0  0
 15 16  2  0  0  0  0
 16 11  1  0  0  0  0
 18 13  1  0  0  0  0
 19 15  1  0  0  0  0
 20 22  1  0  0  0  0
 21 20  2  0  0  0  0
 22 23  1  0  0  0  0
 23 27  1  0  0  0  0
 23 24  1  0  0  0  0
 24 25  1  0  0  0  0
 26 25  1  0  0  0  0
 27 26  1  0  0  0  0
M  END
>  <minimizedAffinity>
-4.38306332

>  <minimizedRMSD>
5.4918642

$$$$
