
 OpenBabel03272510343D

 24 26  0  0  0  0  0  0  0  0999 V2000
   37.1500   30.8070   45.8920 C   0  0  0  0  0  0  0  0  0  0  0  0
   36.3550   30.5910   44.7890 C   0  0  0  0  0  0  0  0  0  0  0  0
   35.0770   30.0760   44.9620 C   0  0  0  0  0  0  0  0  0  0  0  0
   34.6310   29.7920   46.2260 C   0  0  0  0  0  0  0  0  0  0  0  0
   35.4280   30.0080   47.3420 C   0  0  0  0  0  0  0  0  0  0  0  0
   36.7220   30.5260   47.2000 C   0  0  0  0  0  0  0  0  0  0  0  0
   36.6920   30.8100   43.7840 H   0  0  0  0  0  0  0  0  0  0  0  0
   34.4390   29.9000   44.1170 H   0  0  0  0  0  0  0  0  0  0  0  0
   33.6150   29.3870   46.3160 H   0  0  0  0  0  0  0  0  0  0  0  0
   34.9970   29.7560   48.2970 H   0  0  0  0  0  0  0  0  0  0  0  0
   39.7930   33.2470   45.2540 C   0  0  0  0  0  0  0  0  0  0  0  0
   40.9590   32.4900   45.1870 C   0  0  0  0  0  0  0  0  0  0  0  0
   40.8280   31.0820   45.3680 C   0  0  0  0  0  0  0  0  0  0  0  0
   39.5940   30.5650   45.5940 N   0  0  0  0  0  0  0  0  0  0  0  0
   38.4850   31.3450   45.6500 C   0  0  0  0  0  0  0  0  0  0  0  0
   38.6220   32.6660   45.4770 N   0  0  0  0  0  0  0  0  0  0  0  0
   39.9530   34.3050   45.1090 H   0  0  0  0  0  0  0  0  0  0  0  0
   41.9790   32.8120   45.0140 H   0  0  0  0  0  0  0  0  0  0  0  0
   41.6320   30.3740   45.3440 H   0  0  0  0  0  0  0  0  0  0  0  0
   37.5620   30.7540   48.3800 C   0  0  0  0  0  3  0  0  0  0  0  0
   37.2310   31.9680   49.1800 C   0  0  0  0  0  2  0  0  0  0  0  0
   37.2150   31.5510   50.6540 C   0  0  0  0  0  2  0  0  0  0  0  0
   36.7170   30.1310   50.5590 C   0  0  0  0  0  2  0  0  0  0  0  0
   37.4410   29.6010   49.3620 C   0  0  0  0  0  2  0  0  0  0  0  0
  1  6  1  0  0  0  0
  2  3  1  0  0  0  0
  2  1  2  0  0  0  0
  3  4  2  0  0  0  0
  4  9  1  0  0  0  0
  4  5  1  0  0  0  0
  5 10  1  0  0  0  0
  6  5  2  0  0  0  0
  6 20  1  0  0  0  0
  7  2  1  0  0  0  0
  8  3  1  0  0  0  0
 11 16  1  0  0  0  0
 12 11  2  0  0  0  0
 12 13  1  0  0  0  0
 13 14  2  0  0  0  0
 14 15  1  0  0  0  0
 15  1  1  0  0  0  0
 16 15  2  0  0  0  0
 17 11  1  0  0  0  0
 18 12  1  0  0  0  0
 19 13  1  0  0  0  0
 20 21  1  0  0  0  0
 20 24  1  0  0  0  0
 21 22  1  0  0  0  0
 23 22  1  0  0  0  0
 24 23  1  0  0  0  0
M  END
>  <minimizedAffinity>
-5.67248011

>  <minimizedRMSD>
3.16919065

$$$$
