
 OpenBabel03272509343D

 37 41  0  0  1  0  0  0  0  0999 V2000
   38.0440   25.8630   35.4520 C   0  0  1  0  0  0  0  0  0  0  0  0
   38.7290   27.1540   35.6400 C   0  0  0  0  0  0  0  0  0  0  0  0
   38.4660   26.7390   34.2380 C   0  0  2  0  0  0  0  0  0  0  0  0
   36.9690   25.7970   35.4990 H   0  0  0  0  0  0  0  0  0  0  0  0
   39.8290   27.1090   35.9630 H   0  0  0  0  0  0  0  0  0  0  0  0
   38.1850   27.8150   36.2860 H   0  0  0  0  0  0  0  0  0  0  0  0
   38.9840   26.1240   33.5230 H   0  0  0  0  0  0  0  0  0  0  0  0
   37.4500   27.6270   33.6170 C   0  0  0  0  0  0  0  0  0  0  0  0
   36.5950   28.1550   34.5910 C   0  0  0  0  0  0  0  0  0  0  0  0
   35.6180   29.0690   34.2580 C   0  0  0  0  0  0  0  0  0  0  0  0
   35.4580   29.4940   32.9350 C   0  0  0  0  0  0  0  0  0  0  0  0
   36.3110   28.9600   31.9990 C   0  0  0  0  0  0  0  0  0  0  0  0
   36.2650   29.2720   30.6600 C   0  0  0  0  0  0  0  0  0  0  0  0
   37.1050   28.7400   29.7070 C   0  0  0  0  0  0  0  0  0  0  0  0
   38.0610   27.8320   30.1000 C   0  0  0  0  0  0  0  0  0  0  0  0
   38.1300   27.5010   31.4360 C   0  0  0  0  0  0  0  0  0  0  0  0
   37.2710   28.0590   32.3470 C   0  0  0  0  0  0  0  0  0  0  0  0
   36.4620   28.0660   35.6480 H   0  0  0  0  0  0  0  0  0  0  0  0
   34.8860   29.5660   34.8740 H   0  0  0  0  0  0  0  0  0  0  0  0
   34.7510   30.1930   32.5080 H   0  0  0  0  0  0  0  0  0  0  0  0
   35.5080   29.9960   30.3160 H   0  0  0  0  0  0  0  0  0  0  0  0
   37.0210   29.0240   28.6600 H   0  0  0  0  0  0  0  0  0  0  0  0
   38.7590   27.3700   29.4160 H   0  0  0  0  0  0  0  0  0  0  0  0
   38.9050   26.7710   31.7320 H   0  0  0  0  0  0  0  0  0  0  0  0
   38.9750   22.2510   35.9950 C   0  0  0  0  0  0  0  0  0  0  0  0
   38.1910   23.4330   35.8710 C   0  0  0  0  0  0  0  0  0  0  0  0
   38.8270   24.6160   35.5730 C   0  0  0  0  0  0  0  0  0  0  0  0
   40.1740   24.5570   35.4180 N   0  0  0  0  0  0  0  0  0  0  0  0
   40.9150   23.4430   35.5340 C   0  0  0  0  0  0  0  0  0  0  0  0
   40.3080   22.2690   35.8270 N   0  0  0  0  0  0  0  0  0  0  0  0
   38.4820   21.3180   36.2290 H   0  0  0  0  0  0  0  0  0  0  0  0
   37.1300   23.3500   36.0180 H   0  0  0  0  0  0  0  0  0  0  0  0
   42.3930   23.6380   35.3140 C   0  0  0  0  0  3  0  0  0  0  0  0
   43.1920   23.1650   36.4810 C   0  0  0  0  0  2  0  0  0  0  0  0
   44.1330   24.2570   36.8920 C   0  0  0  0  0  2  0  0  0  0  0  0
   44.0250   25.3500   35.8510 C   0  0  0  0  0  2  0  0  0  0  0  0
   42.7290   25.0800   35.1070 C   0  0  0  0  0  2  0  0  0  0  0  0
  1  4  1  1  0  0  0
  1 27  1  0  0  0  0
  1  2  1  0  0  0  0
  2  5  1  0  0  0  0
  2  6  1  0  0  0  0
  3  7  1  6  0  0  0
  3  1  1  0  0  0  0
  3  2  1  0  0  0  0
  8  3  1  0  0  0  0
  8  9  1  0  0  0  0
  9 18  1  0  0  0  0
 10  9  2  0  0  0  0
 10 19  1  0  0  0  0
 11 10  1  0  0  0  0
 12 17  1  0  0  0  0
 12 11  2  0  0  0  0
 13 12  1  0  0  0  0
 14 15  1  0  0  0  0
 14 13  2  0  0  0  0
 15 16  2  0  0  0  0
 16 24  1  0  0  0  0
 16 17  1  0  0  0  0
 17  8  2  0  0  0  0
 20 11  1  0  0  0  0
 21 13  1  0  0  0  0
 22 14  1  0  0  0  0
 23 15  1  0  0  0  0
 25 31  1  0  0  0  0
 26 25  1  0  0  0  0
 26 32  1  0  0  0  0
 27 26  2  0  0  0  0
 28 29  2  0  0  0  0
 28 27  1  0  0  0  0
 29 30  1  0  0  0  0
 30 25  2  0  0  0  0
 33 29  1  0  0  0  0
 33 34  1  0  0  0  0
 34 35  1  0  0  0  0
 36 35  1  0  0  0  0
 37 33  1  0  0  0  0
 37 36  1  0  0  0  0
M  END
>  <minimizedAffinity>
-6.62068748

$$$$

 OpenBabel03272509343D

 37 41  0  0  1  0  0  0  0  0999 V2000
   39.1560   26.7120   34.6380 C   0  0  1  0  0  0  0  0  0  0  0  0
   37.8750   26.7760   35.3620 C   0  0  0  0  0  0  0  0  0  0  0  0
   38.3390   25.4260   34.9500 C   0  0  2  0  0  0  0  0  0  0  0  0
   40.0920   26.6890   35.1720 H   0  0  0  0  0  0  0  0  0  0  0  0
   36.9740   27.1810   34.7780 H   0  0  0  0  0  0  0  0  0  0  0  0
   37.9620   27.2870   36.3020 H   0  0  0  0  0  0  0  0  0  0  0  0
   38.2480   24.8380   34.0540 H   0  0  0  0  0  0  0  0  0  0  0  0
   38.7110   24.6200   36.1420 C   0  0  0  0  0  0  0  0  0  0  0  0
   37.8620   24.9080   37.2160 C   0  0  0  0  0  0  0  0  0  0  0  0
   37.9700   24.2240   38.4080 C   0  0  0  0  0  0  0  0  0  0  0  0
   38.9310   23.2210   38.5730 C   0  0  0  0  0  0  0  0  0  0  0  0
   39.7500   22.9580   37.5020 C   0  0  0  0  0  0  0  0  0  0  0  0
   40.7480   22.0110   37.5190 C   0  0  0  0  0  0  0  0  0  0  0  0
   41.5850   21.7420   36.4590 C   0  0  0  0  0  0  0  0  0  0  0  0
   41.4300   22.4580   35.2940 C   0  0  0  0  0  0  0  0  0  0  0  0
   40.4380   23.4130   35.2480 C   0  0  0  0  0  0  0  0  0  0  0  0
   39.6290   23.6440   36.3310 C   0  0  0  0  0  0  0  0  0  0  0  0
   37.0450   25.5680   37.4150 H   0  0  0  0  0  0  0  0  0  0  0  0
   37.4060   24.3190   39.3230 H   0  0  0  0  0  0  0  0  0  0  0  0
   39.1480   22.5960   39.4290 H   0  0  0  0  0  0  0  0  0  0  0  0
   40.8960   21.4230   38.4390 H   0  0  0  0  0  0  0  0  0  0  0  0
   42.3590   20.9800   36.5310 H   0  0  0  0  0  0  0  0  0  0  0  0
   42.0430   22.3070   34.4180 H   0  0  0  0  0  0  0  0  0  0  0  0
   40.3280   23.9770   34.3050 H   0  0  0  0  0  0  0  0  0  0  0  0
   40.3180   27.1910   31.0840 C   0  0  0  0  0  0  0  0  0  0  0  0
   40.3220   26.8390   32.4640 C   0  0  0  0  0  0  0  0  0  0  0  0
   39.1800   27.0530   33.2000 C   0  0  0  0  0  0  0  0  0  0  0  0
   38.1250   27.5910   32.5380 N   0  0  0  0  0  0  0  0  0  0  0  0
   38.1190   27.9240   31.2380 C   0  0  0  0  0  0  0  0  0  0  0  0
   39.2330   27.7220   30.4950 N   0  0  0  0  0  0  0  0  0  0  0  0
   41.2130   27.0260   30.5000 H   0  0  0  0  0  0  0  0  0  0  0  0
   41.2230   26.4200   32.8730 H   0  0  0  0  0  0  0  0  0  0  0  0
   36.8230   28.5050   30.7360 C   0  0  0  0  0  3  0  0  0  0  0  0
   37.0290   29.8230   30.0700 C   0  0  0  0  0  2  0  0  0  0  0  0
   36.0770   30.8150   30.6650 C   0  0  0  0  0  2  0  0  0  0  0  0
   35.1570   30.0470   31.5900 C   0  0  0  0  0  2  0  0  0  0  0  0
   35.8540   28.7240   31.8530 C   0  0  0  0  0  2  0  0  0  0  0  0
  1  3  1  0  0  0  0
  1  4  1  1  0  0  0
  1  2  1  0  0  0  0
  2  6  1  0  0  0  0
  3  7  1  6  0  0  0
  3  2  1  0  0  0  0
  3  8  1  0  0  0  0
  5  2  1  0  0  0  0
  8 17  2  0  0  0  0
  8  9  1  0  0  0  0
  9 18  1  0  0  0  0
  9 10  2  0  0  0  0
 10 11  1  0  0  0  0
 10 19  1  0  0  0  0
 11 20  1  0  0  0  0
 12 13  1  0  0  0  0
 12 11  2  0  0  0  0
 13 21  1  0  0  0  0
 14 22  1  0  0  0  0
 14 13  2  0  0  0  0
 15 14  1  0  0  0  0
 16 15  2  0  0  0  0
 16 17  1  0  0  0  0
 17 12  1  0  0  0  0
 23 15  1  0  0  0  0
 24 16  1  0  0  0  0
 25 26  1  0  0  0  0
 26 32  1  0  0  0  0
 26 27  2  0  0  0  0
 27  1  1  0  0  0  0
 28 27  1  0  0  0  0
 29 28  2  0  0  0  0
 30 25  2  0  0  0  0
 30 29  1  0  0  0  0
 31 25  1  0  0  0  0
 33 29  1  0  0  0  0
 33 37  1  0  0  0  0
 34 35  1  0  0  0  0
 34 33  1  0  0  0  0
 35 36  1  0  0  0  0
 36 37  1  0  0  0  0
M  END
>  <minimizedAffinity>
-6.54115534

$$$$

 OpenBabel03272509343D

 37 41  0  0  1  0  0  0  0  0999 V2000
   34.8520   30.3250   33.4590 C   0  0  1  0  0  0  0  0  0  0  0  0
   34.1120   29.7330   34.5880 C   0  0  0  0  0  0  0  0  0  0  0  0
   35.3300   30.5120   34.9270 C   0  0  2  0  0  0  0  0  0  0  0  0
   34.5600   31.2760   33.0460 H   0  0  0  0  0  0  0  0  0  0  0  0
   34.2050   28.5980   34.7250 H   0  0  0  0  0  0  0  0  0  0  0  0
   33.0780   30.0180   34.5920 H   0  0  0  0  0  0  0  0  0  0  0  0
   36.3800   30.2830   34.9890 H   0  0  0  0  0  0  0  0  0  0  0  0
   34.9630   31.7640   35.6390 C   0  0  0  0  0  0  0  0  0  0  0  0
   33.8610   31.5510   36.4740 C   0  0  0  0  0  0  0  0  0  0  0  0
   33.3870   32.5540   37.2930 C   0  0  0  0  0  0  0  0  0  0  0  0
   34.0000   33.8110   37.3120 C   0  0  0  0  0  0  0  0  0  0  0  0
   35.0810   33.9920   36.4830 C   0  0  0  0  0  0  0  0  0  0  0  0
   35.7760   35.1750   36.3840 C   0  0  0  0  0  0  0  0  0  0  0  0
   36.8540   35.3780   35.5520 C   0  0  0  0  0  0  0  0  0  0  0  0
   37.2820   34.3390   34.7570 C   0  0  0  0  0  0  0  0  0  0  0  0
   36.6040   33.1420   34.8360 C   0  0  0  0  0  0  0  0  0  0  0  0
   35.5350   32.9890   35.6810 C   0  0  0  0  0  0  0  0  0  0  0  0
   33.2010   30.7440   36.7100 H   0  0  0  0  0  0  0  0  0  0  0  0
   32.5610   32.5590   37.9860 H   0  0  0  0  0  0  0  0  0  0  0  0
   33.7590   34.6960   37.8860 H   0  0  0  0  0  0  0  0  0  0  0  0
   35.4550   36.0250   37.0090 H   0  0  0  0  0  0  0  0  0  0  0  0
   37.3660   36.3380   35.5160 H   0  0  0  0  0  0  0  0  0  0  0  0
   38.1200   34.4150   34.0790 H   0  0  0  0  0  0  0  0  0  0  0  0
   36.9630   32.3200   34.1910 H   0  0  0  0  0  0  0  0  0  0  0  0
   36.6340   28.7250   30.5480 C   0  0  0  0  0  0  0  0  0  0  0  0
   35.7730   29.5830   31.2910 C   0  0  0  0  0  0  0  0  0  0  0  0
   35.7450   29.4590   32.6610 C   0  0  0  0  0  0  0  0  0  0  0  0
   36.5540   28.5130   33.2000 N   0  0  0  0  0  0  0  0  0  0  0  0
   37.3650   27.7030   32.5020 C   0  0  0  0  0  0  0  0  0  0  0  0
   37.4080   27.8080   31.1530 N   0  0  0  0  0  0  0  0  0  0  0  0
   36.6610   28.8160   29.4710 H   0  0  0  0  0  0  0  0  0  0  0  0
   35.1800   30.2940   30.7460 H   0  0  0  0  0  0  0  0  0  0  0  0
   38.1660   26.7340   33.3330 C   0  0  0  0  0  3  0  0  0  0  0  0
   37.7500   26.7590   34.7650 C   0  0  0  0  0  2  0  0  0  0  0  0
   38.9700   26.9370   35.6150 C   0  0  0  0  0  2  0  0  0  0  0  0
   40.1690   26.8480   34.6960 C   0  0  0  0  0  2  0  0  0  0  0  0
   39.6250   27.0580   33.2940 C   0  0  0  0  0  2  0  0  0  0  0  0
  1  4  1  6  0  0  0
  1  2  1  0  0  0  0
  1  3  1  0  0  0  0
  2  6  1  0  0  0  0
  2  5  1  0  0  0  0
  2  3  1  0  0  0  0
  3  7  1  1  0  0  0
  3  8  1  0  0  0  0
  8 17  2  0  0  0  0
  8  9  1  0  0  0  0
  9 18  1  0  0  0  0
  9 10  2  0  0  0  0
 10 11  1  0  0  0  0
 10 19  1  0  0  0  0
 11 20  1  0  0  0  0
 12 11  2  0  0  0  0
 13 12  1  0  0  0  0
 13 21  1  0  0  0  0
 14 13  2  0  0  0  0
 15 16  2  0  0  0  0
 15 14  1  0  0  0  0
 16 17  1  0  0  0  0
 17 12  1  0  0  0  0
 22 14  1  0  0  0  0
 23 15  1  0  0  0  0
 24 16  1  0  0  0  0
 25 30  2  0  0  0  0
 25 26  1  0  0  0  0
 26 27  2  0  0  0  0
 27 28  1  0  0  0  0
 27  1  1  0  0  0  0
 29 28  2  0  0  0  0
 29 33  1  0  0  0  0
 30 29  1  0  0  0  0
 31 25  1  0  0  0  0
 32 26  1  0  0  0  0
 33 34  1  0  0  0  0
 34 35  1  0  0  0  0
 36 35  1  0  0  0  0
 37 33  1  0  0  0  0
 37 36  1  0  0  0  0
M  END
>  <minimizedAffinity>
-6.37227774

$$$$

 OpenBabel03272509343D

 37 41  0  0  1  0  0  0  0  0999 V2000
   34.5570   29.8840   32.6490 C   0  0  1  0  0  0  0  0  0  0  0  0
   33.3020   29.1120   32.7010 C   0  0  0  0  0  0  0  0  0  0  0  0
   34.0460   29.2610   33.9800 C   0  0  2  0  0  0  0  0  0  0  0  0
   34.5460   30.9590   32.7210 H   0  0  0  0  0  0  0  0  0  0  0  0
   33.3260   28.0600   32.2440 H   0  0  0  0  0  0  0  0  0  0  0  0
   32.4670   29.6620   32.3130 H   0  0  0  0  0  0  0  0  0  0  0  0
   34.8520   28.7250   34.4500 H   0  0  0  0  0  0  0  0  0  0  0  0
   33.2890   30.1230   34.9220 C   0  0  0  0  0  0  0  0  0  0  0  0
   31.9510   29.7170   34.9970 C   0  0  0  0  0  0  0  0  0  0  0  0
   31.0730   30.3250   35.8680 C   0  0  0  0  0  0  0  0  0  0  0  0
   31.4980   31.3630   36.7030 C   0  0  0  0  0  0  0  0  0  0  0  0
   32.8160   31.7410   36.6110 C   0  0  0  0  0  0  0  0  0  0  0  0
   33.3730   32.7530   37.3580 C   0  0  0  0  0  0  0  0  0  0  0  0
   34.6880   33.1510   37.2710 C   0  0  0  0  0  0  0  0  0  0  0  0
   35.5190   32.5070   36.3830 C   0  0  0  0  0  0  0  0  0  0  0  0
   34.9870   31.4890   35.6210 C   0  0  0  0  0  0  0  0  0  0  0  0
   33.6690   31.1280   35.7440 C   0  0  0  0  0  0  0  0  0  0  0  0
   31.3300   28.9790   34.5370 H   0  0  0  0  0  0  0  0  0  0  0  0
   30.0260   30.1390   36.0480 H   0  0  0  0  0  0  0  0  0  0  0  0
   30.9470   31.9400   37.4340 H   0  0  0  0  0  0  0  0  0  0  0  0
   32.7320   33.2870   38.0780 H   0  0  0  0  0  0  0  0  0  0  0  0
   35.0740   33.9610   37.8890 H   0  0  0  0  0  0  0  0  0  0  0  0
   36.5610   32.7570   36.2550 H   0  0  0  0  0  0  0  0  0  0  0  0
   35.6690   30.9840   34.9140 H   0  0  0  0  0  0  0  0  0  0  0  0
   37.3690   28.8380   30.3670 C   0  0  0  0  0  0  0  0  0  0  0  0
   36.2000   29.4950   30.8460 C   0  0  0  0  0  0  0  0  0  0  0  0
   35.7740   29.2290   32.1270 C   0  0  0  0  0  0  0  0  0  0  0  0
   36.5170   28.3460   32.8400 N   0  0  0  0  0  0  0  0  0  0  0  0
   37.6190   27.7250   32.3910 C   0  0  0  0  0  0  0  0  0  0  0  0
   38.0550   27.9740   31.1330 N   0  0  0  0  0  0  0  0  0  0  0  0
   37.7090   29.0430   29.3620 H   0  0  0  0  0  0  0  0  0  0  0  0
   35.6980   30.1750   30.1830 H   0  0  0  0  0  0  0  0  0  0  0  0
   38.2690   26.7890   33.3770 C   0  0  0  0  0  3  0  0  0  0  0  0
   37.7190   26.9660   34.7510 C   0  0  0  0  0  2  0  0  0  0  0  0
   38.8610   27.1470   35.7050 C   0  0  0  0  0  2  0  0  0  0  0  0
   40.1350   26.9060   34.9230 C   0  0  0  0  0  2  0  0  0  0  0  0
   39.7430   27.0220   33.4600 C   0  0  0  0  0  2  0  0  0  0  0  0
  1  2  1  0  0  0  0
  1  4  1  6  0  0  0
  1  3  1  0  0  0  0
  2  3  1  0  0  0  0
  3  7  1  1  0  0  0
  3  8  1  0  0  0  0
  5  2  1  0  0  0  0
  6  2  1  0  0  0  0
  8  9  2  0  0  0  0
  8 17  1  0  0  0  0
  9 10  1  0  0  0  0
 10 19  1  0  0  0  0
 10 11  2  0  0  0  0
 11 20  1  0  0  0  0
 12 11  1  0  0  0  0
 12 13  1  0  0  0  0
 13 21  1  0  0  0  0
 14 13  2  0  0  0  0
 14 22  1  0  0  0  0
 15 14  1  0  0  0  0
 16 17  1  0  0  0  0
 16 15  2  0  0  0  0
 17 12  2  0  0  0  0
 18  9  1  0  0  0  0
 23 15  1  0  0  0  0
 24 16  1  0  0  0  0
 25 26  2  0  0  0  0
 25 30  1  0  0  0  0
 26 27  1  0  0  0  0
 27  1  1  0  0  0  0
 27 28  2  0  0  0  0
 29 28  1  0  0  0  0
 29 33  1  0  0  0  0
 30 29  2  0  0  0  0
 31 25  1  0  0  0  0
 32 26  1  0  0  0  0
 33 37  1  0  0  0  0
 33 34  1  0  0  0  0
 34 35  1  0  0  0  0
 36 35  1  0  0  0  0
 37 36  1  0  0  0  0
M  END
>  <minimizedAffinity>
-6.36071062

$$$$

 OpenBabel03272509343D

 37 41  0  0  1  0  0  0  0  0999 V2000
   37.4630   26.0120   35.3060 C   0  0  1  0  0  0  0  0  0  0  0  0
   38.4030   27.1370   35.4670 C   0  0  0  0  0  0  0  0  0  0  0  0
   37.9990   26.8000   34.0770 C   0  0  2  0  0  0  0  0  0  0  0  0
   36.4000   26.1640   35.4020 H   0  0  0  0  0  0  0  0  0  0  0  0
   39.4840   26.8680   35.7380 H   0  0  0  0  0  0  0  0  0  0  0  0
   38.0320   27.8860   36.1380 H   0  0  0  0  0  0  0  0  0  0  0  0
   38.3510   26.1030   33.3360 H   0  0  0  0  0  0  0  0  0  0  0  0
   37.1560   27.8830   33.5060 C   0  0  0  0  0  0  0  0  0  0  0  0
   36.4180   28.5160   34.5130 C   0  0  0  0  0  0  0  0  0  0  0  0
   35.6200   29.6040   34.2300 C   0  0  0  0  0  0  0  0  0  0  0  0
   35.5300   30.1050   32.9270 C   0  0  0  0  0  0  0  0  0  0  0  0
   36.2660   29.4660   31.9580 C   0  0  0  0  0  0  0  0  0  0  0  0
   36.2670   29.8350   30.6330 C   0  0  0  0  0  0  0  0  0  0  0  0
   36.9900   29.2000   29.6480 C   0  0  0  0  0  0  0  0  0  0  0  0
   37.7700   28.1190   29.9910 C   0  0  0  0  0  0  0  0  0  0  0  0
   37.7870   27.7260   31.3120 C   0  0  0  0  0  0  0  0  0  0  0  0
   37.0490   28.3920   32.2570 C   0  0  0  0  0  0  0  0  0  0  0  0
   36.2780   28.4090   35.5670 H   0  0  0  0  0  0  0  0  0  0  0  0
   34.9950   30.1990   34.8760 H   0  0  0  0  0  0  0  0  0  0  0  0
   34.9590   30.9380   32.5380 H   0  0  0  0  0  0  0  0  0  0  0  0
   35.6520   30.6980   30.3290 H   0  0  0  0  0  0  0  0  0  0  0  0
   36.9520   29.5380   28.6140 H   0  0  0  0  0  0  0  0  0  0  0  0
   38.3660   27.5670   29.2800 H   0  0  0  0  0  0  0  0  0  0  0  0
   38.4180   26.8570   31.5670 H   0  0  0  0  0  0  0  0  0  0  0  0
   39.3990   22.9680   36.3980 C   0  0  0  0  0  0  0  0  0  0  0  0
   38.9050   24.3030   36.3550 C   0  0  0  0  0  0  0  0  0  0  0  0
   37.9840   24.6320   35.3870 C   0  0  0  0  0  0  0  0  0  0  0  0
   37.6170   23.6390   34.5380 N   0  0  0  0  0  0  0  0  0  0  0  0
   38.0820   22.3810   34.5770 C   0  0  0  0  0  0  0  0  0  0  0  0
   38.9890   22.0360   35.5220 N   0  0  0  0  0  0  0  0  0  0  0  0
   40.1230   22.7030   37.1560 H   0  0  0  0  0  0  0  0  0  0  0  0
   39.2750   25.0000   37.0850 H   0  0  0  0  0  0  0  0  0  0  0  0
   37.5180   21.4620   33.5250 C   0  0  0  0  0  3  0  0  0  0  0  0
   37.3720   22.1500   32.2110 C   0  0  0  0  0  2  0  0  0  0  0  0
   35.9770   21.9360   31.7090 C   0  0  0  0  0  2  0  0  0  0  0  0
   35.3110   20.9570   32.6530 C   0  0  0  0  0  2  0  0  0  0  0  0
   36.1640   20.9580   33.9090 C   0  0  0  0  0  2  0  0  0  0  0  0
  1 27  1  0  0  0  0
  1  4  1  1  0  0  0
  1  2  1  0  0  0  0
  2  5  1  0  0  0  0
  2  6  1  0  0  0  0
  3  7  1  6  0  0  0
  3  1  1  0  0  0  0
  3  2  1  0  0  0  0
  8  3  1  0  0  0  0
  8  9  1  0  0  0  0
  9 18  1  0  0  0  0
 10  9  2  0  0  0  0
 10 19  1  0  0  0  0
 11 10  1  0  0  0  0
 12 17  1  0  0  0  0
 12 11  2  0  0  0  0
 13 12  1  0  0  0  0
 14 15  1  0  0  0  0
 14 13  2  0  0  0  0
 15 16  2  0  0  0  0
 16 24  1  0  0  0  0
 16 17  1  0  0  0  0
 17  8  2  0  0  0  0
 20 11  1  0  0  0  0
 21 13  1  0  0  0  0
 22 14  1  0  0  0  0
 23 15  1  0  0  0  0
 25 31  1  0  0  0  0
 26 25  1  0  0  0  0
 26 32  1  0  0  0  0
 27 26  2  0  0  0  0
 28 29  2  0  0  0  0
 28 27  1  0  0  0  0
 29 30  1  0  0  0  0
 30 25  2  0  0  0  0
 33 37  1  0  0  0  0
 33 29  1  0  0  0  0
 34 33  1  0  0  0  0
 35 34  1  0  0  0  0
 35 36  1  0  0  0  0
 36 37  1  0  0  0  0
M  END
>  <minimizedAffinity>
-6.29969788

$$$$

 OpenBabel03272509343D

 37 41  0  0  1  0  0  0  0  0999 V2000
   38.4710   26.7500   34.5770 C   0  0  1  0  0  0  0  0  0  0  0  0
   38.1600   27.2240   35.9380 C   0  0  0  0  0  0  0  0  0  0  0  0
   37.6680   25.8690   35.5760 C   0  0  2  0  0  0  0  0  0  0  0  0
   39.4180   26.2840   34.3580 H   0  0  0  0  0  0  0  0  0  0  0  0
   37.3480   28.0290   36.0290 H   0  0  0  0  0  0  0  0  0  0  0  0
   39.0380   27.5260   36.4760 H   0  0  0  0  0  0  0  0  0  0  0  0
   36.7880   25.4920   35.0860 H   0  0  0  0  0  0  0  0  0  0  0  0
   38.3960   24.8300   36.3500 C   0  0  0  0  0  0  0  0  0  0  0  0
   37.9770   24.8250   37.6850 C   0  0  0  0  0  0  0  0  0  0  0  0
   38.4610   23.8920   38.5770 C   0  0  0  0  0  0  0  0  0  0  0  0
   39.3830   22.9230   38.1690 C   0  0  0  0  0  0  0  0  0  0  0  0
   39.7760   22.9490   36.8520 C   0  0  0  0  0  0  0  0  0  0  0  0
   40.6840   22.0700   36.3090 C   0  0  0  0  0  0  0  0  0  0  0  0
   41.0970   22.0880   34.9960 C   0  0  0  0  0  0  0  0  0  0  0  0
   40.5790   23.0440   34.1520 C   0  0  0  0  0  0  0  0  0  0  0  0
   39.6670   23.9380   34.6690 C   0  0  0  0  0  0  0  0  0  0  0  0
   39.2870   23.8790   35.9850 C   0  0  0  0  0  0  0  0  0  0  0  0
   37.3020   25.3850   38.2970 H   0  0  0  0  0  0  0  0  0  0  0  0
   38.2480   23.7500   39.6250 H   0  0  0  0  0  0  0  0  0  0  0  0
   39.8570   22.1300   38.7310 H   0  0  0  0  0  0  0  0  0  0  0  0
   41.1160   21.2940   36.9620 H   0  0  0  0  0  0  0  0  0  0  0  0
   41.8200   21.3660   34.6220 H   0  0  0  0  0  0  0  0  0  0  0  0
   40.8490   23.1250   33.1090 H   0  0  0  0  0  0  0  0  0  0  0  0
   39.2620   24.6970   33.9760 H   0  0  0  0  0  0  0  0  0  0  0  0
   37.0550   27.2300   31.1170 C   0  0  0  0  0  0  0  0  0  0  0  0
   37.8470   26.7250   32.1880 C   0  0  0  0  0  0  0  0  0  0  0  0
   37.6550   27.2430   33.4480 C   0  0  0  0  0  0  0  0  0  0  0  0
   36.7100   28.2090   33.5690 N   0  0  0  0  0  0  0  0  0  0  0  0
   35.9630   28.6860   32.5610 C   0  0  0  0  0  0  0  0  0  0  0  0
   36.1360   28.1900   31.3130 N   0  0  0  0  0  0  0  0  0  0  0  0
   37.2010   26.8280   30.1240 H   0  0  0  0  0  0  0  0  0  0  0  0
   38.5640   25.9580   31.9630 H   0  0  0  0  0  0  0  0  0  0  0  0
   34.9800   29.7590   32.9510 C   0  0  0  0  0  3  0  0  0  0  0  0
   35.1370   30.1590   34.3790 C   0  0  0  0  0  2  0  0  0  0  0  0
   33.7960   30.0980   35.0450 C   0  0  0  0  0  2  0  0  0  0  0  0
   32.7750   29.8180   33.9620 C   0  0  0  0  0  2  0  0  0  0  0  0
   33.5690   29.2950   32.7780 C   0  0  0  0  0  2  0  0  0  0  0  0
  1  4  1  6  0  0  0
  1  3  1  0  0  0  0
  1  2  1  0  0  0  0
  2  5  1  0  0  0  0
  2  6  1  0  0  0  0
  3  7  1  6  0  0  0
  3  2  1  0  0  0  0
  3  8  1  0  0  0  0
  8  9  1  0  0  0  0
  9 18  1  0  0  0  0
  9 10  2  0  0  0  0
 10 19  1  0  0  0  0
 11 10  1  0  0  0  0
 11 20  1  0  0  0  0
 12 11  2  0  0  0  0
 13 12  1  0  0  0  0
 13 21  1  0  0  0  0
 14 13  2  0  0  0  0
 15 16  2  0  0  0  0
 15 14  1  0  0  0  0
 16 17  1  0  0  0  0
 17  8  2  0  0  0  0
 17 12  1  0  0  0  0
 22 14  1  0  0  0  0
 23 15  1  0  0  0  0
 24 16  1  0  0  0  0
 25 30  2  0  0  0  0
 25 26  1  0  0  0  0
 26 27  2  0  0  0  0
 27 28  1  0  0  0  0
 27  1  1  0  0  0  0
 29 33  1  0  0  0  0
 29 28  2  0  0  0  0
 30 29  1  0  0  0  0
 31 25  1  0  0  0  0
 32 26  1  0  0  0  0
 33 34  1  0  0  0  0
 34 35  1  0  0  0  0
 36 35  1  0  0  0  0
 37 33  1  0  0  0  0
 37 36  1  0  0  0  0
M  END
>  <minimizedAffinity>
-6.29834414

$$$$

 OpenBabel03272509343D

 37 41  0  0  1  0  0  0  0  0999 V2000
   38.6900   26.2140   34.6030 C   0  0  1  0  0  0  0  0  0  0  0  0
   37.8070   26.6730   35.6900 C   0  0  0  0  0  0  0  0  0  0  0  0
   37.8230   25.2120   35.4190 C   0  0  2  0  0  0  0  0  0  0  0  0
   39.7350   26.0240   34.7840 H   0  0  0  0  0  0  0  0  0  0  0  0
   36.8460   27.2160   35.3770 H   0  0  0  0  0  0  0  0  0  0  0  0
   38.3320   27.2520   36.4260 H   0  0  0  0  0  0  0  0  0  0  0  0
   37.2970   24.5660   34.7390 H   0  0  0  0  0  0  0  0  0  0  0  0
   38.4550   24.4820   36.5480 C   0  0  0  0  0  0  0  0  0  0  0  0
   37.8290   24.8070   37.7570 C   0  0  0  0  0  0  0  0  0  0  0  0
   38.1980   24.1910   38.9340 C   0  0  0  0  0  0  0  0  0  0  0  0
   39.2070   23.2230   38.9490 C   0  0  0  0  0  0  0  0  0  0  0  0
   39.8040   22.9230   37.7490 C   0  0  0  0  0  0  0  0  0  0  0  0
   40.8180   22.0040   37.6100 C   0  0  0  0  0  0  0  0  0  0  0  0
   41.4340   21.6980   36.4170 C   0  0  0  0  0  0  0  0  0  0  0  0
   41.0230   22.3450   35.2740 C   0  0  0  0  0  0  0  0  0  0  0  0
   40.0090   23.2720   35.3840 C   0  0  0  0  0  0  0  0  0  0  0  0
   39.4260   23.5420   36.5950 C   0  0  0  0  0  0  0  0  0  0  0  0
   37.0450   25.4560   38.0840 H   0  0  0  0  0  0  0  0  0  0  0  0
   37.8250   24.3220   39.9380 H   0  0  0  0  0  0  0  0  0  0  0  0
   39.6130   22.6520   39.7740 H   0  0  0  0  0  0  0  0  0  0  0  0
   41.1680   21.4700   38.5080 H   0  0  0  0  0  0  0  0  0  0  0  0
   42.2330   20.9610   36.3680 H   0  0  0  0  0  0  0  0  0  0  0  0
   41.4530   22.1630   34.3000 H   0  0  0  0  0  0  0  0  0  0  0  0
   39.6930   23.7800   34.4550 H   0  0  0  0  0  0  0  0  0  0  0  0
   37.9160   27.7120   31.2320 C   0  0  0  0  0  0  0  0  0  0  0  0
   38.3730   27.5870   32.5750 C   0  0  0  0  0  0  0  0  0  0  0  0
   38.2390   26.3710   33.2050 C   0  0  0  0  0  0  0  0  0  0  0  0
   37.6720   25.3740   32.4810 N   0  0  0  0  0  0  0  0  0  0  0  0
   37.2410   25.4900   31.2150 C   0  0  0  0  0  0  0  0  0  0  0  0
   37.3640   26.6780   30.5770 N   0  0  0  0  0  0  0  0  0  0  0  0
   38.0190   28.6650   30.7310 H   0  0  0  0  0  0  0  0  0  0  0  0
   38.8050   28.4530   33.0410 H   0  0  0  0  0  0  0  0  0  0  0  0
   36.6490   24.2350   30.6280 C   0  0  0  0  0  3  0  0  0  0  0  0
   35.4550   23.7760   31.3940 C   0  0  0  0  0  2  0  0  0  0  0  0
   35.6310   22.3280   31.7360 C   0  0  0  0  0  2  0  0  0  0  0  0
   36.8760   21.8510   31.0190 C   0  0  0  0  0  2  0  0  0  0  0  0
   37.6340   23.1100   30.6370 C   0  0  0  0  0  2  0  0  0  0  0  0
  1  4  1  1  0  0  0
  1  3  1  0  0  0  0
  1  2  1  0  0  0  0
  2  6  1  0  0  0  0
  3  7  1  6  0  0  0
  3  2  1  0  0  0  0
  3  8  1  0  0  0  0
  5  2  1  0  0  0  0
  8 17  2  0  0  0  0
  8  9  1  0  0  0  0
  9 18  1  0  0  0  0
  9 10  2  0  0  0  0
 10 11  1  0  0  0  0
 10 19  1  0  0  0  0
 11 20  1  0  0  0  0
 12 11  2  0  0  0  0
 13 12  1  0  0  0  0
 13 21  1  0  0  0  0
 14 13  2  0  0  0  0
 15 16  2  0  0  0  0
 15 14  1  0  0  0  0
 16 17  1  0  0  0  0
 17 12  1  0  0  0  0
 22 14  1  0  0  0  0
 23 15  1  0  0  0  0
 24 16  1  0  0  0  0
 25 26  1  0  0  0  0
 26 32  1  0  0  0  0
 26 27  2  0  0  0  0
 27  1  1  0  0  0  0
 28 27  1  0  0  0  0
 29 28  2  0  0  0  0
 30 29  1  0  0  0  0
 30 25  2  0  0  0  0
 31 25  1  0  0  0  0
 33 37  1  0  0  0  0
 33 29  1  0  0  0  0
 33 34  1  0  0  0  0
 34 35  1  0  0  0  0
 36 35  1  0  0  0  0
 37 36  1  0  0  0  0
M  END
>  <minimizedAffinity>
-6.23671579

$$$$

 OpenBabel03272509343D

 37 41  0  0  1  0  0  0  0  0999 V2000
   36.0200   29.0880   33.3340 C   0  0  1  0  0  0  0  0  0  0  0  0
   34.6960   29.5330   32.8640 C   0  0  0  0  0  0  0  0  0  0  0  0
   34.8030   29.1620   34.3000 C   0  0  2  0  0  0  0  0  0  0  0  0
   36.7690   29.8040   33.6340 H   0  0  0  0  0  0  0  0  0  0  0  0
   34.1080   28.7950   32.2130 H   0  0  0  0  0  0  0  0  0  0  0  0
   34.7330   30.4930   32.3880 H   0  0  0  0  0  0  0  0  0  0  0  0
   34.7300   28.2390   34.8480 H   0  0  0  0  0  0  0  0  0  0  0  0
   34.6500   30.3650   35.1580 C   0  0  0  0  0  0  0  0  0  0  0  0
   35.8830   31.0040   35.3350 C   0  0  0  0  0  0  0  0  0  0  0  0
   35.9740   32.1880   36.0360 C   0  0  0  0  0  0  0  0  0  0  0  0
   34.8340   32.7830   36.5850 C   0  0  0  0  0  0  0  0  0  0  0  0
   33.6370   32.1350   36.3950 C   0  0  0  0  0  0  0  0  0  0  0  0
   32.4360   32.5920   36.8880 C   0  0  0  0  0  0  0  0  0  0  0  0
   31.2300   31.9510   36.7160 C   0  0  0  0  0  0  0  0  0  0  0  0
   31.2010   30.7720   36.0070 C   0  0  0  0  0  0  0  0  0  0  0  0
   32.3890   30.2900   35.5020 C   0  0  0  0  0  0  0  0  0  0  0  0
   33.5660   30.9660   35.7000 C   0  0  0  0  0  0  0  0  0  0  0  0
   36.8990   30.8410   35.0450 H   0  0  0  0  0  0  0  0  0  0  0  0
   36.8310   32.8010   36.2630 H   0  0  0  0  0  0  0  0  0  0  0  0
   34.7300   33.6970   37.1550 H   0  0  0  0  0  0  0  0  0  0  0  0
   32.4290   33.5340   37.4590 H   0  0  0  0  0  0  0  0  0  0  0  0
   30.3100   32.3610   37.1290 H   0  0  0  0  0  0  0  0  0  0  0  0
   30.2970   30.2080   35.8270 H   0  0  0  0  0  0  0  0  0  0  0  0
   32.3460   29.3430   34.9360 H   0  0  0  0  0  0  0  0  0  0  0  0
   36.4990   25.7670   31.6170 C   0  0  0  0  0  0  0  0  0  0  0  0
   36.0800   27.1060   31.8620 C   0  0  0  0  0  0  0  0  0  0  0  0
   36.4510   27.7050   33.0440 C   0  0  0  0  0  0  0  0  0  0  0  0
   37.2000   26.9570   33.8920 N   0  0  0  0  0  0  0  0  0  0  0  0
   37.5960   25.6950   33.6630 C   0  0  0  0  0  0  0  0  0  0  0  0
   37.2410   25.0870   32.5060 N   0  0  0  0  0  0  0  0  0  0  0  0
   36.2100   25.2900   30.6910 H   0  0  0  0  0  0  0  0  0  0  0  0
   35.4870   27.5930   31.1100 H   0  0  0  0  0  0  0  0  0  0  0  0
   38.4230   25.0790   34.7610 C   0  0  0  0  0  3  0  0  0  0  0  0
   38.2070   23.6060   34.8560 C   0  0  0  0  0  2  0  0  0  0  0  0
   37.8880   23.2600   36.2790 C   0  0  0  0  0  2  0  0  0  0  0  0
   38.0810   24.5190   37.0970 C   0  0  0  0  0  2  0  0  0  0  0  0
   38.0800   25.6600   36.0950 C   0  0  0  0  0  2  0  0  0  0  0  0
  1  4  1  1  0  0  0
  1  3  1  0  0  0  0
  2  1  1  0  0  0  0
  2  3  1  0  0  0  0
  3  7  1  1  0  0  0
  3  8  1  0  0  0  0
  5  2  1  0  0  0  0
  6  2  1  0  0  0  0
  8  9  2  0  0  0  0
  8 17  1  0  0  0  0
  9 10  1  0  0  0  0
 10 19  1  0  0  0  0
 10 11  2  0  0  0  0
 11 20  1  0  0  0  0
 12 11  1  0  0  0  0
 12 13  1  0  0  0  0
 13 21  1  0  0  0  0
 14 13  2  0  0  0  0
 14 22  1  0  0  0  0
 15 14  1  0  0  0  0
 16 17  1  0  0  0  0
 16 15  2  0  0  0  0
 17 12  2  0  0  0  0
 18  9  1  0  0  0  0
 23 15  1  0  0  0  0
 24 16  1  0  0  0  0
 25 26  2  0  0  0  0
 25 30  1  0  0  0  0
 26 27  1  0  0  0  0
 27  1  1  0  0  0  0
 27 28  2  0  0  0  0
 29 28  1  0  0  0  0
 29 33  1  0  0  0  0
 30 29  2  0  0  0  0
 31 25  1  0  0  0  0
 32 26  1  0  0  0  0
 33 34  1  0  0  0  0
 33 37  1  0  0  0  0
 34 35  1  0  0  0  0
 35 36  1  0  0  0  0
 37 36  1  0  0  0  0
M  END
>  <minimizedAffinity>
-6.23601866

$$$$

 OpenBabel03272509343D

 37 41  0  0  1  0  0  0  0  0999 V2000
   38.6030   26.9230   35.1880 C   0  0  1  0  0  0  0  0  0  0  0  0
   38.3010   25.8190   36.1160 C   0  0  0  0  0  0  0  0  0  0  0  0
   38.9550   25.4500   34.8340 C   0  0  2  0  0  0  0  0  0  0  0  0
   39.5080   27.5000   35.2920 H   0  0  0  0  0  0  0  0  0  0  0  0
   37.2000   25.5110   36.2080 H   0  0  0  0  0  0  0  0  0  0  0  0
   38.7190   25.9790   37.0910 H   0  0  0  0  0  0  0  0  0  0  0  0
   38.6010   25.2300   33.8420 H   0  0  0  0  0  0  0  0  0  0  0  0
   40.3410   24.9730   35.0770 C   0  0  0  0  0  0  0  0  0  0  0  0
   41.2730   25.8880   34.5720 C   0  0  0  0  0  0  0  0  0  0  0  0
   42.6260   25.6940   34.7490 C   0  0  0  0  0  0  0  0  0  0  0  0
   43.1030   24.5770   35.4430 C   0  0  0  0  0  0  0  0  0  0  0  0
   42.1670   23.6960   35.9310 C   0  0  0  0  0  0  0  0  0  0  0  0
   42.4850   22.5490   36.6200 C   0  0  0  0  0  0  0  0  0  0  0  0
   41.5620   21.6510   37.1060 C   0  0  0  0  0  0  0  0  0  0  0  0
   40.2240   21.8980   36.8980 C   0  0  0  0  0  0  0  0  0  0  0  0
   39.8760   23.0410   36.2100 C   0  0  0  0  0  0  0  0  0  0  0  0
   40.8340   23.9050   35.7450 C   0  0  0  0  0  0  0  0  0  0  0  0
   41.2520   26.8120   34.0360 H   0  0  0  0  0  0  0  0  0  0  0  0
   43.4660   26.2890   34.4290 H   0  0  0  0  0  0  0  0  0  0  0  0
   44.1180   24.2770   35.6690 H   0  0  0  0  0  0  0  0  0  0  0  0
   43.5490   22.3250   36.8020 H   0  0  0  0  0  0  0  0  0  0  0  0
   41.8730   20.7580   37.6450 H   0  0  0  0  0  0  0  0  0  0  0  0
   39.4370   21.2460   37.2470 H   0  0  0  0  0  0  0  0  0  0  0  0
   38.7980   23.2220   36.0530 H   0  0  0  0  0  0  0  0  0  0  0  0
   36.0880   27.3990   32.4200 C   0  0  0  0  0  0  0  0  0  0  0  0
   37.1350   26.8330   33.2040 C   0  0  0  0  0  0  0  0  0  0  0  0
   37.5110   27.4760   34.3600 C   0  0  0  0  0  0  0  0  0  0  0  0
   36.8410   28.6160   34.6640 N   0  0  0  0  0  0  0  0  0  0  0  0
   35.8550   29.1510   33.9280 C   0  0  0  0  0  0  0  0  0  0  0  0
   35.4690   28.5340   32.7850 N   0  0  0  0  0  0  0  0  0  0  0  0
   35.7880   26.8990   31.5100 H   0  0  0  0  0  0  0  0  0  0  0  0
   37.5880   25.9240   32.8550 H   0  0  0  0  0  0  0  0  0  0  0  0
   35.2670   30.4240   34.4790 C   0  0  0  0  0  3  0  0  0  0  0  0
   35.3600   31.5450   33.5000 C   0  0  0  0  0  2  0  0  0  0  0  0
   35.9830   32.7250   34.1810 C   0  0  0  0  0  2  0  0  0  0  0  0
   36.1160   32.3730   35.6470 C   0  0  0  0  0  2  0  0  0  0  0  0
   35.9810   30.8620   35.7180 C   0  0  0  0  0  2  0  0  0  0  0  0
  1  4  1  1  0  0  0
  1  2  1  0  0  0  0
  2  5  1  0  0  0  0
  2  6  1  0  0  0  0
  3  7  1  6  0  0  0
  3  8  1  0  0  0  0
  3  1  1  0  0  0  0
  3  2  1  0  0  0  0
  8 17  1  0  0  0  0
  9 10  1  0  0  0  0
  9  8  2  0  0  0  0
 10 11  2  0  0  0  0
 11 20  1  0  0  0  0
 11 12  1  0  0  0  0
 12 13  1  0  0  0  0
 13 21  1  0  0  0  0
 13 14  2  0  0  0  0
 14 22  1  0  0  0  0
 15 14  1  0  0  0  0
 15 23  1  0  0  0  0
 16 15  2  0  0  0  0
 17 12  2  0  0  0  0
 17 16  1  0  0  0  0
 18  9  1  0  0  0  0
 19 10  1  0  0  0  0
 24 16  1  0  0  0  0
 25 30  2  0  0  0  0
 25 26  1  0  0  0  0
 26 27  2  0  0  0  0
 27 28  1  0  0  0  0
 27  1  1  0  0  0  0
 29 33  1  0  0  0  0
 29 28  2  0  0  0  0
 30 29  1  0  0  0  0
 31 25  1  0  0  0  0
 32 26  1  0  0  0  0
 33 37  1  0  0  0  0
 34 35  1  0  0  0  0
 34 33  1  0  0  0  0
 35 36  1  0  0  0  0
 36 37  1  0  0  0  0
M  END
>  <minimizedAffinity>
-6.23370886

$$$$
