
 OpenBabel03272508453D

 23 25  0  0  0  0  0  0  0  0999 V2000
   34.3670   28.6600   48.3540 C   0  0  0  0  0  0  0  0  0  0  0  0
   34.7190   28.2990   49.6500 C   0  0  0  0  0  0  0  0  0  0  0  0
   35.6790   29.2740   49.9690 C   0  0  0  0  0  0  0  0  0  0  0  0
   35.8450   30.1250   48.9070 C   0  0  0  0  0  0  0  0  0  0  0  0
   35.0400   29.7260   47.9490 O   0  0  0  0  0  0  0  0  0  0  0  0
   34.3090   27.4680   50.1960 H   0  0  0  0  0  0  0  0  0  0  0  0
   36.1760   29.2810   50.9510 H   0  0  0  0  0  0  0  0  0  0  0  0
   36.7470   31.2670   48.8340 C   0  0  0  0  0  3  0  0  0  0  0  0
   37.6200   31.2720   47.5990 C   0  0  0  0  0  2  0  0  0  0  0  0
   38.5310   32.4530   47.9080 C   0  0  0  0  0  2  0  0  0  0  0  0
   38.6220   32.5080   49.4270 C   0  0  0  0  0  2  0  0  0  0  0  0
   37.8180   31.3000   49.9060 C   0  0  0  0  0  2  0  0  0  0  0  0
   33.3650   27.9280   47.5550 C   0  0  0  0  0  0  0  0  0  0  0  0
   32.1800   27.9550   47.9290 O   0  0  0  0  0  0  0  0  0  0  0  0
   34.2790   25.1540   45.3770 C   0  0  0  0  0  0  0  0  0  0  0  0
   34.5680   25.7830   44.1660 C   0  0  0  0  0  0  0  0  0  0  0  0
   34.4540   27.1570   44.0800 C   0  0  0  0  0  0  0  0  0  0  0  0
   34.0630   27.8230   45.1950 N   0  0  0  0  0  0  0  0  0  0  0  0
   33.7840   27.2020   46.3700 C   0  0  0  0  0  0  0  0  0  0  0  0
   33.8990   25.8700   46.4410 N   0  0  0  0  0  0  0  0  0  0  0  0
   34.3850   24.0830   45.3870 H   0  0  0  0  0  0  0  0  0  0  0  0
   34.8830   25.3120   43.2480 H   0  0  0  0  0  0  0  0  0  0  0  0
   34.6330   27.8080   43.2370 H   0  0  0  0  0  0  0  0  0  0  0  0
  1  2  2  0  0  0  0
  2  3  1  0  0  0  0
  2  6  1  0  0  0  0
  3  7  1  0  0  0  0
  4  3  2  0  0  0  0
  5  1  1  0  0  0  0
  5  4  1  0  0  0  0
  8  4  1  0  0  0  0
  8 12  1  0  0  0  0
  9 10  1  0  0  0  0
  9  8  1  0  0  0  0
 10 11  1  0  0  0  0
 11 12  1  0  0  0  0
 13 14  2  0  0  0  0
 13  1  1  0  0  0  0
 15 21  1  0  0  0  0
 15 20  1  0  0  0  0
 16 15  2  0  0  0  0
 17 16  1  0  0  0  0
 17 18  2  0  0  0  0
 18 19  1  0  0  0  0
 19 20  2  0  0  0  0
 19 13  1  0  0  0  0
 22 16  1  0  0  0  0
 23 17  1  0  0  0  0
M  END
>  <minimizedAffinity>
-4.88918686

>  <minimizedRMSD>
3.54819775

$$$$
