
 OpenBabel03272510273D

 41 45  0  0  1  0  0  0  0  0999 V2000
   36.1890   30.1640   46.9790 C   0  0  0  0  0  0  0  0  0  0  0  0
   37.0340   30.7180   47.9390 C   0  0  0  0  0  0  0  0  0  0  0  0
   38.0280   31.6340   47.5830 C   0  0  0  0  0  0  0  0  0  0  0  0
   38.1200   31.9540   46.2330 C   0  0  0  0  0  0  0  0  0  0  0  0
   39.0000   32.8170   45.6450 N   0  0  0  0  0  0  0  0  0  0  0  0
   38.7170   32.8100   44.3350 C   0  0  0  0  0  0  0  0  0  0  0  0
   37.7100   31.9840   44.1000 N   0  0  0  0  0  0  0  0  0  0  0  0
   37.3080   31.4310   45.2570 C   0  0  0  0  0  0  0  0  0  0  0  0
   36.3230   30.5150   45.6470 C   0  0  0  0  0  0  0  0  0  0  0  0
   35.4180   29.4540   47.2520 H   0  0  0  0  0  0  0  0  0  0  0  0
   38.6920   32.0730   48.3240 H   0  0  0  0  0  0  0  0  0  0  0  0
   39.7540   33.3790   46.1270 H   0  0  0  0  0  0  0  0  0  0  0  0
   35.6830   30.1030   44.8760 H   0  0  0  0  0  0  0  0  0  0  0  0
   37.4080   30.0960   51.6160 C   0  0  0  0  0  0  0  0  0  0  0  0
   37.7450   30.5470   50.3530 C   0  0  0  0  0  0  0  0  0  0  0  0
   36.8590   30.3230   49.3240 C   0  0  0  0  0  0  0  0  0  0  0  0
   35.6860   29.6590   49.6280 N   0  0  0  0  0  0  0  0  0  0  0  0
   35.3800   29.2290   50.8680 C   0  0  0  0  0  0  0  0  0  0  0  0
   36.2330   29.4470   51.8440 N   0  0  0  0  0  0  0  0  0  0  0  0
   38.1640   30.3140   52.3680 H   0  0  0  0  0  0  0  0  0  0  0  0
   38.6580   31.0670   50.1020 H   0  0  0  0  0  0  0  0  0  0  0  0
   34.4430   28.7160   51.0350 H   0  0  0  0  0  0  0  0  0  0  0  0
   39.4220   33.5840   43.4120 O   0  0  0  0  0  0  0  0  0  0  0  0
   39.9280   31.6590   42.2460 N   0  0  0  0  0  0  0  0  0  0  0  0
   39.5130   33.0460   42.1010 C   0  0  1  0  0  0  0  0  0  0  0  0
   38.2340   33.1260   41.4150 C   0  0  0  0  0  0  0  0  0  0  0  0
   38.3840   32.6040   40.1180 O   0  0  0  0  0  0  0  0  0  0  0  0
   38.8920   31.3380   40.0510 C   0  0  0  0  0  0  0  0  0  0  0  0
   40.1510   31.2190   40.8910 C   0  0  2  0  0  0  0  0  0  0  0  0
   39.2620   31.0070   42.6310 H   0  0  0  0  0  0  0  0  0  0  0  0
   40.3040   33.5510   41.5200 H   0  0  0  0  0  0  0  0  0  0  0  0
   38.0270   34.2240   41.2190 H   0  0  0  0  0  0  0  0  0  0  0  0
   37.3250   32.7090   41.7520 H   0  0  0  0  0  0  0  0  0  0  0  0
   38.1020   30.6450   40.3810 H   0  0  0  0  0  0  0  0  0  0  0  0
   39.2010   31.1560   39.0140 H   0  0  0  0  0  0  0  0  0  0  0  0
   40.8470   31.9730   40.4530 H   0  0  0  0  0  0  0  0  0  0  0  0
   40.8200   29.9040   40.7740 C   0  0  0  0  0  3  0  0  0  0  0  0
   41.2010   29.5910   39.3500 C   0  0  0  0  0  2  0  0  0  0  0  0
   41.7390   28.1660   39.5400 C   0  0  0  0  0  2  0  0  0  0  0  0
   40.6330   27.5590   40.3740 C   0  0  0  0  0  2  0  0  0  0  0  0
   39.9770   28.7210   41.1310 C   0  0  0  0  0  2  0  0  0  0  0  0
  1 10  1  0  0  0  0
  1  2  1  0  0  0  0
  2 16  1  0  0  0  0
  3  2  2  0  0  0  0
  3 11  1  0  0  0  0
  4  3  1  0  0  0  0
  5 12  1  0  0  0  0
  5  4  1  0  0  0  0
  6  5  1  0  0  0  0
  7  6  2  0  0  0  0
  7  8  1  0  0  0  0
  8  9  1  0  0  0  0
  8  4  2  0  0  0  0
  9  1  2  0  0  0  0
 13  9  1  0  0  0  0
 14 19  1  0  0  0  0
 14 20  1  0  0  0  0
 15 14  2  0  0  0  0
 16 17  2  0  0  0  0
 16 15  1  0  0  0  0
 17 18  1  0  0  0  0
 18 22  1  0  0  0  0
 18 19  2  0  0  0  0
 21 15  1  0  0  0  0
 23  6  1  0  0  0  0
 24 30  1  0  0  0  0
 25 31  1  6  0  0  0
 25 24  1  0  0  0  0
 25 23  1  0  0  0  0
 26 33  1  0  0  0  0
 26 25  1  0  0  0  0
 27 26  1  0  0  0  0
 28 27  1  0  0  0  0
 28 34  1  0  0  0  0
 28 29  1  0  0  0  0
 29 36  1  6  0  0  0
 29 24  1  0  0  0  0
 32 26  1  0  0  0  0
 35 28  1  0  0  0  0
 37 29  1  0  0  0  0
 37 41  1  0  0  0  0
 38 39  1  0  0  0  0
 38 37  1  0  0  0  0
 39 40  1  0  0  0  0
 40 41  1  0  0  0  0
M  END
>  <minimizedAffinity>
-5.93643379

>  <minimizedRMSD>
0.782853246

$$$$
