
 OpenBabel03272502223D

 22 24  0  0  0  0  0  0  0  0999 V2000
   36.1940   23.4160   31.8390 C   0  0  0  0  0  0  0  0  0  0  0  0
   35.5410   24.3760   31.0830 C   0  0  0  0  0  0  0  0  0  0  0  0
   35.7320   25.7400   31.2620 C   0  0  0  0  0  0  0  0  0  0  0  0
   36.5890   26.1500   32.2090 N   0  0  0  0  0  0  0  0  0  0  0  0
   37.2220   25.2210   32.9420 C   0  0  0  0  0  0  0  0  0  0  0  0
   37.0470   23.8940   32.7800 N   0  0  0  0  0  0  0  0  0  0  0  0
   34.8590   24.0160   30.3290 H   0  0  0  0  0  0  0  0  0  0  0  0
   35.1700   26.3940   30.6150 H   0  0  0  0  0  0  0  0  0  0  0  0
   34.9490   19.8500   31.9660 C   0  0  0  0  0  0  0  0  0  0  0  0
   35.0030   21.2310   32.2530 C   0  0  0  0  0  0  0  0  0  0  0  0
   35.9970   21.9850   31.6540 C   0  0  0  0  0  0  0  0  0  0  0  0
   36.8510   21.3460   30.8310 N   0  0  0  0  0  0  0  0  0  0  0  0
   36.7960   20.0240   30.5580 C   0  0  0  0  0  0  0  0  0  0  0  0
   35.8420   19.2830   31.1300 N   0  0  0  0  0  0  0  0  0  0  0  0
   34.1440   19.3360   32.4750 H   0  0  0  0  0  0  0  0  0  0  0  0
   34.3430   21.7640   32.8990 H   0  0  0  0  0  0  0  0  0  0  0  0
   37.4610   19.5010   29.9120 H   0  0  0  0  0  0  0  0  0  0  0  0
   38.1580   25.6790   33.9780 C   0  0  0  0  0  3  0  0  0  0  0  0
   39.2000   26.6420   33.3970 C   0  0  0  0  0  2  0  0  0  0  0  0
   39.8850   27.0640   34.7020 C   0  0  0  0  0  2  0  0  0  0  0  0
   38.7370   27.1590   35.7100 C   0  0  0  0  0  2  0  0  0  0  0  0
   37.5270   26.5520   35.0370 C   0  0  0  0  0  2  0  0  0  0  0  0
  1  6  1  0  0  0  0
  2  3  1  0  0  0  0
  2  1  2  0  0  0  0
  3  4  2  0  0  0  0
  4  5  1  0  0  0  0
  5 18  1  0  0  0  0
  6  5  2  0  0  0  0
  7  2  1  0  0  0  0
  8  3  1  0  0  0  0
  9 10  1  0  0  0  0
  9 15  1  0  0  0  0
 10 16  1  0  0  0  0
 11  1  1  0  0  0  0
 11 10  2  0  0  0  0
 12 11  1  0  0  0  0
 13 12  2  0  0  0  0
 13 14  1  0  0  0  0
 14  9  2  0  0  0  0
 17 13  1  0  0  0  0
 18 22  1  0  0  0  0
 19 18  1  0  0  0  0
 19 20  1  0  0  0  0
 20 21  1  0  0  0  0
 22 21  1  0  0  0  0
M  END
>  <minimizedAffinity>
-5.05109119

$$$$

 OpenBabel03272502223D

 22 24  0  0  0  0  0  0  0  0999 V2000
   38.4440   24.6780   36.0850 C   0  0  0  0  0  0  0  0  0  0  0  0
   37.9210   24.4840   37.3540 C   0  0  0  0  0  0  0  0  0  0  0  0
   38.4770   23.6070   38.2760 C   0  0  0  0  0  0  0  0  0  0  0  0
   39.5710   22.9140   37.9260 N   0  0  0  0  0  0  0  0  0  0  0  0
   40.0780   23.1010   36.6980 C   0  0  0  0  0  0  0  0  0  0  0  0
   39.5510   23.9490   35.7920 N   0  0  0  0  0  0  0  0  0  0  0  0
   37.0420   25.0550   37.6060 H   0  0  0  0  0  0  0  0  0  0  0  0
   37.9840   23.5380   39.2330 H   0  0  0  0  0  0  0  0  0  0  0  0
   36.9650   27.6710   34.3160 C   0  0  0  0  0  0  0  0  0  0  0  0
   37.5170   26.9120   35.3700 C   0  0  0  0  0  0  0  0  0  0  0  0
   37.8650   25.5970   35.1160 C   0  0  0  0  0  0  0  0  0  0  0  0
   37.6530   25.1280   33.8710 N   0  0  0  0  0  0  0  0  0  0  0  0
   37.1250   25.8570   32.8650 C   0  0  0  0  0  0  0  0  0  0  0  0
   36.7830   27.1290   33.0960 N   0  0  0  0  0  0  0  0  0  0  0  0
   36.7220   28.6870   34.6000 H   0  0  0  0  0  0  0  0  0  0  0  0
   37.6960   27.2550   36.3640 H   0  0  0  0  0  0  0  0  0  0  0  0
   36.9490   25.5050   31.8750 H   0  0  0  0  0  0  0  0  0  0  0  0
   41.2760   22.3380   36.3230 C   0  0  0  0  0  3  0  0  0  0  0  0
   42.5400   23.1970   36.4420 C   0  0  0  0  0  2  0  0  0  0  0  0
   43.5900   22.1130   36.1710 C   0  0  0  0  0  2  0  0  0  0  0  0
   43.0300   20.8730   36.8720 C   0  0  0  0  0  2  0  0  0  0  0  0
   41.6120   21.2110   37.2720 C   0  0  0  0  0  2  0  0  0  0  0  0
  1  2  1  0  0  0  0
  2  7  1  0  0  0  0
  2  3  2  0  0  0  0
  3  8  1  0  0  0  0
  4  3  1  0  0  0  0
  5  4  2  0  0  0  0
  6  1  2  0  0  0  0
  6  5  1  0  0  0  0
  9 15  1  0  0  0  0
  9 10  1  0  0  0  0
 10 16  1  0  0  0  0
 11 10  2  0  0  0  0
 11  1  1  0  0  0  0
 12 11  1  0  0  0  0
 13 14  1  0  0  0  0
 13 12  2  0  0  0  0
 14  9  2  0  0  0  0
 17 13  1  0  0  0  0
 18 19  1  0  0  0  0
 18  5  1  0  0  0  0
 18 22  1  0  0  0  0
 20 19  1  0  0  0  0
 20 21  1  0  0  0  0
 21 22  1  0  0  0  0
M  END
>  <minimizedAffinity>
-5.01388454

$$$$

 OpenBabel03272502223D

 22 24  0  0  0  0  0  0  0  0999 V2000
   37.9950   22.9880   34.5580 C   0  0  0  0  0  0  0  0  0  0  0  0
   38.1200   24.0480   33.6750 C   0  0  0  0  0  0  0  0  0  0  0  0
   37.6540   24.0040   32.3670 C   0  0  0  0  0  0  0  0  0  0  0  0
   37.0530   22.8840   31.9370 N   0  0  0  0  0  0  0  0  0  0  0  0
   36.9320   21.8570   32.7910 C   0  0  0  0  0  0  0  0  0  0  0  0
   37.3790   21.8850   34.0630 N   0  0  0  0  0  0  0  0  0  0  0  0
   38.6070   24.9350   34.0500 H   0  0  0  0  0  0  0  0  0  0  0  0
   37.8070   24.8890   31.7720 H   0  0  0  0  0  0  0  0  0  0  0  0
   40.0370   22.6930   37.7250 C   0  0  0  0  0  0  0  0  0  0  0  0
   39.7180   22.5760   36.3550 C   0  0  0  0  0  0  0  0  0  0  0  0
   38.4820   23.0310   35.9300 C   0  0  0  0  0  0  0  0  0  0  0  0
   37.6610   23.5580   36.8590 N   0  0  0  0  0  0  0  0  0  0  0  0
   37.9700   23.6690   38.1690 C   0  0  0  0  0  0  0  0  0  0  0  0
   39.1600   23.2330   38.5940 N   0  0  0  0  0  0  0  0  0  0  0  0
   41.0200   22.3130   37.9700 H   0  0  0  0  0  0  0  0  0  0  0  0
   40.3450   22.1630   35.5960 H   0  0  0  0  0  0  0  0  0  0  0  0
   37.3360   24.0820   38.9190 H   0  0  0  0  0  0  0  0  0  0  0  0
   36.2740   20.6340   32.3110 C   0  0  0  0  0  3  0  0  0  0  0  0
   37.3020   19.5870   31.8680 C   0  0  0  0  0  2  0  0  0  0  0  0
   36.3500   18.4150   31.6060 C   0  0  0  0  0  2  0  0  0  0  0  0
   35.3050   18.5320   32.7200 C   0  0  0  0  0  2  0  0  0  0  0  0
   35.5380   19.8680   33.3870 C   0  0  0  0  0  2  0  0  0  0  0  0
  1 11  1  0  0  0  0
  2  7  1  0  0  0  0
  2  1  2  0  0  0  0
  3  2  1  0  0  0  0
  4  3  2  0  0  0  0
  4  5  1  0  0  0  0
  5  6  2  0  0  0  0
  6  1  1  0  0  0  0
  8  3  1  0  0  0  0
  9 15  1  0  0  0  0
  9 14  1  0  0  0  0
 10  9  2  0  0  0  0
 11 10  1  0  0  0  0
 11 12  2  0  0  0  0
 12 13  1  0  0  0  0
 13 14  2  0  0  0  0
 13 17  1  0  0  0  0
 16 10  1  0  0  0  0
 18  5  1  0  0  0  0
 18 22  1  0  0  0  0
 19 18  1  0  0  0  0
 20 19  1  0  0  0  0
 20 21  1  0  0  0  0
 21 22  1  0  0  0  0
M  END
>  <minimizedAffinity>
-4.88747978

$$$$

 OpenBabel03272502223D

 22 24  0  0  0  0  0  0  0  0999 V2000
   38.1210   24.5830   34.7200 C   0  0  0  0  0  0  0  0  0  0  0  0
   38.1450   23.7930   33.5810 C   0  0  0  0  0  0  0  0  0  0  0  0
   37.7980   24.2670   32.3230 C   0  0  0  0  0  0  0  0  0  0  0  0
   37.4230   25.5500   32.2000 N   0  0  0  0  0  0  0  0  0  0  0  0
   37.3990   26.3150   33.3020 C   0  0  0  0  0  0  0  0  0  0  0  0
   37.7330   25.8690   34.5290 N   0  0  0  0  0  0  0  0  0  0  0  0
   38.4510   22.7670   33.7120 H   0  0  0  0  0  0  0  0  0  0  0  0
   37.8550   23.5610   31.5100 H   0  0  0  0  0  0  0  0  0  0  0  0
   39.7570   22.8510   37.6530 C   0  0  0  0  0  0  0  0  0  0  0  0
   39.5380   23.2350   36.3130 C   0  0  0  0  0  0  0  0  0  0  0  0
   38.4850   24.0890   36.0410 C   0  0  0  0  0  0  0  0  0  0  0  0
   37.7340   24.5010   37.0810 N   0  0  0  0  0  0  0  0  0  0  0  0
   37.9460   24.1320   38.3630 C   0  0  0  0  0  0  0  0  0  0  0  0
   38.9600   23.3060   38.6400 N   0  0  0  0  0  0  0  0  0  0  0  0
   40.5990   22.1820   37.7770 H   0  0  0  0  0  0  0  0  0  0  0  0
   40.1140   22.9260   35.4690 H   0  0  0  0  0  0  0  0  0  0  0  0
   37.3640   24.4450   39.1980 H   0  0  0  0  0  0  0  0  0  0  0  0
   36.9870   27.7180   33.1590 C   0  0  0  0  0  3  0  0  0  0  0  0
   35.8640   27.8630   32.1250 C   0  0  0  0  0  2  0  0  0  0  0  0
   35.5440   29.3490   32.3290 C   0  0  0  0  0  2  0  0  0  0  0  0
   35.6840   29.5520   33.8410 C   0  0  0  0  0  2  0  0  0  0  0  0
   36.3150   28.2910   34.3850 C   0  0  0  0  0  2  0  0  0  0  0  0
  1 11  1  0  0  0  0
  2  7  1  0  0  0  0
  2  1  2  0  0  0  0
  3  2  1  0  0  0  0
  4  3  2  0  0  0  0
  4  5  1  0  0  0  0
  5  6  2  0  0  0  0
  6  1  1  0  0  0  0
  8  3  1  0  0  0  0
  9 15  1  0  0  0  0
  9 14  1  0  0  0  0
 10  9  2  0  0  0  0
 11 10  1  0  0  0  0
 11 12  2  0  0  0  0
 12 13  1  0  0  0  0
 13 14  2  0  0  0  0
 13 17  1  0  0  0  0
 16 10  1  0  0  0  0
 18  5  1  0  0  0  0
 18 22  1  0  0  0  0
 19 20  1  0  0  0  0
 19 18  1  0  0  0  0
 20 21  1  0  0  0  0
 21 22  1  0  0  0  0
M  END
>  <minimizedAffinity>
-4.85427999

$$$$

 OpenBabel03272502223D

 22 24  0  0  0  0  0  0  0  0999 V2000
   36.6280   27.9180   33.6150 C   0  0  0  0  0  0  0  0  0  0  0  0
   36.4880   28.0890   32.2460 C   0  0  0  0  0  0  0  0  0  0  0  0
   35.8770   29.2010   31.6810 C   0  0  0  0  0  0  0  0  0  0  0  0
   35.4010   30.1560   32.4940 N   0  0  0  0  0  0  0  0  0  0  0  0
   35.5360   29.9900   33.8190 C   0  0  0  0  0  0  0  0  0  0  0  0
   36.1260   28.9180   34.3830 N   0  0  0  0  0  0  0  0  0  0  0  0
   36.8810   27.3050   31.6190 H   0  0  0  0  0  0  0  0  0  0  0  0
   35.8250   29.2260   30.6050 H   0  0  0  0  0  0  0  0  0  0  0  0
   38.3410   25.4720   35.9320 C   0  0  0  0  0  0  0  0  0  0  0  0
   37.7450   26.6790   35.5080 C   0  0  0  0  0  0  0  0  0  0  0  0
   37.2690   26.7540   34.2110 C   0  0  0  0  0  0  0  0  0  0  0  0
   37.4060   25.6610   33.4350 N   0  0  0  0  0  0  0  0  0  0  0  0
   37.9770   24.5070   33.8440 C   0  0  0  0  0  0  0  0  0  0  0  0
   38.4420   24.4210   35.0940 N   0  0  0  0  0  0  0  0  0  0  0  0
   38.6850   25.5000   36.9570 H   0  0  0  0  0  0  0  0  0  0  0  0
   37.6220   27.5600   36.0970 H   0  0  0  0  0  0  0  0  0  0  0  0
   38.0950   23.6330   33.2470 H   0  0  0  0  0  0  0  0  0  0  0  0
   35.0110   31.0400   34.7030 C   0  0  0  0  0  3  0  0  0  0  0  0
   33.7500   30.5690   35.4360 C   0  0  0  0  0  2  0  0  0  0  0  0
   33.5590   31.7670   36.3730 C   0  0  0  0  0  2  0  0  0  0  0  0
   34.9850   32.1560   36.7720 C   0  0  0  0  0  2  0  0  0  0  0  0
   35.9100   31.3680   35.8720 C   0  0  0  0  0  2  0  0  0  0  0  0
  1 11  1  0  0  0  0
  1  6  1  0  0  0  0
  2  1  2  0  0  0  0
  3  2  1  0  0  0  0
  3  4  2  0  0  0  0
  4  5  1  0  0  0  0
  5  6  2  0  0  0  0
  5 18  1  0  0  0  0
  7  2  1  0  0  0  0
  8  3  1  0  0  0  0
  9 15  1  0  0  0  0
 10  9  1  0  0  0  0
 10 16  1  0  0  0  0
 11 10  2  0  0  0  0
 12 13  2  0  0  0  0
 12 11  1  0  0  0  0
 13 14  1  0  0  0  0
 14  9  2  0  0  0  0
 17 13  1  0  0  0  0
 18 19  1  0  0  0  0
 18 22  1  0  0  0  0
 19 20  1  0  0  0  0
 20 21  1  0  0  0  0
 22 21  1  0  0  0  0
M  END
>  <minimizedAffinity>
-4.77318954

$$$$

 OpenBabel03272502223D

 22 24  0  0  0  0  0  0  0  0999 V2000
   37.1810   25.4460   32.5530 C   0  0  0  0  0  0  0  0  0  0  0  0
   36.3430   26.3520   31.9220 C   0  0  0  0  0  0  0  0  0  0  0  0
   35.3100   25.9670   31.0770 C   0  0  0  0  0  0  0  0  0  0  0  0
   35.1110   24.6580   30.8600 N   0  0  0  0  0  0  0  0  0  0  0  0
   35.9220   23.7800   31.4700 C   0  0  0  0  0  0  0  0  0  0  0  0
   36.9280   24.1380   32.2930 N   0  0  0  0  0  0  0  0  0  0  0  0
   36.5270   27.3970   32.1170 H   0  0  0  0  0  0  0  0  0  0  0  0
   34.7230   26.7600   30.6430 H   0  0  0  0  0  0  0  0  0  0  0  0
   39.2960   27.0050   35.2700 C   0  0  0  0  0  0  0  0  0  0  0  0
   38.1440   26.7220   34.5050 C   0  0  0  0  0  0  0  0  0  0  0  0
   38.2640   25.8460   33.4400 C   0  0  0  0  0  0  0  0  0  0  0  0
   39.4810   25.3180   33.2050 N   0  0  0  0  0  0  0  0  0  0  0  0
   40.5810   25.5900   33.9390 C   0  0  0  0  0  0  0  0  0  0  0  0
   40.4800   26.4350   34.9700 N   0  0  0  0  0  0  0  0  0  0  0  0
   39.1140   27.6980   36.0800 H   0  0  0  0  0  0  0  0  0  0  0  0
   37.1680   27.1240   34.6660 H   0  0  0  0  0  0  0  0  0  0  0  0
   41.5510   25.1840   33.7700 H   0  0  0  0  0  0  0  0  0  0  0  0
   35.6980   22.3490   31.2260 C   0  0  0  0  0  3  0  0  0  0  0  0
   37.0250   21.6030   31.0440 C   0  0  0  0  0  2  0  0  0  0  0  0
   36.4850   20.1690   30.9930 C   0  0  0  0  0  2  0  0  0  0  0  0
   35.3500   20.1640   32.0200 C   0  0  0  0  0  2  0  0  0  0  0  0
   35.1180   21.6060   32.4080 C   0  0  0  0  0  2  0  0  0  0  0  0
  1 11  1  0  0  0  0
  2  7  1  0  0  0  0
  2  1  2  0  0  0  0
  3  2  1  0  0  0  0
  4  3  2  0  0  0  0
  4  5  1  0  0  0  0
  5  6  2  0  0  0  0
  6  1  1  0  0  0  0
  8  3  1  0  0  0  0
  9 15  1  0  0  0  0
 10 16  1  0  0  0  0
 10  9  2  0  0  0  0
 11 10  1  0  0  0  0
 12 11  2  0  0  0  0
 12 13  1  0  0  0  0
 13 14  2  0  0  0  0
 14  9  1  0  0  0  0
 17 13  1  0  0  0  0
 18  5  1  0  0  0  0
 18 22  1  0  0  0  0
 19 18  1  0  0  0  0
 20 19  1  0  0  0  0
 20 21  1  0  0  0  0
 21 22  1  0  0  0  0
M  END
>  <minimizedAffinity>
-4.71441221

$$$$

 OpenBabel03272502223D

 22 24  0  0  0  0  0  0  0  0999 V2000
   37.1580   22.4230   33.0870 C   0  0  0  0  0  0  0  0  0  0  0  0
   37.1060   23.5980   32.3540 C   0  0  0  0  0  0  0  0  0  0  0  0
   37.6230   24.8020   32.8160 C   0  0  0  0  0  0  0  0  0  0  0  0
   38.2010   24.8310   34.0270 N   0  0  0  0  0  0  0  0  0  0  0  0
   38.2510   23.6940   34.7370 C   0  0  0  0  0  0  0  0  0  0  0  0
   37.7540   22.5180   34.3020 N   0  0  0  0  0  0  0  0  0  0  0  0
   36.6370   23.5430   31.3850 H   0  0  0  0  0  0  0  0  0  0  0  0
   37.5260   25.6510   32.1590 H   0  0  0  0  0  0  0  0  0  0  0  0
   34.9250   19.5250   32.1400 C   0  0  0  0  0  0  0  0  0  0  0  0
   35.2850   20.7900   32.6510 C   0  0  0  0  0  0  0  0  0  0  0  0
   36.6180   21.1590   32.6050 C   0  0  0  0  0  0  0  0  0  0  0  0
   37.4880   20.2800   32.0710 N   0  0  0  0  0  0  0  0  0  0  0  0
   37.1400   19.0710   31.5810 C   0  0  0  0  0  0  0  0  0  0  0  0
   35.8560   18.7000   31.6200 N   0  0  0  0  0  0  0  0  0  0  0  0
   33.8660   19.3160   32.2150 H   0  0  0  0  0  0  0  0  0  0  0  0
   34.6210   21.5060   33.0810 H   0  0  0  0  0  0  0  0  0  0  0  0
   37.8120   18.3620   31.1550 H   0  0  0  0  0  0  0  0  0  0  0  0
   38.8850   23.7340   36.0620 C   0  0  0  0  0  3  0  0  0  0  0  0
   37.8640   23.4670   37.1730 C   0  0  0  0  0  2  0  0  0  0  0  0
   38.8240   23.3980   38.3660 C   0  0  0  0  0  2  0  0  0  0  0  0
   40.0580   22.6830   37.8070 C   0  0  0  0  0  2  0  0  0  0  0  0
   39.8690   22.6140   36.3090 C   0  0  0  0  0  2  0  0  0  0  0  0
  1  6  1  0  0  0  0
  2  3  1  0  0  0  0
  2  1  2  0  0  0  0
  3  4  2  0  0  0  0
  4  5  1  0  0  0  0
  5 18  1  0  0  0  0
  6  5  2  0  0  0  0
  7  2  1  0  0  0  0
  8  3  1  0  0  0  0
  9 15  1  0  0  0  0
  9 10  1  0  0  0  0
 10 16  1  0  0  0  0
 11 10  2  0  0  0  0
 11  1  1  0  0  0  0
 12 11  1  0  0  0  0
 13 14  1  0  0  0  0
 13 12  2  0  0  0  0
 14  9  2  0  0  0  0
 17 13  1  0  0  0  0
 18 22  1  0  0  0  0
 18 19  1  0  0  0  0
 19 20  1  0  0  0  0
 21 20  1  0  0  0  0
 22 21  1  0  0  0  0
M  END
>  <minimizedAffinity>
-4.69306803

$$$$

 OpenBabel03272502223D

 22 24  0  0  0  0  0  0  0  0999 V2000
   35.0820   29.9840   34.4700 C   0  0  0  0  0  0  0  0  0  0  0  0
   34.6010   29.9780   33.1700 C   0  0  0  0  0  0  0  0  0  0  0  0
   35.0500   29.0920   32.2000 C   0  0  0  0  0  0  0  0  0  0  0  0
   35.9930   28.1970   32.5330 N   0  0  0  0  0  0  0  0  0  0  0  0
   36.4600   28.2030   33.7910 C   0  0  0  0  0  0  0  0  0  0  0  0
   36.0340   29.0560   34.7440 N   0  0  0  0  0  0  0  0  0  0  0  0
   33.8430   30.7080   32.9320 H   0  0  0  0  0  0  0  0  0  0  0  0
   34.6030   29.1800   31.2230 H   0  0  0  0  0  0  0  0  0  0  0  0
   34.7610   32.7330   37.0430 C   0  0  0  0  0  0  0  0  0  0  0  0
   35.3690   31.9170   36.0650 C   0  0  0  0  0  0  0  0  0  0  0  0
   34.6130   30.9110   35.4900 C   0  0  0  0  0  0  0  0  0  0  0  0
   33.3380   30.7780   35.9050 N   0  0  0  0  0  0  0  0  0  0  0  0
   32.7590   31.5610   36.8400 C   0  0  0  0  0  0  0  0  0  0  0  0
   33.4780   32.5360   37.4050 N   0  0  0  0  0  0  0  0  0  0  0  0
   35.4220   33.4920   37.4400 H   0  0  0  0  0  0  0  0  0  0  0  0
   36.3750   31.9970   35.7160 H   0  0  0  0  0  0  0  0  0  0  0  0
   31.7540   31.4720   37.1820 H   0  0  0  0  0  0  0  0  0  0  0  0
   37.4930   27.2200   34.1480 C   0  0  0  0  0  3  0  0  0  0  0  0
   38.6540   27.2490   33.1480 C   0  0  0  0  0  2  0  0  0  0  0  0
   39.6080   26.2860   33.8640 C   0  0  0  0  0  2  0  0  0  0  0  0
   39.4220   26.6180   35.3480 C   0  0  0  0  0  2  0  0  0  0  0  0
   38.2220   27.5330   35.4340 C   0  0  0  0  0  2  0  0  0  0  0  0
  1  6  1  0  0  0  0
  1 11  1  0  0  0  0
  2  1  2  0  0  0  0
  3  4  2  0  0  0  0
  3  2  1  0  0  0  0
  4  5  1  0  0  0  0
  5 18  1  0  0  0  0
  5  6  2  0  0  0  0
  7  2  1  0  0  0  0
  8  3  1  0  0  0  0
  9 14  1  0  0  0  0
  9 15  1  0  0  0  0
 10  9  2  0  0  0  0
 11 12  2  0  0  0  0
 11 10  1  0  0  0  0
 12 13  1  0  0  0  0
 13 17  1  0  0  0  0
 13 14  2  0  0  0  0
 16 10  1  0  0  0  0
 18 22  1  0  0  0  0
 19 20  1  0  0  0  0
 19 18  1  0  0  0  0
 20 21  1  0  0  0  0
 21 22  1  0  0  0  0
M  END
>  <minimizedAffinity>
-4.67347527

$$$$

 OpenBabel03272502223D

 22 24  0  0  0  0  0  0  0  0999 V2000
   36.0820   28.1870   32.2680 C   0  0  0  0  0  0  0  0  0  0  0  0
   36.2860   29.1240   31.2670 C   0  0  0  0  0  0  0  0  0  0  0  0
   36.1640   30.4920   31.4740 C   0  0  0  0  0  0  0  0  0  0  0  0
   35.8340   30.9300   32.6990 N   0  0  0  0  0  0  0  0  0  0  0  0
   35.6360   30.0240   33.6680 C   0  0  0  0  0  0  0  0  0  0  0  0
   35.7510   28.6940   33.4830 N   0  0  0  0  0  0  0  0  0  0  0  0
   36.5510   28.7420   30.2940 H   0  0  0  0  0  0  0  0  0  0  0  0
   36.3470   31.1260   30.6210 H   0  0  0  0  0  0  0  0  0  0  0  0
   37.1540   24.5640   32.3230 C   0  0  0  0  0  0  0  0  0  0  0  0
   37.1680   25.9400   32.6350 C   0  0  0  0  0  0  0  0  0  0  0  0
   36.2100   26.7520   32.0550 C   0  0  0  0  0  0  0  0  0  0  0  0
   35.3210   26.1700   31.2260 N   0  0  0  0  0  0  0  0  0  0  0  0
   35.3100   24.8530   30.9310 C   0  0  0  0  0  0  0  0  0  0  0  0
   36.2300   24.0560   31.4830 N   0  0  0  0  0  0  0  0  0  0  0  0
   37.9360   24.0030   32.8180 H   0  0  0  0  0  0  0  0  0  0  0  0
   37.8580   26.4300   33.2860 H   0  0  0  0  0  0  0  0  0  0  0  0
   34.6170   24.3740   30.2790 H   0  0  0  0  0  0  0  0  0  0  0  0
   35.2740   30.5120   35.0050 C   0  0  0  0  0  3  0  0  0  0  0  0
   35.9280   31.8680   35.2970 C   0  0  0  0  0  2  0  0  0  0  0  0
   35.2420   32.1800   36.6320 C   0  0  0  0  0  2  0  0  0  0  0  0
   33.8130   31.6620   36.4430 C   0  0  0  0  0  2  0  0  0  0  0  0
   33.8130   30.8660   35.1580 C   0  0  0  0  0  2  0  0  0  0  0  0
  1  6  1  0  0  0  0
  2  3  1  0  0  0  0
  2  1  2  0  0  0  0
  3  4  2  0  0  0  0
  4  5  1  0  0  0  0
  5 18  1  0  0  0  0
  6  5  2  0  0  0  0
  7  2  1  0  0  0  0
  8  3  1  0  0  0  0
  9 10  1  0  0  0  0
  9 15  1  0  0  0  0
 10 16  1  0  0  0  0
 11  1  1  0  0  0  0
 11 10  2  0  0  0  0
 12 11  1  0  0  0  0
 13 12  2  0  0  0  0
 13 14  1  0  0  0  0
 14  9  2  0  0  0  0
 17 13  1  0  0  0  0
 18 22  1  0  0  0  0
 18 19  1  0  0  0  0
 19 20  1  0  0  0  0
 21 20  1  0  0  0  0
 22 21  1  0  0  0  0
M  END
>  <minimizedAffinity>
-4.63644028

$$$$
