
 OpenBabel03272504393D

 40 42  0  0  0  0  0  0  0  0999 V2000
   37.6570   30.4430   48.5180 Cl  0  0  0  0  0  0  0  0  0  0  0  0
   36.4830   30.2950   47.2110 C   0  0  0  0  0  0  0  0  0  0  0  0
   36.8360   30.6850   45.9550 C   0  0  0  0  0  0  0  0  0  0  0  0
   35.9360   30.5730   44.9320 C   0  0  0  0  0  0  0  0  0  0  0  0
   34.6780   30.0630   45.1980 C   0  0  0  0  0  0  0  0  0  0  0  0
   34.3670   29.6780   46.5010 C   0  0  0  0  0  0  0  0  0  0  0  0
   35.2490   29.7820   47.5330 C   0  0  0  0  0  0  0  0  0  0  0  0
   36.2510   30.8960   43.9290 H   0  0  0  0  0  0  0  0  0  0  0  0
   34.0460   30.0180   44.3160 H   0  0  0  0  0  0  0  0  0  0  0  0
   33.3950   29.3270   46.4990 H   0  0  0  0  0  0  0  0  0  0  0  0
   39.8310   32.8470   45.9520 C   0  0  0  0  0  0  0  0  0  0  0  0
   40.6890   32.1230   45.0840 C   0  0  0  0  0  0  0  0  0  0  0  0
   40.2060   30.9400   44.5470 C   0  0  0  0  0  0  0  0  0  0  0  0
   38.9500   30.5170   44.8610 N   0  0  0  0  0  0  0  0  0  0  0  0
   38.1620   31.2250   45.6850 C   0  0  0  0  0  0  0  0  0  0  0  0
   38.6050   32.3790   46.2220 N   0  0  0  0  0  0  0  0  0  0  0  0
   40.2060   33.7710   46.3720 H   0  0  0  0  0  0  0  0  0  0  0  0
   41.6690   32.5440   44.8990 H   0  0  0  0  0  0  0  0  0  0  0  0
   41.0760   30.2340   43.6840 N   0  0  0  0  0  0  0  0  0  0  0  0
   40.6130   30.3110   42.7490 H   0  0  0  0  0  0  0  0  0  0  0  0
   41.9410   29.7910   44.0270 H   0  0  0  0  0  0  0  0  0  0  0  0
   34.9090   29.3890   48.8830 C   0  0  0  0  0  0  0  0  0  0  0  0
   34.3150   30.2450   49.3230 H   0  0  0  0  0  0  0  0  0  0  0  0
   35.8330   29.3830   49.5010 H   0  0  0  0  0  0  0  0  0  0  0  0
   34.1720   28.1530   49.1010 C   0  0  0  0  0  0  0  0  0  0  0  0
   34.6420   27.5090   49.8960 H   0  0  0  0  0  0  0  0  0  0  0  0
   34.2070   27.5130   48.1720 H   0  0  0  0  0  0  0  0  0  0  0  0
   32.8640   28.3840   49.4390 O   0  0  0  0  0  0  0  0  0  0  0  0
   32.5580   26.5720   47.5520 O   0  0  0  0  0  0  0  0  0  0  0  0
   31.8240   27.5910   48.3880 P   0  0  2  0  0  0  0  0  0  0  0  0
   31.1180   28.8050   47.4010 O   0  0  0  0  0  0  0  0  0  0  0  0
   30.7640   29.4900   48.0070 H   0  0  0  0  0  0  0  0  0  0  0  0
   30.5800   26.8260   49.1940 O   0  0  0  0  0  0  0  0  0  0  0  0
   29.4310   27.5100   49.6380 C   0  0  0  0  0  0  0  0  0  0  0  0
   28.7920   26.9510   50.7200 C   0  0  0  0  0  0  0  0  0  0  0  0
   28.9650   26.0870   51.3300 H   0  0  0  0  0  0  0  0  0  0  0  0
   27.3920   28.0840   50.9950 S   0  0  0  0  0  0  0  0  0  0  0  0
   27.9420   29.1660   49.5280 C   0  0  0  0  0  0  0  0  0  0  0  0
   27.6460   30.1540   48.9200 H   0  0  0  0  0  0  0  0  0  0  0  0
   28.8590   28.6120   49.1810 N   0  0  0  0  0  0  0  0  0  0  0  0
  2  7  1  0  0  0  0
  2  1  1  0  0  0  0
  3  2  2  0  0  0  0
  4  5  2  0  0  0  0
  4  3  1  0  0  0  0
  5  6  1  0  0  0  0
  6  7  2  0  0  0  0
  7 22  1  0  0  0  0
  8  4  1  0  0  0  0
  9  5  1  0  0  0  0
 10  6  1  0  0  0  0
 11 16  1  0  0  0  0
 11 17  1  0  0  0  0
 12 11  2  0  0  0  0
 13 14  2  0  0  0  0
 13 12  1  0  0  0  0
 14 15  1  0  0  0  0
 15  3  1  0  0  0  0
 15 16  2  0  0  0  0
 18 12  1  0  0  0  0
 19 21  1  0  0  0  0
 19 13  1  0  0  0  0
 20 19  1  0  0  0  0
 22 25  1  0  0  0  0
 22 23  1  0  0  0  0
 22 24  1  0  0  0  0
 25 28  1  0  0  0  0
 25 26  1  0  0  0  0
 27 25  1  0  0  0  0
 30 29  2  6  0  0  0
 30 33  1  0  0  0  0
 30 28  1  0  0  0  0
 31 32  1  0  0  0  0
 31 30  1  0  0  0  0
 33 34  1  0  0  0  0
 34 35  2  0  0  0  0
 35 37  1  0  0  0  0
 35 36  1  0  0  0  0
 38 37  1  0  0  0  0
 39 38  1  0  0  0  0
 40 38  2  0  0  0  0
 40 34  1  0  0  0  0
M  END
>  <minimizedAffinity>
-6.22261953

>  <minimizedRMSD>
1.32277989

$$$$
