
 OpenBabel03272506583D

 26 28  0  0  0  0  0  0  0  0999 V2000
   38.5000   31.9890   46.6530 C   0  0  0  0  0  0  0  0  0  0  0  0
   39.6730   32.6390   46.4000 C   0  0  0  0  0  0  0  0  0  0  0  0
   40.0940   33.2210   45.2300 C   0  0  0  0  0  0  0  0  0  0  0  0
   39.2060   33.1200   44.2040 N   0  0  0  0  0  0  0  0  0  0  0  0
   38.0230   32.4870   44.3920 C   0  0  0  0  0  0  0  0  0  0  0  0
   37.6650   31.9300   45.5830 N   0  0  0  0  0  0  0  0  0  0  0  0
   40.3830   32.7140   47.2340 H   0  0  0  0  0  0  0  0  0  0  0  0
   41.0340   33.7110   45.1190 H   0  0  0  0  0  0  0  0  0  0  0  0
   37.0250   29.7850   49.1300 C   0  0  0  0  0  0  0  0  0  0  0  0
   37.4870   30.2610   50.3510 C   0  0  0  0  0  0  0  0  0  0  0  0
   38.3370   31.3850   50.2940 C   0  0  0  0  0  0  0  0  0  0  0  0
   38.6550   31.9310   49.0940 N   0  0  0  0  0  0  0  0  0  0  0  0
   38.1670   31.4130   47.9410 C   0  0  0  0  0  0  0  0  0  0  0  0
   37.3380   30.3250   47.9230 N   0  0  0  0  0  0  0  0  0  0  0  0
   36.3740   28.9260   49.1680 H   0  0  0  0  0  0  0  0  0  0  0  0
   38.6980   31.7570   51.2430 H   0  0  0  0  0  0  0  0  0  0  0  0
   37.1030   29.6290   51.5560 N   0  0  0  0  0  0  0  0  0  0  0  0
   36.0700   29.4850   51.7590 H   0  0  0  0  0  0  0  0  0  0  0  0
   37.8170   29.3050   52.2450 H   0  0  0  0  0  0  0  0  0  0  0  0
   37.1100   32.4210   43.2260 C   0  0  0  0  0  0  0  0  0  0  0  0
   37.1880   33.0970   41.9320 C   0  0  0  0  0  0  0  0  0  0  0  0
   38.1190   33.7550   41.8950 H   0  0  0  0  0  0  0  0  0  0  0  0
   35.6650   32.4260   41.1510 S   0  0  0  0  0  0  0  0  0  0  0  0
   35.2120   31.4340   42.5660 C   0  0  0  0  0  0  0  0  0  0  0  0
   34.2950   30.8280   42.5150 H   0  0  0  0  0  0  0  0  0  0  0  0
   36.0830   31.5980   43.4690 N   0  0  0  0  0  0  0  0  0  0  0  0
  1 13  1  0  0  0  0
  2  1  1  0  0  0  0
  2  7  1  0  0  0  0
  3  2  2  0  0  0  0
  4  5  2  0  0  0  0
  4  3  1  0  0  0  0
  5  6  1  0  0  0  0
  6  1  2  0  0  0  0
  8  3  1  0  0  0  0
  9 15  1  0  0  0  0
  9 10  1  0  0  0  0
 10 17  1  0  0  0  0
 11 10  2  0  0  0  0
 11 16  1  0  0  0  0
 12 11  1  0  0  0  0
 13 12  2  0  0  0  0
 14 13  1  0  0  0  0
 14  9  2  0  0  0  0
 17 18  1  0  0  0  0
 17 19  1  0  0  0  0
 20 26  1  0  0  0  0
 20  5  1  0  0  0  0
 21 20  2  0  0  0  0
 22 21  1  0  0  0  0
 23 21  1  0  0  0  0
 23 24  1  0  0  0  0
 24 26  2  0  0  0  0
 25 24  1  0  0  0  0
M  END
>  <minimizedAffinity>
-5.18237543

>  <minimizedRMSD>
1.91980541

$$$$
