
 OpenBabel03272506413D

 17 18  0  0  0  0  0  0  0  0999 V2000
   37.2520   30.1630   51.4680 C   0  0  0  0  0  0  0  0  0  0  0  0
   38.1680   30.7100   50.5500 C   0  0  0  0  0  0  0  0  0  0  0  0
   37.9320   30.4940   49.1910 C   0  0  0  0  0  0  0  0  0  0  0  0
   36.8360   29.7710   48.8330 N   0  0  0  0  0  0  0  0  0  0  0  0
   35.9790   29.2620   49.7450 C   0  0  0  0  0  0  0  0  0  0  0  0
   36.1730   29.4480   51.0540 N   0  0  0  0  0  0  0  0  0  0  0  0
   37.3860   30.3000   52.5440 H   0  0  0  0  0  0  0  0  0  0  0  0
   38.9980   31.2630   50.9200 H   0  0  0  0  0  0  0  0  0  0  0  0
   38.6230   30.9060   48.4620 H   0  0  0  0  0  0  0  0  0  0  0  0
   34.5460   28.3150   49.2600 S   0  0  0  0  0  0  0  0  0  0  0  0
   34.0760   28.7190   47.5610 C   0  0  0  0  0  0  0  0  0  0  0  0
   33.8520   30.1260   47.3020 C   0  0  0  0  0  0  0  0  0  0  0  0
   33.9110   30.9680   47.9220 H   0  0  0  0  0  0  0  0  0  0  0  0
   33.4040   30.0300   45.4630 S   0  0  0  0  0  0  0  0  0  0  0  0
   33.6130   28.1430   45.4490 C   0  0  0  0  0  0  0  0  0  0  0  0
   33.4620   27.5400   44.5660 H   0  0  0  0  0  0  0  0  0  0  0  0
   33.9230   27.8700   46.5660 N   0  0  0  0  0  0  0  0  0  0  0  0
  1  7  1  0  0  0  0
  2  8  1  0  0  0  0
  2  1  2  0  0  0  0
  3  2  1  0  0  0  0
  4  3  2  0  0  0  0
  4  5  1  0  0  0  0
  5  6  2  0  0  0  0
  6  1  1  0  0  0  0
  9  3  1  0  0  0  0
 10  5  1  0  0  0  0
 11 10  1  0  0  0  0
 12 11  2  0  0  0  0
 12 13  1  0  0  0  0
 14 12  1  0  0  0  0
 15 14  1  0  0  0  0
 15 17  2  0  0  0  0
 16 15  1  0  0  0  0
 17 11  1  0  0  0  0
M  END
>  <minimizedAffinity>
-3.69088745

>  <minimizedRMSD>
0.891165137

$$$$
