
 OpenBabel03272507523D

 30 32  0  0  0  0  0  0  0  0999 V2000
   36.4680   31.1990   48.7370 N   0  0  0  0  0  0  0  0  0  0  0  0
   36.7390   32.0510   49.7200 C   0  0  0  0  0  0  0  0  0  0  0  0
   37.8020   32.9460   49.5850 C   0  0  0  0  0  0  0  0  0  0  0  0
   38.4850   32.8550   48.4140 C   0  0  0  0  0  0  0  0  0  0  0  0
   39.4490   33.6750   48.3040 O   0  0  0  0  0  0  0  0  0  0  0  0
   38.2470   32.0200   47.4090 N   0  0  0  0  0  0  0  0  0  0  0  0
   37.2070   31.1700   47.5840 C   0  0  0  0  0  0  0  0  0  0  0  0
   36.9640   30.3610   46.6290 O   0  0  0  0  0  0  0  0  0  0  0  0
   36.1330   32.0460   50.6190 H   0  0  0  0  0  0  0  0  0  0  0  0
   38.0400   33.6440   50.3670 H   0  0  0  0  0  0  0  0  0  0  0  0
   35.2450   29.5220   49.9980 C   0  0  0  0  0  0  0  0  0  0  0  0
   35.3960   30.2450   48.8000 C   0  0  0  0  0  0  0  0  0  0  0  0
   34.5120   30.0010   47.7430 C   0  0  0  0  0  0  0  0  0  0  0  0
   33.5440   29.0690   47.9290 N   0  0  0  0  0  0  0  0  0  0  0  0
   33.4030   28.3900   49.0550 C   0  0  0  0  0  0  0  0  0  0  0  0
   34.2450   28.6150   50.0790 N   0  0  0  0  0  0  0  0  0  0  0  0
   34.6570   30.5770   46.8300 H   0  0  0  0  0  0  0  0  0  0  0  0
   32.6270   27.6510   49.1900 H   0  0  0  0  0  0  0  0  0  0  0  0
   37.3880   29.2140   51.4490 C   0  0  0  0  0  0  0  0  0  0  0  0
   38.0590   28.5380   50.6390 O   0  0  0  0  0  0  0  0  0  0  0  0
   36.0710   29.6980   51.1280 N   0  0  0  0  0  0  0  0  0  0  0  0
   37.8640   29.4070   52.3960 H   0  0  0  0  0  0  0  0  0  0  0  0
   35.7020   30.2950   51.9250 H   0  0  0  0  0  0  0  0  0  0  0  0
   39.0260   31.9930   46.1970 C   0  0  0  0  0  0  0  0  0  0  0  0
   40.1660   31.1480   45.9900 C   0  0  0  0  0  0  0  0  0  0  0  0
   40.4960   30.4850   46.7470 H   0  0  0  0  0  0  0  0  0  0  0  0
   40.6560   31.5800   44.3480 S   0  0  0  0  0  0  0  0  0  0  0  0
   39.2490   32.8550   44.1470 C   0  0  0  0  0  0  0  0  0  0  0  0
   39.0880   33.4490   43.2510 H   0  0  0  0  0  0  0  0  0  0  0  0
   38.6840   32.7890   45.2000 N   0  0  0  0  0  0  0  0  0  0  0  0
  1 12  1  0  0  0  0
  1  2  1  0  0  0  0
  2  9  1  0  0  0  0
  3  2  2  0  0  0  0
  3 10  1  0  0  0  0
  4  3  1  0  0  0  0
  5  4  2  0  0  0  0
  6  7  1  0  0  0  0
  6  4  1  0  0  0  0
  7  1  1  0  0  0  0
  8  7  2  0  0  0  0
 11 16  1  0  0  0  0
 11 21  1  0  0  0  0
 12 11  2  0  0  0  0
 13 14  2  0  0  0  0
 13 12  1  0  0  0  0
 14 15  1  0  0  0  0
 15 18  1  0  0  0  0
 15 16  2  0  0  0  0
 17 13  1  0  0  0  0
 19 22  1  0  0  0  0
 20 19  2  0  0  0  0
 21 19  1  0  0  0  0
 21 23  1  0  0  0  0
 24  6  1  0  0  0  0
 25 24  2  0  0  0  0
 25 26  1  0  0  0  0
 27 25  1  0  0  0  0
 28 27  1  0  0  0  0
 28 30  2  0  0  0  0
 29 28  1  0  0  0  0
 30 24  1  0  0  0  0
M  END
>  <minimizedAffinity>
-5.88589573

>  <minimizedRMSD>
1.23459268

$$$$
