
 OpenBabel03272507553D

 21 22  0  0  0  0  0  0  0  0999 V2000
   35.3770   29.2340   50.5390 C   0  0  0  0  0  0  0  0  0  0  0  0
   36.2920   29.9660   49.7440 C   0  0  0  0  0  0  0  0  0  0  0  0
   36.2170   29.8180   48.3620 C   0  0  0  0  0  0  0  0  0  0  0  0
   35.2740   28.9830   47.8370 N   0  0  0  0  0  0  0  0  0  0  0  0
   34.4120   28.2960   48.6410 C   0  0  0  0  0  0  0  0  0  0  0  0
   34.4580   28.4180   49.9880 N   0  0  0  0  0  0  0  0  0  0  0  0
   33.5190   27.4880   47.8930 N   0  0  0  0  0  0  0  0  0  0  0  0
   35.3850   29.3070   51.6210 H   0  0  0  0  0  0  0  0  0  0  0  0
   32.6080   27.7640   47.4390 H   0  0  0  0  0  0  0  0  0  0  0  0
   34.0480   26.5710   47.9440 H   0  0  0  0  0  0  0  0  0  0  0  0
   37.1470   30.5610   47.5080 C   0  0  0  0  0  0  0  0  0  0  0  0
   36.6260   31.1070   46.3390 C   0  0  0  0  0  0  0  0  0  0  0  0
   35.6340   31.0970   45.9130 H   0  0  0  0  0  0  0  0  0  0  0  0
   38.0800   31.9310   45.5780 S   0  0  0  0  0  0  0  0  0  0  0  0
   39.1760   31.3640   47.0410 C   0  0  0  0  0  0  0  0  0  0  0  0
   40.2830   31.4960   47.3090 H   0  0  0  0  0  0  0  0  0  0  0  0
   38.4330   30.7990   47.6760 N   0  0  0  0  0  0  0  0  0  0  0  0
   37.2830   30.8510   50.4100 C   0  0  0  0  0  0  0  0  0  0  0  0
   38.5830   30.5050   50.0600 F   0  0  0  0  0  0  0  0  0  0  0  0
   37.0510   32.1390   50.0050 F   0  0  0  0  0  0  0  0  0  0  0  0
   37.1970   30.8060   51.7870 F   0  0  0  0  0  0  0  0  0  0  0  0
  1  8  1  0  0  0  0
  2 18  1  0  0  0  0
  2  1  2  0  0  0  0
  3  2  1  0  0  0  0
  4  3  2  0  0  0  0
  4  5  1  0  0  0  0
  5  6  2  0  0  0  0
  6  1  1  0  0  0  0
  7 10  1  0  0  0  0
  7  5  1  0  0  0  0
  9  7  1  0  0  0  0
 11 17  1  0  0  0  0
 11  3  1  0  0  0  0
 12 11  2  0  0  0  0
 13 12  1  0  0  0  0
 14 12  1  0  0  0  0
 14 15  1  0  0  0  0
 15 16  1  0  0  0  0
 15 17  2  0  0  0  0
 18 21  1  0  0  0  0
 19 18  1  0  0  0  0
 20 18  1  0  0  0  0
M  END
>  <minimizedAffinity>
-4.69310522

>  <minimizedRMSD>
1.09874701

$$$$
