
 OpenBabel03262521463D

 28 29  0  0  0  0  0  0  0  0999 V2000
   36.9400   29.2090   50.5990 C   0  0  0  0  0  0  0  0  0  0  0  0
   37.4700   28.2840   50.9110 H   0  0  0  0  0  0  0  0  0  0  0  0
   36.7270   29.0970   49.5040 H   0  0  0  0  0  0  0  0  0  0  0  0
   37.7210   30.4580   50.8320 C   0  0  0  0  0  0  0  0  0  0  0  0
   37.2350   31.1260   51.5820 H   0  0  0  0  0  0  0  0  0  0  0  0
   38.6840   30.1400   51.3300 H   0  0  0  0  0  0  0  0  0  0  0  0
   38.1030   31.1760   49.6270 C   0  0  0  0  0  0  0  0  0  0  0  0
   38.5360   32.4850   49.6400 C   0  0  0  0  0  0  0  0  0  0  0  0
   38.8830   33.0950   48.4250 C   0  0  0  0  0  0  0  0  0  0  0  0
   38.7690   32.3410   47.2810 N   0  0  0  0  0  0  0  0  0  0  0  0
   38.3390   31.0550   47.3060 C   0  0  0  0  0  0  0  0  0  0  0  0
   38.0090   30.4880   48.5010 N   0  0  0  0  0  0  0  0  0  0  0  0
   38.6100   33.0410   50.5640 H   0  0  0  0  0  0  0  0  0  0  0  0
   39.2290   34.1210   48.3760 H   0  0  0  0  0  0  0  0  0  0  0  0
   38.2710   30.5120   46.3650 H   0  0  0  0  0  0  0  0  0  0  0  0
   35.7050   29.3430   51.2440 O   0  0  0  0  0  0  0  0  0  0  0  0
   34.6900   30.6680   49.2500 O   0  0  0  0  0  0  0  0  0  0  0  0
   34.4420   29.4400   50.1390 P   0  0  2  0  0  0  0  0  0  0  0  0
   32.9750   29.7250   50.8970 O   0  0  0  0  0  0  0  0  0  0  0  0
   32.8150   29.2020   51.7040 H   0  0  0  0  0  0  0  0  0  0  0  0
   34.3180   28.0480   49.2180 O   0  0  0  0  0  0  0  0  0  0  0  0
   33.2930   27.9500   48.2540 C   0  0  0  0  0  0  0  0  0  0  0  0
   31.9590   27.4850   48.4930 C   0  0  0  0  0  0  0  0  0  0  0  0
   31.6910   27.1920   49.4230 H   0  0  0  0  0  0  0  0  0  0  0  0
   31.2500   27.6370   46.8440 S   0  0  0  0  0  0  0  0  0  0  0  0
   32.8830   28.3110   46.0910 C   0  0  0  0  0  0  0  0  0  0  0  0
   33.0310   28.5990   45.0150 H   0  0  0  0  0  0  0  0  0  0  0  0
   33.7960   28.3640   47.1040 N   0  0  0  0  0  0  0  0  0  0  0  0
  1  4  1  0  0  0  0
  1  2  1  0  0  0  0
  1 16  1  0  0  0  0
  3  1  1  0  0  0  0
  4  6  1  0  0  0  0
  4  5  1  0  0  0  0
  7  8  1  0  0  0  0
  7  4  1  0  0  0  0
  8 13  1  0  0  0  0
  9  8  2  0  0  0  0
 10 11  2  0  0  0  0
 10  9  1  0  0  0  0
 11 12  1  0  0  0  0
 12  7  2  0  0  0  0
 14  9  1  0  0  0  0
 15 11  1  0  0  0  0
 18 17  2  6  0  0  0
 18 19  1  0  0  0  0
 18 16  1  0  0  0  0
 19 20  1  0  0  0  0
 21 18  1  0  0  0  0
 22 23  2  0  0  0  0
 22 21  1  0  0  0  0
 23 24  1  0  0  0  0
 25 23  1  0  0  0  0
 26 25  1  0  0  0  0
 26 28  2  0  0  0  0
 27 26  1  0  0  0  0
 28 22  1  0  0  0  0
M  END
>  <minimizedAffinity>
-5.02054596

>  <minimizedRMSD>
0.213837534

$$$$
