
 OpenBabel03272500383D

 34 36  0  0  1  0  0  0  0  0999 V2000
   37.1500   30.5030   49.1690 C   0  0  0  0  0  0  0  0  0  0  0  0
   37.1830   31.6880   49.9350 C   0  0  0  0  0  0  0  0  0  0  0  0
   37.7890   32.8070   49.3580 C   0  0  0  0  0  0  0  0  0  0  0  0
   38.3070   32.6850   48.0980 N   0  0  0  0  0  0  0  0  0  0  0  0
   38.2500   31.5320   47.4090 C   0  0  0  0  0  0  0  0  0  0  0  0
   37.6730   30.4380   47.9370 N   0  0  0  0  0  0  0  0  0  0  0  0
   38.8240   31.5130   46.0940 N   0  0  0  0  0  0  0  0  0  0  0  0
   40.2130   31.1320   45.9450 C   0  0  0  0  0  0  0  0  0  0  0  0
   40.7920   32.1720   44.9820 C   0  0  0  0  0  0  0  0  0  0  0  0
   40.1580   31.8430   43.6580 C   0  0  0  0  0  0  0  0  0  0  0  0
   38.7060   32.1670   43.7180 C   0  0  0  0  0  0  0  0  0  0  0  0
   38.0030   31.8690   45.0030 C   0  0  1  0  0  0  0  0  0  0  0  0
   36.7590   31.7330   50.9260 H   0  0  0  0  0  0  0  0  0  0  0  0
   37.8280   33.7130   49.9120 H   0  0  0  0  0  0  0  0  0  0  0  0
   40.7530   31.1940   46.9070 H   0  0  0  0  0  0  0  0  0  0  0  0
   40.3290   30.1440   45.4410 H   0  0  0  0  0  0  0  0  0  0  0  0
   41.8750   31.8960   44.8840 H   0  0  0  0  0  0  0  0  0  0  0  0
   40.6110   33.1950   45.3160 H   0  0  0  0  0  0  0  0  0  0  0  0
   40.3480   30.7620   43.4750 H   0  0  0  0  0  0  0  0  0  0  0  0
   40.6320   32.4350   42.8520 H   0  0  0  0  0  0  0  0  0  0  0  0
   38.2220   31.5410   42.9230 H   0  0  0  0  0  0  0  0  0  0  0  0
   38.5770   33.2070   43.3540 H   0  0  0  0  0  0  0  0  0  0  0  0
   37.5230   32.8420   45.3040 H   0  0  0  0  0  0  0  0  0  0  0  0
   36.9450   30.8340   44.8300 C   0  0  0  0  0  0  0  0  0  0  0  0
   35.6500   30.8430   45.5390 C   0  0  0  0  0  0  0  0  0  0  0  0
   35.4800   31.7570   46.2980 H   0  0  0  0  0  0  0  0  0  0  0  0
   34.8630   29.3350   44.8640 S   0  0  0  0  0  0  0  0  0  0  0  0
   36.3250   28.9460   43.7860 C   0  0  0  0  0  0  0  0  0  0  0  0
   36.2980   28.0580   43.1510 H   0  0  0  0  0  0  0  0  0  0  0  0
   37.1120   29.8320   44.0070 N   0  0  0  0  0  0  0  0  0  0  0  0
   36.5030   29.2900   49.7710 C   0  0  0  0  0  0  0  0  0  0  0  0
   35.6590   29.6970   50.8160 F   0  0  0  0  0  0  0  0  0  0  0  0
   35.8660   28.6080   48.7970 F   0  0  0  0  0  0  0  0  0  0  0  0
   37.5080   28.5420   50.3700 F   0  0  0  0  0  0  0  0  0  0  0  0
  1 31  1  0  0  0  0
  1  2  1  0  0  0  0
  2 13  1  0  0  0  0
  3 14  1  0  0  0  0
  3  2  2  0  0  0  0
  4  3  1  0  0  0  0
  5  6  1  0  0  0  0
  5  4  2  0  0  0  0
  6  1  2  0  0  0  0
  7  5  1  0  0  0  0
  8  7  1  0  0  0  0
  8 15  1  0  0  0  0
  9 18  1  0  0  0  0
  9  8  1  0  0  0  0
 10 11  1  0  0  0  0
 10  9  1  0  0  0  0
 11 12  1  0  0  0  0
 12 23  1  1  0  0  0
 12  7  1  0  0  0  0
 16  8  1  0  0  0  0
 17  9  1  0  0  0  0
 19 10  1  0  0  0  0
 20 10  1  0  0  0  0
 21 11  1  0  0  0  0
 22 11  1  0  0  0  0
 24 12  1  0  0  0  0
 24 25  2  0  0  0  0
 25 26  1  0  0  0  0
 27 25  1  0  0  0  0
 28 30  2  0  0  0  0
 28 27  1  0  0  0  0
 29 28  1  0  0  0  0
 30 24  1  0  0  0  0
 31 34  1  0  0  0  0
 31 32  1  0  0  0  0
 33 31  1  0  0  0  0
M  END
>  <minimizedAffinity>
-5.82935905

>  <minimizedRMSD>
1.07002974

$$$$
