
 OpenBabel03272509473D

 23 24  0  0  0  0  0  0  0  0999 V2000
   34.1400   28.4540   48.5560 C   0  0  0  0  0  0  0  0  0  0  0  0
   33.1810   29.0360   48.5950 H   0  0  0  0  0  0  0  0  0  0  0  0
   34.7940   28.9810   47.8150 H   0  0  0  0  0  0  0  0  0  0  0  0
   33.8350   27.0990   47.9610 C   0  0  0  0  0  0  0  0  0  0  0  0
   33.1080   26.5800   48.5980 H   0  0  0  0  0  0  0  0  0  0  0  0
   34.7370   26.4820   47.8900 H   0  0  0  0  0  0  0  0  0  0  0  0
   33.2440   27.3820   46.6040 C   0  0  0  0  0  0  0  0  0  0  0  0
   31.8110   27.6380   46.6750 C   0  0  0  0  0  0  0  0  0  0  0  0
   31.0950   27.6700   47.4750 H   0  0  0  0  0  0  0  0  0  0  0  0
   31.3520   27.9470   44.9150 S   0  0  0  0  0  0  0  0  0  0  0  0
   33.1590   27.6790   44.3900 C   0  0  0  0  0  0  0  0  0  0  0  0
   33.9860   27.6420   43.4690 H   0  0  0  0  0  0  0  0  0  0  0  0
   33.6850   27.4570   45.3630 N   0  0  0  0  0  0  0  0  0  0  0  0
   34.7380   28.3100   49.8210 O   0  0  0  0  0  0  0  0  0  0  0  0
   37.3610   30.2400   51.4330 C   0  0  0  0  0  0  0  0  0  0  0  0
   38.0640   30.6670   50.2930 C   0  0  0  0  0  0  0  0  0  0  0  0
   37.6060   30.2730   49.0400 C   0  0  0  0  0  0  0  0  0  0  0  0
   36.4880   29.4880   49.0000 N   0  0  0  0  0  0  0  0  0  0  0  0
   35.8390   29.0980   50.1210 C   0  0  0  0  0  0  0  0  0  0  0  0
   36.2880   29.4830   51.3210 N   0  0  0  0  0  0  0  0  0  0  0  0
   37.6890   30.5290   52.4260 H   0  0  0  0  0  0  0  0  0  0  0  0
   38.9490   31.2940   50.3920 H   0  0  0  0  0  0  0  0  0  0  0  0
   38.1150   30.5770   48.1340 H   0  0  0  0  0  0  0  0  0  0  0  0
  1  2  1  0  0  0  0
  1 14  1  0  0  0  0
  3  1  1  0  0  0  0
  4  1  1  0  0  0  0
  4  5  1  0  0  0  0
  6  4  1  0  0  0  0
  7  8  2  0  0  0  0
  7  4  1  0  0  0  0
  8  9  1  0  0  0  0
 10  8  1  0  0  0  0
 11 10  1  0  0  0  0
 11 13  2  0  0  0  0
 12 11  1  0  0  0  0
 13  7  1  0  0  0  0
 14 19  1  0  0  0  0
 15 21  1  0  0  0  0
 16 22  1  0  0  0  0
 16 15  2  0  0  0  0
 17 16  1  0  0  0  0
 18 17  2  0  0  0  0
 18 19  1  0  0  0  0
 19 20  2  0  0  0  0
 20 15  1  0  0  0  0
 23 17  1  0  0  0  0
M  END
>  <minimizedAffinity>
-3.59002757

>  <minimizedRMSD>
0.0761108175

$$$$
