
 OpenBabel03272510123D

 33 36  0  0  0  0  0  0  0  0999 V2000
   33.6390   28.4620   48.4360 C   0  0  0  0  0  0  0  0  0  0  0  0
   34.5410   28.0670   49.3590 C   0  0  0  0  0  0  0  0  0  0  0  0
   35.6310   28.8150   49.7710 C   0  0  0  0  0  0  0  0  0  0  0  0
   35.8430   30.0490   49.2270 C   0  0  0  0  0  0  0  0  0  0  0  0
   34.9110   30.4690   48.2680 C   0  0  0  0  0  0  0  0  0  0  0  0
   33.8760   29.6880   47.9150 N   0  0  0  0  0  0  0  0  0  0  0  0
   34.4560   27.1040   49.8450 H   0  0  0  0  0  0  0  0  0  0  0  0
   36.3490   28.4980   50.5080 H   0  0  0  0  0  0  0  0  0  0  0  0
   34.9340   31.4140   47.7440 H   0  0  0  0  0  0  0  0  0  0  0  0
   31.3080   27.5820   48.7280 C   0  0  0  0  0  0  0  0  0  0  0  0
   32.5150   27.6820   48.0160 C   0  0  0  0  0  0  0  0  0  0  0  0
   32.5880   26.9640   46.8300 C   0  0  0  0  0  0  0  0  0  0  0  0
   31.5030   26.2160   46.4340 N   0  0  0  0  0  0  0  0  0  0  0  0
   30.3780   26.1670   47.1690 C   0  0  0  0  0  0  0  0  0  0  0  0
   30.2670   26.8530   48.3290 N   0  0  0  0  0  0  0  0  0  0  0  0
   31.2200   28.1310   49.6560 H   0  0  0  0  0  0  0  0  0  0  0  0
   33.4560   26.9510   46.1840 H   0  0  0  0  0  0  0  0  0  0  0  0
   29.5290   25.5780   46.8520 H   0  0  0  0  0  0  0  0  0  0  0  0
   36.8790   30.9360   49.5200 O   0  0  0  0  0  0  0  0  0  0  0  0
   37.6040   31.5660   48.5220 C   0  0  0  0  0  0  0  0  0  0  0  0
   38.5340   32.4810   48.9750 C   0  0  0  0  0  0  0  0  0  0  0  0
   39.1780   33.0270   47.8680 C   0  0  0  0  0  0  0  0  0  0  0  0
   38.6300   32.4370   46.7970 N   0  0  0  0  0  0  0  0  0  0  0  0
   37.7150   31.5890   47.1920 N   0  0  0  0  0  0  0  0  0  0  0  0
   38.8580   32.8520   49.9570 H   0  0  0  0  0  0  0  0  0  0  0  0
   39.9580   33.7620   47.7040 H   0  0  0  0  0  0  0  0  0  0  0  0
   38.8330   32.5370   45.3690 C   0  0  0  0  0  0  0  0  0  0  0  0
   40.1480   32.8060   44.6260 C   0  0  0  0  0  0  0  0  0  0  0  0
   40.9400   32.9140   45.3490 H   0  0  0  0  0  0  0  0  0  0  0  0
   39.5100   32.7710   42.9350 S   0  0  0  0  0  0  0  0  0  0  0  0
   37.7120   32.4280   43.4390 C   0  0  0  0  0  0  0  0  0  0  0  0
   37.0440   32.3460   42.6260 H   0  0  0  0  0  0  0  0  0  0  0  0
   37.6700   32.3610   44.7330 N   0  0  0  0  0  0  0  0  0  0  0  0
  1  2  1  0  0  0  0
  2  3  2  0  0  0  0
  2  7  1  0  0  0  0
  3  8  1  0  0  0  0
  4 19  1  0  0  0  0
  4  3  1  0  0  0  0
  5  4  2  0  0  0  0
  6  5  1  0  0  0  0
  6  1  2  0  0  0  0
  9  5  1  0  0  0  0
 10 16  1  0  0  0  0
 11  1  1  0  0  0  0
 11 10  2  0  0  0  0
 12 11  1  0  0  0  0
 13 12  2  0  0  0  0
 13 14  1  0  0  0  0
 14 15  2  0  0  0  0
 15 10  1  0  0  0  0
 17 12  1  0  0  0  0
 18 14  1  0  0  0  0
 20 21  1  0  0  0  0
 20 19  1  0  0  0  0
 21 25  1  0  0  0  0
 22 21  2  0  0  0  0
 23 24  1  0  0  0  0
 23 22  1  0  0  0  0
 24 20  2  0  0  0  0
 26 22  1  0  0  0  0
 27 23  1  0  0  0  0
 28 29  1  0  0  0  0
 28 27  2  0  0  0  0
 30 31  1  0  0  0  0
 30 28  1  0  0  0  0
 31 33  2  0  0  0  0
 32 31  1  0  0  0  0
 33 27  1  0  0  0  0
M  END
>  <minimizedAffinity>
-5.8955884

>  <minimizedRMSD>
1.68485057

$$$$
