
 OpenBabel03272509473D

 23 24  0  0  0  0  0  0  0  0999 V2000
   34.0680   28.4940   48.6130 C   0  0  0  0  0  0  0  0  0  0  0  0
   33.0860   29.0220   48.7530 H   0  0  0  0  0  0  0  0  0  0  0  0
   34.6510   29.1100   47.8820 H   0  0  0  0  0  0  0  0  0  0  0  0
   33.7900   27.1760   47.9270 C   0  0  0  0  0  0  0  0  0  0  0  0
   33.0070   26.6400   48.4780 H   0  0  0  0  0  0  0  0  0  0  0  0
   34.6860   26.5470   47.8940 H   0  0  0  0  0  0  0  0  0  0  0  0
   33.3110   27.5380   46.5440 C   0  0  0  0  0  0  0  0  0  0  0  0
   34.0340   28.6800   45.9970 C   0  0  0  0  0  0  0  0  0  0  0  0
   34.8230   29.3120   46.3620 H   0  0  0  0  0  0  0  0  0  0  0  0
   33.2670   28.9040   44.3340 S   0  0  0  0  0  0  0  0  0  0  0  0
   32.1120   27.4310   44.6610 C   0  0  0  0  0  0  0  0  0  0  0  0
   31.2020   26.7020   44.2430 H   0  0  0  0  0  0  0  0  0  0  0  0
   32.4070   27.0910   45.6950 N   0  0  0  0  0  0  0  0  0  0  0  0
   34.7460   28.2800   49.8270 O   0  0  0  0  0  0  0  0  0  0  0  0
   37.3580   30.2430   51.4150 C   0  0  0  0  0  0  0  0  0  0  0  0
   38.0500   30.6730   50.2700 C   0  0  0  0  0  0  0  0  0  0  0  0
   37.5880   30.2690   49.0210 C   0  0  0  0  0  0  0  0  0  0  0  0
   36.4790   29.4730   48.9910 N   0  0  0  0  0  0  0  0  0  0  0  0
   35.8410   29.0810   50.1170 C   0  0  0  0  0  0  0  0  0  0  0  0
   36.2920   29.4750   51.3130 N   0  0  0  0  0  0  0  0  0  0  0  0
   37.6900   30.5390   52.4060 H   0  0  0  0  0  0  0  0  0  0  0  0
   38.9300   31.3090   50.3610 H   0  0  0  0  0  0  0  0  0  0  0  0
   38.0890   30.5760   48.1110 H   0  0  0  0  0  0  0  0  0  0  0  0
  1  2  1  0  0  0  0
  1 14  1  0  0  0  0
  3  1  1  0  0  0  0
  4  5  1  0  0  0  0
  4  1  1  0  0  0  0
  6  4  1  0  0  0  0
  7  4  1  0  0  0  0
  8  9  1  0  0  0  0
  8  7  2  0  0  0  0
 10 11  1  0  0  0  0
 10  8  1  0  0  0  0
 11 13  2  0  0  0  0
 12 11  1  0  0  0  0
 13  7  1  0  0  0  0
 14 19  1  0  0  0  0
 15 21  1  0  0  0  0
 16 22  1  0  0  0  0
 16 15  2  0  0  0  0
 17 16  1  0  0  0  0
 18 17  2  0  0  0  0
 18 19  1  0  0  0  0
 19 20  2  0  0  0  0
 20 15  1  0  0  0  0
 23 17  1  0  0  0  0
M  END
>  <minimizedAffinity>
-3.60187507

>  <minimizedRMSD>
0.221675411

$$$$
