
 OpenBabel03272507553D

 21 22  0  0  0  0  0  0  0  0999 V2000
   34.9200   28.9780   50.1690 C   0  0  0  0  0  0  0  0  0  0  0  0
   36.0810   29.6860   49.7750 C   0  0  0  0  0  0  0  0  0  0  0  0
   36.0940   30.2600   48.5070 C   0  0  0  0  0  0  0  0  0  0  0  0
   34.9980   30.1170   47.7060 N   0  0  0  0  0  0  0  0  0  0  0  0
   33.9010   29.4250   48.1270 C   0  0  0  0  0  0  0  0  0  0  0  0
   33.8560   28.8560   49.3530 N   0  0  0  0  0  0  0  0  0  0  0  0
   32.8800   29.3990   47.1420 N   0  0  0  0  0  0  0  0  0  0  0  0
   34.8490   28.5090   51.1440 H   0  0  0  0  0  0  0  0  0  0  0  0
   32.1390   30.1220   46.9450 H   0  0  0  0  0  0  0  0  0  0  0  0
   33.1060   28.4620   46.7000 H   0  0  0  0  0  0  0  0  0  0  0  0
   37.2780   31.0020   48.0650 C   0  0  0  0  0  0  0  0  0  0  0  0
   37.4680   32.2660   48.6120 C   0  0  0  0  0  0  0  0  0  0  0  0
   36.8970   32.8400   49.3280 H   0  0  0  0  0  0  0  0  0  0  0  0
   39.0200   32.8390   47.8150 S   0  0  0  0  0  0  0  0  0  0  0  0
   39.1360   31.1940   46.8440 C   0  0  0  0  0  0  0  0  0  0  0  0
   39.8780   30.7650   46.0830 H   0  0  0  0  0  0  0  0  0  0  0  0
   38.2160   30.6500   47.2060 N   0  0  0  0  0  0  0  0  0  0  0  0
   37.2240   29.7870   50.7190 C   0  0  0  0  0  0  0  0  0  0  0  0
   38.4380   29.6230   50.0610 F   0  0  0  0  0  0  0  0  0  0  0  0
   37.2020   31.0300   51.2910 F   0  0  0  0  0  0  0  0  0  0  0  0
   37.1680   28.8440   51.7260 F   0  0  0  0  0  0  0  0  0  0  0  0
  1  8  1  0  0  0  0
  2  1  1  0  0  0  0
  2 18  1  0  0  0  0
  3  2  2  0  0  0  0
  4  5  2  0  0  0  0
  4  3  1  0  0  0  0
  5  6  1  0  0  0  0
  6  1  2  0  0  0  0
  7  5  1  0  0  0  0
  9  7  1  0  0  0  0
 10  7  1  0  0  0  0
 11  3  1  0  0  0  0
 11 12  2  0  0  0  0
 12 13  1  0  0  0  0
 14 12  1  0  0  0  0
 15 17  2  0  0  0  0
 15 14  1  0  0  0  0
 16 15  1  0  0  0  0
 17 11  1  0  0  0  0
 18 20  1  0  0  0  0
 18 21  1  0  0  0  0
 19 18  1  0  0  0  0
M  END
>  <minimizedAffinity>
-5.02041864

>  <minimizedRMSD>
1.25405264

$$$$
