
 OpenBabel03272509543D

 41 44  0  0  0  0  0  0  0  0999 V2000
   34.2900   28.7360   48.0960 C   0  0  0  0  0  0  0  0  0  0  0  0
   35.1630   28.8680   47.4180 H   0  0  0  0  0  0  0  0  0  0  0  0
   33.8000   29.7240   48.1970 H   0  0  0  0  0  0  0  0  0  0  0  0
   33.3930   27.6730   47.5540 C   0  0  0  0  0  0  0  0  0  0  0  0
   33.6690   26.6680   47.8980 H   0  0  0  0  0  0  0  0  0  0  0  0
   33.4860   27.6440   46.4300 H   0  0  0  0  0  0  0  0  0  0  0  0
   31.9590   27.9240   47.8120 C   0  0  0  0  0  0  0  0  0  0  0  0
   31.4210   27.4500   48.9980 C   0  0  0  0  0  0  0  0  0  0  0  0
   30.1130   27.6180   49.3480 C   0  0  0  0  0  0  0  0  0  0  0  0
   29.3150   28.2720   48.5060 N   0  0  0  0  0  0  0  0  0  0  0  0
   29.8290   28.7410   47.3410 C   0  0  0  0  0  0  0  0  0  0  0  0
   31.1270   28.5830   46.9740 N   0  0  0  0  0  0  0  0  0  0  0  0
   32.0700   26.9120   49.6960 H   0  0  0  0  0  0  0  0  0  0  0  0
   29.7210   27.2360   50.2830 H   0  0  0  0  0  0  0  0  0  0  0  0
   28.9280   29.4630   46.4180 C   0  0  0  0  0  0  0  0  0  0  0  0
   29.1940   29.6750   44.9960 C   0  0  0  0  0  0  0  0  0  0  0  0
   30.0770   29.2940   44.5980 H   0  0  0  0  0  0  0  0  0  0  0  0
   27.6060   30.6400   44.5930 S   0  0  0  0  0  0  0  0  0  0  0  0
   26.9770   30.5380   46.3680 C   0  0  0  0  0  0  0  0  0  0  0  0
   26.0170   31.0120   46.5610 H   0  0  0  0  0  0  0  0  0  0  0  0
   27.8270   29.9160   47.0000 N   0  0  0  0  0  0  0  0  0  0  0  0
   34.8620   28.3220   49.3380 O   0  0  0  0  0  0  0  0  0  0  0  0
   37.1320   30.0110   51.5790 C   0  0  0  0  0  0  0  0  0  0  0  0
   37.9030   30.7390   50.6460 C   0  0  0  0  0  0  0  0  0  0  0  0
   37.5910   30.6020   49.2970 C   0  0  0  0  0  0  0  0  0  0  0  0
   36.5480   29.7590   49.0070 N   0  0  0  0  0  0  0  0  0  0  0  0
   35.8330   29.0810   49.8990 C   0  0  0  0  0  0  0  0  0  0  0  0
   36.1380   29.2160   51.1960 N   0  0  0  0  0  0  0  0  0  0  0  0
   37.4160   30.1540   52.6040 H   0  0  0  0  0  0  0  0  0  0  0  0
   38.7170   31.3950   50.8970 H   0  0  0  0  0  0  0  0  0  0  0  0
   38.8000   33.2250   49.2670 F   0  0  0  0  0  0  0  0  0  0  0  0
   38.8320   32.4870   48.1720 C   0  0  0  0  0  0  0  0  0  0  0  0
   38.2570   31.2570   48.2100 C   0  0  0  0  0  0  0  0  0  0  0  0
   38.3480   30.5640   46.9980 C   0  0  0  0  0  0  0  0  0  0  0  0
   38.9650   31.0900   45.8840 C   0  0  0  0  0  0  0  0  0  0  0  0
   39.5320   32.3420   45.9020 C   0  0  0  0  0  0  0  0  0  0  0  0
   39.4530   33.0360   47.0740 C   0  0  0  0  0  0  0  0  0  0  0  0
   37.9230   29.5640   46.9040 H   0  0  0  0  0  0  0  0  0  0  0  0
   39.0040   30.4980   44.9690 H   0  0  0  0  0  0  0  0  0  0  0  0
   39.9930   32.6890   45.0040 H   0  0  0  0  0  0  0  0  0  0  0  0
   39.8940   34.0230   47.1070 H   0  0  0  0  0  0  0  0  0  0  0  0
  1  3  1  0  0  0  0
  1 22  1  0  0  0  0
  2  1  1  0  0  0  0
  4  7  1  0  0  0  0
  4  5  1  0  0  0  0
  4  1  1  0  0  0  0
  6  4  1  0  0  0  0
  7  8  1  0  0  0  0
  8  9  2  0  0  0  0
  8 13  1  0  0  0  0
  9 14  1  0  0  0  0
 10  9  1  0  0  0  0
 11 10  2  0  0  0  0
 12 11  1  0  0  0  0
 12  7  2  0  0  0  0
 15 21  1  0  0  0  0
 15 11  1  0  0  0  0
 16 15  2  0  0  0  0
 17 16  1  0  0  0  0
 18 16  1  0  0  0  0
 18 19  1  0  0  0  0
 19 20  1  0  0  0  0
 19 21  2  0  0  0  0
 22 27  1  0  0  0  0
 23 29  1  0  0  0  0
 24 30  1  0  0  0  0
 24 23  2  0  0  0  0
 25 24  1  0  0  0  0
 26 25  2  0  0  0  0
 26 27  1  0  0  0  0
 27 28  2  0  0  0  0
 28 23  1  0  0  0  0
 32 33  1  0  0  0  0
 32 31  1  0  0  0  0
 33 25  1  0  0  0  0
 34 33  2  0  0  0  0
 35 36  2  0  0  0  0
 35 34  1  0  0  0  0
 36 37  1  0  0  0  0
 37 41  1  0  0  0  0
 37 32  2  0  0  0  0
 38 34  1  0  0  0  0
 39 35  1  0  0  0  0
 40 36  1  0  0  0  0
M  END
>  <minimizedAffinity>
-6.63377047

>  <minimizedRMSD>
0.615960181

$$$$
