
 OpenBabel03272510243D

 30 33  0  0  0  0  0  0  0  0999 V2000
   36.0690   30.1090   46.5870 C   0  0  0  0  0  0  0  0  0  0  0  0
   36.9930   30.7340   47.4020 C   0  0  0  0  0  0  0  0  0  0  0  0
   37.9020   31.6130   46.8600 C   0  0  0  0  0  0  0  0  0  0  0  0
   37.8330   31.8300   45.4830 C   0  0  0  0  0  0  0  0  0  0  0  0
   38.6340   32.6580   44.7360 N   0  0  0  0  0  0  0  0  0  0  0  0
   38.2080   32.5450   43.4830 C   0  0  0  0  0  0  0  0  0  0  0  0
   37.1840   31.6920   43.3940 N   0  0  0  0  0  0  0  0  0  0  0  0
   36.9190   31.2200   44.6370 C   0  0  0  0  0  0  0  0  0  0  0  0
   36.0180   30.3390   45.2210 C   0  0  0  0  0  0  0  0  0  0  0  0
   35.3320   29.4090   46.9650 H   0  0  0  0  0  0  0  0  0  0  0  0
   38.6270   32.1100   47.4620 H   0  0  0  0  0  0  0  0  0  0  0  0
   39.4290   33.2640   45.0850 H   0  0  0  0  0  0  0  0  0  0  0  0
   35.3150   29.8720   44.5600 H   0  0  0  0  0  0  0  0  0  0  0  0
   37.7950   30.4580   51.0610 C   0  0  0  0  0  0  0  0  0  0  0  0
   37.9470   30.8180   49.7260 C   0  0  0  0  0  0  0  0  0  0  0  0
   36.9660   30.4290   48.8200 C   0  0  0  0  0  0  0  0  0  0  0  0
   35.8940   29.7060   49.2890 N   0  0  0  0  0  0  0  0  0  0  0  0
   35.7790   29.3720   50.5970 C   0  0  0  0  0  0  0  0  0  0  0  0
   36.7160   29.7430   51.4690 N   0  0  0  0  0  0  0  0  0  0  0  0
   38.6180   30.8170   51.6640 H   0  0  0  0  0  0  0  0  0  0  0  0
   38.7680   31.3810   49.3240 H   0  0  0  0  0  0  0  0  0  0  0  0
   34.9250   28.8070   50.9170 H   0  0  0  0  0  0  0  0  0  0  0  0
   38.7850   33.2440   42.4260 O   0  0  0  0  0  0  0  0  0  0  0  0
   38.0290   33.5930   41.3140 C   0  0  0  0  0  0  0  0  0  0  0  0
   38.6960   33.5100   40.0420 C   0  0  0  0  0  0  0  0  0  0  0  0
   39.6950   33.2180   39.8080 H   0  0  0  0  0  0  0  0  0  0  0  0
   37.3210   34.0610   38.8620 S   0  0  0  0  0  0  0  0  0  0  0  0
   36.1470   34.2850   40.3360 C   0  0  0  0  0  0  0  0  0  0  0  0
   35.0230   34.6240   40.4870 H   0  0  0  0  0  0  0  0  0  0  0  0
   36.7580   34.0010   41.2480 N   0  0  0  0  0  0  0  0  0  0  0  0
  1 10  1  0  0  0  0
  1  2  1  0  0  0  0
  2 16  1  0  0  0  0
  3  2  2  0  0  0  0
  3 11  1  0  0  0  0
  4  3  1  0  0  0  0
  5 12  1  0  0  0  0
  5  4  1  0  0  0  0
  6  5  1  0  0  0  0
  7  6  2  0  0  0  0
  7  8  1  0  0  0  0
  8  9  1  0  0  0  0
  8  4  2  0  0  0  0
  9  1  2  0  0  0  0
 13  9  1  0  0  0  0
 14 19  1  0  0  0  0
 14 20  1  0  0  0  0
 15 14  2  0  0  0  0
 16 17  2  0  0  0  0
 16 15  1  0  0  0  0
 17 18  1  0  0  0  0
 18 22  1  0  0  0  0
 18 19  2  0  0  0  0
 21 15  1  0  0  0  0
 23  6  1  0  0  0  0
 24 23  1  0  0  0  0
 25 24  2  0  0  0  0
 26 25  1  0  0  0  0
 27 25  1  0  0  0  0
 27 28  1  0  0  0  0
 28 29  1  0  0  0  0
 28 30  2  0  0  0  0
 30 24  1  0  0  0  0
M  END
>  <minimizedAffinity>
-5.20672894

>  <minimizedRMSD>
2.05381775

$$$$
