
 OpenBabel03272505033D

 27 29  0  0  0  0  0  0  0  0999 V2000
   37.6400   31.2690   46.5590 Cl  0  0  0  0  0  0  0  0  0  0  0  0
   38.4040   32.3620   47.6970 C   0  0  0  0  0  0  0  0  0  0  0  0
   38.1500   32.2000   49.0340 C   0  0  0  0  0  0  0  0  0  0  0  0
   38.7830   33.0970   49.8790 C   0  0  0  0  0  0  0  0  0  0  0  0
   39.6150   34.0830   49.3540 C   0  0  0  0  0  0  0  0  0  0  0  0
   39.8350   34.2000   48.0030 C   0  0  0  0  0  0  0  0  0  0  0  0
   39.2070   33.3090   47.1500 C   0  0  0  0  0  0  0  0  0  0  0  0
   38.6550   33.0640   50.9500 H   0  0  0  0  0  0  0  0  0  0  0  0
   40.0970   34.7720   50.0390 H   0  0  0  0  0  0  0  0  0  0  0  0
   40.4930   34.9850   47.6340 H   0  0  0  0  0  0  0  0  0  0  0  0
   37.8010   30.0270   50.2170 C   0  0  0  0  0  0  0  0  0  0  0  0
   37.2820   31.1700   49.5840 C   0  0  0  0  0  0  0  0  0  0  0  0
   35.9070   31.2750   49.5050 C   0  0  0  0  0  0  0  0  0  0  0  0
   35.1470   30.2870   50.0340 N   0  0  0  0  0  0  0  0  0  0  0  0
   35.6750   29.2040   50.6350 C   0  0  0  0  0  0  0  0  0  0  0  0
   37.0030   29.0790   50.7240 N   0  0  0  0  0  0  0  0  0  0  0  0
   38.8780   29.9120   50.2960 H   0  0  0  0  0  0  0  0  0  0  0  0
   35.4920   32.1500   49.0210 H   0  0  0  0  0  0  0  0  0  0  0  0
   35.0040   28.4690   51.0280 H   0  0  0  0  0  0  0  0  0  0  0  0
   39.4450   33.4470   45.7990 O   0  0  0  0  0  0  0  0  0  0  0  0
   40.0340   32.3440   45.1490 C   0  0  0  0  0  0  0  0  0  0  0  0
   39.5870   32.2680   43.8510 C   0  0  0  0  0  0  0  0  0  0  0  0
   38.9410   32.7590   43.1590 H   0  0  0  0  0  0  0  0  0  0  0  0
   40.4880   30.7640   43.2170 S   0  0  0  0  0  0  0  0  0  0  0  0
   41.3300   30.5360   44.9290 C   0  0  0  0  0  0  0  0  0  0  0  0
   42.0810   29.8760   45.5640 H   0  0  0  0  0  0  0  0  0  0  0  0
   40.8890   31.4010   45.4920 N   0  0  0  0  0  0  0  0  0  0  0  0
  1  2  1  0  0  0  0
  2  3  1  0  0  0  0
  3 12  1  0  0  0  0
  3  4  2  0  0  0  0
  4  8  1  0  0  0  0
  5  4  1  0  0  0  0
  5  9  1  0  0  0  0
  6  5  2  0  0  0  0
  7  2  2  0  0  0  0
  7  6  1  0  0  0  0
 10  6  1  0  0  0  0
 11 17  1  0  0  0  0
 11 16  1  0  0  0  0
 12 11  2  0  0  0  0
 13 12  1  0  0  0  0
 13 14  2  0  0  0  0
 14 15  1  0  0  0  0
 15 16  2  0  0  0  0
 15 19  1  0  0  0  0
 18 13  1  0  0  0  0
 20  7  1  0  0  0  0
 21 27  1  0  0  0  0
 21 20  1  0  0  0  0
 22 21  2  0  0  0  0
 23 22  1  0  0  0  0
 24 22  1  0  0  0  0
 24 25  1  0  0  0  0
 25 27  2  0  0  0  0
 25 26  1  0  0  0  0
M  END
>  <minimizedAffinity>
-4.6521945

>  <minimizedRMSD>
0.968651712

$$$$
