
 OpenBabel03272504573D

 31 33  0  0  1  0  0  0  0  0999 V2000
   36.7250   29.3240   49.8200 C   0  0  1  0  0  0  0  0  0  0  0  0
   36.1320   29.4090   51.1320 C   0  0  0  0  0  0  0  0  0  0  0  0
   35.2640   29.3230   49.9180 C   0  0  2  0  0  0  0  0  0  0  0  0
   37.1610   28.3520   49.4020 H   0  0  0  0  0  0  0  0  0  0  0  0
   36.5730   28.6370   51.7370 H   0  0  0  0  0  0  0  0  0  0  0  0
   36.1810   30.3980   51.6320 H   0  0  0  0  0  0  0  0  0  0  0  0
   34.5600   30.1400   49.9190 H   0  0  0  0  0  0  0  0  0  0  0  0
   37.3570   30.5270   49.1760 C   0  0  0  0  0  0  0  0  0  0  0  0
   38.0580   31.3890   50.0410 C   0  0  0  0  0  0  0  0  0  0  0  0
   38.6380   32.4800   49.4370 C   0  0  0  0  0  0  0  0  0  0  0  0
   38.5040   32.6570   48.0810 N   0  0  0  0  0  0  0  0  0  0  0  0
   37.8250   31.8070   47.2930 C   0  0  0  0  0  0  0  0  0  0  0  0
   37.2340   30.7090   47.8660 N   0  0  0  0  0  0  0  0  0  0  0  0
   37.6990   31.9600   45.9080 N   0  0  0  0  0  0  0  0  0  0  0  0
   38.1660   31.2530   51.1050 H   0  0  0  0  0  0  0  0  0  0  0  0
   39.1970   33.1990   50.0250 H   0  0  0  0  0  0  0  0  0  0  0  0
   38.4010   31.3720   45.3750 H   0  0  0  0  0  0  0  0  0  0  0  0
   37.0760   32.5160   45.3110 H   0  0  0  0  0  0  0  0  0  0  0  0
   34.6530   28.0810   49.7070 O   0  0  0  0  0  0  0  0  0  0  0  0
   33.8590   26.6540   47.7130 O   0  0  0  0  0  0  0  0  0  0  0  0
   33.8750   28.0560   48.2350 P   0  0  1  0  0  0  0  0  0  0  0  0
   32.2000   28.4460   48.4730 O   0  0  0  0  0  0  0  0  0  0  0  0
   31.8180   27.6910   48.9700 H   0  0  0  0  0  0  0  0  0  0  0  0
   34.5700   29.1770   47.2130 O   0  0  0  0  0  0  0  0  0  0  0  0
   33.9370   29.8230   46.1610 C   0  0  0  0  0  0  0  0  0  0  0  0
   34.4230   29.8680   44.8340 C   0  0  0  0  0  0  0  0  0  0  0  0
   35.3650   29.3710   44.5650 H   0  0  0  0  0  0  0  0  0  0  0  0
   33.1140   30.8670   43.9840 S   0  0  0  0  0  0  0  0  0  0  0  0
   32.1500   31.0330   45.6160 C   0  0  0  0  0  0  0  0  0  0  0  0
   31.2070   31.5950   45.6220 H   0  0  0  0  0  0  0  0  0  0  0  0
   32.7860   30.4570   46.3790 N   0  0  0  0  0  0  0  0  0  0  0  0
  1  4  1  6  0  0  0
  1  3  1  0  0  0  0
  1  2  1  0  0  0  0
  2  6  1  0  0  0  0
  2  5  1  0  0  0  0
  3  7  1  6  0  0  0
  3  2  1  0  0  0  0
  8  1  1  0  0  0  0
  8  9  1  0  0  0  0
  9 15  1  0  0  0  0
 10 16  1  0  0  0  0
 10  9  2  0  0  0  0
 11 10  1  0  0  0  0
 12 13  1  0  0  0  0
 12 11  2  0  0  0  0
 13  8  2  0  0  0  0
 14 12  1  0  0  0  0
 17 14  1  0  0  0  0
 18 14  1  0  0  0  0
 19  3  1  0  0  0  0
 21 20  2  6  0  0  0
 21 22  1  0  0  0  0
 21 19  1  0  0  0  0
 22 23  1  0  0  0  0
 24 21  1  0  0  0  0
 25 31  1  0  0  0  0
 25 24  1  0  0  0  0
 26 25  2  0  0  0  0
 27 26  1  0  0  0  0
 28 26  1  0  0  0  0
 28 29  1  0  0  0  0
 29 30  1  0  0  0  0
 29 31  2  0  0  0  0
M  END
>  <minimizedAffinity>
-5.41371965

>  <minimizedRMSD>
2.97754407

$$$$
