
 OpenBabel03272509243D

 22 23  0  0  0  0  0  0  0  0999 V2000
   36.6520   30.8770   47.7750 C   0  0  0  0  0  0  0  0  0  0  0  0
   36.3110   31.8970   47.6210 H   0  0  0  0  0  0  0  0  0  0  0  0
   36.2490   30.2410   46.9440 H   0  0  0  0  0  0  0  0  0  0  0  0
   36.3440   29.3770   51.2350 C   0  0  0  0  0  0  0  0  0  0  0  0
   36.9400   29.9510   50.0850 C   0  0  0  0  0  0  0  0  0  0  0  0
   36.1250   30.2830   49.0180 C   0  0  0  0  0  0  0  0  0  0  0  0
   34.7730   30.0480   49.1030 N   0  0  0  0  0  0  0  0  0  0  0  0
   34.2360   29.5010   50.2080 C   0  0  0  0  0  0  0  0  0  0  0  0
   35.0110   29.1620   51.2790 N   0  0  0  0  0  0  0  0  0  0  0  0
   36.9710   29.1220   52.0590 H   0  0  0  0  0  0  0  0  0  0  0  0
   37.9890   30.1070   50.0720 H   0  0  0  0  0  0  0  0  0  0  0  0
   33.1690   29.3190   50.2640 H   0  0  0  0  0  0  0  0  0  0  0  0
   38.1600   30.7300   47.6940 C   0  0  0  0  0  0  0  0  0  0  0  0
   38.4850   30.3760   46.6980 H   0  0  0  0  0  0  0  0  0  0  0  0
   38.5740   30.0550   48.4300 H   0  0  0  0  0  0  0  0  0  0  0  0
   38.7700   32.0890   47.9350 C   0  0  0  0  0  0  0  0  0  0  0  0
   39.5650   32.7250   46.7690 C   0  0  0  0  0  0  0  0  0  0  0  0
   39.6770   32.2690   45.8890 H   0  0  0  0  0  0  0  0  0  0  0  0
   40.0610   34.2730   47.5400 S   0  0  0  0  0  0  0  0  0  0  0  0
   39.2060   33.8900   49.1910 C   0  0  0  0  0  0  0  0  0  0  0  0
   39.2470   34.5920   50.0040 H   0  0  0  0  0  0  0  0  0  0  0  0
   38.6600   32.7580   49.0840 N   0  0  0  0  0  0  0  0  0  0  0  0
  1  6  1  0  0  0  0
  2  1  1  0  0  0  0
  3  1  1  0  0  0  0
  4  9  1  0  0  0  0
  4 10  1  0  0  0  0
  5  4  2  0  0  0  0
  6  7  2  0  0  0  0
  6  5  1  0  0  0  0
  7  8  1  0  0  0  0
  8 12  1  0  0  0  0
  8  9  2  0  0  0  0
 11  5  1  0  0  0  0
 13  1  1  0  0  0  0
 13 16  1  0  0  0  0
 13 15  1  0  0  0  0
 14 13  1  0  0  0  0
 16 22  1  0  0  0  0
 17 19  1  0  0  0  0
 17 16  2  0  0  0  0
 18 17  1  0  0  0  0
 19 20  1  0  0  0  0
 20 21  1  0  0  0  0
 22 20  2  0  0  0  0
M  END
>  <minimizedAffinity>
-3.77899432

>  <minimizedRMSD>
2.45221543

$$$$
