
 OpenBabel03272506423D

 30 32  0  0  1  0  0  0  0  0999 V2000
   32.4420   28.3900   47.5130 C   0  0  2  0  0  0  0  0  0  0  0  0
   33.6760   28.4520   48.4010 C   0  0  1  0  0  0  0  0  0  0  0  0
   34.2380   27.1960   48.4250 O   0  0  0  0  0  0  0  0  0  0  0  0
   33.5970   26.4030   47.5040 C   0  0  0  0  0  0  0  0  0  0  0  0
   32.8880   27.3490   46.5330 C   0  0  1  0  0  0  0  0  0  0  0  0
   31.5550   28.0250   48.0750 H   0  0  0  0  0  0  0  0  0  0  0  0
   33.3940   28.8580   49.3790 H   0  0  0  0  0  0  0  0  0  0  0  0
   32.8940   25.6760   47.9550 H   0  0  0  0  0  0  0  0  0  0  0  0
   34.3750   25.8950   46.8900 H   0  0  0  0  0  0  0  0  0  0  0  0
   33.5900   27.7310   45.7890 H   0  0  0  0  0  0  0  0  0  0  0  0
   32.1880   29.6140   46.9160 O   0  0  0  0  0  0  0  0  0  0  0  0
   31.9200   30.2550   47.6020 H   0  0  0  0  0  0  0  0  0  0  0  0
   34.8500   29.5610   47.5360 S   0  0  0  0  0  0  0  0  0  0  0  0
   37.4930   29.5340   50.4770 C   0  0  0  0  0  0  0  0  0  0  0  0
   38.0710   30.7990   50.4690 C   0  0  0  0  0  0  0  0  0  0  0  0
   37.6230   31.7130   49.5040 C   0  0  0  0  0  0  0  0  0  0  0  0
   36.6580   31.3000   48.6490 N   0  0  0  0  0  0  0  0  0  0  0  0
   36.1160   30.0730   48.6770 C   0  0  0  0  0  0  0  0  0  0  0  0
   36.5350   29.1790   49.6000 N   0  0  0  0  0  0  0  0  0  0  0  0
   37.8620   28.8510   51.2360 H   0  0  0  0  0  0  0  0  0  0  0  0
   38.8440   31.1210   51.1590 H   0  0  0  0  0  0  0  0  0  0  0  0
   38.0010   32.7180   49.4070 H   0  0  0  0  0  0  0  0  0  0  0  0
   31.8350   26.6800   45.9180 O   0  0  0  0  0  0  0  0  0  0  0  0
   31.8710   26.6360   44.5170 C   0  0  0  0  0  0  0  0  0  0  0  0
   31.2070   27.7970   43.9730 C   0  0  0  0  0  0  0  0  0  0  0  0
   30.7100   28.6570   44.3330 H   0  0  0  0  0  0  0  0  0  0  0  0
   31.3750   27.5330   42.1010 S   0  0  0  0  0  0  0  0  0  0  0  0
   32.3050   25.9130   42.4480 C   0  0  0  0  0  0  0  0  0  0  0  0
   32.8870   24.9080   41.9940 H   0  0  0  0  0  0  0  0  0  0  0  0
   32.3380   25.8410   43.5740 N   0  0  0  0  0  0  0  0  0  0  0  0
  1  6  1  1  0  0  0
  1  2  1  0  0  0  0
  2  3  1  0  0  0  0
  2  7  1  1  0  0  0
  4  8  1  0  0  0  0
  4  3  1  0  0  0  0
  5 10  1  6  0  0  0
  5  4  1  0  0  0  0
  5  1  1  0  0  0  0
  9  4  1  0  0  0  0
 11  1  1  0  0  0  0
 11 12  1  0  0  0  0
 13  2  1  0  0  0  0
 13 18  1  0  0  0  0
 14 20  1  0  0  0  0
 15 14  1  0  0  0  0
 15 21  1  0  0  0  0
 16 15  2  0  0  0  0
 17 18  2  0  0  0  0
 17 16  1  0  0  0  0
 18 19  1  0  0  0  0
 19 14  2  0  0  0  0
 22 16  1  0  0  0  0
 23  5  1  0  0  0  0
 24 23  1  0  0  0  0
 25 26  1  0  0  0  0
 25 24  2  0  0  0  0
 27 28  1  0  0  0  0
 27 25  1  0  0  0  0
 28 30  2  0  0  0  0
 29 28  1  0  0  0  0
 30 24  1  0  0  0  0
M  END
>  <minimizedAffinity>
-3.67991543

>  <minimizedRMSD>
0.0997364074

$$$$
