
 OpenBabel03272509473D

 23 24  0  0  0  0  0  0  0  0999 V2000
   34.1410   28.4560   48.5470 C   0  0  0  0  0  0  0  0  0  0  0  0
   33.1780   29.0330   48.5930 H   0  0  0  0  0  0  0  0  0  0  0  0
   34.7900   28.9930   47.8090 H   0  0  0  0  0  0  0  0  0  0  0  0
   33.8410   27.1050   47.9410 C   0  0  0  0  0  0  0  0  0  0  0  0
   33.2400   26.5170   48.6470 H   0  0  0  0  0  0  0  0  0  0  0  0
   34.7610   26.5520   47.7230 H   0  0  0  0  0  0  0  0  0  0  0  0
   33.0530   27.3940   46.6880 C   0  0  0  0  0  0  0  0  0  0  0  0
   33.7780   27.0020   45.4860 C   0  0  0  0  0  0  0  0  0  0  0  0
   34.7390   26.5580   45.3020 H   0  0  0  0  0  0  0  0  0  0  0  0
   32.6150   27.4550   44.1280 S   0  0  0  0  0  0  0  0  0  0  0  0
   31.3610   28.0910   45.4060 C   0  0  0  0  0  0  0  0  0  0  0  0
   30.2530   28.6020   45.6210 H   0  0  0  0  0  0  0  0  0  0  0  0
   31.8770   27.9100   46.3930 N   0  0  0  0  0  0  0  0  0  0  0  0
   34.7420   28.3040   49.8090 O   0  0  0  0  0  0  0  0  0  0  0  0
   37.3560   30.2370   51.4320 C   0  0  0  0  0  0  0  0  0  0  0  0
   38.0610   30.6670   50.2940 C   0  0  0  0  0  0  0  0  0  0  0  0
   37.6070   30.2740   49.0400 C   0  0  0  0  0  0  0  0  0  0  0  0
   36.4910   29.4880   48.9960 N   0  0  0  0  0  0  0  0  0  0  0  0
   35.8400   29.0940   50.1140 C   0  0  0  0  0  0  0  0  0  0  0  0
   36.2850   29.4770   51.3160 N   0  0  0  0  0  0  0  0  0  0  0  0
   37.6820   30.5240   52.4270 H   0  0  0  0  0  0  0  0  0  0  0  0
   38.9450   31.2960   50.3970 H   0  0  0  0  0  0  0  0  0  0  0  0
   38.1180   30.5820   48.1350 H   0  0  0  0  0  0  0  0  0  0  0  0
  1  2  1  0  0  0  0
  1 14  1  0  0  0  0
  3  1  1  0  0  0  0
  4  1  1  0  0  0  0
  4  5  1  0  0  0  0
  6  4  1  0  0  0  0
  7  4  1  0  0  0  0
  8  7  2  0  0  0  0
  9  8  1  0  0  0  0
 10 11  1  0  0  0  0
 10  8  1  0  0  0  0
 11 12  1  0  0  0  0
 11 13  2  0  0  0  0
 13  7  1  0  0  0  0
 14 19  1  0  0  0  0
 15 21  1  0  0  0  0
 16 22  1  0  0  0  0
 16 15  2  0  0  0  0
 17 16  1  0  0  0  0
 18 17  2  0  0  0  0
 18 19  1  0  0  0  0
 19 20  2  0  0  0  0
 20 15  1  0  0  0  0
 23 17  1  0  0  0  0
M  END
>  <minimizedAffinity>
-3.60700583

>  <minimizedRMSD>
0.278210312

$$$$
