
 OpenBabel03272502393D

 38 41  0  0  1  0  0  0  0  0999 V2000
   34.0600   30.0520   46.2480 N   0  0  0  0  0  0  0  0  0  0  0  0
   34.4520   29.8210   44.8660 C   0  0  0  0  0  0  0  0  0  0  0  0
   33.1420   29.8360   44.1340 C   0  0  0  0  0  0  0  0  0  0  0  0
   32.0330   29.9050   45.2770 C   0  0  1  0  0  0  0  0  0  0  0  0
   32.7420   30.7270   46.2620 C   0  0  0  0  0  0  0  0  0  0  0  0
   34.8590   28.7990   44.7700 H   0  0  0  0  0  0  0  0  0  0  0  0
   35.1210   30.5890   44.4580 H   0  0  0  0  0  0  0  0  0  0  0  0
   32.9540   30.7530   43.5590 H   0  0  0  0  0  0  0  0  0  0  0  0
   32.9050   28.9510   43.5500 H   0  0  0  0  0  0  0  0  0  0  0  0
   31.9480   28.8350   45.4980 H   0  0  0  0  0  0  0  0  0  0  0  0
   32.8780   31.7630   45.8590 H   0  0  0  0  0  0  0  0  0  0  0  0
   32.3350   30.7330   47.2760 H   0  0  0  0  0  0  0  0  0  0  0  0
   29.8500   28.2840   44.4860 F   0  0  0  0  0  0  0  0  0  0  0  0
   29.8110   29.6230   44.3910 C   0  0  0  0  0  0  0  0  0  0  0  0
   30.8230   30.4930   44.7000 C   0  0  0  0  0  0  0  0  0  0  0  0
   30.5820   31.8660   44.5360 C   0  0  0  0  0  0  0  0  0  0  0  0
   29.3810   32.3540   44.0840 C   0  0  0  0  0  0  0  0  0  0  0  0
   28.3680   31.4350   43.7770 C   0  0  0  0  0  0  0  0  0  0  0  0
   28.5940   30.0490   43.9350 C   0  0  0  0  0  0  0  0  0  0  0  0
   31.4350   32.4740   44.8010 H   0  0  0  0  0  0  0  0  0  0  0  0
   29.2660   33.4060   43.9850 H   0  0  0  0  0  0  0  0  0  0  0  0
   27.4760   31.9210   43.4330 H   0  0  0  0  0  0  0  0  0  0  0  0
   27.4480   29.2030   43.6030 C   0  0  0  0  0  0  0  0  0  0  0  0
   26.5370   28.8120   44.7060 C   0  0  0  0  0  0  0  0  0  0  0  0
   26.4210   28.9380   45.6840 H   0  0  0  0  0  0  0  0  0  0  0  0
   25.3190   27.8040   43.9370 S   0  0  0  0  0  0  0  0  0  0  0  0
   26.1370   27.9980   42.2250 C   0  0  0  0  0  0  0  0  0  0  0  0
   26.1250   27.7180   40.9810 H   0  0  0  0  0  0  0  0  0  0  0  0
   27.2810   28.8150   42.3490 N   0  0  0  0  0  0  0  0  0  0  0  0
   34.7740   29.7040   47.4070 C   0  0  0  0  0  0  0  0  0  0  0  0
   34.1660   28.7470   48.2330 C   0  0  0  0  0  0  0  0  0  0  0  0
   34.8160   28.3490   49.4130 C   0  0  0  0  0  0  0  0  0  0  0  0
   36.0350   28.9480   49.6730 N   0  0  0  0  0  0  0  0  0  0  0  0
   36.5830   29.8650   48.8500 C   0  0  0  0  0  0  0  0  0  0  0  0
   35.9450   30.2320   47.7260 N   0  0  0  0  0  0  0  0  0  0  0  0
   33.2340   28.2660   48.0690 H   0  0  0  0  0  0  0  0  0  0  0  0
   34.3880   27.6200   50.0760 H   0  0  0  0  0  0  0  0  0  0  0  0
   37.5300   30.3040   49.0880 H   0  0  0  0  0  0  0  0  0  0  0  0
  1  5  1  0  0  0  0
  1 30  1  0  0  0  0
  2  1  1  0  0  0  0
  3  2  1  0  0  0  0
  3  4  1  0  0  0  0
  4 10  1  1  0  0  0
  4  5  1  0  0  0  0
  5 12  1  0  0  0  0
  6  2  1  0  0  0  0
  7  2  1  0  0  0  0
  8  3  1  0  0  0  0
  9  3  1  0  0  0  0
 11  5  1  0  0  0  0
 14 13  1  0  0  0  0
 14 15  1  0  0  0  0
 15  4  1  0  0  0  0
 16 15  2  0  0  0  0
 16 20  1  0  0  0  0
 17 16  1  0  0  0  0
 18 19  1  0  0  0  0
 18 17  2  0  0  0  0
 19 14  2  0  0  0  0
 21 17  1  0  0  0  0
 22 18  1  0  0  0  0
 23 19  1  0  0  0  0
 23 24  2  0  0  0  0
 24 25  1  0  0  0  0
 26 24  1  0  0  0  0
 27 29  2  0  0  0  0
 27 26  1  0  0  0  0
 28 27  1  0  0  0  0
 29 23  1  0  0  0  0
 30 35  2  0  0  0  0
 30 31  1  0  0  0  0
 31 32  2  0  0  0  0
 32 33  1  0  0  0  0
 32 37  1  0  0  0  0
 34 38  1  0  0  0  0
 34 33  2  0  0  0  0
 35 34  1  0  0  0  0
 36 31  1  0  0  0  0
M  END
>  <minimizedAffinity>
-3.91947627

>  <minimizedRMSD>
9.77680874

$$$$
