
 OpenBabel03262521473D

 28 29  0  0  0  0  0  0  0  0999 V2000
   36.9710   29.1840   50.6860 C   0  0  0  0  0  0  0  0  0  0  0  0
   37.4770   28.3150   51.1570 H   0  0  0  0  0  0  0  0  0  0  0  0
   36.9050   28.9550   49.5900 H   0  0  0  0  0  0  0  0  0  0  0  0
   37.6870   30.4780   50.8840 C   0  0  0  0  0  0  0  0  0  0  0  0
   37.1470   31.1540   51.5880 H   0  0  0  0  0  0  0  0  0  0  0  0
   38.6460   30.2270   51.4260 H   0  0  0  0  0  0  0  0  0  0  0  0
   38.0750   31.1580   49.6600 C   0  0  0  0  0  0  0  0  0  0  0  0
   38.5190   32.4630   49.6370 C   0  0  0  0  0  0  0  0  0  0  0  0
   38.8720   33.0360   48.4050 C   0  0  0  0  0  0  0  0  0  0  0  0
   38.7510   32.2510   47.2830 N   0  0  0  0  0  0  0  0  0  0  0  0
   38.3100   30.9700   47.3440 C   0  0  0  0  0  0  0  0  0  0  0  0
   37.9750   30.4400   48.5530 N   0  0  0  0  0  0  0  0  0  0  0  0
   38.5980   33.0440   50.5450 H   0  0  0  0  0  0  0  0  0  0  0  0
   39.2260   34.0570   48.3270 H   0  0  0  0  0  0  0  0  0  0  0  0
   38.2370   30.4020   46.4180 H   0  0  0  0  0  0  0  0  0  0  0  0
   35.6600   29.3370   51.1510 O   0  0  0  0  0  0  0  0  0  0  0  0
   34.6210   31.0490   49.4910 O   0  0  0  0  0  0  0  0  0  0  0  0
   34.5800   29.5630   49.8820 P   0  0  2  0  0  0  0  0  0  0  0  0
   32.9990   29.2670   50.3520 O   0  0  0  0  0  0  0  0  0  0  0  0
   32.8710   28.4740   50.9040 H   0  0  0  0  0  0  0  0  0  0  0  0
   34.9510   28.5890   48.5740 O   0  0  0  0  0  0  0  0  0  0  0  0
   33.9040   27.9840   47.8470 C   0  0  0  0  0  0  0  0  0  0  0  0
   33.6920   26.5740   47.6990 C   0  0  0  0  0  0  0  0  0  0  0  0
   34.3280   25.9250   48.1400 H   0  0  0  0  0  0  0  0  0  0  0  0
   32.2130   26.5640   46.6720 S   0  0  0  0  0  0  0  0  0  0  0  0
   32.1180   28.4800   46.6070 C   0  0  0  0  0  0  0  0  0  0  0  0
   31.3340   29.0740   46.0630 H   0  0  0  0  0  0  0  0  0  0  0  0
   33.1680   28.9560   47.3370 N   0  0  0  0  0  0  0  0  0  0  0  0
  1  4  1  0  0  0  0
  1 16  1  0  0  0  0
  1  2  1  0  0  0  0
  3  1  1  0  0  0  0
  4  6  1  0  0  0  0
  4  5  1  0  0  0  0
  7  4  1  0  0  0  0
  8  7  1  0  0  0  0
  8 13  1  0  0  0  0
  9  8  2  0  0  0  0
 10 11  2  0  0  0  0
 10  9  1  0  0  0  0
 11 12  1  0  0  0  0
 12  7  2  0  0  0  0
 14  9  1  0  0  0  0
 15 11  1  0  0  0  0
 18 17  2  6  0  0  0
 18 19  1  0  0  0  0
 18 16  1  0  0  0  0
 19 20  1  0  0  0  0
 21 18  1  0  0  0  0
 22 21  1  0  0  0  0
 23 22  2  0  0  0  0
 23 24  1  0  0  0  0
 25 23  1  0  0  0  0
 26 25  1  0  0  0  0
 26 28  2  0  0  0  0
 27 26  1  0  0  0  0
 28 22  1  0  0  0  0
M  END
>  <minimizedAffinity>
-4.73521423

>  <minimizedRMSD>
0.521652281

$$$$
