
 OpenBabel03262521463D

 28 29  0  0  0  0  0  0  0  0999 V2000
   36.9610   29.2560   50.6280 C   0  0  0  0  0  0  0  0  0  0  0  0
   37.4900   28.3450   50.9810 H   0  0  0  0  0  0  0  0  0  0  0  0
   36.7680   29.1040   49.5340 H   0  0  0  0  0  0  0  0  0  0  0  0
   37.7340   30.5170   50.8290 C   0  0  0  0  0  0  0  0  0  0  0  0
   37.2420   31.2000   51.5620 H   0  0  0  0  0  0  0  0  0  0  0  0
   38.6970   30.2180   51.3380 H   0  0  0  0  0  0  0  0  0  0  0  0
   38.1130   31.2050   49.6070 C   0  0  0  0  0  0  0  0  0  0  0  0
   38.5350   32.5180   49.5870 C   0  0  0  0  0  0  0  0  0  0  0  0
   38.8810   33.0980   48.3570 C   0  0  0  0  0  0  0  0  0  0  0  0
   38.7760   32.3140   47.2330 N   0  0  0  0  0  0  0  0  0  0  0  0
   38.3560   31.0250   47.2910 C   0  0  0  0  0  0  0  0  0  0  0  0
   38.0270   30.4870   48.4990 N   0  0  0  0  0  0  0  0  0  0  0  0
   38.6020   33.0980   50.4960 H   0  0  0  0  0  0  0  0  0  0  0  0
   39.2180   34.1250   48.2820 H   0  0  0  0  0  0  0  0  0  0  0  0
   38.2960   30.4570   46.3640 H   0  0  0  0  0  0  0  0  0  0  0  0
   35.7160   29.4060   51.2480 O   0  0  0  0  0  0  0  0  0  0  0  0
   34.6950   30.5440   49.1430 O   0  0  0  0  0  0  0  0  0  0  0  0
   34.4640   29.3850   50.1250 P   0  0  2  0  0  0  0  0  0  0  0  0
   32.9820   29.6920   50.8410 O   0  0  0  0  0  0  0  0  0  0  0  0
   32.8240   29.2320   51.6850 H   0  0  0  0  0  0  0  0  0  0  0  0
   34.3850   27.9220   49.3160 O   0  0  0  0  0  0  0  0  0  0  0  0
   33.4530   27.7630   48.2690 C   0  0  0  0  0  0  0  0  0  0  0  0
   33.7730   27.5720   46.8840 C   0  0  0  0  0  0  0  0  0  0  0  0
   34.7420   27.5420   46.5950 H   0  0  0  0  0  0  0  0  0  0  0  0
   32.1230   27.4530   46.1730 S   0  0  0  0  0  0  0  0  0  0  0  0
   31.2600   27.6830   47.8730 C   0  0  0  0  0  0  0  0  0  0  0  0
   30.1480   27.6950   48.0410 H   0  0  0  0  0  0  0  0  0  0  0  0
   32.2470   27.8260   48.8050 N   0  0  0  0  0  0  0  0  0  0  0  0
  1  4  1  0  0  0  0
  1  2  1  0  0  0  0
  1 16  1  0  0  0  0
  3  1  1  0  0  0  0
  4  6  1  0  0  0  0
  4  5  1  0  0  0  0
  7  4  1  0  0  0  0
  8  7  1  0  0  0  0
  8 13  1  0  0  0  0
  9  8  2  0  0  0  0
 10 11  2  0  0  0  0
 10  9  1  0  0  0  0
 11 12  1  0  0  0  0
 12  7  2  0  0  0  0
 14  9  1  0  0  0  0
 15 11  1  0  0  0  0
 18 17  2  6  0  0  0
 18 19  1  0  0  0  0
 18 16  1  0  0  0  0
 19 20  1  0  0  0  0
 21 18  1  0  0  0  0
 22 28  1  0  0  0  0
 22 21  1  0  0  0  0
 23 22  2  0  0  0  0
 24 23  1  0  0  0  0
 25 23  1  0  0  0  0
 25 26  1  0  0  0  0
 26 27  1  0  0  0  0
 26 28  2  0  0  0  0
M  END
>  <minimizedAffinity>
-5.06074047

>  <minimizedRMSD>
0.0522406697

$$$$
