
 OpenBabel03272500073D

 37 40  0  0  0  0  0  0  0  0999 V2000
   35.0450   28.6840   48.9380 C   0  0  0  0  0  0  0  0  0  0  0  0
   35.0520   29.9110   48.2340 C   0  0  0  0  0  0  0  0  0  0  0  0
   33.9780   30.1690   47.3670 C   0  0  0  0  0  0  0  0  0  0  0  0
   32.9960   29.2390   47.2490 N   0  0  0  0  0  0  0  0  0  0  0  0
   33.0310   28.0770   47.9420 C   0  0  0  0  0  0  0  0  0  0  0  0
   34.0560   27.7890   48.7940 N   0  0  0  0  0  0  0  0  0  0  0  0
   35.8710   28.4740   49.6110 H   0  0  0  0  0  0  0  0  0  0  0  0
   33.9770   31.0980   46.8300 H   0  0  0  0  0  0  0  0  0  0  0  0
   36.1330   30.7970   48.4400 N   0  0  0  0  0  0  0  0  0  0  0  0
   36.3540   31.3850   49.6110 C   0  0  0  0  0  0  0  0  0  0  0  0
   37.4440   32.2490   49.7420 C   0  0  0  0  0  0  0  0  0  0  0  0
   38.2000   32.4150   48.6290 C   0  0  0  0  0  0  0  0  0  0  0  0
   39.1960   33.2020   48.7430 O   0  0  0  0  0  0  0  0  0  0  0  0
   38.0120   31.8460   47.4440 N   0  0  0  0  0  0  0  0  0  0  0  0
   36.9450   31.0160   47.3570 C   0  0  0  0  0  0  0  0  0  0  0  0
   36.7450   30.4590   46.2300 O   0  0  0  0  0  0  0  0  0  0  0  0
   35.6750   31.1680   50.4230 H   0  0  0  0  0  0  0  0  0  0  0  0
   37.6280   32.7300   50.6920 H   0  0  0  0  0  0  0  0  0  0  0  0
   38.6170   31.9970   46.6050 H   0  0  0  0  0  0  0  0  0  0  0  0
   32.0110   27.1140   47.8120 O   0  0  0  0  0  0  0  0  0  0  0  0
   30.7360   27.5370   48.1670 C   0  0  0  0  0  0  0  0  0  0  0  0
   30.5500   27.6670   49.5350 C   0  0  0  0  0  0  0  0  0  0  0  0
   29.3630   28.0760   50.0830 C   0  0  0  0  0  0  0  0  0  0  0  0
   28.3190   28.3660   49.2210 C   0  0  0  0  0  0  0  0  0  0  0  0
   28.5090   28.2360   47.8710 C   0  0  0  0  0  0  0  0  0  0  0  0
   29.7060   27.8220   47.3040 C   0  0  0  0  0  0  0  0  0  0  0  0
   31.3260   27.4560   50.2590 H   0  0  0  0  0  0  0  0  0  0  0  0
   29.2170   28.1770   51.1480 H   0  0  0  0  0  0  0  0  0  0  0  0
   27.3760   28.6890   49.5940 H   0  0  0  0  0  0  0  0  0  0  0  0
   27.6740   28.4700   47.2160 H   0  0  0  0  0  0  0  0  0  0  0  0
   29.8740   27.6970   45.8560 C   0  0  0  0  0  0  0  0  0  0  0  0
   30.1330   28.7780   45.0270 C   0  0  0  0  0  0  0  0  0  0  0  0
   30.2650   29.8380   45.1310 H   0  0  0  0  0  0  0  0  0  0  0  0
   30.2770   28.0020   43.3600 S   0  0  0  0  0  0  0  0  0  0  0  0
   29.9450   26.2800   44.1110 C   0  0  0  0  0  0  0  0  0  0  0  0
   29.9150   25.3800   43.5300 H   0  0  0  0  0  0  0  0  0  0  0  0
   29.8120   26.5290   45.2540 N   0  0  0  0  0  0  0  0  0  0  0  0
  1  7  1  0  0  0  0
  2  9  1  0  0  0  0
  2  1  2  0  0  0  0
  3  2  1  0  0  0  0
  4  3  2  0  0  0  0
  4  5  1  0  0  0  0
  5  6  2  0  0  0  0
  6  1  1  0  0  0  0
  8  3  1  0  0  0  0
  9 10  1  0  0  0  0
 10 11  2  0  0  0  0
 10 17  1  0  0  0  0
 11 18  1  0  0  0  0
 12 13  2  0  0  0  0
 12 11  1  0  0  0  0
 14 12  1  0  0  0  0
 15 14  1  0  0  0  0
 15  9  1  0  0  0  0
 16 15  2  0  0  0  0
 19 14  1  0  0  0  0
 20  5  1  0  0  0  0
 20 21  1  0  0  0  0
 21 22  1  0  0  0  0
 22 23  2  0  0  0  0
 22 27  1  0  0  0  0
 23 28  1  0  0  0  0
 24 29  1  0  0  0  0
 24 23  1  0  0  0  0
 25 24  2  0  0  0  0
 26 25  1  0  0  0  0
 26 21  2  0  0  0  0
 30 25  1  0  0  0  0
 31 26  1  0  0  0  0
 32 33  1  0  0  0  0
 32 31  2  0  0  0  0
 34 35  1  0  0  0  0
 34 32  1  0  0  0  0
 35 37  2  0  0  0  0
 36 35  1  0  0  0  0
 37 31  1  0  0  0  0
M  END
>  <minimizedAffinity>
-5.65757656

>  <minimizedRMSD>
0.820760667

$$$$
