
 OpenBabel03272503023D

 26 28  0  0  0  0  0  0  0  0999 V2000
   38.0810   30.6850   47.2080 F   0  0  0  0  0  0  0  0  0  0  0  0
   38.5410   31.8340   47.7820 C   0  0  0  0  0  0  0  0  0  0  0  0
   38.2030   32.1160   49.0690 C   0  0  0  0  0  0  0  0  0  0  0  0
   38.7060   33.2860   49.5680 C   0  0  0  0  0  0  0  0  0  0  0  0
   39.5020   34.1400   48.8440 C   0  0  0  0  0  0  0  0  0  0  0  0
   39.8150   33.8130   47.5510 C   0  0  0  0  0  0  0  0  0  0  0  0
   39.3330   32.6370   46.9880 C   0  0  0  0  0  0  0  0  0  0  0  0
   38.4580   33.5470   50.5970 H   0  0  0  0  0  0  0  0  0  0  0  0
   39.8870   35.0640   49.2700 H   0  0  0  0  0  0  0  0  0  0  0  0
   40.4370   34.4800   46.9830 H   0  0  0  0  0  0  0  0  0  0  0  0
   36.9790   29.5730   51.5880 C   0  0  0  0  0  0  0  0  0  0  0  0
   37.8060   30.4720   50.9060 C   0  0  0  0  0  0  0  0  0  0  0  0
   37.3580   31.1770   49.7910 C   0  0  0  0  0  0  0  0  0  0  0  0
   36.0770   30.9380   49.4140 N   0  0  0  0  0  0  0  0  0  0  0  0
   35.2940   30.0680   50.0830 C   0  0  0  0  0  0  0  0  0  0  0  0
   35.7300   29.3980   51.1460 N   0  0  0  0  0  0  0  0  0  0  0  0
   37.4840   29.1100   52.4300 H   0  0  0  0  0  0  0  0  0  0  0  0
   38.8480   30.6990   51.1730 H   0  0  0  0  0  0  0  0  0  0  0  0
   34.2740   29.9000   49.7560 H   0  0  0  0  0  0  0  0  0  0  0  0
   39.6520   32.2560   45.5980 C   0  0  0  0  0  0  0  0  0  0  0  0
   39.0010   32.9150   44.5170 C   0  0  0  0  0  0  0  0  0  0  0  0
   38.2680   33.6970   44.5420 H   0  0  0  0  0  0  0  0  0  0  0  0
   39.7550   32.0700   43.0480 S   0  0  0  0  0  0  0  0  0  0  0  0
   40.8010   30.9910   44.1570 C   0  0  0  0  0  0  0  0  0  0  0  0
   41.5930   30.1430   43.9870 H   0  0  0  0  0  0  0  0  0  0  0  0
   40.5130   31.3300   45.2220 N   0  0  0  0  0  0  0  0  0  0  0  0
  1  2  1  0  0  0  0
  2  3  1  0  0  0  0
  3  4  2  0  0  0  0
  3 13  1  0  0  0  0
  4  8  1  0  0  0  0
  5  9  1  0  0  0  0
  5  4  1  0  0  0  0
  6  5  2  0  0  0  0
  7  6  1  0  0  0  0
  7  2  2  0  0  0  0
 10  6  1  0  0  0  0
 11 17  1  0  0  0  0
 12 18  1  0  0  0  0
 12 11  2  0  0  0  0
 13 12  1  0  0  0  0
 14 13  2  0  0  0  0
 14 15  1  0  0  0  0
 15 16  2  0  0  0  0
 16 11  1  0  0  0  0
 19 15  1  0  0  0  0
 20  7  1  0  0  0  0
 21 22  1  0  0  0  0
 21 20  2  0  0  0  0
 23 24  1  0  0  0  0
 23 21  1  0  0  0  0
 24 26  2  0  0  0  0
 25 24  1  0  0  0  0
 26 20  1  0  0  0  0
M  END
>  <minimizedAffinity>
-6.42380428

>  <minimizedRMSD>
0.361489147

$$$$
