
 OpenBabel03272509473D

 23 24  0  0  0  0  0  0  0  0999 V2000
   34.1430   28.4560   48.5450 C   0  0  0  0  0  0  0  0  0  0  0  0
   33.1810   29.0340   48.5910 H   0  0  0  0  0  0  0  0  0  0  0  0
   34.7930   28.9910   47.8080 H   0  0  0  0  0  0  0  0  0  0  0  0
   33.8410   27.1040   47.9410 C   0  0  0  0  0  0  0  0  0  0  0  0
   33.2400   26.5180   48.6470 H   0  0  0  0  0  0  0  0  0  0  0  0
   34.7600   26.5500   47.7220 H   0  0  0  0  0  0  0  0  0  0  0  0
   33.0530   27.3940   46.6880 C   0  0  0  0  0  0  0  0  0  0  0  0
   33.7770   27.0000   45.4860 C   0  0  0  0  0  0  0  0  0  0  0  0
   34.7380   26.5560   45.3020 H   0  0  0  0  0  0  0  0  0  0  0  0
   32.6150   27.4540   44.1280 S   0  0  0  0  0  0  0  0  0  0  0  0
   31.3610   28.0910   45.4050 C   0  0  0  0  0  0  0  0  0  0  0  0
   30.2540   28.6050   45.6200 H   0  0  0  0  0  0  0  0  0  0  0  0
   31.8760   27.9110   46.3930 N   0  0  0  0  0  0  0  0  0  0  0  0
   34.7430   28.3030   49.8080 O   0  0  0  0  0  0  0  0  0  0  0  0
   37.3560   30.2360   51.4320 C   0  0  0  0  0  0  0  0  0  0  0  0
   38.0610   30.6670   50.2950 C   0  0  0  0  0  0  0  0  0  0  0  0
   37.6080   30.2750   49.0400 C   0  0  0  0  0  0  0  0  0  0  0  0
   36.4920   29.4880   48.9960 N   0  0  0  0  0  0  0  0  0  0  0  0
   35.8410   29.0940   50.1130 C   0  0  0  0  0  0  0  0  0  0  0  0
   36.2850   29.4770   51.3150 N   0  0  0  0  0  0  0  0  0  0  0  0
   37.6810   30.5230   52.4270 H   0  0  0  0  0  0  0  0  0  0  0  0
   38.9450   31.2960   50.3990 H   0  0  0  0  0  0  0  0  0  0  0  0
   38.1190   30.5830   48.1360 H   0  0  0  0  0  0  0  0  0  0  0  0
  1  2  1  0  0  0  0
  1 14  1  0  0  0  0
  3  1  1  0  0  0  0
  4  1  1  0  0  0  0
  4  5  1  0  0  0  0
  6  4  1  0  0  0  0
  7  4  1  0  0  0  0
  8  7  2  0  0  0  0
  9  8  1  0  0  0  0
 10 11  1  0  0  0  0
 10  8  1  0  0  0  0
 11 12  1  0  0  0  0
 11 13  2  0  0  0  0
 13  7  1  0  0  0  0
 14 19  1  0  0  0  0
 15 21  1  0  0  0  0
 16 22  1  0  0  0  0
 16 15  2  0  0  0  0
 17 16  1  0  0  0  0
 18 17  2  0  0  0  0
 18 19  1  0  0  0  0
 19 20  2  0  0  0  0
 20 15  1  0  0  0  0
 23 17  1  0  0  0  0
M  END
>  <minimizedAffinity>
-3.6071434

>  <minimizedRMSD>
0.359630376

$$$$
