
 OpenBabel03272504583D

 31 33  0  0  1  0  0  0  0  0999 V2000
   37.5810   25.7760   35.1760 C   0  0  1  0  0  0  0  0  0  0  0  0
   38.0870   27.0840   34.8380 C   0  0  0  0  0  0  0  0  0  0  0  0
   37.8390   26.0730   33.7640 C   0  0  2  0  0  0  0  0  0  0  0  0
   36.4780   25.5830   35.4130 H   0  0  0  0  0  0  0  0  0  0  0  0
   37.4310   27.8100   35.2850 H   0  0  0  0  0  0  0  0  0  0  0  0
   39.1490   27.2820   35.0900 H   0  0  0  0  0  0  0  0  0  0  0  0
   38.7320   25.9480   33.1730 H   0  0  0  0  0  0  0  0  0  0  0  0
   38.4670   24.7460   35.8200 C   0  0  0  0  0  0  0  0  0  0  0  0
   39.6320   24.4060   35.1070 C   0  0  0  0  0  0  0  0  0  0  0  0
   40.4380   23.4700   35.7130 C   0  0  0  0  0  0  0  0  0  0  0  0
   40.0720   22.9430   36.9270 N   0  0  0  0  0  0  0  0  0  0  0  0
   38.9470   23.2970   37.5730 C   0  0  0  0  0  0  0  0  0  0  0  0
   38.1230   24.2280   36.9950 N   0  0  0  0  0  0  0  0  0  0  0  0
   38.5720   22.7870   38.8210 N   0  0  0  0  0  0  0  0  0  0  0  0
   39.9240   24.8180   34.1540 H   0  0  0  0  0  0  0  0  0  0  0  0
   41.3560   23.1470   35.2360 H   0  0  0  0  0  0  0  0  0  0  0  0
   38.8390   23.4360   39.6150 H   0  0  0  0  0  0  0  0  0  0  0  0
   38.0990   21.9270   39.1210 H   0  0  0  0  0  0  0  0  0  0  0  0
   36.6980   26.2970   32.9850 O   0  0  0  0  0  0  0  0  0  0  0  0
   35.1690   25.1530   31.2540 O   0  0  0  0  0  0  0  0  0  0  0  0
   36.5600   25.1310   31.8040 P   0  0  1  0  0  0  0  0  0  0  0  0
   37.5620   25.5710   30.4560 O   0  0  0  0  0  0  0  0  0  0  0  0
   37.1490   26.3710   30.0660 H   0  0  0  0  0  0  0  0  0  0  0  0
   37.0520   23.6570   32.4090 O   0  0  0  0  0  0  0  0  0  0  0  0
   36.6410   22.4120   31.9560 C   0  0  0  0  0  0  0  0  0  0  0  0
   37.3840   21.5880   31.0790 C   0  0  0  0  0  0  0  0  0  0  0  0
   38.3630   21.9120   30.7010 H   0  0  0  0  0  0  0  0  0  0  0  0
   36.2700   20.1190   30.9030 S   0  0  0  0  0  0  0  0  0  0  0  0
   34.9950   20.9180   32.0690 C   0  0  0  0  0  0  0  0  0  0  0  0
   34.0690   20.3740   32.2970 H   0  0  0  0  0  0  0  0  0  0  0  0
   35.4670   21.9240   32.3560 N   0  0  0  0  0  0  0  0  0  0  0  0
  1  4  1  1  0  0  0
  1  8  1  0  0  0  0
  2  6  1  0  0  0  0
  2  1  1  0  0  0  0
  2  5  1  0  0  0  0
  3  7  1  6  0  0  0
  3  2  1  0  0  0  0
  3  1  1  0  0  0  0
  8 13  1  0  0  0  0
  9 10  1  0  0  0  0
  9  8  2  0  0  0  0
 10 11  2  0  0  0  0
 11 12  1  0  0  0  0
 12 14  1  0  0  0  0
 13 12  2  0  0  0  0
 14 18  1  0  0  0  0
 14 17  1  0  0  0  0
 15  9  1  0  0  0  0
 16 10  1  0  0  0  0
 19  3  1  0  0  0  0
 21 20  2  6  0  0  0
 21 24  1  0  0  0  0
 21 19  1  0  0  0  0
 22 21  1  0  0  0  0
 23 22  1  0  0  0  0
 25 31  1  0  0  0  0
 25 24  1  0  0  0  0
 26 25  2  0  0  0  0
 27 26  1  0  0  0  0
 28 26  1  0  0  0  0
 28 29  1  0  0  0  0
 29 30  1  0  0  0  0
 29 31  2  0  0  0  0
M  END
>  <minimizedAffinity>
-5.08827305

$$$$

 OpenBabel03272504583D

 31 33  0  0  1  0  0  0  0  0999 V2000
   37.6180   26.1560   35.5300 C   0  0  1  0  0  0  0  0  0  0  0  0
   38.4940   27.2930   35.6760 C   0  0  0  0  0  0  0  0  0  0  0  0
   38.0040   26.8890   34.3220 C   0  0  2  0  0  0  0  0  0  0  0  0
   36.4990   26.2070   35.7630 H   0  0  0  0  0  0  0  0  0  0  0  0
   38.0620   27.9430   36.4150 H   0  0  0  0  0  0  0  0  0  0  0  0
   39.5580   27.0700   35.8990 H   0  0  0  0  0  0  0  0  0  0  0  0
   38.8440   26.7550   33.6590 H   0  0  0  0  0  0  0  0  0  0  0  0
   38.1410   24.7530   35.6640 C   0  0  0  0  0  0  0  0  0  0  0  0
   38.1840   23.9990   34.4750 C   0  0  0  0  0  0  0  0  0  0  0  0
   38.6740   22.7210   34.6110 C   0  0  0  0  0  0  0  0  0  0  0  0
   39.0730   22.2740   35.8470 N   0  0  0  0  0  0  0  0  0  0  0  0
   39.0140   23.0300   36.9560 C   0  0  0  0  0  0  0  0  0  0  0  0
   38.5300   24.3090   36.8540 N   0  0  0  0  0  0  0  0  0  0  0  0
   39.4380   22.5970   38.2180 N   0  0  0  0  0  0  0  0  0  0  0  0
   37.8730   24.3460   33.5040 H   0  0  0  0  0  0  0  0  0  0  0  0
   38.7430   22.0670   33.7490 H   0  0  0  0  0  0  0  0  0  0  0  0
   40.4190   22.9280   38.4440 H   0  0  0  0  0  0  0  0  0  0  0  0
   39.0020   22.0350   38.9570 H   0  0  0  0  0  0  0  0  0  0  0  0
   37.0080   27.7090   33.7780 O   0  0  0  0  0  0  0  0  0  0  0  0
   36.9150   29.1700   31.6570 O   0  0  0  0  0  0  0  0  0  0  0  0
   37.1400   27.7650   32.1190 P   0  0  1  0  0  0  0  0  0  0  0  0
   38.7830   27.4230   31.6700 O   0  0  0  0  0  0  0  0  0  0  0  0
   39.3100   28.1860   31.9880 H   0  0  0  0  0  0  0  0  0  0  0  0
   36.1260   26.6310   31.4360 O   0  0  0  0  0  0  0  0  0  0  0  0
   36.3940   25.2760   31.2990 C   0  0  0  0  0  0  0  0  0  0  0  0
   35.4620   24.2410   31.5450 C   0  0  0  0  0  0  0  0  0  0  0  0
   34.4390   24.4740   31.8710 H   0  0  0  0  0  0  0  0  0  0  0  0
   36.4670   22.7300   31.1730 S   0  0  0  0  0  0  0  0  0  0  0  0
   37.9760   23.8090   30.7500 C   0  0  0  0  0  0  0  0  0  0  0  0
   38.9090   23.3200   30.4400 H   0  0  0  0  0  0  0  0  0  0  0  0
   37.6060   24.8850   30.9070 N   0  0  0  0  0  0  0  0  0  0  0  0
  1  8  1  0  0  0  0
  1  2  1  0  0  0  0
  1  4  1  1  0  0  0
  2  6  1  0  0  0  0
  2  5  1  0  0  0  0
  3  7  1  6  0  0  0
  3  1  1  0  0  0  0
  3  2  1  0  0  0  0
  8 13  1  0  0  0  0
  9 10  1  0  0  0  0
  9  8  2  0  0  0  0
 10 11  2  0  0  0  0
 11 12  1  0  0  0  0
 12 14  1  0  0  0  0
 13 12  2  0  0  0  0
 14 17  1  0  0  0  0
 14 18  1  0  0  0  0
 15  9  1  0  0  0  0
 16 10  1  0  0  0  0
 19  3  1  0  0  0  0
 21 20  2  6  0  0  0
 21 19  1  0  0  0  0
 22 23  1  0  0  0  0
 22 21  1  0  0  0  0
 24 21  1  0  0  0  0
 25 24  1  0  0  0  0
 25 26  2  0  0  0  0
 26 27  1  0  0  0  0
 28 26  1  0  0  0  0
 29 31  2  0  0  0  0
 29 28  1  0  0  0  0
 30 29  1  0  0  0  0
 31 25  1  0  0  0  0
M  END
>  <minimizedAffinity>
-4.96296072

$$$$

 OpenBabel03272504583D

 31 33  0  0  1  0  0  0  0  0999 V2000
   38.6620   23.3250   36.6990 C   0  0  1  0  0  0  0  0  0  0  0  0
   38.0870   23.7600   37.9490 C   0  0  0  0  0  0  0  0  0  0  0  0
   38.4360   24.7600   36.8930 C   0  0  2  0  0  0  0  0  0  0  0  0
   38.0360   22.8680   35.8580 H   0  0  0  0  0  0  0  0  0  0  0  0
   37.1890   23.1890   38.1080 H   0  0  0  0  0  0  0  0  0  0  0  0
   38.7530   23.7300   38.8350 H   0  0  0  0  0  0  0  0  0  0  0  0
   39.0740   25.5200   37.3130 H   0  0  0  0  0  0  0  0  0  0  0  0
   40.0940   22.8740   36.6220 C   0  0  0  0  0  0  0  0  0  0  0  0
   40.9290   23.6260   35.7740 C   0  0  0  0  0  0  0  0  0  0  0  0
   42.2390   23.2070   35.7210 C   0  0  0  0  0  0  0  0  0  0  0  0
   42.6370   22.1250   36.4660 N   0  0  0  0  0  0  0  0  0  0  0  0
   41.8030   21.4350   37.2640 C   0  0  0  0  0  0  0  0  0  0  0  0
   40.4920   21.8280   37.3380 N   0  0  0  0  0  0  0  0  0  0  0  0
   42.1980   20.3450   38.0470 N   0  0  0  0  0  0  0  0  0  0  0  0
   40.6220   24.4770   35.1880 H   0  0  0  0  0  0  0  0  0  0  0  0
   42.9550   23.7270   35.0930 H   0  0  0  0  0  0  0  0  0  0  0  0
   42.3960   20.6240   39.0500 H   0  0  0  0  0  0  0  0  0  0  0  0
   42.3340   19.3470   37.8530 H   0  0  0  0  0  0  0  0  0  0  0  0
   37.3470   25.2910   36.1900 O   0  0  0  0  0  0  0  0  0  0  0  0
   36.6670   27.3970   34.8700 O   0  0  0  0  0  0  0  0  0  0  0  0
   37.8430   26.5340   35.1990 P   0  0  1  0  0  0  0  0  0  0  0  0
   38.9070   27.5780   36.0900 O   0  0  0  0  0  0  0  0  0  0  0  0
   38.3480   28.0100   36.7710 H   0  0  0  0  0  0  0  0  0  0  0  0
   38.6480   25.9110   33.8780 O   0  0  0  0  0  0  0  0  0  0  0  0
   38.1360   24.9980   32.9670 C   0  0  0  0  0  0  0  0  0  0  0  0
   38.3910   23.6070   32.9920 C   0  0  0  0  0  0  0  0  0  0  0  0
   39.0330   23.1690   33.7670 H   0  0  0  0  0  0  0  0  0  0  0  0
   37.4180   23.0180   31.5290 S   0  0  0  0  0  0  0  0  0  0  0  0
   36.8480   24.7970   31.1630 C   0  0  0  0  0  0  0  0  0  0  0  0
   36.1870   24.9770   30.3050 H   0  0  0  0  0  0  0  0  0  0  0  0
   37.3430   25.4260   31.9860 N   0  0  0  0  0  0  0  0  0  0  0  0
  1  4  1  6  0  0  0
  1  3  1  0  0  0  0
  1  2  1  0  0  0  0
  2  5  1  0  0  0  0
  2  6  1  0  0  0  0
  3  7  1  1  0  0  0
  3  2  1  0  0  0  0
  8  1  1  0  0  0  0
  8 13  1  0  0  0  0
  9  8  2  0  0  0  0
 10  9  1  0  0  0  0
 10 11  2  0  0  0  0
 11 12  1  0  0  0  0
 12 13  2  0  0  0  0
 12 14  1  0  0  0  0
 14 17  1  0  0  0  0
 15  9  1  0  0  0  0
 16 10  1  0  0  0  0
 18 14  1  0  0  0  0
 19  3  1  0  0  0  0
 21 20  2  6  0  0  0
 21 22  1  0  0  0  0
 21 19  1  0  0  0  0
 22 23  1  0  0  0  0
 24 21  1  0  0  0  0
 25 26  2  0  0  0  0
 25 24  1  0  0  0  0
 26 27  1  0  0  0  0
 28 26  1  0  0  0  0
 29 28  1  0  0  0  0
 29 31  2  0  0  0  0
 30 29  1  0  0  0  0
 31 25  1  0  0  0  0
M  END
>  <minimizedAffinity>
-4.94897413

$$$$

 OpenBabel03272504583D

 31 33  0  0  1  0  0  0  0  0999 V2000
   37.7970   26.1600   35.6680 C   0  0  1  0  0  0  0  0  0  0  0  0
   38.4280   27.4570   35.6500 C   0  0  0  0  0  0  0  0  0  0  0  0
   38.1720   26.7270   34.3700 C   0  0  2  0  0  0  0  0  0  0  0  0
   36.6680   26.0250   35.8050 H   0  0  0  0  0  0  0  0  0  0  0  0
   37.8050   28.1280   36.2140 H   0  0  0  0  0  0  0  0  0  0  0  0
   39.4840   27.4960   35.9900 H   0  0  0  0  0  0  0  0  0  0  0  0
   39.0890   26.6490   33.8090 H   0  0  0  0  0  0  0  0  0  0  0  0
   38.5500   24.9370   36.1110 C   0  0  0  0  0  0  0  0  0  0  0  0
   39.5640   24.4920   35.2410 C   0  0  0  0  0  0  0  0  0  0  0  0
   40.2520   23.3780   35.6650 C   0  0  0  0  0  0  0  0  0  0  0  0
   39.9220   22.7900   36.8610 N   0  0  0  0  0  0  0  0  0  0  0  0
   38.9440   23.2500   37.6610 C   0  0  0  0  0  0  0  0  0  0  0  0
   38.2410   24.3590   37.2670 N   0  0  0  0  0  0  0  0  0  0  0  0
   38.6110   22.6770   38.8940 N   0  0  0  0  0  0  0  0  0  0  0  0
   39.8270   24.9510   34.3020 H   0  0  0  0  0  0  0  0  0  0  0  0
   41.0500   22.9640   35.0580 H   0  0  0  0  0  0  0  0  0  0  0  0
   39.0630   23.1850   39.7060 H   0  0  0  0  0  0  0  0  0  0  0  0
   38.0290   21.8780   39.1680 H   0  0  0  0  0  0  0  0  0  0  0  0
   37.1070   27.2200   33.6060 O   0  0  0  0  0  0  0  0  0  0  0  0
   36.9470   24.8980   32.4990 O   0  0  0  0  0  0  0  0  0  0  0  0
   36.9610   26.3600   32.1870 P   0  0  1  0  0  0  0  0  0  0  0  0
   35.3980   26.6690   31.4970 O   0  0  0  0  0  0  0  0  0  0  0  0
   34.7510   26.2540   32.1070 H   0  0  0  0  0  0  0  0  0  0  0  0
   38.1490   26.8380   31.1170 O   0  0  0  0  0  0  0  0  0  0  0  0
   38.0510   27.8770   30.2010 C   0  0  0  0  0  0  0  0  0  0  0  0
   38.8290   27.9900   29.0260 C   0  0  0  0  0  0  0  0  0  0  0  0
   39.5780   27.2270   28.7740 H   0  0  0  0  0  0  0  0  0  0  0  0
   38.1910   29.5700   28.3000 S   0  0  0  0  0  0  0  0  0  0  0  0
   36.9770   29.7730   29.7520 C   0  0  0  0  0  0  0  0  0  0  0  0
   36.3130   30.6480   29.7720 H   0  0  0  0  0  0  0  0  0  0  0  0
   37.1710   28.8550   30.4120 N   0  0  0  0  0  0  0  0  0  0  0  0
  1  4  1  1  0  0  0
  1  8  1  0  0  0  0
  2  1  1  0  0  0  0
  2  6  1  0  0  0  0
  2  5  1  0  0  0  0
  3  7  1  6  0  0  0
  3  2  1  0  0  0  0
  3  1  1  0  0  0  0
  8 13  1  0  0  0  0
  9 10  1  0  0  0  0
  9  8  2  0  0  0  0
 10 11  2  0  0  0  0
 11 12  1  0  0  0  0
 12 14  1  0  0  0  0
 13 12  2  0  0  0  0
 14 18  1  0  0  0  0
 14 17  1  0  0  0  0
 15  9  1  0  0  0  0
 16 10  1  0  0  0  0
 19  3  1  0  0  0  0
 21 20  2  1  0  0  0
 21 19  1  0  0  0  0
 22 23  1  0  0  0  0
 22 21  1  0  0  0  0
 24 21  1  0  0  0  0
 25 31  1  0  0  0  0
 25 24  1  0  0  0  0
 26 25  2  0  0  0  0
 27 26  1  0  0  0  0
 28 26  1  0  0  0  0
 28 29  1  0  0  0  0
 29 30  1  0  0  0  0
 29 31  2  0  0  0  0
M  END
>  <minimizedAffinity>
-4.87534189

$$$$

 OpenBabel03272504583D

 31 33  0  0  1  0  0  0  0  0999 V2000
   36.0880   28.2910   32.0560 C   0  0  1  0  0  0  0  0  0  0  0  0
   36.0270   26.8500   32.0600 C   0  0  0  0  0  0  0  0  0  0  0  0
   37.1110   27.5590   32.8070 C   0  0  2  0  0  0  0  0  0  0  0  0
   35.4090   28.9390   32.7110 H   0  0  0  0  0  0  0  0  0  0  0  0
   35.0330   26.5690   32.3600 H   0  0  0  0  0  0  0  0  0  0  0  0
   36.3300   26.3410   31.1220 H   0  0  0  0  0  0  0  0  0  0  0  0
   38.0710   27.1780   32.4980 H   0  0  0  0  0  0  0  0  0  0  0  0
   36.5550   29.0440   30.8410 C   0  0  0  0  0  0  0  0  0  0  0  0
   36.3160   30.4310   30.8500 C   0  0  0  0  0  0  0  0  0  0  0  0
   36.7560   31.1080   29.7360 C   0  0  0  0  0  0  0  0  0  0  0  0
   37.3770   30.4180   28.7230 N   0  0  0  0  0  0  0  0  0  0  0  0
   37.5840   29.0900   28.7580 C   0  0  0  0  0  0  0  0  0  0  0  0
   37.1570   28.3880   29.8550 N   0  0  0  0  0  0  0  0  0  0  0  0
   38.2350   28.3770   27.7450 N   0  0  0  0  0  0  0  0  0  0  0  0
   35.8300   30.9760   31.6420 H   0  0  0  0  0  0  0  0  0  0  0  0
   36.6140   32.1800   29.6550 H   0  0  0  0  0  0  0  0  0  0  0  0
   39.2580   28.2090   27.9680 H   0  0  0  0  0  0  0  0  0  0  0  0
   37.9320   27.9890   26.8450 H   0  0  0  0  0  0  0  0  0  0  0  0
   36.9590   27.5820   34.1990 O   0  0  0  0  0  0  0  0  0  0  0  0
   39.4930   27.1240   34.0980 O   0  0  0  0  0  0  0  0  0  0  0  0
   38.2800   26.8930   34.9420 P   0  0  1  0  0  0  0  0  0  0  0  0
   38.6120   27.7510   36.4150 O   0  0  0  0  0  0  0  0  0  0  0  0
   38.9170   28.6420   36.1420 H   0  0  0  0  0  0  0  0  0  0  0  0
   37.9590   25.2930   35.2870 O   0  0  0  0  0  0  0  0  0  0  0  0
   38.8210   24.4060   35.9170 C   0  0  0  0  0  0  0  0  0  0  0  0
   38.5260   23.7060   37.1090 C   0  0  0  0  0  0  0  0  0  0  0  0
   37.5590   23.8390   37.6120 H   0  0  0  0  0  0  0  0  0  0  0  0
   40.0800   22.7300   37.3690 S   0  0  0  0  0  0  0  0  0  0  0  0
   40.8370   23.4720   35.7890 C   0  0  0  0  0  0  0  0  0  0  0  0
   41.8500   23.1680   35.4920 H   0  0  0  0  0  0  0  0  0  0  0  0
   40.0210   24.1720   35.3870 N   0  0  0  0  0  0  0  0  0  0  0  0
  1  2  1  0  0  0  0
  1  4  1  1  0  0  0
  1  3  1  0  0  0  0
  2  5  1  0  0  0  0
  2  3  1  0  0  0  0
  3  7  1  6  0  0  0
  3 19  1  0  0  0  0
  6  2  1  0  0  0  0
  8  9  1  0  0  0  0
  8  1  1  0  0  0  0
  9 15  1  0  0  0  0
 10  9  2  0  0  0  0
 11 12  2  0  0  0  0
 11 10  1  0  0  0  0
 12 13  1  0  0  0  0
 13  8  2  0  0  0  0
 14 17  1  0  0  0  0
 14 12  1  0  0  0  0
 16 10  1  0  0  0  0
 18 14  1  0  0  0  0
 19 21  1  0  0  0  0
 21 20  2  6  0  0  0
 21 24  1  0  0  0  0
 21 22  1  0  0  0  0
 23 22  1  0  0  0  0
 24 25  1  0  0  0  0
 25 26  2  0  0  0  0
 26 28  1  0  0  0  0
 26 27  1  0  0  0  0
 29 28  1  0  0  0  0
 30 29  1  0  0  0  0
 31 29  2  0  0  0  0
 31 25  1  0  0  0  0
M  END
>  <minimizedAffinity>
-4.81824398

$$$$

 OpenBabel03272504583D

 31 33  0  0  1  0  0  0  0  0999 V2000
   38.5150   26.9130   34.5700 C   0  0  1  0  0  0  0  0  0  0  0  0
   38.4880   27.0540   36.0050 C   0  0  0  0  0  0  0  0  0  0  0  0
   38.2490   25.7190   35.3760 C   0  0  2  0  0  0  0  0  0  0  0  0
   39.4910   26.8600   33.9740 H   0  0  0  0  0  0  0  0  0  0  0  0
   39.4010   27.5400   36.3000 H   0  0  0  0  0  0  0  0  0  0  0  0
   37.5980   27.5600   36.4340 H   0  0  0  0  0  0  0  0  0  0  0  0
   37.3200   25.3090   35.7380 H   0  0  0  0  0  0  0  0  0  0  0  0
   37.3830   27.4180   33.7200 C   0  0  0  0  0  0  0  0  0  0  0  0
   36.5060   28.3260   34.3440 C   0  0  0  0  0  0  0  0  0  0  0  0
   35.4800   28.7870   33.5510 C   0  0  0  0  0  0  0  0  0  0  0  0
   35.3750   28.3510   32.2530 N   0  0  0  0  0  0  0  0  0  0  0  0
   36.2370   27.4810   31.6980 C   0  0  0  0  0  0  0  0  0  0  0  0
   37.2710   27.0030   32.4630 N   0  0  0  0  0  0  0  0  0  0  0  0
   36.1580   27.0450   30.3710 N   0  0  0  0  0  0  0  0  0  0  0  0
   36.5840   28.6720   35.3610 H   0  0  0  0  0  0  0  0  0  0  0  0
   34.7550   29.4890   33.9470 H   0  0  0  0  0  0  0  0  0  0  0  0
   36.8090   27.5870   29.7330 H   0  0  0  0  0  0  0  0  0  0  0  0
   35.6100   26.3200   29.8960 H   0  0  0  0  0  0  0  0  0  0  0  0
   39.3150   24.8150   35.4710 O   0  0  0  0  0  0  0  0  0  0  0  0
   39.8010   22.3180   35.8830 O   0  0  0  0  0  0  0  0  0  0  0  0
   38.7650   23.2490   35.3370 P   0  0  1  0  0  0  0  0  0  0  0  0
   37.3990   23.0370   36.3880 O   0  0  0  0  0  0  0  0  0  0  0  0
   37.7530   23.1000   37.3010 H   0  0  0  0  0  0  0  0  0  0  0  0
   38.3110   22.9460   33.7610 O   0  0  0  0  0  0  0  0  0  0  0  0
   37.1880   22.2360   33.3590 C   0  0  0  0  0  0  0  0  0  0  0  0
   36.5260   22.4090   32.1210 C   0  0  0  0  0  0  0  0  0  0  0  0
   36.8870   23.1460   31.3910 H   0  0  0  0  0  0  0  0  0  0  0  0
   35.1530   21.1720   32.2500 S   0  0  0  0  0  0  0  0  0  0  0  0
   35.7510   20.6540   33.9810 C   0  0  0  0  0  0  0  0  0  0  0  0
   35.2030   19.8700   34.5200 H   0  0  0  0  0  0  0  0  0  0  0  0
   36.6700   21.3160   34.1710 N   0  0  0  0  0  0  0  0  0  0  0  0
  1  4  1  6  0  0  0
  1  3  1  0  0  0  0
  1  2  1  0  0  0  0
  2  5  1  0  0  0  0
  2  6  1  0  0  0  0
  3 19  1  0  0  0  0
  3  7  1  1  0  0  0
  3  2  1  0  0  0  0
  8  9  1  0  0  0  0
  8  1  1  0  0  0  0
  9 15  1  0  0  0  0
 10 16  1  0  0  0  0
 10  9  2  0  0  0  0
 11 10  1  0  0  0  0
 12 11  2  0  0  0  0
 12 13  1  0  0  0  0
 13  8  2  0  0  0  0
 14 12  1  0  0  0  0
 17 14  1  0  0  0  0
 18 14  1  0  0  0  0
 21 19  1  0  0  0  0
 21 20  2  1  0  0  0
 21 22  1  0  0  0  0
 22 23  1  0  0  0  0
 24 21  1  0  0  0  0
 25 24  1  0  0  0  0
 25 31  1  0  0  0  0
 26 28  1  0  0  0  0
 26 25  2  0  0  0  0
 27 26  1  0  0  0  0
 28 29  1  0  0  0  0
 29 31  2  0  0  0  0
 29 30  1  0  0  0  0
M  END
>  <minimizedAffinity>
-4.75971031

$$$$

 OpenBabel03272504583D

 31 33  0  0  1  0  0  0  0  0999 V2000
   35.6850   28.8270   33.8810 C   0  0  1  0  0  0  0  0  0  0  0  0
   36.4960   28.4260   32.7570 C   0  0  0  0  0  0  0  0  0  0  0  0
   36.9620   28.1620   34.1530 C   0  0  2  0  0  0  0  0  0  0  0  0
   34.7710   28.2320   34.2260 H   0  0  0  0  0  0  0  0  0  0  0  0
   35.8740   27.8430   32.1010 H   0  0  0  0  0  0  0  0  0  0  0  0
   37.0180   29.2380   32.2110 H   0  0  0  0  0  0  0  0  0  0  0  0
   37.9500   28.5700   34.2870 H   0  0  0  0  0  0  0  0  0  0  0  0
   35.5790   30.2720   34.2820 C   0  0  0  0  0  0  0  0  0  0  0  0
   35.7150   31.2100   33.2410 C   0  0  0  0  0  0  0  0  0  0  0  0
   35.6060   32.5270   33.6220 C   0  0  0  0  0  0  0  0  0  0  0  0
   35.3810   32.8370   34.9410 N   0  0  0  0  0  0  0  0  0  0  0  0
   35.2580   31.9070   35.9030 C   0  0  0  0  0  0  0  0  0  0  0  0
   35.3620   30.5850   35.5560 N   0  0  0  0  0  0  0  0  0  0  0  0
   35.0060   32.2050   37.2470 N   0  0  0  0  0  0  0  0  0  0  0  0
   35.8900   30.9720   32.2050 H   0  0  0  0  0  0  0  0  0  0  0  0
   35.6980   33.3190   32.8870 H   0  0  0  0  0  0  0  0  0  0  0  0
   33.9780   32.1170   37.4900 H   0  0  0  0  0  0  0  0  0  0  0  0
   35.6020   32.4870   38.0330 H   0  0  0  0  0  0  0  0  0  0  0  0
   36.8620   26.8310   34.5750 O   0  0  0  0  0  0  0  0  0  0  0  0
   39.3980   26.3830   34.4880 O   0  0  0  0  0  0  0  0  0  0  0  0
   38.2260   26.3820   35.4170 P   0  0  1  0  0  0  0  0  0  0  0  0
   38.6010   27.6120   36.5850 O   0  0  0  0  0  0  0  0  0  0  0  0
   38.8760   28.3970   36.0650 H   0  0  0  0  0  0  0  0  0  0  0  0
   37.9520   24.9340   36.1990 O   0  0  0  0  0  0  0  0  0  0  0  0
   38.8400   23.8710   36.2820 C   0  0  0  0  0  0  0  0  0  0  0  0
   39.3520   23.3420   37.4890 C   0  0  0  0  0  0  0  0  0  0  0  0
   39.0560   23.7670   38.4580 H   0  0  0  0  0  0  0  0  0  0  0  0
   40.4470   21.9810   36.8720 S   0  0  0  0  0  0  0  0  0  0  0  0
   39.9920   22.4000   35.0720 C   0  0  0  0  0  0  0  0  0  0  0  0
   40.4340   21.8080   34.2600 H   0  0  0  0  0  0  0  0  0  0  0  0
   39.2630   23.2820   35.1640 N   0  0  0  0  0  0  0  0  0  0  0  0
  1  3  1  0  0  0  0
  1  4  1  1  0  0  0
  1  8  1  0  0  0  0
  2  1  1  0  0  0  0
  2  3  1  0  0  0  0
  3  7  1  1  0  0  0
  3 19  1  0  0  0  0
  5  2  1  0  0  0  0
  6  2  1  0  0  0  0
  8 13  1  0  0  0  0
  9 10  1  0  0  0  0
  9  8  2  0  0  0  0
 10 11  2  0  0  0  0
 11 12  1  0  0  0  0
 12 14  1  0  0  0  0
 13 12  2  0  0  0  0
 14 17  1  0  0  0  0
 14 18  1  0  0  0  0
 15  9  1  0  0  0  0
 16 10  1  0  0  0  0
 19 21  1  0  0  0  0
 21 20  2  6  0  0  0
 21 24  1  0  0  0  0
 21 22  1  0  0  0  0
 23 22  1  0  0  0  0
 24 25  1  0  0  0  0
 25 26  2  0  0  0  0
 26 27  1  0  0  0  0
 28 26  1  0  0  0  0
 29 31  2  0  0  0  0
 29 28  1  0  0  0  0
 30 29  1  0  0  0  0
 31 25  1  0  0  0  0
M  END
>  <minimizedAffinity>
-4.74003935

$$$$

 OpenBabel03272504583D

 31 33  0  0  1  0  0  0  0  0999 V2000
   39.5920   25.3050   34.6230 C   0  0  1  0  0  0  0  0  0  0  0  0
   40.9460   25.3570   34.1280 C   0  0  0  0  0  0  0  0  0  0  0  0
   39.9180   24.5290   33.4230 C   0  0  2  0  0  0  0  0  0  0  0  0
   38.8350   26.1440   34.4400 H   0  0  0  0  0  0  0  0  0  0  0  0
   41.2100   26.3930   34.0170 H   0  0  0  0  0  0  0  0  0  0  0  0
   41.7060   24.8000   34.7130 H   0  0  0  0  0  0  0  0  0  0  0  0
   40.2780   23.5190   33.3180 H   0  0  0  0  0  0  0  0  0  0  0  0
   39.2490   24.5210   35.8590 C   0  0  0  0  0  0  0  0  0  0  0  0
   38.0730   24.9110   36.5270 C   0  0  0  0  0  0  0  0  0  0  0  0
   37.7670   24.1790   37.6500 C   0  0  0  0  0  0  0  0  0  0  0  0
   38.5930   23.1530   38.0390 N   0  0  0  0  0  0  0  0  0  0  0  0
   39.7090   22.8150   37.3700 C   0  0  0  0  0  0  0  0  0  0  0  0
   40.0410   23.5260   36.2450 N   0  0  0  0  0  0  0  0  0  0  0  0
   40.5490   21.7580   37.7390 N   0  0  0  0  0  0  0  0  0  0  0  0
   37.4210   25.7140   36.2250 H   0  0  0  0  0  0  0  0  0  0  0  0
   36.8790   24.4090   38.2290 H   0  0  0  0  0  0  0  0  0  0  0  0
   40.3470   20.8760   37.1880 H   0  0  0  0  0  0  0  0  0  0  0  0
   41.3080   21.6630   38.4230 H   0  0  0  0  0  0  0  0  0  0  0  0
   39.4420   25.0650   32.2210 O   0  0  0  0  0  0  0  0  0  0  0  0
   36.8710   25.0510   32.4080 O   0  0  0  0  0  0  0  0  0  0  0  0
   38.0170   24.3270   31.7760 P   0  0  1  0  0  0  0  0  0  0  0  0
   37.7760   24.5440   30.0700 O   0  0  0  0  0  0  0  0  0  0  0  0
   37.6090   25.5030   29.9450 H   0  0  0  0  0  0  0  0  0  0  0  0
   38.0960   22.6970   32.1260 O   0  0  0  0  0  0  0  0  0  0  0  0
   37.1800   21.9810   32.8830 C   0  0  0  0  0  0  0  0  0  0  0  0
   37.3140   21.7090   34.2640 C   0  0  0  0  0  0  0  0  0  0  0  0
   38.1870   22.0700   34.8240 H   0  0  0  0  0  0  0  0  0  0  0  0
   35.7740   20.7390   34.6100 S   0  0  0  0  0  0  0  0  0  0  0  0
   35.2410   20.8920   32.7890 C   0  0  0  0  0  0  0  0  0  0  0  0
   34.2960   20.4320   32.4720 H   0  0  0  0  0  0  0  0  0  0  0  0
   36.0830   21.5000   32.3000 N   0  0  0  0  0  0  0  0  0  0  0  0
  1  4  1  6  0  0  0
  1  8  1  0  0  0  0
  2  1  1  0  0  0  0
  2  6  1  0  0  0  0
  3  7  1  1  0  0  0
  3  2  1  0  0  0  0
  3  1  1  0  0  0  0
  5  2  1  0  0  0  0
  8 13  2  0  0  0  0
  8  9  1  0  0  0  0
  9 10  2  0  0  0  0
 10 11  1  0  0  0  0
 10 16  1  0  0  0  0
 12 14  1  0  0  0  0
 12 11  2  0  0  0  0
 13 12  1  0  0  0  0
 14 18  1  0  0  0  0
 15  9  1  0  0  0  0
 17 14  1  0  0  0  0
 19  3  1  0  0  0  0
 21 24  1  0  0  0  0
 21 19  1  0  0  0  0
 21 20  2  1  0  0  0
 22 21  1  0  0  0  0
 23 22  1  0  0  0  0
 24 25  1  0  0  0  0
 25 26  2  0  0  0  0
 26 28  1  0  0  0  0
 26 27  1  0  0  0  0
 29 28  1  0  0  0  0
 30 29  1  0  0  0  0
 31 29  2  0  0  0  0
 31 25  1  0  0  0  0
M  END
>  <minimizedAffinity>
-4.68923187

$$$$

 OpenBabel03272504583D

 31 33  0  0  1  0  0  0  0  0999 V2000
   37.8680   24.6720   32.6830 C   0  0  1  0  0  0  0  0  0  0  0  0
   36.8900   23.7420   32.1730 C   0  0  0  0  0  0  0  0  0  0  0  0
   36.6430   25.2150   32.0900 C   0  0  2  0  0  0  0  0  0  0  0  0
   38.8200   24.9430   32.1070 H   0  0  0  0  0  0  0  0  0  0  0  0
   37.3980   23.0750   31.4990 H   0  0  0  0  0  0  0  0  0  0  0  0
   36.2970   23.1870   32.9280 H   0  0  0  0  0  0  0  0  0  0  0  0
   35.6910   25.4470   32.5390 H   0  0  0  0  0  0  0  0  0  0  0  0
   38.0490   24.8730   34.1610 C   0  0  0  0  0  0  0  0  0  0  0  0
   38.0830   23.7010   34.9410 C   0  0  0  0  0  0  0  0  0  0  0  0
   38.2570   23.9010   36.2910 C   0  0  0  0  0  0  0  0  0  0  0  0
   38.3820   25.1790   36.7780 N   0  0  0  0  0  0  0  0  0  0  0  0
   38.3440   26.2710   35.9950 C   0  0  0  0  0  0  0  0  0  0  0  0
   38.1710   26.1050   34.6450 N   0  0  0  0  0  0  0  0  0  0  0  0
   38.4930   27.5770   36.4730 N   0  0  0  0  0  0  0  0  0  0  0  0
   37.9860   22.6970   34.5630 H   0  0  0  0  0  0  0  0  0  0  0  0
   38.2950   23.0550   36.9690 H   0  0  0  0  0  0  0  0  0  0  0  0
   39.4840   27.9350   36.3570 H   0  0  0  0  0  0  0  0  0  0  0  0
   37.8510   28.2500   36.9060 H   0  0  0  0  0  0  0  0  0  0  0  0
   36.7950   25.7750   30.8160 O   0  0  0  0  0  0  0  0  0  0  0  0
   38.1480   27.8950   31.3810 O   0  0  0  0  0  0  0  0  0  0  0  0
   36.8050   27.4380   30.9070 P   0  0  1  0  0  0  0  0  0  0  0  0
   36.6670   28.0930   29.3050 O   0  0  0  0  0  0  0  0  0  0  0  0
   37.5060   27.8630   28.8500 H   0  0  0  0  0  0  0  0  0  0  0  0
   35.5190   27.9560   31.8350 O   0  0  0  0  0  0  0  0  0  0  0  0
   35.5470   28.9890   32.7620 C   0  0  0  0  0  0  0  0  0  0  0  0
   35.6610   28.8120   34.1610 C   0  0  0  0  0  0  0  0  0  0  0  0
   35.7350   27.8060   34.5950 H   0  0  0  0  0  0  0  0  0  0  0  0
   35.6360   30.5630   34.7670 S   0  0  0  0  0  0  0  0  0  0  0  0
   35.4740   31.2030   32.9810 C   0  0  0  0  0  0  0  0  0  0  0  0
   35.4180   32.2850   32.8080 H   0  0  0  0  0  0  0  0  0  0  0  0
   35.4650   30.2500   32.3410 N   0  0  0  0  0  0  0  0  0  0  0  0
  1  4  1  6  0  0  0
  1  8  1  0  0  0  0
  2  1  1  0  0  0  0
  2  6  1  0  0  0  0
  3  2  1  0  0  0  0
  3  7  1  1  0  0  0
  3  1  1  0  0  0  0
  5  2  1  0  0  0  0
  8 13  2  0  0  0  0
  8  9  1  0  0  0  0
  9 10  2  0  0  0  0
 10 11  1  0  0  0  0
 10 16  1  0  0  0  0
 12 14  1  0  0  0  0
 12 11  2  0  0  0  0
 13 12  1  0  0  0  0
 14 18  1  0  0  0  0
 15  9  1  0  0  0  0
 17 14  1  0  0  0  0
 19 21  1  0  0  0  0
 19  3  1  0  0  0  0
 21 20  2  1  0  0  0
 21 24  1  0  0  0  0
 22 21  1  0  0  0  0
 23 22  1  0  0  0  0
 24 25  1  0  0  0  0
 25 26  2  0  0  0  0
 26 27  1  0  0  0  0
 26 28  1  0  0  0  0
 29 28  1  0  0  0  0
 30 29  1  0  0  0  0
 31 25  1  0  0  0  0
 31 29  2  0  0  0  0
M  END
>  <minimizedAffinity>
-4.62893152

$$$$
