
 OpenBabel03272507373D

 21 22  0  0  0  0  0  0  0  0999 V2000
   36.9390   30.7300   48.8710 C   0  0  0  0  0  0  0  0  0  0  0  0
   36.0690   29.6470   48.9970 C   0  0  0  0  0  0  0  0  0  0  0  0
   35.9730   28.9970   50.2100 C   0  0  0  0  0  0  0  0  0  0  0  0
   36.7360   29.4460   51.2360 N   0  0  0  0  0  0  0  0  0  0  0  0
   37.5770   30.4960   51.1060 C   0  0  0  0  0  0  0  0  0  0  0  0
   37.6780   31.1330   49.9360 N   0  0  0  0  0  0  0  0  0  0  0  0
   35.3320   28.1630   50.3820 H   0  0  0  0  0  0  0  0  0  0  0  0
   38.1770   30.8330   51.9520 H   0  0  0  0  0  0  0  0  0  0  0  0
   33.9660   28.6660   48.2700 C   0  0  0  0  0  0  0  0  0  0  0  0
   33.2720   28.5060   49.3460 O   0  0  0  0  0  0  0  0  0  0  0  0
   35.2650   29.1480   47.9740 N   0  0  0  0  0  0  0  0  0  0  0  0
   33.1570   28.2790   47.6590 H   0  0  0  0  0  0  0  0  0  0  0  0
   35.4320   29.0480   46.9570 H   0  0  0  0  0  0  0  0  0  0  0  0
   36.9220   31.2690   47.6060 O   0  0  0  0  0  0  0  0  0  0  0  0
   38.1330   31.5540   46.9400 C   0  0  0  0  0  0  0  0  0  0  0  0
   38.6660   30.5190   46.1140 C   0  0  0  0  0  0  0  0  0  0  0  0
   38.2990   29.5520   45.9130 H   0  0  0  0  0  0  0  0  0  0  0  0
   40.1800   31.2540   45.4550 S   0  0  0  0  0  0  0  0  0  0  0  0
   39.8560   32.8680   46.4090 C   0  0  0  0  0  0  0  0  0  0  0  0
   40.2930   33.9920   46.6370 H   0  0  0  0  0  0  0  0  0  0  0  0
   38.8780   32.6500   46.9530 N   0  0  0  0  0  0  0  0  0  0  0  0
  1  2  2  0  0  0  0
  1  6  1  0  0  0  0
  2  3  1  0  0  0  0
  3  7  1  0  0  0  0
  3  4  2  0  0  0  0
  5  4  1  0  0  0  0
  5  8  1  0  0  0  0
  6  5  2  0  0  0  0
  9 10  2  0  0  0  0
 11  9  1  0  0  0  0
 11  2  1  0  0  0  0
 12  9  1  0  0  0  0
 13 11  1  0  0  0  0
 14  1  1  0  0  0  0
 15 21  1  0  0  0  0
 15 14  1  0  0  0  0
 16 15  2  0  0  0  0
 17 16  1  0  0  0  0
 18 16  1  0  0  0  0
 18 19  1  0  0  0  0
 19 20  1  0  0  0  0
 19 21  2  0  0  0  0
M  END
>  <minimizedAffinity>
-4.17078257

>  <minimizedRMSD>
6.11318827

$$$$
