
 OpenBabel03272507403D

 32 34  0  0  0  0  0  0  0  0999 V2000
   37.3730   26.1170   33.8720 C   0  0  0  0  0  0  0  0  0  0  0  0
   37.9770   25.3410   34.8240 C   0  0  0  0  0  0  0  0  0  0  0  0
   38.4560   25.9250   35.9730 C   0  0  0  0  0  0  0  0  0  0  0  0
   38.3260   27.2960   36.1610 C   0  0  0  0  0  0  0  0  0  0  0  0
   37.7120   28.0660   35.1860 C   0  0  0  0  0  0  0  0  0  0  0  0
   37.2310   27.4680   34.0290 C   0  0  0  0  0  0  0  0  0  0  0  0
   38.9450   25.3850   36.7720 H   0  0  0  0  0  0  0  0  0  0  0  0
   38.6930   27.7860   37.0530 H   0  0  0  0  0  0  0  0  0  0  0  0
   37.6310   29.1170   35.3670 H   0  0  0  0  0  0  0  0  0  0  0  0
   36.5680   28.2630   32.9660 C   0  0  0  0  0  0  0  0  0  0  0  0
   37.3010   28.5680   31.7410 C   0  0  0  0  0  0  0  0  0  0  0  0
   38.3550   28.2590   31.4920 H   0  0  0  0  0  0  0  0  0  0  0  0
   36.0560   29.5340   30.8140 S   0  0  0  0  0  0  0  0  0  0  0  0
   34.7690   29.3760   32.2050 C   0  0  0  0  0  0  0  0  0  0  0  0
   33.7690   29.7870   32.1980 H   0  0  0  0  0  0  0  0  0  0  0  0
   35.3360   28.7230   33.0560 N   0  0  0  0  0  0  0  0  0  0  0  0
   36.5030   24.9110   31.7380 N   0  0  0  0  0  0  0  0  0  0  0  0
   36.8950   25.4400   32.6880 C   0  0  0  0  0  0  0  0  0  0  0  0
   38.1690   23.9820   34.7650 O   0  0  0  0  0  0  0  0  0  0  0  0
   39.3500   23.3470   35.0570 C   0  0  0  0  0  0  0  0  0  0  0  0
   39.2430   22.5790   36.2160 C   0  0  0  0  0  0  0  0  0  0  0  0
   40.3210   21.8620   36.6820 C   0  0  0  0  0  0  0  0  0  0  0  0
   41.4860   21.9450   35.9500 N   0  0  0  0  0  0  0  0  0  0  0  0
   41.5680   22.6910   34.8330 C   0  0  0  0  0  0  0  0  0  0  0  0
   40.5190   23.3760   34.4000 N   0  0  0  0  0  0  0  0  0  0  0  0
   40.3430   21.2490   37.5530 H   0  0  0  0  0  0  0  0  0  0  0  0
   42.4360   22.8000   34.2170 H   0  0  0  0  0  0  0  0  0  0  0  0
   37.9540   23.1530   38.2150 C   0  0  0  0  0  0  0  0  0  0  0  0
   38.7440   23.8990   38.9210 O   0  0  0  0  0  0  0  0  0  0  0  0
   38.0990   22.4140   37.0020 N   0  0  0  0  0  0  0  0  0  0  0  0
   37.4550   23.5440   39.0920 H   0  0  0  0  0  0  0  0  0  0  0  0
   37.2030   21.9370   37.1320 H   0  0  0  0  0  0  0  0  0  0  0  0
  1  6  2  0  0  0  0
  1  2  1  0  0  0  0
  2  3  2  0  0  0  0
  3  4  1  0  0  0  0
  3  7  1  0  0  0  0
  4  8  1  0  0  0  0
  5  9  1  0  0  0  0
  5  4  2  0  0  0  0
  6  5  1  0  0  0  0
 10 16  1  0  0  0  0
 10  6  1  0  0  0  0
 11 10  2  0  0  0  0
 12 11  1  0  0  0  0
 13 11  1  0  0  0  0
 13 14  1  0  0  0  0
 14 16  2  0  0  0  0
 15 14  1  0  0  0  0
 17 18  3  0  0  0  0
 18  1  1  0  0  0  0
 19  2  1  0  0  0  0
 19 20  1  0  0  0  0
 20 21  1  0  0  0  0
 21 22  2  0  0  0  0
 21 30  1  0  0  0  0
 22 26  1  0  0  0  0
 23 22  1  0  0  0  0
 24 23  2  0  0  0  0
 25 24  1  0  0  0  0
 25 20  2  0  0  0  0
 27 24  1  0  0  0  0
 28 29  2  0  0  0  0
 28 31  1  0  0  0  0
 30 32  1  0  0  0  0
 30 28  1  0  0  0  0
M  END
>  <minimizedAffinity>
-5.17858839

$$$$

 OpenBabel03272507403D

 32 34  0  0  0  0  0  0  0  0999 V2000
   37.4550   25.9410   33.5930 C   0  0  0  0  0  0  0  0  0  0  0  0
   37.8020   24.6820   34.0030 C   0  0  0  0  0  0  0  0  0  0  0  0
   37.7200   23.6330   33.1180 C   0  0  0  0  0  0  0  0  0  0  0  0
   37.2880   23.8550   31.8160 C   0  0  0  0  0  0  0  0  0  0  0  0
   36.9400   25.1370   31.4190 C   0  0  0  0  0  0  0  0  0  0  0  0
   37.0250   26.1900   32.3190 C   0  0  0  0  0  0  0  0  0  0  0  0
   37.9750   22.6110   33.3600 H   0  0  0  0  0  0  0  0  0  0  0  0
   37.2120   23.0520   31.0950 H   0  0  0  0  0  0  0  0  0  0  0  0
   36.6130   25.2670   30.4090 H   0  0  0  0  0  0  0  0  0  0  0  0
   36.6620   27.5740   31.9270 C   0  0  0  0  0  0  0  0  0  0  0  0
   37.5970   28.3570   31.1240 C   0  0  0  0  0  0  0  0  0  0  0  0
   38.6050   28.0240   30.7480 H   0  0  0  0  0  0  0  0  0  0  0  0
   36.6760   29.9260   30.9380 S   0  0  0  0  0  0  0  0  0  0  0  0
   35.2040   29.2850   31.9570 C   0  0  0  0  0  0  0  0  0  0  0  0
   34.3010   29.8340   32.1880 H   0  0  0  0  0  0  0  0  0  0  0  0
   35.5270   28.1560   32.2620 N   0  0  0  0  0  0  0  0  0  0  0  0
   37.6470   27.8300   35.3720 N   0  0  0  0  0  0  0  0  0  0  0  0
   37.5600   26.9960   34.5750 C   0  0  0  0  0  0  0  0  0  0  0  0
   38.2430   24.3250   35.2540 O   0  0  0  0  0  0  0  0  0  0  0  0
   39.5390   23.9950   35.5610 C   0  0  0  0  0  0  0  0  0  0  0  0
   39.6020   23.1430   36.6620 C   0  0  0  0  0  0  0  0  0  0  0  0
   40.8150   22.6950   37.1310 C   0  0  0  0  0  0  0  0  0  0  0  0
   41.9390   23.1290   36.4630 N   0  0  0  0  0  0  0  0  0  0  0  0
   41.8570   23.9520   35.4000 C   0  0  0  0  0  0  0  0  0  0  0  0
   40.6790   24.3730   34.9630 N   0  0  0  0  0  0  0  0  0  0  0  0
   40.9710   22.0460   37.9620 H   0  0  0  0  0  0  0  0  0  0  0  0
   42.6840   24.3250   34.8340 H   0  0  0  0  0  0  0  0  0  0  0  0
   37.8540   23.4460   38.3480 C   0  0  0  0  0  0  0  0  0  0  0  0
   38.1060   24.5950   38.8890 O   0  0  0  0  0  0  0  0  0  0  0  0
   38.5180   22.6310   37.3810 N   0  0  0  0  0  0  0  0  0  0  0  0
   37.0860   23.7300   39.0550 H   0  0  0  0  0  0  0  0  0  0  0  0
   37.9060   21.8320   37.5660 H   0  0  0  0  0  0  0  0  0  0  0  0
  1  2  1  0  0  0  0
  1 18  1  0  0  0  0
  2 19  1  0  0  0  0
  3  7  1  0  0  0  0
  3  2  2  0  0  0  0
  4  3  1  0  0  0  0
  5  4  2  0  0  0  0
  5  6  1  0  0  0  0
  6  1  2  0  0  0  0
  8  4  1  0  0  0  0
  9  5  1  0  0  0  0
 10 16  1  0  0  0  0
 10  6  1  0  0  0  0
 11 10  2  0  0  0  0
 12 11  1  0  0  0  0
 13 11  1  0  0  0  0
 13 14  1  0  0  0  0
 14 15  1  0  0  0  0
 14 16  2  0  0  0  0
 18 17  3  0  0  0  0
 19 20  1  0  0  0  0
 20 21  1  0  0  0  0
 21 22  2  0  0  0  0
 21 30  1  0  0  0  0
 22 26  1  0  0  0  0
 23 22  1  0  0  0  0
 24 23  2  0  0  0  0
 25 24  1  0  0  0  0
 25 20  2  0  0  0  0
 27 24  1  0  0  0  0
 28 29  2  0  0  0  0
 28 31  1  0  0  0  0
 30 32  1  0  0  0  0
 30 28  1  0  0  0  0
M  END
>  <minimizedAffinity>
-5.02683258

$$$$

 OpenBabel03272507403D

 32 34  0  0  0  0  0  0  0  0999 V2000
   38.2980   25.7430   33.4670 C   0  0  0  0  0  0  0  0  0  0  0  0
   38.3730   25.2040   34.7240 C   0  0  0  0  0  0  0  0  0  0  0  0
   38.1640   26.0080   35.8200 C   0  0  0  0  0  0  0  0  0  0  0  0
   37.8780   27.3570   35.6480 C   0  0  0  0  0  0  0  0  0  0  0  0
   37.8060   27.8840   34.3680 C   0  0  0  0  0  0  0  0  0  0  0  0
   38.0190   27.0660   33.2670 C   0  0  0  0  0  0  0  0  0  0  0  0
   38.2050   25.6630   36.8440 H   0  0  0  0  0  0  0  0  0  0  0  0
   37.7090   28.0160   36.4890 H   0  0  0  0  0  0  0  0  0  0  0  0
   37.5840   28.9260   34.2760 H   0  0  0  0  0  0  0  0  0  0  0  0
   37.9490   27.5980   31.8830 C   0  0  0  0  0  0  0  0  0  0  0  0
   36.6470   27.9310   31.3120 C   0  0  0  0  0  0  0  0  0  0  0  0
   35.6450   27.8310   31.8160 H   0  0  0  0  0  0  0  0  0  0  0  0
   37.1310   28.5190   29.6500 S   0  0  0  0  0  0  0  0  0  0  0  0
   38.9790   28.2250   29.9860 C   0  0  0  0  0  0  0  0  0  0  0  0
   39.7900   28.4150   29.2970 H   0  0  0  0  0  0  0  0  0  0  0  0
   39.0050   27.7930   31.1190 N   0  0  0  0  0  0  0  0  0  0  0  0
   38.7320   24.1190   31.4810 N   0  0  0  0  0  0  0  0  0  0  0  0
   38.5310   24.8440   32.3600 C   0  0  0  0  0  0  0  0  0  0  0  0
   38.6450   23.8950   35.0340 O   0  0  0  0  0  0  0  0  0  0  0  0
   39.8200   23.4510   35.5870 C   0  0  0  0  0  0  0  0  0  0  0  0
   39.5950   22.7540   36.7730 C   0  0  0  0  0  0  0  0  0  0  0  0
   40.6460   22.2260   37.4850 C   0  0  0  0  0  0  0  0  0  0  0  0
   41.9080   22.4220   36.9670 N   0  0  0  0  0  0  0  0  0  0  0  0
   42.1050   23.0970   35.8190 C   0  0  0  0  0  0  0  0  0  0  0  0
   41.0790   23.5990   35.1470 N   0  0  0  0  0  0  0  0  0  0  0  0
   40.5810   21.6810   38.3980 H   0  0  0  0  0  0  0  0  0  0  0  0
   43.0520   23.2840   35.3590 H   0  0  0  0  0  0  0  0  0  0  0  0
   37.8010   23.3890   38.3120 C   0  0  0  0  0  0  0  0  0  0  0  0
   38.2570   24.4190   38.9510 O   0  0  0  0  0  0  0  0  0  0  0  0
   38.3530   22.4830   37.3560 N   0  0  0  0  0  0  0  0  0  0  0  0
   37.0520   23.8160   38.9660 H   0  0  0  0  0  0  0  0  0  0  0  0
   37.5560   21.8460   37.4310 H   0  0  0  0  0  0  0  0  0  0  0  0
  1  2  1  0  0  0  0
  2 19  1  0  0  0  0
  2  3  2  0  0  0  0
  3  7  1  0  0  0  0
  4  3  1  0  0  0  0
  4  8  1  0  0  0  0
  5  4  2  0  0  0  0
  6  1  2  0  0  0  0
  6  5  1  0  0  0  0
  9  5  1  0  0  0  0
 10  6  1  0  0  0  0
 11 12  1  0  0  0  0
 11 10  2  0  0  0  0
 13 14  1  0  0  0  0
 13 11  1  0  0  0  0
 14 16  2  0  0  0  0
 15 14  1  0  0  0  0
 16 10  1  0  0  0  0
 17 18  3  0  0  0  0
 18  1  1  0  0  0  0
 19 20  1  0  0  0  0
 20 21  1  0  0  0  0
 21 30  1  0  0  0  0
 21 22  2  0  0  0  0
 22 26  1  0  0  0  0
 23 22  1  0  0  0  0
 24 23  2  0  0  0  0
 25 20  2  0  0  0  0
 25 24  1  0  0  0  0
 27 24  1  0  0  0  0
 28 29  2  0  0  0  0
 28 31  1  0  0  0  0
 30 32  1  0  0  0  0
 30 28  1  0  0  0  0
M  END
>  <minimizedAffinity>
-4.96831846

$$$$

 OpenBabel03272507403D

 32 34  0  0  0  0  0  0  0  0999 V2000
   37.9230   25.5430   34.0400 C   0  0  0  0  0  0  0  0  0  0  0  0
   37.1740   26.6120   33.6290 C   0  0  0  0  0  0  0  0  0  0  0  0
   37.1060   27.7370   34.4180 C   0  0  0  0  0  0  0  0  0  0  0  0
   37.7970   27.7830   35.6230 C   0  0  0  0  0  0  0  0  0  0  0  0
   38.5500   26.6890   36.0230 C   0  0  0  0  0  0  0  0  0  0  0  0
   38.6120   25.5580   35.2210 C   0  0  0  0  0  0  0  0  0  0  0  0
   36.5400   28.6220   34.1670 H   0  0  0  0  0  0  0  0  0  0  0  0
   37.7640   28.6510   36.2660 H   0  0  0  0  0  0  0  0  0  0  0  0
   39.0660   26.7630   36.9560 H   0  0  0  0  0  0  0  0  0  0  0  0
   39.4090   24.3720   35.6190 C   0  0  0  0  0  0  0  0  0  0  0  0
   38.8080   23.3680   36.4920 C   0  0  0  0  0  0  0  0  0  0  0  0
   37.7660   23.3840   36.9190 H   0  0  0  0  0  0  0  0  0  0  0  0
   40.1810   22.1720   36.6550 S   0  0  0  0  0  0  0  0  0  0  0  0
   41.3270   23.2000   35.5390 C   0  0  0  0  0  0  0  0  0  0  0  0
   42.3430   22.9510   35.2660 H   0  0  0  0  0  0  0  0  0  0  0  0
   40.6510   24.1590   35.2290 N   0  0  0  0  0  0  0  0  0  0  0  0
   37.9520   23.4730   32.4650 N   0  0  0  0  0  0  0  0  0  0  0  0
   37.9480   24.3920   33.1660 C   0  0  0  0  0  0  0  0  0  0  0  0
   36.4470   26.6990   32.4670 O   0  0  0  0  0  0  0  0  0  0  0  0
   36.4050   27.8020   31.6520 C   0  0  0  0  0  0  0  0  0  0  0  0
   37.2310   27.6470   30.5400 C   0  0  0  0  0  0  0  0  0  0  0  0
   37.3310   28.6450   29.5980 C   0  0  0  0  0  0  0  0  0  0  0  0
   36.5830   29.7810   29.8150 N   0  0  0  0  0  0  0  0  0  0  0  0
   35.7900   29.9110   30.8960 C   0  0  0  0  0  0  0  0  0  0  0  0
   35.7080   28.9390   31.7920 N   0  0  0  0  0  0  0  0  0  0  0  0
   37.9310   28.6250   28.7180 H   0  0  0  0  0  0  0  0  0  0  0  0
   35.1830   30.7610   31.1260 H   0  0  0  0  0  0  0  0  0  0  0  0
   39.3860   26.4880   30.5680 C   0  0  0  0  0  0  0  0  0  0  0  0
   40.2320   27.3640   31.0070 O   0  0  0  0  0  0  0  0  0  0  0  0
   38.0000   26.5230   30.2250 N   0  0  0  0  0  0  0  0  0  0  0  0
   40.3690   26.0570   30.7090 H   0  0  0  0  0  0  0  0  0  0  0  0
   38.0350   25.5940   29.7960 H   0  0  0  0  0  0  0  0  0  0  0  0
  1  6  1  0  0  0  0
  2  1  2  0  0  0  0
  2  3  1  0  0  0  0
  3  4  2  0  0  0  0
  4  5  1  0  0  0  0
  4  8  1  0  0  0  0
  5  9  1  0  0  0  0
  6 10  1  0  0  0  0
  6  5  2  0  0  0  0
  7  3  1  0  0  0  0
 10 11  2  0  0  0  0
 11 13  1  0  0  0  0
 11 12  1  0  0  0  0
 14 13  1  0  0  0  0
 15 14  1  0  0  0  0
 16 14  2  0  0  0  0
 16 10  1  0  0  0  0
 17 18  3  0  0  0  0
 18  1  1  0  0  0  0
 19  2  1  0  0  0  0
 20 25  1  0  0  0  0
 20 19  1  0  0  0  0
 21 20  2  0  0  0  0
 22 23  2  0  0  0  0
 22 21  1  0  0  0  0
 23 24  1  0  0  0  0
 24 27  1  0  0  0  0
 24 25  2  0  0  0  0
 26 22  1  0  0  0  0
 28 31  1  0  0  0  0
 28 29  2  0  0  0  0
 30 21  1  0  0  0  0
 30 28  1  0  0  0  0
 32 30  1  0  0  0  0
M  END
>  <minimizedAffinity>
-4.83878565

$$$$

 OpenBabel03272507403D

 32 34  0  0  0  0  0  0  0  0999 V2000
   37.3300   26.0900   31.7300 C   0  0  0  0  0  0  0  0  0  0  0  0
   37.2130   24.7790   32.1060 C   0  0  0  0  0  0  0  0  0  0  0  0
   36.0770   24.0770   31.7760 C   0  0  0  0  0  0  0  0  0  0  0  0
   35.0580   24.7000   31.0650 C   0  0  0  0  0  0  0  0  0  0  0  0
   35.1940   26.0290   30.6940 C   0  0  0  0  0  0  0  0  0  0  0  0
   36.3440   26.7290   31.0310 C   0  0  0  0  0  0  0  0  0  0  0  0
   35.9060   23.0420   32.0330 H   0  0  0  0  0  0  0  0  0  0  0  0
   34.1520   24.1760   30.7900 H   0  0  0  0  0  0  0  0  0  0  0  0
   34.3890   26.4720   30.1480 H   0  0  0  0  0  0  0  0  0  0  0  0
   36.5220   28.1520   30.6480 C   0  0  0  0  0  0  0  0  0  0  0  0
   36.0200   29.1980   31.5350 C   0  0  0  0  0  0  0  0  0  0  0  0
   35.4910   29.0500   32.5180 H   0  0  0  0  0  0  0  0  0  0  0  0
   36.4900   30.7030   30.6090 S   0  0  0  0  0  0  0  0  0  0  0  0
   37.2740   29.6970   29.1980 C   0  0  0  0  0  0  0  0  0  0  0  0
   37.7450   30.1010   28.3130 H   0  0  0  0  0  0  0  0  0  0  0  0
   37.1150   28.5430   29.5380 N   0  0  0  0  0  0  0  0  0  0  0  0
   39.5300   27.2990   32.4140 N   0  0  0  0  0  0  0  0  0  0  0  0
   38.5470   26.7690   32.1110 C   0  0  0  0  0  0  0  0  0  0  0  0
   38.1400   24.0470   32.8060 O   0  0  0  0  0  0  0  0  0  0  0  0
   38.1060   23.8350   34.1620 C   0  0  0  0  0  0  0  0  0  0  0  0
   38.0050   22.4780   34.4630 C   0  0  0  0  0  0  0  0  0  0  0  0
   37.9550   22.0540   35.7710 C   0  0  0  0  0  0  0  0  0  0  0  0
   38.0110   23.0290   36.7430 N   0  0  0  0  0  0  0  0  0  0  0  0
   38.1100   24.3350   36.4300 C   0  0  0  0  0  0  0  0  0  0  0  0
   38.1550   24.7240   35.1650 N   0  0  0  0  0  0  0  0  0  0  0  0
   37.8780   21.0460   36.1060 H   0  0  0  0  0  0  0  0  0  0  0  0
   38.1590   25.1430   37.1300 H   0  0  0  0  0  0  0  0  0  0  0  0
   36.7220   20.8410   33.1740 C   0  0  0  0  0  0  0  0  0  0  0  0
   35.5070   20.9480   33.6110 O   0  0  0  0  0  0  0  0  0  0  0  0
   37.9710   21.4220   33.5480 N   0  0  0  0  0  0  0  0  0  0  0  0
   36.0390   20.2200   32.6090 H   0  0  0  0  0  0  0  0  0  0  0  0
   38.5000   20.7810   32.9500 H   0  0  0  0  0  0  0  0  0  0  0  0
  1  2  1  0  0  0  0
  1 18  1  0  0  0  0
  2 19  1  0  0  0  0
  3  7  1  0  0  0  0
  3  2  2  0  0  0  0
  4  3  1  0  0  0  0
  5  6  1  0  0  0  0
  5  4  2  0  0  0  0
  6  1  2  0  0  0  0
  8  4  1  0  0  0  0
  9  5  1  0  0  0  0
 10  6  1  0  0  0  0
 10 11  2  0  0  0  0
 11 12  1  0  0  0  0
 13 11  1  0  0  0  0
 14 16  2  0  0  0  0
 14 13  1  0  0  0  0
 15 14  1  0  0  0  0
 16 10  1  0  0  0  0
 18 17  3  0  0  0  0
 19 20  1  0  0  0  0
 20 21  2  0  0  0  0
 20 25  1  0  0  0  0
 21 22  1  0  0  0  0
 22 26  1  0  0  0  0
 22 23  2  0  0  0  0
 24 23  1  0  0  0  0
 24 27  1  0  0  0  0
 25 24  2  0  0  0  0
 28 30  1  0  0  0  0
 28 29  2  0  0  0  0
 30 21  1  0  0  0  0
 31 28  1  0  0  0  0
 32 30  1  0  0  0  0
M  END
>  <minimizedAffinity>
-4.77198458

$$$$

 OpenBabel03272507403D

 32 34  0  0  0  0  0  0  0  0999 V2000
   37.2410   26.3130   33.7340 C   0  0  0  0  0  0  0  0  0  0  0  0
   37.9000   25.4580   34.5760 C   0  0  0  0  0  0  0  0  0  0  0  0
   38.4260   25.9360   35.7530 C   0  0  0  0  0  0  0  0  0  0  0  0
   38.2880   27.2790   36.0810 C   0  0  0  0  0  0  0  0  0  0  0  0
   37.6180   28.1300   35.2160 C   0  0  0  0  0  0  0  0  0  0  0  0
   37.0900   27.6390   34.0300 C   0  0  0  0  0  0  0  0  0  0  0  0
   38.9590   25.3290   36.4710 H   0  0  0  0  0  0  0  0  0  0  0  0
   38.6900   27.6860   36.9990 H   0  0  0  0  0  0  0  0  0  0  0  0
   37.5320   29.1560   35.5040 H   0  0  0  0  0  0  0  0  0  0  0  0
   36.3670   28.5230   33.0820 C   0  0  0  0  0  0  0  0  0  0  0  0
   35.0660   29.0660   33.4630 C   0  0  0  0  0  0  0  0  0  0  0  0
   34.5200   28.8890   34.4320 H   0  0  0  0  0  0  0  0  0  0  0  0
   34.6440   30.0480   31.9790 S   0  0  0  0  0  0  0  0  0  0  0  0
   36.2610   29.5760   31.0980 C   0  0  0  0  0  0  0  0  0  0  0  0
   36.5670   29.8970   30.1120 H   0  0  0  0  0  0  0  0  0  0  0  0
   36.8290   28.8570   31.8940 N   0  0  0  0  0  0  0  0  0  0  0  0
   36.2960   25.3080   31.5280 N   0  0  0  0  0  0  0  0  0  0  0  0
   36.7150   25.7470   32.5130 C   0  0  0  0  0  0  0  0  0  0  0  0
   38.1070   24.1150   34.3740 O   0  0  0  0  0  0  0  0  0  0  0  0
   39.2670   23.4490   34.6800 C   0  0  0  0  0  0  0  0  0  0  0  0
   39.0860   22.5770   35.7530 C   0  0  0  0  0  0  0  0  0  0  0  0
   40.1320   21.8140   36.2170 C   0  0  0  0  0  0  0  0  0  0  0  0
   41.3410   21.9580   35.5720 N   0  0  0  0  0  0  0  0  0  0  0  0
   41.4940   22.8040   34.5360 C   0  0  0  0  0  0  0  0  0  0  0  0
   40.4750   23.5320   34.1040 N   0  0  0  0  0  0  0  0  0  0  0  0
   40.0990   21.1220   37.0270 H   0  0  0  0  0  0  0  0  0  0  0  0
   42.4000   22.9650   33.9900 H   0  0  0  0  0  0  0  0  0  0  0  0
   36.8390   21.6130   35.8250 C   0  0  0  0  0  0  0  0  0  0  0  0
   36.6170   21.1910   34.6200 O   0  0  0  0  0  0  0  0  0  0  0  0
   37.8950   22.3460   36.4460 N   0  0  0  0  0  0  0  0  0  0  0  0
   35.8980   21.0810   35.7560 H   0  0  0  0  0  0  0  0  0  0  0  0
   37.3540   22.4860   37.3040 H   0  0  0  0  0  0  0  0  0  0  0  0
  1  6  2  0  0  0  0
  1  2  1  0  0  0  0
  2  3  2  0  0  0  0
  3  4  1  0  0  0  0
  3  7  1  0  0  0  0
  4  8  1  0  0  0  0
  5  9  1  0  0  0  0
  5  4  2  0  0  0  0
  6  5  1  0  0  0  0
 10 11  2  0  0  0  0
 10  6  1  0  0  0  0
 11 12  1  0  0  0  0
 13 11  1  0  0  0  0
 14 16  2  0  0  0  0
 14 13  1  0  0  0  0
 15 14  1  0  0  0  0
 16 10  1  0  0  0  0
 17 18  3  0  0  0  0
 18  1  1  0  0  0  0
 19  2  1  0  0  0  0
 19 20  1  0  0  0  0
 20 21  1  0  0  0  0
 21 22  2  0  0  0  0
 21 30  1  0  0  0  0
 22 26  1  0  0  0  0
 23 22  1  0  0  0  0
 24 23  2  0  0  0  0
 25 24  1  0  0  0  0
 25 20  2  0  0  0  0
 27 24  1  0  0  0  0
 28 30  1  0  0  0  0
 29 28  2  0  0  0  0
 30 32  1  0  0  0  0
 31 28  1  0  0  0  0
M  END
>  <minimizedAffinity>
-4.73197651

$$$$

 OpenBabel03272507403D

 32 34  0  0  0  0  0  0  0  0999 V2000
   37.8080   25.3220   32.7700 C   0  0  0  0  0  0  0  0  0  0  0  0
   38.0090   24.0410   33.2080 C   0  0  0  0  0  0  0  0  0  0  0  0
   37.1960   23.0310   32.7490 C   0  0  0  0  0  0  0  0  0  0  0  0
   36.1780   23.3150   31.8470 C   0  0  0  0  0  0  0  0  0  0  0  0
   35.9890   24.6190   31.4150 C   0  0  0  0  0  0  0  0  0  0  0  0
   36.8150   25.6320   31.8840 C   0  0  0  0  0  0  0  0  0  0  0  0
   37.2870   21.9950   33.0440 H   0  0  0  0  0  0  0  0  0  0  0  0
   35.5210   22.5440   31.4670 H   0  0  0  0  0  0  0  0  0  0  0  0
   35.1960   24.7970   30.7210 H   0  0  0  0  0  0  0  0  0  0  0  0
   36.6400   27.0370   31.4410 C   0  0  0  0  0  0  0  0  0  0  0  0
   35.7900   27.9310   32.2220 C   0  0  0  0  0  0  0  0  0  0  0  0
   35.2260   27.6730   33.1620 H   0  0  0  0  0  0  0  0  0  0  0  0
   35.9270   29.4800   31.2610 S   0  0  0  0  0  0  0  0  0  0  0  0
   37.0880   28.6870   29.9800 C   0  0  0  0  0  0  0  0  0  0  0  0
   37.5190   29.1790   29.1190 H   0  0  0  0  0  0  0  0  0  0  0  0
   37.2130   27.5440   30.3670 N   0  0  0  0  0  0  0  0  0  0  0  0
   39.4030   27.1400   33.7280 N   0  0  0  0  0  0  0  0  0  0  0  0
   38.6960   26.3350   33.2940 C   0  0  0  0  0  0  0  0  0  0  0  0
   38.9730   23.6240   34.0930 O   0  0  0  0  0  0  0  0  0  0  0  0
   38.8160   23.5800   35.4560 C   0  0  0  0  0  0  0  0  0  0  0  0
   39.8590   22.8850   36.0670 C   0  0  0  0  0  0  0  0  0  0  0  0
   39.8870   22.7280   37.4340 C   0  0  0  0  0  0  0  0  0  0  0  0
   38.8480   23.2860   38.1460 N   0  0  0  0  0  0  0  0  0  0  0  0
   37.8510   23.9540   37.5360 C   0  0  0  0  0  0  0  0  0  0  0  0
   37.8410   24.0950   36.2190 N   0  0  0  0  0  0  0  0  0  0  0  0
   40.6340   22.2160   37.9950 H   0  0  0  0  0  0  0  0  0  0  0  0
   37.0170   24.4130   38.0240 H   0  0  0  0  0  0  0  0  0  0  0  0
   42.1940   23.0350   35.3520 C   0  0  0  0  0  0  0  0  0  0  0  0
   42.5470   24.2540   35.6120 O   0  0  0  0  0  0  0  0  0  0  0  0
   40.9640   22.3140   35.4310 N   0  0  0  0  0  0  0  0  0  0  0  0
   43.2470   23.1950   35.1580 H   0  0  0  0  0  0  0  0  0  0  0  0
   41.3470   21.5140   34.9190 H   0  0  0  0  0  0  0  0  0  0  0  0
  1  2  1  0  0  0  0
  1 18  1  0  0  0  0
  2 19  1  0  0  0  0
  3  7  1  0  0  0  0
  3  2  2  0  0  0  0
  4  3  1  0  0  0  0
  5  4  2  0  0  0  0
  5  6  1  0  0  0  0
  6  1  2  0  0  0  0
  8  4  1  0  0  0  0
  9  5  1  0  0  0  0
 10  6  1  0  0  0  0
 10 11  2  0  0  0  0
 11 12  1  0  0  0  0
 13 11  1  0  0  0  0
 14 16  2  0  0  0  0
 14 13  1  0  0  0  0
 15 14  1  0  0  0  0
 16 10  1  0  0  0  0
 18 17  3  0  0  0  0
 19 20  1  0  0  0  0
 20 21  2  0  0  0  0
 20 25  1  0  0  0  0
 21 22  1  0  0  0  0
 22 26  1  0  0  0  0
 22 23  2  0  0  0  0
 24 27  1  0  0  0  0
 24 23  1  0  0  0  0
 25 24  2  0  0  0  0
 28 30  1  0  0  0  0
 28 29  2  0  0  0  0
 30 21  1  0  0  0  0
 31 28  1  0  0  0  0
 32 30  1  0  0  0  0
M  END
>  <minimizedAffinity>
-4.72243261

$$$$

 OpenBabel03272507403D

 32 34  0  0  0  0  0  0  0  0999 V2000
   37.6660   25.6610   33.9790 C   0  0  0  0  0  0  0  0  0  0  0  0
   38.1160   24.9570   35.0640 C   0  0  0  0  0  0  0  0  0  0  0  0
   38.4660   25.6280   36.2120 C   0  0  0  0  0  0  0  0  0  0  0  0
   38.3620   27.0130   36.2650 C   0  0  0  0  0  0  0  0  0  0  0  0
   37.9050   27.7090   35.1560 C   0  0  0  0  0  0  0  0  0  0  0  0
   37.5540   27.0230   34.0020 C   0  0  0  0  0  0  0  0  0  0  0  0
   38.8290   25.1500   37.1100 H   0  0  0  0  0  0  0  0  0  0  0  0
   38.6300   27.5710   37.1520 H   0  0  0  0  0  0  0  0  0  0  0  0
   37.8400   28.7730   35.2360 H   0  0  0  0  0  0  0  0  0  0  0  0
   37.0610   27.7370   32.7980 C   0  0  0  0  0  0  0  0  0  0  0  0
   37.9660   27.9460   31.6720 C   0  0  0  0  0  0  0  0  0  0  0  0
   39.0400   27.6150   31.6000 H   0  0  0  0  0  0  0  0  0  0  0  0
   36.8790   28.8430   30.5060 S   0  0  0  0  0  0  0  0  0  0  0  0
   35.4050   28.7950   31.7060 C   0  0  0  0  0  0  0  0  0  0  0  0
   34.4220   29.2090   31.5250 H   0  0  0  0  0  0  0  0  0  0  0  0
   35.8350   28.2070   32.6760 N   0  0  0  0  0  0  0  0  0  0  0  0
   37.0380   24.2670   31.8750 N   0  0  0  0  0  0  0  0  0  0  0  0
   37.3180   24.8940   32.8050 C   0  0  0  0  0  0  0  0  0  0  0  0
   38.2650   23.5940   35.1450 O   0  0  0  0  0  0  0  0  0  0  0  0
   39.3290   22.9580   35.7340 C   0  0  0  0  0  0  0  0  0  0  0  0
   40.2650   22.5460   34.7870 C   0  0  0  0  0  0  0  0  0  0  0  0
   41.4080   21.8860   35.1740 C   0  0  0  0  0  0  0  0  0  0  0  0
   41.5700   21.6640   36.5240 N   0  0  0  0  0  0  0  0  0  0  0  0
   40.6550   22.0710   37.4240 C   0  0  0  0  0  0  0  0  0  0  0  0
   39.5590   22.7050   37.0310 N   0  0  0  0  0  0  0  0  0  0  0  0
   42.1810   21.5300   34.5330 H   0  0  0  0  0  0  0  0  0  0  0  0
   40.7160   21.9350   38.4830 H   0  0  0  0  0  0  0  0  0  0  0  0
   40.8530   23.8790   32.8210 C   0  0  0  0  0  0  0  0  0  0  0  0
   41.4240   24.9410   33.2950 O   0  0  0  0  0  0  0  0  0  0  0  0
   40.1980   22.7530   33.4060 N   0  0  0  0  0  0  0  0  0  0  0  0
   41.2400   24.5100   32.0310 H   0  0  0  0  0  0  0  0  0  0  0  0
   39.8420   22.4330   32.5010 H   0  0  0  0  0  0  0  0  0  0  0  0
  1  6  2  0  0  0  0
  1  2  1  0  0  0  0
  2 19  1  0  0  0  0
  2  3  2  0  0  0  0
  3  4  1  0  0  0  0
  3  7  1  0  0  0  0
  4  8  1  0  0  0  0
  5  9  1  0  0  0  0
  5  4  2  0  0  0  0
  6  5  1  0  0  0  0
 10  6  1  0  0  0  0
 11 10  2  0  0  0  0
 12 11  1  0  0  0  0
 13 11  1  0  0  0  0
 13 14  1  0  0  0  0
 14 16  2  0  0  0  0
 15 14  1  0  0  0  0
 16 10  1  0  0  0  0
 17 18  3  0  0  0  0
 18  1  1  0  0  0  0
 19 20  1  0  0  0  0
 20 25  1  0  0  0  0
 21 22  1  0  0  0  0
 21 20  2  0  0  0  0
 22 23  2  0  0  0  0
 23 24  1  0  0  0  0
 24 27  1  0  0  0  0
 25 24  2  0  0  0  0
 26 22  1  0  0  0  0
 28 29  2  0  0  0  0
 28 30  1  0  0  0  0
 30 21  1  0  0  0  0
 31 28  1  0  0  0  0
 32 30  1  0  0  0  0
M  END
>  <minimizedAffinity>
-4.69486809

$$$$

 OpenBabel03272507403D

 32 34  0  0  0  0  0  0  0  0999 V2000
   37.5910   27.5300   33.1210 C   0  0  0  0  0  0  0  0  0  0  0  0
   37.0390   27.9180   34.3120 C   0  0  0  0  0  0  0  0  0  0  0  0
   37.7310   27.7090   35.4820 C   0  0  0  0  0  0  0  0  0  0  0  0
   38.9840   27.1070   35.4490 C   0  0  0  0  0  0  0  0  0  0  0  0
   39.5260   26.7200   34.2340 C   0  0  0  0  0  0  0  0  0  0  0  0
   38.8200   26.9350   33.0580 C   0  0  0  0  0  0  0  0  0  0  0  0
   37.3680   27.9850   36.4620 H   0  0  0  0  0  0  0  0  0  0  0  0
   39.5540   26.9280   36.3510 H   0  0  0  0  0  0  0  0  0  0  0  0
   40.4910   26.2600   34.2500 H   0  0  0  0  0  0  0  0  0  0  0  0
   39.3720   26.5330   31.7410 C   0  0  0  0  0  0  0  0  0  0  0  0
   40.2700   27.4440   31.0360 C   0  0  0  0  0  0  0  0  0  0  0  0
   40.6110   28.4590   31.3850 H   0  0  0  0  0  0  0  0  0  0  0  0
   40.6340   26.4820   29.5240 S   0  0  0  0  0  0  0  0  0  0  0  0
   39.5350   25.0310   30.0760 C   0  0  0  0  0  0  0  0  0  0  0  0
   39.3650   24.1160   29.5260 H   0  0  0  0  0  0  0  0  0  0  0  0
   39.1010   25.3860   31.1510 N   0  0  0  0  0  0  0  0  0  0  0  0
   36.1700   27.9680   30.9870 N   0  0  0  0  0  0  0  0  0  0  0  0
   36.8090   27.7760   31.9310 C   0  0  0  0  0  0  0  0  0  0  0  0
   35.8170   28.5210   34.4850 O   0  0  0  0  0  0  0  0  0  0  0  0
   35.6300   29.8680   34.6690 C   0  0  0  0  0  0  0  0  0  0  0  0
   34.7400   30.3920   33.7320 C   0  0  0  0  0  0  0  0  0  0  0  0
   34.4170   31.7290   33.7450 C   0  0  0  0  0  0  0  0  0  0  0  0
   35.0130   32.5030   34.7180 N   0  0  0  0  0  0  0  0  0  0  0  0
   35.8690   31.9770   35.6140 C   0  0  0  0  0  0  0  0  0  0  0  0
   36.1680   30.6860   35.5850 N   0  0  0  0  0  0  0  0  0  0  0  0
   33.7530   32.2250   33.0770 H   0  0  0  0  0  0  0  0  0  0  0  0
   36.3650   32.5150   36.3950 H   0  0  0  0  0  0  0  0  0  0  0  0
   32.7390   29.2130   32.9610 C   0  0  0  0  0  0  0  0  0  0  0  0
   31.9710   29.1410   34.0010 O   0  0  0  0  0  0  0  0  0  0  0  0
   34.0690   29.6810   32.7330 N   0  0  0  0  0  0  0  0  0  0  0  0
   31.7760   28.7840   32.7150 H   0  0  0  0  0  0  0  0  0  0  0  0
   34.0990   29.2790   31.7920 H   0  0  0  0  0  0  0  0  0  0  0  0
  1  2  1  0  0  0  0
  2 19  1  0  0  0  0
  2  3  2  0  0  0  0
  3  7  1  0  0  0  0
  4  3  1  0  0  0  0
  4  8  1  0  0  0  0
  5  9  1  0  0  0  0
  5  4  2  0  0  0  0
  6  1  2  0  0  0  0
  6  5  1  0  0  0  0
 10  6  1  0  0  0  0
 11 12  1  0  0  0  0
 11 10  2  0  0  0  0
 13 14  1  0  0  0  0
 13 11  1  0  0  0  0
 14 16  2  0  0  0  0
 15 14  1  0  0  0  0
 16 10  1  0  0  0  0
 17 18  3  0  0  0  0
 18  1  1  0  0  0  0
 19 20  1  0  0  0  0
 20 25  1  0  0  0  0
 21 22  1  0  0  0  0
 21 20  2  0  0  0  0
 22 23  2  0  0  0  0
 23 24  1  0  0  0  0
 24 27  1  0  0  0  0
 25 24  2  0  0  0  0
 26 22  1  0  0  0  0
 28 29  2  0  0  0  0
 30 28  1  0  0  0  0
 30 21  1  0  0  0  0
 31 28  1  0  0  0  0
 32 30  1  0  0  0  0
M  END
>  <minimizedAffinity>
-4.66697264

$$$$
