
 OpenBabel03272502393D

 38 41  0  0  1  0  0  0  0  0999 V2000
   32.4110   27.9340   48.8120 N   0  0  0  0  0  0  0  0  0  0  0  0
   33.2680   27.2510   47.8550 C   0  0  0  0  0  0  0  0  0  0  0  0
   34.5670   27.9930   47.9720 C   0  0  0  0  0  0  0  0  0  0  0  0
   34.2500   29.2290   48.9270 C   0  0  1  0  0  0  0  0  0  0  0  0
   33.2630   28.6090   49.8160 C   0  0  0  0  0  0  0  0  0  0  0  0
   32.8870   27.4320   46.8330 H   0  0  0  0  0  0  0  0  0  0  0  0
   33.4210   26.1870   48.0730 H   0  0  0  0  0  0  0  0  0  0  0  0
   35.3490   27.4540   48.5230 H   0  0  0  0  0  0  0  0  0  0  0  0
   34.9590   28.4250   47.0560 H   0  0  0  0  0  0  0  0  0  0  0  0
   33.8640   29.9310   48.1780 H   0  0  0  0  0  0  0  0  0  0  0  0
   33.7610   27.8200   50.4370 H   0  0  0  0  0  0  0  0  0  0  0  0
   32.6600   29.2870   50.4240 H   0  0  0  0  0  0  0  0  0  0  0  0
   36.0400   30.9660   47.5870 F   0  0  0  0  0  0  0  0  0  0  0  0
   36.2760   30.5270   48.8350 C   0  0  0  0  0  0  0  0  0  0  0  0
   35.5030   29.6520   49.5520 C   0  0  0  0  0  0  0  0  0  0  0  0
   35.9210   29.3190   50.8500 C   0  0  0  0  0  0  0  0  0  0  0  0
   37.0620   29.8370   51.4130 C   0  0  0  0  0  0  0  0  0  0  0  0
   37.8280   30.7280   50.6500 C   0  0  0  0  0  0  0  0  0  0  0  0
   37.4240   31.0740   49.3400 C   0  0  0  0  0  0  0  0  0  0  0  0
   35.2530   28.6230   51.3370 H   0  0  0  0  0  0  0  0  0  0  0  0
   37.3180   29.5420   52.4010 H   0  0  0  0  0  0  0  0  0  0  0  0
   38.6940   31.0700   51.1830 H   0  0  0  0  0  0  0  0  0  0  0  0
   38.2990   32.0300   48.6650 C   0  0  0  0  0  0  0  0  0  0  0  0
   38.5590   33.3250   49.3420 C   0  0  0  0  0  0  0  0  0  0  0  0
   38.3240   33.8150   50.1750 H   0  0  0  0  0  0  0  0  0  0  0  0
   39.6140   34.1970   48.2390 S   0  0  0  0  0  0  0  0  0  0  0  0
   39.6090   32.7600   46.9850 C   0  0  0  0  0  0  0  0  0  0  0  0
   40.0090   32.2970   45.8680 H   0  0  0  0  0  0  0  0  0  0  0  0
   38.8060   31.7120   47.4860 N   0  0  0  0  0  0  0  0  0  0  0  0
   31.0060   27.9800   48.8190 C   0  0  0  0  0  0  0  0  0  0  0  0
   30.3940   28.0830   47.5600 C   0  0  0  0  0  0  0  0  0  0  0  0
   28.9930   28.1370   47.4840 C   0  0  0  0  0  0  0  0  0  0  0  0
   28.3100   28.0850   48.6850 N   0  0  0  0  0  0  0  0  0  0  0  0
   28.9400   27.9860   49.8730 C   0  0  0  0  0  0  0  0  0  0  0  0
   30.2810   27.9340   49.9250 N   0  0  0  0  0  0  0  0  0  0  0  0
   30.8820   28.1260   46.6180 H   0  0  0  0  0  0  0  0  0  0  0  0
   28.4810   28.2170   46.5420 H   0  0  0  0  0  0  0  0  0  0  0  0
   28.3740   27.9470   50.7810 H   0  0  0  0  0  0  0  0  0  0  0  0
  1 30  1  0  0  0  0
  1  5  1  0  0  0  0
  2  3  1  0  0  0  0
  2  7  1  0  0  0  0
  2  1  1  0  0  0  0
  3  8  1  0  0  0  0
  3  4  1  0  0  0  0
  4 10  1  6  0  0  0
  4 15  1  0  0  0  0
  4  5  1  0  0  0  0
  5 12  1  0  0  0  0
  5 11  1  0  0  0  0
  6  2  1  0  0  0  0
  9  3  1  0  0  0  0
 13 14  1  0  0  0  0
 14 19  2  0  0  0  0
 14 15  1  0  0  0  0
 15 16  2  0  0  0  0
 16 20  1  0  0  0  0
 16 17  1  0  0  0  0
 17 21  1  0  0  0  0
 18 22  1  0  0  0  0
 18 17  2  0  0  0  0
 19 18  1  0  0  0  0
 23 19  1  0  0  0  0
 23 24  2  0  0  0  0
 24 25  1  0  0  0  0
 26 24  1  0  0  0  0
 27 29  2  0  0  0  0
 27 26  1  0  0  0  0
 28 27  1  0  0  0  0
 29 23  1  0  0  0  0
 30 35  1  0  0  0  0
 31 30  2  0  0  0  0
 32 31  1  0  0  0  0
 32 33  2  0  0  0  0
 33 34  1  0  0  0  0
 34 35  2  0  0  0  0
 34 38  1  0  0  0  0
 36 31  1  0  0  0  0
 37 32  1  0  0  0  0
M  END
>  <minimizedAffinity>
-6.51081371

>  <minimizedRMSD>
3.06662798

$$$$
