
 OpenBabel03262523073D

 39 43  0  0  0  0  0  0  0  0999 V2000
   37.2350   26.8320   32.5120 C   0  0  0  0  0  0  0  0  0  0  0  0
   37.7110   27.3830   31.3440 C   0  0  0  0  0  0  0  0  0  0  0  0
   37.3670   28.6670   31.0370 C   0  0  0  0  0  0  0  0  0  0  0  0
   36.5670   29.3830   31.8770 N   0  0  0  0  0  0  0  0  0  0  0  0
   36.1230   28.8080   33.0080 C   0  0  0  0  0  0  0  0  0  0  0  0
   36.4510   27.5400   33.3320 N   0  0  0  0  0  0  0  0  0  0  0  0
   38.3460   26.8230   30.6700 H   0  0  0  0  0  0  0  0  0  0  0  0
   37.7310   29.1000   30.1340 H   0  0  0  0  0  0  0  0  0  0  0  0
   35.2880   29.5850   33.8910 C   0  0  0  0  0  0  0  0  0  0  0  0
   33.9230   29.3770   33.9180 C   0  0  0  0  0  0  0  0  0  0  0  0
   32.9900   30.0200   34.7100 C   0  0  0  0  0  0  0  0  0  0  0  0
   33.5340   30.9790   35.5620 C   0  0  0  0  0  0  0  0  0  0  0  0
   32.7120   31.6610   36.3810 N   0  0  0  0  0  0  0  0  0  0  0  0
   33.1180   32.5980   37.2400 C   0  0  0  0  0  0  0  0  0  0  0  0
   34.4640   32.8890   37.2970 C   0  0  0  0  0  0  0  0  0  0  0  0
   35.3230   32.2020   36.4680 C   0  0  0  0  0  0  0  0  0  0  0  0
   34.8860   31.2280   35.5760 C   0  0  0  0  0  0  0  0  0  0  0  0
   35.7560   30.5420   34.7530 C   0  0  0  0  0  0  0  0  0  0  0  0
   33.5160   28.6190   33.2400 H   0  0  0  0  0  0  0  0  0  0  0  0
   31.9480   29.7830   34.6530 H   0  0  0  0  0  0  0  0  0  0  0  0
   32.4160   33.1290   37.8880 H   0  0  0  0  0  0  0  0  0  0  0  0
   34.7860   33.6490   37.9970 H   0  0  0  0  0  0  0  0  0  0  0  0
   36.3810   32.4100   36.4910 H   0  0  0  0  0  0  0  0  0  0  0  0
   36.8200   30.7550   34.7810 H   0  0  0  0  0  0  0  0  0  0  0  0
   37.9100   23.2260   32.3800 C   0  0  0  0  0  0  0  0  0  0  0  0
   38.2120   22.9210   33.7020 C   0  0  0  0  0  0  0  0  0  0  0  0
   38.1840   23.9640   34.6530 C   0  0  0  0  0  0  0  0  0  0  0  0
   37.8550   25.1980   34.1710 N   0  0  0  0  0  0  0  0  0  0  0  0
   37.5700   25.4620   32.8940 C   0  0  0  0  0  0  0  0  0  0  0  0
   37.6010   24.4640   32.0080 N   0  0  0  0  0  0  0  0  0  0  0  0
   37.9420   22.3940   31.6670 H   0  0  0  0  0  0  0  0  0  0  0  0
   38.4550   21.9250   33.9660 H   0  0  0  0  0  0  0  0  0  0  0  0
   38.4970   23.6910   36.0710 C   0  0  0  0  0  0  0  0  0  0  0  0
   37.6370   24.1070   37.0770 C   0  0  0  0  0  0  0  0  0  0  0  0
   36.6550   24.6670   36.9900 H   0  0  0  0  0  0  0  0  0  0  0  0
   38.5430   23.4930   38.5710 S   0  0  0  0  0  0  0  0  0  0  0  0
   39.9520   22.7700   37.5190 C   0  0  0  0  0  0  0  0  0  0  0  0
   40.8420   22.2430   37.8830 H   0  0  0  0  0  0  0  0  0  0  0  0
   39.6010   23.0470   36.3480 N   0  0  0  0  0  0  0  0  0  0  0  0
  1 29  1  0  0  0  0
  1  6  1  0  0  0  0
  2  1  2  0  0  0  0
  3  2  1  0  0  0  0
  3  4  2  0  0  0  0
  4  5  1  0  0  0  0
  5  6  2  0  0  0  0
  5  9  1  0  0  0  0
  7  2  1  0  0  0  0
  8  3  1  0  0  0  0
  9 10  2  0  0  0  0
  9 18  1  0  0  0  0
 10 11  1  0  0  0  0
 11 12  2  0  0  0  0
 12 17  1  0  0  0  0
 12 13  1  0  0  0  0
 13 14  2  0  0  0  0
 14 15  1  0  0  0  0
 14 21  1  0  0  0  0
 15 22  1  0  0  0  0
 16 23  1  0  0  0  0
 16 15  2  0  0  0  0
 17 16  1  0  0  0  0
 18 24  1  0  0  0  0
 18 17  2  0  0  0  0
 19 10  1  0  0  0  0
 20 11  1  0  0  0  0
 25 26  1  0  0  0  0
 26 32  1  0  0  0  0
 26 27  2  0  0  0  0
 27 33  1  0  0  0  0
 28 27  1  0  0  0  0
 29 28  2  0  0  0  0
 30 25  2  0  0  0  0
 30 29  1  0  0  0  0
 31 25  1  0  0  0  0
 33 39  1  0  0  0  0
 33 34  2  0  0  0  0
 34 36  1  0  0  0  0
 35 34  1  0  0  0  0
 37 38  1  0  0  0  0
 37 36  1  0  0  0  0
 39 37  2  0  0  0  0
M  END
>  <minimizedAffinity>
-6.60309124

$$$$

 OpenBabel03262523073D

 39 43  0  0  0  0  0  0  0  0999 V2000
   37.8090   25.2610   34.4550 C   0  0  0  0  0  0  0  0  0  0  0  0
   37.9530   24.7100   33.2020 C   0  0  0  0  0  0  0  0  0  0  0  0
   37.5060   25.4120   32.1210 C   0  0  0  0  0  0  0  0  0  0  0  0
   36.9280   26.6350   32.2880 N   0  0  0  0  0  0  0  0  0  0  0  0
   36.8060   27.1380   33.5280 C   0  0  0  0  0  0  0  0  0  0  0  0
   37.2420   26.4620   34.6120 N   0  0  0  0  0  0  0  0  0  0  0  0
   38.4100   23.7390   33.0580 H   0  0  0  0  0  0  0  0  0  0  0  0
   37.6140   24.9910   31.1480 H   0  0  0  0  0  0  0  0  0  0  0  0
   36.2030   28.4400   33.6860 C   0  0  0  0  0  0  0  0  0  0  0  0
   35.3970   28.9580   32.6910 C   0  0  0  0  0  0  0  0  0  0  0  0
   34.7370   30.1720   32.6910 C   0  0  0  0  0  0  0  0  0  0  0  0
   34.9380   30.9270   33.8460 C   0  0  0  0  0  0  0  0  0  0  0  0
   34.3360   32.1250   33.9500 N   0  0  0  0  0  0  0  0  0  0  0  0
   34.4510   32.9320   35.0070 C   0  0  0  0  0  0  0  0  0  0  0  0
   35.2350   32.5160   36.0610 C   0  0  0  0  0  0  0  0  0  0  0  0
   35.8600   31.2920   35.9750 C   0  0  0  0  0  0  0  0  0  0  0  0
   35.7310   30.4610   34.8660 C   0  0  0  0  0  0  0  0  0  0  0  0
   36.3590   29.2330   34.7930 C   0  0  0  0  0  0  0  0  0  0  0  0
   35.2540   28.3490   31.7920 H   0  0  0  0  0  0  0  0  0  0  0  0
   34.1330   30.4810   31.8640 H   0  0  0  0  0  0  0  0  0  0  0  0
   33.9440   33.9000   35.0510 H   0  0  0  0  0  0  0  0  0  0  0  0
   35.3230   33.1760   36.9150 H   0  0  0  0  0  0  0  0  0  0  0  0
   36.4800   30.9410   36.7850 H   0  0  0  0  0  0  0  0  0  0  0  0
   36.9810   28.8850   35.6110 H   0  0  0  0  0  0  0  0  0  0  0  0
   38.0270   23.9350   37.8710 C   0  0  0  0  0  0  0  0  0  0  0  0
   39.2070   23.2010   37.8410 C   0  0  0  0  0  0  0  0  0  0  0  0
   39.9390   23.1580   36.6340 C   0  0  0  0  0  0  0  0  0  0  0  0
   39.4050   23.8590   35.5920 N   0  0  0  0  0  0  0  0  0  0  0  0
   38.2690   24.5560   35.6490 C   0  0  0  0  0  0  0  0  0  0  0  0
   37.5900   24.5860   36.7980 N   0  0  0  0  0  0  0  0  0  0  0  0
   37.4830   23.9470   38.8220 H   0  0  0  0  0  0  0  0  0  0  0  0
   39.5290   22.6930   38.7120 H   0  0  0  0  0  0  0  0  0  0  0  0
   41.1990   22.3900   36.5510 C   0  0  0  0  0  0  0  0  0  0  0  0
   42.1490   22.6950   35.5870 C   0  0  0  0  0  0  0  0  0  0  0  0
   42.1210   23.4980   34.7870 H   0  0  0  0  0  0  0  0  0  0  0  0
   43.4470   21.4350   35.9820 S   0  0  0  0  0  0  0  0  0  0  0  0
   42.4270   20.7170   37.4170 C   0  0  0  0  0  0  0  0  0  0  0  0
   42.7090   19.8840   38.0730 H   0  0  0  0  0  0  0  0  0  0  0  0
   41.3910   21.4220   37.4090 N   0  0  0  0  0  0  0  0  0  0  0  0
  1  6  1  0  0  0  0
  1 29  1  0  0  0  0
  2  1  2  0  0  0  0
  3  4  2  0  0  0  0
  3  2  1  0  0  0  0
  4  5  1  0  0  0  0
  5  9  1  0  0  0  0
  5  6  2  0  0  0  0
  7  2  1  0  0  0  0
  8  3  1  0  0  0  0
  9 18  1  0  0  0  0
 10  9  2  0  0  0  0
 11 10  1  0  0  0  0
 11 12  2  0  0  0  0
 12 13  1  0  0  0  0
 12 17  1  0  0  0  0
 13 14  2  0  0  0  0
 14 21  1  0  0  0  0
 14 15  1  0  0  0  0
 15 22  1  0  0  0  0
 16 15  2  0  0  0  0
 16 23  1  0  0  0  0
 17 16  1  0  0  0  0
 18 17  2  0  0  0  0
 18 24  1  0  0  0  0
 19 10  1  0  0  0  0
 20 11  1  0  0  0  0
 25 31  1  0  0  0  0
 26 25  1  0  0  0  0
 26 32  1  0  0  0  0
 27 26  2  0  0  0  0
 28 29  2  0  0  0  0
 28 27  1  0  0  0  0
 29 30  1  0  0  0  0
 30 25  2  0  0  0  0
 33 27  1  0  0  0  0
 33 39  1  0  0  0  0
 34 36  1  0  0  0  0
 34 33  2  0  0  0  0
 35 34  1  0  0  0  0
 36 37  1  0  0  0  0
 37 38  1  0  0  0  0
 39 37  2  0  0  0  0
M  END
>  <minimizedAffinity>
-6.52061367

$$$$

 OpenBabel03262523073D

 39 43  0  0  0  0  0  0  0  0999 V2000
   35.9530   28.8320   33.6160 C   0  0  0  0  0  0  0  0  0  0  0  0
   36.0990   28.8670   32.2480 C   0  0  0  0  0  0  0  0  0  0  0  0
   36.8970   27.9360   31.6490 C   0  0  0  0  0  0  0  0  0  0  0  0
   37.5340   26.9940   32.4000 N   0  0  0  0  0  0  0  0  0  0  0  0
   37.3650   26.9940   33.7340 C   0  0  0  0  0  0  0  0  0  0  0  0
   36.5800   27.9040   34.3470 N   0  0  0  0  0  0  0  0  0  0  0  0
   35.5980   29.6110   31.6420 H   0  0  0  0  0  0  0  0  0  0  0  0
   37.0150   27.9570   30.5910 H   0  0  0  0  0  0  0  0  0  0  0  0
   38.0370   25.9820   34.5120 C   0  0  0  0  0  0  0  0  0  0  0  0
   39.1050   25.2870   33.9770 C   0  0  0  0  0  0  0  0  0  0  0  0
   39.8610   24.3060   34.5890 C   0  0  0  0  0  0  0  0  0  0  0  0
   39.4650   24.0160   35.8930 C   0  0  0  0  0  0  0  0  0  0  0  0
   40.1400   23.0770   36.5820 N   0  0  0  0  0  0  0  0  0  0  0  0
   39.8550   22.7180   37.8360 C   0  0  0  0  0  0  0  0  0  0  0  0
   38.8050   23.3470   38.4700 C   0  0  0  0  0  0  0  0  0  0  0  0
   38.1020   24.3110   37.7830 C   0  0  0  0  0  0  0  0  0  0  0  0
   38.4090   24.6750   36.4760 C   0  0  0  0  0  0  0  0  0  0  0  0
   37.7000   25.6470   35.7980 C   0  0  0  0  0  0  0  0  0  0  0  0
   39.3980   25.5310   32.9500 H   0  0  0  0  0  0  0  0  0  0  0  0
   40.6730   23.8270   34.0830 H   0  0  0  0  0  0  0  0  0  0  0  0
   40.4290   21.9490   38.3600 H   0  0  0  0  0  0  0  0  0  0  0  0
   38.5800   23.0510   39.4870 H   0  0  0  0  0  0  0  0  0  0  0  0
   37.2750   24.8190   38.2540 H   0  0  0  0  0  0  0  0  0  0  0  0
   36.8700   26.1550   36.2780 H   0  0  0  0  0  0  0  0  0  0  0  0
   33.1150   30.4190   35.3200 C   0  0  0  0  0  0  0  0  0  0  0  0
   33.6050   31.6860   35.6180 C   0  0  0  0  0  0  0  0  0  0  0  0
   34.9250   32.0010   35.2300 C   0  0  0  0  0  0  0  0  0  0  0  0
   35.6070   31.0100   34.5860 N   0  0  0  0  0  0  0  0  0  0  0  0
   35.1110   29.8030   34.3120 C   0  0  0  0  0  0  0  0  0  0  0  0
   33.8610   29.5200   34.6850 N   0  0  0  0  0  0  0  0  0  0  0  0
   32.0870   30.2060   35.6350 H   0  0  0  0  0  0  0  0  0  0  0  0
   32.9860   32.3800   36.1250 H   0  0  0  0  0  0  0  0  0  0  0  0
   35.4920   33.3340   35.5250 C   0  0  0  0  0  0  0  0  0  0  0  0
   34.6990   34.3330   36.0720 C   0  0  0  0  0  0  0  0  0  0  0  0
   33.6010   34.2980   36.3530 H   0  0  0  0  0  0  0  0  0  0  0  0
   35.9320   35.7080   36.2040 S   0  0  0  0  0  0  0  0  0  0  0  0
   37.3240   34.6380   35.4750 C   0  0  0  0  0  0  0  0  0  0  0  0
   38.3640   34.9400   35.2990 H   0  0  0  0  0  0  0  0  0  0  0  0
   36.7550   33.5420   35.2600 N   0  0  0  0  0  0  0  0  0  0  0  0
  1 29  1  0  0  0  0
  1  6  1  0  0  0  0
  2  1  2  0  0  0  0
  3  2  1  0  0  0  0
  3  4  2  0  0  0  0
  4  5  1  0  0  0  0
  5  6  2  0  0  0  0
  5  9  1  0  0  0  0
  7  2  1  0  0  0  0
  8  3  1  0  0  0  0
  9 18  1  0  0  0  0
 10  9  2  0  0  0  0
 10 11  1  0  0  0  0
 11 12  2  0  0  0  0
 12 17  1  0  0  0  0
 12 13  1  0  0  0  0
 13 14  2  0  0  0  0
 14 21  1  0  0  0  0
 14 15  1  0  0  0  0
 15 22  1  0  0  0  0
 16 23  1  0  0  0  0
 16 15  2  0  0  0  0
 17 16  1  0  0  0  0
 18 24  1  0  0  0  0
 18 17  2  0  0  0  0
 19 10  1  0  0  0  0
 20 11  1  0  0  0  0
 25 26  1  0  0  0  0
 25 31  1  0  0  0  0
 26 32  1  0  0  0  0
 27 33  1  0  0  0  0
 27 26  2  0  0  0  0
 28 27  1  0  0  0  0
 29 28  2  0  0  0  0
 29 30  1  0  0  0  0
 30 25  2  0  0  0  0
 33 34  2  0  0  0  0
 34 36  1  0  0  0  0
 34 35  1  0  0  0  0
 37 36  1  0  0  0  0
 38 37  1  0  0  0  0
 39 37  2  0  0  0  0
 39 33  1  0  0  0  0
M  END
>  <minimizedAffinity>
-6.43267012

$$$$

 OpenBabel03262523073D

 39 43  0  0  0  0  0  0  0  0999 V2000
   36.0660   28.8600   33.4370 C   0  0  0  0  0  0  0  0  0  0  0  0
   36.2810   28.9040   32.0790 C   0  0  0  0  0  0  0  0  0  0  0  0
   37.1140   27.9810   31.5160 C   0  0  0  0  0  0  0  0  0  0  0  0
   37.7160   27.0370   32.2930 N   0  0  0  0  0  0  0  0  0  0  0  0
   37.4800   27.0280   33.6160 C   0  0  0  0  0  0  0  0  0  0  0  0
   36.6600   27.9300   34.1940 N   0  0  0  0  0  0  0  0  0  0  0  0
   35.8090   29.6500   31.4530 H   0  0  0  0  0  0  0  0  0  0  0  0
   37.2860   28.0090   30.4660 H   0  0  0  0  0  0  0  0  0  0  0  0
   38.1160   26.0140   34.4220 C   0  0  0  0  0  0  0  0  0  0  0  0
   39.1960   25.3090   33.9280 C   0  0  0  0  0  0  0  0  0  0  0  0
   39.9230   24.3250   34.5700 C   0  0  0  0  0  0  0  0  0  0  0  0
   39.4790   24.0430   35.8600 C   0  0  0  0  0  0  0  0  0  0  0  0
   40.1210   23.1020   36.5770 N   0  0  0  0  0  0  0  0  0  0  0  0
   39.7890   22.7500   37.8200 C   0  0  0  0  0  0  0  0  0  0  0  0
   38.7220   23.3890   38.4140 C   0  0  0  0  0  0  0  0  0  0  0  0
   38.0510   24.3550   37.6990 C   0  0  0  0  0  0  0  0  0  0  0  0
   38.4080   24.7120   36.4020 C   0  0  0  0  0  0  0  0  0  0  0  0
   37.7310   25.6860   35.6960 C   0  0  0  0  0  0  0  0  0  0  0  0
   39.5280   25.5470   32.9110 H   0  0  0  0  0  0  0  0  0  0  0  0
   40.7490   23.8380   34.0950 H   0  0  0  0  0  0  0  0  0  0  0  0
   40.3390   21.9790   38.3670 H   0  0  0  0  0  0  0  0  0  0  0  0
   38.4580   23.0990   39.4230 H   0  0  0  0  0  0  0  0  0  0  0  0
   37.2110   24.8710   38.1380 H   0  0  0  0  0  0  0  0  0  0  0  0
   36.8870   26.2020   36.1440 H   0  0  0  0  0  0  0  0  0  0  0  0
   34.6530   31.9800   34.7560 C   0  0  0  0  0  0  0  0  0  0  0  0
   33.4700   31.5560   35.3490 C   0  0  0  0  0  0  0  0  0  0  0  0
   33.1500   30.1810   35.2970 C   0  0  0  0  0  0  0  0  0  0  0  0
   34.0550   29.3860   34.6560 N   0  0  0  0  0  0  0  0  0  0  0  0
   35.1850   29.8220   34.0950 C   0  0  0  0  0  0  0  0  0  0  0  0
   35.4710   31.1240   34.1540 N   0  0  0  0  0  0  0  0  0  0  0  0
   34.8700   33.0530   34.8140 H   0  0  0  0  0  0  0  0  0  0  0  0
   32.8380   32.2620   35.8220 H   0  0  0  0  0  0  0  0  0  0  0  0
   31.9030   29.6800   35.9120 C   0  0  0  0  0  0  0  0  0  0  0  0
   31.8220   28.3770   36.3810 C   0  0  0  0  0  0  0  0  0  0  0  0
   32.6130   27.5640   36.3720 H   0  0  0  0  0  0  0  0  0  0  0  0
   30.0820   28.3530   37.0130 S   0  0  0  0  0  0  0  0  0  0  0  0
   29.7890   30.1620   36.5080 C   0  0  0  0  0  0  0  0  0  0  0  0
   28.8680   30.7430   36.6410 H   0  0  0  0  0  0  0  0  0  0  0  0
   30.8860   30.4970   36.0020 N   0  0  0  0  0  0  0  0  0  0  0  0
  1 29  1  0  0  0  0
  1  6  1  0  0  0  0
  2  1  2  0  0  0  0
  3  2  1  0  0  0  0
  3  4  2  0  0  0  0
  4  5  1  0  0  0  0
  5  6  2  0  0  0  0
  5  9  1  0  0  0  0
  7  2  1  0  0  0  0
  8  3  1  0  0  0  0
  9 18  1  0  0  0  0
 10  9  2  0  0  0  0
 10 11  1  0  0  0  0
 11 12  2  0  0  0  0
 12 17  1  0  0  0  0
 12 13  1  0  0  0  0
 13 14  2  0  0  0  0
 14 21  1  0  0  0  0
 14 15  1  0  0  0  0
 15 22  1  0  0  0  0
 16 23  1  0  0  0  0
 16 15  2  0  0  0  0
 17 16  1  0  0  0  0
 18 24  1  0  0  0  0
 18 17  2  0  0  0  0
 19 10  1  0  0  0  0
 20 11  1  0  0  0  0
 25 31  1  0  0  0  0
 25 26  1  0  0  0  0
 26 32  1  0  0  0  0
 27 26  2  0  0  0  0
 27 33  1  0  0  0  0
 28 27  1  0  0  0  0
 29 30  1  0  0  0  0
 29 28  2  0  0  0  0
 30 25  2  0  0  0  0
 33 39  1  0  0  0  0
 33 34  2  0  0  0  0
 34 36  1  0  0  0  0
 35 34  1  0  0  0  0
 37 38  1  0  0  0  0
 37 36  1  0  0  0  0
 39 37  2  0  0  0  0
M  END
>  <minimizedAffinity>
-6.42968941

$$$$

 OpenBabel03262523073D

 39 43  0  0  0  0  0  0  0  0999 V2000
   37.0880   26.9020   31.8770 C   0  0  0  0  0  0  0  0  0  0  0  0
   37.2500   27.4230   30.6140 C   0  0  0  0  0  0  0  0  0  0  0  0
   36.6940   28.6360   30.3280 C   0  0  0  0  0  0  0  0  0  0  0  0
   35.9930   29.3110   31.2820 N   0  0  0  0  0  0  0  0  0  0  0  0
   35.8580   28.7680   32.5040 C   0  0  0  0  0  0  0  0  0  0  0  0
   36.3990   27.5700   32.8090 N   0  0  0  0  0  0  0  0  0  0  0  0
   37.8050   26.8950   29.8490 H   0  0  0  0  0  0  0  0  0  0  0  0
   36.8160   29.0460   29.3520 H   0  0  0  0  0  0  0  0  0  0  0  0
   35.1230   29.5020   33.5050 C   0  0  0  0  0  0  0  0  0  0  0  0
   33.7520   29.3640   33.6030 C   0  0  0  0  0  0  0  0  0  0  0  0
   32.9070   29.9780   34.5080 C   0  0  0  0  0  0  0  0  0  0  0  0
   33.5560   30.8260   35.4040 C   0  0  0  0  0  0  0  0  0  0  0  0
   32.8260   31.4710   36.3320 N   0  0  0  0  0  0  0  0  0  0  0  0
   33.3350   32.3020   37.2420 C   0  0  0  0  0  0  0  0  0  0  0  0
   34.6970   32.5170   37.2370 C   0  0  0  0  0  0  0  0  0  0  0  0
   35.4630   31.8660   36.2960 C   0  0  0  0  0  0  0  0  0  0  0  0
   34.9180   31.0020   35.3520 C   0  0  0  0  0  0  0  0  0  0  0  0
   35.6970   30.3510   34.4160 C   0  0  0  0  0  0  0  0  0  0  0  0
   33.2620   28.6930   32.8880 H   0  0  0  0  0  0  0  0  0  0  0  0
   31.8520   29.8020   34.4980 H   0  0  0  0  0  0  0  0  0  0  0  0
   32.7050   32.8070   37.9790 H   0  0  0  0  0  0  0  0  0  0  0  0
   35.1040   33.1930   37.9780 H   0  0  0  0  0  0  0  0  0  0  0  0
   36.5310   32.0160   36.2680 H   0  0  0  0  0  0  0  0  0  0  0  0
   36.7710   30.5050   34.3930 H   0  0  0  0  0  0  0  0  0  0  0  0
   39.4410   24.2810   32.9100 C   0  0  0  0  0  0  0  0  0  0  0  0
   38.6480   23.1390   32.9140 C   0  0  0  0  0  0  0  0  0  0  0  0
   37.2870   23.2680   32.5580 C   0  0  0  0  0  0  0  0  0  0  0  0
   36.8750   24.5290   32.2370 N   0  0  0  0  0  0  0  0  0  0  0  0
   37.6600   25.6080   32.2410 C   0  0  0  0  0  0  0  0  0  0  0  0
   38.9440   25.4680   32.5800 N   0  0  0  0  0  0  0  0  0  0  0  0
   40.4920   24.1460   33.1910 H   0  0  0  0  0  0  0  0  0  0  0  0
   39.0730   22.2070   33.1820 H   0  0  0  0  0  0  0  0  0  0  0  0
   36.4020   22.0850   32.5480 C   0  0  0  0  0  0  0  0  0  0  0  0
   35.6510   21.7740   31.4240 C   0  0  0  0  0  0  0  0  0  0  0  0
   35.5960   22.3180   30.4300 H   0  0  0  0  0  0  0  0  0  0  0  0
   34.7850   20.2450   32.0080 S   0  0  0  0  0  0  0  0  0  0  0  0
   35.6290   20.3200   33.7090 C   0  0  0  0  0  0  0  0  0  0  0  0
   35.4950   19.6200   34.5430 H   0  0  0  0  0  0  0  0  0  0  0  0
   36.3500   21.3420   33.6230 N   0  0  0  0  0  0  0  0  0  0  0  0
  1 29  1  0  0  0  0
  1  6  1  0  0  0  0
  2  1  2  0  0  0  0
  3  2  1  0  0  0  0
  3  4  2  0  0  0  0
  4  5  1  0  0  0  0
  5  6  2  0  0  0  0
  5  9  1  0  0  0  0
  7  2  1  0  0  0  0
  8  3  1  0  0  0  0
  9 10  2  0  0  0  0
  9 18  1  0  0  0  0
 10 11  1  0  0  0  0
 11 12  2  0  0  0  0
 12 13  1  0  0  0  0
 13 14  2  0  0  0  0
 14 21  1  0  0  0  0
 15 14  1  0  0  0  0
 15 22  1  0  0  0  0
 16 15  2  0  0  0  0
 17 12  1  0  0  0  0
 17 16  1  0  0  0  0
 18 17  2  0  0  0  0
 19 10  1  0  0  0  0
 20 11  1  0  0  0  0
 23 16  1  0  0  0  0
 24 18  1  0  0  0  0
 25 26  1  0  0  0  0
 25 31  1  0  0  0  0
 26 32  1  0  0  0  0
 27 26  2  0  0  0  0
 28 29  2  0  0  0  0
 28 27  1  0  0  0  0
 29 30  1  0  0  0  0
 30 25  2  0  0  0  0
 33 27  1  0  0  0  0
 33 39  1  0  0  0  0
 34 36  1  0  0  0  0
 34 33  2  0  0  0  0
 35 34  1  0  0  0  0
 36 37  1  0  0  0  0
 37 38  1  0  0  0  0
 39 37  2  0  0  0  0
M  END
>  <minimizedAffinity>
-6.30537701

$$$$

 OpenBabel03262523073D

 39 43  0  0  0  0  0  0  0  0999 V2000
   36.1950   26.5480   31.8510 C   0  0  0  0  0  0  0  0  0  0  0  0
   35.4100   25.8090   30.9970 C   0  0  0  0  0  0  0  0  0  0  0  0
   35.5280   24.4490   31.0070 C   0  0  0  0  0  0  0  0  0  0  0  0
   36.4110   23.8440   31.8510 N   0  0  0  0  0  0  0  0  0  0  0  0
   37.1600   24.6020   32.6710 C   0  0  0  0  0  0  0  0  0  0  0  0
   37.0590   25.9470   32.6780 N   0  0  0  0  0  0  0  0  0  0  0  0
   34.7060   26.2800   30.3220 H   0  0  0  0  0  0  0  0  0  0  0  0
   34.9240   23.8700   30.3480 H   0  0  0  0  0  0  0  0  0  0  0  0
   38.0800   23.9440   33.5660 C   0  0  0  0  0  0  0  0  0  0  0  0
   39.1010   23.1620   33.0630 C   0  0  0  0  0  0  0  0  0  0  0  0
   40.0690   22.4810   33.7770 C   0  0  0  0  0  0  0  0  0  0  0  0
   39.9620   22.6270   35.1590 C   0  0  0  0  0  0  0  0  0  0  0  0
   40.8590   22.0090   35.9480 N   0  0  0  0  0  0  0  0  0  0  0  0
   40.8580   22.0780   37.2810 C   0  0  0  0  0  0  0  0  0  0  0  0
   39.8800   22.8320   37.8930 C   0  0  0  0  0  0  0  0  0  0  0  0
   38.9520   23.4740   37.1030 C   0  0  0  0  0  0  0  0  0  0  0  0
   38.9640   23.3920   35.7140 C   0  0  0  0  0  0  0  0  0  0  0  0
   38.0320   24.0440   34.9320 C   0  0  0  0  0  0  0  0  0  0  0  0
   39.1670   23.0610   31.9740 H   0  0  0  0  0  0  0  0  0  0  0  0
   40.8220   21.9000   33.2870 H   0  0  0  0  0  0  0  0  0  0  0  0
   41.6070   21.5590   37.8860 H   0  0  0  0  0  0  0  0  0  0  0  0
   39.8860   22.8840   38.9740 H   0  0  0  0  0  0  0  0  0  0  0  0
   38.1740   24.0700   37.5550 H   0  0  0  0  0  0  0  0  0  0  0  0
   37.2520   24.6430   35.3930 H   0  0  0  0  0  0  0  0  0  0  0  0
   36.3860   30.0880   30.9000 C   0  0  0  0  0  0  0  0  0  0  0  0
   35.9190   30.7380   32.0370 C   0  0  0  0  0  0  0  0  0  0  0  0
   35.5340   29.9530   33.1460 C   0  0  0  0  0  0  0  0  0  0  0  0
   35.6600   28.6030   32.9900 N   0  0  0  0  0  0  0  0  0  0  0  0
   36.1120   28.0060   31.8850 C   0  0  0  0  0  0  0  0  0  0  0  0
   36.4720   28.7630   30.8460 N   0  0  0  0  0  0  0  0  0  0  0  0
   36.6760   30.7260   30.0580 H   0  0  0  0  0  0  0  0  0  0  0  0
   35.8620   31.7950   32.0500 H   0  0  0  0  0  0  0  0  0  0  0  0
   35.0310   30.5960   34.3780 C   0  0  0  0  0  0  0  0  0  0  0  0
   33.6730   30.6050   34.6650 C   0  0  0  0  0  0  0  0  0  0  0  0
   32.8150   30.1680   34.0680 H   0  0  0  0  0  0  0  0  0  0  0  0
   33.6760   31.5190   36.2750 S   0  0  0  0  0  0  0  0  0  0  0  0
   35.5660   31.7200   36.2510 C   0  0  0  0  0  0  0  0  0  0  0  0
   36.1850   32.2190   37.0070 H   0  0  0  0  0  0  0  0  0  0  0  0
   35.8970   31.1510   35.1850 N   0  0  0  0  0  0  0  0  0  0  0  0
  1 29  1  0  0  0  0
  1  6  1  0  0  0  0
  2  3  1  0  0  0  0
  2  1  2  0  0  0  0
  3  4  2  0  0  0  0
  4  5  1  0  0  0  0
  5  6  2  0  0  0  0
  5  9  1  0  0  0  0
  7  2  1  0  0  0  0
  8  3  1  0  0  0  0
  9 18  1  0  0  0  0
 10  9  2  0  0  0  0
 10 11  1  0  0  0  0
 11 12  2  0  0  0  0
 12 17  1  0  0  0  0
 12 13  1  0  0  0  0
 13 14  2  0  0  0  0
 14 21  1  0  0  0  0
 14 15  1  0  0  0  0
 15 22  1  0  0  0  0
 16 23  1  0  0  0  0
 16 15  2  0  0  0  0
 17 16  1  0  0  0  0
 18 24  1  0  0  0  0
 18 17  2  0  0  0  0
 19 10  1  0  0  0  0
 20 11  1  0  0  0  0
 25 26  1  0  0  0  0
 26 32  1  0  0  0  0
 26 27  2  0  0  0  0
 27 33  1  0  0  0  0
 28 27  1  0  0  0  0
 29 28  2  0  0  0  0
 30 25  2  0  0  0  0
 30 29  1  0  0  0  0
 31 25  1  0  0  0  0
 33 34  2  0  0  0  0
 33 39  1  0  0  0  0
 34 36  1  0  0  0  0
 35 34  1  0  0  0  0
 37 36  1  0  0  0  0
 37 38  1  0  0  0  0
 39 37  2  0  0  0  0
M  END
>  <minimizedAffinity>
-6.30000257

$$$$

 OpenBabel03262523073D

 39 43  0  0  0  0  0  0  0  0999 V2000
   35.9180   28.7550   33.8000 C   0  0  0  0  0  0  0  0  0  0  0  0
   35.6960   28.6120   32.4500 C   0  0  0  0  0  0  0  0  0  0  0  0
   36.2520   27.5460   31.8030 C   0  0  0  0  0  0  0  0  0  0  0  0
   37.0100   26.6460   32.4910 N   0  0  0  0  0  0  0  0  0  0  0  0
   37.2020   26.8220   33.8090 C   0  0  0  0  0  0  0  0  0  0  0  0
   36.6620   27.8680   34.4690 N   0  0  0  0  0  0  0  0  0  0  0  0
   35.0960   29.3210   31.8940 H   0  0  0  0  0  0  0  0  0  0  0  0
   36.0850   27.4290   30.7580 H   0  0  0  0  0  0  0  0  0  0  0  0
   37.9970   25.8530   34.5240 C   0  0  0  0  0  0  0  0  0  0  0  0
   39.1310   25.3200   33.9430 C   0  0  0  0  0  0  0  0  0  0  0  0
   40.0050   24.4000   34.4920 C   0  0  0  0  0  0  0  0  0  0  0  0
   39.6620   23.9920   35.7800 C   0  0  0  0  0  0  0  0  0  0  0  0
   40.4500   23.1010   36.4100 N   0  0  0  0  0  0  0  0  0  0  0  0
   40.2250   22.6410   37.6420 C   0  0  0  0  0  0  0  0  0  0  0  0
   39.1170   23.1060   38.3180 C   0  0  0  0  0  0  0  0  0  0  0  0
   38.2980   24.0180   37.6920 C   0  0  0  0  0  0  0  0  0  0  0  0
   38.5440   24.4890   36.4060 C   0  0  0  0  0  0  0  0  0  0  0  0
   37.7180   25.4090   35.7900 C   0  0  0  0  0  0  0  0  0  0  0  0
   39.3810   25.6540   32.9300 H   0  0  0  0  0  0  0  0  0  0  0  0
   40.8600   24.0490   33.9540 H   0  0  0  0  0  0  0  0  0  0  0  0
   40.8910   21.9160   38.1170 H   0  0  0  0  0  0  0  0  0  0  0  0
   38.9410   22.7280   39.3170 H   0  0  0  0  0  0  0  0  0  0  0  0
   37.4230   24.3980   38.1960 H   0  0  0  0  0  0  0  0  0  0  0  0
   36.8400   25.7880   36.3030 H   0  0  0  0  0  0  0  0  0  0  0  0
   35.5410   31.6390   36.0400 C   0  0  0  0  0  0  0  0  0  0  0  0
   34.1970   31.9630   35.9020 C   0  0  0  0  0  0  0  0  0  0  0  0
   33.4070   31.1820   35.0290 C   0  0  0  0  0  0  0  0  0  0  0  0
   34.0550   30.1640   34.3930 N   0  0  0  0  0  0  0  0  0  0  0  0
   35.3490   29.8760   34.5460 C   0  0  0  0  0  0  0  0  0  0  0  0
   36.0810   30.6240   35.3740 N   0  0  0  0  0  0  0  0  0  0  0  0
   36.1260   32.2650   36.7240 H   0  0  0  0  0  0  0  0  0  0  0  0
   33.7960   32.7780   36.4450 H   0  0  0  0  0  0  0  0  0  0  0  0
   31.9720   31.4870   34.8480 C   0  0  0  0  0  0  0  0  0  0  0  0
   31.5280   32.8010   34.8160 C   0  0  0  0  0  0  0  0  0  0  0  0
   32.1260   33.7590   34.9140 H   0  0  0  0  0  0  0  0  0  0  0  0
   29.7110   32.5370   34.5720 S   0  0  0  0  0  0  0  0  0  0  0  0
   29.9060   30.6460   34.5580 C   0  0  0  0  0  0  0  0  0  0  0  0
   29.1080   29.9030   34.4380 H   0  0  0  0  0  0  0  0  0  0  0  0
   31.1390   30.4870   34.7160 N   0  0  0  0  0  0  0  0  0  0  0  0
  1  6  1  0  0  0  0
  1 29  1  0  0  0  0
  2  1  2  0  0  0  0
  3  2  1  0  0  0  0
  3  4  2  0  0  0  0
  4  5  1  0  0  0  0
  5  6  2  0  0  0  0
  5  9  1  0  0  0  0
  7  2  1  0  0  0  0
  8  3  1  0  0  0  0
  9 18  1  0  0  0  0
 10 11  1  0  0  0  0
 10  9  2  0  0  0  0
 11 12  2  0  0  0  0
 12 17  1  0  0  0  0
 12 13  1  0  0  0  0
 13 14  2  0  0  0  0
 14 21  1  0  0  0  0
 14 15  1  0  0  0  0
 15 22  1  0  0  0  0
 16 23  1  0  0  0  0
 16 15  2  0  0  0  0
 17 16  1  0  0  0  0
 18 24  1  0  0  0  0
 18 17  2  0  0  0  0
 19 10  1  0  0  0  0
 20 11  1  0  0  0  0
 25 31  1  0  0  0  0
 26 25  1  0  0  0  0
 26 32  1  0  0  0  0
 27 26  2  0  0  0  0
 28 29  2  0  0  0  0
 28 27  1  0  0  0  0
 29 30  1  0  0  0  0
 30 25  2  0  0  0  0
 33 27  1  0  0  0  0
 34 33  2  0  0  0  0
 34 35  1  0  0  0  0
 36 34  1  0  0  0  0
 37 36  1  0  0  0  0
 37 39  2  0  0  0  0
 38 37  1  0  0  0  0
 39 33  1  0  0  0  0
M  END
>  <minimizedAffinity>
-6.29428768

$$$$

 OpenBabel03262523073D

 39 43  0  0  0  0  0  0  0  0999 V2000
   36.4410   28.2590   33.9670 C   0  0  0  0  0  0  0  0  0  0  0  0
   36.5680   28.1430   32.6020 C   0  0  0  0  0  0  0  0  0  0  0  0
   37.2840   27.0970   32.0960 C   0  0  0  0  0  0  0  0  0  0  0  0
   37.8590   26.1900   32.9360 N   0  0  0  0  0  0  0  0  0  0  0  0
   37.7120   26.3400   34.2640 C   0  0  0  0  0  0  0  0  0  0  0  0
   37.0080   27.3660   34.7850 N   0  0  0  0  0  0  0  0  0  0  0  0
   36.1160   28.8580   31.9260 H   0  0  0  0  0  0  0  0  0  0  0  0
   37.3870   27.0000   31.0410 H   0  0  0  0  0  0  0  0  0  0  0  0
   38.3170   25.3640   35.1370 C   0  0  0  0  0  0  0  0  0  0  0  0
   37.7080   25.0250   36.3290 C   0  0  0  0  0  0  0  0  0  0  0  0
   38.1440   24.1050   37.2650 C   0  0  0  0  0  0  0  0  0  0  0  0
   39.3390   23.4740   36.9250 C   0  0  0  0  0  0  0  0  0  0  0  0
   39.8500   22.5560   37.7650 N   0  0  0  0  0  0  0  0  0  0  0  0
   40.9820   21.8850   37.5450 C   0  0  0  0  0  0  0  0  0  0  0  0
   41.6770   22.1450   36.3830 C   0  0  0  0  0  0  0  0  0  0  0  0
   41.1710   23.0810   35.5080 C   0  0  0  0  0  0  0  0  0  0  0  0
   39.9890   23.7730   35.7510 C   0  0  0  0  0  0  0  0  0  0  0  0
   39.4890   24.7060   34.8650 C   0  0  0  0  0  0  0  0  0  0  0  0
   36.7700   25.5340   36.5770 H   0  0  0  0  0  0  0  0  0  0  0  0
   37.5940   23.9160   38.1620 H   0  0  0  0  0  0  0  0  0  0  0  0
   41.3630   21.1470   38.2560 H   0  0  0  0  0  0  0  0  0  0  0  0
   42.5940   21.5980   36.2110 H   0  0  0  0  0  0  0  0  0  0  0  0
   41.6940   23.3050   34.5920 H   0  0  0  0  0  0  0  0  0  0  0  0
   40.0190   24.9270   33.9440 H   0  0  0  0  0  0  0  0  0  0  0  0
   35.5680   31.3080   35.8160 C   0  0  0  0  0  0  0  0  0  0  0  0
   34.1900   31.3840   35.6500 C   0  0  0  0  0  0  0  0  0  0  0  0
   33.5500   30.3780   34.8940 C   0  0  0  0  0  0  0  0  0  0  0  0
   34.3650   29.4060   34.3900 N   0  0  0  0  0  0  0  0  0  0  0  0
   35.6870   29.3580   34.5660 C   0  0  0  0  0  0  0  0  0  0  0  0
   36.2760   30.3170   35.2830 N   0  0  0  0  0  0  0  0  0  0  0  0
   36.0330   32.1040   36.4080 H   0  0  0  0  0  0  0  0  0  0  0  0
   33.6540   32.1860   36.0870 H   0  0  0  0  0  0  0  0  0  0  0  0
   32.0870   30.4150   34.6880 C   0  0  0  0  0  0  0  0  0  0  0  0
   31.4830   31.5260   34.1170 C   0  0  0  0  0  0  0  0  0  0  0  0
   31.9590   32.4880   33.7520 H   0  0  0  0  0  0  0  0  0  0  0  0
   29.7110   30.9880   34.1240 S   0  0  0  0  0  0  0  0  0  0  0  0
   30.1390   29.3150   34.9210 C   0  0  0  0  0  0  0  0  0  0  0  0
   29.4390   28.5140   35.1850 H   0  0  0  0  0  0  0  0  0  0  0  0
   31.3840   29.3760   35.0560 N   0  0  0  0  0  0  0  0  0  0  0  0
  1 29  1  0  0  0  0
  1  6  1  0  0  0  0
  2  1  2  0  0  0  0
  3  2  1  0  0  0  0
  3  4  2  0  0  0  0
  4  5  1  0  0  0  0
  5  6  2  0  0  0  0
  5  9  1  0  0  0  0
  7  2  1  0  0  0  0
  8  3  1  0  0  0  0
  9 10  1  0  0  0  0
 10 19  1  0  0  0  0
 10 11  2  0  0  0  0
 11 20  1  0  0  0  0
 12 11  1  0  0  0  0
 12 13  1  0  0  0  0
 14 13  2  0  0  0  0
 14 21  1  0  0  0  0
 15 14  1  0  0  0  0
 16 17  1  0  0  0  0
 16 15  2  0  0  0  0
 17 12  2  0  0  0  0
 18  9  2  0  0  0  0
 18 17  1  0  0  0  0
 22 15  1  0  0  0  0
 23 16  1  0  0  0  0
 24 18  1  0  0  0  0
 25 31  1  0  0  0  0
 26 25  1  0  0  0  0
 26 32  1  0  0  0  0
 27 26  2  0  0  0  0
 28 29  2  0  0  0  0
 28 27  1  0  0  0  0
 29 30  1  0  0  0  0
 30 25  2  0  0  0  0
 33 27  1  0  0  0  0
 33 39  1  0  0  0  0
 34 36  1  0  0  0  0
 34 33  2  0  0  0  0
 35 34  1  0  0  0  0
 36 37  1  0  0  0  0
 37 39  2  0  0  0  0
 37 38  1  0  0  0  0
M  END
>  <minimizedAffinity>
-6.23713636

$$$$

 OpenBabel03262523073D

 39 43  0  0  0  0  0  0  0  0999 V2000
   36.0270   28.7180   32.9770 C   0  0  0  0  0  0  0  0  0  0  0  0
   36.5900   28.9800   31.7490 C   0  0  0  0  0  0  0  0  0  0  0  0
   37.7000   28.2800   31.3730 C   0  0  0  0  0  0  0  0  0  0  0  0
   38.2330   27.3410   32.2050 N   0  0  0  0  0  0  0  0  0  0  0  0
   37.6530   27.1150   33.3960 C   0  0  0  0  0  0  0  0  0  0  0  0
   36.5550   27.7950   33.7880 N   0  0  0  0  0  0  0  0  0  0  0  0
   36.1750   29.7240   31.0810 H   0  0  0  0  0  0  0  0  0  0  0  0
   38.1410   28.4780   30.4240 H   0  0  0  0  0  0  0  0  0  0  0  0
   38.2230   26.1090   34.2580 C   0  0  0  0  0  0  0  0  0  0  0  0
   39.3270   25.3860   33.8490 C   0  0  0  0  0  0  0  0  0  0  0  0
   39.9990   24.4060   34.5540 C   0  0  0  0  0  0  0  0  0  0  0  0
   39.4660   24.1500   35.8170 C   0  0  0  0  0  0  0  0  0  0  0  0
   40.0490   23.2150   36.5890 N   0  0  0  0  0  0  0  0  0  0  0  0
   39.6320   22.8880   37.8140 C   0  0  0  0  0  0  0  0  0  0  0  0
   38.5350   23.5470   38.3250 C   0  0  0  0  0  0  0  0  0  0  0  0
   37.9230   24.5070   37.5500 C   0  0  0  0  0  0  0  0  0  0  0  0
   38.3690   24.8380   36.2750 C   0  0  0  0  0  0  0  0  0  0  0  0
   37.7510   25.8070   35.5090 C   0  0  0  0  0  0  0  0  0  0  0  0
   39.7280   25.6030   32.8530 H   0  0  0  0  0  0  0  0  0  0  0  0
   40.8490   23.9030   34.1430 H   0  0  0  0  0  0  0  0  0  0  0  0
   40.1360   22.1210   38.4090 H   0  0  0  0  0  0  0  0  0  0  0  0
   38.2020   23.2760   39.3180 H   0  0  0  0  0  0  0  0  0  0  0  0
   37.0620   25.0380   37.9240 H   0  0  0  0  0  0  0  0  0  0  0  0
   36.8850   26.3380   35.8910 H   0  0  0  0  0  0  0  0  0  0  0  0
   32.5460   29.7840   33.4470 C   0  0  0  0  0  0  0  0  0  0  0  0
   32.6650   30.8360   34.3470 C   0  0  0  0  0  0  0  0  0  0  0  0
   33.9560   31.1870   34.7990 C   0  0  0  0  0  0  0  0  0  0  0  0
   34.9830   30.4420   34.2980 N   0  0  0  0  0  0  0  0  0  0  0  0
   34.8390   29.4360   33.4340 C   0  0  0  0  0  0  0  0  0  0  0  0
   33.6120   29.1170   33.0150 N   0  0  0  0  0  0  0  0  0  0  0  0
   31.5310   29.5370   33.1160 H   0  0  0  0  0  0  0  0  0  0  0  0
   31.7970   31.3480   34.6720 H   0  0  0  0  0  0  0  0  0  0  0  0
   34.1350   32.2980   35.7570 C   0  0  0  0  0  0  0  0  0  0  0  0
   33.3800   32.3570   36.9190 C   0  0  0  0  0  0  0  0  0  0  0  0
   32.5830   31.6400   37.2900 H   0  0  0  0  0  0  0  0  0  0  0  0
   34.0390   33.9150   37.6720 S   0  0  0  0  0  0  0  0  0  0  0  0
   35.2450   34.1970   36.2300 C   0  0  0  0  0  0  0  0  0  0  0  0
   35.9520   35.0270   36.1150 H   0  0  0  0  0  0  0  0  0  0  0  0
   35.0230   33.2180   35.4800 N   0  0  0  0  0  0  0  0  0  0  0  0
  1 29  1  0  0  0  0
  1  6  1  0  0  0  0
  2  1  2  0  0  0  0
  3  2  1  0  0  0  0
  3  4  2  0  0  0  0
  4  5  1  0  0  0  0
  5  6  2  0  0  0  0
  5  9  1  0  0  0  0
  7  2  1  0  0  0  0
  8  3  1  0  0  0  0
  9 18  1  0  0  0  0
 10  9  2  0  0  0  0
 10 11  1  0  0  0  0
 11 12  2  0  0  0  0
 12 17  1  0  0  0  0
 12 13  1  0  0  0  0
 13 14  2  0  0  0  0
 14 15  1  0  0  0  0
 14 21  1  0  0  0  0
 15 22  1  0  0  0  0
 16 23  1  0  0  0  0
 16 15  2  0  0  0  0
 17 16  1  0  0  0  0
 18 24  1  0  0  0  0
 18 17  2  0  0  0  0
 19 10  1  0  0  0  0
 20 11  1  0  0  0  0
 25 26  1  0  0  0  0
 26 32  1  0  0  0  0
 26 27  2  0  0  0  0
 27 33  1  0  0  0  0
 28 27  1  0  0  0  0
 29 28  2  0  0  0  0
 30 29  1  0  0  0  0
 30 25  2  0  0  0  0
 31 25  1  0  0  0  0
 33 34  2  0  0  0  0
 34 35  1  0  0  0  0
 34 36  1  0  0  0  0
 37 36  1  0  0  0  0
 38 37  1  0  0  0  0
 39 33  1  0  0  0  0
 39 37  2  0  0  0  0
M  END
>  <minimizedAffinity>
-6.21942616

$$$$
