
 OpenBabel03272506413D

 17 18  0  0  0  0  0  0  0  0999 V2000
   37.2750   30.1930   51.4280 C   0  0  0  0  0  0  0  0  0  0  0  0
   38.1480   30.7700   50.4870 C   0  0  0  0  0  0  0  0  0  0  0  0
   37.8850   30.5430   49.1340 C   0  0  0  0  0  0  0  0  0  0  0  0
   36.8070   29.7800   48.8050 N   0  0  0  0  0  0  0  0  0  0  0  0
   35.9930   29.2420   49.7390 C   0  0  0  0  0  0  0  0  0  0  0  0
   36.2120   29.4380   51.0420 N   0  0  0  0  0  0  0  0  0  0  0  0
   37.4300   30.3370   52.5010 H   0  0  0  0  0  0  0  0  0  0  0  0
   38.9670   31.3540   50.8350 H   0  0  0  0  0  0  0  0  0  0  0  0
   38.5430   30.9770   48.3880 H   0  0  0  0  0  0  0  0  0  0  0  0
   34.5820   28.2440   49.2910 S   0  0  0  0  0  0  0  0  0  0  0  0
   33.9410   28.7560   47.6790 C   0  0  0  0  0  0  0  0  0  0  0  0
   33.7090   27.6780   46.7380 C   0  0  0  0  0  0  0  0  0  0  0  0
   33.8430   26.6430   46.8170 H   0  0  0  0  0  0  0  0  0  0  0  0
   33.0690   28.6890   45.2690 S   0  0  0  0  0  0  0  0  0  0  0  0
   33.2530   30.3150   46.2310 C   0  0  0  0  0  0  0  0  0  0  0  0
   33.0010   31.2790   45.8120 H   0  0  0  0  0  0  0  0  0  0  0  0
   33.6750   29.9870   47.2940 N   0  0  0  0  0  0  0  0  0  0  0  0
  1  7  1  0  0  0  0
  2  8  1  0  0  0  0
  2  1  2  0  0  0  0
  3  2  1  0  0  0  0
  4  3  2  0  0  0  0
  4  5  1  0  0  0  0
  5  6  2  0  0  0  0
  6  1  1  0  0  0  0
  9  3  1  0  0  0  0
 10  5  1  0  0  0  0
 11 10  1  0  0  0  0
 12 13  1  0  0  0  0
 12 11  2  0  0  0  0
 14 15  1  0  0  0  0
 14 12  1  0  0  0  0
 15 17  2  0  0  0  0
 16 15  1  0  0  0  0
 17 11  1  0  0  0  0
M  END
>  <minimizedAffinity>
-3.72913957

>  <minimizedRMSD>
1.02763927

$$$$
