
 OpenBabel03272509483D

 23 24  0  0  0  0  0  0  0  0999 V2000
   37.9640   23.4530   33.6680 C   0  0  0  0  0  0  0  0  0  0  0  0
   37.2490   24.1140   34.2280 H   0  0  0  0  0  0  0  0  0  0  0  0
   38.7770   24.1240   33.2900 H   0  0  0  0  0  0  0  0  0  0  0  0
   37.2460   22.9280   32.4470 C   0  0  0  0  0  0  0  0  0  0  0  0
   36.5570   22.1280   32.7470 H   0  0  0  0  0  0  0  0  0  0  0  0
   37.9500   22.5220   31.7130 H   0  0  0  0  0  0  0  0  0  0  0  0
   36.4820   24.1050   31.8950 C   0  0  0  0  0  0  0  0  0  0  0  0
   37.1290   25.3720   32.2140 C   0  0  0  0  0  0  0  0  0  0  0  0
   38.0200   25.6450   32.7490 H   0  0  0  0  0  0  0  0  0  0  0  0
   36.0110   26.6190   31.4390 S   0  0  0  0  0  0  0  0  0  0  0  0
   34.8730   25.2270   30.8240 C   0  0  0  0  0  0  0  0  0  0  0  0
   33.8460   24.9110   30.2070 H   0  0  0  0  0  0  0  0  0  0  0  0
   35.3780   24.2900   31.1970 N   0  0  0  0  0  0  0  0  0  0  0  0
   38.4420   22.3870   34.4510 O   0  0  0  0  0  0  0  0  0  0  0  0
   40.0110   22.6660   37.7160 C   0  0  0  0  0  0  0  0  0  0  0  0
   38.9630   23.2830   38.4210 C   0  0  0  0  0  0  0  0  0  0  0  0
   37.7820   23.5710   37.7440 C   0  0  0  0  0  0  0  0  0  0  0  0
   37.7180   23.2280   36.4230 N   0  0  0  0  0  0  0  0  0  0  0  0
   38.7490   22.6340   35.7800 C   0  0  0  0  0  0  0  0  0  0  0  0
   39.8800   22.3620   36.4400 N   0  0  0  0  0  0  0  0  0  0  0  0
   40.9460   22.4260   38.2120 H   0  0  0  0  0  0  0  0  0  0  0  0
   39.0770   23.5310   39.4760 H   0  0  0  0  0  0  0  0  0  0  0  0
   36.9490   24.0470   38.2460 H   0  0  0  0  0  0  0  0  0  0  0  0
  1  2  1  0  0  0  0
  1 14  1  0  0  0  0
  3  1  1  0  0  0  0
  4  5  1  0  0  0  0
  4  1  1  0  0  0  0
  6  4  1  0  0  0  0
  7  8  2  0  0  0  0
  7  4  1  0  0  0  0
  8  9  1  0  0  0  0
 10  8  1  0  0  0  0
 11 13  2  0  0  0  0
 11 10  1  0  0  0  0
 12 11  1  0  0  0  0
 13  7  1  0  0  0  0
 14 19  1  0  0  0  0
 15 21  1  0  0  0  0
 15 16  1  0  0  0  0
 16 22  1  0  0  0  0
 17 23  1  0  0  0  0
 17 16  2  0  0  0  0
 18 17  1  0  0  0  0
 19 18  2  0  0  0  0
 19 20  1  0  0  0  0
 20 15  2  0  0  0  0
M  END
>  <minimizedAffinity>
-3.80935121

$$$$

 OpenBabel03272509483D

 23 24  0  0  0  0  0  0  0  0999 V2000
   37.2340   27.2320   34.6540 C   0  0  0  0  0  0  0  0  0  0  0  0
   36.7640   28.2300   34.8640 H   0  0  0  0  0  0  0  0  0  0  0  0
   36.4990   26.4630   35.0040 H   0  0  0  0  0  0  0  0  0  0  0  0
   38.4470   27.0950   35.5440 C   0  0  0  0  0  0  0  0  0  0  0  0
   38.3100   27.7140   36.4400 H   0  0  0  0  0  0  0  0  0  0  0  0
   39.3580   27.4220   35.0310 H   0  0  0  0  0  0  0  0  0  0  0  0
   38.5090   25.6350   35.9140 C   0  0  0  0  0  0  0  0  0  0  0  0
   39.6540   24.9670   35.3060 C   0  0  0  0  0  0  0  0  0  0  0  0
   40.4520   25.2870   34.6620 H   0  0  0  0  0  0  0  0  0  0  0  0
   39.4940   23.2300   35.9080 S   0  0  0  0  0  0  0  0  0  0  0  0
   37.9220   23.7000   36.8660 C   0  0  0  0  0  0  0  0  0  0  0  0
   37.0010   23.3340   37.6100 H   0  0  0  0  0  0  0  0  0  0  0  0
   37.7970   24.7990   36.6440 N   0  0  0  0  0  0  0  0  0  0  0  0
   37.5980   27.0790   33.3040 O   0  0  0  0  0  0  0  0  0  0  0  0
   35.2090   25.6670   30.9580 C   0  0  0  0  0  0  0  0  0  0  0  0
   35.5230   24.3040   31.1050 C   0  0  0  0  0  0  0  0  0  0  0  0
   36.5310   23.9440   31.9930 C   0  0  0  0  0  0  0  0  0  0  0  0
   37.1550   24.9500   32.6730 N   0  0  0  0  0  0  0  0  0  0  0  0
   36.8230   26.2500   32.5050 C   0  0  0  0  0  0  0  0  0  0  0  0
   35.8530   26.5870   31.6480 N   0  0  0  0  0  0  0  0  0  0  0  0
   34.4280   25.9850   30.2740 H   0  0  0  0  0  0  0  0  0  0  0  0
   34.9860   23.5490   30.5320 H   0  0  0  0  0  0  0  0  0  0  0  0
   36.8070   22.9060   32.1380 H   0  0  0  0  0  0  0  0  0  0  0  0
  1  2  1  0  0  0  0
  1  3  1  0  0  0  0
  1  4  1  0  0  0  0
  4  7  1  0  0  0  0
  4  5  1  0  0  0  0
  6  4  1  0  0  0  0
  7 13  1  0  0  0  0
  8 10  1  0  0  0  0
  8  7  2  0  0  0  0
  9  8  1  0  0  0  0
 10 11  1  0  0  0  0
 11 12  1  0  0  0  0
 13 11  2  0  0  0  0
 14  1  1  0  0  0  0
 15 16  2  0  0  0  0
 15 20  1  0  0  0  0
 16 17  1  0  0  0  0
 17 23  1  0  0  0  0
 17 18  2  0  0  0  0
 19 18  1  0  0  0  0
 19 14  1  0  0  0  0
 20 19  2  0  0  0  0
 21 15  1  0  0  0  0
 22 16  1  0  0  0  0
M  END
>  <minimizedAffinity>
-3.72170901

$$$$

 OpenBabel03272509483D

 23 24  0  0  0  0  0  0  0  0999 V2000
   37.7660   25.9490   34.3230 C   0  0  0  0  0  0  0  0  0  0  0  0
   36.8370   25.3270   34.4270 H   0  0  0  0  0  0  0  0  0  0  0  0
   37.5470   26.9230   34.8320 H   0  0  0  0  0  0  0  0  0  0  0  0
   37.9460   26.2690   32.8570 C   0  0  0  0  0  0  0  0  0  0  0  0
   38.9460   25.9490   32.5370 H   0  0  0  0  0  0  0  0  0  0  0  0
   37.8480   27.3430   32.6680 H   0  0  0  0  0  0  0  0  0  0  0  0
   36.8820   25.4770   32.1410 C   0  0  0  0  0  0  0  0  0  0  0  0
   37.1220   24.0410   32.2280 C   0  0  0  0  0  0  0  0  0  0  0  0
   37.8810   23.4340   32.6860 H   0  0  0  0  0  0  0  0  0  0  0  0
   35.7050   23.3230   31.2890 S   0  0  0  0  0  0  0  0  0  0  0  0
   35.0400   25.0690   30.9440 C   0  0  0  0  0  0  0  0  0  0  0  0
   34.1650   25.7700   30.4160 H   0  0  0  0  0  0  0  0  0  0  0  0
   35.7880   25.7410   31.4540 N   0  0  0  0  0  0  0  0  0  0  0  0
   38.9090   25.3040   34.8270 O   0  0  0  0  0  0  0  0  0  0  0  0
   38.0170   24.2000   38.1710 C   0  0  0  0  0  0  0  0  0  0  0  0
   38.9470   23.1580   38.3240 C   0  0  0  0  0  0  0  0  0  0  0  0
   39.8250   22.8890   37.2800 C   0  0  0  0  0  0  0  0  0  0  0  0
   39.7250   23.6670   36.1610 N   0  0  0  0  0  0  0  0  0  0  0  0
   38.8150   24.6620   36.0530 C   0  0  0  0  0  0  0  0  0  0  0  0
   37.9750   24.9120   37.0630 N   0  0  0  0  0  0  0  0  0  0  0  0
   37.3160   24.4380   38.9660 H   0  0  0  0  0  0  0  0  0  0  0  0
   38.9770   22.5740   39.2440 H   0  0  0  0  0  0  0  0  0  0  0  0
   40.5600   22.0960   37.3530 H   0  0  0  0  0  0  0  0  0  0  0  0
  1  2  1  0  0  0  0
  1 14  1  0  0  0  0
  1  3  1  0  0  0  0
  4  1  1  0  0  0  0
  5  4  1  0  0  0  0
  6  4  1  0  0  0  0
  7  8  2  0  0  0  0
  7  4  1  0  0  0  0
  8  9  1  0  0  0  0
 10  8  1  0  0  0  0
 11 10  1  0  0  0  0
 11 13  2  0  0  0  0
 12 11  1  0  0  0  0
 13  7  1  0  0  0  0
 14 19  1  0  0  0  0
 15 16  1  0  0  0  0
 15 21  1  0  0  0  0
 16 22  1  0  0  0  0
 17 23  1  0  0  0  0
 17 16  2  0  0  0  0
 18 17  1  0  0  0  0
 19 18  2  0  0  0  0
 19 20  1  0  0  0  0
 20 15  2  0  0  0  0
M  END
>  <minimizedAffinity>
-3.70702243

$$$$

 OpenBabel03272509483D

 23 24  0  0  0  0  0  0  0  0999 V2000
   38.6370   23.3480   33.8130 C   0  0  0  0  0  0  0  0  0  0  0  0
   39.7490   23.3200   33.9680 H   0  0  0  0  0  0  0  0  0  0  0  0
   38.4580   22.9580   32.7780 H   0  0  0  0  0  0  0  0  0  0  0  0
   38.2090   24.7970   33.7980 C   0  0  0  0  0  0  0  0  0  0  0  0
   39.0740   25.4270   33.5560 H   0  0  0  0  0  0  0  0  0  0  0  0
   37.8150   25.1060   34.7720 H   0  0  0  0  0  0  0  0  0  0  0  0
   37.1640   24.8940   32.7160 C   0  0  0  0  0  0  0  0  0  0  0  0
   36.8130   26.2780   32.4210 C   0  0  0  0  0  0  0  0  0  0  0  0
   37.1340   27.2300   32.8010 H   0  0  0  0  0  0  0  0  0  0  0  0
   35.5420   26.1130   31.0930 S   0  0  0  0  0  0  0  0  0  0  0  0
   35.7020   24.2210   31.1660 C   0  0  0  0  0  0  0  0  0  0  0  0
   35.3330   23.1220   30.7280 H   0  0  0  0  0  0  0  0  0  0  0  0
   36.4790   24.0530   31.9650 N   0  0  0  0  0  0  0  0  0  0  0  0
   37.9340   22.6400   34.8040 O   0  0  0  0  0  0  0  0  0  0  0  0
   37.8310   23.6650   38.2880 C   0  0  0  0  0  0  0  0  0  0  0  0
   39.1390   23.3170   38.6670 C   0  0  0  0  0  0  0  0  0  0  0  0
   39.9810   22.7520   37.7150 C   0  0  0  0  0  0  0  0  0  0  0  0
   39.4760   22.5720   36.4590 N   0  0  0  0  0  0  0  0  0  0  0  0
   38.2100   22.9210   36.1330 C   0  0  0  0  0  0  0  0  0  0  0  0
   37.4080   23.4630   37.0560 N   0  0  0  0  0  0  0  0  0  0  0  0
   37.1460   24.1080   39.0040 H   0  0  0  0  0  0  0  0  0  0  0  0
   39.4830   23.4870   39.6870 H   0  0  0  0  0  0  0  0  0  0  0  0
   40.9970   22.4680   37.9620 H   0  0  0  0  0  0  0  0  0  0  0  0
  1  2  1  0  0  0  0
  1 14  1  0  0  0  0
  3  1  1  0  0  0  0
  4  1  1  0  0  0  0
  4  6  1  0  0  0  0
  5  4  1  0  0  0  0
  7  4  1  0  0  0  0
  8  7  2  0  0  0  0
  8  9  1  0  0  0  0
 10 11  1  0  0  0  0
 10  8  1  0  0  0  0
 11 13  2  0  0  0  0
 12 11  1  0  0  0  0
 13  7  1  0  0  0  0
 14 19  1  0  0  0  0
 15 16  1  0  0  0  0
 15 21  1  0  0  0  0
 16 22  1  0  0  0  0
 17 23  1  0  0  0  0
 17 16  2  0  0  0  0
 18 17  1  0  0  0  0
 19 18  2  0  0  0  0
 19 20  1  0  0  0  0
 20 15  2  0  0  0  0
M  END
>  <minimizedAffinity>
-3.69145608

$$$$

 OpenBabel03272509483D

 23 24  0  0  0  0  0  0  0  0999 V2000
   38.3570   27.0110   35.5560 C   0  0  0  0  0  0  0  0  0  0  0  0
   37.6910   27.9010   35.7140 H   0  0  0  0  0  0  0  0  0  0  0  0
   39.2500   27.1710   36.2120 H   0  0  0  0  0  0  0  0  0  0  0  0
   38.8640   27.0590   34.1330 C   0  0  0  0  0  0  0  0  0  0  0  0
   39.3410   26.1030   33.8870 H   0  0  0  0  0  0  0  0  0  0  0  0
   39.5980   27.8600   33.9970 H   0  0  0  0  0  0  0  0  0  0  0  0
   37.6390   27.2740   33.2800 C   0  0  0  0  0  0  0  0  0  0  0  0
   37.4820   26.2260   32.2790 C   0  0  0  0  0  0  0  0  0  0  0  0
   38.0430   25.3460   32.0210 H   0  0  0  0  0  0  0  0  0  0  0  0
   35.9420   26.7210   31.3920 S   0  0  0  0  0  0  0  0  0  0  0  0
   35.7770   28.2450   32.5150 C   0  0  0  0  0  0  0  0  0  0  0  0
   35.1330   29.2600   32.8140 H   0  0  0  0  0  0  0  0  0  0  0  0
   36.6690   28.1640   33.2010 N   0  0  0  0  0  0  0  0  0  0  0  0
   37.6990   25.7920   35.8000 O   0  0  0  0  0  0  0  0  0  0  0  0
   39.9940   23.0880   36.5880 C   0  0  0  0  0  0  0  0  0  0  0  0
   39.5840   22.8170   37.9040 C   0  0  0  0  0  0  0  0  0  0  0  0
   38.5500   23.5700   38.4500 C   0  0  0  0  0  0  0  0  0  0  0  0
   37.9940   24.5350   37.6590 N   0  0  0  0  0  0  0  0  0  0  0  0
   38.4170   24.7660   36.3950 C   0  0  0  0  0  0  0  0  0  0  0  0
   39.4120   24.0360   35.8800 N   0  0  0  0  0  0  0  0  0  0  0  0
   40.7980   22.5200   36.1290 H   0  0  0  0  0  0  0  0  0  0  0  0
   40.0690   22.0310   38.4830 H   0  0  0  0  0  0  0  0  0  0  0  0
   38.2010   23.3960   39.4600 H   0  0  0  0  0  0  0  0  0  0  0  0
  1  2  1  0  0  0  0
  1 14  1  0  0  0  0
  1  3  1  0  0  0  0
  4  1  1  0  0  0  0
  5  4  1  0  0  0  0
  6  4  1  0  0  0  0
  7  4  1  0  0  0  0
  8  7  2  0  0  0  0
  9  8  1  0  0  0  0
 10  8  1  0  0  0  0
 10 11  1  0  0  0  0
 11 12  1  0  0  0  0
 11 13  2  0  0  0  0
 13  7  1  0  0  0  0
 14 19  1  0  0  0  0
 15 16  1  0  0  0  0
 16 17  2  0  0  0  0
 16 22  1  0  0  0  0
 17 23  1  0  0  0  0
 18 17  1  0  0  0  0
 19 18  2  0  0  0  0
 20 19  1  0  0  0  0
 20 15  2  0  0  0  0
 21 15  1  0  0  0  0
M  END
>  <minimizedAffinity>
-3.68103385

$$$$

 OpenBabel03272509483D

 23 24  0  0  0  0  0  0  0  0999 V2000
   38.3410   22.7240   33.6070 C   0  0  0  0  0  0  0  0  0  0  0  0
   39.0180   23.5950   33.8200 H   0  0  0  0  0  0  0  0  0  0  0  0
   38.9530   21.9880   33.0270 H   0  0  0  0  0  0  0  0  0  0  0  0
   37.2550   23.2020   32.6710 C   0  0  0  0  0  0  0  0  0  0  0  0
   37.7150   23.6650   31.7890 H   0  0  0  0  0  0  0  0  0  0  0  0
   36.6070   23.9410   33.1540 H   0  0  0  0  0  0  0  0  0  0  0  0
   36.4910   21.9620   32.2800 C   0  0  0  0  0  0  0  0  0  0  0  0
   37.2710   21.0960   31.4040 C   0  0  0  0  0  0  0  0  0  0  0  0
   38.2590   21.1490   30.9830 H   0  0  0  0  0  0  0  0  0  0  0  0
   36.1270   19.6840   31.0830 S   0  0  0  0  0  0  0  0  0  0  0  0
   34.8040   20.5000   32.1770 C   0  0  0  0  0  0  0  0  0  0  0  0
   33.6660   20.4410   32.6630 H   0  0  0  0  0  0  0  0  0  0  0  0
   35.2990   21.4530   32.5210 N   0  0  0  0  0  0  0  0  0  0  0  0
   37.7750   22.1800   34.7750 O   0  0  0  0  0  0  0  0  0  0  0  0
   40.0000   22.6860   37.6020 C   0  0  0  0  0  0  0  0  0  0  0  0
   39.0970   23.2820   38.5000 C   0  0  0  0  0  0  0  0  0  0  0  0
   37.7820   23.4780   38.0910 C   0  0  0  0  0  0  0  0  0  0  0  0
   37.4510   23.0730   36.8290 N   0  0  0  0  0  0  0  0  0  0  0  0
   38.3500   22.5030   35.9950 C   0  0  0  0  0  0  0  0  0  0  0  0
   39.6120   22.3180   36.3970 N   0  0  0  0  0  0  0  0  0  0  0  0
   41.0340   22.5170   37.8870 H   0  0  0  0  0  0  0  0  0  0  0  0
   39.4240   23.5830   39.4950 H   0  0  0  0  0  0  0  0  0  0  0  0
   37.0510   23.9330   38.7490 H   0  0  0  0  0  0  0  0  0  0  0  0
  1  2  1  0  0  0  0
  1 14  1  0  0  0  0
  3  1  1  0  0  0  0
  4  6  1  0  0  0  0
  4  1  1  0  0  0  0
  5  4  1  0  0  0  0
  7 13  1  0  0  0  0
  7  4  1  0  0  0  0
  8  7  2  0  0  0  0
  9  8  1  0  0  0  0
 10  8  1  0  0  0  0
 10 11  1  0  0  0  0
 11 13  2  0  0  0  0
 11 12  1  0  0  0  0
 14 19  1  0  0  0  0
 15 21  1  0  0  0  0
 15 16  1  0  0  0  0
 16 22  1  0  0  0  0
 17 16  2  0  0  0  0
 17 23  1  0  0  0  0
 18 17  1  0  0  0  0
 19 20  1  0  0  0  0
 19 18  2  0  0  0  0
 20 15  2  0  0  0  0
M  END
>  <minimizedAffinity>
-3.66609192

$$$$

 OpenBabel03272509483D

 23 24  0  0  0  0  0  0  0  0999 V2000
   37.9270   25.8540   34.6630 C   0  0  0  0  0  0  0  0  0  0  0  0
   37.1890   26.2740   35.3980 H   0  0  0  0  0  0  0  0  0  0  0  0
   38.8640   26.4560   34.7850 H   0  0  0  0  0  0  0  0  0  0  0  0
   37.4130   26.1480   33.2730 C   0  0  0  0  0  0  0  0  0  0  0  0
   36.6880   25.3760   32.9850 H   0  0  0  0  0  0  0  0  0  0  0  0
   38.2260   26.1530   32.5400 H   0  0  0  0  0  0  0  0  0  0  0  0
   36.7410   27.4940   33.3710 C   0  0  0  0  0  0  0  0  0  0  0  0
   36.6010   28.1290   32.0670 C   0  0  0  0  0  0  0  0  0  0  0  0
   36.8690   27.8490   31.0640 H   0  0  0  0  0  0  0  0  0  0  0  0
   35.7670   29.7260   32.4660 S   0  0  0  0  0  0  0  0  0  0  0  0
   35.7520   29.2650   34.3090 C   0  0  0  0  0  0  0  0  0  0  0  0
   35.4430   29.5860   35.4650 H   0  0  0  0  0  0  0  0  0  0  0  0
   36.2450   28.2510   34.3310 N   0  0  0  0  0  0  0  0  0  0  0  0
   38.1290   24.4720   34.8290 O   0  0  0  0  0  0  0  0  0  0  0  0
   39.7480   22.8390   37.6410 C   0  0  0  0  0  0  0  0  0  0  0  0
   38.9430   23.3290   38.6840 C   0  0  0  0  0  0  0  0  0  0  0  0
   37.8960   24.1890   38.3710 C   0  0  0  0  0  0  0  0  0  0  0  0
   37.7150   24.5020   37.0540 N   0  0  0  0  0  0  0  0  0  0  0  0
   38.5120   24.0090   36.0790 C   0  0  0  0  0  0  0  0  0  0  0  0
   39.5170   23.1830   36.3900 N   0  0  0  0  0  0  0  0  0  0  0  0
   40.5740   22.1660   37.8480 H   0  0  0  0  0  0  0  0  0  0  0  0
   39.1390   23.0400   39.7160 H   0  0  0  0  0  0  0  0  0  0  0  0
   37.2490   24.5910   39.1420 H   0  0  0  0  0  0  0  0  0  0  0  0
  1  3  1  0  0  0  0
  1 14  1  0  0  0  0
  1  2  1  0  0  0  0
  4  7  1  0  0  0  0
  4  1  1  0  0  0  0
  5  4  1  0  0  0  0
  6  4  1  0  0  0  0
  7 13  1  0  0  0  0
  8 10  1  0  0  0  0
  8  7  2  0  0  0  0
  9  8  1  0  0  0  0
 10 11  1  0  0  0  0
 11 13  2  0  0  0  0
 11 12  1  0  0  0  0
 14 19  1  0  0  0  0
 15 21  1  0  0  0  0
 15 16  1  0  0  0  0
 16 22  1  0  0  0  0
 17 16  2  0  0  0  0
 17 23  1  0  0  0  0
 18 17  1  0  0  0  0
 19 20  1  0  0  0  0
 19 18  2  0  0  0  0
 20 15  2  0  0  0  0
M  END
>  <minimizedAffinity>
-3.64050198

$$$$

 OpenBabel03272509483D

 23 24  0  0  0  0  0  0  0  0999 V2000
   38.5130   27.2500   35.4080 C   0  0  0  0  0  0  0  0  0  0  0  0
   39.2140   28.1100   35.5840 H   0  0  0  0  0  0  0  0  0  0  0  0
   38.9420   26.6710   34.5500 H   0  0  0  0  0  0  0  0  0  0  0  0
   37.2000   27.8180   34.9210 C   0  0  0  0  0  0  0  0  0  0  0  0
   37.3020   28.9020   34.7850 H   0  0  0  0  0  0  0  0  0  0  0  0
   36.3940   27.6310   35.6380 H   0  0  0  0  0  0  0  0  0  0  0  0
   36.9390   27.1420   33.5980 C   0  0  0  0  0  0  0  0  0  0  0  0
   36.5320   28.0940   32.5710 C   0  0  0  0  0  0  0  0  0  0  0  0
   36.3810   29.1570   32.5530 H   0  0  0  0  0  0  0  0  0  0  0  0
   36.2800   27.0260   31.0880 S   0  0  0  0  0  0  0  0  0  0  0  0
   36.7620   25.4930   32.1010 C   0  0  0  0  0  0  0  0  0  0  0  0
   36.9370   24.2660   32.1240 H   0  0  0  0  0  0  0  0  0  0  0  0
   36.9800   25.9110   33.1250 N   0  0  0  0  0  0  0  0  0  0  0  0
   38.3110   26.4700   36.5600 O   0  0  0  0  0  0  0  0  0  0  0  0
   37.5800   22.9180   36.7760 C   0  0  0  0  0  0  0  0  0  0  0  0
   38.5510   22.4300   35.8830 C   0  0  0  0  0  0  0  0  0  0  0  0
   39.3980   23.3390   35.2580 C   0  0  0  0  0  0  0  0  0  0  0  0
   39.2300   24.6610   35.5580 N   0  0  0  0  0  0  0  0  0  0  0  0
   38.2840   25.0900   36.4230 C   0  0  0  0  0  0  0  0  0  0  0  0
   37.4730   24.2090   37.0190 N   0  0  0  0  0  0  0  0  0  0  0  0
   36.9010   22.2380   37.2820 H   0  0  0  0  0  0  0  0  0  0  0  0
   38.6340   21.3620   35.6880 H   0  0  0  0  0  0  0  0  0  0  0  0
   40.1610   23.0090   34.5630 H   0  0  0  0  0  0  0  0  0  0  0  0
  1  2  1  0  0  0  0
  1 14  1  0  0  0  0
  3  1  1  0  0  0  0
  4  1  1  0  0  0  0
  4  6  1  0  0  0  0
  5  4  1  0  0  0  0
  7  4  1  0  0  0  0
  8  7  2  0  0  0  0
  9  8  1  0  0  0  0
 10 11  1  0  0  0  0
 10  8  1  0  0  0  0
 11 12  1  0  0  0  0
 11 13  2  0  0  0  0
 13  7  1  0  0  0  0
 15 20  1  0  0  0  0
 15 21  1  0  0  0  0
 16 15  2  0  0  0  0
 17 18  2  0  0  0  0
 17 16  1  0  0  0  0
 18 19  1  0  0  0  0
 19 14  1  0  0  0  0
 19 20  2  0  0  0  0
 22 16  1  0  0  0  0
 23 17  1  0  0  0  0
M  END
>  <minimizedAffinity>
-3.61137176

$$$$

 OpenBabel03272509483D

 23 24  0  0  0  0  0  0  0  0999 V2000
   37.3990   26.6800   34.6640 C   0  0  0  0  0  0  0  0  0  0  0  0
   36.8360   25.7140   34.5620 H   0  0  0  0  0  0  0  0  0  0  0  0
   38.1880   26.6650   33.8700 H   0  0  0  0  0  0  0  0  0  0  0  0
   38.1300   26.6510   35.9870 C   0  0  0  0  0  0  0  0  0  0  0  0
   37.5860   27.2660   36.7140 H   0  0  0  0  0  0  0  0  0  0  0  0
   39.1470   27.0450   35.8900 H   0  0  0  0  0  0  0  0  0  0  0  0
   38.1300   25.2050   36.4120 C   0  0  0  0  0  0  0  0  0  0  0  0
   38.2600   24.3020   35.2740 C   0  0  0  0  0  0  0  0  0  0  0  0
   38.3540   24.4430   34.2130 H   0  0  0  0  0  0  0  0  0  0  0  0
   38.2320   22.6320   36.0590 S   0  0  0  0  0  0  0  0  0  0  0  0
   38.0510   23.4330   37.7720 C   0  0  0  0  0  0  0  0  0  0  0  0
   37.9420   23.2730   38.9960 H   0  0  0  0  0  0  0  0  0  0  0  0
   38.0430   24.5380   37.5470 N   0  0  0  0  0  0  0  0  0  0  0  0
   36.5600   27.8060   34.5940 O   0  0  0  0  0  0  0  0  0  0  0  0
   35.3330   29.7190   31.7590 C   0  0  0  0  0  0  0  0  0  0  0  0
   36.2730   29.3230   30.7920 C   0  0  0  0  0  0  0  0  0  0  0  0
   37.2720   28.4280   31.1600 C   0  0  0  0  0  0  0  0  0  0  0  0
   37.2720   27.9870   32.4530 N   0  0  0  0  0  0  0  0  0  0  0  0
   36.3490   28.3920   33.3540 C   0  0  0  0  0  0  0  0  0  0  0  0
   35.3930   29.2530   32.9900 N   0  0  0  0  0  0  0  0  0  0  0  0
   34.5400   30.4160   31.5070 H   0  0  0  0  0  0  0  0  0  0  0  0
   36.2180   29.7120   29.7760 H   0  0  0  0  0  0  0  0  0  0  0  0
   38.0180   28.0950   30.4490 H   0  0  0  0  0  0  0  0  0  0  0  0
  1  4  1  0  0  0  0
  2  1  1  0  0  0  0
  3  1  1  0  0  0  0
  4  7  1  0  0  0  0
  4  5  1  0  0  0  0
  6  4  1  0  0  0  0
  7 13  1  0  0  0  0
  8 10  1  0  0  0  0
  8  7  2  0  0  0  0
  9  8  1  0  0  0  0
 10 11  1  0  0  0  0
 11 12  1  0  0  0  0
 13 11  2  0  0  0  0
 14  1  1  0  0  0  0
 15 20  1  0  0  0  0
 16 17  1  0  0  0  0
 16 15  2  0  0  0  0
 17 18  2  0  0  0  0
 18 19  1  0  0  0  0
 19 14  1  0  0  0  0
 20 19  2  0  0  0  0
 21 15  1  0  0  0  0
 22 16  1  0  0  0  0
 23 17  1  0  0  0  0
M  END
>  <minimizedAffinity>
-3.58145189

$$$$
