
 OpenBabel03262521463D

 28 29  0  0  0  0  0  0  0  0999 V2000
   36.9510   29.2470   50.5690 C   0  0  0  0  0  0  0  0  0  0  0  0
   37.4860   28.3240   50.8770 H   0  0  0  0  0  0  0  0  0  0  0  0
   36.7320   29.1350   49.4750 H   0  0  0  0  0  0  0  0  0  0  0  0
   37.7280   30.4990   50.7980 C   0  0  0  0  0  0  0  0  0  0  0  0
   37.2370   31.1710   51.5410 H   0  0  0  0  0  0  0  0  0  0  0  0
   38.6880   30.1860   51.3050 H   0  0  0  0  0  0  0  0  0  0  0  0
   38.1170   31.2100   49.5910 C   0  0  0  0  0  0  0  0  0  0  0  0
   38.5420   32.5220   49.5980 C   0  0  0  0  0  0  0  0  0  0  0  0
   38.8960   33.1230   48.3810 C   0  0  0  0  0  0  0  0  0  0  0  0
   38.7970   32.3600   47.2420 N   0  0  0  0  0  0  0  0  0  0  0  0
   38.3740   31.0720   47.2740 C   0  0  0  0  0  0  0  0  0  0  0  0
   38.0360   30.5120   48.4700 N   0  0  0  0  0  0  0  0  0  0  0  0
   38.6050   33.0850   50.5180 H   0  0  0  0  0  0  0  0  0  0  0  0
   39.2370   34.1510   48.3270 H   0  0  0  0  0  0  0  0  0  0  0  0
   38.3180   30.5210   46.3360 H   0  0  0  0  0  0  0  0  0  0  0  0
   35.7200   29.3750   51.2210 O   0  0  0  0  0  0  0  0  0  0  0  0
   34.6870   30.5480   49.1420 O   0  0  0  0  0  0  0  0  0  0  0  0
   34.4430   29.3940   50.1270 P   0  0  2  0  0  0  0  0  0  0  0  0
   32.9870   29.7440   50.8770 O   0  0  0  0  0  0  0  0  0  0  0  0
   32.8340   29.2860   51.7240 H   0  0  0  0  0  0  0  0  0  0  0  0
   34.3020   27.9360   49.3170 O   0  0  0  0  0  0  0  0  0  0  0  0
   33.3280   27.8010   48.3060 C   0  0  0  0  0  0  0  0  0  0  0  0
   31.9280   27.5740   48.5150 C   0  0  0  0  0  0  0  0  0  0  0  0
   31.5700   27.4970   49.4570 H   0  0  0  0  0  0  0  0  0  0  0  0
   31.3410   27.5150   46.8140 S   0  0  0  0  0  0  0  0  0  0  0  0
   33.0940   27.8110   46.0890 C   0  0  0  0  0  0  0  0  0  0  0  0
   33.3410   27.8730   44.9940 H   0  0  0  0  0  0  0  0  0  0  0  0
   33.9490   27.9250   47.1460 N   0  0  0  0  0  0  0  0  0  0  0  0
  1  4  1  0  0  0  0
  1  2  1  0  0  0  0
  1 16  1  0  0  0  0
  3  1  1  0  0  0  0
  4  6  1  0  0  0  0
  4  5  1  0  0  0  0
  7  8  1  0  0  0  0
  7  4  1  0  0  0  0
  8 13  1  0  0  0  0
  9  8  2  0  0  0  0
 10 11  2  0  0  0  0
 10  9  1  0  0  0  0
 11 12  1  0  0  0  0
 12  7  2  0  0  0  0
 14  9  1  0  0  0  0
 15 11  1  0  0  0  0
 18 17  2  6  0  0  0
 18 19  1  0  0  0  0
 18 16  1  0  0  0  0
 19 20  1  0  0  0  0
 21 18  1  0  0  0  0
 22 23  2  0  0  0  0
 22 21  1  0  0  0  0
 23 24  1  0  0  0  0
 25 23  1  0  0  0  0
 26 25  1  0  0  0  0
 26 28  2  0  0  0  0
 27 26  1  0  0  0  0
 28 22  1  0  0  0  0
M  END
>  <minimizedAffinity>
-5.02048826

>  <minimizedRMSD>
0.183835194

$$$$
