
 OpenBabel03262521463D

 28 29  0  0  0  0  0  0  0  0999 V2000
   36.9520   29.2480   50.5700 C   0  0  0  0  0  0  0  0  0  0  0  0
   37.4880   28.3250   50.8770 H   0  0  0  0  0  0  0  0  0  0  0  0
   36.7330   29.1360   49.4750 H   0  0  0  0  0  0  0  0  0  0  0  0
   37.7290   30.5010   50.7980 C   0  0  0  0  0  0  0  0  0  0  0  0
   37.2360   31.1720   51.5410 H   0  0  0  0  0  0  0  0  0  0  0  0
   38.6880   30.1880   51.3060 H   0  0  0  0  0  0  0  0  0  0  0  0
   38.1180   31.2110   49.5910 C   0  0  0  0  0  0  0  0  0  0  0  0
   38.5430   32.5230   49.5980 C   0  0  0  0  0  0  0  0  0  0  0  0
   38.8970   33.1240   48.3800 C   0  0  0  0  0  0  0  0  0  0  0  0
   38.7980   32.3610   47.2420 N   0  0  0  0  0  0  0  0  0  0  0  0
   38.3750   31.0720   47.2740 C   0  0  0  0  0  0  0  0  0  0  0  0
   38.0370   30.5130   48.4700 N   0  0  0  0  0  0  0  0  0  0  0  0
   38.6050   33.0860   50.5180 H   0  0  0  0  0  0  0  0  0  0  0  0
   39.2380   34.1520   48.3260 H   0  0  0  0  0  0  0  0  0  0  0  0
   38.3190   30.5210   46.3360 H   0  0  0  0  0  0  0  0  0  0  0  0
   35.7210   29.3750   51.2220 O   0  0  0  0  0  0  0  0  0  0  0  0
   34.6880   30.5480   49.1420 O   0  0  0  0  0  0  0  0  0  0  0  0
   34.4440   29.3940   50.1270 P   0  0  2  0  0  0  0  0  0  0  0  0
   32.9880   29.7450   50.8780 O   0  0  0  0  0  0  0  0  0  0  0  0
   32.8350   29.2880   51.7240 H   0  0  0  0  0  0  0  0  0  0  0  0
   34.3030   27.9360   49.3190 O   0  0  0  0  0  0  0  0  0  0  0  0
   33.3280   27.8010   48.3070 C   0  0  0  0  0  0  0  0  0  0  0  0
   31.9290   27.5740   48.5160 C   0  0  0  0  0  0  0  0  0  0  0  0
   31.5700   27.4980   49.4580 H   0  0  0  0  0  0  0  0  0  0  0  0
   31.3410   27.5160   46.8140 S   0  0  0  0  0  0  0  0  0  0  0  0
   33.0940   27.8100   46.0890 C   0  0  0  0  0  0  0  0  0  0  0  0
   33.3420   27.8720   44.9940 H   0  0  0  0  0  0  0  0  0  0  0  0
   33.9490   27.9240   47.1470 N   0  0  0  0  0  0  0  0  0  0  0  0
  1  4  1  0  0  0  0
  1  2  1  0  0  0  0
  1 16  1  0  0  0  0
  3  1  1  0  0  0  0
  4  6  1  0  0  0  0
  4  5  1  0  0  0  0
  7  8  1  0  0  0  0
  7  4  1  0  0  0  0
  8 13  1  0  0  0  0
  9  8  2  0  0  0  0
 10 11  2  0  0  0  0
 10  9  1  0  0  0  0
 11 12  1  0  0  0  0
 12  7  2  0  0  0  0
 14  9  1  0  0  0  0
 15 11  1  0  0  0  0
 18 17  2  6  0  0  0
 18 19  1  0  0  0  0
 18 16  1  0  0  0  0
 19 20  1  0  0  0  0
 21 18  1  0  0  0  0
 22 23  2  0  0  0  0
 22 21  1  0  0  0  0
 23 24  1  0  0  0  0
 25 23  1  0  0  0  0
 26 25  1  0  0  0  0
 26 28  2  0  0  0  0
 27 26  1  0  0  0  0
 28 22  1  0  0  0  0
M  END
>  <minimizedAffinity>
-5.02041674

>  <minimizedRMSD>
0.306443959

$$$$
