
 OpenBabel03272509543D

 41 44  0  0  0  0  0  0  0  0999 V2000
   34.3700   29.1560   47.7760 C   0  0  0  0  0  0  0  0  0  0  0  0
   35.1540   29.6220   47.1370 H   0  0  0  0  0  0  0  0  0  0  0  0
   33.7300   29.9750   48.1600 H   0  0  0  0  0  0  0  0  0  0  0  0
   33.6260   28.1310   46.9870 C   0  0  0  0  0  0  0  0  0  0  0  0
   34.1140   27.1480   46.9970 H   0  0  0  0  0  0  0  0  0  0  0  0
   33.5980   28.4430   45.9020 H   0  0  0  0  0  0  0  0  0  0  0  0
   32.2070   27.9990   47.3810 C   0  0  0  0  0  0  0  0  0  0  0  0
   31.8780   27.0070   48.2920 C   0  0  0  0  0  0  0  0  0  0  0  0
   30.6050   26.7870   48.7320 C   0  0  0  0  0  0  0  0  0  0  0  0
   29.6320   27.5660   48.2620 N   0  0  0  0  0  0  0  0  0  0  0  0
   29.9420   28.5400   47.3700 C   0  0  0  0  0  0  0  0  0  0  0  0
   31.2010   28.7750   46.9190 N   0  0  0  0  0  0  0  0  0  0  0  0
   32.6700   26.3640   48.6830 H   0  0  0  0  0  0  0  0  0  0  0  0
   30.3770   26.0040   49.4450 H   0  0  0  0  0  0  0  0  0  0  0  0
   28.8480   29.3940   46.8580 C   0  0  0  0  0  0  0  0  0  0  0  0
   28.8000   29.9620   45.5120 C   0  0  0  0  0  0  0  0  0  0  0  0
   29.5880   29.7560   44.8620 H   0  0  0  0  0  0  0  0  0  0  0  0
   27.1430   30.8740   45.6920 S   0  0  0  0  0  0  0  0  0  0  0  0
   26.9080   30.3000   47.4710 C   0  0  0  0  0  0  0  0  0  0  0  0
   26.0000   30.6400   47.9670 H   0  0  0  0  0  0  0  0  0  0  0  0
   27.8870   29.6100   47.7430 N   0  0  0  0  0  0  0  0  0  0  0  0
   35.0970   28.5380   48.8390 O   0  0  0  0  0  0  0  0  0  0  0  0
   37.2690   30.0610   51.2860 C   0  0  0  0  0  0  0  0  0  0  0  0
   38.0770   30.8520   50.4400 C   0  0  0  0  0  0  0  0  0  0  0  0
   37.8220   30.8090   49.0720 C   0  0  0  0  0  0  0  0  0  0  0  0
   36.7940   29.9910   48.6800 N   0  0  0  0  0  0  0  0  0  0  0  0
   36.0420   29.2540   49.4920 C   0  0  0  0  0  0  0  0  0  0  0  0
   36.2930   29.2980   50.8070 N   0  0  0  0  0  0  0  0  0  0  0  0
   37.5090   30.1320   52.3300 H   0  0  0  0  0  0  0  0  0  0  0  0
   38.8790   31.4870   50.7700 H   0  0  0  0  0  0  0  0  0  0  0  0
   38.8450   33.5070   49.2060 F   0  0  0  0  0  0  0  0  0  0  0  0
   39.0230   32.8030   48.1020 C   0  0  0  0  0  0  0  0  0  0  0  0
   38.5330   31.5370   48.0630 C   0  0  0  0  0  0  0  0  0  0  0  0
   38.7770   30.8850   46.8490 C   0  0  0  0  0  0  0  0  0  0  0  0
   39.4500   31.4830   45.8050 C   0  0  0  0  0  0  0  0  0  0  0  0
   39.9250   32.7690   45.9010 C   0  0  0  0  0  0  0  0  0  0  0  0
   39.6970   33.4230   47.0750 C   0  0  0  0  0  0  0  0  0  0  0  0
   38.4320   29.8630   46.6960 H   0  0  0  0  0  0  0  0  0  0  0  0
   39.6080   30.9200   44.8840 H   0  0  0  0  0  0  0  0  0  0  0  0
   40.4370   33.1710   45.0540 H   0  0  0  0  0  0  0  0  0  0  0  0
   40.0640   34.4360   47.1680 H   0  0  0  0  0  0  0  0  0  0  0  0
  1  3  1  0  0  0  0
  1 22  1  0  0  0  0
  2  1  1  0  0  0  0
  4  5  1  0  0  0  0
  4  7  1  0  0  0  0
  4  1  1  0  0  0  0
  6  4  1  0  0  0  0
  7  8  1  0  0  0  0
  8 13  1  0  0  0  0
  8  9  2  0  0  0  0
  9 14  1  0  0  0  0
 10  9  1  0  0  0  0
 11 10  2  0  0  0  0
 12 11  1  0  0  0  0
 12  7  2  0  0  0  0
 15 11  1  0  0  0  0
 15 21  1  0  0  0  0
 16 18  1  0  0  0  0
 16 15  2  0  0  0  0
 17 16  1  0  0  0  0
 18 19  1  0  0  0  0
 19 21  2  0  0  0  0
 19 20  1  0  0  0  0
 22 27  1  0  0  0  0
 23 29  1  0  0  0  0
 24 30  1  0  0  0  0
 24 23  2  0  0  0  0
 25 24  1  0  0  0  0
 26 25  2  0  0  0  0
 26 27  1  0  0  0  0
 27 28  2  0  0  0  0
 28 23  1  0  0  0  0
 32 31  1  0  0  0  0
 33 32  1  0  0  0  0
 33 25  1  0  0  0  0
 34 33  2  0  0  0  0
 35 36  2  0  0  0  0
 35 34  1  0  0  0  0
 36 37  1  0  0  0  0
 37 41  1  0  0  0  0
 37 32  2  0  0  0  0
 38 34  1  0  0  0  0
 39 35  1  0  0  0  0
 40 36  1  0  0  0  0
M  END
>  <minimizedAffinity>
-6.74436617

>  <minimizedRMSD>
1.11796069

$$$$
