
 OpenBabel03262520133D

 40 42  0  0  0  0  0  0  0  0999 V2000
   35.2850   30.4420   49.4090 C   0  0  0  0  0  0  0  0  0  0  0  0
   34.9380   31.4610   49.6980 H   0  0  0  0  0  0  0  0  0  0  0  0
   36.1510   30.2150   50.0690 H   0  0  0  0  0  0  0  0  0  0  0  0
   38.1880   31.5930   48.9620 Br  0  0  0  0  0  0  0  0  0  0  0  0
   36.9630   30.9580   47.6190 C   0  0  0  0  0  0  0  0  0  0  0  0
   37.3230   30.9750   46.2940 C   0  0  0  0  0  0  0  0  0  0  0  0
   36.4130   30.5170   45.3810 C   0  0  0  0  0  0  0  0  0  0  0  0
   35.1600   30.0470   45.7510 C   0  0  0  0  0  0  0  0  0  0  0  0
   34.8340   30.0470   47.1090 C   0  0  0  0  0  0  0  0  0  0  0  0
   35.7420   30.5030   48.0240 C   0  0  0  0  0  0  0  0  0  0  0  0
   36.7510   30.5520   44.3320 H   0  0  0  0  0  0  0  0  0  0  0  0
   34.5800   29.7310   44.9190 H   0  0  0  0  0  0  0  0  0  0  0  0
   33.8430   29.6700   47.1770 H   0  0  0  0  0  0  0  0  0  0  0  0
   39.8810   33.2640   45.0570 C   0  0  0  0  0  0  0  0  0  0  0  0
   41.0630   32.4670   45.0350 C   0  0  0  0  0  0  0  0  0  0  0  0
   40.9430   31.1630   45.4480 C   0  0  0  0  0  0  0  0  0  0  0  0
   39.7210   30.6740   45.8600 N   0  0  0  0  0  0  0  0  0  0  0  0
   38.6340   31.4690   45.8620 C   0  0  0  0  0  0  0  0  0  0  0  0
   38.7280   32.7480   45.4630 N   0  0  0  0  0  0  0  0  0  0  0  0
   39.9830   34.2890   44.7310 H   0  0  0  0  0  0  0  0  0  0  0  0
   41.9740   32.9280   44.6990 H   0  0  0  0  0  0  0  0  0  0  0  0
   41.8340   30.5540   45.4340 H   0  0  0  0  0  0  0  0  0  0  0  0
   34.1970   29.4790   49.7190 C   0  0  0  0  0  0  0  0  0  0  0  0
   34.0630   29.5880   50.8520 H   0  0  0  0  0  0  0  0  0  0  0  0
   33.2570   29.7940   49.3230 H   0  0  0  0  0  0  0  0  0  0  0  0
   34.6770   28.1610   49.5450 N   0  0  0  0  0  0  0  0  0  0  0  0
   35.7180   28.1010   49.4090 H   0  0  0  0  0  0  0  0  0  0  0  0
   33.9330   27.2940   48.7060 C   0  0  0  0  0  0  0  0  0  0  0  0
   34.2850   27.2760   47.6520 H   0  0  0  0  0  0  0  0  0  0  0  0
   33.9930   26.2520   49.0570 H   0  0  0  0  0  0  0  0  0  0  0  0
   32.5120   27.7650   48.6850 C   0  0  0  0  0  0  0  0  0  0  0  0
   32.2710   28.7000   48.2100 H   0  0  0  0  0  0  0  0  0  0  0  0
   32.0230   27.6640   49.6960 H   0  0  0  0  0  0  0  0  0  0  0  0
   31.8120   26.7320   47.7910 C   0  0  0  0  0  0  0  0  0  0  0  0
   32.5670   25.4780   47.3750 C   0  0  0  0  0  0  0  0  0  0  0  0
   33.6700   25.3350   47.7610 H   0  0  0  0  0  0  0  0  0  0  0  0
   31.3300   24.6580   46.3620 S   0  0  0  0  0  0  0  0  0  0  0  0
   30.0280   26.0160   46.6050 C   0  0  0  0  0  0  0  0  0  0  0  0
   29.0730   25.8800   46.1160 H   0  0  0  0  0  0  0  0  0  0  0  0
   30.5750   26.9110   47.3670 N   0  0  0  0  0  0  0  0  0  0  0  0
  1  2  1  0  0  0  0
  1 23  1  0  0  0  0
  1  3  1  0  0  0  0
  5 10  1  0  0  0  0
  5  4  1  0  0  0  0
  6  5  2  0  0  0  0
  7  8  2  0  0  0  0
  7  6  1  0  0  0  0
  8  9  1  0  0  0  0
  9 13  1  0  0  0  0
  9 10  2  0  0  0  0
 10  1  1  0  0  0  0
 11  7  1  0  0  0  0
 12  8  1  0  0  0  0
 14 19  1  0  0  0  0
 15 14  2  0  0  0  0
 15 16  1  0  0  0  0
 16 17  2  0  0  0  0
 17 18  1  0  0  0  0
 18  6  1  0  0  0  0
 19 18  2  0  0  0  0
 20 14  1  0  0  0  0
 21 15  1  0  0  0  0
 22 16  1  0  0  0  0
 23 24  1  0  0  0  0
 25 23  1  0  0  0  0
 26 23  1  0  0  0  0
 27 26  1  0  0  0  0
 28 30  1  0  0  0  0
 28 26  1  0  0  0  0
 29 28  1  0  0  0  0
 31 28  1  0  0  0  0
 31 33  1  0  0  0  0
 32 31  1  0  0  0  0
 34 31  1  0  0  0  0
 35 36  1  0  0  0  0
 35 34  2  0  0  0  0
 37 38  1  0  0  0  0
 37 35  1  0  0  0  0
 38 40  2  0  0  0  0
 39 38  1  0  0  0  0
 40 34  1  0  0  0  0
M  END
>  <minimizedAffinity>
-5.10366154

>  <minimizedRMSD>
0.199362934

$$$$
