
 OpenBabel03272507373D

 21 22  0  0  0  0  0  0  0  0999 V2000
   37.2840   30.7820   48.6290 C   0  0  0  0  0  0  0  0  0  0  0  0
   36.3500   29.7740   48.8610 C   0  0  0  0  0  0  0  0  0  0  0  0
   36.3050   29.1670   50.0990 C   0  0  0  0  0  0  0  0  0  0  0  0
   37.1810   29.5850   51.0450 N   0  0  0  0  0  0  0  0  0  0  0  0
   38.0840   30.5640   50.8130 C   0  0  0  0  0  0  0  0  0  0  0  0
   38.1350   31.1570   49.6170 N   0  0  0  0  0  0  0  0  0  0  0  0
   35.6200   28.3900   50.3500 H   0  0  0  0  0  0  0  0  0  0  0  0
   38.7750   30.8770   51.5950 H   0  0  0  0  0  0  0  0  0  0  0  0
   34.1500   28.8710   48.3480 C   0  0  0  0  0  0  0  0  0  0  0  0
   33.5630   28.7290   49.4870 O   0  0  0  0  0  0  0  0  0  0  0  0
   35.4280   29.3090   47.9230 N   0  0  0  0  0  0  0  0  0  0  0  0
   33.2710   28.5170   47.8200 H   0  0  0  0  0  0  0  0  0  0  0  0
   35.4890   29.2100   46.8940 H   0  0  0  0  0  0  0  0  0  0  0  0
   37.2030   31.2850   47.3510 O   0  0  0  0  0  0  0  0  0  0  0  0
   38.3790   31.6000   46.6370 C   0  0  0  0  0  0  0  0  0  0  0  0
   38.9120   30.5720   45.8020 C   0  0  0  0  0  0  0  0  0  0  0  0
   38.5680   29.5930   45.6220 H   0  0  0  0  0  0  0  0  0  0  0  0
   40.3760   31.3470   45.0780 S   0  0  0  0  0  0  0  0  0  0  0  0
   40.0390   32.9600   46.0280 C   0  0  0  0  0  0  0  0  0  0  0  0
   40.4490   34.1000   46.2300 H   0  0  0  0  0  0  0  0  0  0  0  0
   39.0900   32.7180   46.6110 N   0  0  0  0  0  0  0  0  0  0  0  0
  1  2  2  0  0  0  0
  1  6  1  0  0  0  0
  2  3  1  0  0  0  0
  3  7  1  0  0  0  0
  3  4  2  0  0  0  0
  5  4  1  0  0  0  0
  5  8  1  0  0  0  0
  6  5  2  0  0  0  0
  9 10  2  0  0  0  0
 11  9  1  0  0  0  0
 11  2  1  0  0  0  0
 12  9  1  0  0  0  0
 13 11  1  0  0  0  0
 14  1  1  0  0  0  0
 15 14  1  0  0  0  0
 16 15  2  0  0  0  0
 17 16  1  0  0  0  0
 18 16  1  0  0  0  0
 18 19  1  0  0  0  0
 19 20  1  0  0  0  0
 19 21  2  0  0  0  0
 21 15  1  0  0  0  0
M  END
>  <minimizedAffinity>
-4.19690466

>  <minimizedRMSD>
6.31148148

$$$$
