
 OpenBabel03272509543D

 41 44  0  0  0  0  0  0  0  0999 V2000
   34.2450   28.8100   48.0860 C   0  0  0  0  0  0  0  0  0  0  0  0
   35.1410   28.9740   47.4470 H   0  0  0  0  0  0  0  0  0  0  0  0
   33.7230   29.7820   48.1770 H   0  0  0  0  0  0  0  0  0  0  0  0
   33.4010   27.7290   47.4950 C   0  0  0  0  0  0  0  0  0  0  0  0
   33.7290   26.7240   47.7890 H   0  0  0  0  0  0  0  0  0  0  0  0
   33.4910   27.7590   46.3700 H   0  0  0  0  0  0  0  0  0  0  0  0
   31.9570   27.8940   47.7650 C   0  0  0  0  0  0  0  0  0  0  0  0
   31.4290   27.2560   48.8770 C   0  0  0  0  0  0  0  0  0  0  0  0
   30.1130   27.3330   49.2300 C   0  0  0  0  0  0  0  0  0  0  0  0
   29.2970   28.0570   48.4670 N   0  0  0  0  0  0  0  0  0  0  0  0
   29.8020   28.6860   47.3760 C   0  0  0  0  0  0  0  0  0  0  0  0
   31.1070   28.6220   47.0060 N   0  0  0  0  0  0  0  0  0  0  0  0
   32.0930   26.6600   49.5090 H   0  0  0  0  0  0  0  0  0  0  0  0
   29.7290   26.8230   50.1050 H   0  0  0  0  0  0  0  0  0  0  0  0
   28.8800   29.4850   46.5390 C   0  0  0  0  0  0  0  0  0  0  0  0
   29.1200   29.8320   45.1400 C   0  0  0  0  0  0  0  0  0  0  0  0
   30.0000   29.4960   44.6930 H   0  0  0  0  0  0  0  0  0  0  0  0
   27.5210   30.8180   44.8560 S   0  0  0  0  0  0  0  0  0  0  0  0
   26.9230   30.5460   46.6220 C   0  0  0  0  0  0  0  0  0  0  0  0
   25.9630   30.9920   46.8750 H   0  0  0  0  0  0  0  0  0  0  0  0
   27.7870   29.8740   47.1790 N   0  0  0  0  0  0  0  0  0  0  0  0
   34.7750   28.3960   49.3460 O   0  0  0  0  0  0  0  0  0  0  0  0
   37.1150   29.9860   51.5880 C   0  0  0  0  0  0  0  0  0  0  0  0
   37.8960   30.7070   50.6580 C   0  0  0  0  0  0  0  0  0  0  0  0
   37.5650   30.5990   49.3100 C   0  0  0  0  0  0  0  0  0  0  0  0
   36.4970   29.7910   49.0180 N   0  0  0  0  0  0  0  0  0  0  0  0
   35.7720   29.1190   49.9080 C   0  0  0  0  0  0  0  0  0  0  0  0
   36.0950   29.2250   51.2030 N   0  0  0  0  0  0  0  0  0  0  0  0
   37.4140   30.1050   52.6120 H   0  0  0  0  0  0  0  0  0  0  0  0
   38.7300   31.3360   50.9090 H   0  0  0  0  0  0  0  0  0  0  0  0
   38.7850   33.2170   49.2860 F   0  0  0  0  0  0  0  0  0  0  0  0
   38.8180   32.4800   48.1910 C   0  0  0  0  0  0  0  0  0  0  0  0
   38.2380   31.2530   48.2260 C   0  0  0  0  0  0  0  0  0  0  0  0
   38.3310   30.5600   47.0140 C   0  0  0  0  0  0  0  0  0  0  0  0
   38.9540   31.0850   45.9020 C   0  0  0  0  0  0  0  0  0  0  0  0
   39.5250   32.3350   45.9240 C   0  0  0  0  0  0  0  0  0  0  0  0
   39.4450   33.0270   47.0950 C   0  0  0  0  0  0  0  0  0  0  0  0
   37.9020   29.5620   46.9180 H   0  0  0  0  0  0  0  0  0  0  0  0
   38.9930   30.4930   44.9870 H   0  0  0  0  0  0  0  0  0  0  0  0
   39.9910   32.6800   45.0270 H   0  0  0  0  0  0  0  0  0  0  0  0
   39.8900   34.0130   47.1300 H   0  0  0  0  0  0  0  0  0  0  0  0
  1  3  1  0  0  0  0
  1 22  1  0  0  0  0
  2  1  1  0  0  0  0
  4  7  1  0  0  0  0
  4  5  1  0  0  0  0
  4  1  1  0  0  0  0
  6  4  1  0  0  0  0
  7  8  1  0  0  0  0
  8  9  2  0  0  0  0
  8 13  1  0  0  0  0
  9 14  1  0  0  0  0
 10  9  1  0  0  0  0
 11 10  2  0  0  0  0
 12 11  1  0  0  0  0
 12  7  2  0  0  0  0
 15 21  1  0  0  0  0
 15 11  1  0  0  0  0
 16 15  2  0  0  0  0
 17 16  1  0  0  0  0
 18 16  1  0  0  0  0
 18 19  1  0  0  0  0
 19 20  1  0  0  0  0
 19 21  2  0  0  0  0
 22 27  1  0  0  0  0
 23 29  1  0  0  0  0
 24 30  1  0  0  0  0
 24 23  2  0  0  0  0
 25 24  1  0  0  0  0
 26 25  2  0  0  0  0
 26 27  1  0  0  0  0
 27 28  2  0  0  0  0
 28 23  1  0  0  0  0
 32 33  1  0  0  0  0
 32 31  1  0  0  0  0
 33 25  1  0  0  0  0
 34 33  2  0  0  0  0
 35 36  2  0  0  0  0
 35 34  1  0  0  0  0
 36 37  1  0  0  0  0
 37 41  1  0  0  0  0
 37 32  2  0  0  0  0
 38 34  1  0  0  0  0
 39 35  1  0  0  0  0
 40 36  1  0  0  0  0
M  END
>  <minimizedAffinity>
-6.62658548

>  <minimizedRMSD>
0.674900115

$$$$
