
 OpenBabel03272509473D

 23 24  0  0  0  0  0  0  0  0999 V2000
   34.0980   28.4740   48.6030 C   0  0  0  0  0  0  0  0  0  0  0  0
   33.1200   29.0170   48.6940 H   0  0  0  0  0  0  0  0  0  0  0  0
   34.7100   29.0550   47.8670 H   0  0  0  0  0  0  0  0  0  0  0  0
   33.8260   27.1340   47.9610 C   0  0  0  0  0  0  0  0  0  0  0  0
   33.0310   26.6210   48.5170 H   0  0  0  0  0  0  0  0  0  0  0  0
   34.7180   26.4990   47.9660 H   0  0  0  0  0  0  0  0  0  0  0  0
   33.3720   27.4470   46.5580 C   0  0  0  0  0  0  0  0  0  0  0  0
   32.0620   28.0850   46.5380 C   0  0  0  0  0  0  0  0  0  0  0  0
   31.3590   28.3760   47.2960 H   0  0  0  0  0  0  0  0  0  0  0  0
   31.7530   28.3530   44.7390 S   0  0  0  0  0  0  0  0  0  0  0  0
   33.4320   27.5640   44.3270 C   0  0  0  0  0  0  0  0  0  0  0  0
   34.2450   27.2270   43.4540 H   0  0  0  0  0  0  0  0  0  0  0  0
   33.8510   27.2940   45.3380 N   0  0  0  0  0  0  0  0  0  0  0  0
   34.7380   28.3010   49.8440 O   0  0  0  0  0  0  0  0  0  0  0  0
   37.3670   30.2470   51.4260 C   0  0  0  0  0  0  0  0  0  0  0  0
   38.0600   30.6700   50.2780 C   0  0  0  0  0  0  0  0  0  0  0  0
   37.5940   30.2670   49.0310 C   0  0  0  0  0  0  0  0  0  0  0  0
   36.4790   29.4800   49.0040 N   0  0  0  0  0  0  0  0  0  0  0  0
   35.8390   29.0940   50.1310 C   0  0  0  0  0  0  0  0  0  0  0  0
   36.2960   29.4860   51.3260 N   0  0  0  0  0  0  0  0  0  0  0  0
   37.7020   30.5420   52.4150 H   0  0  0  0  0  0  0  0  0  0  0  0
   38.9450   31.3000   50.3680 H   0  0  0  0  0  0  0  0  0  0  0  0
   38.0960   30.5690   48.1200 H   0  0  0  0  0  0  0  0  0  0  0  0
  1  2  1  0  0  0  0
  1 14  1  0  0  0  0
  3  1  1  0  0  0  0
  4  6  1  0  0  0  0
  4  5  1  0  0  0  0
  4  1  1  0  0  0  0
  7  4  1  0  0  0  0
  8  7  2  0  0  0  0
  8  9  1  0  0  0  0
 10  8  1  0  0  0  0
 11 10  1  0  0  0  0
 11 13  2  0  0  0  0
 12 11  1  0  0  0  0
 13  7  1  0  0  0  0
 14 19  1  0  0  0  0
 15 21  1  0  0  0  0
 16 22  1  0  0  0  0
 16 15  2  0  0  0  0
 17 16  1  0  0  0  0
 18 17  2  0  0  0  0
 18 19  1  0  0  0  0
 19 20  2  0  0  0  0
 20 15  1  0  0  0  0
 23 17  1  0  0  0  0
M  END
>  <minimizedAffinity>
-3.60946536

>  <minimizedRMSD>
0.510460138

$$$$
