
 OpenBabel03272509473D

 23 24  0  0  0  0  0  0  0  0999 V2000
   34.0320   28.5090   48.6550 C   0  0  0  0  0  0  0  0  0  0  0  0
   33.0430   29.0020   48.8530 H   0  0  0  0  0  0  0  0  0  0  0  0
   34.5730   29.1760   47.9350 H   0  0  0  0  0  0  0  0  0  0  0  0
   33.7670   27.2170   47.9170 C   0  0  0  0  0  0  0  0  0  0  0  0
   32.9930   26.6500   48.4490 H   0  0  0  0  0  0  0  0  0  0  0  0
   34.6690   26.6010   47.8540 H   0  0  0  0  0  0  0  0  0  0  0  0
   33.2760   27.6300   46.5530 C   0  0  0  0  0  0  0  0  0  0  0  0
   34.0820   28.7040   45.9850 C   0  0  0  0  0  0  0  0  0  0  0  0
   34.9380   29.2580   46.3250 H   0  0  0  0  0  0  0  0  0  0  0  0
   33.2840   29.0080   44.3500 S   0  0  0  0  0  0  0  0  0  0  0  0
   32.0100   27.6450   44.7100 C   0  0  0  0  0  0  0  0  0  0  0  0
   31.0240   27.0050   44.3210 H   0  0  0  0  0  0  0  0  0  0  0  0
   32.3060   27.2720   45.7330 N   0  0  0  0  0  0  0  0  0  0  0  0
   34.7580   28.2590   49.8340 O   0  0  0  0  0  0  0  0  0  0  0  0
   37.3570   30.2480   51.4110 C   0  0  0  0  0  0  0  0  0  0  0  0
   38.0430   30.6800   50.2620 C   0  0  0  0  0  0  0  0  0  0  0  0
   37.5830   30.2680   49.0160 C   0  0  0  0  0  0  0  0  0  0  0  0
   36.4790   29.4630   48.9910 N   0  0  0  0  0  0  0  0  0  0  0  0
   35.8470   29.0690   50.1190 C   0  0  0  0  0  0  0  0  0  0  0  0
   36.2980   29.4700   51.3130 N   0  0  0  0  0  0  0  0  0  0  0  0
   37.6880   30.5490   52.4000 H   0  0  0  0  0  0  0  0  0  0  0  0
   38.9180   31.3230   50.3510 H   0  0  0  0  0  0  0  0  0  0  0  0
   38.0790   30.5760   48.1040 H   0  0  0  0  0  0  0  0  0  0  0  0
  1  2  1  0  0  0  0
  1 14  1  0  0  0  0
  3  1  1  0  0  0  0
  4  5  1  0  0  0  0
  4  1  1  0  0  0  0
  6  4  1  0  0  0  0
  7  4  1  0  0  0  0
  8  9  1  0  0  0  0
  8  7  2  0  0  0  0
 10 11  1  0  0  0  0
 10  8  1  0  0  0  0
 11 13  2  0  0  0  0
 12 11  1  0  0  0  0
 13  7  1  0  0  0  0
 14 19  1  0  0  0  0
 15 21  1  0  0  0  0
 16 22  1  0  0  0  0
 16 15  2  0  0  0  0
 17 16  1  0  0  0  0
 18 17  2  0  0  0  0
 18 19  1  0  0  0  0
 19 20  2  0  0  0  0
 20 15  1  0  0  0  0
 23 17  1  0  0  0  0
M  END
>  <minimizedAffinity>
-3.60807371

>  <minimizedRMSD>
0.359964013

$$$$
