
 OpenBabel03272509473D

 23 24  0  0  0  0  0  0  0  0999 V2000
   33.8290   28.6590   49.0360 C   0  0  0  0  0  0  0  0  0  0  0  0
   32.9000   28.9660   49.5870 H   0  0  0  0  0  0  0  0  0  0  0  0
   34.1300   29.5420   48.4160 H   0  0  0  0  0  0  0  0  0  0  0  0
   33.4500   27.5680   48.0620 C   0  0  0  0  0  0  0  0  0  0  0  0
   32.3850   27.3330   48.1780 H   0  0  0  0  0  0  0  0  0  0  0  0
   34.0290   26.6560   48.2380 H   0  0  0  0  0  0  0  0  0  0  0  0
   33.7180   28.1430   46.6940 C   0  0  0  0  0  0  0  0  0  0  0  0
   33.6950   29.6000   46.7000 C   0  0  0  0  0  0  0  0  0  0  0  0
   33.5300   30.3440   47.4570 H   0  0  0  0  0  0  0  0  0  0  0  0
   34.0460   30.0330   44.9400 S   0  0  0  0  0  0  0  0  0  0  0  0
   34.1620   28.1870   44.5030 C   0  0  0  0  0  0  0  0  0  0  0  0
   34.3520   27.3280   43.6310 H   0  0  0  0  0  0  0  0  0  0  0  0
   33.9700   27.6710   45.4880 N   0  0  0  0  0  0  0  0  0  0  0  0
   34.8470   28.2130   49.8980 O   0  0  0  0  0  0  0  0  0  0  0  0
   37.4100   30.3110   51.3910 C   0  0  0  0  0  0  0  0  0  0  0  0
   38.0620   30.7410   50.2220 C   0  0  0  0  0  0  0  0  0  0  0  0
   37.5930   30.2920   48.9920 C   0  0  0  0  0  0  0  0  0  0  0  0
   36.5150   29.4530   49.0020 N   0  0  0  0  0  0  0  0  0  0  0  0
   35.9150   29.0620   50.1490 C   0  0  0  0  0  0  0  0  0  0  0  0
   36.3740   29.4990   51.3260 N   0  0  0  0  0  0  0  0  0  0  0  0
   37.7490   30.6410   52.3680 H   0  0  0  0  0  0  0  0  0  0  0  0
   38.9180   31.4130   50.2820 H   0  0  0  0  0  0  0  0  0  0  0  0
   38.0640   30.5970   48.0660 H   0  0  0  0  0  0  0  0  0  0  0  0
  1  2  1  0  0  0  0
  1 14  1  0  0  0  0
  3  1  1  0  0  0  0
  4  5  1  0  0  0  0
  4  6  1  0  0  0  0
  4  1  1  0  0  0  0
  7  8  2  0  0  0  0
  7  4  1  0  0  0  0
  8  9  1  0  0  0  0
 10  8  1  0  0  0  0
 11 10  1  0  0  0  0
 11 13  2  0  0  0  0
 12 11  1  0  0  0  0
 13  7  1  0  0  0  0
 14 19  1  0  0  0  0
 15 21  1  0  0  0  0
 16 22  1  0  0  0  0
 16 15  2  0  0  0  0
 17 18  2  0  0  0  0
 17 16  1  0  0  0  0
 18 19  1  0  0  0  0
 19 20  2  0  0  0  0
 20 15  1  0  0  0  0
 23 17  1  0  0  0  0
M  END
>  <minimizedAffinity>
-3.72409511

>  <minimizedRMSD>
1.03527701

$$$$
