
 OpenBabel03272506423D

 30 32  0  0  1  0  0  0  0  0999 V2000
   32.6130   28.6420   47.5170 C   0  0  2  0  0  0  0  0  0  0  0  0
   33.8610   28.7300   48.3820 C   0  0  1  0  0  0  0  0  0  0  0  0
   34.4210   27.4730   48.4400 O   0  0  0  0  0  0  0  0  0  0  0  0
   33.7630   26.6520   47.5560 C   0  0  0  0  0  0  0  0  0  0  0  0
   33.0410   27.5670   46.5650 C   0  0  1  0  0  0  0  0  0  0  0  0
   31.7340   28.2980   48.1050 H   0  0  0  0  0  0  0  0  0  0  0  0
   33.5960   29.1690   49.3510 H   0  0  0  0  0  0  0  0  0  0  0  0
   33.0650   25.9430   48.0430 H   0  0  0  0  0  0  0  0  0  0  0  0
   34.5290   26.1210   46.9470 H   0  0  0  0  0  0  0  0  0  0  0  0
   33.7310   27.9210   45.7970 H   0  0  0  0  0  0  0  0  0  0  0  0
   32.3520   29.8460   46.8830 O   0  0  0  0  0  0  0  0  0  0  0  0
   32.0970   30.5100   47.5520 H   0  0  0  0  0  0  0  0  0  0  0  0
   35.0230   29.8050   47.4620 S   0  0  0  0  0  0  0  0  0  0  0  0
   37.5120   29.9810   50.5300 C   0  0  0  0  0  0  0  0  0  0  0  0
   38.3130   31.0940   50.2960 C   0  0  0  0  0  0  0  0  0  0  0  0
   38.0740   31.8330   49.1280 C   0  0  0  0  0  0  0  0  0  0  0  0
   37.0810   31.4120   48.3110 N   0  0  0  0  0  0  0  0  0  0  0  0
   36.3220   30.3330   48.5600 C   0  0  0  0  0  0  0  0  0  0  0  0
   36.5370   29.6090   49.6790 N   0  0  0  0  0  0  0  0  0  0  0  0
   37.7230   29.4310   51.4420 H   0  0  0  0  0  0  0  0  0  0  0  0
   39.1070   31.4250   50.9580 H   0  0  0  0  0  0  0  0  0  0  0  0
   38.6340   32.7110   48.8480 H   0  0  0  0  0  0  0  0  0  0  0  0
   31.9760   26.8810   45.9900 O   0  0  0  0  0  0  0  0  0  0  0  0
   31.4970   27.3980   44.7770 C   0  0  0  0  0  0  0  0  0  0  0  0
   30.8310   26.3580   44.0290 C   0  0  0  0  0  0  0  0  0  0  0  0
   30.6090   25.3310   44.1410 H   0  0  0  0  0  0  0  0  0  0  0  0
   30.2760   27.2660   42.4600 S   0  0  0  0  0  0  0  0  0  0  0  0
   31.0570   28.8570   43.1440 C   0  0  0  0  0  0  0  0  0  0  0  0
   31.3050   30.0690   42.9860 H   0  0  0  0  0  0  0  0  0  0  0  0
   31.4860   28.5550   44.1430 N   0  0  0  0  0  0  0  0  0  0  0  0
  1  6  1  1  0  0  0
  1  2  1  0  0  0  0
  2  3  1  0  0  0  0
  2  7  1  1  0  0  0
  4  8  1  0  0  0  0
  4  3  1  0  0  0  0
  5 10  1  6  0  0  0
  5  1  1  0  0  0  0
  5  4  1  0  0  0  0
  9  4  1  0  0  0  0
 11  1  1  0  0  0  0
 11 12  1  0  0  0  0
 13  2  1  0  0  0  0
 13 18  1  0  0  0  0
 14 20  1  0  0  0  0
 15 14  1  0  0  0  0
 15 21  1  0  0  0  0
 16 15  2  0  0  0  0
 17 18  2  0  0  0  0
 17 16  1  0  0  0  0
 18 19  1  0  0  0  0
 19 14  2  0  0  0  0
 22 16  1  0  0  0  0
 23  5  1  0  0  0  0
 24 23  1  0  0  0  0
 25 26  1  0  0  0  0
 25 24  2  0  0  0  0
 27 28  1  0  0  0  0
 27 25  1  0  0  0  0
 28 30  2  0  0  0  0
 29 28  1  0  0  0  0
 30 24  1  0  0  0  0
M  END
>  <minimizedAffinity>
-3.74043798

>  <minimizedRMSD>
0.988028586

$$$$
