
 OpenBabel03262521063D

 34 36  0  0  0  0  0  0  0  0999 V2000
   38.1150   23.4360   33.3300 Br  0  0  0  0  0  0  0  0  0  0  0  0
   38.0590   25.0970   34.2170 C   0  0  0  0  0  0  0  0  0  0  0  0
   38.8050   25.1820   35.3490 C   0  0  0  0  0  0  0  0  0  0  0  0
   38.8200   26.3870   36.0720 C   0  0  0  0  0  0  0  0  0  0  0  0
   38.0720   27.4650   35.6150 C   0  0  0  0  0  0  0  0  0  0  0  0
   37.3550   27.3010   34.4750 C   0  0  0  0  0  0  0  0  0  0  0  0
   37.3230   26.1330   33.7490 C   0  0  0  0  0  0  0  0  0  0  0  0
   39.3880   26.5300   36.9820 H   0  0  0  0  0  0  0  0  0  0  0  0
   38.0870   28.4000   36.1790 H   0  0  0  0  0  0  0  0  0  0  0  0
   36.7730   28.1450   34.1220 H   0  0  0  0  0  0  0  0  0  0  0  0
   40.9390   23.8430   35.5600 C   0  0  0  0  0  0  0  0  0  0  0  0
   39.6440   24.1420   35.9630 C   0  0  0  0  0  0  0  0  0  0  0  0
   39.0910   23.3940   37.0410 C   0  0  0  0  0  0  0  0  0  0  0  0
   39.8950   22.4250   37.6000 N   0  0  0  0  0  0  0  0  0  0  0  0
   41.1300   22.1830   37.1730 C   0  0  0  0  0  0  0  0  0  0  0  0
   41.6520   22.8830   36.1620 N   0  0  0  0  0  0  0  0  0  0  0  0
   41.2860   24.4590   34.7330 H   0  0  0  0  0  0  0  0  0  0  0  0
   38.0910   23.5940   37.3840 H   0  0  0  0  0  0  0  0  0  0  0  0
   41.7360   21.4150   37.6330 H   0  0  0  0  0  0  0  0  0  0  0  0
   36.5760   25.9470   32.5540 N   0  0  0  0  0  0  0  0  0  0  0  0
   35.7570   25.2870   32.7160 H   0  0  0  0  0  0  0  0  0  0  0  0
   36.7290   26.5510   30.9840 S   0  0  0  0  0  0  0  0  0  0  0  0
   35.4790   26.3160   30.1850 O   0  0  0  0  0  0  0  0  0  0  0  0
   34.5500   26.4730   30.4470 H   0  0  0  0  0  0  0  0  0  0  0  0
   37.8560   25.8210   30.2690 O   0  0  0  0  0  0  0  0  0  0  0  0
   37.6880   25.0180   29.7420 H   0  0  0  0  0  0  0  0  0  0  0  0
   37.0610   28.1970   31.0620 O   0  0  0  0  0  0  0  0  0  0  0  0
   36.0210   29.0730   31.3500 C   0  0  0  0  0  0  0  0  0  0  0  0
   35.8430   30.3470   30.8080 C   0  0  0  0  0  0  0  0  0  0  0  0
   36.4470   30.8660   30.0990 H   0  0  0  0  0  0  0  0  0  0  0  0
   34.2690   30.9120   31.6450 S   0  0  0  0  0  0  0  0  0  0  0  0
   34.1690   29.2620   32.5850 C   0  0  0  0  0  0  0  0  0  0  0  0
   33.3290   29.1130   33.2690 H   0  0  0  0  0  0  0  0  0  0  0  0
   35.0940   28.7000   32.2140 N   0  0  0  0  0  0  0  0  0  0  0  0
  1  2  1  0  0  0  0
  2  3  1  0  0  0  0
  3 12  1  0  0  0  0
  3  4  2  0  0  0  0
  4  8  1  0  0  0  0
  5  4  1  0  0  0  0
  5  9  1  0  0  0  0
  6  5  2  0  0  0  0
  7  2  2  0  0  0  0
  7  6  1  0  0  0  0
 10  6  1  0  0  0  0
 11 12  2  0  0  0  0
 11 16  1  0  0  0  0
 12 13  1  0  0  0  0
 13 18  1  0  0  0  0
 13 14  2  0  0  0  0
 15 14  1  0  0  0  0
 15 19  1  0  0  0  0
 16 15  2  0  0  0  0
 17 11  1  0  0  0  0
 20 21  1  0  0  0  0
 20  7  1  0  0  0  0
 22 27  1  0  0  0  0
 22 20  1  0  0  0  0
 23 24  1  0  0  0  0
 23 22  1  0  0  0  0
 25 22  1  0  0  0  0
 26 25  1  0  0  0  0
 27 28  1  0  0  0  0
 28 34  1  0  0  0  0
 29 28  2  0  0  0  0
 29 31  1  0  0  0  0
 30 29  1  0  0  0  0
 31 32  1  0  0  0  0
 32 33  1  0  0  0  0
 34 32  2  0  0  0  0
M  END
>  <minimizedAffinity>
-5.37336969

$$$$

 OpenBabel03262521063D

 34 36  0  0  0  0  0  0  0  0999 V2000
   37.0220   24.9210   32.3380 Br  0  0  0  0  0  0  0  0  0  0  0  0
   37.5650   25.7720   33.9290 C   0  0  0  0  0  0  0  0  0  0  0  0
   37.4180   27.1220   33.9500 C   0  0  0  0  0  0  0  0  0  0  0  0
   37.7990   27.8350   35.0990 C   0  0  0  0  0  0  0  0  0  0  0  0
   38.3170   27.1450   36.1880 C   0  0  0  0  0  0  0  0  0  0  0  0
   38.4310   25.7970   36.0890 C   0  0  0  0  0  0  0  0  0  0  0  0
   38.0660   25.0750   34.9760 C   0  0  0  0  0  0  0  0  0  0  0  0
   37.7130   28.9100   35.1910 H   0  0  0  0  0  0  0  0  0  0  0  0
   38.6110   27.7030   37.0810 H   0  0  0  0  0  0  0  0  0  0  0  0
   38.8360   25.2630   36.9410 H   0  0  0  0  0  0  0  0  0  0  0  0
   37.5420   28.2490   31.6910 C   0  0  0  0  0  0  0  0  0  0  0  0
   36.8910   27.9950   32.8900 C   0  0  0  0  0  0  0  0  0  0  0  0
   35.6300   28.6190   33.1100 C   0  0  0  0  0  0  0  0  0  0  0  0
   35.1570   29.4320   32.1030 N   0  0  0  0  0  0  0  0  0  0  0  0
   35.8260   29.6370   30.9740 C   0  0  0  0  0  0  0  0  0  0  0  0
   37.0080   29.0540   30.7640 N   0  0  0  0  0  0  0  0  0  0  0  0
   38.4980   27.7350   31.6020 H   0  0  0  0  0  0  0  0  0  0  0  0
   35.0920   28.4480   34.0260 H   0  0  0  0  0  0  0  0  0  0  0  0
   35.4260   30.2820   30.2020 H   0  0  0  0  0  0  0  0  0  0  0  0
   38.1800   23.6630   34.8580 N   0  0  0  0  0  0  0  0  0  0  0  0
   38.5830   23.3920   33.9110 H   0  0  0  0  0  0  0  0  0  0  0  0
   37.8160   22.3790   35.8930 S   0  0  0  0  0  0  0  0  0  0  0  0
   37.2530   22.8700   37.1950 O   0  0  0  0  0  0  0  0  0  0  0  0
   36.5600   23.5440   37.3430 H   0  0  0  0  0  0  0  0  0  0  0  0
   39.0910   21.6160   36.2200 O   0  0  0  0  0  0  0  0  0  0  0  0
   39.6330   21.8420   36.9990 H   0  0  0  0  0  0  0  0  0  0  0  0
   36.7100   21.3630   35.1350 O   0  0  0  0  0  0  0  0  0  0  0  0
   36.7400   21.2640   33.7490 C   0  0  0  0  0  0  0  0  0  0  0  0
   35.6310   21.1740   32.9060 C   0  0  0  0  0  0  0  0  0  0  0  0
   34.5950   21.1650   33.1570 H   0  0  0  0  0  0  0  0  0  0  0  0
   36.4290   21.0740   31.2180 S   0  0  0  0  0  0  0  0  0  0  0  0
   38.1510   21.1780   32.0190 C   0  0  0  0  0  0  0  0  0  0  0  0
   39.0230   21.1530   31.3610 H   0  0  0  0  0  0  0  0  0  0  0  0
   37.9090   21.2510   33.1350 N   0  0  0  0  0  0  0  0  0  0  0  0
  1  2  1  0  0  0  0
  2  3  2  0  0  0  0
  2  7  1  0  0  0  0
  3  4  1  0  0  0  0
  4  8  1  0  0  0  0
  4  5  2  0  0  0  0
  5  9  1  0  0  0  0
  6  5  1  0  0  0  0
  6 10  1  0  0  0  0
  7  6  2  0  0  0  0
 11 12  1  0  0  0  0
 12 13  2  0  0  0  0
 12  3  1  0  0  0  0
 13 18  1  0  0  0  0
 14 13  1  0  0  0  0
 15 14  2  0  0  0  0
 16 15  1  0  0  0  0
 16 11  2  0  0  0  0
 17 11  1  0  0  0  0
 19 15  1  0  0  0  0
 20  7  1  0  0  0  0
 20 22  1  0  0  0  0
 21 20  1  0  0  0  0
 22 25  1  0  0  0  0
 22 23  1  0  0  0  0
 23 24  1  0  0  0  0
 25 26  1  0  0  0  0
 27 22  1  0  0  0  0
 28 27  1  0  0  0  0
 29 30  1  0  0  0  0
 29 28  2  0  0  0  0
 31 32  1  0  0  0  0
 31 29  1  0  0  0  0
 32 34  2  0  0  0  0
 33 32  1  0  0  0  0
 34 28  1  0  0  0  0
M  END
>  <minimizedAffinity>
-5.29964066

$$$$

 OpenBabel03262521063D

 34 36  0  0  0  0  0  0  0  0999 V2000
   36.6450   27.8890   34.5380 Br  0  0  0  0  0  0  0  0  0  0  0  0
   36.3160   28.9090   32.9880 C   0  0  0  0  0  0  0  0  0  0  0  0
   35.6530   30.0780   33.1860 C   0  0  0  0  0  0  0  0  0  0  0  0
   35.3660   30.8980   32.0820 C   0  0  0  0  0  0  0  0  0  0  0  0
   35.7660   30.4990   30.8140 C   0  0  0  0  0  0  0  0  0  0  0  0
   36.4250   29.3190   30.6990 C   0  0  0  0  0  0  0  0  0  0  0  0
   36.7180   28.4960   31.7620 C   0  0  0  0  0  0  0  0  0  0  0  0
   34.8420   31.8420   32.1610 H   0  0  0  0  0  0  0  0  0  0  0  0
   35.5420   31.1410   29.9580 H   0  0  0  0  0  0  0  0  0  0  0  0
   36.7360   29.0110   29.7070 H   0  0  0  0  0  0  0  0  0  0  0  0
   35.9360   31.3990   35.3220 C   0  0  0  0  0  0  0  0  0  0  0  0
   35.1630   30.6400   34.4540 C   0  0  0  0  0  0  0  0  0  0  0  0
   33.8080   30.3880   34.8120 C   0  0  0  0  0  0  0  0  0  0  0  0
   33.3730   30.9240   36.0040 N   0  0  0  0  0  0  0  0  0  0  0  0
   34.1590   31.6460   36.7960 C   0  0  0  0  0  0  0  0  0  0  0  0
   35.4290   31.8840   36.4630 N   0  0  0  0  0  0  0  0  0  0  0  0
   36.9570   31.5450   34.9750 H   0  0  0  0  0  0  0  0  0  0  0  0
   33.1760   29.8030   34.1670 H   0  0  0  0  0  0  0  0  0  0  0  0
   33.7860   32.0530   37.7260 H   0  0  0  0  0  0  0  0  0  0  0  0
   37.4070   27.2570   31.6570 N   0  0  0  0  0  0  0  0  0  0  0  0
   38.4270   27.3630   31.9420 H   0  0  0  0  0  0  0  0  0  0  0  0
   36.9360   25.7040   31.1870 S   0  0  0  0  0  0  0  0  0  0  0  0
   37.8640   25.1440   30.1490 O   0  0  0  0  0  0  0  0  0  0  0  0
   38.8420   25.1450   30.1410 H   0  0  0  0  0  0  0  0  0  0  0  0
   35.5520   25.7640   30.5600 O   0  0  0  0  0  0  0  0  0  0  0  0
   35.4340   25.8860   29.6000 H   0  0  0  0  0  0  0  0  0  0  0  0
   36.9180   24.7060   32.5410 O   0  0  0  0  0  0  0  0  0  0  0  0
   36.8180   23.3330   32.3530 C   0  0  0  0  0  0  0  0  0  0  0  0
   37.5070   22.3520   33.0690 C   0  0  0  0  0  0  0  0  0  0  0  0
   38.2090   22.4680   33.8620 H   0  0  0  0  0  0  0  0  0  0  0  0
   36.8810   20.7770   32.2780 S   0  0  0  0  0  0  0  0  0  0  0  0
   35.7820   21.7960   31.1060 C   0  0  0  0  0  0  0  0  0  0  0  0
   35.1650   21.2550   30.3840 H   0  0  0  0  0  0  0  0  0  0  0  0
   36.0060   22.8730   31.4180 N   0  0  0  0  0  0  0  0  0  0  0  0
  2  3  1  0  0  0  0
  2  1  1  0  0  0  0
  3 12  1  0  0  0  0
  4  8  1  0  0  0  0
  4  3  2  0  0  0  0
  5  4  1  0  0  0  0
  6  5  2  0  0  0  0
  6  7  1  0  0  0  0
  7  2  2  0  0  0  0
  9  5  1  0  0  0  0
 10  6  1  0  0  0  0
 11 16  1  0  0  0  0
 12 13  1  0  0  0  0
 12 11  2  0  0  0  0
 13 14  2  0  0  0  0
 14 15  1  0  0  0  0
 15 19  1  0  0  0  0
 16 15  2  0  0  0  0
 17 11  1  0  0  0  0
 18 13  1  0  0  0  0
 20  7  1  0  0  0  0
 20 21  1  0  0  0  0
 22 20  1  0  0  0  0
 22 27  1  0  0  0  0
 23 22  1  0  0  0  0
 24 23  1  0  0  0  0
 25 22  1  0  0  0  0
 26 25  1  0  0  0  0
 28 27  1  0  0  0  0
 28 29  2  0  0  0  0
 29 30  1  0  0  0  0
 31 29  1  0  0  0  0
 32 34  2  0  0  0  0
 32 31  1  0  0  0  0
 33 32  1  0  0  0  0
 34 28  1  0  0  0  0
M  END
>  <minimizedAffinity>
-5.12819338

$$$$

 OpenBabel03262521063D

 34 36  0  0  0  0  0  0  0  0999 V2000
   38.4940   27.0340   35.1940 Br  0  0  0  0  0  0  0  0  0  0  0  0
   38.0160   25.7010   33.9510 C   0  0  0  0  0  0  0  0  0  0  0  0
   38.1200   24.4220   34.3960 C   0  0  0  0  0  0  0  0  0  0  0  0
   37.7840   23.3670   33.5310 C   0  0  0  0  0  0  0  0  0  0  0  0
   37.3520   23.6530   32.2420 C   0  0  0  0  0  0  0  0  0  0  0  0
   37.2740   24.9560   31.8740 C   0  0  0  0  0  0  0  0  0  0  0  0
   37.5970   26.0080   32.7000 C   0  0  0  0  0  0  0  0  0  0  0  0
   37.8410   22.3230   33.8120 H   0  0  0  0  0  0  0  0  0  0  0  0
   37.0900   22.8290   31.5730 H   0  0  0  0  0  0  0  0  0  0  0  0
   36.9360   25.1750   30.8680 H   0  0  0  0  0  0  0  0  0  0  0  0
   39.8260   23.4600   35.9940 C   0  0  0  0  0  0  0  0  0  0  0  0
   38.5580   23.9530   35.7190 C   0  0  0  0  0  0  0  0  0  0  0  0
   37.6180   24.0110   36.7870 C   0  0  0  0  0  0  0  0  0  0  0  0
   38.0500   23.5660   38.0170 N   0  0  0  0  0  0  0  0  0  0  0  0
   39.2790   23.1040   38.2220 C   0  0  0  0  0  0  0  0  0  0  0  0
   40.1620   23.0490   37.2230 N   0  0  0  0  0  0  0  0  0  0  0  0
   40.4820   23.4500   35.1250 H   0  0  0  0  0  0  0  0  0  0  0  0
   36.6240   24.3860   36.6160 H   0  0  0  0  0  0  0  0  0  0  0  0
   39.5870   22.7630   39.2010 H   0  0  0  0  0  0  0  0  0  0  0  0
   37.5210   27.3780   32.3280 N   0  0  0  0  0  0  0  0  0  0  0  0
   38.3080   27.9380   32.7750 H   0  0  0  0  0  0  0  0  0  0  0  0
   36.4620   28.2570   31.3490 S   0  0  0  0  0  0  0  0  0  0  0  0
   36.3860   27.6740   29.9670 O   0  0  0  0  0  0  0  0  0  0  0  0
   36.2830   26.7380   29.7060 H   0  0  0  0  0  0  0  0  0  0  0  0
   36.9750   29.6820   31.2020 O   0  0  0  0  0  0  0  0  0  0  0  0
   37.5650   29.9370   30.4690 H   0  0  0  0  0  0  0  0  0  0  0  0
   34.9370   28.2590   32.0580 O   0  0  0  0  0  0  0  0  0  0  0  0
   34.6860   29.1530   33.0920 C   0  0  0  0  0  0  0  0  0  0  0  0
   33.4600   29.7580   33.3780 C   0  0  0  0  0  0  0  0  0  0  0  0
   32.5250   29.6510   32.8770 H   0  0  0  0  0  0  0  0  0  0  0  0
   33.8790   30.8050   34.8690 S   0  0  0  0  0  0  0  0  0  0  0  0
   35.6790   30.1940   34.8010 C   0  0  0  0  0  0  0  0  0  0  0  0
   36.3760   30.5710   35.5530 H   0  0  0  0  0  0  0  0  0  0  0  0
   35.6740   29.4860   33.9020 N   0  0  0  0  0  0  0  0  0  0  0  0
  2  3  1  0  0  0  0
  2  1  1  0  0  0  0
  3 12  1  0  0  0  0
  4  8  1  0  0  0  0
  4  3  2  0  0  0  0
  5  4  1  0  0  0  0
  6  5  2  0  0  0  0
  6  7  1  0  0  0  0
  7  2  2  0  0  0  0
  9  5  1  0  0  0  0
 10  6  1  0  0  0  0
 11 16  1  0  0  0  0
 12 11  2  0  0  0  0
 12 13  1  0  0  0  0
 13 14  2  0  0  0  0
 14 15  1  0  0  0  0
 15 19  1  0  0  0  0
 16 15  2  0  0  0  0
 17 11  1  0  0  0  0
 18 13  1  0  0  0  0
 20  7  1  0  0  0  0
 20 21  1  0  0  0  0
 22 27  1  0  0  0  0
 22 20  1  0  0  0  0
 23 22  1  0  0  0  0
 24 23  1  0  0  0  0
 25 22  1  0  0  0  0
 26 25  1  0  0  0  0
 27 28  1  0  0  0  0
 28 29  2  0  0  0  0
 28 34  1  0  0  0  0
 29 31  1  0  0  0  0
 30 29  1  0  0  0  0
 32 31  1  0  0  0  0
 32 33  1  0  0  0  0
 34 32  2  0  0  0  0
M  END
>  <minimizedAffinity>
-5.10873747

$$$$

 OpenBabel03262521063D

 34 36  0  0  0  0  0  0  0  0999 V2000
   38.1980   23.7330   33.2250 Br  0  0  0  0  0  0  0  0  0  0  0  0
   38.0360   25.3590   34.1650 C   0  0  0  0  0  0  0  0  0  0  0  0
   38.6110   25.3830   35.3960 C   0  0  0  0  0  0  0  0  0  0  0  0
   38.5360   26.5580   36.1630 C   0  0  0  0  0  0  0  0  0  0  0  0
   37.8770   27.6670   35.6490 C   0  0  0  0  0  0  0  0  0  0  0  0
   37.3310   27.5630   34.4120 C   0  0  0  0  0  0  0  0  0  0  0  0
   37.3890   26.4260   33.6400 C   0  0  0  0  0  0  0  0  0  0  0  0
   38.9680   26.6540   37.1510 H   0  0  0  0  0  0  0  0  0  0  0  0
   37.8220   28.5790   36.2490 H   0  0  0  0  0  0  0  0  0  0  0  0
   36.8170   28.4310   34.0140 H   0  0  0  0  0  0  0  0  0  0  0  0
   38.8080   23.5300   37.1030 C   0  0  0  0  0  0  0  0  0  0  0  0
   39.3380   24.3040   36.0790 C   0  0  0  0  0  0  0  0  0  0  0  0
   40.6730   24.0360   35.6630 C   0  0  0  0  0  0  0  0  0  0  0  0
   41.3340   23.0210   36.3190 N   0  0  0  0  0  0  0  0  0  0  0  0
   40.7750   22.3110   37.2930 C   0  0  0  0  0  0  0  0  0  0  0  0
   39.5230   22.5600   37.6850 N   0  0  0  0  0  0  0  0  0  0  0  0
   37.7850   23.7980   37.3600 H   0  0  0  0  0  0  0  0  0  0  0  0
   41.1220   24.6130   34.8730 H   0  0  0  0  0  0  0  0  0  0  0  0
   41.3220   21.5200   37.7880 H   0  0  0  0  0  0  0  0  0  0  0  0
   36.8200   26.3020   32.3420 N   0  0  0  0  0  0  0  0  0  0  0  0
   35.8620   25.8430   32.3890 H   0  0  0  0  0  0  0  0  0  0  0  0
   37.3520   26.7290   30.7970 S   0  0  0  0  0  0  0  0  0  0  0  0
   36.2380   27.3170   29.9800 O   0  0  0  0  0  0  0  0  0  0  0  0
   35.5850   27.9960   30.2400 H   0  0  0  0  0  0  0  0  0  0  0  0
   37.8310   25.4850   30.0650 O   0  0  0  0  0  0  0  0  0  0  0  0
   37.2280   24.9590   29.5070 H   0  0  0  0  0  0  0  0  0  0  0  0
   38.6080   27.8390   30.9390 O   0  0  0  0  0  0  0  0  0  0  0  0
   39.4200   28.0680   29.8340 C   0  0  0  0  0  0  0  0  0  0  0  0
   40.7670   28.4340   29.8650 C   0  0  0  0  0  0  0  0  0  0  0  0
   41.4000   28.5980   30.7070 H   0  0  0  0  0  0  0  0  0  0  0  0
   41.1800   28.5620   28.0450 S   0  0  0  0  0  0  0  0  0  0  0  0
   39.3940   28.0800   27.6000 C   0  0  0  0  0  0  0  0  0  0  0  0
   39.1290   28.0180   26.5420 H   0  0  0  0  0  0  0  0  0  0  0  0
   38.9050   27.9390   28.6250 N   0  0  0  0  0  0  0  0  0  0  0  0
  1  2  1  0  0  0  0
  2  3  1  0  0  0  0
  3 12  1  0  0  0  0
  3  4  2  0  0  0  0
  4  8  1  0  0  0  0
  5  4  1  0  0  0  0
  5  9  1  0  0  0  0
  6  5  2  0  0  0  0
  7  2  2  0  0  0  0
  7  6  1  0  0  0  0
 10  6  1  0  0  0  0
 11 17  1  0  0  0  0
 11 16  1  0  0  0  0
 12 11  2  0  0  0  0
 13 12  1  0  0  0  0
 13 14  2  0  0  0  0
 14 15  1  0  0  0  0
 15 16  2  0  0  0  0
 15 19  1  0  0  0  0
 18 13  1  0  0  0  0
 20 21  1  0  0  0  0
 20  7  1  0  0  0  0
 22 27  1  0  0  0  0
 22 20  1  0  0  0  0
 23 24  1  0  0  0  0
 23 22  1  0  0  0  0
 25 22  1  0  0  0  0
 26 25  1  0  0  0  0
 28 29  2  0  0  0  0
 28 27  1  0  0  0  0
 29 30  1  0  0  0  0
 31 29  1  0  0  0  0
 32 31  1  0  0  0  0
 32 34  2  0  0  0  0
 33 32  1  0  0  0  0
 34 28  1  0  0  0  0
M  END
>  <minimizedAffinity>
-5.09694481

$$$$

 OpenBabel03262521063D

 34 36  0  0  0  0  0  0  0  0999 V2000
   34.3770   29.5000   32.9210 Br  0  0  0  0  0  0  0  0  0  0  0  0
   35.5170   30.8840   32.3410 C   0  0  0  0  0  0  0  0  0  0  0  0
   35.6440   31.9340   33.1930 C   0  0  0  0  0  0  0  0  0  0  0  0
   36.4750   33.0090   32.8370 C   0  0  0  0  0  0  0  0  0  0  0  0
   37.1490   32.9760   31.6230 C   0  0  0  0  0  0  0  0  0  0  0  0
   36.9720   31.8910   30.8280 C   0  0  0  0  0  0  0  0  0  0  0  0
   36.1640   30.8260   31.1520 C   0  0  0  0  0  0  0  0  0  0  0  0
   36.6260   33.8800   33.4610 H   0  0  0  0  0  0  0  0  0  0  0  0
   37.7960   33.8140   31.3490 H   0  0  0  0  0  0  0  0  0  0  0  0
   37.4990   31.8690   29.8810 H   0  0  0  0  0  0  0  0  0  0  0  0
   33.7500   32.6880   34.6870 C   0  0  0  0  0  0  0  0  0  0  0  0
   35.0040   32.1220   34.5040 C   0  0  0  0  0  0  0  0  0  0  0  0
   35.7190   31.6940   35.6590 C   0  0  0  0  0  0  0  0  0  0  0  0
   35.0990   31.8810   36.8750 N   0  0  0  0  0  0  0  0  0  0  0  0
   33.8950   32.4290   36.9900 C   0  0  0  0  0  0  0  0  0  0  0  0
   33.2220   32.8310   35.9090 N   0  0  0  0  0  0  0  0  0  0  0  0
   33.2710   32.9880   33.7560 H   0  0  0  0  0  0  0  0  0  0  0  0
   36.6940   31.2500   35.5600 H   0  0  0  0  0  0  0  0  0  0  0  0
   33.4360   32.5610   37.9610 H   0  0  0  0  0  0  0  0  0  0  0  0
   35.9670   29.6830   30.3300 N   0  0  0  0  0  0  0  0  0  0  0  0
   35.0050   29.7010   29.8760 H   0  0  0  0  0  0  0  0  0  0  0  0
   36.9320   28.3510   29.9440 S   0  0  0  0  0  0  0  0  0  0  0  0
   37.3820   28.3990   28.5130 O   0  0  0  0  0  0  0  0  0  0  0  0
   37.7530   29.1550   28.0160 H   0  0  0  0  0  0  0  0  0  0  0  0
   36.1210   27.0750   30.1130 O   0  0  0  0  0  0  0  0  0  0  0  0
   35.6210   26.6890   29.3690 H   0  0  0  0  0  0  0  0  0  0  0  0
   38.2670   28.3290   30.9670 O   0  0  0  0  0  0  0  0  0  0  0  0
   38.3040   27.3910   31.9920 C   0  0  0  0  0  0  0  0  0  0  0  0
   39.2680   26.3960   32.1630 C   0  0  0  0  0  0  0  0  0  0  0  0
   40.1220   26.1780   31.5630 H   0  0  0  0  0  0  0  0  0  0  0  0
   38.6760   25.5400   33.7170 S   0  0  0  0  0  0  0  0  0  0  0  0
   37.2030   26.7390   33.8240 C   0  0  0  0  0  0  0  0  0  0  0  0
   36.5040   26.6170   34.6540 H   0  0  0  0  0  0  0  0  0  0  0  0
   37.3550   27.4120   32.9110 N   0  0  0  0  0  0  0  0  0  0  0  0
  2  1  1  0  0  0  0
  2  3  1  0  0  0  0
  3 12  1  0  0  0  0
  4  3  2  0  0  0  0
  4  8  1  0  0  0  0
  5  4  1  0  0  0  0
  6  7  1  0  0  0  0
  6  5  2  0  0  0  0
  7  2  2  0  0  0  0
  9  5  1  0  0  0  0
 10  6  1  0  0  0  0
 11 16  1  0  0  0  0
 12 11  2  0  0  0  0
 12 13  1  0  0  0  0
 13 14  2  0  0  0  0
 14 15  1  0  0  0  0
 15 19  1  0  0  0  0
 16 15  2  0  0  0  0
 17 11  1  0  0  0  0
 18 13  1  0  0  0  0
 20  7  1  0  0  0  0
 21 20  1  0  0  0  0
 22 25  1  0  0  0  0
 22 20  1  0  0  0  0
 22 27  1  0  0  0  0
 23 22  1  0  0  0  0
 24 23  1  0  0  0  0
 26 25  1  0  0  0  0
 27 28  1  0  0  0  0
 28 29  2  0  0  0  0
 28 34  1  0  0  0  0
 29 31  1  0  0  0  0
 30 29  1  0  0  0  0
 31 32  1  0  0  0  0
 32 33  1  0  0  0  0
 34 32  2  0  0  0  0
M  END
>  <minimizedAffinity>
-5.08766174

$$$$

 OpenBabel03262521063D

 34 36  0  0  0  0  0  0  0  0999 V2000
   37.5110   24.6430   32.9850 Br  0  0  0  0  0  0  0  0  0  0  0  0
   39.0090   25.7720   33.1650 C   0  0  0  0  0  0  0  0  0  0  0  0
   39.6610   25.6950   34.3540 C   0  0  0  0  0  0  0  0  0  0  0  0
   40.7890   26.5040   34.5710 C   0  0  0  0  0  0  0  0  0  0  0  0
   41.2140   27.3640   33.5670 C   0  0  0  0  0  0  0  0  0  0  0  0
   40.5110   27.3820   32.4070 C   0  0  0  0  0  0  0  0  0  0  0  0
   39.4030   26.6010   32.1690 C   0  0  0  0  0  0  0  0  0  0  0  0
   41.3590   26.4980   35.4910 H   0  0  0  0  0  0  0  0  0  0  0  0
   42.0930   27.9910   33.7390 H   0  0  0  0  0  0  0  0  0  0  0  0
   40.8460   28.0540   31.6260 H   0  0  0  0  0  0  0  0  0  0  0  0
   39.9550   23.6280   35.7790 C   0  0  0  0  0  0  0  0  0  0  0  0
   39.3420   24.8440   35.5100 C   0  0  0  0  0  0  0  0  0  0  0  0
   38.3380   25.2990   36.4120 C   0  0  0  0  0  0  0  0  0  0  0  0
   38.0560   24.4850   37.4870 N   0  0  0  0  0  0  0  0  0  0  0  0
   38.6780   23.3290   37.6950 C   0  0  0  0  0  0  0  0  0  0  0  0
   39.6190   22.9000   36.8520 N   0  0  0  0  0  0  0  0  0  0  0  0
   40.7100   23.3530   35.0440 H   0  0  0  0  0  0  0  0  0  0  0  0
   37.8380   26.2360   36.2390 H   0  0  0  0  0  0  0  0  0  0  0  0
   38.4320   22.7130   38.5490 H   0  0  0  0  0  0  0  0  0  0  0  0
   38.6560   26.6090   30.9600 N   0  0  0  0  0  0  0  0  0  0  0  0
   38.9050   25.7720   30.3520 H   0  0  0  0  0  0  0  0  0  0  0  0
   37.4890   27.6530   30.3240 S   0  0  0  0  0  0  0  0  0  0  0  0
   36.1570   26.9710   30.2000 O   0  0  0  0  0  0  0  0  0  0  0  0
   35.6950   26.4150   30.8580 H   0  0  0  0  0  0  0  0  0  0  0  0
   37.9020   28.0800   28.9240 O   0  0  0  0  0  0  0  0  0  0  0  0
   37.6140   27.5820   28.1350 H   0  0  0  0  0  0  0  0  0  0  0  0
   37.3560   28.9980   31.3250 O   0  0  0  0  0  0  0  0  0  0  0  0
   36.0920   29.5170   31.5780 C   0  0  0  0  0  0  0  0  0  0  0  0
   35.5420   30.6630   31.0020 C   0  0  0  0  0  0  0  0  0  0  0  0
   35.9710   31.3290   30.2880 H   0  0  0  0  0  0  0  0  0  0  0  0
   33.8540   30.7340   31.8030 S   0  0  0  0  0  0  0  0  0  0  0  0
   34.2460   29.1510   32.7830 C   0  0  0  0  0  0  0  0  0  0  0  0
   33.4800   28.7650   33.4590 H   0  0  0  0  0  0  0  0  0  0  0  0
   35.3070   28.8940   32.4390 N   0  0  0  0  0  0  0  0  0  0  0  0
  1  2  1  0  0  0  0
  2  3  1  0  0  0  0
  3  4  2  0  0  0  0
  3 12  1  0  0  0  0
  4  8  1  0  0  0  0
  5  9  1  0  0  0  0
  5  4  1  0  0  0  0
  6  5  2  0  0  0  0
  7  6  1  0  0  0  0
  7  2  2  0  0  0  0
 10  6  1  0  0  0  0
 11 16  1  0  0  0  0
 12 11  2  0  0  0  0
 12 13  1  0  0  0  0
 13 14  2  0  0  0  0
 14 15  1  0  0  0  0
 15 19  1  0  0  0  0
 16 15  2  0  0  0  0
 17 11  1  0  0  0  0
 18 13  1  0  0  0  0
 20  7  1  0  0  0  0
 21 20  1  0  0  0  0
 22 20  1  0  0  0  0
 22 27  1  0  0  0  0
 23 22  1  0  0  0  0
 23 24  1  0  0  0  0
 25 22  1  0  0  0  0
 26 25  1  0  0  0  0
 27 28  1  0  0  0  0
 28 34  1  0  0  0  0
 29 28  2  0  0  0  0
 29 31  1  0  0  0  0
 30 29  1  0  0  0  0
 31 32  1  0  0  0  0
 32 33  1  0  0  0  0
 34 32  2  0  0  0  0
M  END
>  <minimizedAffinity>
-5.02323675

$$$$

 OpenBabel03262521063D

 34 36  0  0  0  0  0  0  0  0999 V2000
   36.4130   25.6900   31.8090 Br  0  0  0  0  0  0  0  0  0  0  0  0
   37.1900   26.2240   33.4410 C   0  0  0  0  0  0  0  0  0  0  0  0
   36.9640   27.5140   33.8020 C   0  0  0  0  0  0  0  0  0  0  0  0
   37.5090   27.9940   35.0050 C   0  0  0  0  0  0  0  0  0  0  0  0
   38.2650   27.1410   35.7990 C   0  0  0  0  0  0  0  0  0  0  0  0
   38.4440   25.8670   35.3690 C   0  0  0  0  0  0  0  0  0  0  0  0
   37.9230   25.3720   34.1960 C   0  0  0  0  0  0  0  0  0  0  0  0
   37.3730   29.0070   35.3600 H   0  0  0  0  0  0  0  0  0  0  0  0
   38.6870   27.5170   36.7350 H   0  0  0  0  0  0  0  0  0  0  0  0
   39.0350   25.2040   35.9910 H   0  0  0  0  0  0  0  0  0  0  0  0
   36.5490   29.0560   31.8430 C   0  0  0  0  0  0  0  0  0  0  0  0
   36.1930   28.5370   33.0810 C   0  0  0  0  0  0  0  0  0  0  0  0
   35.0040   29.0270   33.6930 C   0  0  0  0  0  0  0  0  0  0  0  0
   34.2990   29.9850   32.9990 N   0  0  0  0  0  0  0  0  0  0  0  0
   34.6880   30.4440   31.8140 C   0  0  0  0  0  0  0  0  0  0  0  0
   35.8020   29.9870   31.2370 N   0  0  0  0  0  0  0  0  0  0  0  0
   37.4680   28.6300   31.4450 H   0  0  0  0  0  0  0  0  0  0  0  0
   34.6930   28.6510   34.6520 H   0  0  0  0  0  0  0  0  0  0  0  0
   34.1110   31.1970   31.2950 H   0  0  0  0  0  0  0  0  0  0  0  0
   38.1020   24.0400   33.7330 N   0  0  0  0  0  0  0  0  0  0  0  0
   38.3610   24.0270   32.7010 H   0  0  0  0  0  0  0  0  0  0  0  0
   37.9910   22.5270   34.4770 S   0  0  0  0  0  0  0  0  0  0  0  0
   36.9360   21.6770   33.8310 O   0  0  0  0  0  0  0  0  0  0  0  0
   36.7770   21.5240   32.8780 H   0  0  0  0  0  0  0  0  0  0  0  0
   37.5860   22.7090   35.9320 O   0  0  0  0  0  0  0  0  0  0  0  0
   36.6490   22.7010   36.2030 H   0  0  0  0  0  0  0  0  0  0  0  0
   39.4860   21.7610   34.3820 O   0  0  0  0  0  0  0  0  0  0  0  0
   40.5000   22.1740   35.2370 C   0  0  0  0  0  0  0  0  0  0  0  0
   41.6270   22.9160   34.8780 C   0  0  0  0  0  0  0  0  0  0  0  0
   41.9090   23.2890   33.9200 H   0  0  0  0  0  0  0  0  0  0  0  0
   42.5200   23.0880   36.5130 S   0  0  0  0  0  0  0  0  0  0  0  0
   41.1460   22.0930   37.3740 C   0  0  0  0  0  0  0  0  0  0  0  0
   41.2390   21.9160   38.4480 H   0  0  0  0  0  0  0  0  0  0  0  0
   40.4270   21.8550   36.5160 N   0  0  0  0  0  0  0  0  0  0  0  0
  1  2  1  0  0  0  0
  2  3  2  0  0  0  0
  2  7  1  0  0  0  0
  3  4  1  0  0  0  0
  4  8  1  0  0  0  0
  4  5  2  0  0  0  0
  5  9  1  0  0  0  0
  6  5  1  0  0  0  0
  6 10  1  0  0  0  0
  7  6  2  0  0  0  0
 11 12  1  0  0  0  0
 12 13  2  0  0  0  0
 12  3  1  0  0  0  0
 13 18  1  0  0  0  0
 14 13  1  0  0  0  0
 15 14  2  0  0  0  0
 16 15  1  0  0  0  0
 16 11  2  0  0  0  0
 17 11  1  0  0  0  0
 19 15  1  0  0  0  0
 20  7  1  0  0  0  0
 20 22  1  0  0  0  0
 21 20  1  0  0  0  0
 22 25  1  0  0  0  0
 23 22  1  0  0  0  0
 24 23  1  0  0  0  0
 25 26  1  0  0  0  0
 27 22  1  0  0  0  0
 27 28  1  0  0  0  0
 28 34  1  0  0  0  0
 29 28  2  0  0  0  0
 29 31  1  0  0  0  0
 30 29  1  0  0  0  0
 31 32  1  0  0  0  0
 32 33  1  0  0  0  0
 34 32  2  0  0  0  0
M  END
>  <minimizedAffinity>
-4.88210535

$$$$

 OpenBabel03262521063D

 34 36  0  0  0  0  0  0  0  0999 V2000
   36.5920   27.9110   34.5090 Br  0  0  0  0  0  0  0  0  0  0  0  0
   36.2940   28.9660   32.9760 C   0  0  0  0  0  0  0  0  0  0  0  0
   35.6510   30.1430   33.1910 C   0  0  0  0  0  0  0  0  0  0  0  0
   35.3890   30.9890   32.1010 C   0  0  0  0  0  0  0  0  0  0  0  0
   35.7930   30.6070   30.8280 C   0  0  0  0  0  0  0  0  0  0  0  0
   36.4310   29.4170   30.6970 C   0  0  0  0  0  0  0  0  0  0  0  0
   36.7000   28.5690   31.7460 C   0  0  0  0  0  0  0  0  0  0  0  0
   34.8810   31.9410   32.1920 H   0  0  0  0  0  0  0  0  0  0  0  0
   35.5880   31.2680   29.9830 H   0  0  0  0  0  0  0  0  0  0  0  0
   36.7450   29.1220   29.7020 H   0  0  0  0  0  0  0  0  0  0  0  0
   35.9310   31.4440   35.3400 C   0  0  0  0  0  0  0  0  0  0  0  0
   35.1610   30.6900   34.4650 C   0  0  0  0  0  0  0  0  0  0  0  0
   33.8070   30.4280   34.8230 C   0  0  0  0  0  0  0  0  0  0  0  0
   33.3710   30.9500   36.0210 N   0  0  0  0  0  0  0  0  0  0  0  0
   34.1550   31.6670   36.8190 C   0  0  0  0  0  0  0  0  0  0  0  0
   35.4240   31.9150   36.4860 N   0  0  0  0  0  0  0  0  0  0  0  0
   36.9510   31.5980   34.9930 H   0  0  0  0  0  0  0  0  0  0  0  0
   33.1770   29.8470   34.1730 H   0  0  0  0  0  0  0  0  0  0  0  0
   33.7820   32.0630   37.7530 H   0  0  0  0  0  0  0  0  0  0  0  0
   37.3670   27.3200   31.6240 N   0  0  0  0  0  0  0  0  0  0  0  0
   38.3910   27.4070   31.8970 H   0  0  0  0  0  0  0  0  0  0  0  0
   36.8650   25.7790   31.1470 S   0  0  0  0  0  0  0  0  0  0  0  0
   37.8550   25.1480   30.2100 O   0  0  0  0  0  0  0  0  0  0  0  0
   38.8280   25.1040   30.2930 H   0  0  0  0  0  0  0  0  0  0  0  0
   35.5480   25.8870   30.3930 O   0  0  0  0  0  0  0  0  0  0  0  0
   35.5240   25.9890   29.4240 H   0  0  0  0  0  0  0  0  0  0  0  0
   36.6740   24.8190   32.5140 O   0  0  0  0  0  0  0  0  0  0  0  0
   37.8100   24.3100   33.1330 C   0  0  0  0  0  0  0  0  0  0  0  0
   37.9460   23.0350   33.6840 C   0  0  0  0  0  0  0  0  0  0  0  0
   37.2340   22.2430   33.7290 H   0  0  0  0  0  0  0  0  0  0  0  0
   39.7040   23.0680   34.3210 S   0  0  0  0  0  0  0  0  0  0  0  0
   39.9030   24.8540   33.6950 C   0  0  0  0  0  0  0  0  0  0  0  0
   40.8640   25.3480   33.8570 H   0  0  0  0  0  0  0  0  0  0  0  0
   38.8810   25.0760   33.2300 N   0  0  0  0  0  0  0  0  0  0  0  0
  2  3  1  0  0  0  0
  2  1  1  0  0  0  0
  3 12  1  0  0  0  0
  4  8  1  0  0  0  0
  4  3  2  0  0  0  0
  5  4  1  0  0  0  0
  6  5  2  0  0  0  0
  6  7  1  0  0  0  0
  7  2  2  0  0  0  0
  9  5  1  0  0  0  0
 10  6  1  0  0  0  0
 11 16  1  0  0  0  0
 12 13  1  0  0  0  0
 12 11  2  0  0  0  0
 13 14  2  0  0  0  0
 14 15  1  0  0  0  0
 15 19  1  0  0  0  0
 16 15  2  0  0  0  0
 17 11  1  0  0  0  0
 18 13  1  0  0  0  0
 20  7  1  0  0  0  0
 20 21  1  0  0  0  0
 22 20  1  0  0  0  0
 22 27  1  0  0  0  0
 23 24  1  0  0  0  0
 23 22  1  0  0  0  0
 25 22  1  0  0  0  0
 26 25  1  0  0  0  0
 27 28  1  0  0  0  0
 28 34  1  0  0  0  0
 28 29  2  0  0  0  0
 29 30  1  0  0  0  0
 29 31  1  0  0  0  0
 32 33  1  0  0  0  0
 32 31  1  0  0  0  0
 34 32  2  0  0  0  0
M  END
>  <minimizedAffinity>
-4.87831688

$$$$
