
 OpenBabel03272500083D

 37 40  0  0  0  0  0  0  0  0999 V2000
   35.4010   28.7900   49.1930 C   0  0  0  0  0  0  0  0  0  0  0  0
   35.3200   29.9730   48.4210 C   0  0  0  0  0  0  0  0  0  0  0  0
   34.2160   30.1150   47.5640 C   0  0  0  0  0  0  0  0  0  0  0  0
   33.2920   29.1220   47.5190 N   0  0  0  0  0  0  0  0  0  0  0  0
   33.4110   28.0060   48.2760 C   0  0  0  0  0  0  0  0  0  0  0  0
   34.4680   27.8300   49.1210 N   0  0  0  0  0  0  0  0  0  0  0  0
   36.2500   28.6700   49.8590 H   0  0  0  0  0  0  0  0  0  0  0  0
   34.1490   31.0100   46.9760 H   0  0  0  0  0  0  0  0  0  0  0  0
   36.3470   30.9340   48.5540 N   0  0  0  0  0  0  0  0  0  0  0  0
   36.5470   31.6050   49.6830 C   0  0  0  0  0  0  0  0  0  0  0  0
   37.5850   32.5400   49.7420 C   0  0  0  0  0  0  0  0  0  0  0  0
   38.3140   32.6820   48.6090 C   0  0  0  0  0  0  0  0  0  0  0  0
   39.2610   33.5330   48.6570 O   0  0  0  0  0  0  0  0  0  0  0  0
   38.1450   32.0300   47.4640 N   0  0  0  0  0  0  0  0  0  0  0  0
   37.1300   31.1330   47.4460 C   0  0  0  0  0  0  0  0  0  0  0  0
   36.9490   30.4970   46.3590 O   0  0  0  0  0  0  0  0  0  0  0  0
   35.8940   31.3990   50.5180 H   0  0  0  0  0  0  0  0  0  0  0  0
   37.7510   33.0890   50.6580 H   0  0  0  0  0  0  0  0  0  0  0  0
   38.7280   32.1650   46.6070 H   0  0  0  0  0  0  0  0  0  0  0  0
   32.4500   26.9760   48.2220 O   0  0  0  0  0  0  0  0  0  0  0  0
   31.1270   27.3840   48.3230 C   0  0  0  0  0  0  0  0  0  0  0  0
   30.7550   27.7680   49.6030 C   0  0  0  0  0  0  0  0  0  0  0  0
   29.4920   28.2050   49.9060 C   0  0  0  0  0  0  0  0  0  0  0  0
   28.5640   28.2580   48.8800 C   0  0  0  0  0  0  0  0  0  0  0  0
   28.9370   27.8780   47.6180 C   0  0  0  0  0  0  0  0  0  0  0  0
   30.2120   27.4330   47.2990 C   0  0  0  0  0  0  0  0  0  0  0  0
   31.4340   27.7490   50.4460 H   0  0  0  0  0  0  0  0  0  0  0  0
   29.2020   28.5040   50.9010 H   0  0  0  0  0  0  0  0  0  0  0  0
   27.5690   28.5910   49.0600 H   0  0  0  0  0  0  0  0  0  0  0  0
   28.1900   27.9290   46.8300 H   0  0  0  0  0  0  0  0  0  0  0  0
   30.5760   27.0380   45.9390 C   0  0  0  0  0  0  0  0  0  0  0  0
   30.9700   27.9450   44.9650 C   0  0  0  0  0  0  0  0  0  0  0  0
   31.1070   29.0070   44.8850 H   0  0  0  0  0  0  0  0  0  0  0  0
   31.3250   26.8680   43.5110 S   0  0  0  0  0  0  0  0  0  0  0  0
   30.8600   25.3170   44.5190 C   0  0  0  0  0  0  0  0  0  0  0  0
   30.8910   24.3220   44.1180 H   0  0  0  0  0  0  0  0  0  0  0  0
   30.5740   25.7770   45.5640 N   0  0  0  0  0  0  0  0  0  0  0  0
  1  7  1  0  0  0  0
  2  9  1  0  0  0  0
  2  1  2  0  0  0  0
  3  2  1  0  0  0  0
  4  3  2  0  0  0  0
  4  5  1  0  0  0  0
  5  6  2  0  0  0  0
  6  1  1  0  0  0  0
  8  3  1  0  0  0  0
  9 10  1  0  0  0  0
 10 11  2  0  0  0  0
 10 17  1  0  0  0  0
 11 18  1  0  0  0  0
 12 13  2  0  0  0  0
 12 11  1  0  0  0  0
 14 12  1  0  0  0  0
 15 14  1  0  0  0  0
 15  9  1  0  0  0  0
 16 15  2  0  0  0  0
 19 14  1  0  0  0  0
 20  5  1  0  0  0  0
 20 21  1  0  0  0  0
 21 22  1  0  0  0  0
 22 23  2  0  0  0  0
 22 27  1  0  0  0  0
 23 28  1  0  0  0  0
 24 29  1  0  0  0  0
 24 23  1  0  0  0  0
 25 24  2  0  0  0  0
 26 25  1  0  0  0  0
 26 21  2  0  0  0  0
 30 25  1  0  0  0  0
 31 26  1  0  0  0  0
 32 31  2  0  0  0  0
 33 32  1  0  0  0  0
 34 35  1  0  0  0  0
 34 32  1  0  0  0  0
 35 37  2  0  0  0  0
 36 35  1  0  0  0  0
 37 31  1  0  0  0  0
M  END
>  <minimizedAffinity>
-5.74253368

>  <minimizedRMSD>
0.615128994

$$$$
