
 OpenBabel03262521463D

 28 29  0  0  0  0  0  0  0  0999 V2000
   36.9640   29.2550   50.6270 C   0  0  0  0  0  0  0  0  0  0  0  0
   37.4910   28.3430   50.9790 H   0  0  0  0  0  0  0  0  0  0  0  0
   36.7700   29.1050   49.5330 H   0  0  0  0  0  0  0  0  0  0  0  0
   37.7380   30.5140   50.8300 C   0  0  0  0  0  0  0  0  0  0  0  0
   37.2480   31.1970   51.5640 H   0  0  0  0  0  0  0  0  0  0  0  0
   38.7020   30.2140   51.3360 H   0  0  0  0  0  0  0  0  0  0  0  0
   38.1160   31.2050   49.6080 C   0  0  0  0  0  0  0  0  0  0  0  0
   38.5380   32.5180   49.5900 C   0  0  0  0  0  0  0  0  0  0  0  0
   38.8810   33.1000   48.3600 C   0  0  0  0  0  0  0  0  0  0  0  0
   38.7750   32.3180   47.2350 N   0  0  0  0  0  0  0  0  0  0  0  0
   38.3560   31.0290   47.2920 C   0  0  0  0  0  0  0  0  0  0  0  0
   38.0280   30.4890   48.4990 N   0  0  0  0  0  0  0  0  0  0  0  0
   38.6060   33.0960   50.5000 H   0  0  0  0  0  0  0  0  0  0  0  0
   39.2190   34.1270   48.2870 H   0  0  0  0  0  0  0  0  0  0  0  0
   38.2930   30.4630   46.3630 H   0  0  0  0  0  0  0  0  0  0  0  0
   35.7190   29.4060   51.2470 O   0  0  0  0  0  0  0  0  0  0  0  0
   34.6980   30.5420   49.1420 O   0  0  0  0  0  0  0  0  0  0  0  0
   34.4670   29.3840   50.1240 P   0  0  2  0  0  0  0  0  0  0  0  0
   32.9840   29.6940   50.8410 O   0  0  0  0  0  0  0  0  0  0  0  0
   32.8270   29.2340   51.6860 H   0  0  0  0  0  0  0  0  0  0  0  0
   34.3870   27.9200   49.3170 O   0  0  0  0  0  0  0  0  0  0  0  0
   33.4540   27.7610   48.2710 C   0  0  0  0  0  0  0  0  0  0  0  0
   33.7740   27.5650   46.8870 C   0  0  0  0  0  0  0  0  0  0  0  0
   34.7420   27.5320   46.5970 H   0  0  0  0  0  0  0  0  0  0  0  0
   32.1230   27.4470   46.1760 S   0  0  0  0  0  0  0  0  0  0  0  0
   31.2610   27.6840   47.8760 C   0  0  0  0  0  0  0  0  0  0  0  0
   30.1500   27.6970   48.0430 H   0  0  0  0  0  0  0  0  0  0  0  0
   32.2480   27.8270   48.8060 N   0  0  0  0  0  0  0  0  0  0  0  0
  1  4  1  0  0  0  0
  1  2  1  0  0  0  0
  1 16  1  0  0  0  0
  3  1  1  0  0  0  0
  4  6  1  0  0  0  0
  4  5  1  0  0  0  0
  7  4  1  0  0  0  0
  8  7  1  0  0  0  0
  8 13  1  0  0  0  0
  9  8  2  0  0  0  0
 10 11  2  0  0  0  0
 10  9  1  0  0  0  0
 11 12  1  0  0  0  0
 12  7  2  0  0  0  0
 14  9  1  0  0  0  0
 15 11  1  0  0  0  0
 18 17  2  6  0  0  0
 18 19  1  0  0  0  0
 18 16  1  0  0  0  0
 19 20  1  0  0  0  0
 21 18  1  0  0  0  0
 22 28  1  0  0  0  0
 22 21  1  0  0  0  0
 23 22  2  0  0  0  0
 24 23  1  0  0  0  0
 25 23  1  0  0  0  0
 25 26  1  0  0  0  0
 26 27  1  0  0  0  0
 26 28  2  0  0  0  0
M  END
>  <minimizedAffinity>
-5.06265354

>  <minimizedRMSD>
0.72198087

$$$$
