
 OpenBabel03272510243D

 30 33  0  0  0  0  0  0  0  0999 V2000
   36.1300   30.1490   46.8370 C   0  0  0  0  0  0  0  0  0  0  0  0
   37.0030   30.7180   47.7420 C   0  0  0  0  0  0  0  0  0  0  0  0
   37.9640   31.6010   47.3070 C   0  0  0  0  0  0  0  0  0  0  0  0
   37.9980   31.8790   45.9390 C   0  0  0  0  0  0  0  0  0  0  0  0
   38.8650   32.7230   45.2900 N   0  0  0  0  0  0  0  0  0  0  0  0
   38.5280   32.6730   44.0050 C   0  0  0  0  0  0  0  0  0  0  0  0
   37.4980   31.8460   43.8060 N   0  0  0  0  0  0  0  0  0  0  0  0
   37.1360   31.3250   45.0040 C   0  0  0  0  0  0  0  0  0  0  0  0
   36.1810   30.4390   45.4830 C   0  0  0  0  0  0  0  0  0  0  0  0
   35.3550   29.4480   47.1300 H   0  0  0  0  0  0  0  0  0  0  0  0
   38.6530   32.0560   47.9810 H   0  0  0  0  0  0  0  0  0  0  0  0
   39.6420   33.2960   45.7200 H   0  0  0  0  0  0  0  0  0  0  0  0
   35.5190   30.0160   44.7530 H   0  0  0  0  0  0  0  0  0  0  0  0
   37.5580   30.2270   51.4250 C   0  0  0  0  0  0  0  0  0  0  0  0
   37.8140   30.6360   50.1200 C   0  0  0  0  0  0  0  0  0  0  0  0
   36.8700   30.3520   49.1400 C   0  0  0  0  0  0  0  0  0  0  0  0
   35.7280   29.6790   49.5090 N   0  0  0  0  0  0  0  0  0  0  0  0
   35.5110   29.2950   50.7900 C   0  0  0  0  0  0  0  0  0  0  0  0
   36.4130   29.5650   51.7330 N   0  0  0  0  0  0  0  0  0  0  0  0
   38.3620   30.5040   52.0920 H   0  0  0  0  0  0  0  0  0  0  0  0
   38.6920   31.1620   49.7960 H   0  0  0  0  0  0  0  0  0  0  0  0
   34.6050   28.7730   51.0310 H   0  0  0  0  0  0  0  0  0  0  0  0
   39.1910   33.4050   43.0240 O   0  0  0  0  0  0  0  0  0  0  0  0
   39.0520   33.0760   41.6820 C   0  0  0  0  0  0  0  0  0  0  0  0
   38.3130   34.0090   40.8730 C   0  0  0  0  0  0  0  0  0  0  0  0
   37.8450   34.9290   41.1400 H   0  0  0  0  0  0  0  0  0  0  0  0
   38.3830   33.1710   39.1780 S   0  0  0  0  0  0  0  0  0  0  0  0
   39.3910   31.7460   39.9240 C   0  0  0  0  0  0  0  0  0  0  0  0
   39.8740   30.7430   39.5240 H   0  0  0  0  0  0  0  0  0  0  0  0
   39.5080   32.0090   41.0200 N   0  0  0  0  0  0  0  0  0  0  0  0
  1 10  1  0  0  0  0
  1  2  1  0  0  0  0
  2 16  1  0  0  0  0
  3  2  2  0  0  0  0
  3 11  1  0  0  0  0
  4  3  1  0  0  0  0
  5 12  1  0  0  0  0
  5  4  1  0  0  0  0
  6  5  1  0  0  0  0
  7  6  2  0  0  0  0
  7  8  1  0  0  0  0
  8  9  1  0  0  0  0
  8  4  2  0  0  0  0
  9  1  2  0  0  0  0
 13  9  1  0  0  0  0
 14 19  1  0  0  0  0
 14 20  1  0  0  0  0
 15 14  2  0  0  0  0
 16 17  2  0  0  0  0
 16 15  1  0  0  0  0
 17 18  1  0  0  0  0
 18 22  1  0  0  0  0
 18 19  2  0  0  0  0
 21 15  1  0  0  0  0
 23  6  1  0  0  0  0
 24 23  1  0  0  0  0
 25 26  1  0  0  0  0
 25 24  2  0  0  0  0
 27 28  1  0  0  0  0
 27 25  1  0  0  0  0
 28 30  2  0  0  0  0
 29 28  1  0  0  0  0
 30 24  1  0  0  0  0
M  END
>  <minimizedAffinity>
-5.43785143

>  <minimizedRMSD>
1.4861722

$$$$
