
 OpenBabel03272509543D

 41 44  0  0  0  0  0  0  0  0999 V2000
   34.3910   28.7190   48.0850 C   0  0  0  0  0  0  0  0  0  0  0  0
   35.2680   28.8270   47.4090 H   0  0  0  0  0  0  0  0  0  0  0  0
   33.8860   29.7040   48.1290 H   0  0  0  0  0  0  0  0  0  0  0  0
   33.5150   27.6150   47.5940 C   0  0  0  0  0  0  0  0  0  0  0  0
   33.7700   26.6420   48.0320 H   0  0  0  0  0  0  0  0  0  0  0  0
   33.6580   27.4930   46.4810 H   0  0  0  0  0  0  0  0  0  0  0  0
   32.0720   27.8880   47.7640 C   0  0  0  0  0  0  0  0  0  0  0  0
   31.4510   27.4030   48.9050 C   0  0  0  0  0  0  0  0  0  0  0  0
   30.1270   27.5900   49.1740 C   0  0  0  0  0  0  0  0  0  0  0  0
   29.3950   28.2720   48.2950 N   0  0  0  0  0  0  0  0  0  0  0  0
   29.9910   28.7520   47.1740 C   0  0  0  0  0  0  0  0  0  0  0  0
   31.3060   28.5770   46.8870 N   0  0  0  0  0  0  0  0  0  0  0  0
   32.0450   26.8420   49.6320 H   0  0  0  0  0  0  0  0  0  0  0  0
   29.6690   27.1990   50.0750 H   0  0  0  0  0  0  0  0  0  0  0  0
   29.1620   29.5060   46.2090 C   0  0  0  0  0  0  0  0  0  0  0  0
   27.7050   29.4190   46.1220 C   0  0  0  0  0  0  0  0  0  0  0  0
   27.2090   28.7840   46.7820 H   0  0  0  0  0  0  0  0  0  0  0  0
   27.4740   30.6510   44.6930 S   0  0  0  0  0  0  0  0  0  0  0  0
   29.3240   30.9830   44.5510 C   0  0  0  0  0  0  0  0  0  0  0  0
   29.6230   31.6940   43.7820 H   0  0  0  0  0  0  0  0  0  0  0  0
   29.8660   30.2910   45.4080 N   0  0  0  0  0  0  0  0  0  0  0  0
   34.9560   28.3810   49.3530 O   0  0  0  0  0  0  0  0  0  0  0  0
   37.2860   30.1480   51.4700 C   0  0  0  0  0  0  0  0  0  0  0  0
   38.0370   30.8350   50.4900 C   0  0  0  0  0  0  0  0  0  0  0  0
   37.6920   30.6450   49.1550 C   0  0  0  0  0  0  0  0  0  0  0  0
   36.6390   29.7960   48.9240 N   0  0  0  0  0  0  0  0  0  0  0  0
   35.9430   29.1580   49.8600 C   0  0  0  0  0  0  0  0  0  0  0  0
   36.2810   29.3430   51.1420 N   0  0  0  0  0  0  0  0  0  0  0  0
   37.5960   30.3310   52.4810 H   0  0  0  0  0  0  0  0  0  0  0  0
   38.8590   31.4970   50.6950 H   0  0  0  0  0  0  0  0  0  0  0  0
   38.9200   33.2540   48.9950 F   0  0  0  0  0  0  0  0  0  0  0  0
   38.9170   32.4750   47.9280 C   0  0  0  0  0  0  0  0  0  0  0  0
   38.3340   31.2530   48.0270 C   0  0  0  0  0  0  0  0  0  0  0  0
   38.3880   30.5140   46.8400 C   0  0  0  0  0  0  0  0  0  0  0  0
   38.9790   30.9930   45.6910 C   0  0  0  0  0  0  0  0  0  0  0  0
   39.5560   32.2400   45.6480 C   0  0  0  0  0  0  0  0  0  0  0  0
   39.5130   32.9770   46.7940 C   0  0  0  0  0  0  0  0  0  0  0  0
   37.9520   29.5160   46.7960 H   0  0  0  0  0  0  0  0  0  0  0  0
   38.9880   30.3660   44.7980 H   0  0  0  0  0  0  0  0  0  0  0  0
   39.9950   32.5490   44.7250 H   0  0  0  0  0  0  0  0  0  0  0  0
   39.9620   33.9610   46.7780 H   0  0  0  0  0  0  0  0  0  0  0  0
  1  3  1  0  0  0  0
  1 22  1  0  0  0  0
  2  1  1  0  0  0  0
  4  7  1  0  0  0  0
  4  5  1  0  0  0  0
  4  1  1  0  0  0  0
  6  4  1  0  0  0  0
  7  8  1  0  0  0  0
  8  9  2  0  0  0  0
  8 13  1  0  0  0  0
  9 14  1  0  0  0  0
 10  9  1  0  0  0  0
 11 10  2  0  0  0  0
 12 11  1  0  0  0  0
 12  7  2  0  0  0  0
 15 11  1  0  0  0  0
 16 15  2  0  0  0  0
 16 17  1  0  0  0  0
 18 16  1  0  0  0  0
 19 18  1  0  0  0  0
 19 21  2  0  0  0  0
 20 19  1  0  0  0  0
 21 15  1  0  0  0  0
 22 27  1  0  0  0  0
 23 29  1  0  0  0  0
 24 30  1  0  0  0  0
 24 23  2  0  0  0  0
 25 24  1  0  0  0  0
 26 25  2  0  0  0  0
 26 27  1  0  0  0  0
 27 28  2  0  0  0  0
 28 23  1  0  0  0  0
 32 33  1  0  0  0  0
 32 31  1  0  0  0  0
 33 25  1  0  0  0  0
 34 33  2  0  0  0  0
 35 34  1  0  0  0  0
 36 35  2  0  0  0  0
 36 37  1  0  0  0  0
 37 32  2  0  0  0  0
 38 34  1  0  0  0  0
 39 35  1  0  0  0  0
 40 36  1  0  0  0  0
 41 37  1  0  0  0  0
M  END
>  <minimizedAffinity>
-6.52158642

>  <minimizedRMSD>
0.371708959

$$$$
