
 OpenBabel03272501593D

 29 31  0  0  0  0  0  0  0  0999 V2000
   38.8750   26.2530   34.4990 C   0  0  0  0  0  0  0  0  0  0  0  0
   39.3150   26.6310   35.4340 H   0  0  0  0  0  0  0  0  0  0  0  0
   39.6270   26.2690   33.6600 H   0  0  0  0  0  0  0  0  0  0  0  0
   37.7740   27.1650   34.0520 C   0  0  0  0  0  0  0  0  0  0  0  0
   37.2620   27.2900   32.7800 C   0  0  0  0  0  0  0  0  0  0  0  0
   36.2570   28.2200   32.7240 C   0  0  0  0  0  0  0  0  0  0  0  0
   36.1740   28.6540   33.9970 N   0  0  0  0  0  0  0  0  0  0  0  0
   37.0640   28.0370   34.7860 N   0  0  0  0  0  0  0  0  0  0  0  0
   37.6100   26.7210   31.9100 H   0  0  0  0  0  0  0  0  0  0  0  0
   35.6400   28.5820   31.9380 H   0  0  0  0  0  0  0  0  0  0  0  0
   35.3130   29.6400   34.6080 C   0  0  0  0  0  0  0  0  0  0  0  0
   33.8070   29.7940   34.5820 C   0  0  0  0  0  0  0  0  0  0  0  0
   33.4370   28.8290   33.8780 H   0  0  0  0  0  0  0  0  0  0  0  0
   33.6150   31.2860   35.6060 S   0  0  0  0  0  0  0  0  0  0  0  0
   35.4810   31.4620   35.8920 C   0  0  0  0  0  0  0  0  0  0  0  0
   35.7120   32.3140   36.5060 H   0  0  0  0  0  0  0  0  0  0  0  0
   35.9860   30.5440   35.2980 N   0  0  0  0  0  0  0  0  0  0  0  0
   38.2770   24.8900   34.5910 C   0  0  0  0  0  0  0  0  0  0  0  0
   38.7180   24.1660   33.8870 H   0  0  0  0  0  0  0  0  0  0  0  0
   37.1620   24.9200   34.4390 H   0  0  0  0  0  0  0  0  0  0  0  0
   37.9610   24.2140   38.2270 C   0  0  0  0  0  0  0  0  0  0  0  0
   38.9680   23.2570   38.4220 C   0  0  0  0  0  0  0  0  0  0  0  0
   39.7410   22.8500   37.3300 C   0  0  0  0  0  0  0  0  0  0  0  0
   39.4850   23.3990   36.1200 N   0  0  0  0  0  0  0  0  0  0  0  0
   38.5030   24.3230   35.9680 C   0  0  0  0  0  0  0  0  0  0  0  0
   37.7700   24.7100   36.9990 N   0  0  0  0  0  0  0  0  0  0  0  0
   37.3080   24.5970   38.9990 H   0  0  0  0  0  0  0  0  0  0  0  0
   39.0900   22.8860   39.4110 H   0  0  0  0  0  0  0  0  0  0  0  0
   40.5170   22.1110   37.4830 H   0  0  0  0  0  0  0  0  0  0  0  0
  1 18  1  0  0  0  0
  1  2  1  0  0  0  0
  3  1  1  0  0  0  0
  4  1  1  0  0  0  0
  4  8  2  0  0  0  0
  5  4  1  0  0  0  0
  6  5  2  0  0  0  0
  6  7  1  0  0  0  0
  7 11  1  0  0  0  0
  7  8  1  0  0  0  0
  9  5  1  0  0  0  0
 10  6  1  0  0  0  0
 11 17  1  0  0  0  0
 12 11  2  0  0  0  0
 12 14  1  0  0  0  0
 13 12  1  0  0  0  0
 14 15  1  0  0  0  0
 15 16  1  0  0  0  0
 17 15  2  0  0  0  0
 18 25  1  0  0  0  0
 19 18  1  0  0  0  0
 20 18  1  0  0  0  0
 21 22  1  0  0  0  0
 21 27  1  0  0  0  0
 22 28  1  0  0  0  0
 23 29  1  0  0  0  0
 23 22  2  0  0  0  0
 24 23  1  0  0  0  0
 25 24  2  0  0  0  0
 25 26  1  0  0  0  0
 26 21  2  0  0  0  0
M  END
>  <minimizedAffinity>
-4.55132484

$$$$

 OpenBabel03272501593D

 29 31  0  0  0  0  0  0  0  0999 V2000
   38.0190   23.4220   33.4380 C   0  0  0  0  0  0  0  0  0  0  0  0
   38.5240   22.6830   32.7990 H   0  0  0  0  0  0  0  0  0  0  0  0
   37.3080   22.9210   34.1550 H   0  0  0  0  0  0  0  0  0  0  0  0
   37.1590   24.3150   32.5980 C   0  0  0  0  0  0  0  0  0  0  0  0
   36.1780   23.9320   31.7110 C   0  0  0  0  0  0  0  0  0  0  0  0
   35.5850   25.0110   31.1090 C   0  0  0  0  0  0  0  0  0  0  0  0
   36.2340   26.0580   31.6560 N   0  0  0  0  0  0  0  0  0  0  0  0
   37.1630   25.6570   32.5340 N   0  0  0  0  0  0  0  0  0  0  0  0
   35.8980   22.8930   31.5030 H   0  0  0  0  0  0  0  0  0  0  0  0
   34.8110   25.1110   30.3880 H   0  0  0  0  0  0  0  0  0  0  0  0
   36.0870   27.4800   31.4440 C   0  0  0  0  0  0  0  0  0  0  0  0
   35.3050   28.5220   32.2150 C   0  0  0  0  0  0  0  0  0  0  0  0
   34.7780   27.8560   33.1340 H   0  0  0  0  0  0  0  0  0  0  0  0
   35.6990   30.0090   31.2420 S   0  0  0  0  0  0  0  0  0  0  0  0
   36.7890   29.0530   30.0200 C   0  0  0  0  0  0  0  0  0  0  0  0
   37.2020   29.6990   29.2660 H   0  0  0  0  0  0  0  0  0  0  0  0
   36.7630   27.9080   30.3920 N   0  0  0  0  0  0  0  0  0  0  0  0
   38.9310   24.3200   34.2050 C   0  0  0  0  0  0  0  0  0  0  0  0
   38.6410   25.3820   34.1620 H   0  0  0  0  0  0  0  0  0  0  0  0
   39.9970   24.2140   33.8600 H   0  0  0  0  0  0  0  0  0  0  0  0
   39.8640   22.8420   37.4790 C   0  0  0  0  0  0  0  0  0  0  0  0
   38.8230   23.3010   38.3000 C   0  0  0  0  0  0  0  0  0  0  0  0
   37.8200   24.1020   37.7440 C   0  0  0  0  0  0  0  0  0  0  0  0
   37.8940   24.4040   36.4270 N   0  0  0  0  0  0  0  0  0  0  0  0
   38.9160   23.9430   35.6630 C   0  0  0  0  0  0  0  0  0  0  0  0
   39.8650   23.1850   36.1860 N   0  0  0  0  0  0  0  0  0  0  0  0
   40.6860   22.2210   37.8050 H   0  0  0  0  0  0  0  0  0  0  0  0
   38.8550   23.0090   39.3210 H   0  0  0  0  0  0  0  0  0  0  0  0
   37.0180   24.4550   38.3790 H   0  0  0  0  0  0  0  0  0  0  0  0
  1  3  1  0  0  0  0
  1 18  1  0  0  0  0
  2  1  1  0  0  0  0
  4  1  1  0  0  0  0
  5  4  1  0  0  0  0
  6  7  1  0  0  0  0
  6  5  2  0  0  0  0
  7  8  1  0  0  0  0
  8  4  2  0  0  0  0
  9  5  1  0  0  0  0
 10  6  1  0  0  0  0
 11  7  1  0  0  0  0
 11 12  2  0  0  0  0
 12 13  1  0  0  0  0
 14 12  1  0  0  0  0
 15 17  2  0  0  0  0
 15 14  1  0  0  0  0
 16 15  1  0  0  0  0
 17 11  1  0  0  0  0
 18 25  1  0  0  0  0
 19 18  1  0  0  0  0
 20 18  1  0  0  0  0
 21 27  1  0  0  0  0
 21 22  1  0  0  0  0
 22 28  1  0  0  0  0
 23 22  2  0  0  0  0
 23 29  1  0  0  0  0
 24 23  1  0  0  0  0
 25 26  1  0  0  0  0
 25 24  2  0  0  0  0
 26 21  2  0  0  0  0
M  END
>  <minimizedAffinity>
-4.50620365

$$$$

 OpenBabel03272501593D

 29 31  0  0  0  0  0  0  0  0999 V2000
   38.5220   22.5360   33.5740 C   0  0  0  0  0  0  0  0  0  0  0  0
   39.4200   23.0750   33.9110 H   0  0  0  0  0  0  0  0  0  0  0  0
   38.7850   21.7330   32.8280 H   0  0  0  0  0  0  0  0  0  0  0  0
   37.6170   23.4720   32.8350 C   0  0  0  0  0  0  0  0  0  0  0  0
   36.5690   23.1370   32.0050 C   0  0  0  0  0  0  0  0  0  0  0  0
   35.9500   24.2460   31.4920 C   0  0  0  0  0  0  0  0  0  0  0  0
   36.6500   25.2620   32.0330 N   0  0  0  0  0  0  0  0  0  0  0  0
   37.6330   24.8150   32.8260 N   0  0  0  0  0  0  0  0  0  0  0  0
   36.2620   22.1090   31.7760 H   0  0  0  0  0  0  0  0  0  0  0  0
   35.1280   24.3830   30.8330 H   0  0  0  0  0  0  0  0  0  0  0  0
   36.5070   26.6930   31.8910 C   0  0  0  0  0  0  0  0  0  0  0  0
   36.4030   27.5620   30.6550 C   0  0  0  0  0  0  0  0  0  0  0  0
   36.4680   26.7320   29.7220 H   0  0  0  0  0  0  0  0  0  0  0  0
   36.2540   29.2040   31.4250 S   0  0  0  0  0  0  0  0  0  0  0  0
   36.3520   28.5080   33.1860 C   0  0  0  0  0  0  0  0  0  0  0  0
   36.2870   29.2850   33.9260 H   0  0  0  0  0  0  0  0  0  0  0  0
   36.4650   27.3160   33.0560 N   0  0  0  0  0  0  0  0  0  0  0  0
   37.7010   21.9360   34.6650 C   0  0  0  0  0  0  0  0  0  0  0  0
   37.7560   20.8360   34.7050 H   0  0  0  0  0  0  0  0  0  0  0  0
   36.6230   22.2490   34.5870 H   0  0  0  0  0  0  0  0  0  0  0  0
   37.7890   23.4350   38.0590 C   0  0  0  0  0  0  0  0  0  0  0  0
   39.1430   23.2870   38.3960 C   0  0  0  0  0  0  0  0  0  0  0  0
   40.0110   22.6840   37.4790 C   0  0  0  0  0  0  0  0  0  0  0  0
   39.5060   22.2660   36.2950 N   0  0  0  0  0  0  0  0  0  0  0  0
   38.1900   22.4260   36.0030 C   0  0  0  0  0  0  0  0  0  0  0  0
   37.3680   22.9950   36.8680 N   0  0  0  0  0  0  0  0  0  0  0  0
   37.0360   23.8840   38.6920 H   0  0  0  0  0  0  0  0  0  0  0  0
   39.4410   23.6470   39.3500 H   0  0  0  0  0  0  0  0  0  0  0  0
   41.0550   22.5700   37.7400 H   0  0  0  0  0  0  0  0  0  0  0  0
  1  2  1  0  0  0  0
  1 18  1  0  0  0  0
  3  1  1  0  0  0  0
  4  1  1  0  0  0  0
  5  4  1  0  0  0  0
  6  5  2  0  0  0  0
  6  7  1  0  0  0  0
  7  8  1  0  0  0  0
  8  4  2  0  0  0  0
  9  5  1  0  0  0  0
 10  6  1  0  0  0  0
 11  7  1  0  0  0  0
 11 17  1  0  0  0  0
 12 14  1  0  0  0  0
 12 11  2  0  0  0  0
 13 12  1  0  0  0  0
 14 15  1  0  0  0  0
 15 16  1  0  0  0  0
 17 15  2  0  0  0  0
 18 19  1  0  0  0  0
 18 25  1  0  0  0  0
 20 18  1  0  0  0  0
 21 22  1  0  0  0  0
 21 27  1  0  0  0  0
 22 28  1  0  0  0  0
 23 29  1  0  0  0  0
 23 22  2  0  0  0  0
 24 23  1  0  0  0  0
 25 24  2  0  0  0  0
 25 26  1  0  0  0  0
 26 21  2  0  0  0  0
M  END
>  <minimizedAffinity>
-4.48760176

$$$$

 OpenBabel03272501593D

 29 31  0  0  0  0  0  0  0  0999 V2000
   38.5210   25.1820   33.6400 C   0  0  0  0  0  0  0  0  0  0  0  0
   38.7590   26.0590   33.0190 H   0  0  0  0  0  0  0  0  0  0  0  0
   39.4310   24.5370   33.7990 H   0  0  0  0  0  0  0  0  0  0  0  0
   37.5440   24.3040   32.9200 C   0  0  0  0  0  0  0  0  0  0  0  0
   36.6160   24.6890   31.9780 C   0  0  0  0  0  0  0  0  0  0  0  0
   35.8810   23.6260   31.5220 C   0  0  0  0  0  0  0  0  0  0  0  0
   36.3890   22.5870   32.2140 N   0  0  0  0  0  0  0  0  0  0  0  0
   37.3690   22.9780   33.0390 N   0  0  0  0  0  0  0  0  0  0  0  0
   36.4730   25.7180   31.6280 H   0  0  0  0  0  0  0  0  0  0  0  0
   35.0950   23.5320   30.8130 H   0  0  0  0  0  0  0  0  0  0  0  0
   36.0490   21.1830   32.2010 C   0  0  0  0  0  0  0  0  0  0  0  0
   35.4540   20.2960   33.2750 C   0  0  0  0  0  0  0  0  0  0  0  0
   35.3050   21.0810   34.2370 H   0  0  0  0  0  0  0  0  0  0  0  0
   35.3800   18.7110   32.3820 S   0  0  0  0  0  0  0  0  0  0  0  0
   36.1200   19.4440   30.7980 C   0  0  0  0  0  0  0  0  0  0  0  0
   36.2120   18.7050   30.0230 H   0  0  0  0  0  0  0  0  0  0  0  0
   36.3170   20.6070   31.0420 N   0  0  0  0  0  0  0  0  0  0  0  0
   37.9070   25.4940   34.9620 C   0  0  0  0  0  0  0  0  0  0  0  0
   36.8150   25.3440   34.9880 H   0  0  0  0  0  0  0  0  0  0  0  0
   38.1420   26.5460   35.2870 H   0  0  0  0  0  0  0  0  0  0  0  0
   38.3710   23.6250   38.1350 C   0  0  0  0  0  0  0  0  0  0  0  0
   39.5630   22.9300   37.8790 C   0  0  0  0  0  0  0  0  0  0  0  0
   40.1960   23.0970   36.6420 C   0  0  0  0  0  0  0  0  0  0  0  0
   39.6300   23.9290   35.7370 N   0  0  0  0  0  0  0  0  0  0  0  0
   38.4760   24.5850   36.0190 C   0  0  0  0  0  0  0  0  0  0  0  0
   37.8760   24.4290   37.1870 N   0  0  0  0  0  0  0  0  0  0  0  0
   37.8020   23.5680   39.0530 H   0  0  0  0  0  0  0  0  0  0  0  0
   39.9260   22.3010   38.6540 H   0  0  0  0  0  0  0  0  0  0  0  0
   41.1150   22.5600   36.4470 H   0  0  0  0  0  0  0  0  0  0  0  0
  1  3  1  0  0  0  0
  1 18  1  0  0  0  0
  2  1  1  0  0  0  0
  4  8  2  0  0  0  0
  4  1  1  0  0  0  0
  5  4  1  0  0  0  0
  6  5  2  0  0  0  0
  6  7  1  0  0  0  0
  7  8  1  0  0  0  0
  9  5  1  0  0  0  0
 10  6  1  0  0  0  0
 11  7  1  0  0  0  0
 11 12  2  0  0  0  0
 12 13  1  0  0  0  0
 14 12  1  0  0  0  0
 15 17  2  0  0  0  0
 15 14  1  0  0  0  0
 16 15  1  0  0  0  0
 17 11  1  0  0  0  0
 18 19  1  0  0  0  0
 18 20  1  0  0  0  0
 18 25  1  0  0  0  0
 21 27  1  0  0  0  0
 22 21  1  0  0  0  0
 22 28  1  0  0  0  0
 23 22  2  0  0  0  0
 24 25  2  0  0  0  0
 24 23  1  0  0  0  0
 25 26  1  0  0  0  0
 26 21  2  0  0  0  0
 29 23  1  0  0  0  0
M  END
>  <minimizedAffinity>
-4.48072004

$$$$

 OpenBabel03272501593D

 29 31  0  0  0  0  0  0  0  0999 V2000
   38.2570   25.6920   34.0970 C   0  0  0  0  0  0  0  0  0  0  0  0
   37.6250   26.0050   34.9400 H   0  0  0  0  0  0  0  0  0  0  0  0
   38.6330   26.5820   33.5170 H   0  0  0  0  0  0  0  0  0  0  0  0
   37.4410   24.9060   33.1160 C   0  0  0  0  0  0  0  0  0  0  0  0
   36.5860   25.4030   32.1580 C   0  0  0  0  0  0  0  0  0  0  0  0
   35.9990   24.4020   31.4290 C   0  0  0  0  0  0  0  0  0  0  0  0
   36.5230   23.2850   31.9720 N   0  0  0  0  0  0  0  0  0  0  0  0
   37.3740   23.5730   32.9650 N   0  0  0  0  0  0  0  0  0  0  0  0
   36.3890   26.4690   31.9920 H   0  0  0  0  0  0  0  0  0  0  0  0
   35.3020   24.3950   30.6270 H   0  0  0  0  0  0  0  0  0  0  0  0
   36.3130   21.8910   31.6580 C   0  0  0  0  0  0  0  0  0  0  0  0
   37.1480   20.9180   30.8530 C   0  0  0  0  0  0  0  0  0  0  0  0
   38.1220   21.6140   30.4930 H   0  0  0  0  0  0  0  0  0  0  0  0
   36.1240   19.4190   30.9920 S   0  0  0  0  0  0  0  0  0  0  0  0
   34.8080   20.2840   32.0470 C   0  0  0  0  0  0  0  0  0  0  0  0
   34.0090   19.6160   32.3140 H   0  0  0  0  0  0  0  0  0  0  0  0
   35.1920   21.4180   32.1770 N   0  0  0  0  0  0  0  0  0  0  0  0
   39.4140   24.8260   34.4650 C   0  0  0  0  0  0  0  0  0  0  0  0
   40.3770   25.3620   34.4870 H   0  0  0  0  0  0  0  0  0  0  0  0
   39.5020   23.9410   33.7740 H   0  0  0  0  0  0  0  0  0  0  0  0
   39.8360   22.8070   37.5500 C   0  0  0  0  0  0  0  0  0  0  0  0
   38.8010   23.3060   38.3550 C   0  0  0  0  0  0  0  0  0  0  0  0
   37.9740   24.3160   37.8510 C   0  0  0  0  0  0  0  0  0  0  0  0
   38.2070   24.7740   36.6000 N   0  0  0  0  0  0  0  0  0  0  0  0
   39.2170   24.2670   35.8490 C   0  0  0  0  0  0  0  0  0  0  0  0
   40.0010   23.3130   36.3220 N   0  0  0  0  0  0  0  0  0  0  0  0
   40.5300   22.0310   37.8400 H   0  0  0  0  0  0  0  0  0  0  0  0
   38.7010   22.8810   39.3240 H   0  0  0  0  0  0  0  0  0  0  0  0
   37.1770   24.7000   38.4740 H   0  0  0  0  0  0  0  0  0  0  0  0
  1 18  1  0  0  0  0
  1  2  1  0  0  0  0
  3  1  1  0  0  0  0
  4  1  1  0  0  0  0
  5  4  1  0  0  0  0
  6  7  1  0  0  0  0
  6  5  2  0  0  0  0
  7  8  1  0  0  0  0
  8  4  2  0  0  0  0
  9  5  1  0  0  0  0
 10  6  1  0  0  0  0
 11  7  1  0  0  0  0
 11 17  1  0  0  0  0
 12 14  1  0  0  0  0
 12 11  2  0  0  0  0
 13 12  1  0  0  0  0
 14 15  1  0  0  0  0
 15 17  2  0  0  0  0
 15 16  1  0  0  0  0
 18 19  1  0  0  0  0
 18 25  1  0  0  0  0
 20 18  1  0  0  0  0
 21 27  1  0  0  0  0
 21 22  1  0  0  0  0
 22 28  1  0  0  0  0
 23 22  2  0  0  0  0
 23 29  1  0  0  0  0
 24 23  1  0  0  0  0
 25 26  1  0  0  0  0
 25 24  2  0  0  0  0
 26 21  2  0  0  0  0
M  END
>  <minimizedAffinity>
-4.47096586

$$$$

 OpenBabel03272501593D

 29 31  0  0  0  0  0  0  0  0999 V2000
   37.5790   26.0610   35.3470 C   0  0  0  0  0  0  0  0  0  0  0  0
   37.6490   26.9680   35.9650 H   0  0  0  0  0  0  0  0  0  0  0  0
   36.5070   25.7390   35.2170 H   0  0  0  0  0  0  0  0  0  0  0  0
   38.2450   24.9170   36.0490 C   0  0  0  0  0  0  0  0  0  0  0  0
   37.8890   24.3620   37.2580 C   0  0  0  0  0  0  0  0  0  0  0  0
   38.7160   23.3260   37.6070 C   0  0  0  0  0  0  0  0  0  0  0  0
   39.5820   23.2700   36.5760 N   0  0  0  0  0  0  0  0  0  0  0  0
   39.3110   24.2030   35.6530 N   0  0  0  0  0  0  0  0  0  0  0  0
   37.0490   24.7010   37.8760 H   0  0  0  0  0  0  0  0  0  0  0  0
   38.7550   22.6730   38.4440 H   0  0  0  0  0  0  0  0  0  0  0  0
   40.7070   22.3960   36.3290 C   0  0  0  0  0  0  0  0  0  0  0  0
   41.4580   22.0830   35.0530 C   0  0  0  0  0  0  0  0  0  0  0  0
   40.8690   22.7830   34.2000 H   0  0  0  0  0  0  0  0  0  0  0  0
   42.6930   20.9040   35.6840 S   0  0  0  0  0  0  0  0  0  0  0  0
   42.0420   21.0070   37.4620 C   0  0  0  0  0  0  0  0  0  0  0  0
   42.6030   20.3780   38.1290 H   0  0  0  0  0  0  0  0  0  0  0  0
   41.1210   21.7830   37.4240 N   0  0  0  0  0  0  0  0  0  0  0  0
   38.2240   26.1600   34.0060 C   0  0  0  0  0  0  0  0  0  0  0  0
   39.0670   25.4630   33.8690 H   0  0  0  0  0  0  0  0  0  0  0  0
   38.5770   27.2090   33.7970 H   0  0  0  0  0  0  0  0  0  0  0  0
   35.6390   26.4830   31.3640 C   0  0  0  0  0  0  0  0  0  0  0  0
   35.4420   25.1430   30.9990 C   0  0  0  0  0  0  0  0  0  0  0  0
   36.1810   24.1460   31.6450 C   0  0  0  0  0  0  0  0  0  0  0  0
   37.0620   24.5170   32.6030 N   0  0  0  0  0  0  0  0  0  0  0  0
   37.2260   25.8240   32.9300 C   0  0  0  0  0  0  0  0  0  0  0  0
   36.5290   26.7680   32.3210 N   0  0  0  0  0  0  0  0  0  0  0  0
   35.1220   27.3280   30.9300 H   0  0  0  0  0  0  0  0  0  0  0  0
   34.7280   24.9540   30.2350 H   0  0  0  0  0  0  0  0  0  0  0  0
   36.0280   23.1130   31.3620 H   0  0  0  0  0  0  0  0  0  0  0  0
  1  2  1  0  0  0  0
  1  4  1  0  0  0  0
  3  1  1  0  0  0  0
  4  5  1  0  0  0  0
  5  6  2  0  0  0  0
  5  9  1  0  0  0  0
  6 10  1  0  0  0  0
  7  6  1  0  0  0  0
  8  4  2  0  0  0  0
  8  7  1  0  0  0  0
 11  7  1  0  0  0  0
 11 17  1  0  0  0  0
 12 14  1  0  0  0  0
 12 11  2  0  0  0  0
 13 12  1  0  0  0  0
 14 15  1  0  0  0  0
 15 16  1  0  0  0  0
 17 15  2  0  0  0  0
 18  1  1  0  0  0  0
 19 18  1  0  0  0  0
 20 18  1  0  0  0  0
 21 26  1  0  0  0  0
 22 21  2  0  0  0  0
 22 23  1  0  0  0  0
 23 24  2  0  0  0  0
 24 25  1  0  0  0  0
 25 18  1  0  0  0  0
 26 25  2  0  0  0  0
 27 21  1  0  0  0  0
 28 22  1  0  0  0  0
 29 23  1  0  0  0  0
M  END
>  <minimizedAffinity>
-4.46333408

$$$$

 OpenBabel03272501593D

 29 31  0  0  0  0  0  0  0  0999 V2000
   38.1870   27.1150   35.4890 C   0  0  0  0  0  0  0  0  0  0  0  0
   37.6490   27.0970   36.4490 H   0  0  0  0  0  0  0  0  0  0  0  0
   39.0480   27.8420   35.5190 H   0  0  0  0  0  0  0  0  0  0  0  0
   37.2820   27.6290   34.4110 C   0  0  0  0  0  0  0  0  0  0  0  0
   37.3660   27.3720   33.0610 C   0  0  0  0  0  0  0  0  0  0  0  0
   36.3730   28.0040   32.3580 C   0  0  0  0  0  0  0  0  0  0  0  0
   35.6860   28.6510   33.3200 N   0  0  0  0  0  0  0  0  0  0  0  0
   36.2140   28.4350   34.5330 N   0  0  0  0  0  0  0  0  0  0  0  0
   38.1310   26.7410   32.5940 H   0  0  0  0  0  0  0  0  0  0  0  0
   36.1200   28.0430   31.3270 H   0  0  0  0  0  0  0  0  0  0  0  0
   34.5220   29.5030   33.2430 C   0  0  0  0  0  0  0  0  0  0  0  0
   34.0140   30.3910   32.1260 C   0  0  0  0  0  0  0  0  0  0  0  0
   34.8640   30.2220   31.2250 H   0  0  0  0  0  0  0  0  0  0  0  0
   32.5160   31.0690   32.9070 S   0  0  0  0  0  0  0  0  0  0  0  0
   32.7910   30.1120   34.5200 C   0  0  0  0  0  0  0  0  0  0  0  0
   32.0170   30.3120   35.2390 H   0  0  0  0  0  0  0  0  0  0  0  0
   33.8030   29.4810   34.3520 N   0  0  0  0  0  0  0  0  0  0  0  0
   38.6840   25.7900   35.0190 C   0  0  0  0  0  0  0  0  0  0  0  0
   39.6960   25.8270   34.5850 H   0  0  0  0  0  0  0  0  0  0  0  0
   37.9790   25.3280   34.2730 H   0  0  0  0  0  0  0  0  0  0  0  0
   39.6600   22.9330   37.1770 C   0  0  0  0  0  0  0  0  0  0  0  0
   38.8530   23.1460   38.3050 C   0  0  0  0  0  0  0  0  0  0  0  0
   37.9910   24.2470   38.3280 C   0  0  0  0  0  0  0  0  0  0  0  0
   37.9690   25.0690   37.2530 N   0  0  0  0  0  0  0  0  0  0  0  0
   38.7640   24.8320   36.1790 C   0  0  0  0  0  0  0  0  0  0  0  0
   39.5800   23.7920   36.1550 N   0  0  0  0  0  0  0  0  0  0  0  0
   40.3590   22.1170   37.0570 H   0  0  0  0  0  0  0  0  0  0  0  0
   38.9450   22.4440   39.0980 H   0  0  0  0  0  0  0  0  0  0  0  0
   37.3700   24.4090   39.1990 H   0  0  0  0  0  0  0  0  0  0  0  0
  1  3  1  0  0  0  0
  1  2  1  0  0  0  0
  4  8  2  0  0  0  0
  4  1  1  0  0  0  0
  5  4  1  0  0  0  0
  6  5  2  0  0  0  0
  6  7  1  0  0  0  0
  7  8  1  0  0  0  0
  9  5  1  0  0  0  0
 10  6  1  0  0  0  0
 11  7  1  0  0  0  0
 11 17  1  0  0  0  0
 12 14  1  0  0  0  0
 12 11  2  0  0  0  0
 13 12  1  0  0  0  0
 14 15  1  0  0  0  0
 15 16  1  0  0  0  0
 17 15  2  0  0  0  0
 18  1  1  0  0  0  0
 18 25  1  0  0  0  0
 19 18  1  0  0  0  0
 20 18  1  0  0  0  0
 21 22  1  0  0  0  0
 22 23  2  0  0  0  0
 22 28  1  0  0  0  0
 23 29  1  0  0  0  0
 24 23  1  0  0  0  0
 25 24  2  0  0  0  0
 26 25  1  0  0  0  0
 26 21  2  0  0  0  0
 27 21  1  0  0  0  0
M  END
>  <minimizedAffinity>
-4.42712545

$$$$

 OpenBabel03272501593D

 29 31  0  0  0  0  0  0  0  0999 V2000
   37.6820   26.6580   35.2080 C   0  0  0  0  0  0  0  0  0  0  0  0
   36.8250   26.7640   35.8900 H   0  0  0  0  0  0  0  0  0  0  0  0
   38.5970   27.1690   35.6230 H   0  0  0  0  0  0  0  0  0  0  0  0
   37.3940   27.3630   33.9190 C   0  0  0  0  0  0  0  0  0  0  0  0
   36.3700   28.2490   33.6650 C   0  0  0  0  0  0  0  0  0  0  0  0
   36.4010   28.7090   32.3740 C   0  0  0  0  0  0  0  0  0  0  0  0
   37.4710   28.0770   31.8530 N   0  0  0  0  0  0  0  0  0  0  0  0
   38.0620   27.2840   32.7560 N   0  0  0  0  0  0  0  0  0  0  0  0
   35.6150   28.5550   34.3990 H   0  0  0  0  0  0  0  0  0  0  0  0
   35.7920   29.3850   31.8260 H   0  0  0  0  0  0  0  0  0  0  0  0
   38.0480   28.1250   30.5300 C   0  0  0  0  0  0  0  0  0  0  0  0
   39.2470   27.4100   29.9440 C   0  0  0  0  0  0  0  0  0  0  0  0
   39.6630   26.7240   30.9030 H   0  0  0  0  0  0  0  0  0  0  0  0
   39.2200   28.0680   28.2470 S   0  0  0  0  0  0  0  0  0  0  0  0
   37.6910   29.1410   28.5710 C   0  0  0  0  0  0  0  0  0  0  0  0
   37.4010   29.6960   27.6970 H   0  0  0  0  0  0  0  0  0  0  0  0
   37.3930   28.9400   29.7200 N   0  0  0  0  0  0  0  0  0  0  0  0
   38.0300   25.2530   34.8470 C   0  0  0  0  0  0  0  0  0  0  0  0
   38.8810   25.1750   34.1510 H   0  0  0  0  0  0  0  0  0  0  0  0
   37.1450   24.7100   34.4100 H   0  0  0  0  0  0  0  0  0  0  0  0
   38.1220   23.9660   38.3260 C   0  0  0  0  0  0  0  0  0  0  0  0
   39.2100   23.0820   38.2690 C   0  0  0  0  0  0  0  0  0  0  0  0
   39.9000   22.9290   37.0610 C   0  0  0  0  0  0  0  0  0  0  0  0
   39.4870   23.6440   35.9900 N   0  0  0  0  0  0  0  0  0  0  0  0
   38.4300   24.4900   36.0820 C   0  0  0  0  0  0  0  0  0  0  0  0
   37.7770   24.6370   37.2220 N   0  0  0  0  0  0  0  0  0  0  0  0
   37.5220   24.1580   39.2050 H   0  0  0  0  0  0  0  0  0  0  0  0
   39.4550   22.5660   39.1650 H   0  0  0  0  0  0  0  0  0  0  0  0
   40.7390   22.2470   37.0200 H   0  0  0  0  0  0  0  0  0  0  0  0
  1  3  1  0  0  0  0
  1  2  1  0  0  0  0
  4  1  1  0  0  0  0
  5  4  1  0  0  0  0
  5  9  1  0  0  0  0
  6  5  2  0  0  0  0
  7  6  1  0  0  0  0
  7  8  1  0  0  0  0
  8  4  2  0  0  0  0
 10  6  1  0  0  0  0
 11  7  1  0  0  0  0
 12 11  2  0  0  0  0
 12 13  1  0  0  0  0
 14 15  1  0  0  0  0
 14 12  1  0  0  0  0
 15 17  2  0  0  0  0
 16 15  1  0  0  0  0
 17 11  1  0  0  0  0
 18  1  1  0  0  0  0
 18 25  1  0  0  0  0
 19 18  1  0  0  0  0
 20 18  1  0  0  0  0
 21 27  1  0  0  0  0
 22 21  1  0  0  0  0
 22 28  1  0  0  0  0
 23 22  2  0  0  0  0
 24 25  2  0  0  0  0
 24 23  1  0  0  0  0
 25 26  1  0  0  0  0
 26 21  2  0  0  0  0
 29 23  1  0  0  0  0
M  END
>  <minimizedAffinity>
-4.41918278

$$$$

 OpenBabel03272501593D

 29 31  0  0  0  0  0  0  0  0999 V2000
   37.6640   25.6700   35.8370 C   0  0  0  0  0  0  0  0  0  0  0  0
   36.6730   25.7980   36.2980 H   0  0  0  0  0  0  0  0  0  0  0  0
   37.5740   25.3130   34.7720 H   0  0  0  0  0  0  0  0  0  0  0  0
   38.4170   24.5880   36.5470 C   0  0  0  0  0  0  0  0  0  0  0  0
   38.2140   24.1390   37.8340 C   0  0  0  0  0  0  0  0  0  0  0  0
   39.0840   23.1330   38.1660 C   0  0  0  0  0  0  0  0  0  0  0  0
   39.8180   22.9850   37.0460 N   0  0  0  0  0  0  0  0  0  0  0  0
   39.4320   23.8380   36.0870 N   0  0  0  0  0  0  0  0  0  0  0  0
   37.4530   24.5340   38.5180 H   0  0  0  0  0  0  0  0  0  0  0  0
   39.2280   22.5540   39.0450 H   0  0  0  0  0  0  0  0  0  0  0  0
   40.9090   22.0890   36.7400 C   0  0  0  0  0  0  0  0  0  0  0  0
   41.7420   21.1970   37.6360 C   0  0  0  0  0  0  0  0  0  0  0  0
   41.2590   21.4080   38.7700 H   0  0  0  0  0  0  0  0  0  0  0  0
   42.8570   20.4510   36.4060 S   0  0  0  0  0  0  0  0  0  0  0  0
   42.0770   21.4000   34.9620 C   0  0  0  0  0  0  0  0  0  0  0  0
   42.5490   21.1610   34.0270 H   0  0  0  0  0  0  0  0  0  0  0  0
   41.2040   22.0710   35.4510 N   0  0  0  0  0  0  0  0  0  0  0  0
   38.5360   26.8790   35.8740 C   0  0  0  0  0  0  0  0  0  0  0  0
   39.2930   26.8530   36.6740 H   0  0  0  0  0  0  0  0  0  0  0  0
   37.9290   27.8220   35.9720 H   0  0  0  0  0  0  0  0  0  0  0  0
   39.3440   27.1910   32.2650 C   0  0  0  0  0  0  0  0  0  0  0  0
   40.7470   27.2110   32.2920 C   0  0  0  0  0  0  0  0  0  0  0  0
   41.4040   27.1190   33.5240 C   0  0  0  0  0  0  0  0  0  0  0  0
   40.6570   27.0150   34.6460 N   0  0  0  0  0  0  0  0  0  0  0  0
   39.3020   26.9990   34.5820 C   0  0  0  0  0  0  0  0  0  0  0  0
   38.6770   27.0850   33.4190 N   0  0  0  0  0  0  0  0  0  0  0  0
   38.7390   27.2560   31.3710 H   0  0  0  0  0  0  0  0  0  0  0  0
   41.2430   27.2970   31.3560 H   0  0  0  0  0  0  0  0  0  0  0  0
   42.4870   27.1350   33.5430 H   0  0  0  0  0  0  0  0  0  0  0  0
  1 18  1  0  0  0  0
  1  2  1  0  0  0  0
  1  4  1  0  0  0  0
  3  1  1  0  0  0  0
  4  5  1  0  0  0  0
  5  6  2  0  0  0  0
  5  9  1  0  0  0  0
  6 10  1  0  0  0  0
  7  6  1  0  0  0  0
  8  4  2  0  0  0  0
  8  7  1  0  0  0  0
 11  7  1  0  0  0  0
 11 12  2  0  0  0  0
 12 13  1  0  0  0  0
 14 12  1  0  0  0  0
 15 17  2  0  0  0  0
 15 14  1  0  0  0  0
 16 15  1  0  0  0  0
 17 11  1  0  0  0  0
 18 20  1  0  0  0  0
 18 19  1  0  0  0  0
 21 22  2  0  0  0  0
 21 26  1  0  0  0  0
 22 23  1  0  0  0  0
 23 29  1  0  0  0  0
 23 24  2  0  0  0  0
 25 24  1  0  0  0  0
 25 18  1  0  0  0  0
 26 25  2  0  0  0  0
 27 21  1  0  0  0  0
 28 22  1  0  0  0  0
M  END
>  <minimizedAffinity>
-4.37910557

$$$$
