
 OpenBabel03272509473D

 23 24  0  0  0  0  0  0  0  0999 V2000
   33.7570   28.6550   48.8780 C   0  0  0  0  0  0  0  0  0  0  0  0
   33.0030   29.3440   49.3440 H   0  0  0  0  0  0  0  0  0  0  0  0
   34.2000   29.2160   48.0160 H   0  0  0  0  0  0  0  0  0  0  0  0
   33.0080   27.4860   48.2810 C   0  0  0  0  0  0  0  0  0  0  0  0
   33.3340   26.5590   48.7710 H   0  0  0  0  0  0  0  0  0  0  0  0
   33.1970   27.3960   47.2060 H   0  0  0  0  0  0  0  0  0  0  0  0
   31.5530   27.7540   48.5710 C   0  0  0  0  0  0  0  0  0  0  0  0
   30.8130   28.1060   47.3650 C   0  0  0  0  0  0  0  0  0  0  0  0
   31.0760   28.2150   46.3290 H   0  0  0  0  0  0  0  0  0  0  0  0
   29.0970   28.3750   47.9890 S   0  0  0  0  0  0  0  0  0  0  0  0
   29.6690   27.9690   49.7550 C   0  0  0  0  0  0  0  0  0  0  0  0
   29.3680   27.8430   50.9490 H   0  0  0  0  0  0  0  0  0  0  0  0
   30.7690   27.7520   49.6320 N   0  0  0  0  0  0  0  0  0  0  0  0
   34.7180   28.2010   49.7990 O   0  0  0  0  0  0  0  0  0  0  0  0
   37.2840   30.2310   51.3800 C   0  0  0  0  0  0  0  0  0  0  0  0
   37.9670   30.6690   50.2320 C   0  0  0  0  0  0  0  0  0  0  0  0
   37.5170   30.2480   48.9860 C   0  0  0  0  0  0  0  0  0  0  0  0
   36.4250   29.4270   48.9590 N   0  0  0  0  0  0  0  0  0  0  0  0
   35.7940   29.0270   50.0860 C   0  0  0  0  0  0  0  0  0  0  0  0
   36.2350   29.4380   51.2800 N   0  0  0  0  0  0  0  0  0  0  0  0
   37.6070   30.5390   52.3690 H   0  0  0  0  0  0  0  0  0  0  0  0
   38.8330   31.3250   50.3220 H   0  0  0  0  0  0  0  0  0  0  0  0
   38.0130   30.5600   48.0750 H   0  0  0  0  0  0  0  0  0  0  0  0
  1  2  1  0  0  0  0
  1 14  1  0  0  0  0
  3  1  1  0  0  0  0
  4  7  1  0  0  0  0
  4  5  1  0  0  0  0
  4  1  1  0  0  0  0
  6  4  1  0  0  0  0
  7 13  1  0  0  0  0
  8 10  1  0  0  0  0
  8  7  2  0  0  0  0
  9  8  1  0  0  0  0
 10 11  1  0  0  0  0
 11 12  1  0  0  0  0
 13 11  2  0  0  0  0
 14 19  1  0  0  0  0
 15 21  1  0  0  0  0
 16 22  1  0  0  0  0
 16 15  2  0  0  0  0
 17 16  1  0  0  0  0
 18 17  2  0  0  0  0
 18 19  1  0  0  0  0
 19 20  2  0  0  0  0
 20 15  1  0  0  0  0
 23 17  1  0  0  0  0
M  END
>  <minimizedAffinity>
-4.22898054

>  <minimizedRMSD>
2.66470194

$$$$
