
 OpenBabel03272509563D

 41 44  0  0  0  0  0  0  0  0999 V2000
   37.1420   26.6460   34.8880 C   0  0  0  0  0  0  0  0  0  0  0  0
   36.5410   25.7400   35.1220 H   0  0  0  0  0  0  0  0  0  0  0  0
   36.7420   27.4750   35.5040 H   0  0  0  0  0  0  0  0  0  0  0  0
   38.5880   26.3630   35.1270 C   0  0  0  0  0  0  0  0  0  0  0  0
   39.1210   27.2130   35.5720 H   0  0  0  0  0  0  0  0  0  0  0  0
   39.0990   26.1690   34.1400 H   0  0  0  0  0  0  0  0  0  0  0  0
   38.8250   25.1410   35.9250 C   0  0  0  0  0  0  0  0  0  0  0  0
   37.9700   24.8830   36.9840 C   0  0  0  0  0  0  0  0  0  0  0  0
   38.0860   23.7900   37.7930 C   0  0  0  0  0  0  0  0  0  0  0  0
   39.0730   22.9280   37.5490 N   0  0  0  0  0  0  0  0  0  0  0  0
   39.9170   23.1700   36.5150 C   0  0  0  0  0  0  0  0  0  0  0  0
   39.8190   24.2510   35.6990 N   0  0  0  0  0  0  0  0  0  0  0  0
   37.1570   25.5850   37.1910 H   0  0  0  0  0  0  0  0  0  0  0  0
   37.4020   23.6140   38.6140 H   0  0  0  0  0  0  0  0  0  0  0  0
   41.0060   22.2030   36.2590 C   0  0  0  0  0  0  0  0  0  0  0  0
   41.5740   21.9210   34.9420 C   0  0  0  0  0  0  0  0  0  0  0  0
   41.1880   22.4320   34.1200 H   0  0  0  0  0  0  0  0  0  0  0  0
   42.8500   20.6280   35.4990 S   0  0  0  0  0  0  0  0  0  0  0  0
   42.3440   20.7640   37.3090 C   0  0  0  0  0  0  0  0  0  0  0  0
   42.8880   20.1270   38.0060 H   0  0  0  0  0  0  0  0  0  0  0  0
   41.4410   21.5950   37.3530 N   0  0  0  0  0  0  0  0  0  0  0  0
   36.9040   26.8850   33.4990 O   0  0  0  0  0  0  0  0  0  0  0  0
   36.2980   29.9370   31.6710 C   0  0  0  0  0  0  0  0  0  0  0  0
   35.6650   30.7040   32.6750 C   0  0  0  0  0  0  0  0  0  0  0  0
   35.4860   30.1180   33.9240 C   0  0  0  0  0  0  0  0  0  0  0  0
   35.9510   28.8340   34.0550 N   0  0  0  0  0  0  0  0  0  0  0  0
   36.5450   28.1270   33.0990 C   0  0  0  0  0  0  0  0  0  0  0  0
   36.7140   28.6960   31.8980 N   0  0  0  0  0  0  0  0  0  0  0  0
   36.4100   30.4380   30.7280 H   0  0  0  0  0  0  0  0  0  0  0  0
   35.3090   31.7100   32.5490 H   0  0  0  0  0  0  0  0  0  0  0  0
   36.6830   31.9020   35.8540 F   0  0  0  0  0  0  0  0  0  0  0  0
   35.4090   31.5760   35.9800 C   0  0  0  0  0  0  0  0  0  0  0  0
   34.8690   30.7350   35.0600 C   0  0  0  0  0  0  0  0  0  0  0  0
   33.5160   30.4580   35.2890 C   0  0  0  0  0  0  0  0  0  0  0  0
   32.8150   30.9930   36.3490 C   0  0  0  0  0  0  0  0  0  0  0  0
   33.4140   31.8400   37.2500 C   0  0  0  0  0  0  0  0  0  0  0  0
   34.7320   32.1230   37.0460 C   0  0  0  0  0  0  0  0  0  0  0  0
   32.9710   29.7950   34.6180 H   0  0  0  0  0  0  0  0  0  0  0  0
   31.7620   30.7380   36.4710 H   0  0  0  0  0  0  0  0  0  0  0  0
   32.8130   32.2190   38.0470 H   0  0  0  0  0  0  0  0  0  0  0  0
   35.2200   32.7880   37.7450 H   0  0  0  0  0  0  0  0  0  0  0  0
  1  2  1  0  0  0  0
  1  4  1  0  0  0  0
  1  3  1  0  0  0  0
  4  5  1  0  0  0  0
  4  7  1  0  0  0  0
  6  4  1  0  0  0  0
  7  8  1  0  0  0  0
  8 13  1  0  0  0  0
  8  9  2  0  0  0  0
  9 14  1  0  0  0  0
 10  9  1  0  0  0  0
 11 10  2  0  0  0  0
 12  7  2  0  0  0  0
 12 11  1  0  0  0  0
 15 11  1  0  0  0  0
 15 21  1  0  0  0  0
 16 18  1  0  0  0  0
 16 15  2  0  0  0  0
 17 16  1  0  0  0  0
 18 19  1  0  0  0  0
 19 21  2  0  0  0  0
 19 20  1  0  0  0  0
 22  1  1  0  0  0  0
 23 28  2  0  0  0  0
 23 24  1  0  0  0  0
 24 25  2  0  0  0  0
 25 26  1  0  0  0  0
 25 33  1  0  0  0  0
 27 22  1  0  0  0  0
 27 26  2  0  0  0  0
 28 27  1  0  0  0  0
 29 23  1  0  0  0  0
 30 24  1  0  0  0  0
 31 32  1  0  0  0  0
 32 37  1  0  0  0  0
 33 34  1  0  0  0  0
 33 32  2  0  0  0  0
 34 35  2  0  0  0  0
 35 39  1  0  0  0  0
 35 36  1  0  0  0  0
 36 40  1  0  0  0  0
 37 36  2  0  0  0  0
 37 41  1  0  0  0  0
 38 34  1  0  0  0  0
M  END
>  <minimizedAffinity>
-6.30388784

$$$$

 OpenBabel03272509563D

 41 44  0  0  0  0  0  0  0  0999 V2000
   38.5310   26.3480   34.5470 C   0  0  0  0  0  0  0  0  0  0  0  0
   38.0640   27.3030   34.2170 H   0  0  0  0  0  0  0  0  0  0  0  0
   39.5300   26.5940   34.9560 H   0  0  0  0  0  0  0  0  0  0  0  0
   37.6320   25.6640   35.5240 C   0  0  0  0  0  0  0  0  0  0  0  0
   36.7560   25.2060   35.0480 H   0  0  0  0  0  0  0  0  0  0  0  0
   37.2200   26.4270   36.2470 H   0  0  0  0  0  0  0  0  0  0  0  0
   38.3280   24.6730   36.3710 C   0  0  0  0  0  0  0  0  0  0  0  0
   37.9230   24.5510   37.6910 C   0  0  0  0  0  0  0  0  0  0  0  0
   38.4880   23.6730   38.5700 C   0  0  0  0  0  0  0  0  0  0  0  0
   39.4790   22.8960   38.1360 N   0  0  0  0  0  0  0  0  0  0  0  0
   39.8850   23.0070   36.8460 C   0  0  0  0  0  0  0  0  0  0  0  0
   39.3370   23.8740   35.9560 N   0  0  0  0  0  0  0  0  0  0  0  0
   37.1100   25.1840   38.0560 H   0  0  0  0  0  0  0  0  0  0  0  0
   38.1500   23.5990   39.5960 H   0  0  0  0  0  0  0  0  0  0  0  0
   40.9870   22.1370   36.3820 C   0  0  0  0  0  0  0  0  0  0  0  0
   41.4180   22.0150   34.9900 C   0  0  0  0  0  0  0  0  0  0  0  0
   40.9180   22.5770   34.2690 H   0  0  0  0  0  0  0  0  0  0  0  0
   42.8120   20.7560   35.2770 S   0  0  0  0  0  0  0  0  0  0  0  0
   42.5040   20.6900   37.1340 C   0  0  0  0  0  0  0  0  0  0  0  0
   43.1530   20.0250   37.7030 H   0  0  0  0  0  0  0  0  0  0  0  0
   41.5710   21.4560   37.3570 N   0  0  0  0  0  0  0  0  0  0  0  0
   38.6480   25.5750   33.3510 O   0  0  0  0  0  0  0  0  0  0  0  0
   35.6640   25.8600   31.3390 C   0  0  0  0  0  0  0  0  0  0  0  0
   35.3790   24.4930   31.1270 C   0  0  0  0  0  0  0  0  0  0  0  0
   36.2360   23.5550   31.6930 C   0  0  0  0  0  0  0  0  0  0  0  0
   37.2890   24.0620   32.4110 N   0  0  0  0  0  0  0  0  0  0  0  0
   37.5420   25.3540   32.6010 C   0  0  0  0  0  0  0  0  0  0  0  0
   36.7140   26.2520   32.0540 N   0  0  0  0  0  0  0  0  0  0  0  0
   34.9710   26.5390   30.8810 H   0  0  0  0  0  0  0  0  0  0  0  0
   34.5460   24.1180   30.5600 H   0  0  0  0  0  0  0  0  0  0  0  0
   37.9440   21.7130   30.2670 F   0  0  0  0  0  0  0  0  0  0  0  0
   36.8980   21.2460   30.9250 C   0  0  0  0  0  0  0  0  0  0  0  0
   36.1100   22.1310   31.5880 C   0  0  0  0  0  0  0  0  0  0  0  0
   35.0330   21.5290   32.2490 C   0  0  0  0  0  0  0  0  0  0  0  0
   34.8090   20.1690   32.2200 C   0  0  0  0  0  0  0  0  0  0  0  0
   35.6410   19.3190   31.5320 C   0  0  0  0  0  0  0  0  0  0  0  0
   36.6960   19.8860   30.8810 C   0  0  0  0  0  0  0  0  0  0  0  0
   34.3290   22.1370   32.8160 H   0  0  0  0  0  0  0  0  0  0  0  0
   33.9510   19.7620   32.7570 H   0  0  0  0  0  0  0  0  0  0  0  0
   35.4090   18.2770   31.5520 H   0  0  0  0  0  0  0  0  0  0  0  0
   37.3620   19.2320   30.3340 H   0  0  0  0  0  0  0  0  0  0  0  0
  1  3  1  0  0  0  0
  1  4  1  0  0  0  0
  2  1  1  0  0  0  0
  4  6  1  0  0  0  0
  4  7  1  0  0  0  0
  5  4  1  0  0  0  0
  7  8  1  0  0  0  0
  8 13  1  0  0  0  0
  8  9  2  0  0  0  0
  9 14  1  0  0  0  0
 10  9  1  0  0  0  0
 11 10  2  0  0  0  0
 12  7  2  0  0  0  0
 12 11  1  0  0  0  0
 15 11  1  0  0  0  0
 15 21  1  0  0  0  0
 16 18  1  0  0  0  0
 16 15  2  0  0  0  0
 17 16  1  0  0  0  0
 18 19  1  0  0  0  0
 19 21  2  0  0  0  0
 19 20  1  0  0  0  0
 22  1  1  0  0  0  0
 23 28  1  0  0  0  0
 24 23  2  0  0  0  0
 24 25  1  0  0  0  0
 25 26  2  0  0  0  0
 26 27  1  0  0  0  0
 27 22  1  0  0  0  0
 28 27  2  0  0  0  0
 29 23  1  0  0  0  0
 30 24  1  0  0  0  0
 31 32  1  0  0  0  0
 32 33  1  0  0  0  0
 33 25  1  0  0  0  0
 33 34  2  0  0  0  0
 34 38  1  0  0  0  0
 35 34  1  0  0  0  0
 35 39  1  0  0  0  0
 36 40  1  0  0  0  0
 36 35  2  0  0  0  0
 37 32  2  0  0  0  0
 37 36  1  0  0  0  0
 41 37  1  0  0  0  0
M  END
>  <minimizedAffinity>
-6.24825716

$$$$

 OpenBabel03272509563D

 41 44  0  0  0  0  0  0  0  0999 V2000
   42.4340   22.7140   35.9770 C   0  0  0  0  0  0  0  0  0  0  0  0
   43.3120   22.0440   35.8420 H   0  0  0  0  0  0  0  0  0  0  0  0
   41.9000   22.7570   35.0080 H   0  0  0  0  0  0  0  0  0  0  0  0
   41.5920   22.2130   37.1040 C   0  0  0  0  0  0  0  0  0  0  0  0
   41.9040   22.6120   38.0780 H   0  0  0  0  0  0  0  0  0  0  0  0
   41.7060   21.0940   37.1850 H   0  0  0  0  0  0  0  0  0  0  0  0
   40.1450   22.4350   36.9030 C   0  0  0  0  0  0  0  0  0  0  0  0
   39.4370   23.0590   37.9180 C   0  0  0  0  0  0  0  0  0  0  0  0
   38.0990   23.3190   37.8500 C   0  0  0  0  0  0  0  0  0  0  0  0
   37.4420   22.9530   36.7510 N   0  0  0  0  0  0  0  0  0  0  0  0
   38.1230   22.3400   35.7500 C   0  0  0  0  0  0  0  0  0  0  0  0
   39.4530   22.0720   35.7980 N   0  0  0  0  0  0  0  0  0  0  0  0
   39.9700   23.3640   38.8240 H   0  0  0  0  0  0  0  0  0  0  0  0
   37.5730   23.8090   38.6600 H   0  0  0  0  0  0  0  0  0  0  0  0
   37.3760   21.9390   34.5380 C   0  0  0  0  0  0  0  0  0  0  0  0
   37.6900   22.3890   33.1830 C   0  0  0  0  0  0  0  0  0  0  0  0
   38.4950   23.0390   33.0550 H   0  0  0  0  0  0  0  0  0  0  0  0
   36.3070   21.4440   32.2860 S   0  0  0  0  0  0  0  0  0  0  0  0
   35.6530   20.6890   33.8840 C   0  0  0  0  0  0  0  0  0  0  0  0
   34.7910   20.0310   33.7830 H   0  0  0  0  0  0  0  0  0  0  0  0
   36.3690   21.1140   34.7850 N   0  0  0  0  0  0  0  0  0  0  0  0
   42.9990   23.9850   36.3030 O   0  0  0  0  0  0  0  0  0  0  0  0
   43.6280   26.5490   33.8420 C   0  0  0  0  0  0  0  0  0  0  0  0
   42.3160   27.0400   33.6570 C   0  0  0  0  0  0  0  0  0  0  0  0
   41.2930   26.4540   34.3960 C   0  0  0  0  0  0  0  0  0  0  0  0
   41.6690   25.4420   35.2420 N   0  0  0  0  0  0  0  0  0  0  0  0
   42.9100   24.9930   35.4030 C   0  0  0  0  0  0  0  0  0  0  0  0
   43.8910   25.5600   34.6890 N   0  0  0  0  0  0  0  0  0  0  0  0
   44.3770   27.0370   33.2480 H   0  0  0  0  0  0  0  0  0  0  0  0
   42.0440   27.8360   32.9870 H   0  0  0  0  0  0  0  0  0  0  0  0
   39.6100   26.7390   32.0660 F   0  0  0  0  0  0  0  0  0  0  0  0
   39.0960   26.9550   33.2640 C   0  0  0  0  0  0  0  0  0  0  0  0
   39.9070   26.8150   34.3440 C   0  0  0  0  0  0  0  0  0  0  0  0
   39.2610   27.0670   35.5590 C   0  0  0  0  0  0  0  0  0  0  0  0
   37.9310   27.4220   35.6360 C   0  0  0  0  0  0  0  0  0  0  0  0
   37.1570   27.5490   34.5070 C   0  0  0  0  0  0  0  0  0  0  0  0
   37.7670   27.3080   33.3120 C   0  0  0  0  0  0  0  0  0  0  0  0
   39.8080   26.9870   36.4980 H   0  0  0  0  0  0  0  0  0  0  0  0
   37.4860   27.6050   36.6150 H   0  0  0  0  0  0  0  0  0  0  0  0
   36.1340   27.8270   34.6390 H   0  0  0  0  0  0  0  0  0  0  0  0
   37.1730   27.4030   32.4140 H   0  0  0  0  0  0  0  0  0  0  0  0
  1 22  1  0  0  0  0
  1  4  1  0  0  0  0
  2  1  1  0  0  0  0
  3  1  1  0  0  0  0
  4  6  1  0  0  0  0
  4  5  1  0  0  0  0
  7  4  1  0  0  0  0
  7  8  1  0  0  0  0
  8 13  1  0  0  0  0
  9  8  2  0  0  0  0
  9 14  1  0  0  0  0
 10  9  1  0  0  0  0
 11 12  1  0  0  0  0
 11 10  2  0  0  0  0
 12  7  2  0  0  0  0
 15 21  1  0  0  0  0
 15 11  1  0  0  0  0
 16 15  2  0  0  0  0
 17 16  1  0  0  0  0
 18 16  1  0  0  0  0
 18 19  1  0  0  0  0
 19 21  2  0  0  0  0
 20 19  1  0  0  0  0
 23 28  1  0  0  0  0
 24 23  2  0  0  0  0
 24 25  1  0  0  0  0
 25 26  2  0  0  0  0
 26 27  1  0  0  0  0
 27 22  1  0  0  0  0
 28 27  2  0  0  0  0
 29 23  1  0  0  0  0
 30 24  1  0  0  0  0
 31 32  1  0  0  0  0
 32 37  2  0  0  0  0
 32 33  1  0  0  0  0
 33 25  1  0  0  0  0
 33 34  2  0  0  0  0
 34 35  1  0  0  0  0
 34 38  1  0  0  0  0
 35 39  1  0  0  0  0
 36 40  1  0  0  0  0
 36 35  2  0  0  0  0
 37 36  1  0  0  0  0
 41 37  1  0  0  0  0
M  END
>  <minimizedAffinity>
-6.15383291

$$$$

 OpenBabel03272509563D

 41 44  0  0  0  0  0  0  0  0999 V2000
   38.2950   27.1530   35.2800 C   0  0  0  0  0  0  0  0  0  0  0  0
   37.7550   27.1910   36.2530 H   0  0  0  0  0  0  0  0  0  0  0  0
   38.7670   28.1430   35.1280 H   0  0  0  0  0  0  0  0  0  0  0  0
   39.2660   26.0200   35.2910 C   0  0  0  0  0  0  0  0  0  0  0  0
   40.0770   26.1600   36.0170 H   0  0  0  0  0  0  0  0  0  0  0  0
   39.7700   25.9520   34.2840 H   0  0  0  0  0  0  0  0  0  0  0  0
   38.6300   24.7000   35.4870 C   0  0  0  0  0  0  0  0  0  0  0  0
   38.2170   24.3640   36.7670 C   0  0  0  0  0  0  0  0  0  0  0  0
   37.6190   23.1760   37.0740 C   0  0  0  0  0  0  0  0  0  0  0  0
   37.4210   22.2980   36.0920 N   0  0  0  0  0  0  0  0  0  0  0  0
   37.8210   22.6150   34.8350 C   0  0  0  0  0  0  0  0  0  0  0  0
   38.4190   23.7900   34.5090 N   0  0  0  0  0  0  0  0  0  0  0  0
   38.3750   25.0790   37.5790 H   0  0  0  0  0  0  0  0  0  0  0  0
   37.3070   22.9410   38.0840 H   0  0  0  0  0  0  0  0  0  0  0  0
   37.5950   21.6270   33.7580 C   0  0  0  0  0  0  0  0  0  0  0  0
   38.5930   21.2450   32.7600 C   0  0  0  0  0  0  0  0  0  0  0  0
   39.5300   21.6970   32.8040 H   0  0  0  0  0  0  0  0  0  0  0  0
   37.5220   19.9920   31.8140 S   0  0  0  0  0  0  0  0  0  0  0  0
   36.0360   20.2630   32.9410 C   0  0  0  0  0  0  0  0  0  0  0  0
   35.1470   19.6770   32.7080 H   0  0  0  0  0  0  0  0  0  0  0  0
   36.3800   21.1000   33.7700 N   0  0  0  0  0  0  0  0  0  0  0  0
   37.2710   26.9250   34.3110 O   0  0  0  0  0  0  0  0  0  0  0  0
   36.0680   29.3740   31.9480 C   0  0  0  0  0  0  0  0  0  0  0  0
   35.4180   30.2670   32.8290 C   0  0  0  0  0  0  0  0  0  0  0  0
   35.4340   29.9670   34.1880 C   0  0  0  0  0  0  0  0  0  0  0  0
   36.0920   28.8160   34.5390 N   0  0  0  0  0  0  0  0  0  0  0  0
   36.7000   27.9870   33.6950 C   0  0  0  0  0  0  0  0  0  0  0  0
   36.6800   28.2800   32.3890 N   0  0  0  0  0  0  0  0  0  0  0  0
   36.0250   29.6540   30.9130 H   0  0  0  0  0  0  0  0  0  0  0  0
   34.9080   31.1650   32.5310 H   0  0  0  0  0  0  0  0  0  0  0  0
   36.7150   31.8220   35.9940 F   0  0  0  0  0  0  0  0  0  0  0  0
   35.4120   31.6260   36.0870 C   0  0  0  0  0  0  0  0  0  0  0  0
   34.8320   30.7490   35.2270 C   0  0  0  0  0  0  0  0  0  0  0  0
   33.4520   30.6180   35.4150 C   0  0  0  0  0  0  0  0  0  0  0  0
   32.7620   31.3170   36.3810 C   0  0  0  0  0  0  0  0  0  0  0  0
   33.4010   32.1940   37.2260 C   0  0  0  0  0  0  0  0  0  0  0  0
   34.7470   32.3360   37.0600 C   0  0  0  0  0  0  0  0  0  0  0  0
   32.8740   29.9420   34.7840 H   0  0  0  0  0  0  0  0  0  0  0  0
   31.6850   31.1700   36.4760 H   0  0  0  0  0  0  0  0  0  0  0  0
   32.8070   32.7020   37.9520 H   0  0  0  0  0  0  0  0  0  0  0  0
   35.2660   33.0220   37.7160 H   0  0  0  0  0  0  0  0  0  0  0  0
  1  4  1  0  0  0  0
  1  2  1  0  0  0  0
  3  1  1  0  0  0  0
  4  7  1  0  0  0  0
  4  5  1  0  0  0  0
  6  4  1  0  0  0  0
  7  8  1  0  0  0  0
  8  9  2  0  0  0  0
  8 13  1  0  0  0  0
  9 14  1  0  0  0  0
 10  9  1  0  0  0  0
 11 10  2  0  0  0  0
 12 11  1  0  0  0  0
 12  7  2  0  0  0  0
 15 21  1  0  0  0  0
 15 11  1  0  0  0  0
 16 17  1  0  0  0  0
 16 15  2  0  0  0  0
 18 16  1  0  0  0  0
 18 19  1  0  0  0  0
 19 21  2  0  0  0  0
 20 19  1  0  0  0  0
 22  1  1  0  0  0  0
 23 28  2  0  0  0  0
 23 24  1  0  0  0  0
 24 25  2  0  0  0  0
 25 26  1  0  0  0  0
 25 33  1  0  0  0  0
 27 22  1  0  0  0  0
 27 26  2  0  0  0  0
 28 27  1  0  0  0  0
 29 23  1  0  0  0  0
 30 24  1  0  0  0  0
 31 32  1  0  0  0  0
 32 37  1  0  0  0  0
 33 34  1  0  0  0  0
 33 32  2  0  0  0  0
 34 35  2  0  0  0  0
 35 39  1  0  0  0  0
 35 36  1  0  0  0  0
 36 40  1  0  0  0  0
 37 36  2  0  0  0  0
 37 41  1  0  0  0  0
 38 34  1  0  0  0  0
M  END
>  <minimizedAffinity>
-6.15176916

$$$$

 OpenBabel03272509563D

 41 44  0  0  0  0  0  0  0  0999 V2000
   36.0960   26.4660   31.2930 C   0  0  0  0  0  0  0  0  0  0  0  0
   37.1020   26.3810   30.8250 H   0  0  0  0  0  0  0  0  0  0  0  0
   35.6070   27.3600   30.8600 H   0  0  0  0  0  0  0  0  0  0  0  0
   35.3350   25.2000   31.0770 C   0  0  0  0  0  0  0  0  0  0  0  0
   34.6770   25.2440   30.1990 H   0  0  0  0  0  0  0  0  0  0  0  0
   34.6520   25.0210   31.9580 H   0  0  0  0  0  0  0  0  0  0  0  0
   36.1940   24.0000   31.0100 C   0  0  0  0  0  0  0  0  0  0  0  0
   37.4890   24.1550   30.5430 C   0  0  0  0  0  0  0  0  0  0  0  0
   38.3760   23.1230   30.4350 C   0  0  0  0  0  0  0  0  0  0  0  0
   37.9740   21.9060   30.7990 N   0  0  0  0  0  0  0  0  0  0  0  0
   36.7080   21.7410   31.2570 C   0  0  0  0  0  0  0  0  0  0  0  0
   35.8100   22.7540   31.3710 N   0  0  0  0  0  0  0  0  0  0  0  0
   37.8280   25.1510   30.2430 H   0  0  0  0  0  0  0  0  0  0  0  0
   39.3830   23.2750   30.0670 H   0  0  0  0  0  0  0  0  0  0  0  0
   36.2790   20.3830   31.6540 C   0  0  0  0  0  0  0  0  0  0  0  0
   35.2800   20.0960   32.6830 C   0  0  0  0  0  0  0  0  0  0  0  0
   34.8360   20.8990   33.1750 H   0  0  0  0  0  0  0  0  0  0  0  0
   35.3380   18.2010   32.5550 S   0  0  0  0  0  0  0  0  0  0  0  0
   36.6430   18.2340   31.1960 C   0  0  0  0  0  0  0  0  0  0  0  0
   36.9680   17.2630   30.8230 H   0  0  0  0  0  0  0  0  0  0  0  0
   36.8890   19.4180   30.9830 N   0  0  0  0  0  0  0  0  0  0  0  0
   36.3640   26.6570   32.6830 O   0  0  0  0  0  0  0  0  0  0  0  0
   39.9180   27.0550   33.1670 C   0  0  0  0  0  0  0  0  0  0  0  0
   40.1050   26.2390   34.3050 C   0  0  0  0  0  0  0  0  0  0  0  0
   38.9890   25.6010   34.8380 C   0  0  0  0  0  0  0  0  0  0  0  0
   37.8020   25.8320   34.1910 N   0  0  0  0  0  0  0  0  0  0  0  0
   37.6450   26.6030   33.1190 C   0  0  0  0  0  0  0  0  0  0  0  0
   38.7220   27.2160   32.6120 N   0  0  0  0  0  0  0  0  0  0  0  0
   40.8120   27.5220   32.8000 H   0  0  0  0  0  0  0  0  0  0  0  0
   41.0460   26.0720   34.7970 H   0  0  0  0  0  0  0  0  0  0  0  0
   40.6360   23.2820   35.3350 F   0  0  0  0  0  0  0  0  0  0  0  0
   39.7440   23.6450   36.2390 C   0  0  0  0  0  0  0  0  0  0  0  0
   38.9810   24.7390   35.9820 C   0  0  0  0  0  0  0  0  0  0  0  0
   38.0710   25.0330   37.0040 C   0  0  0  0  0  0  0  0  0  0  0  0
   37.9710   24.2770   38.1530 C   0  0  0  0  0  0  0  0  0  0  0  0
   38.7710   23.1780   38.3600 C   0  0  0  0  0  0  0  0  0  0  0  0
   39.6640   22.8740   37.3750 C   0  0  0  0  0  0  0  0  0  0  0  0
   37.4020   25.8890   36.9140 H   0  0  0  0  0  0  0  0  0  0  0  0
   37.2410   24.5590   38.9120 H   0  0  0  0  0  0  0  0  0  0  0  0
   38.6410   22.6370   39.2710 H   0  0  0  0  0  0  0  0  0  0  0  0
   40.3020   22.0130   37.5220 H   0  0  0  0  0  0  0  0  0  0  0  0
  1 22  1  0  0  0  0
  2  1  1  0  0  0  0
  3  1  1  0  0  0  0
  4  1  1  0  0  0  0
  4  6  1  0  0  0  0
  5  4  1  0  0  0  0
  7  4  1  0  0  0  0
  7 12  1  0  0  0  0
  8  7  2  0  0  0  0
  9  8  1  0  0  0  0
  9 10  2  0  0  0  0
 10 11  1  0  0  0  0
 11 12  2  0  0  0  0
 11 15  1  0  0  0  0
 13  8  1  0  0  0  0
 14  9  1  0  0  0  0
 15 16  2  0  0  0  0
 16 17  1  0  0  0  0
 18 16  1  0  0  0  0
 19 18  1  0  0  0  0
 20 19  1  0  0  0  0
 21 19  2  0  0  0  0
 21 15  1  0  0  0  0
 22 27  1  0  0  0  0
 23 24  1  0  0  0  0
 24 30  1  0  0  0  0
 24 25  2  0  0  0  0
 25 33  1  0  0  0  0
 26 25  1  0  0  0  0
 27 26  2  0  0  0  0
 28 27  1  0  0  0  0
 28 23  2  0  0  0  0
 29 23  1  0  0  0  0
 31 32  1  0  0  0  0
 32 37  1  0  0  0  0
 33 32  2  0  0  0  0
 33 34  1  0  0  0  0
 34 35  2  0  0  0  0
 35 36  1  0  0  0  0
 35 39  1  0  0  0  0
 36 40  1  0  0  0  0
 37 41  1  0  0  0  0
 37 36  2  0  0  0  0
 38 34  1  0  0  0  0
M  END
>  <minimizedAffinity>
-5.94412518

$$$$

 OpenBabel03272509563D

 41 44  0  0  0  0  0  0  0  0999 V2000
   42.0390   22.4670   35.7600 C   0  0  0  0  0  0  0  0  0  0  0  0
   41.2160   22.7350   35.0600 H   0  0  0  0  0  0  0  0  0  0  0  0
   42.5540   21.5820   35.3380 H   0  0  0  0  0  0  0  0  0  0  0  0
   42.9330   23.6470   35.9530 C   0  0  0  0  0  0  0  0  0  0  0  0
   43.9780   23.4360   35.6930 H   0  0  0  0  0  0  0  0  0  0  0  0
   42.9450   23.9300   37.0460 H   0  0  0  0  0  0  0  0  0  0  0  0
   42.4680   24.8610   35.2500 C   0  0  0  0  0  0  0  0  0  0  0  0
   43.4160   25.6400   34.6050 C   0  0  0  0  0  0  0  0  0  0  0  0
   43.1100   26.7820   33.9230 C   0  0  0  0  0  0  0  0  0  0  0  0
   41.8350   27.1660   33.8770 N   0  0  0  0  0  0  0  0  0  0  0  0
   40.8980   26.4120   34.5050 C   0  0  0  0  0  0  0  0  0  0  0  0
   41.1810   25.2740   35.1890 N   0  0  0  0  0  0  0  0  0  0  0  0
   44.4650   25.3310   34.6370 H   0  0  0  0  0  0  0  0  0  0  0  0
   43.8730   27.3700   33.4280 H   0  0  0  0  0  0  0  0  0  0  0  0
   39.4880   26.8550   34.4440 C   0  0  0  0  0  0  0  0  0  0  0  0
   38.6530   27.1290   35.6130 C   0  0  0  0  0  0  0  0  0  0  0  0
   39.0740   27.0060   36.5580 H   0  0  0  0  0  0  0  0  0  0  0  0
   37.0740   27.6160   34.6740 S   0  0  0  0  0  0  0  0  0  0  0  0
   37.8750   27.3480   32.9900 C   0  0  0  0  0  0  0  0  0  0  0  0
   37.2420   27.5390   32.1240 H   0  0  0  0  0  0  0  0  0  0  0  0
   39.0280   26.9870   33.2090 N   0  0  0  0  0  0  0  0  0  0  0  0
   41.3780   22.1360   36.9820 O   0  0  0  0  0  0  0  0  0  0  0  0
   38.2320   23.4540   38.1630 C   0  0  0  0  0  0  0  0  0  0  0  0
   37.3820   23.0420   37.1120 C   0  0  0  0  0  0  0  0  0  0  0  0
   37.9500   22.3330   36.0570 C   0  0  0  0  0  0  0  0  0  0  0  0
   39.2990   22.1030   36.1480 N   0  0  0  0  0  0  0  0  0  0  0  0
   40.0830   22.4980   37.1470 C   0  0  0  0  0  0  0  0  0  0  0  0
   39.5320   23.1810   38.1580 N   0  0  0  0  0  0  0  0  0  0  0  0
   37.7420   23.9970   38.9490 H   0  0  0  0  0  0  0  0  0  0  0  0
   36.3260   23.2340   37.0620 H   0  0  0  0  0  0  0  0  0  0  0  0
   35.6610   20.5720   35.9860 F   0  0  0  0  0  0  0  0  0  0  0  0
   36.1760   21.0080   34.8500 C   0  0  0  0  0  0  0  0  0  0  0  0
   37.2520   21.8350   34.9090 C   0  0  0  0  0  0  0  0  0  0  0  0
   37.7140   22.2340   33.6500 C   0  0  0  0  0  0  0  0  0  0  0  0
   37.1250   21.8210   32.4750 C   0  0  0  0  0  0  0  0  0  0  0  0
   36.0360   20.9820   32.4750 C   0  0  0  0  0  0  0  0  0  0  0  0
   35.5700   20.5800   33.6920 C   0  0  0  0  0  0  0  0  0  0  0  0
   38.5740   22.8990   33.5670 H   0  0  0  0  0  0  0  0  0  0  0  0
   37.5340   22.1680   31.5250 H   0  0  0  0  0  0  0  0  0  0  0  0
   35.6290   20.7000   31.5290 H   0  0  0  0  0  0  0  0  0  0  0  0
   34.7130   19.9200   33.7110 H   0  0  0  0  0  0  0  0  0  0  0  0
  1  4  1  0  0  0  0
  1 22  1  0  0  0  0
  2  1  1  0  0  0  0
  3  1  1  0  0  0  0
  4  6  1  0  0  0  0
  5  4  1  0  0  0  0
  7  4  1  0  0  0  0
  8 13  1  0  0  0  0
  8  7  2  0  0  0  0
  9  8  1  0  0  0  0
 10  9  2  0  0  0  0
 10 11  1  0  0  0  0
 11 12  2  0  0  0  0
 12  7  1  0  0  0  0
 14  9  1  0  0  0  0
 15 11  1  0  0  0  0
 15 16  2  0  0  0  0
 16 17  1  0  0  0  0
 18 16  1  0  0  0  0
 19 21  2  0  0  0  0
 19 18  1  0  0  0  0
 20 19  1  0  0  0  0
 21 15  1  0  0  0  0
 22 27  1  0  0  0  0
 23 29  1  0  0  0  0
 24 23  2  0  0  0  0
 25 26  2  0  0  0  0
 25 24  1  0  0  0  0
 26 27  1  0  0  0  0
 27 28  2  0  0  0  0
 28 23  1  0  0  0  0
 30 24  1  0  0  0  0
 32 33  1  0  0  0  0
 32 31  1  0  0  0  0
 33 25  1  0  0  0  0
 34 33  2  0  0  0  0
 35 34  1  0  0  0  0
 36 35  2  0  0  0  0
 36 37  1  0  0  0  0
 37 41  1  0  0  0  0
 37 32  2  0  0  0  0
 38 34  1  0  0  0  0
 39 35  1  0  0  0  0
 40 36  1  0  0  0  0
M  END
>  <minimizedAffinity>
-5.899086

$$$$

 OpenBabel03272509563D

 41 44  0  0  0  0  0  0  0  0999 V2000
   36.0960   21.4760   32.5050 C   0  0  0  0  0  0  0  0  0  0  0  0
   36.4100   22.1040   33.3680 H   0  0  0  0  0  0  0  0  0  0  0  0
   35.2960   20.8000   32.8640 H   0  0  0  0  0  0  0  0  0  0  0  0
   35.6780   22.3540   31.3730 C   0  0  0  0  0  0  0  0  0  0  0  0
   34.6320   22.2000   31.0780 H   0  0  0  0  0  0  0  0  0  0  0  0
   36.2900   22.1010   30.4590 H   0  0  0  0  0  0  0  0  0  0  0  0
   35.9320   23.7900   31.6160 C   0  0  0  0  0  0  0  0  0  0  0  0
   35.1710   24.7110   30.9130 C   0  0  0  0  0  0  0  0  0  0  0  0
   35.3120   26.0610   31.0500 C   0  0  0  0  0  0  0  0  0  0  0  0
   36.2290   26.5150   31.9040 N   0  0  0  0  0  0  0  0  0  0  0  0
   36.9810   25.6240   32.5970 C   0  0  0  0  0  0  0  0  0  0  0  0
   36.8560   24.2770   32.4740 N   0  0  0  0  0  0  0  0  0  0  0  0
   34.4150   24.3470   30.2110 H   0  0  0  0  0  0  0  0  0  0  0  0
   34.7020   26.7570   30.4880 H   0  0  0  0  0  0  0  0  0  0  0  0
   37.9940   26.1460   33.5390 C   0  0  0  0  0  0  0  0  0  0  0  0
   39.4290   25.8780   33.4470 C   0  0  0  0  0  0  0  0  0  0  0  0
   39.7680   25.2770   32.6660 H   0  0  0  0  0  0  0  0  0  0  0  0
   39.9610   26.8790   34.9710 S   0  0  0  0  0  0  0  0  0  0  0  0
   38.1960   27.4080   35.3630 C   0  0  0  0  0  0  0  0  0  0  0  0
   38.0710   28.0450   36.2380 H   0  0  0  0  0  0  0  0  0  0  0  0
   37.4840   26.8990   34.5010 N   0  0  0  0  0  0  0  0  0  0  0  0
   37.2670   20.7350   32.1560 O   0  0  0  0  0  0  0  0  0  0  0  0
   40.7530   21.3620   32.8510 C   0  0  0  0  0  0  0  0  0  0  0  0
   40.6460   21.9590   34.1260 C   0  0  0  0  0  0  0  0  0  0  0  0
   39.3740   22.1100   34.6690 C   0  0  0  0  0  0  0  0  0  0  0  0
   38.3360   21.6550   33.8970 N   0  0  0  0  0  0  0  0  0  0  0  0
   38.4550   21.0930   32.6970 C   0  0  0  0  0  0  0  0  0  0  0  0
   39.6820   20.9520   32.1790 N   0  0  0  0  0  0  0  0  0  0  0  0
   41.7570   21.2710   32.4810 H   0  0  0  0  0  0  0  0  0  0  0  0
   41.4750   22.3100   34.7150 H   0  0  0  0  0  0  0  0  0  0  0  0
   40.7470   21.7240   37.1800 F   0  0  0  0  0  0  0  0  0  0  0  0
   39.6970   22.5250   37.1350 C   0  0  0  0  0  0  0  0  0  0  0  0
   39.0680   22.6900   35.9430 C   0  0  0  0  0  0  0  0  0  0  0  0
   37.9720   23.5570   36.0100 C   0  0  0  0  0  0  0  0  0  0  0  0
   37.5810   24.1750   37.1790 C   0  0  0  0  0  0  0  0  0  0  0  0
   38.2570   23.9700   38.3580 C   0  0  0  0  0  0  0  0  0  0  0  0
   39.3280   23.1280   38.3150 C   0  0  0  0  0  0  0  0  0  0  0  0
   37.3850   23.7700   35.1170 H   0  0  0  0  0  0  0  0  0  0  0  0
   36.7170   24.8400   37.1650 H   0  0  0  0  0  0  0  0  0  0  0  0
   37.9010   24.4800   39.2260 H   0  0  0  0  0  0  0  0  0  0  0  0
   39.8720   22.9560   39.2340 H   0  0  0  0  0  0  0  0  0  0  0  0
  1  3  1  0  0  0  0
  1  2  1  0  0  0  0
  4  7  1  0  0  0  0
  4  1  1  0  0  0  0
  5  4  1  0  0  0  0
  6  4  1  0  0  0  0
  7 12  1  0  0  0  0
  8  9  1  0  0  0  0
  8  7  2  0  0  0  0
  9 10  2  0  0  0  0
 10 11  1  0  0  0  0
 11 15  1  0  0  0  0
 12 11  2  0  0  0  0
 13  8  1  0  0  0  0
 14  9  1  0  0  0  0
 15 21  1  0  0  0  0
 16 15  2  0  0  0  0
 16 18  1  0  0  0  0
 17 16  1  0  0  0  0
 18 19  1  0  0  0  0
 19 20  1  0  0  0  0
 21 19  2  0  0  0  0
 22  1  1  0  0  0  0
 22 27  1  0  0  0  0
 23 24  1  0  0  0  0
 24 25  2  0  0  0  0
 24 30  1  0  0  0  0
 25 33  1  0  0  0  0
 26 25  1  0  0  0  0
 27 26  2  0  0  0  0
 28 27  1  0  0  0  0
 28 23  2  0  0  0  0
 29 23  1  0  0  0  0
 32 31  1  0  0  0  0
 32 37  1  0  0  0  0
 33 34  1  0  0  0  0
 33 32  2  0  0  0  0
 34 35  2  0  0  0  0
 35 36  1  0  0  0  0
 36 40  1  0  0  0  0
 37 36  2  0  0  0  0
 37 41  1  0  0  0  0
 38 34  1  0  0  0  0
 39 35  1  0  0  0  0
M  END
>  <minimizedAffinity>
-5.84234095

$$$$

 OpenBabel03272509563D

 41 44  0  0  0  0  0  0  0  0999 V2000
   36.0560   26.9210   30.9010 C   0  0  0  0  0  0  0  0  0  0  0  0
   37.0910   26.6830   30.5670 H   0  0  0  0  0  0  0  0  0  0  0  0
   35.6180   27.6070   30.1500 H   0  0  0  0  0  0  0  0  0  0  0  0
   35.2850   25.6550   31.0800 C   0  0  0  0  0  0  0  0  0  0  0  0
   34.4520   25.5600   30.3710 H   0  0  0  0  0  0  0  0  0  0  0  0
   34.8120   25.6490   32.1050 H   0  0  0  0  0  0  0  0  0  0  0  0
   36.1270   24.4410   31.0420 C   0  0  0  0  0  0  0  0  0  0  0  0
   37.4150   24.5610   30.5440 C   0  0  0  0  0  0  0  0  0  0  0  0
   38.2860   23.5150   30.4580 C   0  0  0  0  0  0  0  0  0  0  0  0
   37.8760   22.3170   30.8740 N   0  0  0  0  0  0  0  0  0  0  0  0
   36.6170   22.1870   31.3620 C   0  0  0  0  0  0  0  0  0  0  0  0
   35.7350   23.2150   31.4560 N   0  0  0  0  0  0  0  0  0  0  0  0
   37.7600   25.5410   30.2010 H   0  0  0  0  0  0  0  0  0  0  0  0
   39.2880   23.6390   30.0640 H   0  0  0  0  0  0  0  0  0  0  0  0
   36.1790   20.8500   31.8190 C   0  0  0  0  0  0  0  0  0  0  0  0
   36.1230   19.6610   30.9700 C   0  0  0  0  0  0  0  0  0  0  0  0
   36.4090   19.7540   29.9730 H   0  0  0  0  0  0  0  0  0  0  0  0
   35.4840   18.4510   32.2890 S   0  0  0  0  0  0  0  0  0  0  0  0
   35.4440   19.7770   33.6270 C   0  0  0  0  0  0  0  0  0  0  0  0
   35.1050   19.4530   34.6100 H   0  0  0  0  0  0  0  0  0  0  0  0
   35.8310   20.8140   33.0960 N   0  0  0  0  0  0  0  0  0  0  0  0
   36.2270   27.5830   32.1550 O   0  0  0  0  0  0  0  0  0  0  0  0
   36.4410   31.1280   31.5130 C   0  0  0  0  0  0  0  0  0  0  0  0
   35.7830   31.6260   32.6600 C   0  0  0  0  0  0  0  0  0  0  0  0
   35.3040   30.7040   33.5860 C   0  0  0  0  0  0  0  0  0  0  0  0
   35.5250   29.3840   33.2860 N   0  0  0  0  0  0  0  0  0  0  0  0
   36.1480   28.9330   32.2010 C   0  0  0  0  0  0  0  0  0  0  0  0
   36.6060   29.8250   31.3130 N   0  0  0  0  0  0  0  0  0  0  0  0
   36.7900   31.8820   30.8340 H   0  0  0  0  0  0  0  0  0  0  0  0
   35.6210   32.6670   32.8740 H   0  0  0  0  0  0  0  0  0  0  0  0
   32.5910   30.0370   34.3200 F   0  0  0  0  0  0  0  0  0  0  0  0
   33.3420   30.7160   35.1690 C   0  0  0  0  0  0  0  0  0  0  0  0
   34.6140   31.0180   34.8020 C   0  0  0  0  0  0  0  0  0  0  0  0
   35.3170   31.7360   35.7750 C   0  0  0  0  0  0  0  0  0  0  0  0
   34.7590   32.0950   36.9840 C   0  0  0  0  0  0  0  0  0  0  0  0
   33.4640   31.7610   37.3030 C   0  0  0  0  0  0  0  0  0  0  0  0
   32.7610   31.0620   36.3680 C   0  0  0  0  0  0  0  0  0  0  0  0
   36.3490   32.0370   35.5960 H   0  0  0  0  0  0  0  0  0  0  0  0
   35.3610   32.6550   37.7010 H   0  0  0  0  0  0  0  0  0  0  0  0
   33.0950   32.0710   38.2560 H   0  0  0  0  0  0  0  0  0  0  0  0
   31.7410   30.7900   36.6030 H   0  0  0  0  0  0  0  0  0  0  0  0
  1  4  1  0  0  0  0
  1 22  1  0  0  0  0
  2  1  1  0  0  0  0
  3  1  1  0  0  0  0
  4  6  1  0  0  0  0
  5  4  1  0  0  0  0
  7  4  1  0  0  0  0
  7 12  1  0  0  0  0
  8  7  2  0  0  0  0
  9  8  1  0  0  0  0
  9 10  2  0  0  0  0
 10 11  1  0  0  0  0
 11 12  2  0  0  0  0
 11 15  1  0  0  0  0
 13  8  1  0  0  0  0
 14  9  1  0  0  0  0
 15 21  1  0  0  0  0
 16 15  2  0  0  0  0
 16 18  1  0  0  0  0
 17 16  1  0  0  0  0
 18 19  1  0  0  0  0
 19 20  1  0  0  0  0
 21 19  2  0  0  0  0
 22 27  1  0  0  0  0
 23 24  1  0  0  0  0
 24 30  1  0  0  0  0
 24 25  2  0  0  0  0
 25 33  1  0  0  0  0
 26 25  1  0  0  0  0
 27 26  2  0  0  0  0
 28 23  2  0  0  0  0
 28 27  1  0  0  0  0
 29 23  1  0  0  0  0
 31 32  1  0  0  0  0
 32 37  1  0  0  0  0
 33 32  2  0  0  0  0
 33 34  1  0  0  0  0
 34 35  2  0  0  0  0
 35 36  1  0  0  0  0
 35 39  1  0  0  0  0
 36 40  1  0  0  0  0
 37 41  1  0  0  0  0
 37 36  2  0  0  0  0
 38 34  1  0  0  0  0
M  END
>  <minimizedAffinity>
-5.7545023

$$$$

 OpenBabel03272509563D

 41 44  0  0  0  0  0  0  0  0999 V2000
   37.5030   26.6350   34.0870 C   0  0  0  0  0  0  0  0  0  0  0  0
   37.8310   27.5220   34.6740 H   0  0  0  0  0  0  0  0  0  0  0  0
   36.6750   26.1590   34.6470 H   0  0  0  0  0  0  0  0  0  0  0  0
   37.1270   27.0610   32.7060 C   0  0  0  0  0  0  0  0  0  0  0  0
   36.5490   26.2990   32.1680 H   0  0  0  0  0  0  0  0  0  0  0  0
   38.0640   27.2160   32.0960 H   0  0  0  0  0  0  0  0  0  0  0  0
   36.4240   28.3600   32.6600 C   0  0  0  0  0  0  0  0  0  0  0  0
   36.1010   28.8790   31.4160 C   0  0  0  0  0  0  0  0  0  0  0  0
   35.4530   30.0670   31.2450 C   0  0  0  0  0  0  0  0  0  0  0  0
   35.1150   30.7630   32.3290 N   0  0  0  0  0  0  0  0  0  0  0  0
   35.4260   30.2660   33.5530 C   0  0  0  0  0  0  0  0  0  0  0  0
   36.0710   29.0870   33.7450 N   0  0  0  0  0  0  0  0  0  0  0  0
   36.3740   28.3140   30.5200 H   0  0  0  0  0  0  0  0  0  0  0  0
   35.2130   30.4480   30.2590 H   0  0  0  0  0  0  0  0  0  0  0  0
   35.0440   31.0530   34.7460 C   0  0  0  0  0  0  0  0  0  0  0  0
   35.9380   31.3540   35.8620 C   0  0  0  0  0  0  0  0  0  0  0  0
   36.9140   30.9910   35.8230 H   0  0  0  0  0  0  0  0  0  0  0  0
   34.7010   32.3540   36.9020 S   0  0  0  0  0  0  0  0  0  0  0  0
   33.3200   32.1440   35.6380 C   0  0  0  0  0  0  0  0  0  0  0  0
   32.3680   32.6130   35.8880 H   0  0  0  0  0  0  0  0  0  0  0  0
   33.7900   31.4770   34.7200 N   0  0  0  0  0  0  0  0  0  0  0  0
   38.6500   25.7840   34.0520 O   0  0  0  0  0  0  0  0  0  0  0  0
   38.9550   22.9550   36.2730 C   0  0  0  0  0  0  0  0  0  0  0  0
   38.2290   21.9890   35.5420 C   0  0  0  0  0  0  0  0  0  0  0  0
   37.6770   22.3740   34.3240 C   0  0  0  0  0  0  0  0  0  0  0  0
   37.8990   23.6760   33.9520 N   0  0  0  0  0  0  0  0  0  0  0  0
   38.5860   24.5720   34.6530 C   0  0  0  0  0  0  0  0  0  0  0  0
   39.1140   24.1960   35.8250 N   0  0  0  0  0  0  0  0  0  0  0  0
   39.3580   22.6030   37.2030 H   0  0  0  0  0  0  0  0  0  0  0  0
   38.0680   20.9720   35.8530 H   0  0  0  0  0  0  0  0  0  0  0  0
   35.4610   20.6460   34.9890 F   0  0  0  0  0  0  0  0  0  0  0  0
   35.8690   20.7190   33.7340 C   0  0  0  0  0  0  0  0  0  0  0  0
   36.9130   21.5390   33.4460 C   0  0  0  0  0  0  0  0  0  0  0  0
   37.2600   21.5390   32.0910 C   0  0  0  0  0  0  0  0  0  0  0  0
   36.5980   20.7770   31.1520 C   0  0  0  0  0  0  0  0  0  0  0  0
   35.5460   19.9640   31.5010 C   0  0  0  0  0  0  0  0  0  0  0  0
   35.1910   19.9490   32.8170 C   0  0  0  0  0  0  0  0  0  0  0  0
   38.0840   22.1580   31.7360 H   0  0  0  0  0  0  0  0  0  0  0  0
   36.9180   20.8220   30.1100 H   0  0  0  0  0  0  0  0  0  0  0  0
   35.0780   19.4010   30.7240 H   0  0  0  0  0  0  0  0  0  0  0  0
   34.3650   19.3150   33.1100 H   0  0  0  0  0  0  0  0  0  0  0  0
  1  3  1  0  0  0  0
  1  2  1  0  0  0  0
  4  1  1  0  0  0  0
  5  4  1  0  0  0  0
  6  4  1  0  0  0  0
  7  4  1  0  0  0  0
  7 12  1  0  0  0  0
  8  7  2  0  0  0  0
  9  8  1  0  0  0  0
  9 10  2  0  0  0  0
 10 11  1  0  0  0  0
 11 12  2  0  0  0  0
 11 15  1  0  0  0  0
 13  8  1  0  0  0  0
 14  9  1  0  0  0  0
 15 16  2  0  0  0  0
 16 18  1  0  0  0  0
 17 16  1  0  0  0  0
 19 20  1  0  0  0  0
 19 18  1  0  0  0  0
 21 15  1  0  0  0  0
 21 19  2  0  0  0  0
 22  1  1  0  0  0  0
 22 27  1  0  0  0  0
 23 29  1  0  0  0  0
 24 30  1  0  0  0  0
 24 23  2  0  0  0  0
 25 24  1  0  0  0  0
 26 25  2  0  0  0  0
 26 27  1  0  0  0  0
 27 28  2  0  0  0  0
 28 23  1  0  0  0  0
 32 31  1  0  0  0  0
 33 32  1  0  0  0  0
 33 25  1  0  0  0  0
 34 33  2  0  0  0  0
 35 36  2  0  0  0  0
 35 34  1  0  0  0  0
 36 37  1  0  0  0  0
 37 41  1  0  0  0  0
 37 32  2  0  0  0  0
 38 34  1  0  0  0  0
 39 35  1  0  0  0  0
 40 36  1  0  0  0  0
M  END
>  <minimizedAffinity>
-5.68644667

$$$$
