
 OpenBabel03272502393D

 38 41  0  0  1  0  0  0  0  0999 V2000
   31.4140   27.3720   46.9560 N   0  0  0  0  0  0  0  0  0  0  0  0
   32.4040   26.8880   46.0050 C   0  0  0  0  0  0  0  0  0  0  0  0
   33.6620   27.5770   46.4430 C   0  0  0  0  0  0  0  0  0  0  0  0
   33.2000   28.5980   47.5760 C   0  0  1  0  0  0  0  0  0  0  0  0
   32.1130   27.8210   48.1810 C   0  0  0  0  0  0  0  0  0  0  0  0
   32.1600   27.2750   44.9990 H   0  0  0  0  0  0  0  0  0  0  0  0
   32.5430   25.8000   46.0220 H   0  0  0  0  0  0  0  0  0  0  0  0
   34.3730   26.9290   46.9750 H   0  0  0  0  0  0  0  0  0  0  0  0
   34.1670   28.1810   45.6940 H   0  0  0  0  0  0  0  0  0  0  0  0
   32.9070   29.4400   46.9390 H   0  0  0  0  0  0  0  0  0  0  0  0
   32.5360   26.9180   48.6910 H   0  0  0  0  0  0  0  0  0  0  0  0
   31.4230   28.3690   48.8260 H   0  0  0  0  0  0  0  0  0  0  0  0
   35.2500   30.3710   46.7570 F   0  0  0  0  0  0  0  0  0  0  0  0
   35.2630   29.7780   47.9620 C   0  0  0  0  0  0  0  0  0  0  0  0
   34.3510   28.8720   48.4360 C   0  0  0  0  0  0  0  0  0  0  0  0
   34.5400   28.3670   49.7330 C   0  0  0  0  0  0  0  0  0  0  0  0
   35.5930   28.7500   50.5260 C   0  0  0  0  0  0  0  0  0  0  0  0
   36.5070   29.6780   50.0080 C   0  0  0  0  0  0  0  0  0  0  0  0
   36.3340   30.1950   48.7040 C   0  0  0  0  0  0  0  0  0  0  0  0
   33.7750   27.6600   50.0200 H   0  0  0  0  0  0  0  0  0  0  0  0
   35.6740   28.3290   51.4980 H   0  0  0  0  0  0  0  0  0  0  0  0
   37.2880   29.9040   50.7070 H   0  0  0  0  0  0  0  0  0  0  0  0
   37.3430   31.1710   48.2970 C   0  0  0  0  0  0  0  0  0  0  0  0
   38.0980   30.9020   47.0490 C   0  0  0  0  0  0  0  0  0  0  0  0
   38.1620   30.2270   46.3230 H   0  0  0  0  0  0  0  0  0  0  0  0
   39.2100   32.2570   46.9050 S   0  0  0  0  0  0  0  0  0  0  0  0
   38.5660   33.0500   48.5140 C   0  0  0  0  0  0  0  0  0  0  0  0
   38.6350   34.0070   49.3520 H   0  0  0  0  0  0  0  0  0  0  0  0
   37.5490   32.2340   49.0570 N   0  0  0  0  0  0  0  0  0  0  0  0
   30.0210   27.4310   46.7830 C   0  0  0  0  0  0  0  0  0  0  0  0
   29.5800   28.0410   45.5980 C   0  0  0  0  0  0  0  0  0  0  0  0
   28.2010   28.1420   45.3540 C   0  0  0  0  0  0  0  0  0  0  0  0
   27.3660   27.6190   46.3240 N   0  0  0  0  0  0  0  0  0  0  0  0
   27.8340   27.0400   47.4480 C   0  0  0  0  0  0  0  0  0  0  0  0
   29.1570   26.9530   47.6640 N   0  0  0  0  0  0  0  0  0  0  0  0
   30.1870   28.4540   44.8320 H   0  0  0  0  0  0  0  0  0  0  0  0
   27.8180   28.6010   44.4610 H   0  0  0  0  0  0  0  0  0  0  0  0
   27.1530   26.6470   48.1750 H   0  0  0  0  0  0  0  0  0  0  0  0
  1  5  1  0  0  0  0
  2  7  1  0  0  0  0
  2  3  1  0  0  0  0
  2  1  1  0  0  0  0
  3  8  1  0  0  0  0
  3  4  1  0  0  0  0
  4 10  1  6  0  0  0
  4  5  1  0  0  0  0
  4 15  1  0  0  0  0
  5 11  1  0  0  0  0
  5 12  1  0  0  0  0
  6  2  1  0  0  0  0
  9  3  1  0  0  0  0
 13 14  1  0  0  0  0
 14 15  2  0  0  0  0
 14 19  1  0  0  0  0
 15 16  1  0  0  0  0
 16 20  1  0  0  0  0
 16 17  2  0  0  0  0
 17 21  1  0  0  0  0
 18 17  1  0  0  0  0
 18 22  1  0  0  0  0
 19 18  2  0  0  0  0
 23 19  1  0  0  0  0
 23 29  1  0  0  0  0
 24 23  2  0  0  0  0
 25 24  1  0  0  0  0
 26 24  1  0  0  0  0
 26 27  1  0  0  0  0
 27 29  2  0  0  0  0
 27 28  1  0  0  0  0
 30  1  1  0  0  0  0
 30 35  1  0  0  0  0
 31 30  2  0  0  0  0
 32 31  1  0  0  0  0
 32 33  2  0  0  0  0
 33 34  1  0  0  0  0
 34 35  2  0  0  0  0
 34 38  1  0  0  0  0
 36 31  1  0  0  0  0
 37 32  1  0  0  0  0
M  END
>  <minimizedAffinity>
-5.78766489

>  <minimizedRMSD>
3.25740409

$$$$
