
 OpenBabel03272510243D

 30 33  0  0  0  0  0  0  0  0999 V2000
   36.0760   30.1270   46.9350 C   0  0  0  0  0  0  0  0  0  0  0  0
   36.9430   30.6760   47.8580 C   0  0  0  0  0  0  0  0  0  0  0  0
   37.9210   31.5520   47.4460 C   0  0  0  0  0  0  0  0  0  0  0  0
   37.9780   31.8430   46.0810 C   0  0  0  0  0  0  0  0  0  0  0  0
   38.8640   32.6820   45.4530 N   0  0  0  0  0  0  0  0  0  0  0  0
   38.5450   32.6500   44.1630 C   0  0  0  0  0  0  0  0  0  0  0  0
   37.5080   31.8380   43.9410 N   0  0  0  0  0  0  0  0  0  0  0  0
   37.1230   31.3090   45.1280 C   0  0  0  0  0  0  0  0  0  0  0  0
   36.1500   30.4300   45.5840 C   0  0  0  0  0  0  0  0  0  0  0  0
   35.2890   29.4330   47.2100 H   0  0  0  0  0  0  0  0  0  0  0  0
   38.6050   31.9920   48.1340 H   0  0  0  0  0  0  0  0  0  0  0  0
   39.6430   33.2420   45.9000 H   0  0  0  0  0  0  0  0  0  0  0  0
   35.4930   30.0220   44.8410 H   0  0  0  0  0  0  0  0  0  0  0  0
   37.4380   30.1440   51.5430 C   0  0  0  0  0  0  0  0  0  0  0  0
   37.7180   30.5630   50.2470 C   0  0  0  0  0  0  0  0  0  0  0  0
   36.7860   30.2980   49.2500 C   0  0  0  0  0  0  0  0  0  0  0  0
   35.6320   29.6330   49.5950 N   0  0  0  0  0  0  0  0  0  0  0  0
   35.3930   29.2390   50.8690 C   0  0  0  0  0  0  0  0  0  0  0  0
   36.2830   29.4900   51.8280 N   0  0  0  0  0  0  0  0  0  0  0  0
   38.2350   30.4060   52.2260 H   0  0  0  0  0  0  0  0  0  0  0  0
   38.6060   31.0840   49.9410 H   0  0  0  0  0  0  0  0  0  0  0  0
   34.4780   28.7220   51.0910 H   0  0  0  0  0  0  0  0  0  0  0  0
   39.2310   33.3840   43.1990 O   0  0  0  0  0  0  0  0  0  0  0  0
   39.1750   33.0180   41.8610 C   0  0  0  0  0  0  0  0  0  0  0  0
   38.5350   33.9540   40.9740 C   0  0  0  0  0  0  0  0  0  0  0  0
   38.0880   34.9010   41.1810 H   0  0  0  0  0  0  0  0  0  0  0  0
   38.6900   33.0610   39.3130 S   0  0  0  0  0  0  0  0  0  0  0  0
   39.5820   31.6220   40.1690 C   0  0  0  0  0  0  0  0  0  0  0  0
   40.0490   30.5890   39.8340 H   0  0  0  0  0  0  0  0  0  0  0  0
   39.6320   31.9140   41.2630 N   0  0  0  0  0  0  0  0  0  0  0  0
  1 10  1  0  0  0  0
  1  2  1  0  0  0  0
  2 16  1  0  0  0  0
  3  2  2  0  0  0  0
  3 11  1  0  0  0  0
  4  3  1  0  0  0  0
  5 12  1  0  0  0  0
  5  4  1  0  0  0  0
  6  5  1  0  0  0  0
  7  6  2  0  0  0  0
  7  8  1  0  0  0  0
  8  9  1  0  0  0  0
  8  4  2  0  0  0  0
  9  1  2  0  0  0  0
 13  9  1  0  0  0  0
 14 19  1  0  0  0  0
 14 20  1  0  0  0  0
 15 14  2  0  0  0  0
 16 17  2  0  0  0  0
 16 15  1  0  0  0  0
 17 18  1  0  0  0  0
 18 22  1  0  0  0  0
 18 19  2  0  0  0  0
 21 15  1  0  0  0  0
 23  6  1  0  0  0  0
 24 23  1  0  0  0  0
 25 26  1  0  0  0  0
 25 24  2  0  0  0  0
 27 28  1  0  0  0  0
 27 25  1  0  0  0  0
 28 30  2  0  0  0  0
 29 28  1  0  0  0  0
 30 24  1  0  0  0  0
M  END
>  <minimizedAffinity>
-5.47114658

>  <minimizedRMSD>
1.58902395

$$$$
