
 OpenBabel03262521223D

 31 32  0  0  0  0  0  0  0  0999 V2000
   38.0800   27.0300   35.8520 C   0  0  0  0  0  0  0  0  0  0  0  0
   39.2050   27.0740   35.7380 H   0  0  0  0  0  0  0  0  0  0  0  0
   37.8830   27.4920   36.8450 H   0  0  0  0  0  0  0  0  0  0  0  0
   37.3780   27.5400   34.8230 C   0  0  0  0  0  0  0  0  0  0  0  0
   37.1540   28.6400   34.8180 H   0  0  0  0  0  0  0  0  0  0  0  0
   36.3150   27.1360   34.8290 H   0  0  0  0  0  0  0  0  0  0  0  0
   37.9040   27.2310   33.4610 C   0  0  0  0  0  0  0  0  0  0  0  0
   38.6510   28.0040   33.1150 H   0  0  0  0  0  0  0  0  0  0  0  0
   38.4960   26.2880   33.5140 H   0  0  0  0  0  0  0  0  0  0  0  0
   36.6360   27.0570   32.2260 S   0  0  0  0  0  0  0  0  0  0  0  0
   36.3770   25.2760   31.9860 C   0  0  0  0  0  0  0  0  0  0  0  0
   35.3650   24.5720   31.2380 C   0  0  0  0  0  0  0  0  0  0  0  0
   34.6290   25.3880   30.7350 H   0  0  0  0  0  0  0  0  0  0  0  0
   35.9360   22.7960   31.5910 S   0  0  0  0  0  0  0  0  0  0  0  0
   37.3840   23.3880   32.6500 C   0  0  0  0  0  0  0  0  0  0  0  0
   38.1310   22.9020   33.1720 H   0  0  0  0  0  0  0  0  0  0  0  0
   37.3190   24.6260   32.6420 N   0  0  0  0  0  0  0  0  0  0  0  0
   37.6090   25.7440   35.8500 O   0  0  0  0  0  0  0  0  0  0  0  0
   38.3940   24.7470   36.3670 C   0  0  0  0  0  0  0  0  0  0  0  0
   38.0170   24.3820   37.6390 C   0  0  0  0  0  0  0  0  0  0  0  0
   38.7350   23.3650   38.3040 C   0  0  0  0  0  0  0  0  0  0  0  0
   39.7810   22.8020   37.6150 N   0  0  0  0  0  0  0  0  0  0  0  0
   40.1220   23.1930   36.3570 C   0  0  0  0  0  0  0  0  0  0  0  0
   39.4200   24.1610   35.7550 N   0  0  0  0  0  0  0  0  0  0  0  0
   41.8740   21.5700   36.5500 C   0  0  0  0  0  0  0  0  0  0  0  0
   41.5530   21.2520   37.7310 O   0  0  0  0  0  0  0  0  0  0  0  0
   41.2260   22.5460   35.7330 N   0  0  0  0  0  0  0  0  0  0  0  0
   37.2030   24.8020   38.2070 H   0  0  0  0  0  0  0  0  0  0  0  0
   38.4660   23.0560   39.2930 H   0  0  0  0  0  0  0  0  0  0  0  0
   42.7360   21.0360   36.1230 H   0  0  0  0  0  0  0  0  0  0  0  0
   41.5110   22.7900   34.7610 H   0  0  0  0  0  0  0  0  0  0  0  0
  1  3  1  0  0  0  0
  2  1  1  0  0  0  0
  4  6  1  0  0  0  0
  4  1  1  0  0  0  0
  5  4  1  0  0  0  0
  7  9  1  0  0  0  0
  7  4  1  0  0  0  0
  8  7  1  0  0  0  0
 10  7  1  0  0  0  0
 11 10  1  0  0  0  0
 11 17  1  0  0  0  0
 12 14  1  0  0  0  0
 12 11  2  0  0  0  0
 13 12  1  0  0  0  0
 14 15  1  0  0  0  0
 15 16  1  0  0  0  0
 17 15  2  0  0  0  0
 18  1  1  0  0  0  0
 18 19  1  0  0  0  0
 19 20  1  0  0  0  0
 20 28  1  0  0  0  0
 20 21  2  0  0  0  0
 21 29  1  0  0  0  0
 22 21  1  0  0  0  0
 23 22  2  0  0  0  0
 24 23  1  0  0  0  0
 24 19  2  0  0  0  0
 25 26  2  0  0  0  0
 27 23  1  0  0  0  0
 27 25  1  0  0  0  0
 30 25  1  0  0  0  0
 31 27  1  0  0  0  0
M  END
>  <minimizedAffinity>
-4.5611372

$$$$

 OpenBabel03262521223D

 31 32  0  0  0  0  0  0  0  0999 V2000
   37.4360   27.7900   34.8940 C   0  0  0  0  0  0  0  0  0  0  0  0
   38.3080   27.8420   34.1760 H   0  0  0  0  0  0  0  0  0  0  0  0
   37.7650   28.3850   35.7760 H   0  0  0  0  0  0  0  0  0  0  0  0
   36.2420   28.1330   34.3740 C   0  0  0  0  0  0  0  0  0  0  0  0
   35.6120   28.8830   34.9220 H   0  0  0  0  0  0  0  0  0  0  0  0
   35.5310   27.2450   34.3940 H   0  0  0  0  0  0  0  0  0  0  0  0
   36.2590   28.5840   32.9520 C   0  0  0  0  0  0  0  0  0  0  0  0
   35.2360   28.5140   32.4780 H   0  0  0  0  0  0  0  0  0  0  0  0
   36.4930   29.6740   32.9270 H   0  0  0  0  0  0  0  0  0  0  0  0
   37.4310   27.7120   31.9370 S   0  0  0  0  0  0  0  0  0  0  0  0
   36.7410   26.0600   31.6380 C   0  0  0  0  0  0  0  0  0  0  0  0
   37.3190   24.7550   31.8440 C   0  0  0  0  0  0  0  0  0  0  0  0
   38.4350   24.9010   32.2850 H   0  0  0  0  0  0  0  0  0  0  0  0
   35.8550   23.7000   31.2550 S   0  0  0  0  0  0  0  0  0  0  0  0
   34.8100   25.2250   30.8680 C   0  0  0  0  0  0  0  0  0  0  0  0
   33.8560   25.3600   30.4960 H   0  0  0  0  0  0  0  0  0  0  0  0
   35.5190   26.1980   31.1610 N   0  0  0  0  0  0  0  0  0  0  0  0
   37.1660   26.5070   35.2900 O   0  0  0  0  0  0  0  0  0  0  0  0
   38.2070   25.6350   35.4730 C   0  0  0  0  0  0  0  0  0  0  0  0
   39.3210   25.9790   34.7420 C   0  0  0  0  0  0  0  0  0  0  0  0
   40.4760   25.1730   34.8270 C   0  0  0  0  0  0  0  0  0  0  0  0
   40.3990   24.0780   35.6520 N   0  0  0  0  0  0  0  0  0  0  0  0
   39.2770   23.7720   36.3580 C   0  0  0  0  0  0  0  0  0  0  0  0
   38.1990   24.5580   36.2550 N   0  0  0  0  0  0  0  0  0  0  0  0
   40.5270   21.8790   37.1290 C   0  0  0  0  0  0  0  0  0  0  0  0
   41.5440   22.1710   36.4350 O   0  0  0  0  0  0  0  0  0  0  0  0
   39.3030   22.6120   37.1830 N   0  0  0  0  0  0  0  0  0  0  0  0
   39.4150   26.8300   34.0860 H   0  0  0  0  0  0  0  0  0  0  0  0
   41.3590   25.4140   34.2730 H   0  0  0  0  0  0  0  0  0  0  0  0
   40.6080   20.9710   37.7450 H   0  0  0  0  0  0  0  0  0  0  0  0
   38.4790   22.3490   37.7640 H   0  0  0  0  0  0  0  0  0  0  0  0
  1 18  1  0  0  0  0
  1  3  1  0  0  0  0
  2  1  1  0  0  0  0
  4  6  1  0  0  0  0
  4  1  1  0  0  0  0
  4  5  1  0  0  0  0
  7  4  1  0  0  0  0
  8  7  1  0  0  0  0
  9  7  1  0  0  0  0
 10  7  1  0  0  0  0
 11 12  2  0  0  0  0
 11 10  1  0  0  0  0
 12 13  1  0  0  0  0
 14 12  1  0  0  0  0
 15 17  2  0  0  0  0
 15 14  1  0  0  0  0
 16 15  1  0  0  0  0
 17 11  1  0  0  0  0
 18 19  1  0  0  0  0
 19 24  1  0  0  0  0
 20 21  1  0  0  0  0
 20 19  2  0  0  0  0
 21 22  2  0  0  0  0
 22 23  1  0  0  0  0
 23 27  1  0  0  0  0
 24 23  2  0  0  0  0
 25 27  1  0  0  0  0
 25 30  1  0  0  0  0
 26 25  2  0  0  0  0
 27 31  1  0  0  0  0
 28 20  1  0  0  0  0
 29 21  1  0  0  0  0
M  END
>  <minimizedAffinity>
-4.27227306

$$$$

 OpenBabel03262521223D

 31 32  0  0  0  0  0  0  0  0999 V2000
   38.1460   27.1540   35.4420 C   0  0  0  0  0  0  0  0  0  0  0  0
   39.0770   27.1910   34.8010 H   0  0  0  0  0  0  0  0  0  0  0  0
   38.4910   27.4660   36.4530 H   0  0  0  0  0  0  0  0  0  0  0  0
   37.0870   27.8290   34.9550 C   0  0  0  0  0  0  0  0  0  0  0  0
   37.0510   28.9420   35.0900 H   0  0  0  0  0  0  0  0  0  0  0  0
   36.1410   27.5440   35.5200 H   0  0  0  0  0  0  0  0  0  0  0  0
   36.7680   27.5880   33.5180 C   0  0  0  0  0  0  0  0  0  0  0  0
   37.6830   27.2810   32.9310 H   0  0  0  0  0  0  0  0  0  0  0  0
   36.0920   26.7040   33.4450 H   0  0  0  0  0  0  0  0  0  0  0  0
   36.0020   28.9760   32.7110 S   0  0  0  0  0  0  0  0  0  0  0  0
   35.1420   29.9230   33.9980 C   0  0  0  0  0  0  0  0  0  0  0  0
   35.5710   31.0720   34.7560 C   0  0  0  0  0  0  0  0  0  0  0  0
   36.6880   31.3650   34.4010 H   0  0  0  0  0  0  0  0  0  0  0  0
   34.0110   31.3150   35.8120 S   0  0  0  0  0  0  0  0  0  0  0  0
   33.1450   29.8390   35.0110 C   0  0  0  0  0  0  0  0  0  0  0  0
   32.2180   29.4020   35.1380 H   0  0  0  0  0  0  0  0  0  0  0  0
   33.9500   29.3880   34.1840 N   0  0  0  0  0  0  0  0  0  0  0  0
   37.6150   25.8940   35.5140 O   0  0  0  0  0  0  0  0  0  0  0  0
   38.3550   24.8920   36.0850 C   0  0  0  0  0  0  0  0  0  0  0  0
   37.8480   24.4850   37.2980 C   0  0  0  0  0  0  0  0  0  0  0  0
   38.5060   23.4580   38.0090 C   0  0  0  0  0  0  0  0  0  0  0  0
   39.6280   22.9290   37.4220 N   0  0  0  0  0  0  0  0  0  0  0  0
   40.0980   23.3610   36.2200 C   0  0  0  0  0  0  0  0  0  0  0  0
   39.4500   24.3370   35.5720 N   0  0  0  0  0  0  0  0  0  0  0  0
   41.8440   21.7550   36.5580 C   0  0  0  0  0  0  0  0  0  0  0  0
   41.4020   21.3990   37.6880 O   0  0  0  0  0  0  0  0  0  0  0  0
   41.2730   22.7460   35.7030 N   0  0  0  0  0  0  0  0  0  0  0  0
   36.9710   24.8780   37.7850 H   0  0  0  0  0  0  0  0  0  0  0  0
   38.1360   23.1180   38.9540 H   0  0  0  0  0  0  0  0  0  0  0  0
   42.7550   21.2450   36.2130 H   0  0  0  0  0  0  0  0  0  0  0  0
   41.6570   23.0220   34.7740 H   0  0  0  0  0  0  0  0  0  0  0  0
  1 18  1  0  0  0  0
  1  3  1  0  0  0  0
  2  1  1  0  0  0  0
  4  5  1  0  0  0  0
  4  1  1  0  0  0  0
  4  6  1  0  0  0  0
  7  4  1  0  0  0  0
  8  7  1  0  0  0  0
  9  7  1  0  0  0  0
 10  7  1  0  0  0  0
 10 11  1  0  0  0  0
 11 17  1  0  0  0  0
 11 12  2  0  0  0  0
 12 14  1  0  0  0  0
 13 12  1  0  0  0  0
 15 16  1  0  0  0  0
 15 14  1  0  0  0  0
 17 15  2  0  0  0  0
 18 19  1  0  0  0  0
 19 20  1  0  0  0  0
 20 28  1  0  0  0  0
 20 21  2  0  0  0  0
 21 29  1  0  0  0  0
 22 21  1  0  0  0  0
 23 22  2  0  0  0  0
 24 19  2  0  0  0  0
 24 23  1  0  0  0  0
 25 26  2  0  0  0  0
 27 23  1  0  0  0  0
 27 25  1  0  0  0  0
 30 25  1  0  0  0  0
 31 27  1  0  0  0  0
M  END
>  <minimizedAffinity>
-4.20752573

$$$$

 OpenBabel03262521223D

 31 32  0  0  0  0  0  0  0  0999 V2000
   36.6640   21.9050   31.7400 C   0  0  0  0  0  0  0  0  0  0  0  0
   36.8210   21.0360   31.0330 H   0  0  0  0  0  0  0  0  0  0  0  0
   37.5550   22.5540   31.5860 H   0  0  0  0  0  0  0  0  0  0  0  0
   35.4710   22.5210   31.6370 C   0  0  0  0  0  0  0  0  0  0  0  0
   34.7430   22.4280   32.4860 H   0  0  0  0  0  0  0  0  0  0  0  0
   34.8500   22.0470   30.8100 H   0  0  0  0  0  0  0  0  0  0  0  0
   35.5160   23.9740   31.3040 C   0  0  0  0  0  0  0  0  0  0  0  0
   35.0460   24.1890   30.3000 H   0  0  0  0  0  0  0  0  0  0  0  0
   34.8720   24.5260   32.0270 H   0  0  0  0  0  0  0  0  0  0  0  0
   37.1550   24.6660   31.3360 S   0  0  0  0  0  0  0  0  0  0  0  0
   37.2500   25.7250   32.8080 C   0  0  0  0  0  0  0  0  0  0  0  0
   37.8450   25.4790   34.0980 C   0  0  0  0  0  0  0  0  0  0  0  0
   38.3250   24.3710   34.0890 H   0  0  0  0  0  0  0  0  0  0  0  0
   37.4350   27.1400   34.9200 S   0  0  0  0  0  0  0  0  0  0  0  0
   36.5670   27.7830   33.3700 C   0  0  0  0  0  0  0  0  0  0  0  0
   36.0920   28.6690   33.1340 H   0  0  0  0  0  0  0  0  0  0  0  0
   36.6500   26.8680   32.5380 N   0  0  0  0  0  0  0  0  0  0  0  0
   36.6160   21.5060   33.0490 O   0  0  0  0  0  0  0  0  0  0  0  0
   37.6880   21.7630   33.8630 C   0  0  0  0  0  0  0  0  0  0  0  0
   38.8870   21.7260   33.1870 C   0  0  0  0  0  0  0  0  0  0  0  0
   40.0840   21.9700   33.8940 C   0  0  0  0  0  0  0  0  0  0  0  0
   39.9590   22.2340   35.2360 N   0  0  0  0  0  0  0  0  0  0  0  0
   38.7540   22.2620   35.8670 C   0  0  0  0  0  0  0  0  0  0  0  0
   37.6380   22.0250   35.1670 N   0  0  0  0  0  0  0  0  0  0  0  0
   40.0300   22.7260   37.8410 C   0  0  0  0  0  0  0  0  0  0  0  0
   41.1370   22.6610   37.2330 O   0  0  0  0  0  0  0  0  0  0  0  0
   38.7370   22.5420   37.2620 N   0  0  0  0  0  0  0  0  0  0  0  0
   39.0190   21.5220   32.1370 H   0  0  0  0  0  0  0  0  0  0  0  0
   41.0310   21.9500   33.3970 H   0  0  0  0  0  0  0  0  0  0  0  0
   40.0830   22.9440   38.9180 H   0  0  0  0  0  0  0  0  0  0  0  0
   37.8380   22.6020   37.7870 H   0  0  0  0  0  0  0  0  0  0  0  0
  1 18  1  0  0  0  0
  2  1  1  0  0  0  0
  3  1  1  0  0  0  0
  4  1  1  0  0  0  0
  4  5  1  0  0  0  0
  6  4  1  0  0  0  0
  7 10  1  0  0  0  0
  7  4  1  0  0  0  0
  7  9  1  0  0  0  0
  8  7  1  0  0  0  0
 10 11  1  0  0  0  0
 11 12  2  0  0  0  0
 12 14  1  0  0  0  0
 13 12  1  0  0  0  0
 15 14  1  0  0  0  0
 16 15  1  0  0  0  0
 17 11  1  0  0  0  0
 17 15  2  0  0  0  0
 18 19  1  0  0  0  0
 19 24  1  0  0  0  0
 20 19  2  0  0  0  0
 20 21  1  0  0  0  0
 21 22  2  0  0  0  0
 22 23  1  0  0  0  0
 23 27  1  0  0  0  0
 24 23  2  0  0  0  0
 25 30  1  0  0  0  0
 26 25  2  0  0  0  0
 27 31  1  0  0  0  0
 27 25  1  0  0  0  0
 28 20  1  0  0  0  0
 29 21  1  0  0  0  0
M  END
>  <minimizedAffinity>
-4.19298077

$$$$

 OpenBabel03262521223D

 31 32  0  0  0  0  0  0  0  0999 V2000
   38.2730   27.1070   32.8680 C   0  0  0  0  0  0  0  0  0  0  0  0
   37.2430   27.0510   33.3320 H   0  0  0  0  0  0  0  0  0  0  0  0
   38.2480   28.0290   32.2450 H   0  0  0  0  0  0  0  0  0  0  0  0
   39.2990   27.0190   33.7350 C   0  0  0  0  0  0  0  0  0  0  0  0
   40.1730   27.7110   33.6060 H   0  0  0  0  0  0  0  0  0  0  0  0
   39.8350   26.0220   33.6160 H   0  0  0  0  0  0  0  0  0  0  0  0
   38.9370   27.0950   35.1800 C   0  0  0  0  0  0  0  0  0  0  0  0
   39.8470   27.0280   35.8450 H   0  0  0  0  0  0  0  0  0  0  0  0
   38.5230   28.1090   35.3910 H   0  0  0  0  0  0  0  0  0  0  0  0
   37.7550   25.8660   35.6890 S   0  0  0  0  0  0  0  0  0  0  0  0
   38.7000   24.4980   36.4160 C   0  0  0  0  0  0  0  0  0  0  0  0
   39.8110   23.7450   35.8890 C   0  0  0  0  0  0  0  0  0  0  0  0
   40.0700   24.1720   34.7890 H   0  0  0  0  0  0  0  0  0  0  0  0
   40.0850   22.5750   37.3580 S   0  0  0  0  0  0  0  0  0  0  0  0
   38.6670   23.3470   38.3380 C   0  0  0  0  0  0  0  0  0  0  0  0
   38.2620   23.1640   39.2710 H   0  0  0  0  0  0  0  0  0  0  0  0
   38.2070   24.2400   37.6120 N   0  0  0  0  0  0  0  0  0  0  0  0
   38.5410   26.0290   32.0680 O   0  0  0  0  0  0  0  0  0  0  0  0
   37.6390   24.9990   32.0150 C   0  0  0  0  0  0  0  0  0  0  0  0
   36.5040   25.3250   31.3080 C   0  0  0  0  0  0  0  0  0  0  0  0
   35.4800   24.3630   31.1670 C   0  0  0  0  0  0  0  0  0  0  0  0
   35.6990   23.1450   31.7620 N   0  0  0  0  0  0  0  0  0  0  0  0
   36.8360   22.8630   32.4540 C   0  0  0  0  0  0  0  0  0  0  0  0
   37.7870   23.7980   32.5680 N   0  0  0  0  0  0  0  0  0  0  0  0
   35.8240   20.7250   32.8410 C   0  0  0  0  0  0  0  0  0  0  0  0
   34.7650   21.0290   32.2190 O   0  0  0  0  0  0  0  0  0  0  0  0
   36.9600   21.5690   33.0350 N   0  0  0  0  0  0  0  0  0  0  0  0
   36.3020   26.2690   30.8290 H   0  0  0  0  0  0  0  0  0  0  0  0
   34.5870   24.5850   30.6220 H   0  0  0  0  0  0  0  0  0  0  0  0
   35.8600   19.7120   33.2680 H   0  0  0  0  0  0  0  0  0  0  0  0
   37.8230   21.2940   33.5520 H   0  0  0  0  0  0  0  0  0  0  0  0
  1  2  1  0  0  0  0
  1  4  1  0  0  0  0
  3  1  1  0  0  0  0
  4  7  1  0  0  0  0
  5  4  1  0  0  0  0
  6  4  1  0  0  0  0
  7  9  1  0  0  0  0
  7 10  1  0  0  0  0
  7  8  1  0  0  0  0
 10 11  1  0  0  0  0
 11 17  1  0  0  0  0
 12 11  2  0  0  0  0
 12 14  1  0  0  0  0
 13 12  1  0  0  0  0
 14 15  1  0  0  0  0
 15 16  1  0  0  0  0
 17 15  2  0  0  0  0
 18  1  1  0  0  0  0
 19 18  1  0  0  0  0
 19 24  1  0  0  0  0
 20 19  2  0  0  0  0
 21 20  1  0  0  0  0
 21 22  2  0  0  0  0
 22 23  1  0  0  0  0
 23 24  2  0  0  0  0
 23 27  1  0  0  0  0
 25 27  1  0  0  0  0
 25 30  1  0  0  0  0
 26 25  2  0  0  0  0
 27 31  1  0  0  0  0
 28 20  1  0  0  0  0
 29 21  1  0  0  0  0
M  END
>  <minimizedAffinity>
-4.14976406

$$$$

 OpenBabel03262521223D

 31 32  0  0  0  0  0  0  0  0999 V2000
   36.7390   27.9310   34.1210 C   0  0  0  0  0  0  0  0  0  0  0  0
   36.0560   27.1670   34.6020 H   0  0  0  0  0  0  0  0  0  0  0  0
   37.3610   28.3150   34.9600 H   0  0  0  0  0  0  0  0  0  0  0  0
   37.4200   27.4940   33.0440 C   0  0  0  0  0  0  0  0  0  0  0  0
   37.5290   28.1800   32.1630 H   0  0  0  0  0  0  0  0  0  0  0  0
   36.8620   26.6380   32.5430 H   0  0  0  0  0  0  0  0  0  0  0  0
   38.7880   26.9630   33.3120 C   0  0  0  0  0  0  0  0  0  0  0  0
   38.9270   25.9270   32.8840 H   0  0  0  0  0  0  0  0  0  0  0  0
   39.5270   27.5850   32.7550 H   0  0  0  0  0  0  0  0  0  0  0  0
   39.2240   26.9410   35.0360 S   0  0  0  0  0  0  0  0  0  0  0  0
   39.0370   25.2270   35.6040 C   0  0  0  0  0  0  0  0  0  0  0  0
   39.8140   24.0520   35.2970 C   0  0  0  0  0  0  0  0  0  0  0  0
   40.6970   24.3700   34.5360 H   0  0  0  0  0  0  0  0  0  0  0  0
   38.8570   22.7950   36.3500 S   0  0  0  0  0  0  0  0  0  0  0  0
   37.6450   24.1100   36.9580 C   0  0  0  0  0  0  0  0  0  0  0  0
   36.8290   24.0900   37.5920 H   0  0  0  0  0  0  0  0  0  0  0  0
   38.0010   25.1680   36.4190 N   0  0  0  0  0  0  0  0  0  0  0  0
   36.0440   28.9690   33.5610 O   0  0  0  0  0  0  0  0  0  0  0  0
   35.2770   29.7680   34.3680 C   0  0  0  0  0  0  0  0  0  0  0  0
   33.9320   29.5000   34.2540 C   0  0  0  0  0  0  0  0  0  0  0  0
   33.0140   30.2440   35.0250 C   0  0  0  0  0  0  0  0  0  0  0  0
   33.5450   31.2040   35.8520 N   0  0  0  0  0  0  0  0  0  0  0  0
   34.8830   31.4380   35.9340 C   0  0  0  0  0  0  0  0  0  0  0  0
   35.7260   30.7140   35.1890 N   0  0  0  0  0  0  0  0  0  0  0  0
   34.2780   33.1500   37.4980 C   0  0  0  0  0  0  0  0  0  0  0  0
   33.0380   32.9310   37.3740 O   0  0  0  0  0  0  0  0  0  0  0  0
   35.3280   32.4590   36.8210 N   0  0  0  0  0  0  0  0  0  0  0  0
   33.4830   28.7550   33.6170 H   0  0  0  0  0  0  0  0  0  0  0  0
   31.9620   30.0590   34.9610 H   0  0  0  0  0  0  0  0  0  0  0  0
   34.5590   33.9520   38.1970 H   0  0  0  0  0  0  0  0  0  0  0  0
   36.3440   32.6590   36.9410 H   0  0  0  0  0  0  0  0  0  0  0  0
  1  2  1  0  0  0  0
  1  3  1  0  0  0  0
  4  7  1  0  0  0  0
  4  1  1  0  0  0  0
  5  4  1  0  0  0  0
  6  4  1  0  0  0  0
  7 10  1  0  0  0  0
  8  7  1  0  0  0  0
  9  7  1  0  0  0  0
 10 11  1  0  0  0  0
 11 17  1  0  0  0  0
 12 11  2  0  0  0  0
 12 14  1  0  0  0  0
 13 12  1  0  0  0  0
 14 15  1  0  0  0  0
 15 16  1  0  0  0  0
 17 15  2  0  0  0  0
 18  1  1  0  0  0  0
 18 19  1  0  0  0  0
 19 24  1  0  0  0  0
 20 19  2  0  0  0  0
 20 21  1  0  0  0  0
 21 22  2  0  0  0  0
 22 23  1  0  0  0  0
 23 27  1  0  0  0  0
 24 23  2  0  0  0  0
 25 30  1  0  0  0  0
 26 25  2  0  0  0  0
 27 31  1  0  0  0  0
 27 25  1  0  0  0  0
 28 20  1  0  0  0  0
 29 21  1  0  0  0  0
M  END
>  <minimizedAffinity>
-4.1245594

$$$$

 OpenBabel03262521223D

 31 32  0  0  0  0  0  0  0  0999 V2000
   37.2720   27.0550   32.8060 C   0  0  0  0  0  0  0  0  0  0  0  0
   37.1520   26.1510   32.1360 H   0  0  0  0  0  0  0  0  0  0  0  0
   38.3570   27.2970   32.7550 H   0  0  0  0  0  0  0  0  0  0  0  0
   36.4340   28.0770   32.5470 C   0  0  0  0  0  0  0  0  0  0  0  0
   35.5260   27.8810   31.9180 H   0  0  0  0  0  0  0  0  0  0  0  0
   36.9480   28.8540   31.8930 H   0  0  0  0  0  0  0  0  0  0  0  0
   35.9440   28.8330   33.7360 C   0  0  0  0  0  0  0  0  0  0  0  0
   35.8300   28.1650   34.6400 H   0  0  0  0  0  0  0  0  0  0  0  0
   36.7280   29.5650   34.0410 H   0  0  0  0  0  0  0  0  0  0  0  0
   34.4150   29.6970   33.4560 S   0  0  0  0  0  0  0  0  0  0  0  0
   34.0040   30.5530   35.0030 C   0  0  0  0  0  0  0  0  0  0  0  0
   32.7540   30.6460   35.7160 C   0  0  0  0  0  0  0  0  0  0  0  0
   31.9210   30.0240   35.1020 H   0  0  0  0  0  0  0  0  0  0  0  0
   33.3350   31.7210   37.1690 S   0  0  0  0  0  0  0  0  0  0  0  0
   35.1010   31.8050   36.5030 C   0  0  0  0  0  0  0  0  0  0  0  0
   35.9670   32.2600   36.8350 H   0  0  0  0  0  0  0  0  0  0  0  0
   35.0940   31.1450   35.4540 N   0  0  0  0  0  0  0  0  0  0  0  0
   36.9300   26.7870   34.1050 O   0  0  0  0  0  0  0  0  0  0  0  0
   37.6890   25.9020   34.8240 C   0  0  0  0  0  0  0  0  0  0  0  0
   38.7650   25.4250   34.1100 C   0  0  0  0  0  0  0  0  0  0  0  0
   39.6410   24.5020   34.7190 C   0  0  0  0  0  0  0  0  0  0  0  0
   39.3470   24.1400   36.0110 N   0  0  0  0  0  0  0  0  0  0  0  0
   38.2710   24.6340   36.6820 C   0  0  0  0  0  0  0  0  0  0  0  0
   37.4610   25.5080   36.0740 N   0  0  0  0  0  0  0  0  0  0  0  0
   39.0030   23.2250   38.4770 C   0  0  0  0  0  0  0  0  0  0  0  0
   39.9760   22.7580   37.8150 O   0  0  0  0  0  0  0  0  0  0  0  0
   38.0560   24.1890   38.0170 N   0  0  0  0  0  0  0  0  0  0  0  0
   39.0240   25.6890   33.0970 H   0  0  0  0  0  0  0  0  0  0  0  0
   40.4880   24.1140   34.1920 H   0  0  0  0  0  0  0  0  0  0  0  0
   38.8890   22.8420   39.5010 H   0  0  0  0  0  0  0  0  0  0  0  0
   37.2620   24.5590   38.5830 H   0  0  0  0  0  0  0  0  0  0  0  0
  1 18  1  0  0  0  0
  2  1  1  0  0  0  0
  3  1  1  0  0  0  0
  4  1  1  0  0  0  0
  4  7  1  0  0  0  0
  5  4  1  0  0  0  0
  6  4  1  0  0  0  0
  7  9  1  0  0  0  0
  7  8  1  0  0  0  0
 10  7  1  0  0  0  0
 10 11  1  0  0  0  0
 11 17  1  0  0  0  0
 11 12  2  0  0  0  0
 12 14  1  0  0  0  0
 13 12  1  0  0  0  0
 15 16  1  0  0  0  0
 15 14  1  0  0  0  0
 17 15  2  0  0  0  0
 18 19  1  0  0  0  0
 19 24  1  0  0  0  0
 20 21  1  0  0  0  0
 20 19  2  0  0  0  0
 21 22  2  0  0  0  0
 22 23  1  0  0  0  0
 23 27  1  0  0  0  0
 24 23  2  0  0  0  0
 25 30  1  0  0  0  0
 26 25  2  0  0  0  0
 27 25  1  0  0  0  0
 27 31  1  0  0  0  0
 28 20  1  0  0  0  0
 29 21  1  0  0  0  0
M  END
>  <minimizedAffinity>
-4.11404419

$$$$

 OpenBabel03262521223D

 31 32  0  0  0  0  0  0  0  0999 V2000
   37.8260   27.0060   35.6190 C   0  0  0  0  0  0  0  0  0  0  0  0
   38.9220   27.2850   35.5760 H   0  0  0  0  0  0  0  0  0  0  0  0
   37.5320   27.1910   36.6760 H   0  0  0  0  0  0  0  0  0  0  0  0
   37.0480   27.5910   34.6870 C   0  0  0  0  0  0  0  0  0  0  0  0
   36.8240   28.6860   34.7860 H   0  0  0  0  0  0  0  0  0  0  0  0
   35.9890   27.1800   34.7400 H   0  0  0  0  0  0  0  0  0  0  0  0
   37.4720   27.3940   33.2710 C   0  0  0  0  0  0  0  0  0  0  0  0
   38.5900   27.4970   33.1490 H   0  0  0  0  0  0  0  0  0  0  0  0
   37.2660   26.3370   32.9810 H   0  0  0  0  0  0  0  0  0  0  0  0
   36.6600   28.4830   32.1210 S   0  0  0  0  0  0  0  0  0  0  0  0
   37.6020   28.4090   30.5720 C   0  0  0  0  0  0  0  0  0  0  0  0
   37.2800   28.9060   29.2580 C   0  0  0  0  0  0  0  0  0  0  0  0
   36.1940   29.4340   29.3090 H   0  0  0  0  0  0  0  0  0  0  0  0
   38.8540   28.3560   28.3510 S   0  0  0  0  0  0  0  0  0  0  0  0
   39.5830   27.5910   29.9170 C   0  0  0  0  0  0  0  0  0  0  0  0
   40.4660   27.0980   30.1250 H   0  0  0  0  0  0  0  0  0  0  0  0
   38.7400   27.7830   30.8050 N   0  0  0  0  0  0  0  0  0  0  0  0
   37.6140   25.6880   35.3140 O   0  0  0  0  0  0  0  0  0  0  0  0
   38.3500   24.7300   35.9610 C   0  0  0  0  0  0  0  0  0  0  0  0
   37.8940   24.4820   37.2350 C   0  0  0  0  0  0  0  0  0  0  0  0
   38.5540   23.5180   38.0280 C   0  0  0  0  0  0  0  0  0  0  0  0
   39.6270   22.8840   37.4520 N   0  0  0  0  0  0  0  0  0  0  0  0
   40.0470   23.1590   36.1870 C   0  0  0  0  0  0  0  0  0  0  0  0
   39.3990   24.0790   35.4630 N   0  0  0  0  0  0  0  0  0  0  0  0
   41.7560   21.5360   36.6230 C   0  0  0  0  0  0  0  0  0  0  0  0
   41.3610   21.3270   37.8070 O   0  0  0  0  0  0  0  0  0  0  0  0
   41.1740   22.4450   35.6880 N   0  0  0  0  0  0  0  0  0  0  0  0
   37.0560   24.9610   37.7160 H   0  0  0  0  0  0  0  0  0  0  0  0
   38.2220   23.3010   39.0210 H   0  0  0  0  0  0  0  0  0  0  0  0
   42.6310   20.9560   36.2960 H   0  0  0  0  0  0  0  0  0  0  0  0
   41.5180   22.6000   34.7170 H   0  0  0  0  0  0  0  0  0  0  0  0
  1  3  1  0  0  0  0
  2  1  1  0  0  0  0
  4  6  1  0  0  0  0
  4  5  1  0  0  0  0
  4  1  1  0  0  0  0
  7  4  1  0  0  0  0
  8  7  1  0  0  0  0
  9  7  1  0  0  0  0
 10  7  1  0  0  0  0
 11 17  1  0  0  0  0
 11 10  1  0  0  0  0
 12 13  1  0  0  0  0
 12 11  2  0  0  0  0
 14 12  1  0  0  0  0
 14 15  1  0  0  0  0
 15 16  1  0  0  0  0
 15 17  2  0  0  0  0
 18  1  1  0  0  0  0
 18 19  1  0  0  0  0
 19 20  1  0  0  0  0
 20 28  1  0  0  0  0
 20 21  2  0  0  0  0
 21 29  1  0  0  0  0
 22 21  1  0  0  0  0
 23 22  2  0  0  0  0
 24 19  2  0  0  0  0
 24 23  1  0  0  0  0
 25 26  2  0  0  0  0
 27 23  1  0  0  0  0
 27 25  1  0  0  0  0
 30 25  1  0  0  0  0
 31 27  1  0  0  0  0
M  END
>  <minimizedAffinity>
-4.08826637

$$$$

 OpenBabel03262521223D

 31 32  0  0  0  0  0  0  0  0999 V2000
   35.8960   21.8900   31.7380 C   0  0  0  0  0  0  0  0  0  0  0  0
   37.0050   21.9250   31.9570 H   0  0  0  0  0  0  0  0  0  0  0  0
   35.8310   21.5340   30.6850 H   0  0  0  0  0  0  0  0  0  0  0  0
   35.1550   21.2060   32.6300 C   0  0  0  0  0  0  0  0  0  0  0  0
   34.3160   20.5640   32.2520 H   0  0  0  0  0  0  0  0  0  0  0  0
   34.5580   21.9230   33.2830 H   0  0  0  0  0  0  0  0  0  0  0  0
   35.9150   20.3520   33.5870 C   0  0  0  0  0  0  0  0  0  0  0  0
   35.5810   19.2740   33.5440 H   0  0  0  0  0  0  0  0  0  0  0  0
   36.9820   20.3160   33.2630 H   0  0  0  0  0  0  0  0  0  0  0  0
   35.8360   20.9170   35.2720 S   0  0  0  0  0  0  0  0  0  0  0  0
   37.3250   21.9140   35.5630 C   0  0  0  0  0  0  0  0  0  0  0  0
   38.5390   22.0260   34.7930 C   0  0  0  0  0  0  0  0  0  0  0  0
   38.4450   21.3020   33.8300 H   0  0  0  0  0  0  0  0  0  0  0  0
   39.4540   23.2810   35.8860 S   0  0  0  0  0  0  0  0  0  0  0  0
   38.0210   23.3730   37.1140 C   0  0  0  0  0  0  0  0  0  0  0  0
   37.8640   23.9000   37.9890 H   0  0  0  0  0  0  0  0  0  0  0  0
   37.1550   22.6020   36.6750 N   0  0  0  0  0  0  0  0  0  0  0  0
   35.3100   23.1240   31.8340 O   0  0  0  0  0  0  0  0  0  0  0  0
   36.0770   24.2420   31.6340 C   0  0  0  0  0  0  0  0  0  0  0  0
   37.3180   24.1440   32.2180 C   0  0  0  0  0  0  0  0  0  0  0  0
   38.2230   25.2210   32.0980 C   0  0  0  0  0  0  0  0  0  0  0  0
   37.7850   26.3120   31.3890 N   0  0  0  0  0  0  0  0  0  0  0  0
   36.5470   26.3690   30.8260 C   0  0  0  0  0  0  0  0  0  0  0  0
   35.7140   25.3300   30.9590 N   0  0  0  0  0  0  0  0  0  0  0  0
   37.1970   28.5640   30.1170 C   0  0  0  0  0  0  0  0  0  0  0  0
   38.3280   28.4940   30.6800 O   0  0  0  0  0  0  0  0  0  0  0  0
   36.1920   27.5500   30.1140 N   0  0  0  0  0  0  0  0  0  0  0  0
   37.6930   23.3040   32.7800 H   0  0  0  0  0  0  0  0  0  0  0  0
   39.1960   25.1760   32.5400 H   0  0  0  0  0  0  0  0  0  0  0  0
   36.9800   29.5020   29.5840 H   0  0  0  0  0  0  0  0  0  0  0  0
   35.2660   27.6320   29.6410 H   0  0  0  0  0  0  0  0  0  0  0  0
  1 18  1  0  0  0  0
  1  2  1  0  0  0  0
  1  4  1  0  0  0  0
  3  1  1  0  0  0  0
  4  6  1  0  0  0  0
  4  7  1  0  0  0  0
  5  4  1  0  0  0  0
  7 10  1  0  0  0  0
  8  7  1  0  0  0  0
  9  7  1  0  0  0  0
 10 11  1  0  0  0  0
 11 17  1  0  0  0  0
 12 11  2  0  0  0  0
 12 14  1  0  0  0  0
 13 12  1  0  0  0  0
 14 15  1  0  0  0  0
 15 16  1  0  0  0  0
 17 15  2  0  0  0  0
 19 18  1  0  0  0  0
 19 20  1  0  0  0  0
 20 28  1  0  0  0  0
 21 20  2  0  0  0  0
 21 29  1  0  0  0  0
 22 21  1  0  0  0  0
 23 24  1  0  0  0  0
 23 22  2  0  0  0  0
 24 19  2  0  0  0  0
 25 26  2  0  0  0  0
 27 25  1  0  0  0  0
 27 23  1  0  0  0  0
 30 25  1  0  0  0  0
 31 27  1  0  0  0  0
M  END
>  <minimizedAffinity>
-4.03658295

$$$$
