
 OpenBabel03262521463D

 28 29  0  0  0  0  0  0  0  0999 V2000
   36.9540   29.2330   50.6320 C   0  0  0  0  0  0  0  0  0  0  0  0
   37.4800   28.3170   50.9770 H   0  0  0  0  0  0  0  0  0  0  0  0
   36.7560   29.0900   49.5380 H   0  0  0  0  0  0  0  0  0  0  0  0
   37.7340   30.4880   50.8390 C   0  0  0  0  0  0  0  0  0  0  0  0
   37.2490   31.1680   51.5800 H   0  0  0  0  0  0  0  0  0  0  0  0
   38.6990   30.1810   51.3400 H   0  0  0  0  0  0  0  0  0  0  0  0
   38.1100   31.1850   49.6210 C   0  0  0  0  0  0  0  0  0  0  0  0
   38.5340   32.4980   49.6080 C   0  0  0  0  0  0  0  0  0  0  0  0
   38.8750   33.0860   48.3810 C   0  0  0  0  0  0  0  0  0  0  0  0
   38.7640   32.3100   47.2520 N   0  0  0  0  0  0  0  0  0  0  0  0
   38.3430   31.0220   47.3030 C   0  0  0  0  0  0  0  0  0  0  0  0
   38.0180   30.4760   48.5080 N   0  0  0  0  0  0  0  0  0  0  0  0
   38.6050   33.0710   50.5220 H   0  0  0  0  0  0  0  0  0  0  0  0
   39.2140   34.1130   48.3120 H   0  0  0  0  0  0  0  0  0  0  0  0
   38.2770   30.4610   46.3710 H   0  0  0  0  0  0  0  0  0  0  0  0
   35.7120   29.3860   51.2570 O   0  0  0  0  0  0  0  0  0  0  0  0
   34.6980   30.5980   49.1920 O   0  0  0  0  0  0  0  0  0  0  0  0
   34.4590   29.4100   50.1360 P   0  0  2  0  0  0  0  0  0  0  0  0
   32.9800   29.7070   50.8640 O   0  0  0  0  0  0  0  0  0  0  0  0
   32.8190   29.2210   51.6930 H   0  0  0  0  0  0  0  0  0  0  0  0
   34.3670   27.9750   49.2810 O   0  0  0  0  0  0  0  0  0  0  0  0
   33.4540   27.8680   48.2110 C   0  0  0  0  0  0  0  0  0  0  0  0
   33.7920   27.8790   46.8170 C   0  0  0  0  0  0  0  0  0  0  0  0
   34.7590   27.9690   46.5380 H   0  0  0  0  0  0  0  0  0  0  0  0
   32.1590   27.7060   46.0760 S   0  0  0  0  0  0  0  0  0  0  0  0
   31.2770   27.6480   47.7810 C   0  0  0  0  0  0  0  0  0  0  0  0
   30.1690   27.5420   47.9340 H   0  0  0  0  0  0  0  0  0  0  0  0
   32.2460   27.7590   48.7350 N   0  0  0  0  0  0  0  0  0  0  0  0
  1  4  1  0  0  0  0
  1  2  1  0  0  0  0
  1 16  1  0  0  0  0
  3  1  1  0  0  0  0
  4  6  1  0  0  0  0
  4  5  1  0  0  0  0
  7  4  1  0  0  0  0
  8  7  1  0  0  0  0
  8 13  1  0  0  0  0
  9  8  2  0  0  0  0
 10 11  2  0  0  0  0
 10  9  1  0  0  0  0
 11 12  1  0  0  0  0
 12  7  2  0  0  0  0
 14  9  1  0  0  0  0
 15 11  1  0  0  0  0
 18 17  2  6  0  0  0
 18 19  1  0  0  0  0
 18 16  1  0  0  0  0
 19 20  1  0  0  0  0
 21 18  1  0  0  0  0
 22 28  1  0  0  0  0
 22 21  1  0  0  0  0
 23 22  2  0  0  0  0
 24 23  1  0  0  0  0
 25 23  1  0  0  0  0
 25 26  1  0  0  0  0
 26 27  1  0  0  0  0
 26 28  2  0  0  0  0
M  END
>  <minimizedAffinity>
-5.06496954

>  <minimizedRMSD>
0.333845824

$$$$
