
 OpenBabel03272502393D

 38 41  0  0  1  0  0  0  0  0999 V2000
   28.1060   31.4150   43.6520 N   0  0  0  0  0  0  0  0  0  0  0  0
   29.3640   31.1230   42.9800 C   0  0  0  0  0  0  0  0  0  0  0  0
   30.0790   30.2460   43.9660 C   0  0  0  0  0  0  0  0  0  0  0  0
   29.1670   30.2660   45.2730 C   0  0  1  0  0  0  0  0  0  0  0  0
   27.8430   30.3550   44.6500 C   0  0  0  0  0  0  0  0  0  0  0  0
   29.9540   32.0540   42.8940 H   0  0  0  0  0  0  0  0  0  0  0  0
   29.2480   30.6000   42.0240 H   0  0  0  0  0  0  0  0  0  0  0  0
   30.0950   29.1810   43.6970 H   0  0  0  0  0  0  0  0  0  0  0  0
   31.0600   30.5840   44.2880 H   0  0  0  0  0  0  0  0  0  0  0  0
   29.5550   31.1810   45.7380 H   0  0  0  0  0  0  0  0  0  0  0  0
   27.6240   29.4050   44.0990 H   0  0  0  0  0  0  0  0  0  0  0  0
   27.0170   30.6500   45.3010 H   0  0  0  0  0  0  0  0  0  0  0  0
   28.1800   29.9330   47.9050 F   0  0  0  0  0  0  0  0  0  0  0  0
   28.8800   28.9710   47.2830 C   0  0  0  0  0  0  0  0  0  0  0  0
   29.4410   29.0480   46.0350 C   0  0  0  0  0  0  0  0  0  0  0  0
   30.1350   27.9250   45.5570 C   0  0  0  0  0  0  0  0  0  0  0  0
   30.2650   26.7720   46.2910 C   0  0  0  0  0  0  0  0  0  0  0  0
   29.6790   26.7300   47.5630 C   0  0  0  0  0  0  0  0  0  0  0  0
   28.9780   27.8510   48.0610 C   0  0  0  0  0  0  0  0  0  0  0  0
   30.5440   28.0780   44.5680 H   0  0  0  0  0  0  0  0  0  0  0  0
   30.8030   25.9590   45.8660 H   0  0  0  0  0  0  0  0  0  0  0  0
   29.8420   25.7870   48.0480 H   0  0  0  0  0  0  0  0  0  0  0  0
   28.3970   27.6650   49.3900 C   0  0  0  0  0  0  0  0  0  0  0  0
   26.9640   28.0050   49.5700 C   0  0  0  0  0  0  0  0  0  0  0  0
   26.1890   28.3460   49.0530 H   0  0  0  0  0  0  0  0  0  0  0  0
   26.6420   27.6760   51.2660 S   0  0  0  0  0  0  0  0  0  0  0  0
   28.4390   27.1190   51.5740 C   0  0  0  0  0  0  0  0  0  0  0  0
   29.3120   26.6830   52.3940 H   0  0  0  0  0  0  0  0  0  0  0  0
   29.1680   27.2190   50.3680 N   0  0  0  0  0  0  0  0  0  0  0  0
   27.2540   32.5110   43.4290 C   0  0  0  0  0  0  0  0  0  0  0  0
   27.6950   33.4410   42.4760 C   0  0  0  0  0  0  0  0  0  0  0  0
   26.9010   34.5660   42.2000 C   0  0  0  0  0  0  0  0  0  0  0  0
   25.7180   34.6700   42.9080 N   0  0  0  0  0  0  0  0  0  0  0  0
   25.3330   33.7500   43.8160 C   0  0  0  0  0  0  0  0  0  0  0  0
   26.1060   32.6810   44.0650 N   0  0  0  0  0  0  0  0  0  0  0  0
   28.5950   33.3980   41.9140 H   0  0  0  0  0  0  0  0  0  0  0  0
   27.1990   35.3050   41.4780 H   0  0  0  0  0  0  0  0  0  0  0  0
   24.4080   33.8680   44.3420 H   0  0  0  0  0  0  0  0  0  0  0  0
  1  5  1  0  0  0  0
  2  1  1  0  0  0  0
  2  3  1  0  0  0  0
  3  9  1  0  0  0  0
  3  4  1  0  0  0  0
  4 10  1  1  0  0  0
  4 15  1  0  0  0  0
  5  4  1  0  0  0  0
  5 12  1  0  0  0  0
  6  2  1  0  0  0  0
  7  2  1  0  0  0  0
  8  3  1  0  0  0  0
 11  5  1  0  0  0  0
 14 13  1  0  0  0  0
 14 19  1  0  0  0  0
 15 14  2  0  0  0  0
 16 15  1  0  0  0  0
 16 17  2  0  0  0  0
 17 18  1  0  0  0  0
 18 22  1  0  0  0  0
 18 19  2  0  0  0  0
 19 23  1  0  0  0  0
 20 16  1  0  0  0  0
 21 17  1  0  0  0  0
 23 24  2  0  0  0  0
 23 29  1  0  0  0  0
 24 26  1  0  0  0  0
 25 24  1  0  0  0  0
 26 27  1  0  0  0  0
 27 28  1  0  0  0  0
 29 27  2  0  0  0  0
 30  1  1  0  0  0  0
 30 35  1  0  0  0  0
 31 30  2  0  0  0  0
 32 31  1  0  0  0  0
 32 33  2  0  0  0  0
 33 34  1  0  0  0  0
 34 35  2  0  0  0  0
 34 38  1  0  0  0  0
 36 31  1  0  0  0  0
 37 32  1  0  0  0  0
M  END
>  <minimizedAffinity>
-4.48825359

>  <minimizedRMSD>
8.89178944

$$$$
