
 OpenBabel03272506393D

 35 37  0  0  1  0  0  0  0  0999 V2000
   34.4920   29.5140   50.0800 O   0  0  0  0  0  0  0  0  0  0  0  0
   34.3330   29.5450   48.8530 C   0  0  0  0  0  0  0  0  0  0  0  0
   35.1530   30.3780   48.0010 C   0  0  2  0  0  0  0  0  0  0  0  0
   34.6880   29.9070   46.5850 C   0  0  0  0  0  0  0  0  0  0  0  0
   33.3000   29.4080   46.8280 C   0  0  0  0  0  0  0  0  0  0  0  0
   33.3420   28.7810   48.1350 N   0  0  0  0  0  0  0  0  0  0  0  0
   34.9370   31.4390   48.0980 H   0  0  0  0  0  0  0  0  0  0  0  0
   35.3710   29.1650   46.1750 H   0  0  0  0  0  0  0  0  0  0  0  0
   34.6400   30.8290   45.9830 H   0  0  0  0  0  0  0  0  0  0  0  0
   33.1080   28.5890   46.0910 H   0  0  0  0  0  0  0  0  0  0  0  0
   32.5380   30.1860   46.8010 H   0  0  0  0  0  0  0  0  0  0  0  0
   32.5630   27.6530   48.5770 C   0  0  0  0  0  0  0  0  0  0  0  0
   32.9420   27.3680   49.5970 H   0  0  0  0  0  0  0  0  0  0  0  0
   31.5350   27.9780   48.7330 H   0  0  0  0  0  0  0  0  0  0  0  0
   32.6930   26.4690   47.6540 C   0  0  0  0  0  0  0  0  0  0  0  0
   31.4900   25.9000   47.0440 C   0  0  0  0  0  0  0  0  0  0  0  0
   30.5730   26.2310   47.1840 H   0  0  0  0  0  0  0  0  0  0  0  0
   32.2190   24.5490   46.0720 S   0  0  0  0  0  0  0  0  0  0  0  0
   33.9910   24.9570   46.6290 C   0  0  0  0  0  0  0  0  0  0  0  0
   35.0420   24.5240   46.4260 H   0  0  0  0  0  0  0  0  0  0  0  0
   33.9400   26.0230   47.4660 N   0  0  0  0  0  0  0  0  0  0  0  0
   36.5470   30.0890   48.0610 O   0  0  0  0  0  0  0  0  0  0  0  0
   37.4260   31.1620   48.1790 C   0  0  0  0  0  0  0  0  0  0  0  0
   37.5910   31.6960   49.4430 C   0  0  0  0  0  0  0  0  0  0  0  0
   38.4600   32.7660   49.5920 C   0  0  0  0  0  0  0  0  0  0  0  0
   39.1090   33.2430   48.4940 N   0  0  0  0  0  0  0  0  0  0  0  0
   38.9360   32.7130   47.2730 C   0  0  0  0  0  0  0  0  0  0  0  0
   38.1040   31.6890   47.1370 N   0  0  0  0  0  0  0  0  0  0  0  0
   40.4590   32.2740   45.5110 C   0  0  0  0  0  0  0  0  0  0  0  0
   40.6350   31.0600   45.8290 O   0  0  0  0  0  0  0  0  0  0  0  0
   39.6300   33.2410   46.1470 N   0  0  0  0  0  0  0  0  0  0  0  0
   37.0610   31.2950   50.2970 H   0  0  0  0  0  0  0  0  0  0  0  0
   38.5840   33.1760   50.5750 H   0  0  0  0  0  0  0  0  0  0  0  0
   41.0580   32.5010   44.6380 H   0  0  0  0  0  0  0  0  0  0  0  0
   39.6460   34.1670   45.7130 H   0  0  0  0  0  0  0  0  0  0  0  0
  2  1  2  0  0  0  0
  3 22  1  0  0  0  0
  3  7  1  1  0  0  0
  3  2  1  0  0  0  0
  4  5  1  0  0  0  0
  4  3  1  0  0  0  0
  5  6  1  0  0  0  0
  6 12  1  0  0  0  0
  6  2  1  0  0  0  0
  8  4  1  0  0  0  0
  9  4  1  0  0  0  0
 10  5  1  0  0  0  0
 11  5  1  0  0  0  0
 12 14  1  0  0  0  0
 12 13  1  0  0  0  0
 15 12  1  0  0  0  0
 16 17  1  0  0  0  0
 16 15  2  0  0  0  0
 18 19  1  0  0  0  0
 18 16  1  0  0  0  0
 19 21  2  0  0  0  0
 20 19  1  0  0  0  0
 21 15  1  0  0  0  0
 22 23  1  0  0  0  0
 23 24  1  0  0  0  0
 24 25  2  0  0  0  0
 24 32  1  0  0  0  0
 25 33  1  0  0  0  0
 26 25  1  0  0  0  0
 27 26  2  0  0  0  0
 28 27  1  0  0  0  0
 28 23  2  0  0  0  0
 29 30  2  0  0  0  0
 29 31  1  0  0  0  0
 31 27  1  0  0  0  0
 34 29  1  0  0  0  0
 35 31  1  0  0  0  0
M  END
>  <minimizedAffinity>
-5.42832851

>  <minimizedRMSD>
1.43130755

$$$$
