
 OpenBabel03272509353D

 45 49  0  0  1  0  0  0  0  0999 V2000
   36.4430   30.5140   44.8380 C   0  0  1  0  0  0  0  0  0  0  0  0
   37.5090   31.3980   45.3790 C   0  0  0  0  0  0  0  0  0  0  0  0
   37.9130   30.0190   45.2070 C   0  0  2  0  0  0  0  0  0  0  0  0
   36.2480   30.3380   43.7910 H   0  0  0  0  0  0  0  0  0  0  0  0
   37.6130   32.2670   44.7320 H   0  0  0  0  0  0  0  0  0  0  0  0
   37.2890   31.7730   46.4480 H   0  0  0  0  0  0  0  0  0  0  0  0
   37.8050   29.1830   45.8880 H   0  0  0  0  0  0  0  0  0  0  0  0
   38.8690   29.8660   44.0580 C   0  0  0  0  0  0  0  0  0  0  0  0
   39.6700   31.0160   43.9510 C   0  0  0  0  0  0  0  0  0  0  0  0
   40.6900   31.0550   43.0350 C   0  0  0  0  0  0  0  0  0  0  0  0
   40.9600   29.9670   42.1930 C   0  0  0  0  0  0  0  0  0  0  0  0
   40.1480   28.8500   42.3290 C   0  0  0  0  0  0  0  0  0  0  0  0
   40.2920   27.7250   41.5640 C   0  0  0  0  0  0  0  0  0  0  0  0
   39.4910   26.6180   41.6790 C   0  0  0  0  0  0  0  0  0  0  0  0
   38.4790   26.6290   42.6150 C   0  0  0  0  0  0  0  0  0  0  0  0
   38.3240   27.7580   43.3920 C   0  0  0  0  0  0  0  0  0  0  0  0
   39.1550   28.8520   43.2420 C   0  0  0  0  0  0  0  0  0  0  0  0
   39.7360   31.9690   44.4350 H   0  0  0  0  0  0  0  0  0  0  0  0
   41.3990   31.8370   42.8110 H   0  0  0  0  0  0  0  0  0  0  0  0
   41.7270   29.8700   41.4340 H   0  0  0  0  0  0  0  0  0  0  0  0
   41.0770   27.6710   40.8120 H   0  0  0  0  0  0  0  0  0  0  0  0
   39.6430   25.7450   41.0500 H   0  0  0  0  0  0  0  0  0  0  0  0
   37.8120   25.7950   42.7610 H   0  0  0  0  0  0  0  0  0  0  0  0
   37.5080   27.7480   44.1370 H   0  0  0  0  0  0  0  0  0  0  0  0
   33.5100   28.6680   46.3270 C   0  0  0  0  0  0  0  0  0  0  0  0
   34.4760   29.1290   45.3780 C   0  0  0  0  0  0  0  0  0  0  0  0
   35.4330   30.0050   45.8000 C   0  0  0  0  0  0  0  0  0  0  0  0
   35.3860   30.3760   47.1280 N   0  0  0  0  0  0  0  0  0  0  0  0
   34.4780   29.9350   48.0020 C   0  0  0  0  0  0  0  0  0  0  0  0
   33.5250   29.0740   47.6150 N   0  0  0  0  0  0  0  0  0  0  0  0
   32.7880   27.9770   45.9140 H   0  0  0  0  0  0  0  0  0  0  0  0
   34.4610   28.8070   44.3640 H   0  0  0  0  0  0  0  0  0  0  0  0
   34.5670   30.4310   49.4190 C   0  0  0  0  0  0  0  0  0  0  0  0
   33.7970   31.1630   49.6460 H   0  0  0  0  0  0  0  0  0  0  0  0
   34.5090   29.5260   50.0790 H   0  0  0  0  0  0  0  0  0  0  0  0
   35.9770   31.0170   49.6010 C   0  0  0  0  0  0  0  0  0  0  0  0
   35.8340   32.0330   50.0750 H   0  0  0  0  0  0  0  0  0  0  0  0
   36.4350   31.2200   48.6350 H   0  0  0  0  0  0  0  0  0  0  0  0
   36.7870   30.1500   50.5080 C   0  0  0  0  0  0  0  0  0  0  0  0
   37.1830   30.5820   51.8370 C   0  0  0  0  0  0  0  0  0  0  0  0
   36.9050   31.5380   52.2130 H   0  0  0  0  0  0  0  0  0  0  0  0
   38.1110   29.1360   52.4030 S   0  0  0  0  0  0  0  0  0  0  0  0
   37.8220   28.1830   50.7680 C   0  0  0  0  0  0  0  0  0  0  0  0
   38.1900   27.1720   50.5420 H   0  0  0  0  0  0  0  0  0  0  0  0
   37.1270   28.9690   50.0380 N   0  0  0  0  0  0  0  0  0  0  0  0
  1  4  1  6  0  0  0
  1  3  1  0  0  0  0
  1  2  1  0  0  0  0
  1 27  1  0  0  0  0
  2  6  1  0  0  0  0
  3  2  1  0  0  0  0
  3  7  1  1  0  0  0
  5  2  1  0  0  0  0
  8  3  1  0  0  0  0
  9  8  1  0  0  0  0
  9 18  1  0  0  0  0
 10  9  2  0  0  0  0
 11 12  2  0  0  0  0
 11 10  1  0  0  0  0
 12 17  1  0  0  0  0
 13 14  2  0  0  0  0
 13 12  1  0  0  0  0
 14 15  1  0  0  0  0
 15 23  1  0  0  0  0
 15 16  2  0  0  0  0
 16 24  1  0  0  0  0
 17 16  1  0  0  0  0
 17  8  2  0  0  0  0
 19 10  1  0  0  0  0
 20 11  1  0  0  0  0
 21 13  1  0  0  0  0
 22 14  1  0  0  0  0
 25 30  1  0  0  0  0
 26 27  1  0  0  0  0
 26 25  2  0  0  0  0
 27 28  2  0  0  0  0
 28 29  1  0  0  0  0
 29 33  1  0  0  0  0
 30 29  2  0  0  0  0
 31 25  1  0  0  0  0
 32 26  1  0  0  0  0
 33 36  1  0  0  0  0
 33 34  1  0  0  0  0
 33 35  1  0  0  0  0
 36 37  1  0  0  0  0
 36 39  1  0  0  0  0
 38 36  1  0  0  0  0
 39 40  2  0  0  0  0
 40 41  1  0  0  0  0
 40 42  1  0  0  0  0
 43 42  1  0  0  0  0
 44 43  1  0  0  0  0
 45 39  1  0  0  0  0
 45 43  2  0  0  0  0
M  END
>  <minimizedAffinity>
-3.36431623

>  <minimizedRMSD>
2.84899211

$$$$
