
 OpenBabel03272507283D

 39 41  0  0  1  0  0  0  0  0999 V2000
   37.9780   30.5410   48.7020 C   0  0  0  0  0  0  0  0  0  0  0  0
   38.0010   30.9200   47.3430 C   0  0  0  0  0  0  0  0  0  0  0  0
   36.8390   30.7020   46.6060 C   0  0  0  0  0  0  0  0  0  0  0  0
   35.7750   30.1540   47.2130 N   0  0  0  0  0  0  0  0  0  0  0  0
   35.7870   29.8050   48.5130 C   0  0  0  0  0  0  0  0  0  0  0  0
   36.8770   29.9970   49.2490 N   0  0  0  0  0  0  0  0  0  0  0  0
   36.7750   31.0460   45.2610 N   0  0  0  0  0  0  0  0  0  0  0  0
   37.4860   32.1870   44.6260 C   0  0  0  0  0  0  0  0  0  0  0  0
   36.9930   32.3340   43.2510 C   0  0  0  0  0  0  0  0  0  0  0  0
   35.7080   31.6260   43.2830 C   0  0  0  0  0  0  0  0  0  0  0  0
   36.0440   30.4850   44.1700 C   0  0  2  0  0  0  0  0  0  0  0  0
   38.8670   30.6950   49.3130 H   0  0  0  0  0  0  0  0  0  0  0  0
   38.8910   31.3550   46.9200 H   0  0  0  0  0  0  0  0  0  0  0  0
   34.9720   29.3620   49.0630 H   0  0  0  0  0  0  0  0  0  0  0  0
   36.9660   33.0480   45.2510 H   0  0  0  0  0  0  0  0  0  0  0  0
   38.4930   32.3370   44.9110 H   0  0  0  0  0  0  0  0  0  0  0  0
   36.6350   33.4610   43.1950 H   0  0  0  0  0  0  0  0  0  0  0  0
   37.6400   32.3320   42.4100 H   0  0  0  0  0  0  0  0  0  0  0  0
   35.4690   31.2970   42.2280 H   0  0  0  0  0  0  0  0  0  0  0  0
   34.8500   32.2190   43.6480 H   0  0  0  0  0  0  0  0  0  0  0  0
   34.7800   29.7300   44.5740 C   0  0  0  0  0  0  0  0  0  0  0  0
   34.1460   30.4560   45.5590 F   0  0  0  0  0  0  0  0  0  0  0  0
   34.9830   28.4780   45.0840 F   0  0  0  0  0  0  0  0  0  0  0  0
   33.9480   29.7390   43.4790 F   0  0  0  0  0  0  0  0  0  0  0  0
   36.9000   29.5220   43.5190 C   0  0  2  0  0  0  0  0  0  0  0  0
   37.0590   28.6470   44.1170 H   0  0  0  0  0  0  0  0  0  0  0  0
   38.4270   29.9620   43.4430 C   0  0  0  0  0  0  0  0  0  0  0  0
   38.7890   30.0080   41.9280 C   0  0  0  0  0  0  0  0  0  0  0  0
   38.4490   29.8920   40.8360 H   0  0  0  0  0  0  0  0  0  0  0  0
   40.6080   30.4900   41.9470 S   0  0  0  0  0  0  0  0  0  0  0  0
   40.5770   30.5440   43.8270 C   0  0  0  0  0  0  0  0  0  0  0  0
   41.2950   30.7600   44.6030 H   0  0  0  0  0  0  0  0  0  0  0  0
   39.5300   30.2750   44.0620 N   0  0  0  0  0  0  0  0  0  0  0  0
   36.5830   29.4840   42.3110 O   0  0  0  0  0  0  0  0  0  0  0  0
   36.1130   28.6240   41.3870 C   0  0  0  0  0  0  0  0  0  0  0  0
   35.2710   29.1550   40.6590 O   0  0  0  0  0  0  0  0  0  0  0  0
   36.1490   27.3150   40.8340 N   0  0  0  0  0  0  0  0  0  0  0  0
   35.6440   26.4790   41.2140 H   0  0  0  0  0  0  0  0  0  0  0  0
   36.6950   27.0700   39.9840 H   0  0  0  0  0  0  0  0  0  0  0  0
  1  6  1  0  0  0  0
  1 12  1  0  0  0  0
  2  1  2  0  0  0  0
  3  4  2  0  0  0  0
  3  2  1  0  0  0  0
  4  5  1  0  0  0  0
  5 14  1  0  0  0  0
  5  6  2  0  0  0  0
  7  3  1  0  0  0  0
  8 16  1  0  0  0  0
  8 15  1  0  0  0  0
  8  7  1  0  0  0  0
  9 10  1  0  0  0  0
  9  8  1  0  0  0  0
 10 20  1  0  0  0  0
 10 11  1  0  0  0  0
 11 21  1  1  0  0  0
 11  7  1  0  0  0  0
 13  2  1  0  0  0  0
 17  9  1  0  0  0  0
 18  9  1  0  0  0  0
 19 10  1  0  0  0  0
 21 23  1  0  0  0  0
 21 22  1  0  0  0  0
 24 21  1  0  0  0  0
 25 26  1  1  0  0  0
 25 11  1  0  0  0  0
 27 25  1  0  0  0  0
 27 33  1  0  0  0  0
 28 30  1  0  0  0  0
 28 27  2  0  0  0  0
 29 28  1  0  0  0  0
 30 31  1  0  0  0  0
 31 33  2  0  0  0  0
 31 32  1  0  0  0  0
 34 25  1  0  0  0  0
 35 34  1  0  0  0  0
 36 35  2  0  0  0  0
 37 38  1  0  0  0  0
 37 35  1  0  0  0  0
 39 37  1  0  0  0  0
M  END
>  <minimizedAffinity>
-3.81735945

>  <minimizedRMSD>
3.59446549

$$$$
