
 OpenBabel03272500383D

 34 36  0  0  1  0  0  0  0  0999 V2000
   36.7190   31.1300   48.8260 C   0  0  0  0  0  0  0  0  0  0  0  0
   37.0230   32.2320   49.6540 C   0  0  0  0  0  0  0  0  0  0  0  0
   37.9930   33.1280   49.1990 C   0  0  0  0  0  0  0  0  0  0  0  0
   38.5820   32.8840   47.9890 N   0  0  0  0  0  0  0  0  0  0  0  0
   38.2570   31.8180   47.2360 C   0  0  0  0  0  0  0  0  0  0  0  0
   37.3280   30.9380   47.6470 N   0  0  0  0  0  0  0  0  0  0  0  0
   38.9370   31.6570   45.9830 N   0  0  0  0  0  0  0  0  0  0  0  0
   40.1560   30.8770   45.9460 C   0  0  0  0  0  0  0  0  0  0  0  0
   41.1190   31.7150   45.0990 C   0  0  0  0  0  0  0  0  0  0  0  0
   40.5610   31.6230   43.7050 C   0  0  0  0  0  0  0  0  0  0  0  0
   39.2740   32.3700   43.6450 C   0  0  0  0  0  0  0  0  0  0  0  0
   38.3810   32.2700   44.8390 C   0  0  1  0  0  0  0  0  0  0  0  0
   36.5290   32.3790   50.6020 H   0  0  0  0  0  0  0  0  0  0  0  0
   38.2420   33.9660   49.8030 H   0  0  0  0  0  0  0  0  0  0  0  0
   40.5840   30.7500   46.9560 H   0  0  0  0  0  0  0  0  0  0  0  0
   40.0250   29.9120   45.4020 H   0  0  0  0  0  0  0  0  0  0  0  0
   42.0730   31.1260   45.0900 H   0  0  0  0  0  0  0  0  0  0  0  0
   41.2170   32.7370   45.4700 H   0  0  0  0  0  0  0  0  0  0  0  0
   40.4370   30.5410   43.4820 H   0  0  0  0  0  0  0  0  0  0  0  0
   41.2730   32.0630   42.9810 H   0  0  0  0  0  0  0  0  0  0  0  0
   38.7120   31.9390   42.7750 H   0  0  0  0  0  0  0  0  0  0  0  0
   39.5010   33.4090   43.3270 H   0  0  0  0  0  0  0  0  0  0  0  0
   38.1840   33.3360   45.1460 H   0  0  0  0  0  0  0  0  0  0  0  0
   37.0870   31.6080   44.5110 C   0  0  0  0  0  0  0  0  0  0  0  0
   35.9480   32.2870   43.8590 C   0  0  0  0  0  0  0  0  0  0  0  0
   36.1150   33.4460   43.5990 H   0  0  0  0  0  0  0  0  0  0  0  0
   34.7330   30.9220   43.7520 S   0  0  0  0  0  0  0  0  0  0  0  0
   35.8880   29.7130   44.5610 C   0  0  0  0  0  0  0  0  0  0  0  0
   35.5560   28.6830   44.7160 H   0  0  0  0  0  0  0  0  0  0  0  0
   36.8870   30.3450   44.7860 N   0  0  0  0  0  0  0  0  0  0  0  0
   35.6790   30.1560   49.2970 C   0  0  0  0  0  0  0  0  0  0  0  0
   34.4090   30.7290   49.1250 F   0  0  0  0  0  0  0  0  0  0  0  0
   35.8410   28.9930   48.6340 F   0  0  0  0  0  0  0  0  0  0  0  0
   35.8420   30.0100   50.6680 F   0  0  0  0  0  0  0  0  0  0  0  0
  1 31  1  0  0  0  0
  1  2  1  0  0  0  0
  2 13  1  0  0  0  0
  3  2  2  0  0  0  0
  3 14  1  0  0  0  0
  4  3  1  0  0  0  0
  5  6  1  0  0  0  0
  5  4  2  0  0  0  0
  6  1  2  0  0  0  0
  7  5  1  0  0  0  0
  8  7  1  0  0  0  0
  8 15  1  0  0  0  0
  9 18  1  0  0  0  0
  9  8  1  0  0  0  0
 10  9  1  0  0  0  0
 11 10  1  0  0  0  0
 11 12  1  0  0  0  0
 12 23  1  1  0  0  0
 12  7  1  0  0  0  0
 16  8  1  0  0  0  0
 17  9  1  0  0  0  0
 19 10  1  0  0  0  0
 20 10  1  0  0  0  0
 21 11  1  0  0  0  0
 22 11  1  0  0  0  0
 24 30  1  0  0  0  0
 24 12  1  0  0  0  0
 25 24  2  0  0  0  0
 26 25  1  0  0  0  0
 27 25  1  0  0  0  0
 27 28  1  0  0  0  0
 28 29  1  0  0  0  0
 28 30  2  0  0  0  0
 31 34  1  0  0  0  0
 32 31  1  0  0  0  0
 33 31  1  0  0  0  0
M  END
>  <minimizedAffinity>
-5.46712732

>  <minimizedRMSD>
0.594496131

$$$$
