
 OpenBabel03272509473D

 23 24  0  0  0  0  0  0  0  0999 V2000
   34.1080   28.4580   48.5900 C   0  0  0  0  0  0  0  0  0  0  0  0
   33.1430   29.0270   48.6680 H   0  0  0  0  0  0  0  0  0  0  0  0
   34.7350   29.0100   47.8440 H   0  0  0  0  0  0  0  0  0  0  0  0
   33.8030   27.1130   47.9730 C   0  0  0  0  0  0  0  0  0  0  0  0
   33.1200   26.5600   48.6310 H   0  0  0  0  0  0  0  0  0  0  0  0
   34.7130   26.5190   47.8390 H   0  0  0  0  0  0  0  0  0  0  0  0
   33.1370   27.4190   46.6560 C   0  0  0  0  0  0  0  0  0  0  0  0
   33.4080   28.7800   46.2110 C   0  0  0  0  0  0  0  0  0  0  0  0
   33.9710   29.6020   46.6130 H   0  0  0  0  0  0  0  0  0  0  0  0
   32.4960   28.8880   44.6100 S   0  0  0  0  0  0  0  0  0  0  0  0
   31.9120   27.0910   44.8160 C   0  0  0  0  0  0  0  0  0  0  0  0
   31.2630   26.1430   44.3540 H   0  0  0  0  0  0  0  0  0  0  0  0
   32.3720   26.7760   45.7960 N   0  0  0  0  0  0  0  0  0  0  0  0
   34.7420   28.2930   49.8350 O   0  0  0  0  0  0  0  0  0  0  0  0
   37.3650   30.2450   51.4200 C   0  0  0  0  0  0  0  0  0  0  0  0
   38.0560   30.6720   50.2730 C   0  0  0  0  0  0  0  0  0  0  0  0
   37.5920   30.2700   49.0250 C   0  0  0  0  0  0  0  0  0  0  0  0
   36.4790   29.4780   48.9970 N   0  0  0  0  0  0  0  0  0  0  0  0
   35.8400   29.0890   50.1240 C   0  0  0  0  0  0  0  0  0  0  0  0
   36.2950   29.4810   51.3190 N   0  0  0  0  0  0  0  0  0  0  0  0
   37.6990   30.5390   52.4100 H   0  0  0  0  0  0  0  0  0  0  0  0
   38.9390   31.3040   50.3640 H   0  0  0  0  0  0  0  0  0  0  0  0
   38.0930   30.5740   48.1150 H   0  0  0  0  0  0  0  0  0  0  0  0
  1  2  1  0  0  0  0
  1 14  1  0  0  0  0
  3  1  1  0  0  0  0
  4  1  1  0  0  0  0
  4  5  1  0  0  0  0
  6  4  1  0  0  0  0
  7  4  1  0  0  0  0
  8  9  1  0  0  0  0
  8  7  2  0  0  0  0
 10 11  1  0  0  0  0
 10  8  1  0  0  0  0
 11 13  2  0  0  0  0
 12 11  1  0  0  0  0
 13  7  1  0  0  0  0
 14 19  1  0  0  0  0
 15 21  1  0  0  0  0
 16 22  1  0  0  0  0
 16 15  2  0  0  0  0
 17 16  1  0  0  0  0
 18 17  2  0  0  0  0
 18 19  1  0  0  0  0
 19 20  2  0  0  0  0
 20 15  1  0  0  0  0
 23 17  1  0  0  0  0
M  END
>  <minimizedAffinity>
-3.58801293

>  <minimizedRMSD>
0.159423068

$$$$
