
 OpenBabel03272506443D

 30 32  0  0  1  0  0  0  0  0999 V2000
   37.8040   24.9560   32.3690 C   0  0  2  0  0  0  0  0  0  0  0  0
   37.5850   23.8390   31.3610 C   0  0  1  0  0  0  0  0  0  0  0  0
   38.3640   22.7700   31.7430 O   0  0  0  0  0  0  0  0  0  0  0  0
   38.9020   23.0310   32.9800 C   0  0  0  0  0  0  0  0  0  0  0  0
   38.0490   24.1400   33.6010 C   0  0  1  0  0  0  0  0  0  0  0  0
   38.7100   25.5530   32.1250 H   0  0  0  0  0  0  0  0  0  0  0  0
   37.7790   24.2230   30.3520 H   0  0  0  0  0  0  0  0  0  0  0  0
   39.9740   23.3070   32.9500 H   0  0  0  0  0  0  0  0  0  0  0  0
   38.7250   22.1410   33.6260 H   0  0  0  0  0  0  0  0  0  0  0  0
   37.1360   23.7250   34.0320 H   0  0  0  0  0  0  0  0  0  0  0  0
   36.6850   25.7660   32.4780 O   0  0  0  0  0  0  0  0  0  0  0  0
   36.5650   26.2580   31.6430 H   0  0  0  0  0  0  0  0  0  0  0  0
   35.8340   23.3380   31.5530 S   0  0  0  0  0  0  0  0  0  0  0  0
   35.5090   19.9060   33.4900 C   0  0  0  0  0  0  0  0  0  0  0  0
   35.6400   18.9170   32.5200 C   0  0  0  0  0  0  0  0  0  0  0  0
   35.8390   19.3300   31.1940 C   0  0  0  0  0  0  0  0  0  0  0  0
   35.8910   20.6610   30.9520 N   0  0  0  0  0  0  0  0  0  0  0  0
   35.7620   21.5950   31.9070 C   0  0  0  0  0  0  0  0  0  0  0  0
   35.5690   21.2170   33.1890 N   0  0  0  0  0  0  0  0  0  0  0  0
   35.3560   19.5530   34.5050 H   0  0  0  0  0  0  0  0  0  0  0  0
   35.5980   17.8530   32.7230 H   0  0  0  0  0  0  0  0  0  0  0  0
   35.9530   18.6510   30.3640 H   0  0  0  0  0  0  0  0  0  0  0  0
   38.7910   24.8080   34.5700 O   0  0  0  0  0  0  0  0  0  0  0  0
   38.9110   24.1580   35.8070 C   0  0  0  0  0  0  0  0  0  0  0  0
   37.7960   24.5060   36.6550 C   0  0  0  0  0  0  0  0  0  0  0  0
   36.9280   25.1060   36.6020 H   0  0  0  0  0  0  0  0  0  0  0  0
   38.1600   23.5310   38.2410 S   0  0  0  0  0  0  0  0  0  0  0  0
   39.7400   22.8600   37.4260 C   0  0  0  0  0  0  0  0  0  0  0  0
   40.7560   22.1430   37.5170 H   0  0  0  0  0  0  0  0  0  0  0  0
   39.7490   23.3280   36.3990 N   0  0  0  0  0  0  0  0  0  0  0  0
  1  6  1  6  0  0  0
  1 11  1  0  0  0  0
  1  5  1  0  0  0  0
  2  7  1  6  0  0  0
  2 13  1  0  0  0  0
  2  3  1  0  0  0  0
  2  1  1  0  0  0  0
  3  4  1  0  0  0  0
  4  5  1  0  0  0  0
  4  9  1  0  0  0  0
  5 10  1  1  0  0  0
  5 23  1  0  0  0  0
  8  4  1  0  0  0  0
 12 11  1  0  0  0  0
 13 18  1  0  0  0  0
 14 20  1  0  0  0  0
 15 21  1  0  0  0  0
 15 14  2  0  0  0  0
 16 15  1  0  0  0  0
 17 16  2  0  0  0  0
 17 18  1  0  0  0  0
 18 19  2  0  0  0  0
 19 14  1  0  0  0  0
 22 16  1  0  0  0  0
 23 24  1  0  0  0  0
 24 30  1  0  0  0  0
 24 25  2  0  0  0  0
 25 27  1  0  0  0  0
 26 25  1  0  0  0  0
 28 29  1  0  0  0  0
 28 27  1  0  0  0  0
 30 28  2  0  0  0  0
M  END
>  <minimizedAffinity>
-4.3728981

$$$$

 OpenBabel03272506443D

 30 32  0  0  1  0  0  0  0  0999 V2000
   38.8080   23.1450   36.1990 C   0  0  2  0  0  0  0  0  0  0  0  0
   37.7230   24.1320   36.6000 C   0  0  1  0  0  0  0  0  0  0  0  0
   37.5870   24.0730   37.9680 O   0  0  0  0  0  0  0  0  0  0  0  0
   38.5950   23.2920   38.4830 C   0  0  0  0  0  0  0  0  0  0  0  0
   39.6850   23.2260   37.4100 C   0  0  1  0  0  0  0  0  0  0  0  0
   38.4020   22.1140   36.0940 H   0  0  0  0  0  0  0  0  0  0  0  0
   36.8120   23.9160   36.0290 H   0  0  0  0  0  0  0  0  0  0  0  0
   38.2620   22.2830   38.7920 H   0  0  0  0  0  0  0  0  0  0  0  0
   39.0610   23.8480   39.3280 H   0  0  0  0  0  0  0  0  0  0  0  0
   40.3020   24.1260   37.4350 H   0  0  0  0  0  0  0  0  0  0  0  0
   39.4540   23.5470   35.0420 O   0  0  0  0  0  0  0  0  0  0  0  0
   38.8320   23.4910   34.2910 H   0  0  0  0  0  0  0  0  0  0  0  0
   38.3870   25.7880   36.1870 S   0  0  0  0  0  0  0  0  0  0  0  0
   36.8970   25.9860   32.5290 C   0  0  0  0  0  0  0  0  0  0  0  0
   36.3440   27.2580   32.4210 C   0  0  0  0  0  0  0  0  0  0  0  0
   36.4350   28.1030   33.5370 C   0  0  0  0  0  0  0  0  0  0  0  0
   37.0540   27.6230   34.6400 N   0  0  0  0  0  0  0  0  0  0  0  0
   37.5800   26.3900   34.7190 C   0  0  0  0  0  0  0  0  0  0  0  0
   37.5020   25.5620   33.6550 N   0  0  0  0  0  0  0  0  0  0  0  0
   36.8100   25.3570   31.6480 H   0  0  0  0  0  0  0  0  0  0  0  0
   35.8500   27.6350   31.5320 H   0  0  0  0  0  0  0  0  0  0  0  0
   36.0420   29.1070   33.5630 H   0  0  0  0  0  0  0  0  0  0  0  0
   40.4620   22.0900   37.6090 O   0  0  0  0  0  0  0  0  0  0  0  0
   41.6860   22.0580   36.9240 C   0  0  0  0  0  0  0  0  0  0  0  0
   42.2800   20.7480   37.0400 C   0  0  0  0  0  0  0  0  0  0  0  0
   42.0510   19.8200   37.4910 H   0  0  0  0  0  0  0  0  0  0  0  0
   43.8920   20.9330   36.0590 S   0  0  0  0  0  0  0  0  0  0  0  0
   43.4260   22.7390   35.6990 C   0  0  0  0  0  0  0  0  0  0  0  0
   43.7220   23.8220   35.1550 H   0  0  0  0  0  0  0  0  0  0  0  0
   42.4320   22.8830   36.2140 N   0  0  0  0  0  0  0  0  0  0  0  0
  1  6  1  6  0  0  0
  1  2  1  0  0  0  0
  1  5  1  0  0  0  0
  2  7  1  6  0  0  0
  2  3  1  0  0  0  0
  3  4  1  0  0  0  0
  4  8  1  0  0  0  0
  4  9  1  0  0  0  0
  5 10  1  6  0  0  0
  5 23  1  0  0  0  0
  5  4  1  0  0  0  0
 11  1  1  0  0  0  0
 12 11  1  0  0  0  0
 13  2  1  0  0  0  0
 14 19  1  0  0  0  0
 15 14  2  0  0  0  0
 15 16  1  0  0  0  0
 16 22  1  0  0  0  0
 16 17  2  0  0  0  0
 17 18  1  0  0  0  0
 18 13  1  0  0  0  0
 19 18  2  0  0  0  0
 20 14  1  0  0  0  0
 21 15  1  0  0  0  0
 24 25  2  0  0  0  0
 24 23  1  0  0  0  0
 25 26  1  0  0  0  0
 27 25  1  0  0  0  0
 28 27  1  0  0  0  0
 28 30  2  0  0  0  0
 29 28  1  0  0  0  0
 30 24  1  0  0  0  0
M  END
>  <minimizedAffinity>
-4.33253908

$$$$

 OpenBabel03272506443D

 30 32  0  0  1  0  0  0  0  0999 V2000
   37.3850   25.4680   31.4280 C   0  0  2  0  0  0  0  0  0  0  0  0
   37.4840   23.9520   31.4950 C   0  0  1  0  0  0  0  0  0  0  0  0
   37.9680   23.6170   32.7390 O   0  0  0  0  0  0  0  0  0  0  0  0
   38.0080   24.7460   33.5200 C   0  0  0  0  0  0  0  0  0  0  0  0
   37.0720   25.7640   32.8630 C   0  0  1  0  0  0  0  0  0  0  0  0
   38.3590   25.9270   31.1520 H   0  0  0  0  0  0  0  0  0  0  0  0
   38.0810   23.5940   30.6480 H   0  0  0  0  0  0  0  0  0  0  0  0
   39.0270   25.1570   33.6580 H   0  0  0  0  0  0  0  0  0  0  0  0
   37.5260   24.5050   34.4950 H   0  0  0  0  0  0  0  0  0  0  0  0
   36.0330   25.5570   33.1290 H   0  0  0  0  0  0  0  0  0  0  0  0
   36.3780   25.8710   30.5660 O   0  0  0  0  0  0  0  0  0  0  0  0
   36.6270   25.6380   29.6520 H   0  0  0  0  0  0  0  0  0  0  0  0
   35.7600   23.3410   31.3950 S   0  0  0  0  0  0  0  0  0  0  0  0
   35.3980   19.9220   33.3490 C   0  0  0  0  0  0  0  0  0  0  0  0
   35.6800   18.9290   32.4160 C   0  0  0  0  0  0  0  0  0  0  0  0
   35.9990   19.3340   31.1120 C   0  0  0  0  0  0  0  0  0  0  0  0
   36.0120   20.6620   30.8520 N   0  0  0  0  0  0  0  0  0  0  0  0
   35.7360   21.6010   31.7710 C   0  0  0  0  0  0  0  0  0  0  0  0
   35.4260   21.2300   33.0320 N   0  0  0  0  0  0  0  0  0  0  0  0
   35.1540   19.5750   34.3480 H   0  0  0  0  0  0  0  0  0  0  0  0
   35.6680   17.8660   32.6340 H   0  0  0  0  0  0  0  0  0  0  0  0
   36.2340   18.6500   30.3110 H   0  0  0  0  0  0  0  0  0  0  0  0
   37.4340   27.0480   33.2560 O   0  0  0  0  0  0  0  0  0  0  0  0
   36.4370   28.0290   33.1370 C   0  0  0  0  0  0  0  0  0  0  0  0
   36.1150   28.5620   34.4380 C   0  0  0  0  0  0  0  0  0  0  0  0
   36.4180   28.4210   35.4410 H   0  0  0  0  0  0  0  0  0  0  0  0
   34.7750   29.8450   34.0420 S   0  0  0  0  0  0  0  0  0  0  0  0
   34.9320   29.3910   32.2040 C   0  0  0  0  0  0  0  0  0  0  0  0
   34.5550   29.5800   31.0300 H   0  0  0  0  0  0  0  0  0  0  0  0
   35.7260   28.5890   32.1770 N   0  0  0  0  0  0  0  0  0  0  0  0
  1  6  1  6  0  0  0
  1  2  1  0  0  0  0
  1  5  1  0  0  0  0
  2  7  1  6  0  0  0
  2  3  1  0  0  0  0
  3  4  1  0  0  0  0
  4  8  1  0  0  0  0
  4  9  1  0  0  0  0
  5 10  1  1  0  0  0
  5 23  1  0  0  0  0
  5  4  1  0  0  0  0
 11  1  1  0  0  0  0
 12 11  1  0  0  0  0
 13  2  1  0  0  0  0
 13 18  1  0  0  0  0
 14 20  1  0  0  0  0
 15 21  1  0  0  0  0
 15 14  2  0  0  0  0
 16 15  1  0  0  0  0
 17 16  2  0  0  0  0
 17 18  1  0  0  0  0
 18 19  2  0  0  0  0
 19 14  1  0  0  0  0
 22 16  1  0  0  0  0
 24 23  1  0  0  0  0
 24 25  2  0  0  0  0
 25 26  1  0  0  0  0
 27 25  1  0  0  0  0
 28 27  1  0  0  0  0
 29 28  1  0  0  0  0
 30 28  2  0  0  0  0
 30 24  1  0  0  0  0
M  END
>  <minimizedAffinity>
-4.32687521

$$$$

 OpenBabel03272506443D

 30 32  0  0  1  0  0  0  0  0999 V2000
   36.9970   27.2180   31.2180 C   0  0  2  0  0  0  0  0  0  0  0  0
   37.2420   25.7940   31.6920 C   0  0  1  0  0  0  0  0  0  0  0  0
   37.3580   25.8230   33.0640 O   0  0  0  0  0  0  0  0  0  0  0  0
   37.0270   27.0790   33.5120 C   0  0  0  0  0  0  0  0  0  0  0  0
   36.2280   27.7460   32.3900 C   0  0  1  0  0  0  0  0  0  0  0  0
   37.9500   27.7800   31.1070 H   0  0  0  0  0  0  0  0  0  0  0  0
   38.1060   25.3820   31.1580 H   0  0  0  0  0  0  0  0  0  0  0  0
   37.9020   27.6890   33.8110 H   0  0  0  0  0  0  0  0  0  0  0  0
   36.3010   26.9640   34.3490 H   0  0  0  0  0  0  0  0  0  0  0  0
   35.1890   27.4130   32.4100 H   0  0  0  0  0  0  0  0  0  0  0  0
   36.2630   27.2400   30.0430 O   0  0  0  0  0  0  0  0  0  0  0  0
   36.8050   26.8690   29.3210 H   0  0  0  0  0  0  0  0  0  0  0  0
   35.7120   24.8700   31.2910 S   0  0  0  0  0  0  0  0  0  0  0  0
   37.4700   21.3460   30.9420 C   0  0  0  0  0  0  0  0  0  0  0  0
   36.6060   20.4370   31.5450 C   0  0  0  0  0  0  0  0  0  0  0  0
   35.4140   20.9380   32.0900 C   0  0  0  0  0  0  0  0  0  0  0  0
   35.1880   22.2690   31.9900 N   0  0  0  0  0  0  0  0  0  0  0  0
   36.0390   23.1240   31.4030 C   0  0  0  0  0  0  0  0  0  0  0  0
   37.1920   22.6610   30.8730 N   0  0  0  0  0  0  0  0  0  0  0  0
   38.3830   20.9260   30.5310 H   0  0  0  0  0  0  0  0  0  0  0  0
   36.7950   19.3720   31.6190 H   0  0  0  0  0  0  0  0  0  0  0  0
   34.6730   20.3250   32.5790 H   0  0  0  0  0  0  0  0  0  0  0  0
   36.3040   29.1290   32.5250 O   0  0  0  0  0  0  0  0  0  0  0  0
   35.4070   29.7060   33.4360 C   0  0  0  0  0  0  0  0  0  0  0  0
   34.0520   29.3710   33.0700 C   0  0  0  0  0  0  0  0  0  0  0  0
   33.5560   28.8200   32.3170 H   0  0  0  0  0  0  0  0  0  0  0  0
   33.0320   30.2390   34.4140 S   0  0  0  0  0  0  0  0  0  0  0  0
   34.6490   30.8710   35.1860 C   0  0  0  0  0  0  0  0  0  0  0  0
   35.2070   31.5280   36.0870 H   0  0  0  0  0  0  0  0  0  0  0  0
   35.4610   30.4580   34.5190 N   0  0  0  0  0  0  0  0  0  0  0  0
  1  6  1  6  0  0  0
  1  2  1  0  0  0  0
  1  5  1  0  0  0  0
  2  7  1  6  0  0  0
  2  3  1  0  0  0  0
  3  4  1  0  0  0  0
  4  8  1  0  0  0  0
  4  9  1  0  0  0  0
  5 10  1  6  0  0  0
  5 23  1  0  0  0  0
  5  4  1  0  0  0  0
 11  1  1  0  0  0  0
 12 11  1  0  0  0  0
 13 18  1  0  0  0  0
 13  2  1  0  0  0  0
 14 15  1  0  0  0  0
 15 21  1  0  0  0  0
 15 16  2  0  0  0  0
 16 22  1  0  0  0  0
 17 16  1  0  0  0  0
 18 17  2  0  0  0  0
 19 14  2  0  0  0  0
 19 18  1  0  0  0  0
 20 14  1  0  0  0  0
 23 24  1  0  0  0  0
 24 30  1  0  0  0  0
 25 24  2  0  0  0  0
 25 27  1  0  0  0  0
 26 25  1  0  0  0  0
 27 28  1  0  0  0  0
 28 29  1  0  0  0  0
 30 28  2  0  0  0  0
M  END
>  <minimizedAffinity>
-4.23945951

$$$$

 OpenBabel03272506443D

 30 32  0  0  1  0  0  0  0  0999 V2000
   37.6410   23.7610   30.4840 C   0  0  2  0  0  0  0  0  0  0  0  0
   38.2230   25.0450   31.0540 C   0  0  1  0  0  0  0  0  0  0  0  0
   37.2030   25.7270   31.6780 O   0  0  0  0  0  0  0  0  0  0  0  0
   36.0900   24.9230   31.7200 C   0  0  0  0  0  0  0  0  0  0  0  0
   36.5790   23.4890   31.5060 C   0  0  1  0  0  0  0  0  0  0  0  0
   37.1730   23.9330   29.4900 H   0  0  0  0  0  0  0  0  0  0  0  0
   38.7330   25.5940   30.2540 H   0  0  0  0  0  0  0  0  0  0  0  0
   35.3100   25.2040   30.9850 H   0  0  0  0  0  0  0  0  0  0  0  0
   35.6960   24.9370   32.7620 H   0  0  0  0  0  0  0  0  0  0  0  0
   36.9730   23.0760   32.4360 H   0  0  0  0  0  0  0  0  0  0  0  0
   38.5940   22.7580   30.4230 O   0  0  0  0  0  0  0  0  0  0  0  0
   39.2670   22.9960   29.7570 H   0  0  0  0  0  0  0  0  0  0  0  0
   39.4030   24.5170   32.3520 S   0  0  0  0  0  0  0  0  0  0  0  0
   39.2010   27.1790   35.2690 C   0  0  0  0  0  0  0  0  0  0  0  0
   38.3690   26.6140   36.2310 C   0  0  0  0  0  0  0  0  0  0  0  0
   37.8410   25.3420   35.9670 C   0  0  0  0  0  0  0  0  0  0  0  0
   38.1770   24.7530   34.7960 N   0  0  0  0  0  0  0  0  0  0  0  0
   38.9820   25.3200   33.8840 C   0  0  0  0  0  0  0  0  0  0  0  0
   39.5000   26.5440   34.1200 N   0  0  0  0  0  0  0  0  0  0  0  0
   39.5920   28.1640   35.5040 H   0  0  0  0  0  0  0  0  0  0  0  0
   38.1060   27.0940   37.1670 H   0  0  0  0  0  0  0  0  0  0  0  0
   37.1870   24.8120   36.6420 H   0  0  0  0  0  0  0  0  0  0  0  0
   35.5340   22.7090   31.0240 O   0  0  0  0  0  0  0  0  0  0  0  0
   35.6920   21.3210   31.1580 C   0  0  0  0  0  0  0  0  0  0  0  0
   34.8830   20.8370   32.2500 C   0  0  0  0  0  0  0  0  0  0  0  0
   34.2140   21.2330   32.9660 H   0  0  0  0  0  0  0  0  0  0  0  0
   35.2470   18.9760   32.2440 S   0  0  0  0  0  0  0  0  0  0  0  0
   36.4150   19.2430   30.7700 C   0  0  0  0  0  0  0  0  0  0  0  0
   37.1990   18.7480   29.9360 H   0  0  0  0  0  0  0  0  0  0  0  0
   36.3660   20.3530   30.5680 N   0  0  0  0  0  0  0  0  0  0  0  0
  1  6  1  6  0  0  0
  1  2  1  0  0  0  0
  1  5  1  0  0  0  0
  2  7  1  6  0  0  0
  2  3  1  0  0  0  0
  2 13  1  0  0  0  0
  3  4  1  0  0  0  0
  4  9  1  0  0  0  0
  5  4  1  0  0  0  0
  5 10  1  1  0  0  0
  8  4  1  0  0  0  0
 11  1  1  0  0  0  0
 12 11  1  0  0  0  0
 13 18  1  0  0  0  0
 14 20  1  0  0  0  0
 14 15  1  0  0  0  0
 15 21  1  0  0  0  0
 16 15  2  0  0  0  0
 16 22  1  0  0  0  0
 17 16  1  0  0  0  0
 18 19  1  0  0  0  0
 18 17  2  0  0  0  0
 19 14  2  0  0  0  0
 23 24  1  0  0  0  0
 23  5  1  0  0  0  0
 24 25  2  0  0  0  0
 25 26  1  0  0  0  0
 27 25  1  0  0  0  0
 28 27  1  0  0  0  0
 29 28  1  0  0  0  0
 30 28  2  0  0  0  0
 30 24  1  0  0  0  0
M  END
>  <minimizedAffinity>
-4.22582865

$$$$

 OpenBabel03272506443D

 30 32  0  0  1  0  0  0  0  0999 V2000
   37.1700   24.3140   31.1940 C   0  0  2  0  0  0  0  0  0  0  0  0
   37.0650   25.8110   31.4400 C   0  0  1  0  0  0  0  0  0  0  0  0
   35.7850   26.2010   31.1160 O   0  0  0  0  0  0  0  0  0  0  0  0
   35.0270   25.0810   30.8710 C   0  0  0  0  0  0  0  0  0  0  0  0
   35.7650   23.9060   31.5170 C   0  0  1  0  0  0  0  0  0  0  0  0
   37.3930   24.0920   30.1280 H   0  0  0  0  0  0  0  0  0  0  0  0
   37.8640   26.3220   30.8890 H   0  0  0  0  0  0  0  0  0  0  0  0
   34.8320   24.9020   29.7960 H   0  0  0  0  0  0  0  0  0  0  0  0
   34.0800   25.1760   31.4510 H   0  0  0  0  0  0  0  0  0  0  0  0
   35.5630   23.8690   32.5890 H   0  0  0  0  0  0  0  0  0  0  0  0
   38.1040   23.7280   32.0340 O   0  0  0  0  0  0  0  0  0  0  0  0
   38.9950   24.0430   31.7900 H   0  0  0  0  0  0  0  0  0  0  0  0
   37.2630   26.0290   33.2480 S   0  0  0  0  0  0  0  0  0  0  0  0
   40.8650   25.4280   34.7650 C   0  0  0  0  0  0  0  0  0  0  0  0
   41.6600   26.4480   34.2510 C   0  0  0  0  0  0  0  0  0  0  0  0
   41.0530   27.3730   33.3890 C   0  0  0  0  0  0  0  0  0  0  0  0
   39.7370   27.2100   33.1180 N   0  0  0  0  0  0  0  0  0  0  0  0
   38.9920   26.2160   33.6270 C   0  0  0  0  0  0  0  0  0  0  0  0
   39.5590   25.3150   34.4590 N   0  0  0  0  0  0  0  0  0  0  0  0
   41.3650   24.7290   35.4280 H   0  0  0  0  0  0  0  0  0  0  0  0
   42.7140   26.5720   34.4750 H   0  0  0  0  0  0  0  0  0  0  0  0
   41.5730   28.2020   32.9350 H   0  0  0  0  0  0  0  0  0  0  0  0
   35.3770   22.7210   30.9010 O   0  0  0  0  0  0  0  0  0  0  0  0
   35.5450   21.5520   31.6600 C   0  0  0  0  0  0  0  0  0  0  0  0
   36.1270   20.5150   30.8430 C   0  0  0  0  0  0  0  0  0  0  0  0
   36.4560   20.3940   29.8460 H   0  0  0  0  0  0  0  0  0  0  0  0
   36.2610   19.0590   32.0510 S   0  0  0  0  0  0  0  0  0  0  0  0
   35.5040   20.1570   33.4050 C   0  0  0  0  0  0  0  0  0  0  0  0
   35.1240   20.2720   34.5870 H   0  0  0  0  0  0  0  0  0  0  0  0
   35.3230   21.1480   32.8960 N   0  0  0  0  0  0  0  0  0  0  0  0
  1  6  1  6  0  0  0
  1  2  1  0  0  0  0
  1  5  1  0  0  0  0
  1 11  1  0  0  0  0
  2  7  1  6  0  0  0
  2 13  1  0  0  0  0
  3  2  1  0  0  0  0
  4  3  1  0  0  0  0
  4  9  1  0  0  0  0
  4  5  1  0  0  0  0
  5 10  1  1  0  0  0
  8  4  1  0  0  0  0
 12 11  1  0  0  0  0
 13 18  1  0  0  0  0
 14 20  1  0  0  0  0
 15 21  1  0  0  0  0
 15 14  2  0  0  0  0
 16 15  1  0  0  0  0
 17 16  2  0  0  0  0
 17 18  1  0  0  0  0
 18 19  2  0  0  0  0
 19 14  1  0  0  0  0
 22 16  1  0  0  0  0
 23  5  1  0  0  0  0
 23 24  1  0  0  0  0
 24 30  1  0  0  0  0
 25 24  2  0  0  0  0
 25 27  1  0  0  0  0
 26 25  1  0  0  0  0
 27 28  1  0  0  0  0
 28 29  1  0  0  0  0
 30 28  2  0  0  0  0
M  END
>  <minimizedAffinity>
-4.19777203

$$$$

 OpenBabel03272506443D

 30 32  0  0  1  0  0  0  0  0999 V2000
   37.6540   22.4800   32.5650 C   0  0  2  0  0  0  0  0  0  0  0  0
   38.6690   23.6130   32.5710 C   0  0  1  0  0  0  0  0  0  0  0  0
   38.4100   24.4140   31.4830 O   0  0  0  0  0  0  0  0  0  0  0  0
   37.2310   24.0110   30.9030 C   0  0  0  0  0  0  0  0  0  0  0  0
   36.4840   23.1930   31.9580 C   0  0  1  0  0  0  0  0  0  0  0  0
   37.9760   21.6490   31.9000 H   0  0  0  0  0  0  0  0  0  0  0  0
   39.6790   23.1890   32.6110 H   0  0  0  0  0  0  0  0  0  0  0  0
   37.3700   23.4400   29.9640 H   0  0  0  0  0  0  0  0  0  0  0  0
   36.6010   24.9150   30.7440 H   0  0  0  0  0  0  0  0  0  0  0  0
   35.9700   23.8520   32.6600 H   0  0  0  0  0  0  0  0  0  0  0  0
   37.3970   22.0250   33.8480 O   0  0  0  0  0  0  0  0  0  0  0  0
   38.1960   21.5870   34.1980 H   0  0  0  0  0  0  0  0  0  0  0  0
   38.3030   24.5940   34.0740 S   0  0  0  0  0  0  0  0  0  0  0  0
   38.9980   23.0630   37.6530 C   0  0  0  0  0  0  0  0  0  0  0  0
   40.3450   22.7180   37.6550 C   0  0  0  0  0  0  0  0  0  0  0  0
   41.0820   22.9710   36.4880 C   0  0  0  0  0  0  0  0  0  0  0  0
   40.4310   23.5330   35.4430 N   0  0  0  0  0  0  0  0  0  0  0  0
   39.1290   23.8570   35.4670 C   0  0  0  0  0  0  0  0  0  0  0  0
   38.4030   23.6210   36.5820 N   0  0  0  0  0  0  0  0  0  0  0  0
   38.4560   22.8540   38.5710 H   0  0  0  0  0  0  0  0  0  0  0  0
   40.8590   22.2680   38.4980 H   0  0  0  0  0  0  0  0  0  0  0  0
   42.1310   22.7440   36.3800 H   0  0  0  0  0  0  0  0  0  0  0  0
   35.5810   22.3410   31.3310 O   0  0  0  0  0  0  0  0  0  0  0  0
   35.6660   20.9870   31.6880 C   0  0  0  0  0  0  0  0  0  0  0  0
   36.3120   20.2410   30.6350 C   0  0  0  0  0  0  0  0  0  0  0  0
   36.7330   20.4300   29.6840 H   0  0  0  0  0  0  0  0  0  0  0  0
   36.3200   18.4730   31.3220 S   0  0  0  0  0  0  0  0  0  0  0  0
   35.4490   19.1130   32.8850 C   0  0  0  0  0  0  0  0  0  0  0  0
   34.9610   18.8600   34.0050 H   0  0  0  0  0  0  0  0  0  0  0  0
   35.3250   20.2200   32.7060 N   0  0  0  0  0  0  0  0  0  0  0  0
  1  6  1  6  0  0  0
  1  2  1  0  0  0  0
  1 11  1  0  0  0  0
  2  7  1  6  0  0  0
  2 13  1  0  0  0  0
  3  2  1  0  0  0  0
  4  3  1  0  0  0  0
  4  5  1  0  0  0  0
  5  1  1  0  0  0  0
  5 10  1  1  0  0  0
  8  4  1  0  0  0  0
  9  4  1  0  0  0  0
 11 12  1  0  0  0  0
 13 18  1  0  0  0  0
 14 15  1  0  0  0  0
 14 20  1  0  0  0  0
 15 21  1  0  0  0  0
 16 15  2  0  0  0  0
 17 18  2  0  0  0  0
 17 16  1  0  0  0  0
 18 19  1  0  0  0  0
 19 14  2  0  0  0  0
 22 16  1  0  0  0  0
 23 24  1  0  0  0  0
 23  5  1  0  0  0  0
 24 30  1  0  0  0  0
 25 27  1  0  0  0  0
 25 24  2  0  0  0  0
 26 25  1  0  0  0  0
 27 28  1  0  0  0  0
 28 29  1  0  0  0  0
 30 28  2  0  0  0  0
M  END
>  <minimizedAffinity>
-4.14304304

$$$$

 OpenBabel03272506443D

 30 32  0  0  1  0  0  0  0  0999 V2000
   37.1080   28.1140   32.5940 C   0  0  2  0  0  0  0  0  0  0  0  0
   36.2930   29.3220   32.1610 C   0  0  1  0  0  0  0  0  0  0  0  0
   36.0690   29.2150   30.8070 O   0  0  0  0  0  0  0  0  0  0  0  0
   36.4980   27.9810   30.3820 C   0  0  0  0  0  0  0  0  0  0  0  0
   36.5840   27.0960   31.6280 C   0  0  1  0  0  0  0  0  0  0  0  0
   38.1950   28.2740   32.4210 H   0  0  0  0  0  0  0  0  0  0  0  0
   36.8080   30.2360   32.4800 H   0  0  0  0  0  0  0  0  0  0  0  0
   37.4580   28.0080   29.8310 H   0  0  0  0  0  0  0  0  0  0  0  0
   35.6850   27.5290   29.7680 H   0  0  0  0  0  0  0  0  0  0  0  0
   35.5970   26.7150   31.8960 H   0  0  0  0  0  0  0  0  0  0  0  0
   36.8550   27.7790   33.9140 O   0  0  0  0  0  0  0  0  0  0  0  0
   37.2000   28.4840   34.4950 H   0  0  0  0  0  0  0  0  0  0  0  0
   34.6730   29.1480   32.9990 S   0  0  0  0  0  0  0  0  0  0  0  0
   35.8370   31.4650   35.9840 C   0  0  0  0  0  0  0  0  0  0  0  0
   34.6720   31.8220   36.6550 C   0  0  0  0  0  0  0  0  0  0  0  0
   33.4580   31.3210   36.1610 C   0  0  0  0  0  0  0  0  0  0  0  0
   33.5060   30.5250   35.0670 N   0  0  0  0  0  0  0  0  0  0  0  0
   34.6450   30.1960   34.4370 C   0  0  0  0  0  0  0  0  0  0  0  0
   35.8230   30.6690   34.8980 N   0  0  0  0  0  0  0  0  0  0  0  0
   36.7580   31.8700   36.3920 H   0  0  0  0  0  0  0  0  0  0  0  0
   34.6430   32.4590   37.5320 H   0  0  0  0  0  0  0  0  0  0  0  0
   32.4970   31.5320   36.6020 H   0  0  0  0  0  0  0  0  0  0  0  0
   37.4690   26.0490   31.3920 O   0  0  0  0  0  0  0  0  0  0  0  0
   36.9620   24.7580   31.6100 C   0  0  0  0  0  0  0  0  0  0  0  0
   37.8450   24.0250   32.4850 C   0  0  0  0  0  0  0  0  0  0  0  0
   38.7540   24.1890   32.9990 H   0  0  0  0  0  0  0  0  0  0  0  0
   36.9790   22.3440   32.6370 S   0  0  0  0  0  0  0  0  0  0  0  0
   35.6080   22.9850   31.4870 C   0  0  0  0  0  0  0  0  0  0  0  0
   34.5340   22.7640   30.8920 H   0  0  0  0  0  0  0  0  0  0  0  0
   35.9170   24.0430   31.2410 N   0  0  0  0  0  0  0  0  0  0  0  0
  1  6  1  6  0  0  0
  1 11  1  0  0  0  0
  2  7  1  1  0  0  0
  2  1  1  0  0  0  0
  2 13  1  0  0  0  0
  3  2  1  0  0  0  0
  4  3  1  0  0  0  0
  4  5  1  0  0  0  0
  5 10  1  1  0  0  0
  5  1  1  0  0  0  0
  8  4  1  0  0  0  0
  9  4  1  0  0  0  0
 11 12  1  0  0  0  0
 13 18  1  0  0  0  0
 14 20  1  0  0  0  0
 14 15  1  0  0  0  0
 15 21  1  0  0  0  0
 16 22  1  0  0  0  0
 16 15  2  0  0  0  0
 17 16  1  0  0  0  0
 18 19  1  0  0  0  0
 18 17  2  0  0  0  0
 19 14  2  0  0  0  0
 23 24  1  0  0  0  0
 23  5  1  0  0  0  0
 24 25  2  0  0  0  0
 25 27  1  0  0  0  0
 25 26  1  0  0  0  0
 28 27  1  0  0  0  0
 29 28  1  0  0  0  0
 30 28  2  0  0  0  0
 30 24  1  0  0  0  0
M  END
>  <minimizedAffinity>
-4.13057756

$$$$

 OpenBabel03272506443D

 30 32  0  0  1  0  0  0  0  0999 V2000
   37.0150   25.1870   32.6540 C   0  0  2  0  0  0  0  0  0  0  0  0
   37.9770   24.0470   32.9520 C   0  0  1  0  0  0  0  0  0  0  0  0
   38.5400   23.6510   31.7600 O   0  0  0  0  0  0  0  0  0  0  0  0
   38.1740   24.5400   30.7770 C   0  0  0  0  0  0  0  0  0  0  0  0
   37.7200   25.8160   31.4910 C   0  0  1  0  0  0  0  0  0  0  0  0
   36.0210   24.8070   32.3330 H   0  0  0  0  0  0  0  0  0  0  0  0
   37.4440   23.2630   33.5010 H   0  0  0  0  0  0  0  0  0  0  0  0
   37.3930   24.1520   30.0950 H   0  0  0  0  0  0  0  0  0  0  0  0
   39.0940   24.8360   30.2240 H   0  0  0  0  0  0  0  0  0  0  0  0
   38.5820   26.4180   31.7840 H   0  0  0  0  0  0  0  0  0  0  0  0
   36.8980   26.0450   33.7360 O   0  0  0  0  0  0  0  0  0  0  0  0
   36.4500   25.5780   34.4670 H   0  0  0  0  0  0  0  0  0  0  0  0
   39.3110   24.7810   33.9700 S   0  0  0  0  0  0  0  0  0  0  0  0
   37.9940   24.2540   37.6610 C   0  0  0  0  0  0  0  0  0  0  0  0
   38.8600   23.3290   38.2360 C   0  0  0  0  0  0  0  0  0  0  0  0
   39.9080   22.8400   37.4430 C   0  0  0  0  0  0  0  0  0  0  0  0
   40.0050   23.3020   36.1750 N   0  0  0  0  0  0  0  0  0  0  0  0
   39.1560   24.1950   35.6440 C   0  0  0  0  0  0  0  0  0  0  0  0
   38.1400   24.6770   36.3920 N   0  0  0  0  0  0  0  0  0  0  0  0
   37.1940   24.6120   38.3010 H   0  0  0  0  0  0  0  0  0  0  0  0
   38.7750   22.9640   39.2550 H   0  0  0  0  0  0  0  0  0  0  0  0
   40.6360   22.1220   37.7870 H   0  0  0  0  0  0  0  0  0  0  0  0
   36.8750   26.5380   30.6560 O   0  0  0  0  0  0  0  0  0  0  0  0
   36.7040   27.8930   30.9800 C   0  0  0  0  0  0  0  0  0  0  0  0
   37.0190   28.7150   29.8370 C   0  0  0  0  0  0  0  0  0  0  0  0
   37.3370   28.5810   28.8380 H   0  0  0  0  0  0  0  0  0  0  0  0
   36.7230   30.4700   30.4930 S   0  0  0  0  0  0  0  0  0  0  0  0
   36.2370   29.7240   32.1710 C   0  0  0  0  0  0  0  0  0  0  0  0
   35.8610   29.9130   33.3460 H   0  0  0  0  0  0  0  0  0  0  0  0
   36.3400   28.6100   32.0260 N   0  0  0  0  0  0  0  0  0  0  0  0
  1  6  1  6  0  0  0
  1  2  1  0  0  0  0
  1 11  1  0  0  0  0
  2  7  1  1  0  0  0
  2 13  1  0  0  0  0
  3  2  1  0  0  0  0
  4  5  1  0  0  0  0
  4  3  1  0  0  0  0
  5 10  1  1  0  0  0
  5  1  1  0  0  0  0
  8  4  1  0  0  0  0
  9  4  1  0  0  0  0
 11 12  1  0  0  0  0
 13 18  1  0  0  0  0
 14 15  1  0  0  0  0
 14 20  1  0  0  0  0
 15 21  1  0  0  0  0
 16 22  1  0  0  0  0
 16 15  2  0  0  0  0
 17 16  1  0  0  0  0
 18 17  2  0  0  0  0
 18 19  1  0  0  0  0
 19 14  2  0  0  0  0
 23 24  1  0  0  0  0
 23  5  1  0  0  0  0
 24 30  1  0  0  0  0
 25 27  1  0  0  0  0
 25 24  2  0  0  0  0
 26 25  1  0  0  0  0
 27 28  1  0  0  0  0
 28 29  1  0  0  0  0
 30 28  2  0  0  0  0
M  END
>  <minimizedAffinity>
-4.12172365

$$$$
