
 OpenBabel03272507383D

 21 22  0  0  0  0  0  0  0  0999 V2000
   39.7040   23.5820   35.5940 C   0  0  0  0  0  0  0  0  0  0  0  0
   39.5370   22.8940   36.7950 C   0  0  0  0  0  0  0  0  0  0  0  0
   40.6500   22.4500   37.4790 C   0  0  0  0  0  0  0  0  0  0  0  0
   41.8700   22.7070   36.9460 N   0  0  0  0  0  0  0  0  0  0  0  0
   42.0230   23.3750   35.7800 C   0  0  0  0  0  0  0  0  0  0  0  0
   40.9520   23.8090   35.1110 N   0  0  0  0  0  0  0  0  0  0  0  0
   40.6030   21.9180   38.4010 H   0  0  0  0  0  0  0  0  0  0  0  0
   43.0190   23.5660   35.3780 H   0  0  0  0  0  0  0  0  0  0  0  0
   37.7300   23.5220   38.2970 C   0  0  0  0  0  0  0  0  0  0  0  0
   38.0910   24.6460   38.8170 O   0  0  0  0  0  0  0  0  0  0  0  0
   38.3070   22.6050   37.3850 N   0  0  0  0  0  0  0  0  0  0  0  0
   36.7890   23.5430   38.8380 H   0  0  0  0  0  0  0  0  0  0  0  0
   37.6740   21.7930   37.2850 H   0  0  0  0  0  0  0  0  0  0  0  0
   38.5040   23.9570   35.0360 O   0  0  0  0  0  0  0  0  0  0  0  0
   38.1540   25.3210   34.9560 C   0  0  0  0  0  0  0  0  0  0  0  0
   37.4320   25.7270   33.7940 C   0  0  0  0  0  0  0  0  0  0  0  0
   37.1060   25.1660   32.9630 H   0  0  0  0  0  0  0  0  0  0  0  0
   37.1780   27.4970   34.0610 S   0  0  0  0  0  0  0  0  0  0  0  0
   38.1000   27.4150   35.7240 C   0  0  0  0  0  0  0  0  0  0  0  0
   38.4750   28.0790   36.6870 H   0  0  0  0  0  0  0  0  0  0  0  0
   38.3900   26.3150   35.8000 N   0  0  0  0  0  0  0  0  0  0  0  0
  1  2  1  0  0  0  0
  2 11  1  0  0  0  0
  2  3  2  0  0  0  0
  3  7  1  0  0  0  0
  4  3  1  0  0  0  0
  5  4  2  0  0  0  0
  6  1  2  0  0  0  0
  6  5  1  0  0  0  0
  8  5  1  0  0  0  0
  9 10  2  0  0  0  0
  9 12  1  0  0  0  0
 11  9  1  0  0  0  0
 13 11  1  0  0  0  0
 14  1  1  0  0  0  0
 15 14  1  0  0  0  0
 15 21  1  0  0  0  0
 16 18  1  0  0  0  0
 16 15  2  0  0  0  0
 17 16  1  0  0  0  0
 18 19  1  0  0  0  0
 19 21  2  0  0  0  0
 19 20  1  0  0  0  0
M  END
>  <minimizedAffinity>
-4.14108467

$$$$

 OpenBabel03272507383D

 21 22  0  0  0  0  0  0  0  0999 V2000
   39.5690   23.5400   35.5460 C   0  0  0  0  0  0  0  0  0  0  0  0
   39.4930   22.9210   36.7940 C   0  0  0  0  0  0  0  0  0  0  0  0
   40.6560   22.5500   37.4350 C   0  0  0  0  0  0  0  0  0  0  0  0
   41.8340   22.8080   36.8170 N   0  0  0  0  0  0  0  0  0  0  0  0
   41.9000   23.4090   35.6070 C   0  0  0  0  0  0  0  0  0  0  0  0
   40.7790   23.7720   34.9780 N   0  0  0  0  0  0  0  0  0  0  0  0
   40.6780   22.0730   38.3880 H   0  0  0  0  0  0  0  0  0  0  0  0
   42.8640   23.6020   35.1370 H   0  0  0  0  0  0  0  0  0  0  0  0
   37.7740   23.5740   38.3870 C   0  0  0  0  0  0  0  0  0  0  0  0
   38.1490   24.7200   38.8450 O   0  0  0  0  0  0  0  0  0  0  0  0
   38.3080   22.6340   37.4710 N   0  0  0  0  0  0  0  0  0  0  0  0
   36.8700   23.5990   38.9860 H   0  0  0  0  0  0  0  0  0  0  0  0
   37.6840   21.8100   37.4400 H   0  0  0  0  0  0  0  0  0  0  0  0
   38.3280   23.8470   35.0400 O   0  0  0  0  0  0  0  0  0  0  0  0
   37.8120   23.1270   33.9420 C   0  0  0  0  0  0  0  0  0  0  0  0
   37.7080   23.8360   32.7070 C   0  0  0  0  0  0  0  0  0  0  0  0
   37.9570   24.8310   32.4690 H   0  0  0  0  0  0  0  0  0  0  0  0
   37.0230   22.6000   31.5780 S   0  0  0  0  0  0  0  0  0  0  0  0
   36.9810   21.3010   32.9670 C   0  0  0  0  0  0  0  0  0  0  0  0
   36.6860   20.1380   33.2330 H   0  0  0  0  0  0  0  0  0  0  0  0
   37.3960   21.8710   33.8620 N   0  0  0  0  0  0  0  0  0  0  0  0
  1  2  1  0  0  0  0
  2  3  2  0  0  0  0
  2 11  1  0  0  0  0
  3  7  1  0  0  0  0
  4  3  1  0  0  0  0
  5  4  2  0  0  0  0
  6  1  2  0  0  0  0
  6  5  1  0  0  0  0
  8  5  1  0  0  0  0
  9 10  2  0  0  0  0
  9 12  1  0  0  0  0
 11  9  1  0  0  0  0
 13 11  1  0  0  0  0
 14  1  1  0  0  0  0
 15 14  1  0  0  0  0
 16 15  2  0  0  0  0
 17 16  1  0  0  0  0
 18 16  1  0  0  0  0
 18 19  1  0  0  0  0
 19 20  1  0  0  0  0
 19 21  2  0  0  0  0
 21 15  1  0  0  0  0
M  END
>  <minimizedAffinity>
-3.82888818

$$$$

 OpenBabel03272507383D

 21 22  0  0  0  0  0  0  0  0999 V2000
   39.3760   24.4980   35.2820 C   0  0  0  0  0  0  0  0  0  0  0  0
   38.3900   24.9410   36.1640 C   0  0  0  0  0  0  0  0  0  0  0  0
   38.2460   26.2940   36.3900 C   0  0  0  0  0  0  0  0  0  0  0  0
   39.0790   27.1410   35.7360 N   0  0  0  0  0  0  0  0  0  0  0  0
   40.0310   26.7030   34.8820 C   0  0  0  0  0  0  0  0  0  0  0  0
   40.1790   25.3950   34.6570 N   0  0  0  0  0  0  0  0  0  0  0  0
   37.5190   26.7080   37.0490 H   0  0  0  0  0  0  0  0  0  0  0  0
   40.6850   27.4110   34.3720 H   0  0  0  0  0  0  0  0  0  0  0  0
   37.8030   23.7370   38.1940 C   0  0  0  0  0  0  0  0  0  0  0  0
   38.7830   23.9390   39.0080 O   0  0  0  0  0  0  0  0  0  0  0  0
   37.5110   24.1120   36.8600 N   0  0  0  0  0  0  0  0  0  0  0  0
   37.2700   23.1540   38.9380 H   0  0  0  0  0  0  0  0  0  0  0  0
   36.6140   23.6780   36.5820 H   0  0  0  0  0  0  0  0  0  0  0  0
   39.3920   23.1270   35.1650 O   0  0  0  0  0  0  0  0  0  0  0  0
   40.4700   22.3830   35.6900 C   0  0  0  0  0  0  0  0  0  0  0  0
   41.4590   21.9490   34.7570 C   0  0  0  0  0  0  0  0  0  0  0  0
   41.5240   22.0930   33.7150 H   0  0  0  0  0  0  0  0  0  0  0  0
   42.6400   21.0540   35.7930 S   0  0  0  0  0  0  0  0  0  0  0  0
   41.6010   21.4080   37.3470 C   0  0  0  0  0  0  0  0  0  0  0  0
   41.5360   21.2330   38.5610 H   0  0  0  0  0  0  0  0  0  0  0  0
   40.7250   22.0100   36.9360 N   0  0  0  0  0  0  0  0  0  0  0  0
  1  2  1  0  0  0  0
  2  3  2  0  0  0  0
  2 11  1  0  0  0  0
  3  7  1  0  0  0  0
  4  3  1  0  0  0  0
  5  4  2  0  0  0  0
  6  5  1  0  0  0  0
  6  1  2  0  0  0  0
  8  5  1  0  0  0  0
  9 12  1  0  0  0  0
  9 10  2  0  0  0  0
 11  9  1  0  0  0  0
 13 11  1  0  0  0  0
 14  1  1  0  0  0  0
 14 15  1  0  0  0  0
 15 21  1  0  0  0  0
 16 15  2  0  0  0  0
 16 18  1  0  0  0  0
 17 16  1  0  0  0  0
 18 19  1  0  0  0  0
 19 20  1  0  0  0  0
 21 19  2  0  0  0  0
M  END
>  <minimizedAffinity>
-3.79689622

$$$$

 OpenBabel03272507383D

 21 22  0  0  0  0  0  0  0  0999 V2000
   39.4350   24.4000   35.4720 C   0  0  0  0  0  0  0  0  0  0  0  0
   38.4100   24.9400   36.2480 C   0  0  0  0  0  0  0  0  0  0  0  0
   38.2650   26.3100   36.3150 C   0  0  0  0  0  0  0  0  0  0  0  0
   39.1340   27.0780   35.6140 N   0  0  0  0  0  0  0  0  0  0  0  0
   40.1250   26.5470   34.8630 C   0  0  0  0  0  0  0  0  0  0  0  0
   40.2750   25.2210   34.7930 N   0  0  0  0  0  0  0  0  0  0  0  0
   37.5080   26.7960   36.8870 H   0  0  0  0  0  0  0  0  0  0  0  0
   40.8080   27.1930   34.3110 H   0  0  0  0  0  0  0  0  0  0  0  0
   37.8430   23.7210   38.2750 C   0  0  0  0  0  0  0  0  0  0  0  0
   38.9050   23.7570   39.0060 O   0  0  0  0  0  0  0  0  0  0  0  0
   37.4920   24.1950   36.9870 N   0  0  0  0  0  0  0  0  0  0  0  0
   37.3020   23.1730   39.0400 H   0  0  0  0  0  0  0  0  0  0  0  0
   36.5260   23.8920   36.7740 H   0  0  0  0  0  0  0  0  0  0  0  0
   39.4490   23.0250   35.5090 O   0  0  0  0  0  0  0  0  0  0  0  0
   38.9130   22.2830   34.4360 C   0  0  0  0  0  0  0  0  0  0  0  0
   39.8490   21.7600   33.4920 C   0  0  0  0  0  0  0  0  0  0  0  0
   40.8990   21.8360   33.4600 H   0  0  0  0  0  0  0  0  0  0  0  0
   38.7970   20.8930   32.3040 S   0  0  0  0  0  0  0  0  0  0  0  0
   37.2350   21.3780   33.2770 C   0  0  0  0  0  0  0  0  0  0  0  0
   36.0110   21.2820   33.3040 H   0  0  0  0  0  0  0  0  0  0  0  0
   37.6550   21.9800   34.1480 N   0  0  0  0  0  0  0  0  0  0  0  0
  1 14  1  0  0  0  0
  1  2  1  0  0  0  0
  2  3  2  0  0  0  0
  2 11  1  0  0  0  0
  3  7  1  0  0  0  0
  4  3  1  0  0  0  0
  5  4  2  0  0  0  0
  6  5  1  0  0  0  0
  6  1  2  0  0  0  0
  8  5  1  0  0  0  0
  9 10  2  0  0  0  0
  9 12  1  0  0  0  0
 11  9  1  0  0  0  0
 13 11  1  0  0  0  0
 15 14  1  0  0  0  0
 16 15  2  0  0  0  0
 17 16  1  0  0  0  0
 18 19  1  0  0  0  0
 18 16  1  0  0  0  0
 19 20  1  0  0  0  0
 19 21  2  0  0  0  0
 21 15  1  0  0  0  0
M  END
>  <minimizedAffinity>
-3.74396157

$$$$

 OpenBabel03272507383D

 21 22  0  0  0  0  0  0  0  0999 V2000
   38.3130   23.3980   34.7100 C   0  0  0  0  0  0  0  0  0  0  0  0
   38.5090   23.4760   36.0890 C   0  0  0  0  0  0  0  0  0  0  0  0
   38.3240   24.6830   36.7290 C   0  0  0  0  0  0  0  0  0  0  0  0
   37.9550   25.7510   35.9800 N   0  0  0  0  0  0  0  0  0  0  0  0
   37.7670   25.6670   34.6440 C   0  0  0  0  0  0  0  0  0  0  0  0
   37.9440   24.5020   34.0150 N   0  0  0  0  0  0  0  0  0  0  0  0
   38.4550   24.8210   37.7770 H   0  0  0  0  0  0  0  0  0  0  0  0
   37.4690   26.5450   34.0700 H   0  0  0  0  0  0  0  0  0  0  0  0
   40.2420   22.2670   37.2940 C   0  0  0  0  0  0  0  0  0  0  0  0
   41.3390   22.8960   37.0390 O   0  0  0  0  0  0  0  0  0  0  0  0
   38.8880   22.4080   36.9030 N   0  0  0  0  0  0  0  0  0  0  0  0
   40.7620   21.5660   37.9390 H   0  0  0  0  0  0  0  0  0  0  0  0
   38.3400   21.6340   37.3160 H   0  0  0  0  0  0  0  0  0  0  0  0
   38.5360   22.1310   34.2230 O   0  0  0  0  0  0  0  0  0  0  0  0
   37.5180   21.4520   33.5210 C   0  0  0  0  0  0  0  0  0  0  0  0
   37.8070   21.0900   32.1700 C   0  0  0  0  0  0  0  0  0  0  0  0
   38.6740   21.2480   31.5930 H   0  0  0  0  0  0  0  0  0  0  0  0
   36.2940   20.2600   31.6320 S   0  0  0  0  0  0  0  0  0  0  0  0
   35.4940   20.5340   33.3360 C   0  0  0  0  0  0  0  0  0  0  0  0
   34.4770   20.3440   33.9990 H   0  0  0  0  0  0  0  0  0  0  0  0
   36.3070   21.0840   33.9140 N   0  0  0  0  0  0  0  0  0  0  0  0
  1  2  1  0  0  0  0
  2  3  2  0  0  0  0
  2 11  1  0  0  0  0
  3  7  1  0  0  0  0
  4  3  1  0  0  0  0
  5  4  2  0  0  0  0
  6  5  1  0  0  0  0
  6  1  2  0  0  0  0
  8  5  1  0  0  0  0
  9 12  1  0  0  0  0
 10  9  2  0  0  0  0
 11  9  1  0  0  0  0
 11 13  1  0  0  0  0
 14  1  1  0  0  0  0
 15 21  1  0  0  0  0
 15 14  1  0  0  0  0
 16 15  2  0  0  0  0
 17 16  1  0  0  0  0
 18 16  1  0  0  0  0
 18 19  1  0  0  0  0
 19 21  2  0  0  0  0
 19 20  1  0  0  0  0
M  END
>  <minimizedAffinity>
-3.72361708

$$$$

 OpenBabel03272507383D

 21 22  0  0  0  0  0  0  0  0999 V2000
   39.0600   25.2010   35.4360 C   0  0  0  0  0  0  0  0  0  0  0  0
   39.0940   23.9510   36.0530 C   0  0  0  0  0  0  0  0  0  0  0  0
   40.2690   23.2300   36.0520 C   0  0  0  0  0  0  0  0  0  0  0  0
   41.3510   23.7760   35.4450 N   0  0  0  0  0  0  0  0  0  0  0  0
   41.3110   24.9890   34.8490 C   0  0  0  0  0  0  0  0  0  0  0  0
   40.1770   25.6950   34.8450 N   0  0  0  0  0  0  0  0  0  0  0  0
   40.3720   22.2690   36.5010 H   0  0  0  0  0  0  0  0  0  0  0  0
   42.1990   25.4000   34.3700 H   0  0  0  0  0  0  0  0  0  0  0  0
   37.8840   23.4310   38.0980 C   0  0  0  0  0  0  0  0  0  0  0  0
   38.5950   23.9280   39.0530 O   0  0  0  0  0  0  0  0  0  0  0  0
   38.0100   23.3460   36.6900 N   0  0  0  0  0  0  0  0  0  0  0  0
   37.1300   23.0910   38.8000 H   0  0  0  0  0  0  0  0  0  0  0  0
   37.2120   22.8040   36.3170 H   0  0  0  0  0  0  0  0  0  0  0  0
   37.8220   25.7930   35.5230 O   0  0  0  0  0  0  0  0  0  0  0  0
   37.2670   26.4450   34.4010 C   0  0  0  0  0  0  0  0  0  0  0  0
   36.8810   27.8080   34.5830 C   0  0  0  0  0  0  0  0  0  0  0  0
   36.9400   28.4250   35.4350 H   0  0  0  0  0  0  0  0  0  0  0  0
   36.2350   28.2740   32.9610 S   0  0  0  0  0  0  0  0  0  0  0  0
   36.5910   26.5350   32.2770 C   0  0  0  0  0  0  0  0  0  0  0  0
   36.5160   25.8240   31.2790 H   0  0  0  0  0  0  0  0  0  0  0  0
   37.0390   25.9960   33.1760 N   0  0  0  0  0  0  0  0  0  0  0  0
  1 14  1  0  0  0  0
  1  2  1  0  0  0  0
  2 11  1  0  0  0  0
  3  2  2  0  0  0  0
  3  7  1  0  0  0  0
  4  3  1  0  0  0  0
  5  4  2  0  0  0  0
  6  5  1  0  0  0  0
  6  1  2  0  0  0  0
  8  5  1  0  0  0  0
  9 12  1  0  0  0  0
  9 10  2  0  0  0  0
 11  9  1  0  0  0  0
 13 11  1  0  0  0  0
 15 16  2  0  0  0  0
 15 14  1  0  0  0  0
 16 17  1  0  0  0  0
 18 16  1  0  0  0  0
 19 18  1  0  0  0  0
 19 21  2  0  0  0  0
 20 19  1  0  0  0  0
 21 15  1  0  0  0  0
M  END
>  <minimizedAffinity>
-3.68875718

$$$$

 OpenBabel03272507383D

 21 22  0  0  0  0  0  0  0  0999 V2000
   38.7000   23.4340   36.0350 C   0  0  0  0  0  0  0  0  0  0  0  0
   39.2830   22.7650   37.1100 C   0  0  0  0  0  0  0  0  0  0  0  0
   39.0520   23.2170   38.3930 C   0  0  0  0  0  0  0  0  0  0  0  0
   38.2570   24.3040   38.5510 N   0  0  0  0  0  0  0  0  0  0  0  0
   37.6940   24.9470   37.5030 C   0  0  0  0  0  0  0  0  0  0  0  0
   37.9130   24.5170   36.2580 N   0  0  0  0  0  0  0  0  0  0  0  0
   39.4630   22.7600   39.2630 H   0  0  0  0  0  0  0  0  0  0  0  0
   37.0590   25.8180   37.6650 H   0  0  0  0  0  0  0  0  0  0  0  0
   41.5130   21.8080   36.9400 C   0  0  0  0  0  0  0  0  0  0  0  0
   42.3180   22.8160   36.9100 O   0  0  0  0  0  0  0  0  0  0  0  0
   40.1070   21.6450   37.0010 N   0  0  0  0  0  0  0  0  0  0  0  0
   42.3430   21.1100   36.8980 H   0  0  0  0  0  0  0  0  0  0  0  0
   39.8880   20.6350   36.9520 H   0  0  0  0  0  0  0  0  0  0  0  0
   39.0250   22.8640   34.8270 O   0  0  0  0  0  0  0  0  0  0  0  0
   38.0080   22.4060   33.9620 C   0  0  0  0  0  0  0  0  0  0  0  0
   37.9780   22.9800   32.6550 C   0  0  0  0  0  0  0  0  0  0  0  0
   38.6020   23.7060   32.2140 H   0  0  0  0  0  0  0  0  0  0  0  0
   36.5710   22.1560   31.8740 S   0  0  0  0  0  0  0  0  0  0  0  0
   36.2360   21.1500   33.4540 C   0  0  0  0  0  0  0  0  0  0  0  0
   35.5020   20.3040   33.9570 H   0  0  0  0  0  0  0  0  0  0  0  0
   37.0520   21.5110   34.1630 N   0  0  0  0  0  0  0  0  0  0  0  0
  1  6  2  0  0  0  0
  1  2  1  0  0  0  0
  2  3  2  0  0  0  0
  3  4  1  0  0  0  0
  3  7  1  0  0  0  0
  5  8  1  0  0  0  0
  5  4  2  0  0  0  0
  6  5  1  0  0  0  0
  9 11  1  0  0  0  0
 10  9  2  0  0  0  0
 11  2  1  0  0  0  0
 12  9  1  0  0  0  0
 13 11  1  0  0  0  0
 14  1  1  0  0  0  0
 15 21  1  0  0  0  0
 15 14  1  0  0  0  0
 16 15  2  0  0  0  0
 17 16  1  0  0  0  0
 18 16  1  0  0  0  0
 18 19  1  0  0  0  0
 19 20  1  0  0  0  0
 19 21  2  0  0  0  0
M  END
>  <minimizedAffinity>
-3.67351103

$$$$

 OpenBabel03272507383D

 21 22  0  0  0  0  0  0  0  0999 V2000
   36.4040   24.0230   32.0330 C   0  0  0  0  0  0  0  0  0  0  0  0
   37.1420   25.1410   32.4170 C   0  0  0  0  0  0  0  0  0  0  0  0
   36.7520   26.3900   31.9790 C   0  0  0  0  0  0  0  0  0  0  0  0
   35.6560   26.4730   31.1860 N   0  0  0  0  0  0  0  0  0  0  0  0
   34.9450   25.3840   30.8180 C   0  0  0  0  0  0  0  0  0  0  0  0
   35.3150   24.1700   31.2370 N   0  0  0  0  0  0  0  0  0  0  0  0
   37.2660   27.2900   32.2290 H   0  0  0  0  0  0  0  0  0  0  0  0
   34.0670   25.4850   30.1800 H   0  0  0  0  0  0  0  0  0  0  0  0
   38.1840   25.5130   34.5830 C   0  0  0  0  0  0  0  0  0  0  0  0
   37.2520   25.9950   35.3340 O   0  0  0  0  0  0  0  0  0  0  0  0
   38.2760   25.1090   33.2290 N   0  0  0  0  0  0  0  0  0  0  0  0
   38.8940   25.5360   35.4030 H   0  0  0  0  0  0  0  0  0  0  0  0
   39.2510   24.8260   33.0320 H   0  0  0  0  0  0  0  0  0  0  0  0
   36.9180   22.8560   32.5490 O   0  0  0  0  0  0  0  0  0  0  0  0
   36.4140   21.6090   32.1230 C   0  0  0  0  0  0  0  0  0  0  0  0
   35.4760   20.9710   32.9900 C   0  0  0  0  0  0  0  0  0  0  0  0
   35.0860   21.2800   33.9180 H   0  0  0  0  0  0  0  0  0  0  0  0
   35.0780   19.4410   32.1130 S   0  0  0  0  0  0  0  0  0  0  0  0
   36.2550   19.9050   30.6920 C   0  0  0  0  0  0  0  0  0  0  0  0
   36.7030   19.5330   29.6110 H   0  0  0  0  0  0  0  0  0  0  0  0
   36.6700   20.9120   31.0250 N   0  0  0  0  0  0  0  0  0  0  0  0
  1  2  1  0  0  0  0
  1 14  1  0  0  0  0
  2 11  1  0  0  0  0
  3  7  1  0  0  0  0
  3  2  2  0  0  0  0
  4  3  1  0  0  0  0
  5  4  2  0  0  0  0
  5  6  1  0  0  0  0
  6  1  2  0  0  0  0
  8  5  1  0  0  0  0
  9 10  2  0  0  0  0
  9 12  1  0  0  0  0
 11  9  1  0  0  0  0
 13 11  1  0  0  0  0
 15 14  1  0  0  0  0
 15 16  2  0  0  0  0
 16 17  1  0  0  0  0
 18 16  1  0  0  0  0
 19 21  2  0  0  0  0
 19 18  1  0  0  0  0
 20 19  1  0  0  0  0
 21 15  1  0  0  0  0
M  END
>  <minimizedAffinity>
-3.67139506

$$$$

 OpenBabel03272507383D

 21 22  0  0  0  0  0  0  0  0999 V2000
   38.3170   23.7700   36.0750 C   0  0  0  0  0  0  0  0  0  0  0  0
   39.4540   23.0170   36.3660 C   0  0  0  0  0  0  0  0  0  0  0  0
   39.7980   22.7960   37.6840 C   0  0  0  0  0  0  0  0  0  0  0  0
   39.0050   23.3270   38.6460 N   0  0  0  0  0  0  0  0  0  0  0  0
   37.9040   24.0560   38.3560 C   0  0  0  0  0  0  0  0  0  0  0  0
   37.5630   24.2760   37.0830 N   0  0  0  0  0  0  0  0  0  0  0  0
   40.6510   22.2330   37.9840 H   0  0  0  0  0  0  0  0  0  0  0  0
   37.2870   24.4690   39.1540 H   0  0  0  0  0  0  0  0  0  0  0  0
   41.5070   23.1060   35.0650 C   0  0  0  0  0  0  0  0  0  0  0  0
   42.0710   24.2210   35.3890 O   0  0  0  0  0  0  0  0  0  0  0  0
   40.3010   22.4500   35.4140 N   0  0  0  0  0  0  0  0  0  0  0  0
   42.3290   22.8520   34.4030 H   0  0  0  0  0  0  0  0  0  0  0  0
   40.2270   21.5770   34.8640 H   0  0  0  0  0  0  0  0  0  0  0  0
   38.1100   23.9000   34.7220 O   0  0  0  0  0  0  0  0  0  0  0  0
   38.3500   25.1350   34.0830 C   0  0  0  0  0  0  0  0  0  0  0  0
   37.3740   25.5600   33.1300 C   0  0  0  0  0  0  0  0  0  0  0  0
   36.4820   25.0960   32.8150 H   0  0  0  0  0  0  0  0  0  0  0  0
   38.0250   27.1440   32.5500 S   0  0  0  0  0  0  0  0  0  0  0  0
   39.5340   26.9860   33.6980 C   0  0  0  0  0  0  0  0  0  0  0  0
   40.5720   27.5360   34.0580 H   0  0  0  0  0  0  0  0  0  0  0  0
   39.3530   25.9890   34.2210 N   0  0  0  0  0  0  0  0  0  0  0  0
  1  2  2  0  0  0  0
  1  6  1  0  0  0  0
  2  3  1  0  0  0  0
  3  7  1  0  0  0  0
  3  4  2  0  0  0  0
  5  4  1  0  0  0  0
  5  8  1  0  0  0  0
  6  5  2  0  0  0  0
  9 10  2  0  0  0  0
  9 11  1  0  0  0  0
 11  2  1  0  0  0  0
 12  9  1  0  0  0  0
 13 11  1  0  0  0  0
 14  1  1  0  0  0  0
 15 21  1  0  0  0  0
 15 14  1  0  0  0  0
 16 15  2  0  0  0  0
 17 16  1  0  0  0  0
 18 16  1  0  0  0  0
 18 19  1  0  0  0  0
 19 20  1  0  0  0  0
 19 21  2  0  0  0  0
M  END
>  <minimizedAffinity>
-3.60861373

$$$$
