
 OpenBabel03272509543D

 41 44  0  0  0  0  0  0  0  0999 V2000
   34.4700   28.6420   48.1590 C   0  0  0  0  0  0  0  0  0  0  0  0
   35.3720   28.7100   47.5110 H   0  0  0  0  0  0  0  0  0  0  0  0
   33.9660   29.6270   48.1260 H   0  0  0  0  0  0  0  0  0  0  0  0
   33.6100   27.5110   47.7000 C   0  0  0  0  0  0  0  0  0  0  0  0
   33.7840   26.5870   48.2660 H   0  0  0  0  0  0  0  0  0  0  0  0
   33.8640   27.2610   46.6290 H   0  0  0  0  0  0  0  0  0  0  0  0
   32.1680   27.8350   47.6830 C   0  0  0  0  0  0  0  0  0  0  0  0
   31.3560   27.2240   48.6250 C   0  0  0  0  0  0  0  0  0  0  0  0
   30.0120   27.4420   48.7100 C   0  0  0  0  0  0  0  0  0  0  0  0
   29.4540   28.2870   47.8430 N   0  0  0  0  0  0  0  0  0  0  0  0
   30.2390   28.8910   46.9160 C   0  0  0  0  0  0  0  0  0  0  0  0
   31.5780   28.6870   46.8140 N   0  0  0  0  0  0  0  0  0  0  0  0
   31.8050   26.5300   49.3410 H   0  0  0  0  0  0  0  0  0  0  0  0
   29.4010   26.9500   49.4570 H   0  0  0  0  0  0  0  0  0  0  0  0
   29.6030   29.8240   45.9610 C   0  0  0  0  0  0  0  0  0  0  0  0
   28.1590   29.9970   45.8090 C   0  0  0  0  0  0  0  0  0  0  0  0
   27.5270   29.4260   46.4110 H   0  0  0  0  0  0  0  0  0  0  0  0
   28.2150   31.3170   44.4430 S   0  0  0  0  0  0  0  0  0  0  0  0
   30.0990   31.3290   44.3970 C   0  0  0  0  0  0  0  0  0  0  0  0
   30.5550   32.0120   43.6830 H   0  0  0  0  0  0  0  0  0  0  0  0
   30.4700   30.5130   45.2360 N   0  0  0  0  0  0  0  0  0  0  0  0
   34.9860   28.3780   49.4650 O   0  0  0  0  0  0  0  0  0  0  0  0
   37.3370   30.1750   51.5330 C   0  0  0  0  0  0  0  0  0  0  0  0
   38.0670   30.8600   50.5370 C   0  0  0  0  0  0  0  0  0  0  0  0
   37.7030   30.6580   49.2090 C   0  0  0  0  0  0  0  0  0  0  0  0
   36.6530   29.8010   49.0000 N   0  0  0  0  0  0  0  0  0  0  0  0
   35.9750   29.1650   49.9510 C   0  0  0  0  0  0  0  0  0  0  0  0
   36.3310   29.3610   51.2270 N   0  0  0  0  0  0  0  0  0  0  0  0
   37.6600   30.3670   52.5380 H   0  0  0  0  0  0  0  0  0  0  0  0
   38.8880   31.5280   50.7240 H   0  0  0  0  0  0  0  0  0  0  0  0
   38.9450   33.2590   49.0210 F   0  0  0  0  0  0  0  0  0  0  0  0
   38.9120   32.4810   47.9550 C   0  0  0  0  0  0  0  0  0  0  0  0
   38.3230   31.2630   48.0670 C   0  0  0  0  0  0  0  0  0  0  0  0
   38.3450   30.5230   46.8790 C   0  0  0  0  0  0  0  0  0  0  0  0
   38.9140   30.9990   45.7170 C   0  0  0  0  0  0  0  0  0  0  0  0
   39.4980   32.2420   45.6610 C   0  0  0  0  0  0  0  0  0  0  0  0
   39.4860   32.9790   46.8070 C   0  0  0  0  0  0  0  0  0  0  0  0
   37.9020   29.5280   46.8440 H   0  0  0  0  0  0  0  0  0  0  0  0
   38.8990   30.3730   44.8240 H   0  0  0  0  0  0  0  0  0  0  0  0
   39.9190   32.5480   44.7280 H   0  0  0  0  0  0  0  0  0  0  0  0
   39.9420   33.9600   46.7820 H   0  0  0  0  0  0  0  0  0  0  0  0
  1 22  1  0  0  0  0
  2  1  1  0  0  0  0
  3  1  1  0  0  0  0
  4  1  1  0  0  0  0
  4  5  1  0  0  0  0
  6  4  1  0  0  0  0
  7  4  1  0  0  0  0
  7  8  1  0  0  0  0
  8  9  2  0  0  0  0
  8 13  1  0  0  0  0
  9 14  1  0  0  0  0
 10  9  1  0  0  0  0
 11 10  2  0  0  0  0
 12 11  1  0  0  0  0
 12  7  2  0  0  0  0
 15 11  1  0  0  0  0
 16 15  2  0  0  0  0
 16 17  1  0  0  0  0
 18 16  1  0  0  0  0
 19 18  1  0  0  0  0
 19 21  2  0  0  0  0
 20 19  1  0  0  0  0
 21 15  1  0  0  0  0
 22 27  1  0  0  0  0
 23 29  1  0  0  0  0
 24 30  1  0  0  0  0
 24 23  2  0  0  0  0
 25 24  1  0  0  0  0
 26 25  2  0  0  0  0
 26 27  1  0  0  0  0
 27 28  2  0  0  0  0
 28 23  1  0  0  0  0
 32 33  1  0  0  0  0
 32 31  1  0  0  0  0
 33 25  1  0  0  0  0
 34 33  2  0  0  0  0
 35 34  1  0  0  0  0
 36 35  2  0  0  0  0
 36 37  1  0  0  0  0
 37 32  2  0  0  0  0
 38 34  1  0  0  0  0
 39 35  1  0  0  0  0
 40 36  1  0  0  0  0
 41 37  1  0  0  0  0
M  END
>  <minimizedAffinity>
-6.52876997

>  <minimizedRMSD>
0.244123414

$$$$
