
 OpenBabel03262521463D

 28 29  0  0  0  0  0  0  0  0999 V2000
   36.9630   29.2550   50.6290 C   0  0  0  0  0  0  0  0  0  0  0  0
   37.4910   28.3430   50.9820 H   0  0  0  0  0  0  0  0  0  0  0  0
   36.7700   29.1030   49.5340 H   0  0  0  0  0  0  0  0  0  0  0  0
   37.7370   30.5140   50.8300 C   0  0  0  0  0  0  0  0  0  0  0  0
   37.2470   31.1970   51.5650 H   0  0  0  0  0  0  0  0  0  0  0  0
   38.7010   30.2140   51.3370 H   0  0  0  0  0  0  0  0  0  0  0  0
   38.1150   31.2040   49.6080 C   0  0  0  0  0  0  0  0  0  0  0  0
   38.5370   32.5170   49.5890 C   0  0  0  0  0  0  0  0  0  0  0  0
   38.8810   33.0980   48.3590 C   0  0  0  0  0  0  0  0  0  0  0  0
   38.7740   32.3150   47.2350 N   0  0  0  0  0  0  0  0  0  0  0  0
   38.3550   31.0270   47.2920 C   0  0  0  0  0  0  0  0  0  0  0  0
   38.0270   30.4870   48.5000 N   0  0  0  0  0  0  0  0  0  0  0  0
   38.6060   33.0960   50.4990 H   0  0  0  0  0  0  0  0  0  0  0  0
   39.2190   34.1250   48.2850 H   0  0  0  0  0  0  0  0  0  0  0  0
   38.2920   30.4600   46.3640 H   0  0  0  0  0  0  0  0  0  0  0  0
   35.7180   29.4060   51.2480 O   0  0  0  0  0  0  0  0  0  0  0  0
   34.6980   30.5430   49.1420 O   0  0  0  0  0  0  0  0  0  0  0  0
   34.4660   29.3840   50.1250 P   0  0  2  0  0  0  0  0  0  0  0  0
   32.9840   29.6930   50.8410 O   0  0  0  0  0  0  0  0  0  0  0  0
   32.8260   29.2330   51.6850 H   0  0  0  0  0  0  0  0  0  0  0  0
   34.3870   27.9210   49.3170 O   0  0  0  0  0  0  0  0  0  0  0  0
   33.4540   27.7620   48.2700 C   0  0  0  0  0  0  0  0  0  0  0  0
   33.7740   27.5700   46.8860 C   0  0  0  0  0  0  0  0  0  0  0  0
   34.7410   27.5380   46.5960 H   0  0  0  0  0  0  0  0  0  0  0  0
   32.1230   27.4500   46.1760 S   0  0  0  0  0  0  0  0  0  0  0  0
   31.2610   27.6830   47.8760 C   0  0  0  0  0  0  0  0  0  0  0  0
   30.1500   27.6950   48.0440 H   0  0  0  0  0  0  0  0  0  0  0  0
   32.2480   27.8260   48.8060 N   0  0  0  0  0  0  0  0  0  0  0  0
  1  4  1  0  0  0  0
  1  2  1  0  0  0  0
  1 16  1  0  0  0  0
  3  1  1  0  0  0  0
  4  6  1  0  0  0  0
  4  5  1  0  0  0  0
  7  4  1  0  0  0  0
  8  7  1  0  0  0  0
  8 13  1  0  0  0  0
  9  8  2  0  0  0  0
 10 11  2  0  0  0  0
 10  9  1  0  0  0  0
 11 12  1  0  0  0  0
 12  7  2  0  0  0  0
 14  9  1  0  0  0  0
 15 11  1  0  0  0  0
 18 17  2  6  0  0  0
 18 19  1  0  0  0  0
 18 16  1  0  0  0  0
 19 20  1  0  0  0  0
 21 18  1  0  0  0  0
 22 28  1  0  0  0  0
 22 21  1  0  0  0  0
 23 22  2  0  0  0  0
 24 23  1  0  0  0  0
 25 23  1  0  0  0  0
 25 26  1  0  0  0  0
 26 27  1  0  0  0  0
 26 28  2  0  0  0  0
M  END
>  <minimizedAffinity>
-5.06301212

>  <minimizedRMSD>
0.174104542

$$$$
