
 OpenBabel03262521243D

 45 48  0  0  0  0  0  0  0  0999 V2000
   38.1820   28.2110   51.2920 C   0  0  0  0  0  0  0  0  0  0  0  0
   37.8540   27.4920   50.5130 H   0  0  0  0  0  0  0  0  0  0  0  0
   39.0980   28.6960   50.8800 H   0  0  0  0  0  0  0  0  0  0  0  0
   37.1520   29.2850   51.5710 C   0  0  0  0  0  0  0  0  0  0  0  0
   37.0600   29.2900   52.6990 H   0  0  0  0  0  0  0  0  0  0  0  0
   36.1740   28.8660   51.2440 H   0  0  0  0  0  0  0  0  0  0  0  0
   37.4700   30.5100   51.0740 C   0  0  0  0  0  0  0  0  0  0  0  0
   36.7400   31.3230   51.2750 H   0  0  0  0  0  0  0  0  0  0  0  0
   38.4750   30.8990   51.3920 H   0  0  0  0  0  0  0  0  0  0  0  0
   37.4820   30.1820   49.7470 O   0  0  0  0  0  0  0  0  0  0  0  0
   38.0750   31.0490   48.8560 C   0  0  0  0  0  0  0  0  0  0  0  0
   38.3560   32.2710   49.4170 C   0  0  0  0  0  0  0  0  0  0  0  0
   38.9640   33.2560   48.6230 C   0  0  0  0  0  0  0  0  0  0  0  0
   39.2370   32.9230   47.3260 N   0  0  0  0  0  0  0  0  0  0  0  0
   38.9460   31.7050   46.8010 C   0  0  0  0  0  0  0  0  0  0  0  0
   38.3630   30.7810   47.5870 N   0  0  0  0  0  0  0  0  0  0  0  0
   39.8500   32.5920   44.7690 C   0  0  0  0  0  0  0  0  0  0  0  0
   40.0780   33.7190   45.2800 O   0  0  0  0  0  0  0  0  0  0  0  0
   39.2760   31.4740   45.4370 N   0  0  0  0  0  0  0  0  0  0  0  0
   38.1900   32.6520   50.4190 H   0  0  0  0  0  0  0  0  0  0  0  0
   39.2260   34.2320   48.9460 H   0  0  0  0  0  0  0  0  0  0  0  0
   40.1200   32.4650   43.7200 H   0  0  0  0  0  0  0  0  0  0  0  0
   39.0840   30.5530   45.0420 H   0  0  0  0  0  0  0  0  0  0  0  0
   38.6760   27.2740   52.7320 S   0  0  0  0  0  0  0  0  0  0  0  0
   40.5700   25.2430   53.3250 C   0  0  0  0  0  0  0  0  0  0  0  0
   39.8530   26.0070   52.4090 C   0  0  0  0  0  0  0  0  0  0  0  0
   40.1080   25.7210   51.0720 C   0  0  0  0  0  0  0  0  0  0  0  0
   40.9920   24.7690   50.6510 C   0  0  0  0  0  0  0  0  0  0  0  0
   41.4080   24.3130   49.4840 N   0  0  0  0  0  0  0  0  0  0  0  0
   42.3310   23.3220   49.6170 C   0  0  0  0  0  0  0  0  0  0  0  0
   42.4960   23.1560   50.9890 C   0  0  0  0  0  0  0  0  0  0  0  0
   41.6610   24.0570   51.6060 C   0  0  0  0  0  0  0  0  0  0  0  0
   41.4650   24.2800   52.9380 C   0  0  0  0  0  0  0  0  0  0  0  0
   40.3520   25.4850   54.3530 H   0  0  0  0  0  0  0  0  0  0  0  0
   39.6000   26.2600   50.2770 H   0  0  0  0  0  0  0  0  0  0  0  0
   41.0420   24.6990   48.5690 H   0  0  0  0  0  0  0  0  0  0  0  0
   42.8060   22.8050   48.7730 H   0  0  0  0  0  0  0  0  0  0  0  0
   43.1850   22.4180   51.3170 H   0  0  0  0  0  0  0  0  0  0  0  0
   42.1930   23.5050   53.9380 C   0  0  0  0  0  0  0  0  0  0  0  0
   41.6780   22.3230   54.5280 C   0  0  0  0  0  0  0  0  0  0  0  0
   40.6520   21.8610   54.2830 H   0  0  0  0  0  0  0  0  0  0  0  0
   43.0710   21.8180   55.7070 S   0  0  0  0  0  0  0  0  0  0  0  0
   44.0730   23.3310   55.1500 C   0  0  0  0  0  0  0  0  0  0  0  0
   45.0520   24.1550   55.0960 H   0  0  0  0  0  0  0  0  0  0  0  0
   43.3870   23.7990   54.4050 N   0  0  0  0  0  0  0  0  0  0  0  0
  1  4  1  0  0  0  0
  1 24  1  0  0  0  0
  2  1  1  0  0  0  0
  3  1  1  0  0  0  0
  4  5  1  0  0  0  0
  6  4  1  0  0  0  0
  7  8  1  0  0  0  0
  7  9  1  0  0  0  0
  7  4  1  0  0  0  0
 10  7  1  0  0  0  0
 11 12  1  0  0  0  0
 11 10  1  0  0  0  0
 12 20  1  0  0  0  0
 13 21  1  0  0  0  0
 13 12  2  0  0  0  0
 14 13  1  0  0  0  0
 15 14  2  0  0  0  0
 15 16  1  0  0  0  0
 16 11  2  0  0  0  0
 17 18  2  0  0  0  0
 17 19  1  0  0  0  0
 19 15  1  0  0  0  0
 22 17  1  0  0  0  0
 23 19  1  0  0  0  0
 25 34  1  0  0  0  0
 26 24  1  0  0  0  0
 26 25  2  0  0  0  0
 27 26  1  0  0  0  0
 28 27  2  0  0  0  0
 28 32  1  0  0  0  0
 29 30  1  0  0  0  0
 29 28  1  0  0  0  0
 30 31  2  0  0  0  0
 31 38  1  0  0  0  0
 31 32  1  0  0  0  0
 32 33  2  0  0  0  0
 33 25  1  0  0  0  0
 33 39  1  0  0  0  0
 35 27  1  0  0  0  0
 36 29  1  0  0  0  0
 37 30  1  0  0  0  0
 39 45  1  0  0  0  0
 39 40  2  0  0  0  0
 40 42  1  0  0  0  0
 41 40  1  0  0  0  0
 43 42  1  0  0  0  0
 44 43  1  0  0  0  0
 45 43  2  0  0  0  0
M  END
>  <minimizedAffinity>
-4.33903217

>  <minimizedRMSD>
0.504015148

$$$$
