
 OpenBabel03272507553D

 21 22  0  0  0  0  0  0  0  0999 V2000
   35.3740   29.2310   50.5420 C   0  0  0  0  0  0  0  0  0  0  0  0
   36.2890   29.9650   49.7480 C   0  0  0  0  0  0  0  0  0  0  0  0
   36.2120   29.8200   48.3660 C   0  0  0  0  0  0  0  0  0  0  0  0
   35.2690   28.9860   47.8400 N   0  0  0  0  0  0  0  0  0  0  0  0
   34.4080   28.2970   48.6440 C   0  0  0  0  0  0  0  0  0  0  0  0
   34.4550   28.4160   49.9900 N   0  0  0  0  0  0  0  0  0  0  0  0
   33.5130   27.4910   47.8950 N   0  0  0  0  0  0  0  0  0  0  0  0
   35.3830   29.3020   51.6240 H   0  0  0  0  0  0  0  0  0  0  0  0
   32.6020   27.7680   47.4420 H   0  0  0  0  0  0  0  0  0  0  0  0
   34.0420   26.5740   47.9430 H   0  0  0  0  0  0  0  0  0  0  0  0
   37.1410   30.5650   47.5120 C   0  0  0  0  0  0  0  0  0  0  0  0
   36.6280   31.0840   46.3280 C   0  0  0  0  0  0  0  0  0  0  0  0
   35.6420   31.0510   45.8890 H   0  0  0  0  0  0  0  0  0  0  0  0
   38.0780   31.9210   45.5740 S   0  0  0  0  0  0  0  0  0  0  0  0
   39.1630   31.3940   47.0590 C   0  0  0  0  0  0  0  0  0  0  0  0
   40.2640   31.5490   47.3400 H   0  0  0  0  0  0  0  0  0  0  0  0
   38.4210   30.8260   47.6930 N   0  0  0  0  0  0  0  0  0  0  0  0
   37.2800   30.8490   50.4140 C   0  0  0  0  0  0  0  0  0  0  0  0
   38.5800   30.5040   50.0620 F   0  0  0  0  0  0  0  0  0  0  0  0
   37.0470   32.1370   50.0140 F   0  0  0  0  0  0  0  0  0  0  0  0
   37.1970   30.7990   51.7920 F   0  0  0  0  0  0  0  0  0  0  0  0
  1  8  1  0  0  0  0
  2 18  1  0  0  0  0
  2  1  2  0  0  0  0
  3  2  1  0  0  0  0
  4  3  2  0  0  0  0
  4  5  1  0  0  0  0
  5  6  2  0  0  0  0
  6  1  1  0  0  0  0
  7 10  1  0  0  0  0
  7  5  1  0  0  0  0
  9  7  1  0  0  0  0
 11 17  1  0  0  0  0
 11  3  1  0  0  0  0
 12 11  2  0  0  0  0
 13 12  1  0  0  0  0
 14 12  1  0  0  0  0
 14 15  1  0  0  0  0
 15 16  1  0  0  0  0
 15 17  2  0  0  0  0
 18 21  1  0  0  0  0
 19 18  1  0  0  0  0
 20 18  1  0  0  0  0
M  END
>  <minimizedAffinity>
-4.73201132

>  <minimizedRMSD>
1.07024634

$$$$
