
 OpenBabel03262523193D

 28 30  0  0  1  0  0  0  0  0999 V2000
   39.1400   32.6770   46.4640 C   0  0  0  0  0  0  0  0  0  0  0  0
   40.1510   31.8240   46.0040 C   0  0  0  0  0  0  0  0  0  0  0  0
   39.7940   30.5120   45.6680 C   0  0  0  0  0  0  0  0  0  0  0  0
   38.4950   30.1190   45.7970 N   0  0  0  0  0  0  0  0  0  0  0  0
   37.5510   30.9760   46.2450 C   0  0  0  0  0  0  0  0  0  0  0  0
   37.8560   32.2440   46.5790 N   0  0  0  0  0  0  0  0  0  0  0  0
   36.2030   30.5160   46.3630 N   0  0  0  0  0  0  0  0  0  0  0  0
   35.4220   30.0120   45.2440 C   0  0  0  0  0  0  0  0  0  0  0  0
   34.2430   29.3410   45.8640 C   0  0  0  0  0  0  0  0  0  0  0  0
   34.4910   29.3390   47.3550 C   0  0  0  0  0  0  0  0  0  0  0  0
   35.4120   30.4760   47.5880 C   0  0  1  0  0  0  0  0  0  0  0  0
   39.4340   33.6840   46.7190 H   0  0  0  0  0  0  0  0  0  0  0  0
   41.1750   32.1720   45.9140 H   0  0  0  0  0  0  0  0  0  0  0  0
   40.5690   29.8670   45.3180 H   0  0  0  0  0  0  0  0  0  0  0  0
   35.0290   30.9430   44.7420 H   0  0  0  0  0  0  0  0  0  0  0  0
   35.9890   29.4270   44.5240 H   0  0  0  0  0  0  0  0  0  0  0  0
   34.1330   28.3020   45.4760 H   0  0  0  0  0  0  0  0  0  0  0  0
   33.2760   29.8740   45.7020 H   0  0  0  0  0  0  0  0  0  0  0  0
   35.0320   28.4060   47.6460 H   0  0  0  0  0  0  0  0  0  0  0  0
   33.5700   29.3430   47.9490 H   0  0  0  0  0  0  0  0  0  0  0  0
   34.8410   31.4190   47.5990 H   0  0  0  0  0  0  0  0  0  0  0  0
   36.2790   30.3360   48.7850 C   0  0  0  0  0  0  0  0  0  0  0  0
   36.6060   31.4680   49.5930 C   0  0  0  0  0  0  0  0  0  0  0  0
   36.2560   32.4960   49.4060 H   0  0  0  0  0  0  0  0  0  0  0  0
   37.6730   30.7630   50.9040 S   0  0  0  0  0  0  0  0  0  0  0  0
   37.4960   29.0360   50.1280 C   0  0  0  0  0  0  0  0  0  0  0  0
   37.9160   27.9650   50.4040 H   0  0  0  0  0  0  0  0  0  0  0  0
   36.8340   29.2290   49.2420 N   0  0  0  0  0  0  0  0  0  0  0  0
  1  6  1  0  0  0  0
  1 12  1  0  0  0  0
  2  1  2  0  0  0  0
  3  4  2  0  0  0  0
  3  2  1  0  0  0  0
  4  5  1  0  0  0  0
  5  7  1  0  0  0  0
  5  6  2  0  0  0  0
  7 11  1  0  0  0  0
  8  9  1  0  0  0  0
  8  7  1  0  0  0  0
  9 10  1  0  0  0  0
 10 11  1  0  0  0  0
 10 19  1  0  0  0  0
 10 20  1  0  0  0  0
 11 21  1  1  0  0  0
 11 22  1  0  0  0  0
 13  2  1  0  0  0  0
 14  3  1  0  0  0  0
 15  8  1  0  0  0  0
 16  8  1  0  0  0  0
 17  9  1  0  0  0  0
 18  9  1  0  0  0  0
 22 28  1  0  0  0  0
 22 23  2  0  0  0  0
 23 25  1  0  0  0  0
 24 23  1  0  0  0  0
 26 27  1  0  0  0  0
 26 25  1  0  0  0  0
 28 26  2  0  0  0  0
M  END
>  <minimizedAffinity>
-4.1022439

>  <minimizedRMSD>
2.73751783

$$$$
