
 OpenBabel03272500383D

 34 36  0  0  1  0  0  0  0  0999 V2000
   37.1500   30.5030   49.1700 C   0  0  0  0  0  0  0  0  0  0  0  0
   37.1820   31.6890   49.9360 C   0  0  0  0  0  0  0  0  0  0  0  0
   37.7870   32.8080   49.3590 C   0  0  0  0  0  0  0  0  0  0  0  0
   38.3060   32.6860   48.1000 N   0  0  0  0  0  0  0  0  0  0  0  0
   38.2500   31.5330   47.4100 C   0  0  0  0  0  0  0  0  0  0  0  0
   37.6740   30.4390   47.9380 N   0  0  0  0  0  0  0  0  0  0  0  0
   38.8250   31.5150   46.0960 N   0  0  0  0  0  0  0  0  0  0  0  0
   40.2130   31.1350   45.9470 C   0  0  0  0  0  0  0  0  0  0  0  0
   40.7930   32.1750   44.9840 C   0  0  0  0  0  0  0  0  0  0  0  0
   40.1590   31.8460   43.6590 C   0  0  0  0  0  0  0  0  0  0  0  0
   38.7070   32.1690   43.7200 C   0  0  0  0  0  0  0  0  0  0  0  0
   38.0030   31.8700   45.0040 C   0  0  1  0  0  0  0  0  0  0  0  0
   36.7580   31.7320   50.9270 H   0  0  0  0  0  0  0  0  0  0  0  0
   37.8260   33.7140   49.9140 H   0  0  0  0  0  0  0  0  0  0  0  0
   40.7530   31.1970   46.9090 H   0  0  0  0  0  0  0  0  0  0  0  0
   40.3310   30.1470   45.4430 H   0  0  0  0  0  0  0  0  0  0  0  0
   41.8750   31.9000   44.8860 H   0  0  0  0  0  0  0  0  0  0  0  0
   40.6100   33.1980   45.3190 H   0  0  0  0  0  0  0  0  0  0  0  0
   40.3490   30.7650   43.4760 H   0  0  0  0  0  0  0  0  0  0  0  0
   40.6320   32.4380   42.8540 H   0  0  0  0  0  0  0  0  0  0  0  0
   38.2230   31.5430   42.9240 H   0  0  0  0  0  0  0  0  0  0  0  0
   38.5770   33.2090   43.3560 H   0  0  0  0  0  0  0  0  0  0  0  0
   37.5220   32.8430   45.3060 H   0  0  0  0  0  0  0  0  0  0  0  0
   36.9470   30.8350   44.8310 C   0  0  0  0  0  0  0  0  0  0  0  0
   35.6500   30.8430   45.5380 C   0  0  0  0  0  0  0  0  0  0  0  0
   35.4790   31.7580   46.2960 H   0  0  0  0  0  0  0  0  0  0  0  0
   34.8640   29.3350   44.8630 S   0  0  0  0  0  0  0  0  0  0  0  0
   36.3290   28.9460   43.7880 C   0  0  0  0  0  0  0  0  0  0  0  0
   36.3020   28.0560   43.1550 H   0  0  0  0  0  0  0  0  0  0  0  0
   37.1150   29.8310   44.0090 N   0  0  0  0  0  0  0  0  0  0  0  0
   36.5040   29.2900   49.7720 C   0  0  0  0  0  0  0  0  0  0  0  0
   35.6610   29.6950   50.8170 F   0  0  0  0  0  0  0  0  0  0  0  0
   35.8670   28.6080   48.7980 F   0  0  0  0  0  0  0  0  0  0  0  0
   37.5100   28.5410   50.3700 F   0  0  0  0  0  0  0  0  0  0  0  0
  1 31  1  0  0  0  0
  1  2  1  0  0  0  0
  2 13  1  0  0  0  0
  3 14  1  0  0  0  0
  3  2  2  0  0  0  0
  4  3  1  0  0  0  0
  5  6  1  0  0  0  0
  5  4  2  0  0  0  0
  6  1  2  0  0  0  0
  7  5  1  0  0  0  0
  8  7  1  0  0  0  0
  8 15  1  0  0  0  0
  9 18  1  0  0  0  0
  9  8  1  0  0  0  0
 10 11  1  0  0  0  0
 10  9  1  0  0  0  0
 11 12  1  0  0  0  0
 12 23  1  1  0  0  0
 12  7  1  0  0  0  0
 16  8  1  0  0  0  0
 17  9  1  0  0  0  0
 19 10  1  0  0  0  0
 20 10  1  0  0  0  0
 21 11  1  0  0  0  0
 22 11  1  0  0  0  0
 24 12  1  0  0  0  0
 24 25  2  0  0  0  0
 25 26  1  0  0  0  0
 27 25  1  0  0  0  0
 28 30  2  0  0  0  0
 28 27  1  0  0  0  0
 29 28  1  0  0  0  0
 30 24  1  0  0  0  0
 31 34  1  0  0  0  0
 31 32  1  0  0  0  0
 33 31  1  0  0  0  0
M  END
>  <minimizedAffinity>
-5.82622623

>  <minimizedRMSD>
1.03173864

$$$$
