
 OpenBabel03272506383D

 35 37  0  0  1  0  0  0  0  0999 V2000
   34.8660   28.2860   49.7410 O   0  0  0  0  0  0  0  0  0  0  0  0
   34.5890   28.8670   48.6840 C   0  0  0  0  0  0  0  0  0  0  0  0
   35.2960   30.0570   48.2630 C   0  0  2  0  0  0  0  0  0  0  0  0
   34.7160   30.2570   46.8260 C   0  0  0  0  0  0  0  0  0  0  0  0
   33.3750   29.6010   46.9020 C   0  0  0  0  0  0  0  0  0  0  0  0
   33.5620   28.4480   47.7610 N   0  0  0  0  0  0  0  0  0  0  0  0
   35.0540   30.9350   48.8580 H   0  0  0  0  0  0  0  0  0  0  0  0
   35.3830   29.8410   46.0730 H   0  0  0  0  0  0  0  0  0  0  0  0
   34.5790   31.3480   46.7260 H   0  0  0  0  0  0  0  0  0  0  0  0
   33.1420   29.2020   45.8830 H   0  0  0  0  0  0  0  0  0  0  0  0
   32.5880   30.2450   47.2920 H   0  0  0  0  0  0  0  0  0  0  0  0
   32.8690   27.1880   47.6800 C   0  0  0  0  0  0  0  0  0  0  0  0
   32.8180   26.7700   48.7210 H   0  0  0  0  0  0  0  0  0  0  0  0
   31.8340   27.3770   47.3950 H   0  0  0  0  0  0  0  0  0  0  0  0
   33.5740   26.2020   46.7850 C   0  0  0  0  0  0  0  0  0  0  0  0
   33.8290   26.5570   45.3880 C   0  0  0  0  0  0  0  0  0  0  0  0
   33.5760   27.4070   44.9630 H   0  0  0  0  0  0  0  0  0  0  0  0
   34.6680   25.0500   44.8130 S   0  0  0  0  0  0  0  0  0  0  0  0
   34.5440   24.2010   46.5090 C   0  0  0  0  0  0  0  0  0  0  0  0
   34.8660   23.1820   46.9510 H   0  0  0  0  0  0  0  0  0  0  0  0
   33.9160   25.0450   47.3640 N   0  0  0  0  0  0  0  0  0  0  0  0
   36.6990   29.8770   48.0870 O   0  0  0  0  0  0  0  0  0  0  0  0
   37.5120   31.0030   48.1830 C   0  0  0  0  0  0  0  0  0  0  0  0
   37.6540   31.5640   49.4390 C   0  0  0  0  0  0  0  0  0  0  0  0
   38.4570   32.6860   49.5670 C   0  0  0  0  0  0  0  0  0  0  0  0
   39.0700   33.1860   48.4570 N   0  0  0  0  0  0  0  0  0  0  0  0
   38.9210   32.6290   47.2460 C   0  0  0  0  0  0  0  0  0  0  0  0
   38.1500   31.5560   47.1290 N   0  0  0  0  0  0  0  0  0  0  0  0
   40.4550   32.2580   45.4780 C   0  0  0  0  0  0  0  0  0  0  0  0
   40.7060   31.0610   45.8110 O   0  0  0  0  0  0  0  0  0  0  0  0
   39.5740   33.1820   46.1070 N   0  0  0  0  0  0  0  0  0  0  0  0
   37.1550   31.1440   50.3020 H   0  0  0  0  0  0  0  0  0  0  0  0
   38.5630   33.1160   50.5440 H   0  0  0  0  0  0  0  0  0  0  0  0
   41.0330   32.5080   44.5980 H   0  0  0  0  0  0  0  0  0  0  0  0
   39.5300   34.1010   45.6600 H   0  0  0  0  0  0  0  0  0  0  0  0
  2  1  2  0  0  0  0
  3  2  1  0  0  0  0
  3  7  1  1  0  0  0
  4  5  1  0  0  0  0
  4  3  1  0  0  0  0
  5 11  1  0  0  0  0
  5  6  1  0  0  0  0
  6  2  1  0  0  0  0
  8  4  1  0  0  0  0
  9  4  1  0  0  0  0
 10  5  1  0  0  0  0
 12  6  1  0  0  0  0
 12 13  1  0  0  0  0
 14 12  1  0  0  0  0
 15 21  1  0  0  0  0
 15 12  1  0  0  0  0
 16 15  2  0  0  0  0
 17 16  1  0  0  0  0
 18 16  1  0  0  0  0
 18 19  1  0  0  0  0
 19 20  1  0  0  0  0
 19 21  2  0  0  0  0
 22 23  1  0  0  0  0
 22  3  1  0  0  0  0
 23 24  1  0  0  0  0
 24 25  2  0  0  0  0
 24 32  1  0  0  0  0
 25 33  1  0  0  0  0
 26 25  1  0  0  0  0
 27 26  2  0  0  0  0
 28 27  1  0  0  0  0
 28 23  2  0  0  0  0
 29 30  2  0  0  0  0
 29 31  1  0  0  0  0
 31 27  1  0  0  0  0
 34 29  1  0  0  0  0
 35 31  1  0  0  0  0
M  END
>  <minimizedAffinity>
-5.25707197

>  <minimizedRMSD>
0.906788826

$$$$
