
 OpenBabel03272501443D

 32 35  0  0  0  0  0  0  0  0999 V2000
   35.0510   29.2580   49.4080 C   0  0  0  0  0  0  0  0  0  0  0  0
   35.4260   29.9960   48.2490 C   0  0  0  0  0  0  0  0  0  0  0  0
   34.7970   29.6670   47.0630 C   0  0  0  0  0  0  0  0  0  0  0  0
   33.8710   28.6780   47.0550 N   0  0  0  0  0  0  0  0  0  0  0  0
   33.5290   27.9880   48.1750 C   0  0  0  0  0  0  0  0  0  0  0  0
   34.1270   28.2890   49.3450 N   0  0  0  0  0  0  0  0  0  0  0  0
   35.4230   29.3600   50.4230 H   0  0  0  0  0  0  0  0  0  0  0  0
   35.1020   30.2390   46.2120 H   0  0  0  0  0  0  0  0  0  0  0  0
   36.4880   31.5820   49.7520 C   0  0  0  0  0  0  0  0  0  0  0  0
   36.4300   31.0030   48.4830 C   0  0  0  0  0  0  0  0  0  0  0  0
   37.3490   31.4370   47.5280 C   0  0  0  0  0  0  0  0  0  0  0  0
   38.2710   32.4220   47.8910 C   0  0  0  0  0  0  0  0  0  0  0  0
   39.2540   33.0300   47.2120 N   0  0  0  0  0  0  0  0  0  0  0  0
   39.8750   33.9160   47.9940 C   0  0  0  0  0  0  0  0  0  0  0  0
   39.2920   33.8910   49.2100 N   0  0  0  0  0  0  0  0  0  0  0  0
   38.3100   32.9790   49.1500 C   0  0  0  0  0  0  0  0  0  0  0  0
   37.4040   32.5520   50.0930 C   0  0  0  0  0  0  0  0  0  0  0  0
   35.8260   31.3330   50.5900 H   0  0  0  0  0  0  0  0  0  0  0  0
   37.3140   31.0020   46.5510 H   0  0  0  0  0  0  0  0  0  0  0  0
   39.4810   32.8180   46.2050 H   0  0  0  0  0  0  0  0  0  0  0  0
   40.7120   34.5600   47.7270 H   0  0  0  0  0  0  0  0  0  0  0  0
   37.4620   33.0080   51.0710 H   0  0  0  0  0  0  0  0  0  0  0  0
   32.5000   26.9170   48.0800 C   0  0  0  0  0  0  0  0  0  0  0  0
   32.6700   26.0790   48.7640 H   0  0  0  0  0  0  0  0  0  0  0  0
   32.5760   26.5000   47.0520 H   0  0  0  0  0  0  0  0  0  0  0  0
   31.1440   27.5400   48.2840 C   0  0  0  0  0  0  0  0  0  0  0  0
   30.3450   28.0540   47.1110 C   0  0  0  0  0  0  0  0  0  0  0  0
   30.7260   27.9780   46.1680 H   0  0  0  0  0  0  0  0  0  0  0  0
   28.8790   28.6560   47.9820 S   0  0  0  0  0  0  0  0  0  0  0  0
   29.5470   28.1430   49.7080 C   0  0  0  0  0  0  0  0  0  0  0  0
   29.0230   28.2860   50.6620 H   0  0  0  0  0  0  0  0  0  0  0  0
   30.6830   27.6200   49.5260 N   0  0  0  0  0  0  0  0  0  0  0  0
  1  7  1  0  0  0  0
  2 10  1  0  0  0  0
  2  1  2  0  0  0  0
  3  2  1  0  0  0  0
  4  3  2  0  0  0  0
  4  5  1  0  0  0  0
  5  6  2  0  0  0  0
  6  1  1  0  0  0  0
  8  3  1  0  0  0  0
  9 17  1  0  0  0  0
  9 18  1  0  0  0  0
 10  9  2  0  0  0  0
 11 12  2  0  0  0  0
 11 10  1  0  0  0  0
 12 16  1  0  0  0  0
 13 12  1  0  0  0  0
 13 14  1  0  0  0  0
 14 15  2  0  0  0  0
 16 15  1  0  0  0  0
 16 17  2  0  0  0  0
 17 22  1  0  0  0  0
 19 11  1  0  0  0  0
 20 13  1  0  0  0  0
 21 14  1  0  0  0  0
 23  5  1  0  0  0  0
 23 26  1  0  0  0  0
 23 24  1  0  0  0  0
 25 23  1  0  0  0  0
 26 32  1  0  0  0  0
 27 29  1  0  0  0  0
 27 26  2  0  0  0  0
 28 27  1  0  0  0  0
 29 30  1  0  0  0  0
 30 31  1  0  0  0  0
 32 30  2  0  0  0  0
M  END
>  <minimizedAffinity>
-6.08903456

>  <minimizedRMSD>
1.80784154

$$$$
