
 OpenBabel03272504403D

 40 42  0  0  0  0  0  0  0  0999 V2000
   38.7610   23.4110   32.2510 Cl  0  0  0  0  0  0  0  0  0  0  0  0
   37.3480   24.3280   31.7280 C   0  0  0  0  0  0  0  0  0  0  0  0
   36.1490   23.6940   31.6190 C   0  0  0  0  0  0  0  0  0  0  0  0
   35.0450   24.3930   31.2170 C   0  0  0  0  0  0  0  0  0  0  0  0
   35.1730   25.7400   30.9280 C   0  0  0  0  0  0  0  0  0  0  0  0
   36.4240   26.3420   31.0560 C   0  0  0  0  0  0  0  0  0  0  0  0
   37.5340   25.6620   31.4540 C   0  0  0  0  0  0  0  0  0  0  0  0
   34.0910   23.8520   31.1390 H   0  0  0  0  0  0  0  0  0  0  0  0
   34.2370   26.1960   30.6190 H   0  0  0  0  0  0  0  0  0  0  0  0
   36.3180   27.3370   30.7990 H   0  0  0  0  0  0  0  0  0  0  0  0
   35.9810   20.0180   31.2920 C   0  0  0  0  0  0  0  0  0  0  0  0
   35.7690   19.6330   32.6420 C   0  0  0  0  0  0  0  0  0  0  0  0
   35.6940   20.6420   33.5910 C   0  0  0  0  0  0  0  0  0  0  0  0
   35.8240   21.9420   33.2080 N   0  0  0  0  0  0  0  0  0  0  0  0
   36.0240   22.2730   31.9230 C   0  0  0  0  0  0  0  0  0  0  0  0
   36.1000   21.3150   30.9790 N   0  0  0  0  0  0  0  0  0  0  0  0
   36.0390   19.2320   30.5510 H   0  0  0  0  0  0  0  0  0  0  0  0
   35.6790   18.5730   32.8430 H   0  0  0  0  0  0  0  0  0  0  0  0
   35.4810   20.2370   34.9290 N   0  0  0  0  0  0  0  0  0  0  0  0
   34.5220   20.5930   35.1450 H   0  0  0  0  0  0  0  0  0  0  0  0
   36.1940   19.7140   35.4600 H   0  0  0  0  0  0  0  0  0  0  0  0
   38.8280   26.2970   31.5720 C   0  0  0  0  0  0  0  0  0  0  0  0
   39.0380   26.7790   30.5700 H   0  0  0  0  0  0  0  0  0  0  0  0
   39.6110   25.5110   31.6400 H   0  0  0  0  0  0  0  0  0  0  0  0
   39.0430   27.2880   32.6160 C   0  0  0  0  0  0  0  0  0  0  0  0
   38.1400   27.9400   32.7800 H   0  0  0  0  0  0  0  0  0  0  0  0
   39.8510   28.0120   32.3020 H   0  0  0  0  0  0  0  0  0  0  0  0
   39.3940   26.7130   33.8110 O   0  0  0  0  0  0  0  0  0  0  0  0
   36.9960   27.6450   34.3780 O   0  0  0  0  0  0  0  0  0  0  0  0
   38.1390   26.8230   34.9190 P   0  0  2  0  0  0  0  0  0  0  0  0
   38.8030   27.5420   36.3290 O   0  0  0  0  0  0  0  0  0  0  0  0
   39.6060   27.0270   36.5570 H   0  0  0  0  0  0  0  0  0  0  0  0
   37.5570   25.3220   35.3590 O   0  0  0  0  0  0  0  0  0  0  0  0
   38.1570   24.5420   36.3670 C   0  0  0  0  0  0  0  0  0  0  0  0
   39.1620   23.7030   35.9460 C   0  0  0  0  0  0  0  0  0  0  0  0
   39.6160   23.4920   34.9980 H   0  0  0  0  0  0  0  0  0  0  0  0
   39.6800   22.8830   37.4870 S   0  0  0  0  0  0  0  0  0  0  0  0
   38.3850   23.8640   38.4790 C   0  0  0  0  0  0  0  0  0  0  0  0
   37.9590   24.0140   39.5880 H   0  0  0  0  0  0  0  0  0  0  0  0
   37.9110   24.4830   37.6660 N   0  0  0  0  0  0  0  0  0  0  0  0
  2  1  1  0  0  0  0
  3  2  1  0  0  0  0
  3 15  1  0  0  0  0
  4  3  2  0  0  0  0
  5  6  2  0  0  0  0
  5  4  1  0  0  0  0
  6  7  1  0  0  0  0
  7 22  1  0  0  0  0
  7  2  2  0  0  0  0
  8  4  1  0  0  0  0
  9  5  1  0  0  0  0
 10  6  1  0  0  0  0
 11 12  1  0  0  0  0
 12 18  1  0  0  0  0
 12 13  2  0  0  0  0
 13 19  1  0  0  0  0
 14 13  1  0  0  0  0
 15 14  2  0  0  0  0
 16 11  2  0  0  0  0
 16 15  1  0  0  0  0
 17 11  1  0  0  0  0
 19 20  1  0  0  0  0
 19 21  1  0  0  0  0
 22 24  1  0  0  0  0
 22 25  1  0  0  0  0
 23 22  1  0  0  0  0
 25 26  1  0  0  0  0
 25 28  1  0  0  0  0
 27 25  1  0  0  0  0
 28 30  1  0  0  0  0
 30 29  2  6  0  0  0
 30 33  1  0  0  0  0
 30 31  1  0  0  0  0
 31 32  1  0  0  0  0
 33 34  1  0  0  0  0
 34 40  1  0  0  0  0
 35 34  2  0  0  0  0
 35 37  1  0  0  0  0
 36 35  1  0  0  0  0
 37 38  1  0  0  0  0
 38 39  1  0  0  0  0
 40 38  2  0  0  0  0
M  END
>  <minimizedAffinity>
-5.84219694

$$$$

 OpenBabel03272504403D

 40 42  0  0  0  0  0  0  0  0999 V2000
   39.0440   23.6320   33.4080 Cl  0  0  0  0  0  0  0  0  0  0  0  0
   37.7210   22.4870   33.6260 C   0  0  0  0  0  0  0  0  0  0  0  0
   37.4810   21.9800   34.8660 C   0  0  0  0  0  0  0  0  0  0  0  0
   36.4560   21.0930   35.0500 C   0  0  0  0  0  0  0  0  0  0  0  0
   35.6820   20.7280   33.9640 C   0  0  0  0  0  0  0  0  0  0  0  0
   35.9700   21.2760   32.7150 C   0  0  0  0  0  0  0  0  0  0  0  0
   36.9850   22.1600   32.5120 C   0  0  0  0  0  0  0  0  0  0  0  0
   36.2880   20.7010   36.0640 H   0  0  0  0  0  0  0  0  0  0  0  0
   34.9000   20.0200   34.2220 H   0  0  0  0  0  0  0  0  0  0  0  0
   35.2920   20.8870   32.0400 H   0  0  0  0  0  0  0  0  0  0  0  0
   40.2720   22.2550   37.2700 C   0  0  0  0  0  0  0  0  0  0  0  0
   39.7410   23.1890   38.1990 C   0  0  0  0  0  0  0  0  0  0  0  0
   38.4650   23.6740   37.9590 C   0  0  0  0  0  0  0  0  0  0  0  0
   37.7740   23.2520   36.8650 N   0  0  0  0  0  0  0  0  0  0  0  0
   38.3040   22.3670   36.0050 C   0  0  0  0  0  0  0  0  0  0  0  0
   39.5420   21.8780   36.2120 N   0  0  0  0  0  0  0  0  0  0  0  0
   41.2680   21.8750   37.4560 H   0  0  0  0  0  0  0  0  0  0  0  0
   40.3720   23.4610   39.0360 H   0  0  0  0  0  0  0  0  0  0  0  0
   37.9540   24.6020   38.8970 N   0  0  0  0  0  0  0  0  0  0  0  0
   37.1720   24.0830   39.3580 H   0  0  0  0  0  0  0  0  0  0  0  0
   38.3550   25.5460   39.0020 H   0  0  0  0  0  0  0  0  0  0  0  0
   37.2800   22.7130   31.2080 C   0  0  0  0  0  0  0  0  0  0  0  0
   37.1310   21.8730   30.4660 H   0  0  0  0  0  0  0  0  0  0  0  0
   38.3710   22.9160   31.1400 H   0  0  0  0  0  0  0  0  0  0  0  0
   36.5400   23.8780   30.7450 C   0  0  0  0  0  0  0  0  0  0  0  0
   35.4810   23.8920   31.1270 H   0  0  0  0  0  0  0  0  0  0  0  0
   36.4270   23.8410   29.6220 H   0  0  0  0  0  0  0  0  0  0  0  0
   37.1510   25.0530   31.0980 O   0  0  0  0  0  0  0  0  0  0  0  0
   34.6180   25.7710   31.1830 O   0  0  0  0  0  0  0  0  0  0  0  0
   36.0310   26.2970   31.2220 P   0  0  2  0  0  0  0  0  0  0  0  0
   36.3340   27.3500   29.9010 O   0  0  0  0  0  0  0  0  0  0  0  0
   37.2920   27.5580   29.9200 H   0  0  0  0  0  0  0  0  0  0  0  0
   36.2340   27.1860   32.6180 O   0  0  0  0  0  0  0  0  0  0  0  0
   37.3840   27.0780   33.4250 C   0  0  0  0  0  0  0  0  0  0  0  0
   37.1500   26.7940   34.7500 C   0  0  0  0  0  0  0  0  0  0  0  0
   36.2710   26.6270   35.3400 H   0  0  0  0  0  0  0  0  0  0  0  0
   38.8300   26.7340   35.4540 S   0  0  0  0  0  0  0  0  0  0  0  0
   39.5890   27.1230   33.7530 C   0  0  0  0  0  0  0  0  0  0  0  0
   40.6400   27.2900   33.2030 H   0  0  0  0  0  0  0  0  0  0  0  0
   38.6640   27.2070   33.1160 N   0  0  0  0  0  0  0  0  0  0  0  0
  1  2  1  0  0  0  0
  2  3  1  0  0  0  0
  3  4  2  0  0  0  0
  3 15  1  0  0  0  0
  4  8  1  0  0  0  0
  5  9  1  0  0  0  0
  5  4  1  0  0  0  0
  6  5  2  0  0  0  0
  7  6  1  0  0  0  0
  7  2  2  0  0  0  0
 10  6  1  0  0  0  0
 11 17  1  0  0  0  0
 11 12  1  0  0  0  0
 12 18  1  0  0  0  0
 13 12  2  0  0  0  0
 13 19  1  0  0  0  0
 14 13  1  0  0  0  0
 15 16  1  0  0  0  0
 15 14  2  0  0  0  0
 16 11  2  0  0  0  0
 19 21  1  0  0  0  0
 19 20  1  0  0  0  0
 22  7  1  0  0  0  0
 23 22  1  0  0  0  0
 24 22  1  0  0  0  0
 25 28  1  0  0  0  0
 25 26  1  0  0  0  0
 25 22  1  0  0  0  0
 27 25  1  0  0  0  0
 28 30  1  0  0  0  0
 30 29  2  6  0  0  0
 30 33  1  0  0  0  0
 31 32  1  0  0  0  0
 31 30  1  0  0  0  0
 33 34  1  0  0  0  0
 34 35  2  0  0  0  0
 35 36  1  0  0  0  0
 35 37  1  0  0  0  0
 38 37  1  0  0  0  0
 39 38  1  0  0  0  0
 40 34  1  0  0  0  0
 40 38  2  0  0  0  0
M  END
>  <minimizedAffinity>
-5.78228998

$$$$

 OpenBabel03272504403D

 40 42  0  0  0  0  0  0  0  0999 V2000
   38.6490   26.9640   35.4230 Cl  0  0  0  0  0  0  0  0  0  0  0  0
   38.2790   25.7190   34.2300 C   0  0  0  0  0  0  0  0  0  0  0  0
   38.1930   24.4210   34.6320 C   0  0  0  0  0  0  0  0  0  0  0  0
   37.9040   23.4450   33.7180 C   0  0  0  0  0  0  0  0  0  0  0  0
   37.7050   23.8020   32.3970 C   0  0  0  0  0  0  0  0  0  0  0  0
   37.8040   25.1460   32.0380 C   0  0  0  0  0  0  0  0  0  0  0  0
   38.0910   26.1310   32.9320 C   0  0  0  0  0  0  0  0  0  0  0  0
   37.8420   22.4070   34.0730 H   0  0  0  0  0  0  0  0  0  0  0  0
   37.4830   22.9520   31.7590 H   0  0  0  0  0  0  0  0  0  0  0  0
   37.6250   25.2110   31.0220 H   0  0  0  0  0  0  0  0  0  0  0  0
   37.9060   24.2060   38.3080 C   0  0  0  0  0  0  0  0  0  0  0  0
   38.9280   23.2670   38.6070 C   0  0  0  0  0  0  0  0  0  0  0  0
   39.6600   22.7580   37.5450 C   0  0  0  0  0  0  0  0  0  0  0  0
   39.3820   23.1630   36.2760 N   0  0  0  0  0  0  0  0  0  0  0  0
   38.4080   24.0530   36.0260 C   0  0  0  0  0  0  0  0  0  0  0  0
   37.6820   24.5650   37.0370 N   0  0  0  0  0  0  0  0  0  0  0  0
   37.3340   24.6050   39.1360 H   0  0  0  0  0  0  0  0  0  0  0  0
   39.0690   23.0100   39.6500 H   0  0  0  0  0  0  0  0  0  0  0  0
   40.6740   21.8250   37.8650 N   0  0  0  0  0  0  0  0  0  0  0  0
   41.5580   22.3330   37.6330 H   0  0  0  0  0  0  0  0  0  0  0  0
   40.4550   20.8890   38.2360 H   0  0  0  0  0  0  0  0  0  0  0  0
   38.2010   27.5200   32.5440 C   0  0  0  0  0  0  0  0  0  0  0  0
   38.9580   27.5550   31.7040 H   0  0  0  0  0  0  0  0  0  0  0  0
   38.7060   28.0840   33.3580 H   0  0  0  0  0  0  0  0  0  0  0  0
   37.0080   28.2390   32.1230 C   0  0  0  0  0  0  0  0  0  0  0  0
   36.6400   27.9040   31.1130 H   0  0  0  0  0  0  0  0  0  0  0  0
   37.2470   29.3330   31.9800 H   0  0  0  0  0  0  0  0  0  0  0  0
   35.9850   28.1160   33.0270 O   0  0  0  0  0  0  0  0  0  0  0  0
   33.8570   29.6480   33.2870 O   0  0  0  0  0  0  0  0  0  0  0  0
   35.3580   29.6200   33.4310 P   0  0  2  0  0  0  0  0  0  0  0  0
   36.1000   30.7500   32.3740 O   0  0  0  0  0  0  0  0  0  0  0  0
   37.0670   30.5980   32.4320 H   0  0  0  0  0  0  0  0  0  0  0  0
   35.7550   30.0670   34.9880 O   0  0  0  0  0  0  0  0  0  0  0  0
   35.6600   31.3980   35.4420 C   0  0  0  0  0  0  0  0  0  0  0  0
   34.6960   31.6290   36.3950 C   0  0  0  0  0  0  0  0  0  0  0  0
   33.9720   31.0170   36.8950 H   0  0  0  0  0  0  0  0  0  0  0  0
   34.8700   33.4120   36.7240 S   0  0  0  0  0  0  0  0  0  0  0  0
   36.2830   33.5380   35.4550 C   0  0  0  0  0  0  0  0  0  0  0  0
   37.0460   34.3210   34.9650 H   0  0  0  0  0  0  0  0  0  0  0  0
   36.3510   32.4730   35.0990 N   0  0  0  0  0  0  0  0  0  0  0  0
  2  3  1  0  0  0  0
  2  1  1  0  0  0  0
  3 15  1  0  0  0  0
  4  8  1  0  0  0  0
  4  3  2  0  0  0  0
  5  4  1  0  0  0  0
  6  5  2  0  0  0  0
  6  7  1  0  0  0  0
  7  2  2  0  0  0  0
  9  5  1  0  0  0  0
 10  6  1  0  0  0  0
 11 12  1  0  0  0  0
 11 17  1  0  0  0  0
 12 18  1  0  0  0  0
 13 19  1  0  0  0  0
 13 12  2  0  0  0  0
 14 13  1  0  0  0  0
 15 14  2  0  0  0  0
 15 16  1  0  0  0  0
 16 11  2  0  0  0  0
 19 21  1  0  0  0  0
 20 19  1  0  0  0  0
 22  7  1  0  0  0  0
 22 24  1  0  0  0  0
 23 22  1  0  0  0  0
 25 22  1  0  0  0  0
 25 28  1  0  0  0  0
 26 25  1  0  0  0  0
 27 25  1  0  0  0  0
 28 30  1  0  0  0  0
 30 29  2  6  0  0  0
 30 33  1  0  0  0  0
 31 32  1  0  0  0  0
 31 30  1  0  0  0  0
 33 34  1  0  0  0  0
 34 35  2  0  0  0  0
 35 37  1  0  0  0  0
 35 36  1  0  0  0  0
 38 37  1  0  0  0  0
 39 38  1  0  0  0  0
 40 34  1  0  0  0  0
 40 38  2  0  0  0  0
M  END
>  <minimizedAffinity>
-5.72128201

$$$$

 OpenBabel03272504403D

 40 42  0  0  0  0  0  0  0  0999 V2000
   38.6220   26.9510   35.3240 Cl  0  0  0  0  0  0  0  0  0  0  0  0
   38.3170   25.6860   34.1340 C   0  0  0  0  0  0  0  0  0  0  0  0
   38.2500   24.3900   34.5460 C   0  0  0  0  0  0  0  0  0  0  0  0
   38.0110   23.3990   33.6350 C   0  0  0  0  0  0  0  0  0  0  0  0
   37.8440   23.7380   32.3050 C   0  0  0  0  0  0  0  0  0  0  0  0
   37.9220   25.0800   31.9350 C   0  0  0  0  0  0  0  0  0  0  0  0
   38.1590   26.0800   32.8270 C   0  0  0  0  0  0  0  0  0  0  0  0
   37.9630   22.3630   33.9990 H   0  0  0  0  0  0  0  0  0  0  0  0
   37.6610   22.8760   31.6690 H   0  0  0  0  0  0  0  0  0  0  0  0
   37.7730   25.1310   30.9130 H   0  0  0  0  0  0  0  0  0  0  0  0
   37.8820   24.2340   38.2190 C   0  0  0  0  0  0  0  0  0  0  0  0
   38.8880   23.2900   38.5540 C   0  0  0  0  0  0  0  0  0  0  0  0
   39.6370   22.7570   37.5160 C   0  0  0  0  0  0  0  0  0  0  0  0
   39.3900   23.1460   36.2350 N   0  0  0  0  0  0  0  0  0  0  0  0
   38.4310   24.0420   35.9500 C   0  0  0  0  0  0  0  0  0  0  0  0
   37.6880   24.5760   36.9380 N   0  0  0  0  0  0  0  0  0  0  0  0
   37.2970   24.6510   39.0280 H   0  0  0  0  0  0  0  0  0  0  0  0
   39.0040   23.0470   39.6030 H   0  0  0  0  0  0  0  0  0  0  0  0
   40.6340   21.8190   37.8710 N   0  0  0  0  0  0  0  0  0  0  0  0
   41.5290   22.3140   37.6500 H   0  0  0  0  0  0  0  0  0  0  0  0
   40.3970   20.8910   38.2510 H   0  0  0  0  0  0  0  0  0  0  0  0
   38.2480   27.4680   32.4270 C   0  0  0  0  0  0  0  0  0  0  0  0
   39.2850   27.6080   31.9970 H   0  0  0  0  0  0  0  0  0  0  0  0
   38.2690   28.1050   33.3380 H   0  0  0  0  0  0  0  0  0  0  0  0
   37.2790   28.0010   31.4830 C   0  0  0  0  0  0  0  0  0  0  0  0
   37.3920   27.5560   30.4550 H   0  0  0  0  0  0  0  0  0  0  0  0
   37.4590   29.1050   31.3260 H   0  0  0  0  0  0  0  0  0  0  0  0
   35.9880   27.8110   31.9040 O   0  0  0  0  0  0  0  0  0  0  0  0
   36.1460   30.4080   32.3220 O   0  0  0  0  0  0  0  0  0  0  0  0
   35.4300   29.1500   32.7480 P   0  0  2  0  0  0  0  0  0  0  0  0
   35.7020   28.8190   34.4100 O   0  0  0  0  0  0  0  0  0  0  0  0
   35.3120   27.9370   34.5890 H   0  0  0  0  0  0  0  0  0  0  0  0
   33.7890   29.3760   32.5520 O   0  0  0  0  0  0  0  0  0  0  0  0
   32.8840   29.3380   33.6320 C   0  0  0  0  0  0  0  0  0  0  0  0
   31.6220   28.8850   33.3290 C   0  0  0  0  0  0  0  0  0  0  0  0
   31.1420   28.5400   32.4350 H   0  0  0  0  0  0  0  0  0  0  0  0
   30.7620   28.9760   34.9320 S   0  0  0  0  0  0  0  0  0  0  0  0
   32.3350   29.6430   35.7710 C   0  0  0  0  0  0  0  0  0  0  0  0
   32.7590   30.0070   36.8310 H   0  0  0  0  0  0  0  0  0  0  0  0
   33.0510   29.6700   34.9020 N   0  0  0  0  0  0  0  0  0  0  0  0
  2  3  1  0  0  0  0
  2  1  1  0  0  0  0
  3 15  1  0  0  0  0
  4  8  1  0  0  0  0
  4  3  2  0  0  0  0
  5  4  1  0  0  0  0
  6  5  2  0  0  0  0
  6  7  1  0  0  0  0
  7  2  2  0  0  0  0
  9  5  1  0  0  0  0
 10  6  1  0  0  0  0
 11 12  1  0  0  0  0
 11 17  1  0  0  0  0
 12 18  1  0  0  0  0
 13 19  1  0  0  0  0
 13 12  2  0  0  0  0
 14 13  1  0  0  0  0
 15 14  2  0  0  0  0
 15 16  1  0  0  0  0
 16 11  2  0  0  0  0
 19 21  1  0  0  0  0
 20 19  1  0  0  0  0
 22  7  1  0  0  0  0
 22 24  1  0  0  0  0
 23 22  1  0  0  0  0
 25 28  1  0  0  0  0
 25 22  1  0  0  0  0
 26 25  1  0  0  0  0
 27 25  1  0  0  0  0
 28 30  1  0  0  0  0
 30 29  2  6  0  0  0
 30 31  1  0  0  0  0
 31 32  1  0  0  0  0
 33 30  1  0  0  0  0
 33 34  1  0  0  0  0
 34 40  1  0  0  0  0
 35 34  2  0  0  0  0
 35 37  1  0  0  0  0
 36 35  1  0  0  0  0
 37 38  1  0  0  0  0
 38 39  1  0  0  0  0
 40 38  2  0  0  0  0
M  END
>  <minimizedAffinity>
-5.67910957

$$$$

 OpenBabel03272504403D

 40 42  0  0  0  0  0  0  0  0999 V2000
   38.6770   23.2870   33.3630 Cl  0  0  0  0  0  0  0  0  0  0  0  0
   39.4890   24.8450   33.5230 C   0  0  0  0  0  0  0  0  0  0  0  0
   39.7290   25.3420   34.7680 C   0  0  0  0  0  0  0  0  0  0  0  0
   40.3590   26.5470   34.9070 C   0  0  0  0  0  0  0  0  0  0  0  0
   40.7410   27.2390   33.7710 C   0  0  0  0  0  0  0  0  0  0  0  0
   40.4720   26.6850   32.5210 C   0  0  0  0  0  0  0  0  0  0  0  0
   39.8460   25.4870   32.3620 C   0  0  0  0  0  0  0  0  0  0  0  0
   40.5390   26.9220   35.9240 H   0  0  0  0  0  0  0  0  0  0  0  0
   41.2320   28.1810   33.9960 H   0  0  0  0  0  0  0  0  0  0  0  0
   40.8290   27.3410   31.8060 H   0  0  0  0  0  0  0  0  0  0  0  0
   37.8670   24.2230   37.7560 C   0  0  0  0  0  0  0  0  0  0  0  0
   38.6700   23.1350   38.1860 C   0  0  0  0  0  0  0  0  0  0  0  0
   39.8000   22.8390   37.4390 C   0  0  0  0  0  0  0  0  0  0  0  0
   40.0990   23.5840   36.3400 N   0  0  0  0  0  0  0  0  0  0  0  0
   39.3190   24.6080   35.9590 C   0  0  0  0  0  0  0  0  0  0  0  0
   38.2150   24.9190   36.6650 N   0  0  0  0  0  0  0  0  0  0  0  0
   36.9850   24.4560   38.3370 H   0  0  0  0  0  0  0  0  0  0  0  0
   38.3450   22.6050   39.0730 H   0  0  0  0  0  0  0  0  0  0  0  0
   40.5870   21.7520   37.8850 N   0  0  0  0  0  0  0  0  0  0  0  0
   41.4760   22.2040   38.2010 H   0  0  0  0  0  0  0  0  0  0  0  0
   40.2430   20.7810   37.8530 H   0  0  0  0  0  0  0  0  0  0  0  0
   39.5630   24.9290   31.0580 C   0  0  0  0  0  0  0  0  0  0  0  0
   39.4180   23.8180   31.2130 H   0  0  0  0  0  0  0  0  0  0  0  0
   40.4840   24.9760   30.4370 H   0  0  0  0  0  0  0  0  0  0  0  0
   38.4360   25.4410   30.2930 C   0  0  0  0  0  0  0  0  0  0  0  0
   38.5280   25.2190   29.1930 H   0  0  0  0  0  0  0  0  0  0  0  0
   38.4140   26.5690   30.3460 H   0  0  0  0  0  0  0  0  0  0  0  0
   37.2390   24.9460   30.7420 O   0  0  0  0  0  0  0  0  0  0  0  0
   34.7620   25.7010   31.2280 O   0  0  0  0  0  0  0  0  0  0  0  0
   36.1850   26.1920   31.1350 P   0  0  2  0  0  0  0  0  0  0  0  0
   36.3510   27.3710   29.8990 O   0  0  0  0  0  0  0  0  0  0  0  0
   37.3100   27.5570   29.8150 H   0  0  0  0  0  0  0  0  0  0  0  0
   36.5920   26.9270   32.5760 O   0  0  0  0  0  0  0  0  0  0  0  0
   36.1310   28.2110   32.9290 C   0  0  0  0  0  0  0  0  0  0  0  0
   36.1160   28.4830   34.2770 C   0  0  0  0  0  0  0  0  0  0  0  0
   36.3810   27.9330   35.1570 H   0  0  0  0  0  0  0  0  0  0  0  0
   35.4770   30.1880   34.3400 S   0  0  0  0  0  0  0  0  0  0  0  0
   35.3350   30.2360   32.4420 C   0  0  0  0  0  0  0  0  0  0  0  0
   35.0080   30.9480   31.5370 H   0  0  0  0  0  0  0  0  0  0  0  0
   35.7060   29.2080   32.1700 N   0  0  0  0  0  0  0  0  0  0  0  0
  1  2  1  0  0  0  0
  2  3  1  0  0  0  0
  3  4  2  0  0  0  0
  3 15  1  0  0  0  0
  4  8  1  0  0  0  0
  5  9  1  0  0  0  0
  5  4  1  0  0  0  0
  6  5  2  0  0  0  0
  7  6  1  0  0  0  0
  7  2  2  0  0  0  0
 10  6  1  0  0  0  0
 11 12  1  0  0  0  0
 11 17  1  0  0  0  0
 12 18  1  0  0  0  0
 13 19  1  0  0  0  0
 13 12  2  0  0  0  0
 14 13  1  0  0  0  0
 15 14  2  0  0  0  0
 15 16  1  0  0  0  0
 16 11  2  0  0  0  0
 19 20  1  0  0  0  0
 21 19  1  0  0  0  0
 22 23  1  0  0  0  0
 22  7  1  0  0  0  0
 24 22  1  0  0  0  0
 25 27  1  0  0  0  0
 25 28  1  0  0  0  0
 25 22  1  0  0  0  0
 26 25  1  0  0  0  0
 28 30  1  0  0  0  0
 30 29  2  1  0  0  0
 30 33  1  0  0  0  0
 31 30  1  0  0  0  0
 32 31  1  0  0  0  0
 33 34  1  0  0  0  0
 34 35  2  0  0  0  0
 35 37  1  0  0  0  0
 35 36  1  0  0  0  0
 38 37  1  0  0  0  0
 39 38  1  0  0  0  0
 40 38  2  0  0  0  0
 40 34  1  0  0  0  0
M  END
>  <minimizedAffinity>
-5.66836452

$$$$

 OpenBabel03272504403D

 40 42  0  0  0  0  0  0  0  0999 V2000
   39.9600   26.3160   34.6130 Cl  0  0  0  0  0  0  0  0  0  0  0  0
   39.0380   25.1830   33.6240 C   0  0  0  0  0  0  0  0  0  0  0  0
   38.4470   24.1110   34.2210 C   0  0  0  0  0  0  0  0  0  0  0  0
   37.7280   23.2260   33.4660 C   0  0  0  0  0  0  0  0  0  0  0  0
   37.6160   23.4420   32.1050 C   0  0  0  0  0  0  0  0  0  0  0  0
   38.2400   24.5550   31.5440 C   0  0  0  0  0  0  0  0  0  0  0  0
   38.9600   25.4470   32.2780 C   0  0  0  0  0  0  0  0  0  0  0  0
   37.2630   22.3710   33.9770 H   0  0  0  0  0  0  0  0  0  0  0  0
   37.0240   22.6810   31.6040 H   0  0  0  0  0  0  0  0  0  0  0  0
   38.0440   24.5440   30.5290 H   0  0  0  0  0  0  0  0  0  0  0  0
   37.9610   24.3080   37.8770 C   0  0  0  0  0  0  0  0  0  0  0  0
   38.9240   23.3690   38.3320 C   0  0  0  0  0  0  0  0  0  0  0  0
   39.6870   22.7200   37.3730 C   0  0  0  0  0  0  0  0  0  0  0  0
   39.4930   22.9950   36.0540 N   0  0  0  0  0  0  0  0  0  0  0  0
   38.5740   23.8890   35.6560 C   0  0  0  0  0  0  0  0  0  0  0  0
   37.8190   24.5360   36.5650 N   0  0  0  0  0  0  0  0  0  0  0  0
   37.3660   24.8160   38.6240 H   0  0  0  0  0  0  0  0  0  0  0  0
   39.0000   23.2220   39.4020 H   0  0  0  0  0  0  0  0  0  0  0  0
   40.6410   21.7900   37.8460 N   0  0  0  0  0  0  0  0  0  0  0  0
   41.5580   22.2350   37.6110 H   0  0  0  0  0  0  0  0  0  0  0  0
   40.3620   20.9090   38.3030 H   0  0  0  0  0  0  0  0  0  0  0  0
   39.6120   26.5920   31.6810 C   0  0  0  0  0  0  0  0  0  0  0  0
   40.2620   26.1890   30.8470 H   0  0  0  0  0  0  0  0  0  0  0  0
   40.3550   27.0000   32.4000 H   0  0  0  0  0  0  0  0  0  0  0  0
   38.8010   27.6780   31.1530 C   0  0  0  0  0  0  0  0  0  0  0  0
   38.3590   27.4320   30.1470 H   0  0  0  0  0  0  0  0  0  0  0  0
   39.4470   28.5830   30.9550 H   0  0  0  0  0  0  0  0  0  0  0  0
   37.7860   28.0280   32.0050 O   0  0  0  0  0  0  0  0  0  0  0  0
   35.4700   26.8410   31.5960 O   0  0  0  0  0  0  0  0  0  0  0  0
   36.3090   28.0330   31.2080 P   0  0  2  0  0  0  0  0  0  0  0  0
   36.6670   28.0150   29.5300 O   0  0  0  0  0  0  0  0  0  0  0  0
   37.3050   28.7430   29.3710 H   0  0  0  0  0  0  0  0  0  0  0  0
   35.4370   29.4220   31.5120 O   0  0  0  0  0  0  0  0  0  0  0  0
   34.4830   29.5080   32.5460 C   0  0  0  0  0  0  0  0  0  0  0  0
   34.9820   29.8410   33.7830 C   0  0  0  0  0  0  0  0  0  0  0  0
   35.9580   30.0610   34.1650 H   0  0  0  0  0  0  0  0  0  0  0  0
   33.4920   29.8540   34.8310 S   0  0  0  0  0  0  0  0  0  0  0  0
   32.4040   29.3830   33.3410 C   0  0  0  0  0  0  0  0  0  0  0  0
   31.2690   29.1570   33.0340 H   0  0  0  0  0  0  0  0  0  0  0  0
   33.1740   29.3170   32.5220 N   0  0  0  0  0  0  0  0  0  0  0  0
  2  3  1  0  0  0  0
  2  1  1  0  0  0  0
  3 15  1  0  0  0  0
  4  8  1  0  0  0  0
  4  3  2  0  0  0  0
  5  4  1  0  0  0  0
  6  5  2  0  0  0  0
  6  7  1  0  0  0  0
  7  2  2  0  0  0  0
  9  5  1  0  0  0  0
 10  6  1  0  0  0  0
 11 12  1  0  0  0  0
 11 17  1  0  0  0  0
 12 18  1  0  0  0  0
 13 19  1  0  0  0  0
 13 12  2  0  0  0  0
 14 13  1  0  0  0  0
 15 14  2  0  0  0  0
 15 16  1  0  0  0  0
 16 11  2  0  0  0  0
 19 21  1  0  0  0  0
 20 19  1  0  0  0  0
 22  7  1  0  0  0  0
 22 24  1  0  0  0  0
 23 22  1  0  0  0  0
 25 22  1  0  0  0  0
 25 28  1  0  0  0  0
 26 25  1  0  0  0  0
 27 25  1  0  0  0  0
 30 33  1  0  0  0  0
 30 29  2  1  0  0  0
 30 28  1  0  0  0  0
 31 30  1  0  0  0  0
 32 31  1  0  0  0  0
 33 34  1  0  0  0  0
 34 35  2  0  0  0  0
 35 36  1  0  0  0  0
 35 37  1  0  0  0  0
 38 37  1  0  0  0  0
 39 38  1  0  0  0  0
 40 34  1  0  0  0  0
 40 38  2  0  0  0  0
M  END
>  <minimizedAffinity>
-5.64688921

$$$$

 OpenBabel03272504403D

 40 42  0  0  0  0  0  0  0  0999 V2000
   38.5740   26.9920   35.2390 Cl  0  0  0  0  0  0  0  0  0  0  0  0
   37.9150   25.9610   33.9680 C   0  0  0  0  0  0  0  0  0  0  0  0
   38.0670   24.6120   34.0640 C   0  0  0  0  0  0  0  0  0  0  0  0
   37.5590   23.8010   33.0870 C   0  0  0  0  0  0  0  0  0  0  0  0
   36.8990   24.3750   32.0160 C   0  0  0  0  0  0  0  0  0  0  0  0
   36.7710   25.7620   31.9660 C   0  0  0  0  0  0  0  0  0  0  0  0
   37.2700   26.5850   32.9280 C   0  0  0  0  0  0  0  0  0  0  0  0
   37.6980   22.7160   33.1930 H   0  0  0  0  0  0  0  0  0  0  0  0
   36.5380   23.6410   31.3010 H   0  0  0  0  0  0  0  0  0  0  0  0
   36.2550   25.9960   31.1020 H   0  0  0  0  0  0  0  0  0  0  0  0
   40.7020   23.2050   36.2370 C   0  0  0  0  0  0  0  0  0  0  0  0
   39.9550   22.8900   37.4030 C   0  0  0  0  0  0  0  0  0  0  0  0
   38.5980   23.1720   37.3880 C   0  0  0  0  0  0  0  0  0  0  0  0
   38.0340   23.7310   36.2820 N   0  0  0  0  0  0  0  0  0  0  0  0
   38.7680   24.0170   35.1950 C   0  0  0  0  0  0  0  0  0  0  0  0
   40.0890   23.7540   35.1800 N   0  0  0  0  0  0  0  0  0  0  0  0
   41.7610   22.9850   36.2460 H   0  0  0  0  0  0  0  0  0  0  0  0
   40.4980   22.4480   38.2290 H   0  0  0  0  0  0  0  0  0  0  0  0
   37.8720   22.8490   38.5580 N   0  0  0  0  0  0  0  0  0  0  0  0
   37.2450   22.0690   38.2530 H   0  0  0  0  0  0  0  0  0  0  0  0
   38.0230   23.3480   39.4480 H   0  0  0  0  0  0  0  0  0  0  0  0
   37.1390   28.0250   32.8580 C   0  0  0  0  0  0  0  0  0  0  0  0
   37.3970   28.3150   31.7950 H   0  0  0  0  0  0  0  0  0  0  0  0
   37.9570   28.4910   33.4490 H   0  0  0  0  0  0  0  0  0  0  0  0
   35.8710   28.6430   33.2120 C   0  0  0  0  0  0  0  0  0  0  0  0
   34.9880   28.0130   32.9100 H   0  0  0  0  0  0  0  0  0  0  0  0
   35.7340   29.6030   32.6330 H   0  0  0  0  0  0  0  0  0  0  0  0
   35.7820   28.9100   34.5540 O   0  0  0  0  0  0  0  0  0  0  0  0
   35.6200   31.3520   33.5810 O   0  0  0  0  0  0  0  0  0  0  0  0
   35.4000   30.5220   34.8200 P   0  0  2  0  0  0  0  0  0  0  0  0
   36.4100   31.0500   36.1040 O   0  0  0  0  0  0  0  0  0  0  0  0
   36.3030   30.4010   36.8310 H   0  0  0  0  0  0  0  0  0  0  0  0
   33.8210   30.7180   35.3220 O   0  0  0  0  0  0  0  0  0  0  0  0
   32.7840   29.8540   34.9170 C   0  0  0  0  0  0  0  0  0  0  0  0
   32.0820   29.2550   35.9370 C   0  0  0  0  0  0  0  0  0  0  0  0
   32.1350   29.2890   37.0060 H   0  0  0  0  0  0  0  0  0  0  0  0
   30.8590   28.2400   35.0460 S   0  0  0  0  0  0  0  0  0  0  0  0
   31.5450   28.8310   33.3720 C   0  0  0  0  0  0  0  0  0  0  0  0
   31.3870   28.7110   32.1900 H   0  0  0  0  0  0  0  0  0  0  0  0
   32.3710   29.5200   33.7050 N   0  0  0  0  0  0  0  0  0  0  0  0
  2  3  1  0  0  0  0
  2  1  1  0  0  0  0
  3 15  1  0  0  0  0
  4  8  1  0  0  0  0
  4  3  2  0  0  0  0
  5  4  1  0  0  0  0
  6  5  2  0  0  0  0
  6  7  1  0  0  0  0
  7  2  2  0  0  0  0
  9  5  1  0  0  0  0
 10  6  1  0  0  0  0
 11 17  1  0  0  0  0
 11 12  1  0  0  0  0
 12 18  1  0  0  0  0
 13 12  2  0  0  0  0
 13 19  1  0  0  0  0
 14 13  1  0  0  0  0
 15 14  2  0  0  0  0
 16 15  1  0  0  0  0
 16 11  2  0  0  0  0
 19 21  1  0  0  0  0
 20 19  1  0  0  0  0
 22  7  1  0  0  0  0
 22 25  1  0  0  0  0
 22 24  1  0  0  0  0
 23 22  1  0  0  0  0
 25 28  1  0  0  0  0
 26 25  1  0  0  0  0
 27 25  1  0  0  0  0
 28 30  1  0  0  0  0
 30 29  2  6  0  0  0
 30 33  1  0  0  0  0
 30 31  1  0  0  0  0
 31 32  1  0  0  0  0
 34 33  1  0  0  0  0
 34 35  2  0  0  0  0
 35 36  1  0  0  0  0
 37 35  1  0  0  0  0
 38 40  2  0  0  0  0
 38 37  1  0  0  0  0
 39 38  1  0  0  0  0
 40 34  1  0  0  0  0
M  END
>  <minimizedAffinity>
-5.49882889

$$$$

 OpenBabel03272504403D

 40 42  0  0  0  0  0  0  0  0999 V2000
   39.7680   26.6710   31.5730 Cl  0  0  0  0  0  0  0  0  0  0  0  0
   38.9580   27.0170   33.1020 C   0  0  0  0  0  0  0  0  0  0  0  0
   39.6240   26.7990   34.2690 C   0  0  0  0  0  0  0  0  0  0  0  0
   39.0090   27.0650   35.4610 C   0  0  0  0  0  0  0  0  0  0  0  0
   37.7140   27.5530   35.4530 C   0  0  0  0  0  0  0  0  0  0  0  0
   37.0770   27.7580   34.2300 C   0  0  0  0  0  0  0  0  0  0  0  0
   37.6730   27.4990   33.0340 C   0  0  0  0  0  0  0  0  0  0  0  0
   39.5730   26.8790   36.3860 H   0  0  0  0  0  0  0  0  0  0  0  0
   37.3240   27.7280   36.4510 H   0  0  0  0  0  0  0  0  0  0  0  0
   36.1300   28.1200   34.4290 H   0  0  0  0  0  0  0  0  0  0  0  0
   42.5340   24.5240   34.3190 C   0  0  0  0  0  0  0  0  0  0  0  0
   43.6070   25.4510   34.2580 C   0  0  0  0  0  0  0  0  0  0  0  0
   43.2850   26.7990   34.2030 C   0  0  0  0  0  0  0  0  0  0  0  0
   41.9790   27.1840   34.2080 N   0  0  0  0  0  0  0  0  0  0  0  0
   40.9870   26.2820   34.2670 C   0  0  0  0  0  0  0  0  0  0  0  0
   41.2690   24.9660   34.3220 N   0  0  0  0  0  0  0  0  0  0  0  0
   42.7830   23.4720   34.3630 H   0  0  0  0  0  0  0  0  0  0  0  0
   44.6100   25.0430   34.2580 H   0  0  0  0  0  0  0  0  0  0  0  0
   44.3680   27.7070   34.1430 N   0  0  0  0  0  0  0  0  0  0  0  0
   44.3240   28.2050   35.0620 H   0  0  0  0  0  0  0  0  0  0  0  0
   44.9860   27.7630   33.3200 H   0  0  0  0  0  0  0  0  0  0  0  0
   36.9960   27.7070   31.7720 C   0  0  0  0  0  0  0  0  0  0  0  0
   37.7630   28.1540   31.0700 H   0  0  0  0  0  0  0  0  0  0  0  0
   36.2570   28.5280   31.8890 H   0  0  0  0  0  0  0  0  0  0  0  0
   36.3650   26.5760   31.1080 C   0  0  0  0  0  0  0  0  0  0  0  0
   37.0010   26.1550   30.2800 H   0  0  0  0  0  0  0  0  0  0  0  0
   35.4220   26.9120   30.5860 H   0  0  0  0  0  0  0  0  0  0  0  0
   36.0600   25.5670   31.9840 O   0  0  0  0  0  0  0  0  0  0  0  0
   37.7200   23.6000   32.5470 O   0  0  0  0  0  0  0  0  0  0  0  0
   36.7650   24.1220   31.5030 P   0  0  2  0  0  0  0  0  0  0  0  0
   37.5820   24.4520   30.0300 O   0  0  0  0  0  0  0  0  0  0  0  0
   36.9340   24.8940   29.4410 H   0  0  0  0  0  0  0  0  0  0  0  0
   35.6270   22.9440   31.1820 O   0  0  0  0  0  0  0  0  0  0  0  0
   35.7000   21.6500   31.7340 C   0  0  0  0  0  0  0  0  0  0  0  0
   36.1150   20.6630   30.8710 C   0  0  0  0  0  0  0  0  0  0  0  0
   36.4080   20.6410   29.8410 H   0  0  0  0  0  0  0  0  0  0  0  0
   36.0840   19.1710   31.9160 S   0  0  0  0  0  0  0  0  0  0  0  0
   35.4860   20.1920   33.4070 C   0  0  0  0  0  0  0  0  0  0  0  0
   35.1810   20.0900   34.5610 H   0  0  0  0  0  0  0  0  0  0  0  0
   35.4320   21.2230   32.9570 N   0  0  0  0  0  0  0  0  0  0  0  0
  1  2  1  0  0  0  0
  2  3  1  0  0  0  0
  3  4  2  0  0  0  0
  4  8  1  0  0  0  0
  5  4  1  0  0  0  0
  5  9  1  0  0  0  0
  6 10  1  0  0  0  0
  6  5  2  0  0  0  0
  7  2  2  0  0  0  0
  7  6  1  0  0  0  0
 11 16  1  0  0  0  0
 11 17  1  0  0  0  0
 12 11  2  0  0  0  0
 13 14  2  0  0  0  0
 13 12  1  0  0  0  0
 14 15  1  0  0  0  0
 15  3  1  0  0  0  0
 15 16  2  0  0  0  0
 18 12  1  0  0  0  0
 19 13  1  0  0  0  0
 19 20  1  0  0  0  0
 21 19  1  0  0  0  0
 22 24  1  0  0  0  0
 22  7  1  0  0  0  0
 23 22  1  0  0  0  0
 25 22  1  0  0  0  0
 25 28  1  0  0  0  0
 26 25  1  0  0  0  0
 27 25  1  0  0  0  0
 30 28  1  0  0  0  0
 30 29  2  1  0  0  0
 31 30  1  0  0  0  0
 32 31  1  0  0  0  0
 33 30  1  0  0  0  0
 33 34  1  0  0  0  0
 34 40  1  0  0  0  0
 35 34  2  0  0  0  0
 35 37  1  0  0  0  0
 36 35  1  0  0  0  0
 37 38  1  0  0  0  0
 38 39  1  0  0  0  0
 40 38  2  0  0  0  0
M  END
>  <minimizedAffinity>
-5.48280382

$$$$

 OpenBabel03272504403D

 40 42  0  0  0  0  0  0  0  0999 V2000
   36.8030   27.5960   34.8730 Cl  0  0  0  0  0  0  0  0  0  0  0  0
   36.7420   28.2370   33.2310 C   0  0  0  0  0  0  0  0  0  0  0  0
   35.8810   29.2540   32.9480 C   0  0  0  0  0  0  0  0  0  0  0  0
   35.8250   29.7630   31.6800 C   0  0  0  0  0  0  0  0  0  0  0  0
   36.6490   29.2280   30.7060 C   0  0  0  0  0  0  0  0  0  0  0  0
   37.5120   28.1880   31.0480 C   0  0  0  0  0  0  0  0  0  0  0  0
   37.5820   27.6690   32.3040 C   0  0  0  0  0  0  0  0  0  0  0  0
   35.1200   30.5830   31.4840 H   0  0  0  0  0  0  0  0  0  0  0  0
   36.5230   29.7050   29.7380 H   0  0  0  0  0  0  0  0  0  0  0  0
   38.0380   27.9280   30.1980 H   0  0  0  0  0  0  0  0  0  0  0  0
   32.9430   30.0070   35.0570 C   0  0  0  0  0  0  0  0  0  0  0  0
   33.4980   30.9350   35.9770 C   0  0  0  0  0  0  0  0  0  0  0  0
   34.8390   31.2550   35.8320 C   0  0  0  0  0  0  0  0  0  0  0  0
   35.5680   30.6830   34.8350 N   0  0  0  0  0  0  0  0  0  0  0  0
   35.0140   29.8080   33.9800 C   0  0  0  0  0  0  0  0  0  0  0  0
   33.7130   29.4780   34.0960 N   0  0  0  0  0  0  0  0  0  0  0  0
   31.8970   29.7560   35.1680 H   0  0  0  0  0  0  0  0  0  0  0  0
   32.8340   31.3330   36.7340 H   0  0  0  0  0  0  0  0  0  0  0  0
   35.3720   32.1830   36.7570 N   0  0  0  0  0  0  0  0  0  0  0  0
   35.5820   33.0240   36.1720 H   0  0  0  0  0  0  0  0  0  0  0  0
   35.4770   31.9550   37.7570 H   0  0  0  0  0  0  0  0  0  0  0  0
   38.4750   26.5810   32.6430 C   0  0  0  0  0  0  0  0  0  0  0  0
   38.7860   26.7490   33.7180 H   0  0  0  0  0  0  0  0  0  0  0  0
   39.4280   26.7090   32.0850 H   0  0  0  0  0  0  0  0  0  0  0  0
   38.0110   25.2090   32.5030 C   0  0  0  0  0  0  0  0  0  0  0  0
   38.5660   24.6490   31.6990 H   0  0  0  0  0  0  0  0  0  0  0  0
   36.9370   25.1980   32.1540 H   0  0  0  0  0  0  0  0  0  0  0  0
   38.1100   24.5070   33.6770 O   0  0  0  0  0  0  0  0  0  0  0  0
   39.2160   22.3440   32.6580 O   0  0  0  0  0  0  0  0  0  0  0  0
   38.0050   22.8560   33.3980 P   0  0  2  0  0  0  0  0  0  0  0  0
   36.5750   22.6120   32.4820 O   0  0  0  0  0  0  0  0  0  0  0  0
   35.8520   23.0690   32.9620 H   0  0  0  0  0  0  0  0  0  0  0  0
   37.8380   21.9900   34.8140 O   0  0  0  0  0  0  0  0  0  0  0  0
   38.3820   22.4270   36.0380 C   0  0  0  0  0  0  0  0  0  0  0  0
   37.4970   23.0450   36.8900 C   0  0  0  0  0  0  0  0  0  0  0  0
   36.4530   23.2820   36.8470 H   0  0  0  0  0  0  0  0  0  0  0  0
   38.5380   23.4570   38.3270 S   0  0  0  0  0  0  0  0  0  0  0  0
   40.0600   22.6870   37.4830 C   0  0  0  0  0  0  0  0  0  0  0  0
   41.2270   22.4760   37.6490 H   0  0  0  0  0  0  0  0  0  0  0  0
   39.6160   22.3410   36.5080 N   0  0  0  0  0  0  0  0  0  0  0  0
  2  1  1  0  0  0  0
  3  2  1  0  0  0  0
  3 15  1  0  0  0  0
  4  3  2  0  0  0  0
  5  6  2  0  0  0  0
  5  4  1  0  0  0  0
  6  7  1  0  0  0  0
  7 22  1  0  0  0  0
  7  2  2  0  0  0  0
  8  4  1  0  0  0  0
  9  5  1  0  0  0  0
 10  6  1  0  0  0  0
 11 17  1  0  0  0  0
 11 12  1  0  0  0  0
 12 18  1  0  0  0  0
 13 12  2  0  0  0  0
 13 19  1  0  0  0  0
 14 13  1  0  0  0  0
 15 16  1  0  0  0  0
 15 14  2  0  0  0  0
 16 11  2  0  0  0  0
 19 21  1  0  0  0  0
 20 19  1  0  0  0  0
 22 23  1  0  0  0  0
 24 22  1  0  0  0  0
 25 22  1  0  0  0  0
 25 28  1  0  0  0  0
 26 25  1  0  0  0  0
 27 25  1  0  0  0  0
 30 29  2  6  0  0  0
 30 28  1  0  0  0  0
 30 33  1  0  0  0  0
 31 32  1  0  0  0  0
 31 30  1  0  0  0  0
 33 34  1  0  0  0  0
 34 40  1  0  0  0  0
 34 35  2  0  0  0  0
 35 37  1  0  0  0  0
 36 35  1  0  0  0  0
 38 39  1  0  0  0  0
 38 37  1  0  0  0  0
 40 38  2  0  0  0  0
M  END
>  <minimizedAffinity>
-5.4515996

$$$$
