
 OpenBabel03262522273D

 44 47  0  0  0  0  0  0  0  0999 V2000
   38.7110   32.8680   48.3550 C   0  0  0  0  0  0  0  0  0  0  0  0
   39.0310   32.1970   47.1740 C   0  0  0  0  0  0  0  0  0  0  0  0
   38.5520   30.9230   47.0200 C   0  0  0  0  0  0  0  0  0  0  0  0
   37.7990   30.3910   48.0210 N   0  0  0  0  0  0  0  0  0  0  0  0
   37.5160   31.0440   49.1130 C   0  0  0  0  0  0  0  0  0  0  0  0
   37.9670   32.3250   49.3270 N   0  0  0  0  0  0  0  0  0  0  0  0
   39.0230   33.8850   48.6120 H   0  0  0  0  0  0  0  0  0  0  0  0
   38.7820   30.3680   46.1130 H   0  0  0  0  0  0  0  0  0  0  0  0
   39.7920   32.8470   46.2630 O   0  0  0  0  0  0  0  0  0  0  0  0
   39.9520   32.3000   44.9940 C   0  0  0  0  0  0  0  0  0  0  0  0
   40.6640   31.1650   44.6370 C   0  0  0  0  0  0  0  0  0  0  0  0
   40.6990   30.7990   43.3430 C   0  0  0  0  0  0  0  0  0  0  0  0
   40.0340   31.5530   42.4170 C   0  0  0  0  0  0  0  0  0  0  0  0
   39.3180   32.6990   42.7910 C   0  0  0  0  0  0  0  0  0  0  0  0
   39.3050   33.0350   44.0950 N   0  0  0  0  0  0  0  0  0  0  0  0
   41.1360   30.6780   45.4860 H   0  0  0  0  0  0  0  0  0  0  0  0
   41.2690   29.9020   43.1030 H   0  0  0  0  0  0  0  0  0  0  0  0
   40.0620   31.2590   41.3760 H   0  0  0  0  0  0  0  0  0  0  0  0
   38.5930   33.5080   41.7360 C   0  0  0  0  0  0  0  0  0  0  0  0
   39.2660   33.7950   40.9080 H   0  0  0  0  0  0  0  0  0  0  0  0
   37.8430   32.8220   41.3070 H   0  0  0  0  0  0  0  0  0  0  0  0
   38.1560   34.3690   42.2700 H   0  0  0  0  0  0  0  0  0  0  0  0
   36.4940   30.0800   50.2610 S   0  0  0  0  0  0  0  0  0  0  0  0
   34.7870   30.5050   49.8070 C   0  0  0  0  0  0  0  0  0  0  0  0
   34.1280   30.0790   50.5810 H   0  0  0  0  0  0  0  0  0  0  0  0
   34.7220   31.5990   49.7150 H   0  0  0  0  0  0  0  0  0  0  0  0
   34.3930   27.7770   49.8590 F   0  0  0  0  0  0  0  0  0  0  0  0
   34.3170   28.4370   48.6590 C   0  0  0  0  0  0  0  0  0  0  0  0
   34.4970   29.8100   48.5130 C   0  0  0  0  0  0  0  0  0  0  0  0
   34.4070   30.4000   47.2880 C   0  0  0  0  0  0  0  0  0  0  0  0
   34.1300   29.6520   46.1440 C   0  0  0  0  0  0  0  0  0  0  0  0
   33.9480   28.2770   46.2760 C   0  0  0  0  0  0  0  0  0  0  0  0
   34.0430   27.6940   47.5250 C   0  0  0  0  0  0  0  0  0  0  0  0
   34.5590   31.4760   47.2510 H   0  0  0  0  0  0  0  0  0  0  0  0
   34.0670   30.1560   45.1900 H   0  0  0  0  0  0  0  0  0  0  0  0
   33.7310   27.6750   45.3960 H   0  0  0  0  0  0  0  0  0  0  0  0
   33.8510   26.3310   47.5820 O   0  0  0  0  0  0  0  0  0  0  0  0
   32.7910   25.7760   46.8350 C   0  0  0  0  0  0  0  0  0  0  0  0
   31.5140   25.9910   47.3980 C   0  0  0  0  0  0  0  0  0  0  0  0
   31.1650   26.4860   48.2750 H   0  0  0  0  0  0  0  0  0  0  0  0
   30.3900   25.1640   46.2130 S   0  0  0  0  0  0  0  0  0  0  0  0
   31.8760   24.6570   45.1320 C   0  0  0  0  0  0  0  0  0  0  0  0
   32.2040   24.0790   44.1220 H   0  0  0  0  0  0  0  0  0  0  0  0
   32.7390   25.0900   45.7090 N   0  0  0  0  0  0  0  0  0  0  0  0
  1  7  1  0  0  0  0
  1  6  1  0  0  0  0
  2  1  2  0  0  0  0
  3  2  1  0  0  0  0
  3  4  2  0  0  0  0
  4  5  1  0  0  0  0
  5  6  2  0  0  0  0
  5 23  1  0  0  0  0
  8  3  1  0  0  0  0
  9  2  1  0  0  0  0
 10  9  1  0  0  0  0
 11 10  1  0  0  0  0
 11 16  1  0  0  0  0
 12 11  2  0  0  0  0
 13 14  2  0  0  0  0
 13 12  1  0  0  0  0
 14 15  1  0  0  0  0
 15 10  2  0  0  0  0
 17 12  1  0  0  0  0
 18 13  1  0  0  0  0
 19 22  1  0  0  0  0
 19 14  1  0  0  0  0
 20 19  1  0  0  0  0
 21 19  1  0  0  0  0
 24 23  1  0  0  0  0
 24 25  1  0  0  0  0
 26 24  1  0  0  0  0
 28 27  1  0  0  0  0
 29 28  1  0  0  0  0
 29 24  1  0  0  0  0
 30 29  2  0  0  0  0
 31 32  2  0  0  0  0
 31 30  1  0  0  0  0
 32 33  1  0  0  0  0
 33 37  1  0  0  0  0
 33 28  2  0  0  0  0
 34 30  1  0  0  0  0
 35 31  1  0  0  0  0
 36 32  1  0  0  0  0
 38 39  2  0  0  0  0
 38 37  1  0  0  0  0
 39 40  1  0  0  0  0
 41 39  1  0  0  0  0
 42 44  2  0  0  0  0
 42 41  1  0  0  0  0
 43 42  1  0  0  0  0
 44 38  1  0  0  0  0
M  END
>  <minimizedAffinity>
-5.88857603

>  <minimizedRMSD>
1.37023985

$$$$
