
 OpenBabel03272506403D

 35 37  0  0  1  0  0  0  0  0999 V2000
   36.9770   27.8600   34.6240 O   0  0  0  0  0  0  0  0  0  0  0  0
   38.1200   27.3990   34.5160 C   0  0  0  0  0  0  0  0  0  0  0  0
   38.8700   26.9480   35.6680 C   0  0  2  0  0  0  0  0  0  0  0  0
   40.1140   26.2990   34.9800 C   0  0  0  0  0  0  0  0  0  0  0  0
   40.2040   27.0260   33.6760 C   0  0  0  0  0  0  0  0  0  0  0  0
   38.8300   27.2510   33.2690 N   0  0  0  0  0  0  0  0  0  0  0  0
   39.2140   27.7620   36.3030 H   0  0  0  0  0  0  0  0  0  0  0  0
   39.9940   25.2200   34.8910 H   0  0  0  0  0  0  0  0  0  0  0  0
   40.9690   26.5870   35.6140 H   0  0  0  0  0  0  0  0  0  0  0  0
   40.6420   26.3160   32.9310 H   0  0  0  0  0  0  0  0  0  0  0  0
   40.7470   27.9680   33.7310 H   0  0  0  0  0  0  0  0  0  0  0  0
   38.3270   27.3040   31.9210 C   0  0  0  0  0  0  0  0  0  0  0  0
   37.6730   28.2150   31.8470 H   0  0  0  0  0  0  0  0  0  0  0  0
   39.1600   27.4930   31.2440 H   0  0  0  0  0  0  0  0  0  0  0  0
   37.5180   26.0850   31.5620 C   0  0  0  0  0  0  0  0  0  0  0  0
   36.0590   26.1330   31.6800 C   0  0  0  0  0  0  0  0  0  0  0  0
   35.5390   26.9130   31.9800 H   0  0  0  0  0  0  0  0  0  0  0  0
   35.6290   24.4510   31.1410 S   0  0  0  0  0  0  0  0  0  0  0  0
   37.4430   23.9620   30.8500 C   0  0  0  0  0  0  0  0  0  0  0  0
   37.9970   23.0130   30.4900 H   0  0  0  0  0  0  0  0  0  0  0  0
   38.2260   25.0250   31.1550 N   0  0  0  0  0  0  0  0  0  0  0  0
   38.2480   25.8980   36.4020 O   0  0  0  0  0  0  0  0  0  0  0  0
   38.4870   24.5900   35.9890 C   0  0  0  0  0  0  0  0  0  0  0  0
   37.8950   24.1920   34.8050 C   0  0  0  0  0  0  0  0  0  0  0  0
   38.1150   22.8950   34.3680 C   0  0  0  0  0  0  0  0  0  0  0  0
   38.9000   22.0730   35.1190 N   0  0  0  0  0  0  0  0  0  0  0  0
   39.4670   22.4750   36.2660 C   0  0  0  0  0  0  0  0  0  0  0  0
   39.2530   23.7170   36.6800 N   0  0  0  0  0  0  0  0  0  0  0  0
   41.6080   22.0690   37.1990 C   0  0  0  0  0  0  0  0  0  0  0  0
   42.1130   23.1470   36.7670 O   0  0  0  0  0  0  0  0  0  0  0  0
   40.2800   21.5860   37.0270 N   0  0  0  0  0  0  0  0  0  0  0  0
   37.2760   24.8680   34.2310 H   0  0  0  0  0  0  0  0  0  0  0  0
   37.6530   22.5920   33.4490 H   0  0  0  0  0  0  0  0  0  0  0  0
   42.3610   21.5220   37.7520 H   0  0  0  0  0  0  0  0  0  0  0  0
   40.0940   20.6820   37.4670 H   0  0  0  0  0  0  0  0  0  0  0  0
  2  1  2  0  0  0  0
  2  3  1  0  0  0  0
  3  7  1  1  0  0  0
  3 22  1  0  0  0  0
  4  9  1  0  0  0  0
  4  3  1  0  0  0  0
  5 11  1  0  0  0  0
  5  4  1  0  0  0  0
  6  5  1  0  0  0  0
  6  2  1  0  0  0  0
  8  4  1  0  0  0  0
 10  5  1  0  0  0  0
 12  6  1  0  0  0  0
 13 12  1  0  0  0  0
 14 12  1  0  0  0  0
 15 16  2  0  0  0  0
 15 12  1  0  0  0  0
 16 17  1  0  0  0  0
 18 16  1  0  0  0  0
 19 18  1  0  0  0  0
 19 21  2  0  0  0  0
 20 19  1  0  0  0  0
 21 15  1  0  0  0  0
 23 22  1  0  0  0  0
 23 28  1  0  0  0  0
 24 23  2  0  0  0  0
 25 24  1  0  0  0  0
 25 26  2  0  0  0  0
 26 27  1  0  0  0  0
 27 28  2  0  0  0  0
 27 31  1  0  0  0  0
 29 34  1  0  0  0  0
 30 29  2  0  0  0  0
 31 29  1  0  0  0  0
 31 35  1  0  0  0  0
 32 24  1  0  0  0  0
 33 25  1  0  0  0  0
M  END
>  <minimizedAffinity>
-5.16324997

$$$$

 OpenBabel03272506403D

 35 37  0  0  1  0  0  0  0  0999 V2000
   37.3540   27.8670   35.4440 O   0  0  0  0  0  0  0  0  0  0  0  0
   36.9880   27.7140   34.2730 C   0  0  0  0  0  0  0  0  0  0  0  0
   37.5630   26.6930   33.4240 C   0  0  2  0  0  0  0  0  0  0  0  0
   36.6410   26.7950   32.1660 C   0  0  0  0  0  0  0  0  0  0  0  0
   36.1540   28.2080   32.2110 C   0  0  0  0  0  0  0  0  0  0  0  0
   35.9730   28.5050   33.6190 N   0  0  0  0  0  0  0  0  0  0  0  0
   38.5850   26.9090   33.1210 H   0  0  0  0  0  0  0  0  0  0  0  0
   35.8550   26.0430   32.1940 H   0  0  0  0  0  0  0  0  0  0  0  0
   37.3230   26.6750   31.3070 H   0  0  0  0  0  0  0  0  0  0  0  0
   35.1350   28.2220   31.7520 H   0  0  0  0  0  0  0  0  0  0  0  0
   36.8330   28.9260   31.7530 H   0  0  0  0  0  0  0  0  0  0  0  0
   34.9930   29.3880   34.1970 C   0  0  0  0  0  0  0  0  0  0  0  0
   34.1150   29.4110   33.4950 H   0  0  0  0  0  0  0  0  0  0  0  0
   34.6160   28.9380   35.1150 H   0  0  0  0  0  0  0  0  0  0  0  0
   35.5180   30.7890   34.3770 C   0  0  0  0  0  0  0  0  0  0  0  0
   35.5660   31.6900   33.2240 C   0  0  0  0  0  0  0  0  0  0  0  0
   35.2770   31.4610   32.3120 H   0  0  0  0  0  0  0  0  0  0  0  0
   36.2610   33.1800   34.0000 S   0  0  0  0  0  0  0  0  0  0  0  0
   36.3740   32.3690   35.7150 C   0  0  0  0  0  0  0  0  0  0  0  0
   36.7290   32.6980   36.7650 H   0  0  0  0  0  0  0  0  0  0  0  0
   35.9100   31.0990   35.6180 N   0  0  0  0  0  0  0  0  0  0  0  0
   37.3990   25.3630   33.9100 O   0  0  0  0  0  0  0  0  0  0  0  0
   38.4620   24.7930   34.6060 C   0  0  0  0  0  0  0  0  0  0  0  0
   39.7310   25.0490   34.1220 C   0  0  0  0  0  0  0  0  0  0  0  0
   40.8100   24.4950   34.7930 C   0  0  0  0  0  0  0  0  0  0  0  0
   40.5750   23.7280   35.8950 N   0  0  0  0  0  0  0  0  0  0  0  0
   39.3360   23.4900   36.3500 C   0  0  0  0  0  0  0  0  0  0  0  0
   38.3080   24.0220   35.7040 N   0  0  0  0  0  0  0  0  0  0  0  0
   38.4560   23.3740   38.5480 C   0  0  0  0  0  0  0  0  0  0  0  0
   38.0470   24.5730   38.5570 O   0  0  0  0  0  0  0  0  0  0  0  0
   39.1290   22.6790   37.5030 N   0  0  0  0  0  0  0  0  0  0  0  0
   39.8860   25.6620   33.2450 H   0  0  0  0  0  0  0  0  0  0  0  0
   41.7930   24.6960   34.4130 H   0  0  0  0  0  0  0  0  0  0  0  0
   38.2150   22.9110   39.4960 H   0  0  0  0  0  0  0  0  0  0  0  0
   39.3660   21.7080   37.7210 H   0  0  0  0  0  0  0  0  0  0  0  0
  2  1  2  0  0  0  0
  3  7  1  6  0  0  0
  3 22  1  0  0  0  0
  3  2  1  0  0  0  0
  4  8  1  0  0  0  0
  4  5  1  0  0  0  0
  4  3  1  0  0  0  0
  5  6  1  0  0  0  0
  6 12  1  0  0  0  0
  6  2  1  0  0  0  0
  9  4  1  0  0  0  0
 10  5  1  0  0  0  0
 11  5  1  0  0  0  0
 12 15  1  0  0  0  0
 12 14  1  0  0  0  0
 13 12  1  0  0  0  0
 15 21  1  0  0  0  0
 16 18  1  0  0  0  0
 16 15  2  0  0  0  0
 17 16  1  0  0  0  0
 18 19  1  0  0  0  0
 19 20  1  0  0  0  0
 21 19  2  0  0  0  0
 22 23  1  0  0  0  0
 23 28  1  0  0  0  0
 24 23  2  0  0  0  0
 24 25  1  0  0  0  0
 25 26  2  0  0  0  0
 26 27  1  0  0  0  0
 27 31  1  0  0  0  0
 28 27  2  0  0  0  0
 29 30  2  0  0  0  0
 29 34  1  0  0  0  0
 31 35  1  0  0  0  0
 31 29  1  0  0  0  0
 32 24  1  0  0  0  0
 33 25  1  0  0  0  0
M  END
>  <minimizedAffinity>
-5.1439333

$$$$

 OpenBabel03272506403D

 35 37  0  0  1  0  0  0  0  0999 V2000
   37.5190   25.8310   33.6740 O   0  0  0  0  0  0  0  0  0  0  0  0
   37.4820   25.0140   32.7460 C   0  0  0  0  0  0  0  0  0  0  0  0
   38.3060   23.8250   32.7470 C   0  0  2  0  0  0  0  0  0  0  0  0
   37.7450   23.0700   31.4990 C   0  0  0  0  0  0  0  0  0  0  0  0
   37.1990   24.1720   30.6490 C   0  0  0  0  0  0  0  0  0  0  0  0
   36.6400   25.1330   31.5800 N   0  0  0  0  0  0  0  0  0  0  0  0
   39.3610   24.0310   32.5800 H   0  0  0  0  0  0  0  0  0  0  0  0
   37.0150   22.3180   31.7920 H   0  0  0  0  0  0  0  0  0  0  0  0
   38.6340   22.6400   31.0070 H   0  0  0  0  0  0  0  0  0  0  0  0
   36.3370   23.7500   30.0740 H   0  0  0  0  0  0  0  0  0  0  0  0
   37.9400   24.6460   30.0080 H   0  0  0  0  0  0  0  0  0  0  0  0
   35.5030   25.9880   31.3600 C   0  0  0  0  0  0  0  0  0  0  0  0
   35.0330   25.6700   30.3900 H   0  0  0  0  0  0  0  0  0  0  0  0
   34.7550   25.7780   32.1240 H   0  0  0  0  0  0  0  0  0  0  0  0
   35.8870   27.4420   31.2700 C   0  0  0  0  0  0  0  0  0  0  0  0
   35.3010   28.3990   32.2100 C   0  0  0  0  0  0  0  0  0  0  0  0
   34.6580   28.1740   32.9210 H   0  0  0  0  0  0  0  0  0  0  0  0
   36.0910   29.9370   31.6520 S   0  0  0  0  0  0  0  0  0  0  0  0
   37.0650   29.0660   30.2710 C   0  0  0  0  0  0  0  0  0  0  0  0
   37.8160   29.3920   29.4550 H   0  0  0  0  0  0  0  0  0  0  0  0
   36.7610   27.7450   30.3020 N   0  0  0  0  0  0  0  0  0  0  0  0
   38.0810   22.9540   33.8530 O   0  0  0  0  0  0  0  0  0  0  0  0
   39.0420   22.9280   34.8610 C   0  0  0  0  0  0  0  0  0  0  0  0
   40.3620   23.0420   34.4660 C   0  0  0  0  0  0  0  0  0  0  0  0
   41.3410   23.0190   35.4470 C   0  0  0  0  0  0  0  0  0  0  0  0
   40.9640   22.8850   36.7500 N   0  0  0  0  0  0  0  0  0  0  0  0
   39.6770   22.7740   37.1140 C   0  0  0  0  0  0  0  0  0  0  0  0
   38.7450   22.7970   36.1720 N   0  0  0  0  0  0  0  0  0  0  0  0
   38.4700   23.6780   38.9430 C   0  0  0  0  0  0  0  0  0  0  0  0
   38.0250   24.6680   38.2910 O   0  0  0  0  0  0  0  0  0  0  0  0
   39.3210   22.6320   38.4860 N   0  0  0  0  0  0  0  0  0  0  0  0
   40.6300   23.1480   33.4240 H   0  0  0  0  0  0  0  0  0  0  0  0
   42.3630   23.1080   35.1350 H   0  0  0  0  0  0  0  0  0  0  0  0
   38.1000   23.7280   39.9590 H   0  0  0  0  0  0  0  0  0  0  0  0
   39.5540   21.9320   39.1950 H   0  0  0  0  0  0  0  0  0  0  0  0
  2  3  1  0  0  0  0
  2  1  2  0  0  0  0
  3  7  1  6  0  0  0
  3 22  1  0  0  0  0
  4  8  1  0  0  0  0
  4  3  1  0  0  0  0
  5  4  1  0  0  0  0
  5  6  1  0  0  0  0
  6  2  1  0  0  0  0
  9  4  1  0  0  0  0
 10  5  1  0  0  0  0
 11  5  1  0  0  0  0
 12  6  1  0  0  0  0
 12 14  1  0  0  0  0
 13 12  1  0  0  0  0
 15 12  1  0  0  0  0
 15 16  2  0  0  0  0
 16 17  1  0  0  0  0
 18 16  1  0  0  0  0
 19 21  2  0  0  0  0
 19 18  1  0  0  0  0
 20 19  1  0  0  0  0
 21 15  1  0  0  0  0
 22 23  1  0  0  0  0
 23 28  1  0  0  0  0
 24 23  2  0  0  0  0
 24 25  1  0  0  0  0
 25 26  2  0  0  0  0
 26 27  1  0  0  0  0
 27 31  1  0  0  0  0
 28 27  2  0  0  0  0
 29 34  1  0  0  0  0
 30 29  2  0  0  0  0
 31 29  1  0  0  0  0
 31 35  1  0  0  0  0
 32 24  1  0  0  0  0
 33 25  1  0  0  0  0
M  END
>  <minimizedAffinity>
-5.0650382

$$$$

 OpenBabel03272506403D

 35 37  0  0  1  0  0  0  0  0999 V2000
   37.4270   24.8600   33.2360 O   0  0  0  0  0  0  0  0  0  0  0  0
   37.6720   25.6880   34.1220 C   0  0  0  0  0  0  0  0  0  0  0  0
   37.6760   27.1100   33.8550 C   0  0  2  0  0  0  0  0  0  0  0  0
   37.8360   27.6850   35.2990 C   0  0  0  0  0  0  0  0  0  0  0  0
   38.5290   26.5830   36.0330 C   0  0  0  0  0  0  0  0  0  0  0  0
   37.9740   25.3560   35.4940 N   0  0  0  0  0  0  0  0  0  0  0  0
   38.5260   27.4340   33.2590 H   0  0  0  0  0  0  0  0  0  0  0  0
   36.8720   27.9720   35.7160 H   0  0  0  0  0  0  0  0  0  0  0  0
   38.5290   28.5370   35.1880 H   0  0  0  0  0  0  0  0  0  0  0  0
   38.1990   26.6360   37.1010 H   0  0  0  0  0  0  0  0  0  0  0  0
   39.6130   26.5920   35.9270 H   0  0  0  0  0  0  0  0  0  0  0  0
   37.7800   24.1140   36.1960 C   0  0  0  0  0  0  0  0  0  0  0  0
   37.3910   24.3690   37.2190 H   0  0  0  0  0  0  0  0  0  0  0  0
   36.9760   23.5610   35.7110 H   0  0  0  0  0  0  0  0  0  0  0  0
   39.0590   23.3280   36.3360 C   0  0  0  0  0  0  0  0  0  0  0  0
   39.5330   22.9640   37.6720 C   0  0  0  0  0  0  0  0  0  0  0  0
   39.0800   23.1890   38.5160 H   0  0  0  0  0  0  0  0  0  0  0  0
   41.0560   22.0660   37.2470 S   0  0  0  0  0  0  0  0  0  0  0  0
   40.8160   22.3190   35.3780 C   0  0  0  0  0  0  0  0  0  0  0  0
   41.3940   22.0240   34.4220 H   0  0  0  0  0  0  0  0  0  0  0  0
   39.6730   23.0230   35.1870 N   0  0  0  0  0  0  0  0  0  0  0  0
   36.4360   27.6220   33.3750 O   0  0  0  0  0  0  0  0  0  0  0  0
   36.4640   28.4250   32.2380 C   0  0  0  0  0  0  0  0  0  0  0  0
   35.9790   29.7120   32.3730 C   0  0  0  0  0  0  0  0  0  0  0  0
   35.9940   30.5360   31.2580 C   0  0  0  0  0  0  0  0  0  0  0  0
   36.4830   30.0450   30.0840 N   0  0  0  0  0  0  0  0  0  0  0  0
   36.9490   28.7920   29.9720 C   0  0  0  0  0  0  0  0  0  0  0  0
   36.9330   28.0090   31.0420 N   0  0  0  0  0  0  0  0  0  0  0  0
   38.8090   27.8980   28.8060 C   0  0  0  0  0  0  0  0  0  0  0  0
   39.5780   27.9130   29.8140 O   0  0  0  0  0  0  0  0  0  0  0  0
   37.4500   28.3120   28.7270 N   0  0  0  0  0  0  0  0  0  0  0  0
   35.5970   30.0740   33.3180 H   0  0  0  0  0  0  0  0  0  0  0  0
   35.6160   31.5330   31.3680 H   0  0  0  0  0  0  0  0  0  0  0  0
   39.3500   27.5040   27.9550 H   0  0  0  0  0  0  0  0  0  0  0  0
   37.0260   28.2090   27.8020 H   0  0  0  0  0  0  0  0  0  0  0  0
  1  2  2  0  0  0  0
  2  6  1  0  0  0  0
  3  7  1  6  0  0  0
  3  2  1  0  0  0  0
  3  4  1  0  0  0  0
  4  8  1  0  0  0  0
  4  5  1  0  0  0  0
  5 10  1  0  0  0  0
  6  5  1  0  0  0  0
  6 12  1  0  0  0  0
  9  4  1  0  0  0  0
 11  5  1  0  0  0  0
 12 15  1  0  0  0  0
 12 13  1  0  0  0  0
 14 12  1  0  0  0  0
 15 16  2  0  0  0  0
 16 17  1  0  0  0  0
 18 16  1  0  0  0  0
 19 18  1  0  0  0  0
 20 19  1  0  0  0  0
 21 19  2  0  0  0  0
 21 15  1  0  0  0  0
 22  3  1  0  0  0  0
 23 24  1  0  0  0  0
 23 22  1  0  0  0  0
 24 32  1  0  0  0  0
 25 33  1  0  0  0  0
 25 24  2  0  0  0  0
 26 25  1  0  0  0  0
 27 26  2  0  0  0  0
 27 28  1  0  0  0  0
 28 23  2  0  0  0  0
 29 30  2  0  0  0  0
 31 29  1  0  0  0  0
 31 27  1  0  0  0  0
 34 29  1  0  0  0  0
 35 31  1  0  0  0  0
M  END
>  <minimizedAffinity>
-5.02659416

$$$$

 OpenBabel03272506403D

 35 37  0  0  1  0  0  0  0  0999 V2000
   36.6980   25.1890   32.5820 O   0  0  0  0  0  0  0  0  0  0  0  0
   37.5830   25.6840   33.2910 C   0  0  0  0  0  0  0  0  0  0  0  0
   37.7870   27.1150   33.3640 C   0  0  2  0  0  0  0  0  0  0  0  0
   38.8470   27.2080   34.5080 C   0  0  0  0  0  0  0  0  0  0  0  0
   39.5350   25.8820   34.4470 C   0  0  0  0  0  0  0  0  0  0  0  0
   38.4960   24.9270   34.1130 N   0  0  0  0  0  0  0  0  0  0  0  0
   38.2190   27.5350   32.4590 H   0  0  0  0  0  0  0  0  0  0  0  0
   38.3750   27.4310   35.4630 H   0  0  0  0  0  0  0  0  0  0  0  0
   39.5480   27.9940   34.1790 H   0  0  0  0  0  0  0  0  0  0  0  0
   39.8690   25.6340   35.4860 H   0  0  0  0  0  0  0  0  0  0  0  0
   40.3460   25.8350   33.7220 H   0  0  0  0  0  0  0  0  0  0  0  0
   38.4220   23.5500   34.5270 C   0  0  0  0  0  0  0  0  0  0  0  0
   37.3810   23.1910   34.3000 H   0  0  0  0  0  0  0  0  0  0  0  0
   39.0760   22.9580   33.8880 H   0  0  0  0  0  0  0  0  0  0  0  0
   38.6940   23.3790   35.9990 C   0  0  0  0  0  0  0  0  0  0  0  0
   37.7190   23.8790   36.9710 C   0  0  0  0  0  0  0  0  0  0  0  0
   36.8740   24.3310   36.7460 H   0  0  0  0  0  0  0  0  0  0  0  0
   38.5390   23.4190   38.5270 S   0  0  0  0  0  0  0  0  0  0  0  0
   40.0310   22.6430   37.6400 C   0  0  0  0  0  0  0  0  0  0  0  0
   41.0080   22.1190   37.9670 H   0  0  0  0  0  0  0  0  0  0  0  0
   39.8430   22.7640   36.3030 N   0  0  0  0  0  0  0  0  0  0  0  0
   36.6570   27.8470   33.8300 O   0  0  0  0  0  0  0  0  0  0  0  0
   36.0470   28.7310   32.9430 C   0  0  0  0  0  0  0  0  0  0  0  0
   36.6940   28.9510   31.7410 C   0  0  0  0  0  0  0  0  0  0  0  0
   36.1120   29.8250   30.8370 C   0  0  0  0  0  0  0  0  0  0  0  0
   34.9350   30.4270   31.1680 N   0  0  0  0  0  0  0  0  0  0  0  0
   34.3220   30.2020   32.3400 C   0  0  0  0  0  0  0  0  0  0  0  0
   34.8830   29.3640   33.2010 N   0  0  0  0  0  0  0  0  0  0  0  0
   32.0340   29.9330   32.9000 C   0  0  0  0  0  0  0  0  0  0  0  0
   32.0700   28.6670   32.8670 O   0  0  0  0  0  0  0  0  0  0  0  0
   33.0940   30.8520   32.6540 N   0  0  0  0  0  0  0  0  0  0  0  0
   37.6280   28.4580   31.5060 H   0  0  0  0  0  0  0  0  0  0  0  0
   36.6180   29.9920   29.9060 H   0  0  0  0  0  0  0  0  0  0  0  0
   31.0320   30.2520   33.1540 H   0  0  0  0  0  0  0  0  0  0  0  0
   32.8310   31.8370   32.7370 H   0  0  0  0  0  0  0  0  0  0  0  0
  1  2  2  0  0  0  0
  2  3  1  0  0  0  0
  2  6  1  0  0  0  0
  3  7  1  6  0  0  0
  3 22  1  0  0  0  0
  3  4  1  0  0  0  0
  4  8  1  0  0  0  0
  5  4  1  0  0  0  0
  5 10  1  0  0  0  0
  6  5  1  0  0  0  0
  6 12  1  0  0  0  0
  9  4  1  0  0  0  0
 11  5  1  0  0  0  0
 12 15  1  0  0  0  0
 13 12  1  0  0  0  0
 14 12  1  0  0  0  0
 15 21  1  0  0  0  0
 15 16  2  0  0  0  0
 16 18  1  0  0  0  0
 17 16  1  0  0  0  0
 19 20  1  0  0  0  0
 19 18  1  0  0  0  0
 21 19  2  0  0  0  0
 23 28  1  0  0  0  0
 23 22  1  0  0  0  0
 24 23  2  0  0  0  0
 25 26  2  0  0  0  0
 25 24  1  0  0  0  0
 26 27  1  0  0  0  0
 27 31  1  0  0  0  0
 27 28  2  0  0  0  0
 29 34  1  0  0  0  0
 30 29  2  0  0  0  0
 31 35  1  0  0  0  0
 31 29  1  0  0  0  0
 32 24  1  0  0  0  0
 33 25  1  0  0  0  0
M  END
>  <minimizedAffinity>
-4.95538616

$$$$

 OpenBabel03272506403D

 35 37  0  0  1  0  0  0  0  0999 V2000
   37.0000   24.1940   32.3680 O   0  0  0  0  0  0  0  0  0  0  0  0
   37.2320   25.2620   32.9480 C   0  0  0  0  0  0  0  0  0  0  0  0
   38.0110   25.3130   34.1660 C   0  0  2  0  0  0  0  0  0  0  0  0
   38.1670   26.8560   34.3580 C   0  0  0  0  0  0  0  0  0  0  0  0
   36.9710   27.4120   33.6540 C   0  0  0  0  0  0  0  0  0  0  0  0
   36.7740   26.5550   32.5000 N   0  0  0  0  0  0  0  0  0  0  0  0
   37.4870   24.9100   35.0290 H   0  0  0  0  0  0  0  0  0  0  0  0
   39.1240   27.2040   33.9710 H   0  0  0  0  0  0  0  0  0  0  0  0
   38.0560   27.0180   35.4430 H   0  0  0  0  0  0  0  0  0  0  0  0
   37.2590   28.4170   33.2550 H   0  0  0  0  0  0  0  0  0  0  0  0
   36.0720   27.4440   34.2660 H   0  0  0  0  0  0  0  0  0  0  0  0
   36.2440   26.9420   31.2180 C   0  0  0  0  0  0  0  0  0  0  0  0
   36.1300   26.0030   30.6110 H   0  0  0  0  0  0  0  0  0  0  0  0
   35.2320   27.3190   31.3580 H   0  0  0  0  0  0  0  0  0  0  0  0
   37.1530   27.8960   30.4860 C   0  0  0  0  0  0  0  0  0  0  0  0
   36.6540   29.2230   30.1200 C   0  0  0  0  0  0  0  0  0  0  0  0
   35.7510   29.5630   30.3150 H   0  0  0  0  0  0  0  0  0  0  0  0
   38.1180   29.9080   29.2900 S   0  0  0  0  0  0  0  0  0  0  0  0
   39.1470   28.3330   29.5620 C   0  0  0  0  0  0  0  0  0  0  0  0
   40.2210   27.9900   29.3050 H   0  0  0  0  0  0  0  0  0  0  0  0
   38.3800   27.4310   30.2230 N   0  0  0  0  0  0  0  0  0  0  0  0
   39.3380   24.8080   34.0370 O   0  0  0  0  0  0  0  0  0  0  0  0
   39.8810   24.1310   35.1260 C   0  0  0  0  0  0  0  0  0  0  0  0
   41.2470   23.9230   35.1110 C   0  0  0  0  0  0  0  0  0  0  0  0
   41.8170   23.2520   36.1820 C   0  0  0  0  0  0  0  0  0  0  0  0
   41.0120   22.8290   37.1970 N   0  0  0  0  0  0  0  0  0  0  0  0
   39.6870   23.0390   37.1940 C   0  0  0  0  0  0  0  0  0  0  0  0
   39.1470   23.6810   36.1670 N   0  0  0  0  0  0  0  0  0  0  0  0
   38.1780   23.6340   38.9220 C   0  0  0  0  0  0  0  0  0  0  0  0
   38.2050   24.8730   38.6580 O   0  0  0  0  0  0  0  0  0  0  0  0
   38.8760   22.5780   38.2710 N   0  0  0  0  0  0  0  0  0  0  0  0
   41.8610   24.2710   34.2920 H   0  0  0  0  0  0  0  0  0  0  0  0
   42.8780   23.0930   36.1660 H   0  0  0  0  0  0  0  0  0  0  0  0
   37.5150   23.4660   39.7610 H   0  0  0  0  0  0  0  0  0  0  0  0
   38.7000   21.6490   38.6590 H   0  0  0  0  0  0  0  0  0  0  0  0
  1  2  2  0  0  0  0
  2  3  1  0  0  0  0
  3  4  1  0  0  0  0
  3  7  1  1  0  0  0
  4  9  1  0  0  0  0
  5 11  1  0  0  0  0
  5  4  1  0  0  0  0
  6  2  1  0  0  0  0
  6  5  1  0  0  0  0
  8  4  1  0  0  0  0
 10  5  1  0  0  0  0
 12 14  1  0  0  0  0
 12  6  1  0  0  0  0
 13 12  1  0  0  0  0
 15 12  1  0  0  0  0
 16 17  1  0  0  0  0
 16 15  2  0  0  0  0
 18 19  1  0  0  0  0
 18 16  1  0  0  0  0
 19 21  2  0  0  0  0
 20 19  1  0  0  0  0
 21 15  1  0  0  0  0
 22  3  1  0  0  0  0
 22 23  1  0  0  0  0
 23 28  1  0  0  0  0
 24 23  2  0  0  0  0
 24 25  1  0  0  0  0
 25 26  2  0  0  0  0
 27 26  1  0  0  0  0
 27 31  1  0  0  0  0
 28 27  2  0  0  0  0
 29 34  1  0  0  0  0
 30 29  2  0  0  0  0
 31 35  1  0  0  0  0
 31 29  1  0  0  0  0
 32 24  1  0  0  0  0
 33 25  1  0  0  0  0
M  END
>  <minimizedAffinity>
-4.94880247

$$$$

 OpenBabel03272506403D

 35 37  0  0  1  0  0  0  0  0999 V2000
   37.0330   26.4930   34.9300 O   0  0  0  0  0  0  0  0  0  0  0  0
   37.7100   26.5770   33.8980 C   0  0  0  0  0  0  0  0  0  0  0  0
   38.9950   25.9230   33.7770 C   0  0  2  0  0  0  0  0  0  0  0  0
   39.3160   26.1710   32.2680 C   0  0  0  0  0  0  0  0  0  0  0  0
   38.5490   27.4150   31.9530 C   0  0  0  0  0  0  0  0  0  0  0  0
   37.3210   27.3100   32.7180 N   0  0  0  0  0  0  0  0  0  0  0  0
   39.7740   26.3890   34.3760 H   0  0  0  0  0  0  0  0  0  0  0  0
   39.0480   25.3070   31.6630 H   0  0  0  0  0  0  0  0  0  0  0  0
   40.3960   26.3970   32.2430 H   0  0  0  0  0  0  0  0  0  0  0  0
   38.2560   27.3600   30.8750 H   0  0  0  0  0  0  0  0  0  0  0  0
   39.0760   28.3360   32.2000 H   0  0  0  0  0  0  0  0  0  0  0  0
   36.0280   27.8270   32.3500 C   0  0  0  0  0  0  0  0  0  0  0  0
   35.9590   27.7780   31.2300 H   0  0  0  0  0  0  0  0  0  0  0  0
   35.2620   27.1440   32.7160 H   0  0  0  0  0  0  0  0  0  0  0  0
   35.8330   29.2540   32.7960 C   0  0  0  0  0  0  0  0  0  0  0  0
   35.3800   29.5230   34.1620 C   0  0  0  0  0  0  0  0  0  0  0  0
   35.1870   28.8370   34.8410 H   0  0  0  0  0  0  0  0  0  0  0  0
   35.3190   31.3390   34.1380 S   0  0  0  0  0  0  0  0  0  0  0  0
   35.9000   31.4440   32.3300 C   0  0  0  0  0  0  0  0  0  0  0  0
   36.1120   32.2950   31.5770 H   0  0  0  0  0  0  0  0  0  0  0  0
   36.0970   30.1850   31.8710 N   0  0  0  0  0  0  0  0  0  0  0  0
   38.9520   24.5070   33.9300 O   0  0  0  0  0  0  0  0  0  0  0  0
   39.6250   23.9530   35.0160 C   0  0  0  0  0  0  0  0  0  0  0  0
   41.0000   23.8500   34.9090 C   0  0  0  0  0  0  0  0  0  0  0  0
   41.6980   23.3030   35.9730 C   0  0  0  0  0  0  0  0  0  0  0  0
   41.0060   22.8910   37.0720 N   0  0  0  0  0  0  0  0  0  0  0  0
   39.6710   22.9980   37.1590 C   0  0  0  0  0  0  0  0  0  0  0  0
   39.0080   23.5230   36.1370 N   0  0  0  0  0  0  0  0  0  0  0  0
   38.2470   23.5970   38.9560 C   0  0  0  0  0  0  0  0  0  0  0  0
   38.1530   24.8120   38.6110 O   0  0  0  0  0  0  0  0  0  0  0  0
   38.9800   22.5540   38.3230 N   0  0  0  0  0  0  0  0  0  0  0  0
   41.5220   24.1860   34.0230 H   0  0  0  0  0  0  0  0  0  0  0  0
   42.7650   23.2250   35.8850 H   0  0  0  0  0  0  0  0  0  0  0  0
   37.6620   23.4380   39.8530 H   0  0  0  0  0  0  0  0  0  0  0  0
   38.9100   21.6430   38.7830 H   0  0  0  0  0  0  0  0  0  0  0  0
  2  1  2  0  0  0  0
  3  2  1  0  0  0  0
  3 22  1  0  0  0  0
  3  7  1  1  0  0  0
  4  3  1  0  0  0  0
  5 11  1  0  0  0  0
  5  4  1  0  0  0  0
  5  6  1  0  0  0  0
  6  2  1  0  0  0  0
  8  4  1  0  0  0  0
  9  4  1  0  0  0  0
 10  5  1  0  0  0  0
 12 14  1  0  0  0  0
 12  6  1  0  0  0  0
 12 15  1  0  0  0  0
 13 12  1  0  0  0  0
 15 16  2  0  0  0  0
 16 17  1  0  0  0  0
 18 16  1  0  0  0  0
 19 18  1  0  0  0  0
 20 19  1  0  0  0  0
 21 19  2  0  0  0  0
 21 15  1  0  0  0  0
 22 23  1  0  0  0  0
 23 28  1  0  0  0  0
 24 23  2  0  0  0  0
 24 25  1  0  0  0  0
 25 26  2  0  0  0  0
 26 27  1  0  0  0  0
 27 31  1  0  0  0  0
 28 27  2  0  0  0  0
 29 34  1  0  0  0  0
 30 29  2  0  0  0  0
 31 35  1  0  0  0  0
 31 29  1  0  0  0  0
 32 24  1  0  0  0  0
 33 25  1  0  0  0  0
M  END
>  <minimizedAffinity>
-4.87647295

$$$$

 OpenBabel03272506403D

 35 37  0  0  1  0  0  0  0  0999 V2000
   36.5690   27.5170   34.7800 O   0  0  0  0  0  0  0  0  0  0  0  0
   37.7470   27.1520   34.6950 C   0  0  0  0  0  0  0  0  0  0  0  0
   38.4540   26.5930   35.8280 C   0  0  2  0  0  0  0  0  0  0  0  0
   39.7850   26.1310   35.1520 C   0  0  0  0  0  0  0  0  0  0  0  0
   39.9040   27.0400   33.9710 C   0  0  0  0  0  0  0  0  0  0  0  0
   38.5470   27.2300   33.4960 N   0  0  0  0  0  0  0  0  0  0  0  0
   38.6920   27.3290   36.5920 H   0  0  0  0  0  0  0  0  0  0  0  0
   39.7530   25.0710   34.9080 H   0  0  0  0  0  0  0  0  0  0  0  0
   40.5730   26.3820   35.8820 H   0  0  0  0  0  0  0  0  0  0  0  0
   40.4420   26.4740   33.1700 H   0  0  0  0  0  0  0  0  0  0  0  0
   40.3690   27.9980   34.1940 H   0  0  0  0  0  0  0  0  0  0  0  0
   38.1300   27.4400   32.1340 C   0  0  0  0  0  0  0  0  0  0  0  0
   37.6540   28.4570   32.0870 H   0  0  0  0  0  0  0  0  0  0  0  0
   39.0160   27.5070   31.5040 H   0  0  0  0  0  0  0  0  0  0  0  0
   37.1340   26.4070   31.6730 C   0  0  0  0  0  0  0  0  0  0  0  0
   35.7560   26.8150   31.3920 C   0  0  0  0  0  0  0  0  0  0  0  0
   35.4070   27.7310   31.4770 H   0  0  0  0  0  0  0  0  0  0  0  0
   35.0350   25.2220   30.8980 S   0  0  0  0  0  0  0  0  0  0  0  0
   36.6680   24.2800   31.1430 C   0  0  0  0  0  0  0  0  0  0  0  0
   37.0190   23.1850   31.0250 H   0  0  0  0  0  0  0  0  0  0  0  0
   37.6100   25.1620   31.5580 N   0  0  0  0  0  0  0  0  0  0  0  0
   37.8660   25.4110   36.3630 O   0  0  0  0  0  0  0  0  0  0  0  0
   38.5360   24.2070   36.1610 C   0  0  0  0  0  0  0  0  0  0  0  0
   39.2280   23.6910   37.2410 C   0  0  0  0  0  0  0  0  0  0  0  0
   39.9060   22.4940   37.0710 C   0  0  0  0  0  0  0  0  0  0  0  0
   39.8610   21.8800   35.8550 N   0  0  0  0  0  0  0  0  0  0  0  0
   39.1840   22.3950   34.8170 C   0  0  0  0  0  0  0  0  0  0  0  0
   38.5380   23.5410   34.9860 N   0  0  0  0  0  0  0  0  0  0  0  0
   37.8460   21.3820   33.1440 C   0  0  0  0  0  0  0  0  0  0  0  0
   36.7510   21.5960   33.7470 O   0  0  0  0  0  0  0  0  0  0  0  0
   39.1630   21.7270   33.5600 N   0  0  0  0  0  0  0  0  0  0  0  0
   39.2450   24.2020   38.1940 H   0  0  0  0  0  0  0  0  0  0  0  0
   40.4410   22.0990   37.9120 H   0  0  0  0  0  0  0  0  0  0  0  0
   37.6420   20.8710   32.2120 H   0  0  0  0  0  0  0  0  0  0  0  0
   39.9010   21.4530   32.9070 H   0  0  0  0  0  0  0  0  0  0  0  0
  2  1  2  0  0  0  0
  2  3  1  0  0  0  0
  3 22  1  0  0  0  0
  3  7  1  1  0  0  0
  4  3  1  0  0  0  0
  4  9  1  0  0  0  0
  5 11  1  0  0  0  0
  5  4  1  0  0  0  0
  6  5  1  0  0  0  0
  6  2  1  0  0  0  0
  8  4  1  0  0  0  0
 10  5  1  0  0  0  0
 12  6  1  0  0  0  0
 13 12  1  0  0  0  0
 14 12  1  0  0  0  0
 15 12  1  0  0  0  0
 16 17  1  0  0  0  0
 16 15  2  0  0  0  0
 18 19  1  0  0  0  0
 18 16  1  0  0  0  0
 19 21  2  0  0  0  0
 20 19  1  0  0  0  0
 21 15  1  0  0  0  0
 23 22  1  0  0  0  0
 23 24  1  0  0  0  0
 24 32  1  0  0  0  0
 25 24  2  0  0  0  0
 25 33  1  0  0  0  0
 26 25  1  0  0  0  0
 27 28  1  0  0  0  0
 27 26  2  0  0  0  0
 28 23  2  0  0  0  0
 29 31  1  0  0  0  0
 29 30  2  0  0  0  0
 31 27  1  0  0  0  0
 34 29  1  0  0  0  0
 35 31  1  0  0  0  0
M  END
>  <minimizedAffinity>
-4.85215616

$$$$

 OpenBabel03272506403D

 35 37  0  0  1  0  0  0  0  0999 V2000
   36.7280   25.4580   32.8350 O   0  0  0  0  0  0  0  0  0  0  0  0
   37.5430   25.9700   33.6120 C   0  0  0  0  0  0  0  0  0  0  0  0
   37.5820   27.3980   33.8410 C   0  0  2  0  0  0  0  0  0  0  0  0
   38.6140   27.4860   35.0100 C   0  0  0  0  0  0  0  0  0  0  0  0
   39.4490   26.2600   34.8240 C   0  0  0  0  0  0  0  0  0  0  0  0
   38.5290   25.2370   34.3680 N   0  0  0  0  0  0  0  0  0  0  0  0
   37.9710   27.9600   32.9950 H   0  0  0  0  0  0  0  0  0  0  0  0
   38.1100   27.5500   35.9740 H   0  0  0  0  0  0  0  0  0  0  0  0
   39.2230   28.3770   34.7820 H   0  0  0  0  0  0  0  0  0  0  0  0
   39.8000   25.9410   35.8370 H   0  0  0  0  0  0  0  0  0  0  0  0
   40.2670   26.3840   34.1160 H   0  0  0  0  0  0  0  0  0  0  0  0
   38.6100   23.8230   34.6320 C   0  0  0  0  0  0  0  0  0  0  0  0
   37.6380   23.3680   34.2980 H   0  0  0  0  0  0  0  0  0  0  0  0
   39.3690   23.3890   33.9820 H   0  0  0  0  0  0  0  0  0  0  0  0
   38.8180   23.5240   36.0940 C   0  0  0  0  0  0  0  0  0  0  0  0
   37.7840   23.9050   37.0580 C   0  0  0  0  0  0  0  0  0  0  0  0
   36.9360   24.3520   36.8340 H   0  0  0  0  0  0  0  0  0  0  0  0
   38.5460   23.3250   38.6040 S   0  0  0  0  0  0  0  0  0  0  0  0
   40.1010   22.6760   37.7240 C   0  0  0  0  0  0  0  0  0  0  0  0
   41.0780   22.1520   38.0500 H   0  0  0  0  0  0  0  0  0  0  0  0
   39.9710   22.9160   36.3960 N   0  0  0  0  0  0  0  0  0  0  0  0
   36.3710   27.9440   34.3580 O   0  0  0  0  0  0  0  0  0  0  0  0
   35.9170   29.1420   33.8120 C   0  0  0  0  0  0  0  0  0  0  0  0
   35.5580   30.1350   34.7040 C   0  0  0  0  0  0  0  0  0  0  0  0
   35.1020   31.3400   34.1920 C   0  0  0  0  0  0  0  0  0  0  0  0
   35.0270   31.4930   32.8400 N   0  0  0  0  0  0  0  0  0  0  0  0
   35.3790   30.5170   31.9890 C   0  0  0  0  0  0  0  0  0  0  0  0
   35.8150   29.3670   32.4850 N   0  0  0  0  0  0  0  0  0  0  0  0
   36.5370   30.5660   29.9210 C   0  0  0  0  0  0  0  0  0  0  0  0
   37.6660   30.2980   30.4300 O   0  0  0  0  0  0  0  0  0  0  0  0
   35.2840   30.7120   30.5810 N   0  0  0  0  0  0  0  0  0  0  0  0
   35.6290   29.9850   35.7730 H   0  0  0  0  0  0  0  0  0  0  0  0
   34.8250   32.1070   34.8880 H   0  0  0  0  0  0  0  0  0  0  0  0
   36.6500   30.6780   28.8500 H   0  0  0  0  0  0  0  0  0  0  0  0
   34.4990   30.9310   29.9620 H   0  0  0  0  0  0  0  0  0  0  0  0
  1  2  2  0  0  0  0
  2  3  1  0  0  0  0
  2  6  1  0  0  0  0
  3  7  1  6  0  0  0
  3 22  1  0  0  0  0
  3  4  1  0  0  0  0
  4  8  1  0  0  0  0
  5  4  1  0  0  0  0
  5 10  1  0  0  0  0
  6 12  1  0  0  0  0
  6  5  1  0  0  0  0
  9  4  1  0  0  0  0
 11  5  1  0  0  0  0
 12 15  1  0  0  0  0
 13 12  1  0  0  0  0
 14 12  1  0  0  0  0
 15 21  1  0  0  0  0
 15 16  2  0  0  0  0
 16 18  1  0  0  0  0
 17 16  1  0  0  0  0
 19 20  1  0  0  0  0
 19 18  1  0  0  0  0
 21 19  2  0  0  0  0
 23 22  1  0  0  0  0
 23 24  1  0  0  0  0
 24 32  1  0  0  0  0
 25 24  2  0  0  0  0
 25 33  1  0  0  0  0
 26 25  1  0  0  0  0
 27 28  1  0  0  0  0
 27 26  2  0  0  0  0
 28 23  2  0  0  0  0
 29 30  2  0  0  0  0
 29 31  1  0  0  0  0
 31 27  1  0  0  0  0
 34 29  1  0  0  0  0
 35 31  1  0  0  0  0
M  END
>  <minimizedAffinity>
-4.8035965

$$$$
