
 OpenBabel03272510233D

 29 32  0  0  0  0  0  0  0  0999 V2000
   36.0610   30.1430   46.1960 C   0  0  0  0  0  0  0  0  0  0  0  0
   37.0720   30.9390   46.7170 C   0  0  0  0  0  0  0  0  0  0  0  0
   37.7300   31.8320   45.9150 C   0  0  0  0  0  0  0  0  0  0  0  0
   37.3430   31.9070   44.5760 C   0  0  0  0  0  0  0  0  0  0  0  0
   37.8580   32.7180   43.6110 N   0  0  0  0  0  0  0  0  0  0  0  0
   37.1900   32.4510   42.4850 C   0  0  0  0  0  0  0  0  0  0  0  0
   36.2650   31.4900   42.7150 N   0  0  0  0  0  0  0  0  0  0  0  0
   36.3420   31.1350   44.0100 C   0  0  0  0  0  0  0  0  0  0  0  0
   35.6930   30.2390   44.8440 C   0  0  0  0  0  0  0  0  0  0  0  0
   35.5030   29.4200   46.7670 H   0  0  0  0  0  0  0  0  0  0  0  0
   38.5170   32.4530   46.3160 H   0  0  0  0  0  0  0  0  0  0  0  0
   38.6300   33.4100   43.7510 H   0  0  0  0  0  0  0  0  0  0  0  0
   34.9130   29.6320   44.4200 H   0  0  0  0  0  0  0  0  0  0  0  0
   38.4430   31.3370   50.1940 C   0  0  0  0  0  0  0  0  0  0  0  0
   38.2240   31.6010   48.8430 C   0  0  0  0  0  0  0  0  0  0  0  0
   37.3750   30.7620   48.1300 C   0  0  0  0  0  0  0  0  0  0  0  0
   36.7900   29.7130   48.7820 N   0  0  0  0  0  0  0  0  0  0  0  0
   37.0200   29.4790   50.0950 C   0  0  0  0  0  0  0  0  0  0  0  0
   37.8350   30.2790   50.7970 N   0  0  0  0  0  0  0  0  0  0  0  0
   39.1210   32.0410   50.6800 H   0  0  0  0  0  0  0  0  0  0  0  0
   38.6840   32.4180   48.3470 H   0  0  0  0  0  0  0  0  0  0  0  0
   36.5640   28.6530   50.6260 H   0  0  0  0  0  0  0  0  0  0  0  0
   37.4310   33.1160   41.1740 C   0  0  0  0  0  0  0  0  0  0  0  0
   36.3370   33.7790   40.4920 C   0  0  0  0  0  0  0  0  0  0  0  0
   35.3660   33.8620   40.7950 H   0  0  0  0  0  0  0  0  0  0  0  0
   37.1850   34.3980   38.9770 S   0  0  0  0  0  0  0  0  0  0  0  0
   38.8500   33.6620   39.5260 C   0  0  0  0  0  0  0  0  0  0  0  0
   39.7400   33.7580   38.9360 H   0  0  0  0  0  0  0  0  0  0  0  0
   38.6410   33.1200   40.6020 N   0  0  0  0  0  0  0  0  0  0  0  0
  1  2  1  0  0  0  0
  1 10  1  0  0  0  0
  2 16  1  0  0  0  0
  3 11  1  0  0  0  0
  3  2  2  0  0  0  0
  4  3  1  0  0  0  0
  5 12  1  0  0  0  0
  5  4  1  0  0  0  0
  6  7  2  0  0  0  0
  6  5  1  0  0  0  0
  7  8  1  0  0  0  0
  8  4  2  0  0  0  0
  8  9  1  0  0  0  0
  9  1  2  0  0  0  0
 13  9  1  0  0  0  0
 14 20  1  0  0  0  0
 14 19  1  0  0  0  0
 15 14  2  0  0  0  0
 16 17  2  0  0  0  0
 16 15  1  0  0  0  0
 17 18  1  0  0  0  0
 18 22  1  0  0  0  0
 18 19  2  0  0  0  0
 21 15  1  0  0  0  0
 23  6  1  0  0  0  0
 24 25  1  0  0  0  0
 24 23  2  0  0  0  0
 26 27  1  0  0  0  0
 26 24  1  0  0  0  0
 27 29  2  0  0  0  0
 28 27  1  0  0  0  0
 29 23  1  0  0  0  0
M  END
>  <minimizedAffinity>
-4.76799011

>  <minimizedRMSD>
3.42063808

$$$$
