
 OpenBabel03262523333D

 38 42  0  0  1  0  0  0  0  0999 V2000
   35.8470   29.4820   50.7080 C   0  0  0  0  0  0  0  0  0  0  0  0
   36.5860   30.2080   49.8010 C   0  0  0  0  0  0  0  0  0  0  0  0
   36.2990   30.0960   48.4430 C   0  0  0  0  0  0  0  0  0  0  0  0
   35.2770   29.2540   48.0590 N   0  0  0  0  0  0  0  0  0  0  0  0
   34.5830   28.5650   48.9880 C   0  0  0  0  0  0  0  0  0  0  0  0
   34.8480   28.6650   50.2840 N   0  0  0  0  0  0  0  0  0  0  0  0
   36.0560   29.5550   51.7840 H   0  0  0  0  0  0  0  0  0  0  0  0
   37.3860   30.8660   50.1130 H   0  0  0  0  0  0  0  0  0  0  0  0
   36.6330   30.5580   46.0900 C   0  0  0  0  0  0  0  0  0  0  0  0
   37.0140   30.8080   47.4070 C   0  0  0  0  0  0  0  0  0  0  0  0
   38.0320   31.6920   47.6460 C   0  0  0  0  0  0  0  0  0  0  0  0
   38.6600   32.3170   46.5940 C   0  0  0  0  0  0  0  0  0  0  0  0
   39.6730   33.2100   46.6020 N   0  0  0  0  0  0  0  0  0  0  0  0
   39.9370   33.5250   45.3330 C   0  0  0  0  0  0  0  0  0  0  0  0
   39.1170   32.8560   44.5100 N   0  0  0  0  0  0  0  0  0  0  0  0
   38.3120   32.0960   45.2770 C   0  0  0  0  0  0  0  0  0  0  0  0
   37.2770   31.1960   45.0320 C   0  0  0  0  0  0  0  0  0  0  0  0
   35.8310   29.8670   45.8070 H   0  0  0  0  0  0  0  0  0  0  0  0
   38.3410   31.8990   48.6450 H   0  0  0  0  0  0  0  0  0  0  0  0
   40.1640   33.5880   47.4440 H   0  0  0  0  0  0  0  0  0  0  0  0
   40.6830   34.2100   44.9520 H   0  0  0  0  0  0  0  0  0  0  0  0
   36.9950   31.0140   44.0240 H   0  0  0  0  0  0  0  0  0  0  0  0
   33.5050   27.7060   48.5230 C   0  0  0  0  0  0  0  0  0  0  0  0
   33.7070   26.5580   48.0480 O   0  0  0  0  0  0  0  0  0  0  0  0
   32.0790   28.2080   48.6090 C   0  0  1  0  0  0  0  0  0  0  0  0
   31.2600   28.0350   47.3130 C   0  0  0  0  0  0  0  0  0  0  0  0
   30.9700   27.2560   48.5430 C   0  0  2  0  0  0  0  0  0  0  0  0
   31.9890   29.1990   49.0730 H   0  0  0  0  0  0  0  0  0  0  0  0
   31.7900   27.5790   46.4680 H   0  0  0  0  0  0  0  0  0  0  0  0
   30.6210   28.8890   47.0840 H   0  0  0  0  0  0  0  0  0  0  0  0
   31.2700   26.1790   48.4620 H   0  0  0  0  0  0  0  0  0  0  0  0
   29.7390   27.5450   49.3360 C   0  0  0  0  0  0  0  0  0  0  0  0
   28.9080   28.6170   48.8010 C   0  0  0  0  0  0  0  0  0  0  0  0
   29.0160   29.1950   47.9960 H   0  0  0  0  0  0  0  0  0  0  0  0
   27.5580   28.6240   50.0460 S   0  0  0  0  0  0  0  0  0  0  0  0
   28.3280   27.2090   51.0580 C   0  0  0  0  0  0  0  0  0  0  0  0
   28.0450   26.6770   51.9690 H   0  0  0  0  0  0  0  0  0  0  0  0
   29.4860   26.8370   50.4360 N   0  0  0  0  0  0  0  0  0  0  0  0
  1  7  1  0  0  0  0
  2  8  1  0  0  0  0
  2  1  2  0  0  0  0
  3  2  1  0  0  0  0
  4  3  2  0  0  0  0
  4  5  1  0  0  0  0
  5  6  2  0  0  0  0
  6  1  1  0  0  0  0
  9 10  1  0  0  0  0
 10 11  2  0  0  0  0
 10  3  1  0  0  0  0
 11 19  1  0  0  0  0
 12 13  1  0  0  0  0
 12 11  1  0  0  0  0
 13 20  1  0  0  0  0
 14 13  1  0  0  0  0
 15 16  1  0  0  0  0
 15 14  2  0  0  0  0
 16 12  2  0  0  0  0
 17 16  1  0  0  0  0
 17  9  2  0  0  0  0
 18  9  1  0  0  0  0
 21 14  1  0  0  0  0
 22 17  1  0  0  0  0
 23 25  1  0  0  0  0
 23  5  1  0  0  0  0
 24 23  2  0  0  0  0
 25 28  1  1  0  0  0
 26 27  1  0  0  0  0
 26 25  1  0  0  0  0
 27 31  1  6  0  0  0
 27 25  1  0  0  0  0
 27 32  1  0  0  0  0
 29 26  1  0  0  0  0
 30 26  1  0  0  0  0
 32 38  1  0  0  0  0
 33 32  2  0  0  0  0
 33 35  1  0  0  0  0
 34 33  1  0  0  0  0
 35 36  1  0  0  0  0
 36 37  1  0  0  0  0
 38 36  2  0  0  0  0
M  END
>  <minimizedAffinity>
-6.85082579

>  <minimizedRMSD>
0.619911969

$$$$
