
 OpenBabel03272510073D

 28 30  0  0  0  0  0  0  0  0999 V2000
   36.4750   31.2400   49.3770 C   0  0  0  0  0  0  0  0  0  0  0  0
   37.2430   31.5950   48.2660 C   0  0  0  0  0  0  0  0  0  0  0  0
   36.9580   30.9770   47.0490 C   0  0  0  0  0  0  0  0  0  0  0  0
   35.9500   30.0620   47.0000 N   0  0  0  0  0  0  0  0  0  0  0  0
   35.2300   29.7470   48.1060 C   0  0  0  0  0  0  0  0  0  0  0  0
   35.4790   30.3220   49.2830 N   0  0  0  0  0  0  0  0  0  0  0  0
   34.1830   28.7670   47.9640 N   0  0  0  0  0  0  0  0  0  0  0  0
   33.0450   28.9130   47.0880 C   0  0  0  0  0  0  0  0  0  0  0  0
   32.4000   27.5660   47.0850 C   0  0  0  0  0  0  0  0  0  0  0  0
   33.3470   26.6250   47.7930 C   0  0  0  0  0  0  0  0  0  0  0  0
   34.1510   27.4970   48.6930 C   0  0  0  0  0  0  0  0  0  0  0  0
   36.6790   31.7090   50.3350 H   0  0  0  0  0  0  0  0  0  0  0  0
   37.5120   31.2040   46.1490 H   0  0  0  0  0  0  0  0  0  0  0  0
   32.3540   29.6390   47.5690 H   0  0  0  0  0  0  0  0  0  0  0  0
   33.3220   29.1970   46.0600 H   0  0  0  0  0  0  0  0  0  0  0  0
   31.4340   27.5820   47.6090 H   0  0  0  0  0  0  0  0  0  0  0  0
   32.2240   27.2150   46.0320 H   0  0  0  0  0  0  0  0  0  0  0  0
   34.0100   26.1620   47.0360 H   0  0  0  0  0  0  0  0  0  0  0  0
   32.7990   25.8870   48.3940 H   0  0  0  0  0  0  0  0  0  0  0  0
   33.7130   27.6280   49.6970 H   0  0  0  0  0  0  0  0  0  0  0  0
   35.2050   27.1640   48.7740 H   0  0  0  0  0  0  0  0  0  0  0  0
   38.3230   32.5910   48.3680 C   0  0  0  0  0  0  0  0  0  0  0  0
   39.1700   32.8690   47.2680 C   0  0  0  0  0  0  0  0  0  0  0  0
   39.1510   32.4120   46.2380 H   0  0  0  0  0  0  0  0  0  0  0  0
   40.3040   34.1480   47.9250 S   0  0  0  0  0  0  0  0  0  0  0  0
   39.4250   34.0910   49.6090 C   0  0  0  0  0  0  0  0  0  0  0  0
   39.5870   34.6580   50.6020 H   0  0  0  0  0  0  0  0  0  0  0  0
   38.6240   33.3150   49.4440 N   0  0  0  0  0  0  0  0  0  0  0  0
  1 12  1  0  0  0  0
  2 22  1  0  0  0  0
  2  1  2  0  0  0  0
  3  2  1  0  0  0  0
  4  3  2  0  0  0  0
  4  5  1  0  0  0  0
  5  6  2  0  0  0  0
  6  1  1  0  0  0  0
  7  5  1  0  0  0  0
  7 11  1  0  0  0  0
  8 14  1  0  0  0  0
  8  7  1  0  0  0  0
  9  8  1  0  0  0  0
  9 16  1  0  0  0  0
  9 10  1  0  0  0  0
 10 19  1  0  0  0  0
 10 11  1  0  0  0  0
 11 21  1  0  0  0  0
 11 20  1  0  0  0  0
 13  3  1  0  0  0  0
 15  8  1  0  0  0  0
 17  9  1  0  0  0  0
 18 10  1  0  0  0  0
 22 28  1  0  0  0  0
 23 25  1  0  0  0  0
 23 22  2  0  0  0  0
 24 23  1  0  0  0  0
 25 26  1  0  0  0  0
 26 27  1  0  0  0  0
 28 26  2  0  0  0  0
M  END
>  <minimizedAffinity>
-3.98263907

>  <minimizedRMSD>
2.4275136

$$$$
