
 OpenBabel03272510233D

 29 32  0  0  0  0  0  0  0  0999 V2000
   35.5860   29.7880   46.9630 C   0  0  0  0  0  0  0  0  0  0  0  0
   36.5890   30.5300   47.5720 C   0  0  0  0  0  0  0  0  0  0  0  0
   37.3200   31.4310   46.8460 C   0  0  0  0  0  0  0  0  0  0  0  0
   37.0160   31.5670   45.4900 C   0  0  0  0  0  0  0  0  0  0  0  0
   37.6110   32.3970   44.5890 N   0  0  0  0  0  0  0  0  0  0  0  0
   37.0030   32.1940   43.4160 C   0  0  0  0  0  0  0  0  0  0  0  0
   36.0380   31.2560   43.5550 N   0  0  0  0  0  0  0  0  0  0  0  0
   36.0260   30.8510   44.8380 C   0  0  0  0  0  0  0  0  0  0  0  0
   35.3030   29.9460   45.5970 C   0  0  0  0  0  0  0  0  0  0  0  0
   34.9740   29.0630   47.4720 H   0  0  0  0  0  0  0  0  0  0  0  0
   38.1000   32.0100   47.3150 H   0  0  0  0  0  0  0  0  0  0  0  0
   38.3950   33.0570   44.8000 H   0  0  0  0  0  0  0  0  0  0  0  0
   34.5300   29.3810   45.1050 H   0  0  0  0  0  0  0  0  0  0  0  0
   38.0340   30.4310   51.0410 C   0  0  0  0  0  0  0  0  0  0  0  0
   37.9340   30.7150   49.6800 C   0  0  0  0  0  0  0  0  0  0  0  0
   36.8020   30.2910   48.9930 C   0  0  0  0  0  0  0  0  0  0  0  0
   35.8340   29.6130   49.6790 N   0  0  0  0  0  0  0  0  0  0  0  0
   35.9550   29.3500   51.0010 C   0  0  0  0  0  0  0  0  0  0  0  0
   37.0400   29.7520   51.6780 N   0  0  0  0  0  0  0  0  0  0  0  0
   38.9500   30.7960   51.5060 H   0  0  0  0  0  0  0  0  0  0  0  0
   38.6930   31.2420   49.1580 H   0  0  0  0  0  0  0  0  0  0  0  0
   35.1970   28.8150   51.5580 H   0  0  0  0  0  0  0  0  0  0  0  0
   37.3420   32.8990   42.1490 C   0  0  0  0  0  0  0  0  0  0  0  0
   36.2990   33.1840   41.1840 C   0  0  0  0  0  0  0  0  0  0  0  0
   35.3040   32.9590   41.2480 H   0  0  0  0  0  0  0  0  0  0  0  0
   37.2600   34.0360   39.8620 S   0  0  0  0  0  0  0  0  0  0  0  0
   38.8840   33.8600   40.8340 C   0  0  0  0  0  0  0  0  0  0  0  0
   39.8180   34.2290   40.4610 H   0  0  0  0  0  0  0  0  0  0  0  0
   38.5950   33.2810   41.8720 N   0  0  0  0  0  0  0  0  0  0  0  0
  1 10  1  0  0  0  0
  1  2  1  0  0  0  0
  2 16  1  0  0  0  0
  3 11  1  0  0  0  0
  3  2  2  0  0  0  0
  4  3  1  0  0  0  0
  5 12  1  0  0  0  0
  5  4  1  0  0  0  0
  6  7  2  0  0  0  0
  6  5  1  0  0  0  0
  7  8  1  0  0  0  0
  8  4  2  0  0  0  0
  8  9  1  0  0  0  0
  9  1  2  0  0  0  0
 13  9  1  0  0  0  0
 14 20  1  0  0  0  0
 14 19  1  0  0  0  0
 15 14  2  0  0  0  0
 16 17  2  0  0  0  0
 16 15  1  0  0  0  0
 17 18  1  0  0  0  0
 18 22  1  0  0  0  0
 18 19  2  0  0  0  0
 21 15  1  0  0  0  0
 23  6  1  0  0  0  0
 24 25  1  0  0  0  0
 24 23  2  0  0  0  0
 26 27  1  0  0  0  0
 26 24  1  0  0  0  0
 27 29  2  0  0  0  0
 28 27  1  0  0  0  0
 29 23  1  0  0  0  0
M  END
>  <minimizedAffinity>
-4.63511467

>  <minimizedRMSD>
3.10364008

$$$$
