
 OpenBabel03272506553D

 18 19  0  0  0  0  0  0  0  0999 V2000
   37.7990   32.9290   49.6070 C   0  0  0  0  0  0  0  0  0  0  0  0
   38.6380   33.1460   48.4980 C   0  0  0  0  0  0  0  0  0  0  0  0
   38.4550   32.2780   47.4060 C   0  0  0  0  0  0  0  0  0  0  0  0
   37.5140   31.3100   47.4740 N   0  0  0  0  0  0  0  0  0  0  0  0
   36.7280   31.1370   48.5660 C   0  0  0  0  0  0  0  0  0  0  0  0
   36.8680   31.9550   49.6510 N   0  0  0  0  0  0  0  0  0  0  0  0
   37.8870   33.5540   50.4700 H   0  0  0  0  0  0  0  0  0  0  0  0
   39.0890   32.4250   46.5430 H   0  0  0  0  0  0  0  0  0  0  0  0
   35.7420   30.0610   48.5350 C   0  0  0  0  0  0  0  0  0  0  0  0
   34.7950   30.0530   47.4300 C   0  0  0  0  0  0  0  0  0  0  0  0
   34.7190   30.7360   46.6230 H   0  0  0  0  0  0  0  0  0  0  0  0
   33.7630   28.5720   47.7690 S   0  0  0  0  0  0  0  0  0  0  0  0
   34.7750   28.2130   49.3390 C   0  0  0  0  0  0  0  0  0  0  0  0
   34.8210   27.4080   50.2400 H   0  0  0  0  0  0  0  0  0  0  0  0
   35.5490   29.0550   49.3660 N   0  0  0  0  0  0  0  0  0  0  0  0
   39.5970   34.1880   48.5160 N   0  0  0  0  0  0  0  0  0  0  0  0
   40.3410   33.7450   49.1050 H   0  0  0  0  0  0  0  0  0  0  0  0
   39.4090   35.0790   48.0090 H   0  0  0  0  0  0  0  0  0  0  0  0
  1  6  1  0  0  0  0
  1  7  1  0  0  0  0
  2 16  1  0  0  0  0
  2  1  2  0  0  0  0
  3  4  2  0  0  0  0
  3  2  1  0  0  0  0
  4  5  1  0  0  0  0
  5  6  2  0  0  0  0
  8  3  1  0  0  0  0
  9  5  1  0  0  0  0
  9 15  1  0  0  0  0
 10 12  1  0  0  0  0
 10  9  2  0  0  0  0
 11 10  1  0  0  0  0
 12 13  1  0  0  0  0
 13 15  2  0  0  0  0
 13 14  1  0  0  0  0
 16 17  1  0  0  0  0
 18 16  1  0  0  0  0
M  END
>  <minimizedAffinity>
-4.25610828

>  <minimizedRMSD>
3.50882268

$$$$
