
 OpenBabel03272505113D

 37 39  0  0  0  0  0  0  0  0999 V2000
   36.3940   30.9020   45.6980 Cl  0  0  0  0  0  0  0  0  0  0  0  0
   36.6790   30.7600   47.4090 C   0  0  0  0  0  0  0  0  0  0  0  0
   37.9410   31.0870   47.8700 C   0  0  0  0  0  0  0  0  0  0  0  0
   38.1770   30.9770   49.2250 C   0  0  0  0  0  0  0  0  0  0  0  0
   37.1760   30.5550   50.0670 C   0  0  0  0  0  0  0  0  0  0  0  0
   35.9210   30.2400   49.5370 C   0  0  0  0  0  0  0  0  0  0  0  0
   35.6230   30.3280   48.2020 C   0  0  0  0  0  0  0  0  0  0  0  0
   39.1440   31.2240   49.6040 H   0  0  0  0  0  0  0  0  0  0  0  0
   37.3660   30.4710   51.1280 H   0  0  0  0  0  0  0  0  0  0  0  0
   35.1590   29.9120   50.2290 H   0  0  0  0  0  0  0  0  0  0  0  0
   40.2030   33.3160   46.0850 C   0  0  0  0  0  0  0  0  0  0  0  0
   40.9170   32.4570   45.2140 C   0  0  0  0  0  0  0  0  0  0  0  0
   40.5970   31.1000   45.2620 C   0  0  0  0  0  0  0  0  0  0  0  0
   39.6310   30.6790   46.1290 N   0  0  0  0  0  0  0  0  0  0  0  0
   38.9850   31.5350   46.9320 C   0  0  0  0  0  0  0  0  0  0  0  0
   39.2740   32.8290   46.9020 N   0  0  0  0  0  0  0  0  0  0  0  0
   40.4810   34.3660   46.0190 H   0  0  0  0  0  0  0  0  0  0  0  0
   41.6790   32.7380   44.5210 H   0  0  0  0  0  0  0  0  0  0  0  0
   41.0590   30.3240   44.6560 H   0  0  0  0  0  0  0  0  0  0  0  0
   34.0550   29.9400   47.5050 S   0  0  0  0  0  0  0  0  0  0  0  0
   33.7790   29.1670   44.4750 Cl  0  0  0  0  0 15  0  0  0  0  0  0
   33.8000   27.9410   45.7410 C   0  0  0  0  0  3  0  0  0  0  0  0
   33.9180   28.1990   47.1000 C   0  0  0  0  0  0  0  0  0  0  0  0
   33.9170   27.1420   47.9710 C   0  0  0  0  0  0  0  0  0  0  0  0
   33.8060   25.8560   47.5520 C   0  0  0  0  0  0  0  0  0  0  0  0
   33.6870   25.5630   46.1980 C   0  0  0  0  0  0  0  0  0  0  0  0
   33.6860   26.6230   45.3000 C   0  0  0  0  0  0  0  0  0  0  0  0
   34.0130   27.4460   49.0040 H   0  0  0  0  0  0  0  0  0  0  0  0
   33.8130   25.0820   48.3060 H   0  0  0  0  0  0  0  0  0  0  0  0
   33.6010   24.5250   45.9110 H   0  0  0  0  0  0  0  0  0  0  0  0
   33.5590   26.3020   43.8490 C   0  0  0  0  0  0  0  0  0  0  0  0
   33.5490   27.2850   42.8870 C   0  0  0  0  0  0  0  0  0  0  0  0
   33.6240   28.3630   42.9640 H   0  0  0  0  0  0  0  0  0  0  0  0
   33.3740   26.3240   41.3250 S   0  0  0  0  0  0  0  0  0  0  0  0
   33.3420   24.7020   42.2910 C   0  0  0  0  0  0  0  0  0  0  0  0
   33.2490   23.6680   41.9170 H   0  0  0  0  0  0  0  0  0  0  0  0
   33.4460   25.0800   43.3800 N   0  0  0  0  0  0  0  0  0  0  0  0
  1  2  1  0  0  0  0
  2  3  2  0  0  0  0
  2  7  1  0  0  0  0
  3  4  1  0  0  0  0
  4  8  1  0  0  0  0
  4  5  2  0  0  0  0
  5  9  1  0  0  0  0
  6  5  1  0  0  0  0
  6 10  1  0  0  0  0
  7  6  2  0  0  0  0
 11 16  1  0  0  0  0
 12 13  1  0  0  0  0
 12 11  2  0  0  0  0
 13 14  2  0  0  0  0
 14 15  1  0  0  0  0
 15  3  1  0  0  0  0
 16 15  2  0  0  0  0
 17 11  1  0  0  0  0
 18 12  1  0  0  0  0
 19 13  1  0  0  0  0
 20  7  1  0  0  0  0
 22 23  1  0  0  0  0
 23 20  1  0  0  0  0
 23 24  2  0  0  0  0
 24 28  1  0  0  0  0
 25 24  1  0  0  0  0
 25 29  1  0  0  0  0
 26 25  2  0  0  0  0
 27 22  2  0  0  0  0
 27 26  1  0  0  0  0
 30 26  1  0  0  0  0
 31 27  1  0  0  0  0
 32 33  1  0  0  0  0
 32 31  2  0  0  0  0
 34 35  1  0  0  0  0
 34 32  1  0  0  0  0
 35 37  2  0  0  0  0
 36 35  1  0  0  0  0
 37 31  1  0  0  0  0
M  END
>  <minimizedAffinity>
-5.58845758

>  <minimizedRMSD>
0.0226534475

$$$$
