
 OpenBabel03262523433D

 26 28  0  0  0  0  0  0  0  0999 V2000
   38.0430   33.3190   49.6370 Cl  0  0  0  0  0  0  0  0  0  0  0  0
   38.4620   32.4540   48.1760 C   0  0  0  0  0  0  0  0  0  0  0  0
   38.0400   31.1410   47.9920 C   0  0  0  0  0  0  0  0  0  0  0  0
   38.4180   30.5520   46.8180 C   0  0  0  0  0  0  0  0  0  0  0  0
   39.1630   31.1520   45.8400 C   0  0  0  0  0  0  0  0  0  0  0  0
   39.5560   32.4710   46.0850 C   0  0  0  0  0  0  0  0  0  0  0  0
   40.5130   33.2600   44.8390 Cl  0  0  0  0  0  0  0  0  0  0  0  0
   39.2140   33.1400   47.2480 C   0  0  0  0  0  0  0  0  0  0  0  0
   38.0690   29.5250   46.7100 H   0  0  0  0  0  0  0  0  0  0  0  0
   39.5500   34.1530   47.3720 H   0  0  0  0  0  0  0  0  0  0  0  0
   37.0820   29.3760   51.1930 C   0  0  0  0  0  0  0  0  0  0  0  0
   37.8320   29.9690   50.1660 C   0  0  0  0  0  0  0  0  0  0  0  0
   37.2520   30.5310   49.0450 C   0  0  0  0  0  0  0  0  0  0  0  0
   35.9080   30.4690   49.0050 N   0  0  0  0  0  0  0  0  0  0  0  0
   35.1790   29.9040   49.9810 C   0  0  0  0  0  0  0  0  0  0  0  0
   35.7530   29.3680   51.0540 N   0  0  0  0  0  0  0  0  0  0  0  0
   37.7070   28.9920   51.9840 H   0  0  0  0  0  0  0  0  0  0  0  0
   38.9290   30.0220   50.1930 H   0  0  0  0  0  0  0  0  0  0  0  0
   34.0860   29.8450   49.9650 H   0  0  0  0  0  0  0  0  0  0  0  0
   39.5340   30.4570   44.6000 C   0  0  0  0  0  0  0  0  0  0  0  0
   40.6500   30.8720   43.8540 C   0  0  0  0  0  0  0  0  0  0  0  0
   41.3460   31.7020   44.0660 H   0  0  0  0  0  0  0  0  0  0  0  0
   40.6530   29.6840   42.4340 S   0  0  0  0  0  0  0  0  0  0  0  0
   39.1100   28.8260   43.1290 C   0  0  0  0  0  0  0  0  0  0  0  0
   38.4900   27.9340   42.7560 H   0  0  0  0  0  0  0  0  0  0  0  0
   38.8930   29.4170   44.0760 N   0  0  0  0  0  0  0  0  0  0  0  0
  2  1  1  0  0  0  0
  3  2  1  0  0  0  0
  3 13  1  0  0  0  0
  4  3  2  0  0  0  0
  5  6  2  0  0  0  0
  5  4  1  0  0  0  0
  6  8  1  0  0  0  0
  7  6  1  0  0  0  0
  8 10  1  0  0  0  0
  8  2  2  0  0  0  0
  9  4  1  0  0  0  0
 11 17  1  0  0  0  0
 12 18  1  0  0  0  0
 12 11  2  0  0  0  0
 13 12  1  0  0  0  0
 14 13  2  0  0  0  0
 14 15  1  0  0  0  0
 15 16  2  0  0  0  0
 16 11  1  0  0  0  0
 19 15  1  0  0  0  0
 20  5  1  0  0  0  0
 21 22  1  0  0  0  0
 21 20  2  0  0  0  0
 23 24  1  0  0  0  0
 23 21  1  0  0  0  0
 24 26  2  0  0  0  0
 25 24  1  0  0  0  0
 26 20  1  0  0  0  0
M  END
>  <minimizedAffinity>
-6.39052582

>  <minimizedRMSD>
0.348241776

$$$$
