
 OpenBabel03272510203D

 34 37  0  0  0  0  0  0  0  0999 V2000
   37.4590   29.1930   50.8470 Br  0  0  0  0  0  0  0  0  0  0  0  0
   36.0420   29.2890   49.5780 C   0  0  0  0  0  0  0  0  0  0  0  0
   36.0180   30.2860   48.6100 C   0  0  0  0  0  0  0  0  0  0  0  0
   34.9640   30.2900   47.7300 C   0  0  0  0  0  0  0  0  0  0  0  0
   33.9370   29.3640   47.7580 C   0  0  0  0  0  0  0  0  0  0  0  0
   33.9950   28.3910   48.7310 C   0  0  0  0  0  0  0  0  0  0  0  0
   35.0400   28.3620   49.6270 C   0  0  0  0  0  0  0  0  0  0  0  0
   34.9020   31.0460   46.9610 H   0  0  0  0  0  0  0  0  0  0  0  0
   33.2220   27.6330   48.8090 H   0  0  0  0  0  0  0  0  0  0  0  0
   35.0480   27.5790   50.3780 H   0  0  0  0  0  0  0  0  0  0  0  0
   38.0340   33.1980   49.4560 C   0  0  0  0  0  0  0  0  0  0  0  0
   39.0470   33.1940   48.4630 C   0  0  0  0  0  0  0  0  0  0  0  0
   39.0190   32.1910   47.5200 C   0  0  0  0  0  0  0  0  0  0  0  0
   38.0280   31.2610   47.5900 N   0  0  0  0  0  0  0  0  0  0  0  0
   37.0700   31.2790   48.5410 C   0  0  0  0  0  0  0  0  0  0  0  0
   37.0870   32.2590   49.4720 N   0  0  0  0  0  0  0  0  0  0  0  0
   38.1180   34.0140   50.1630 H   0  0  0  0  0  0  0  0  0  0  0  0
   39.8460   33.9050   48.3700 H   0  0  0  0  0  0  0  0  0  0  0  0
   39.6840   32.0190   46.7060 H   0  0  0  0  0  0  0  0  0  0  0  0
   32.8290   29.3680   46.8330 C   0  0  0  0  0  0  0  0  0  0  0  0
   31.8720   28.3710   46.7420 C   0  0  0  0  0  0  0  0  0  0  0  0
   30.8200   28.4010   45.8470 C   0  0  0  0  0  0  0  0  0  0  0  0
   30.7160   29.4540   45.0160 N   0  0  0  0  0  0  0  0  0  0  0  0
   31.6330   30.4290   45.0880 C   0  0  0  0  0  0  0  0  0  0  0  0
   32.6490   30.3750   45.9710 N   0  0  0  0  0  0  0  0  0  0  0  0
   31.9620   27.5160   47.4240 H   0  0  0  0  0  0  0  0  0  0  0  0
   30.1370   27.5730   45.8650 H   0  0  0  0  0  0  0  0  0  0  0  0
   31.4230   31.5230   44.1380 C   0  0  0  0  0  0  0  0  0  0  0  0
   30.0480   31.9920   44.2460 C   0  0  0  0  0  0  0  0  0  0  0  0
   29.1550   31.7580   44.8260 H   0  0  0  0  0  0  0  0  0  0  0  0
   29.9750   33.3790   42.9620 S   0  0  0  0  0  0  0  0  0  0  0  0
   31.8000   33.0450   42.5440 C   0  0  0  0  0  0  0  0  0  0  0  0
   32.7430   33.3700   41.8570 H   0  0  0  0  0  0  0  0  0  0  0  0
   32.0860   32.2040   43.2260 N   0  0  0  0  0  0  0  0  0  0  0  0
  2  7  1  0  0  0  0
  2  1  1  0  0  0  0
  3  2  2  0  0  0  0
  4  5  2  0  0  0  0
  4  3  1  0  0  0  0
  5  6  1  0  0  0  0
  6  9  1  0  0  0  0
  6  7  2  0  0  0  0
  7 10  1  0  0  0  0
  8  4  1  0  0  0  0
 11 16  1  0  0  0  0
 11 17  1  0  0  0  0
 12 11  2  0  0  0  0
 13 14  2  0  0  0  0
 13 12  1  0  0  0  0
 14 15  1  0  0  0  0
 15  3  1  0  0  0  0
 15 16  2  0  0  0  0
 18 12  1  0  0  0  0
 19 13  1  0  0  0  0
 20  5  1  0  0  0  0
 21 20  1  0  0  0  0
 21 26  1  0  0  0  0
 22 27  1  0  0  0  0
 22 21  2  0  0  0  0
 23 24  2  0  0  0  0
 23 22  1  0  0  0  0
 24 25  1  0  0  0  0
 25 20  2  0  0  0  0
 28 29  2  0  0  0  0
 28 24  1  0  0  0  0
 29 30  1  0  0  0  0
 31 29  1  0  0  0  0
 32 31  1  0  0  0  0
 32 34  2  0  0  0  0
 33 32  1  0  0  0  0
 34 28  1  0  0  0  0
M  END
>  <minimizedAffinity>
-6.1780715

>  <minimizedRMSD>
0.510005593

$$$$
