
 OpenBabel03272508113D

 32 34  0  0  0  0  0  0  0  0999 V2000
   36.6380   29.5970   44.1080 Cl  0  0  0  0  0  0  0  0  0  0  0  0
   38.2830   29.9430   43.5140 C   0  0  0  0  0  0  0  0  0  0  0  0
   39.3120   30.3840   44.3290 C   0  0  0  0  0  0  0  0  0  0  0  0
   40.5280   30.6090   43.7230 C   0  0  0  0  0  0  0  0  0  0  0  0
   40.7310   30.4140   42.3840 C   0  0  0  0  0  0  0  0  0  0  0  0
   39.7210   29.9830   41.5890 C   0  0  0  0  0  0  0  0  0  0  0  0
   38.4760   29.7390   42.1390 C   0  0  0  0  0  0  0  0  0  0  0  0
   41.2900   30.9500   44.4090 H   0  0  0  0  0  0  0  0  0  0  0  0
   41.7270   30.6240   42.0210 H   0  0  0  0  0  0  0  0  0  0  0  0
   39.9000   29.8350   40.5370 H   0  0  0  0  0  0  0  0  0  0  0  0
   37.3500   29.2660   41.2960 C   0  0  0  0  0  0  0  0  0  0  0  0
   37.1970   27.9060   41.0480 C   0  0  0  0  0  0  0  0  0  0  0  0
   37.7530   27.0050   41.3490 H   0  0  0  0  0  0  0  0  0  0  0  0
   35.6560   27.8610   39.9530 S   0  0  0  0  0  0  0  0  0  0  0  0
   35.5460   29.7500   40.0690 C   0  0  0  0  0  0  0  0  0  0  0  0
   34.8270   30.6060   39.6470 H   0  0  0  0  0  0  0  0  0  0  0  0
   36.4250   30.0160   40.7170 N   0  0  0  0  0  0  0  0  0  0  0  0
   38.9300   30.5220   45.6340 O   0  0  0  0  0  0  0  0  0  0  0  0
   39.4770   32.5250   47.1650 O   0  0  0  0  0  0  0  0  0  0  0  0
   38.3530   31.8740   46.4400 P   0  0  1  0  0  0  0  0  0  0  0  0
   37.7870   32.9100   45.2060 O   0  0  0  0  0  0  0  0  0  0  0  0
   38.5830   33.3790   44.8180 H   0  0  0  0  0  0  0  0  0  0  0  0
   37.0600   31.4230   47.4380 O   0  0  0  0  0  0  0  0  0  0  0  0
   37.6120   30.5320   50.9800 C   0  0  0  0  0  0  0  0  0  0  0  0
   37.7190   31.3100   49.8260 C   0  0  0  0  0  0  0  0  0  0  0  0
   37.0940   30.8500   48.6600 C   0  0  0  0  0  0  0  0  0  0  0  0
   36.4150   29.6660   48.7230 N   0  0  0  0  0  0  0  0  0  0  0  0
   36.3330   28.9420   49.8580 C   0  0  0  0  0  0  0  0  0  0  0  0
   36.9300   29.3760   50.9810 N   0  0  0  0  0  0  0  0  0  0  0  0
   38.1250   30.9780   51.8040 H   0  0  0  0  0  0  0  0  0  0  0  0
   38.2270   32.2350   49.7040 H   0  0  0  0  0  0  0  0  0  0  0  0
   35.7950   28.0040   49.9060 H   0  0  0  0  0  0  0  0  0  0  0  0
  2  1  1  0  0  0  0
  2  3  1  0  0  0  0
  3 18  1  0  0  0  0
  4  3  2  0  0  0  0
  4  8  1  0  0  0  0
  5  4  1  0  0  0  0
  6  7  1  0  0  0  0
  6  5  2  0  0  0  0
  7  2  2  0  0  0  0
  9  5  1  0  0  0  0
 10  6  1  0  0  0  0
 11  7  1  0  0  0  0
 12 11  2  0  0  0  0
 12 13  1  0  0  0  0
 14 15  1  0  0  0  0
 14 12  1  0  0  0  0
 15 17  2  0  0  0  0
 16 15  1  0  0  0  0
 17 11  1  0  0  0  0
 18 20  1  0  0  0  0
 20 19  2  1  0  0  0
 20 23  1  0  0  0  0
 21 20  1  0  0  0  0
 22 21  1  0  0  0  0
 23 26  1  0  0  0  0
 24 29  1  0  0  0  0
 24 30  1  0  0  0  0
 25 24  2  0  0  0  0
 26 27  2  0  0  0  0
 26 25  1  0  0  0  0
 27 28  1  0  0  0  0
 28 32  1  0  0  0  0
 28 29  2  0  0  0  0
 31 25  1  0  0  0  0
M  END
>  <minimizedAffinity>
-4.81883287

>  <minimizedRMSD>
0.607976973

$$$$
