
 OpenBabel03262523103D

 18 19  0  0  0  0  0  0  0  0999 V2000
   39.6520   22.7490   37.6320 C   0  0  0  0  0  0  0  0  0  0  0  0
   38.9380   23.3380   38.6990 C   0  0  0  0  0  0  0  0  0  0  0  0
   37.9800   24.2900   38.3900 C   0  0  0  0  0  0  0  0  0  0  0  0
   37.7800   24.6050   37.0900 N   0  0  0  0  0  0  0  0  0  0  0  0
   38.4730   24.0310   36.0770 C   0  0  0  0  0  0  0  0  0  0  0  0
   39.3970   23.1140   36.3700 N   0  0  0  0  0  0  0  0  0  0  0  0
   39.1580   23.0340   39.6900 H   0  0  0  0  0  0  0  0  0  0  0  0
   37.4110   24.7650   39.1920 H   0  0  0  0  0  0  0  0  0  0  0  0
   38.1600   24.4620   34.6950 C   0  0  0  0  0  0  0  0  0  0  0  0
   37.7100   25.8090   34.5930 C   0  0  0  0  0  0  0  0  0  0  0  0
   37.5500   26.6080   35.3720 H   0  0  0  0  0  0  0  0  0  0  0  0
   37.4030   26.0730   32.8350 S   0  0  0  0  0  0  0  0  0  0  0  0
   37.9340   24.2930   32.4700 C   0  0  0  0  0  0  0  0  0  0  0  0
   38.0980   23.4550   31.6220 H   0  0  0  0  0  0  0  0  0  0  0  0
   38.1830   23.9240   33.4980 N   0  0  0  0  0  0  0  0  0  0  0  0
   40.6610   21.7580   37.8410 N   0  0  0  0  0  0  0  0  0  0  0  0
   40.4450   20.7990   37.5120 H   0  0  0  0  0  0  0  0  0  0  0  0
   41.4990   22.1470   38.3080 H   0  0  0  0  0  0  0  0  0  0  0  0
  1 16  1  0  0  0  0
  1  2  1  0  0  0  0
  2  7  1  0  0  0  0
  3  2  2  0  0  0  0
  3  8  1  0  0  0  0
  4  3  1  0  0  0  0
  5  6  1  0  0  0  0
  5  4  2  0  0  0  0
  6  1  2  0  0  0  0
  9  5  1  0  0  0  0
 10  9  2  0  0  0  0
 10 11  1  0  0  0  0
 12 10  1  0  0  0  0
 13 12  1  0  0  0  0
 13 15  2  0  0  0  0
 14 13  1  0  0  0  0
 15  9  1  0  0  0  0
 16 18  1  0  0  0  0
 17 16  1  0  0  0  0
M  END
>  <minimizedAffinity>
-4.19871807

$$$$

 OpenBabel03262523103D

 18 19  0  0  0  0  0  0  0  0999 V2000
   39.1560   23.0980   37.8020 C   0  0  0  0  0  0  0  0  0  0  0  0
   40.4160   22.6310   37.3670 C   0  0  0  0  0  0  0  0  0  0  0  0
   40.8900   23.0880   36.1480 C   0  0  0  0  0  0  0  0  0  0  0  0
   40.1260   23.9520   35.4410 N   0  0  0  0  0  0  0  0  0  0  0  0
   38.9190   24.3910   35.8730 C   0  0  0  0  0  0  0  0  0  0  0  0
   38.4580   23.9540   37.0460 N   0  0  0  0  0  0  0  0  0  0  0  0
   40.9510   21.9540   37.9820 H   0  0  0  0  0  0  0  0  0  0  0  0
   41.8600   22.7460   35.7820 H   0  0  0  0  0  0  0  0  0  0  0  0
   38.1790   25.3380   35.0070 C   0  0  0  0  0  0  0  0  0  0  0  0
   37.8980   26.5910   35.6210 C   0  0  0  0  0  0  0  0  0  0  0  0
   38.1370   26.9940   36.6460 H   0  0  0  0  0  0  0  0  0  0  0  0
   37.0050   27.5400   34.3740 S   0  0  0  0  0  0  0  0  0  0  0  0
   37.1330   26.0850   33.1680 C   0  0  0  0  0  0  0  0  0  0  0  0
   36.8680   25.6750   32.0690 H   0  0  0  0  0  0  0  0  0  0  0  0
   37.6930   25.3370   33.7870 N   0  0  0  0  0  0  0  0  0  0  0  0
   38.5760   22.6890   39.0430 N   0  0  0  0  0  0  0  0  0  0  0  0
   38.4940   23.4140   39.7790 H   0  0  0  0  0  0  0  0  0  0  0  0
   38.3050   21.6900   39.0360 H   0  0  0  0  0  0  0  0  0  0  0  0
  1 16  1  0  0  0  0
  2  1  1  0  0  0  0
  2  7  1  0  0  0  0
  3  2  2  0  0  0  0
  4  5  2  0  0  0  0
  4  3  1  0  0  0  0
  5  6  1  0  0  0  0
  6  1  2  0  0  0  0
  8  3  1  0  0  0  0
  9 10  2  0  0  0  0
  9  5  1  0  0  0  0
 10 11  1  0  0  0  0
 12 10  1  0  0  0  0
 13 15  2  0  0  0  0
 13 12  1  0  0  0  0
 14 13  1  0  0  0  0
 15  9  1  0  0  0  0
 16 17  1  0  0  0  0
 18 16  1  0  0  0  0
M  END
>  <minimizedAffinity>
-3.95212245

$$$$

 OpenBabel03262523103D

 18 19  0  0  0  0  0  0  0  0999 V2000
   38.9400   26.9390   35.1690 C   0  0  0  0  0  0  0  0  0  0  0  0
   40.2770   26.6770   34.7980 C   0  0  0  0  0  0  0  0  0  0  0  0
   40.4970   25.9290   33.6520 C   0  0  0  0  0  0  0  0  0  0  0  0
   39.4250   25.4900   32.9530 N   0  0  0  0  0  0  0  0  0  0  0  0
   38.1480   25.7500   33.3220 C   0  0  0  0  0  0  0  0  0  0  0  0
   37.9310   26.4700   34.4240 N   0  0  0  0  0  0  0  0  0  0  0  0
   41.0600   27.0580   35.4020 H   0  0  0  0  0  0  0  0  0  0  0  0
   41.5190   25.7070   33.3370 H   0  0  0  0  0  0  0  0  0  0  0  0
   37.0600   25.2140   32.4710 C   0  0  0  0  0  0  0  0  0  0  0  0
   36.2410   26.2140   31.8750 C   0  0  0  0  0  0  0  0  0  0  0  0
   36.2690   27.3390   31.9320 H   0  0  0  0  0  0  0  0  0  0  0  0
   35.0160   25.3080   30.9080 S   0  0  0  0  0  0  0  0  0  0  0  0
   35.7930   23.6690   31.4520 C   0  0  0  0  0  0  0  0  0  0  0  0
   35.7450   22.4690   31.3770 H   0  0  0  0  0  0  0  0  0  0  0  0
   36.6300   24.0290   32.1040 N   0  0  0  0  0  0  0  0  0  0  0  0
   38.6040   27.6990   36.3310 N   0  0  0  0  0  0  0  0  0  0  0  0
   38.1720   28.6280   36.1700 H   0  0  0  0  0  0  0  0  0  0  0  0
   38.8450   27.2010   37.2060 H   0  0  0  0  0  0  0  0  0  0  0  0
  1 16  1  0  0  0  0
  2  1  1  0  0  0  0
  2  7  1  0  0  0  0
  3  2  2  0  0  0  0
  4  5  2  0  0  0  0
  4  3  1  0  0  0  0
  5  6  1  0  0  0  0
  6  1  2  0  0  0  0
  8  3  1  0  0  0  0
  9  5  1  0  0  0  0
 10 11  1  0  0  0  0
 10  9  2  0  0  0  0
 12 13  1  0  0  0  0
 12 10  1  0  0  0  0
 13 15  2  0  0  0  0
 14 13  1  0  0  0  0
 15  9  1  0  0  0  0
 16 18  1  0  0  0  0
 17 16  1  0  0  0  0
M  END
>  <minimizedAffinity>
-3.80933547

$$$$

 OpenBabel03262523103D

 18 19  0  0  0  0  0  0  0  0999 V2000
   35.8880   21.0590   35.9480 C   0  0  0  0  0  0  0  0  0  0  0  0
   35.5180   20.6630   34.6440 C   0  0  0  0  0  0  0  0  0  0  0  0
   36.3690   20.9940   33.6010 C   0  0  0  0  0  0  0  0  0  0  0  0
   37.5030   21.6740   33.8850 N   0  0  0  0  0  0  0  0  0  0  0  0
   37.8440   22.0470   35.1420 C   0  0  0  0  0  0  0  0  0  0  0  0
   37.0290   21.7320   36.1490 N   0  0  0  0  0  0  0  0  0  0  0  0
   34.6110   20.1330   34.5090 H   0  0  0  0  0  0  0  0  0  0  0  0
   36.1120   20.7030   32.5810 H   0  0  0  0  0  0  0  0  0  0  0  0
   39.1140   22.7890   35.3210 C   0  0  0  0  0  0  0  0  0  0  0  0
   40.0760   22.1090   36.1210 C   0  0  0  0  0  0  0  0  0  0  0  0
   40.0480   21.1100   36.6420 H   0  0  0  0  0  0  0  0  0  0  0  0
   41.5040   23.2110   36.1810 S   0  0  0  0  0  0  0  0  0  0  0  0
   40.5880   24.4640   35.0960 C   0  0  0  0  0  0  0  0  0  0  0  0
   40.6390   25.5340   34.5480 H   0  0  0  0  0  0  0  0  0  0  0  0
   39.6110   23.9390   34.9330 N   0  0  0  0  0  0  0  0  0  0  0  0
   35.0830   20.7700   37.0940 N   0  0  0  0  0  0  0  0  0  0  0  0
   35.4700   20.0900   37.7740 H   0  0  0  0  0  0  0  0  0  0  0  0
   34.1930   21.2980   37.0870 H   0  0  0  0  0  0  0  0  0  0  0  0
  1  6  1  0  0  0  0
  1 16  1  0  0  0  0
  2  1  2  0  0  0  0
  3  4  2  0  0  0  0
  3  2  1  0  0  0  0
  4  5  1  0  0  0  0
  5  9  1  0  0  0  0
  5  6  2  0  0  0  0
  7  2  1  0  0  0  0
  8  3  1  0  0  0  0
  9 10  2  0  0  0  0
 10 12  1  0  0  0  0
 10 11  1  0  0  0  0
 13 12  1  0  0  0  0
 14 13  1  0  0  0  0
 15 13  2  0  0  0  0
 15  9  1  0  0  0  0
 16 17  1  0  0  0  0
 18 16  1  0  0  0  0
M  END
>  <minimizedAffinity>
-3.73402762

$$$$

 OpenBabel03262523103D

 18 19  0  0  0  0  0  0  0  0999 V2000
   39.5300   22.7020   37.5610 C   0  0  0  0  0  0  0  0  0  0  0  0
   40.8960   22.4570   37.2970 C   0  0  0  0  0  0  0  0  0  0  0  0
   41.2610   22.1730   35.9910 C   0  0  0  0  0  0  0  0  0  0  0  0
   40.2980   22.1450   35.0430 N   0  0  0  0  0  0  0  0  0  0  0  0
   38.9920   22.3820   35.3120 C   0  0  0  0  0  0  0  0  0  0  0  0
   38.6340   22.6560   36.5680 N   0  0  0  0  0  0  0  0  0  0  0  0
   41.5870   22.4980   38.0990 H   0  0  0  0  0  0  0  0  0  0  0  0
   42.3090   21.9780   35.7530 H   0  0  0  0  0  0  0  0  0  0  0  0
   38.0320   22.3220   34.1850 C   0  0  0  0  0  0  0  0  0  0  0  0
   38.1010   23.4370   33.3020 C   0  0  0  0  0  0  0  0  0  0  0  0
   38.7530   24.3570   33.3040 H   0  0  0  0  0  0  0  0  0  0  0  0
   36.8510   23.1200   32.0410 S   0  0  0  0  0  0  0  0  0  0  0  0
   36.3950   21.4920   32.8950 C   0  0  0  0  0  0  0  0  0  0  0  0
   35.6890   20.5190   32.8740 H   0  0  0  0  0  0  0  0  0  0  0  0
   37.1040   21.4950   33.7630 N   0  0  0  0  0  0  0  0  0  0  0  0
   39.0460   23.0040   38.8720 N   0  0  0  0  0  0  0  0  0  0  0  0
   38.6910   23.9660   39.0270 H   0  0  0  0  0  0  0  0  0  0  0  0
   39.1180   22.1920   39.5100 H   0  0  0  0  0  0  0  0  0  0  0  0
  1 16  1  0  0  0  0
  2  1  1  0  0  0  0
  2  7  1  0  0  0  0
  3  2  2  0  0  0  0
  4  5  2  0  0  0  0
  4  3  1  0  0  0  0
  5  6  1  0  0  0  0
  6  1  2  0  0  0  0
  8  3  1  0  0  0  0
  9  5  1  0  0  0  0
 10 11  1  0  0  0  0
 10  9  2  0  0  0  0
 12 13  1  0  0  0  0
 12 10  1  0  0  0  0
 13 15  2  0  0  0  0
 14 13  1  0  0  0  0
 15  9  1  0  0  0  0
 16 17  1  0  0  0  0
 16 18  1  0  0  0  0
M  END
>  <minimizedAffinity>
-3.62996507

$$$$

 OpenBabel03262523103D

 18 19  0  0  0  0  0  0  0  0999 V2000
   36.9250   27.2960   34.2520 C   0  0  0  0  0  0  0  0  0  0  0  0
   37.1180   26.8030   32.9430 C   0  0  0  0  0  0  0  0  0  0  0  0
   37.7140   25.5600   32.8010 C   0  0  0  0  0  0  0  0  0  0  0  0
   38.0790   24.8880   33.9160 N   0  0  0  0  0  0  0  0  0  0  0  0
   37.8860   25.3750   35.1660 C   0  0  0  0  0  0  0  0  0  0  0  0
   37.3130   26.5710   35.3080 N   0  0  0  0  0  0  0  0  0  0  0  0
   36.8040   27.3940   32.1220 H   0  0  0  0  0  0  0  0  0  0  0  0
   37.8790   25.1500   31.8020 H   0  0  0  0  0  0  0  0  0  0  0  0
   38.3290   24.5410   36.3080 C   0  0  0  0  0  0  0  0  0  0  0  0
   39.4690   23.7340   36.0310 C   0  0  0  0  0  0  0  0  0  0  0  0
   40.0960   23.6140   35.1020 H   0  0  0  0  0  0  0  0  0  0  0  0
   39.7930   22.8340   37.5600 S   0  0  0  0  0  0  0  0  0  0  0  0
   38.3150   23.6870   38.3820 C   0  0  0  0  0  0  0  0  0  0  0  0
   37.6600   23.8000   39.3840 H   0  0  0  0  0  0  0  0  0  0  0  0
   37.9450   24.3350   37.5460 N   0  0  0  0  0  0  0  0  0  0  0  0
   36.3200   28.5660   34.5100 N   0  0  0  0  0  0  0  0  0  0  0  0
   35.3850   28.5530   34.9590 H   0  0  0  0  0  0  0  0  0  0  0  0
   36.9200   29.3520   34.2040 H   0  0  0  0  0  0  0  0  0  0  0  0
  1 16  1  0  0  0  0
  1  6  1  0  0  0  0
  2  1  2  0  0  0  0
  3  2  1  0  0  0  0
  3  4  2  0  0  0  0
  4  5  1  0  0  0  0
  5  6  2  0  0  0  0
  5  9  1  0  0  0  0
  7  2  1  0  0  0  0
  8  3  1  0  0  0  0
  9 15  1  0  0  0  0
 10  9  2  0  0  0  0
 10 12  1  0  0  0  0
 11 10  1  0  0  0  0
 12 13  1  0  0  0  0
 13 14  1  0  0  0  0
 15 13  2  0  0  0  0
 16 17  1  0  0  0  0
 18 16  1  0  0  0  0
M  END
>  <minimizedAffinity>
-3.57235169

$$$$

 OpenBabel03262523103D

 18 19  0  0  0  0  0  0  0  0999 V2000
   38.3370   23.3590   37.4320 C   0  0  0  0  0  0  0  0  0  0  0  0
   38.1130   24.7520   37.3830 C   0  0  0  0  0  0  0  0  0  0  0  0
   37.9490   25.3380   36.1380 C   0  0  0  0  0  0  0  0  0  0  0  0
   38.0110   24.5500   35.0410 N   0  0  0  0  0  0  0  0  0  0  0  0
   38.2270   23.2140   35.1040 C   0  0  0  0  0  0  0  0  0  0  0  0
   38.3860   22.6450   36.3000 N   0  0  0  0  0  0  0  0  0  0  0  0
   38.0780   25.2960   38.2910 H   0  0  0  0  0  0  0  0  0  0  0  0
   37.7740   26.4130   36.0650 H   0  0  0  0  0  0  0  0  0  0  0  0
   38.2740   22.4600   33.8300 C   0  0  0  0  0  0  0  0  0  0  0  0
   37.4350   22.9920   32.8090 C   0  0  0  0  0  0  0  0  0  0  0  0
   36.7430   23.8810   32.7930 H   0  0  0  0  0  0  0  0  0  0  0  0
   37.6760   21.9070   31.3870 S   0  0  0  0  0  0  0  0  0  0  0  0
   38.9000   20.8620   32.3850 C   0  0  0  0  0  0  0  0  0  0  0  0
   39.6330   19.9090   32.3800 H   0  0  0  0  0  0  0  0  0  0  0  0
   38.8970   21.4010   33.3680 N   0  0  0  0  0  0  0  0  0  0  0  0
   38.5200   22.6550   38.6630 N   0  0  0  0  0  0  0  0  0  0  0  0
   37.7670   21.9980   38.9390 H   0  0  0  0  0  0  0  0  0  0  0  0
   39.4100   22.9080   39.1270 H   0  0  0  0  0  0  0  0  0  0  0  0
  1 16  1  0  0  0  0
  2  1  1  0  0  0  0
  2  7  1  0  0  0  0
  3  2  2  0  0  0  0
  4  5  2  0  0  0  0
  4  3  1  0  0  0  0
  5  6  1  0  0  0  0
  6  1  2  0  0  0  0
  8  3  1  0  0  0  0
  9  5  1  0  0  0  0
 10  9  2  0  0  0  0
 11 10  1  0  0  0  0
 12 13  1  0  0  0  0
 12 10  1  0  0  0  0
 13 15  2  0  0  0  0
 14 13  1  0  0  0  0
 15  9  1  0  0  0  0
 16 17  1  0  0  0  0
 16 18  1  0  0  0  0
M  END
>  <minimizedAffinity>
-3.54470873

$$$$

 OpenBabel03262523103D

 18 19  0  0  0  0  0  0  0  0999 V2000
   36.0720   25.1330   31.1900 C   0  0  0  0  0  0  0  0  0  0  0  0
   36.9820   25.5440   32.1890 C   0  0  0  0  0  0  0  0  0  0  0  0
   37.5800   24.5610   32.9630 C   0  0  0  0  0  0  0  0  0  0  0  0
   37.2640   23.2690   32.7230 N   0  0  0  0  0  0  0  0  0  0  0  0
   36.3890   22.8910   31.7590 C   0  0  0  0  0  0  0  0  0  0  0  0
   35.8100   23.8320   31.0120 N   0  0  0  0  0  0  0  0  0  0  0  0
   37.1740   26.5780   32.3120 H   0  0  0  0  0  0  0  0  0  0  0  0
   38.2870   24.8450   33.7450 H   0  0  0  0  0  0  0  0  0  0  0  0
   36.1270   21.4420   31.5940 C   0  0  0  0  0  0  0  0  0  0  0  0
   35.3140   20.8780   32.6190 C   0  0  0  0  0  0  0  0  0  0  0  0
   34.8350   21.3320   33.5320 H   0  0  0  0  0  0  0  0  0  0  0  0
   35.1520   19.1340   32.1860 S   0  0  0  0  0  0  0  0  0  0  0  0
   36.2260   19.4100   30.6500 C   0  0  0  0  0  0  0  0  0  0  0  0
   36.7290   18.9050   29.6820 H   0  0  0  0  0  0  0  0  0  0  0  0
   36.4490   20.5050   30.7340 N   0  0  0  0  0  0  0  0  0  0  0  0
   35.4010   26.0630   30.3370 N   0  0  0  0  0  0  0  0  0  0  0  0
   35.6690   26.0540   29.3360 H   0  0  0  0  0  0  0  0  0  0  0  0
   34.7140   26.6400   30.8550 H   0  0  0  0  0  0  0  0  0  0  0  0
  1  2  1  0  0  0  0
  2  7  1  0  0  0  0
  2  3  2  0  0  0  0
  3  8  1  0  0  0  0
  4  3  1  0  0  0  0
  5  4  2  0  0  0  0
  6  1  2  0  0  0  0
  6  5  1  0  0  0  0
  9  5  1  0  0  0  0
  9 10  2  0  0  0  0
 10 11  1  0  0  0  0
 12 10  1  0  0  0  0
 13 15  2  0  0  0  0
 13 12  1  0  0  0  0
 14 13  1  0  0  0  0
 15  9  1  0  0  0  0
 16 18  1  0  0  0  0
 16  1  1  0  0  0  0
 17 16  1  0  0  0  0
M  END
>  <minimizedAffinity>
-3.52674532

$$$$

 OpenBabel03262523103D

 18 19  0  0  0  0  0  0  0  0999 V2000
   35.5320   19.7470   31.5340 C   0  0  0  0  0  0  0  0  0  0  0  0
   36.7790   19.1800   31.1910 C   0  0  0  0  0  0  0  0  0  0  0  0
   37.8090   20.0410   30.8470 C   0  0  0  0  0  0  0  0  0  0  0  0
   37.5680   21.3720   30.8570 N   0  0  0  0  0  0  0  0  0  0  0  0
   36.3660   21.9010   31.1880 C   0  0  0  0  0  0  0  0  0  0  0  0
   35.3710   21.0770   31.5200 N   0  0  0  0  0  0  0  0  0  0  0  0
   36.8830   18.1260   31.2090 H   0  0  0  0  0  0  0  0  0  0  0  0
   38.7860   19.6350   30.5760 H   0  0  0  0  0  0  0  0  0  0  0  0
   36.2290   23.3750   31.1610 C   0  0  0  0  0  0  0  0  0  0  0  0
   37.4690   24.0760   31.2000 C   0  0  0  0  0  0  0  0  0  0  0  0
   38.5340   23.7120   31.2480 H   0  0  0  0  0  0  0  0  0  0  0  0
   37.0260   25.8240   31.1580 S   0  0  0  0  0  0  0  0  0  0  0  0
   35.1900   25.3620   31.0920 C   0  0  0  0  0  0  0  0  0  0  0  0
   34.0600   25.7720   31.0410 H   0  0  0  0  0  0  0  0  0  0  0  0
   35.2460   24.2430   31.1100 N   0  0  0  0  0  0  0  0  0  0  0  0
   34.4040   18.9500   31.9040 N   0  0  0  0  0  0  0  0  0  0  0  0
   34.0940   19.0140   32.8910 H   0  0  0  0  0  0  0  0  0  0  0  0
   34.0380   18.4000   31.1070 H   0  0  0  0  0  0  0  0  0  0  0  0
  1 16  1  0  0  0  0
  2  7  1  0  0  0  0
  2  1  2  0  0  0  0
  3  4  2  0  0  0  0
  3  2  1  0  0  0  0
  4  5  1  0  0  0  0
  5  6  2  0  0  0  0
  6  1  1  0  0  0  0
  8  3  1  0  0  0  0
  9  5  1  0  0  0  0
  9 10  2  0  0  0  0
 10 11  1  0  0  0  0
 12 10  1  0  0  0  0
 13 15  2  0  0  0  0
 13 12  1  0  0  0  0
 14 13  1  0  0  0  0
 15  9  1  0  0  0  0
 16 17  1  0  0  0  0
 18 16  1  0  0  0  0
M  END
>  <minimizedAffinity>
-3.49873209

$$$$
