
 OpenBabel03272505123D

 37 40  0  0  0  0  0  0  0  0999 V2000
   36.4020   30.9040   45.7080 Cl  0  0  0  0  0  0  0  0  0  0  0  0
   36.6870   30.7780   47.4200 C   0  0  0  0  0  0  0  0  0  0  0  0
   37.9480   31.1090   47.8790 C   0  0  0  0  0  0  0  0  0  0  0  0
   38.1840   31.0110   49.2350 C   0  0  0  0  0  0  0  0  0  0  0  0
   37.1830   30.5960   50.0810 C   0  0  0  0  0  0  0  0  0  0  0  0
   35.9280   30.2760   49.5520 C   0  0  0  0  0  0  0  0  0  0  0  0
   35.6310   30.3520   48.2170 C   0  0  0  0  0  0  0  0  0  0  0  0
   39.1500   31.2610   49.6120 H   0  0  0  0  0  0  0  0  0  0  0  0
   37.3730   30.5220   51.1420 H   0  0  0  0  0  0  0  0  0  0  0  0
   35.1660   29.9540   50.2480 H   0  0  0  0  0  0  0  0  0  0  0  0
   40.2100   33.3240   46.0750 C   0  0  0  0  0  0  0  0  0  0  0  0
   40.9250   32.4570   45.2120 C   0  0  0  0  0  0  0  0  0  0  0  0
   40.6060   31.1000   45.2720 C   0  0  0  0  0  0  0  0  0  0  0  0
   39.6390   30.6870   46.1420 N   0  0  0  0  0  0  0  0  0  0  0  0
   38.9920   31.5490   46.9370 C   0  0  0  0  0  0  0  0  0  0  0  0
   39.2810   32.8430   46.8960 N   0  0  0  0  0  0  0  0  0  0  0  0
   40.4870   34.3720   46.0000 H   0  0  0  0  0  0  0  0  0  0  0  0
   41.6860   32.7320   44.5160 H   0  0  0  0  0  0  0  0  0  0  0  0
   41.0680   30.3190   44.6730 H   0  0  0  0  0  0  0  0  0  0  0  0
   34.0630   29.9580   47.5230 S   0  0  0  0  0  0  0  0  0  0  0  0
   33.8270   29.1990   44.4860 Cl  0  0  0  0  0  0  0  0  0  0  0  0
   33.8360   27.9660   45.7460 C   0  0  0  0  0  0  0  0  0  0  0  0
   33.9360   28.2180   47.1080 C   0  0  0  0  0  0  0  0  0  0  0  0
   33.9280   27.1570   47.9740 C   0  0  0  0  0  0  0  0  0  0  0  0
   33.8260   25.8730   47.5470 C   0  0  0  0  0  0  0  0  0  0  0  0
   33.7250   25.5860   46.1910 C   0  0  0  0  0  0  0  0  0  0  0  0
   33.7310   26.6510   45.2980 C   0  0  0  0  0  0  0  0  0  0  0  0
   34.0100   27.4560   49.0090 H   0  0  0  0  0  0  0  0  0  0  0  0
   33.8260   25.0960   48.2980 H   0  0  0  0  0  0  0  0  0  0  0  0
   33.6460   24.5490   45.8980 H   0  0  0  0  0  0  0  0  0  0  0  0
   33.6230   26.3360   43.8440 C   0  0  0  0  0  0  0  0  0  0  0  0
   34.7340   26.0790   43.0730 C   0  0  0  0  0  0  0  0  0  0  0  0
   35.7870   26.0530   43.3210 H   0  0  0  0  0  0  0  0  0  0  0  0
   34.0070   25.7660   41.4080 S   0  0  0  0  0  0  0  0  0  0  0  0
   32.2670   26.0500   42.0800 C   0  0  0  0  0  0  0  0  0  0  0  0
   31.3000   26.0070   41.5510 H   0  0  0  0  0  0  0  0  0  0  0  0
   32.4840   26.2800   43.1930 N   0  0  0  0  0  0  0  0  0  0  0  0
  1  2  1  0  0  0  0
  2  3  2  0  0  0  0
  2  7  1  0  0  0  0
  3  4  1  0  0  0  0
  4  8  1  0  0  0  0
  4  5  2  0  0  0  0
  5  9  1  0  0  0  0
  6  5  1  0  0  0  0
  6 10  1  0  0  0  0
  7  6  2  0  0  0  0
 11 16  1  0  0  0  0
 12 13  1  0  0  0  0
 12 11  2  0  0  0  0
 13 14  2  0  0  0  0
 14 15  1  0  0  0  0
 15  3  1  0  0  0  0
 16 15  2  0  0  0  0
 17 11  1  0  0  0  0
 18 12  1  0  0  0  0
 19 13  1  0  0  0  0
 20  7  1  0  0  0  0
 21 22  1  0  0  0  0
 22 23  1  0  0  0  0
 23 20  1  0  0  0  0
 23 24  2  0  0  0  0
 24 28  1  0  0  0  0
 25 24  1  0  0  0  0
 25 29  1  0  0  0  0
 26 25  2  0  0  0  0
 27 22  2  0  0  0  0
 27 26  1  0  0  0  0
 30 26  1  0  0  0  0
 31 27  1  0  0  0  0
 32 33  1  0  0  0  0
 32 31  2  0  0  0  0
 34 35  1  0  0  0  0
 34 32  1  0  0  0  0
 35 37  2  0  0  0  0
 36 35  1  0  0  0  0
 37 31  1  0  0  0  0
M  END
>  <minimizedAffinity>
-5.60842466

>  <minimizedRMSD>
0.234748498

$$$$
