
 OpenBabel03272500313D

 26 28  0  0  0  0  0  0  0  0999 V2000
   37.7680   23.1190   33.5860 Cl  0  0  0  0  0  0  0  0  0  0  0  0
   36.8050   24.1600   32.5290 C   0  0  0  0  0  0  0  0  0  0  0  0
   36.0120   23.5190   31.6200 C   0  0  0  0  0  0  0  0  0  0  0  0
   35.2510   24.3270   30.7860 C   0  0  0  0  0  0  0  0  0  0  0  0
   35.3170   25.6850   30.8960 C   0  0  0  0  0  0  0  0  0  0  0  0
   36.1470   26.2450   31.8440 C   0  0  0  0  0  0  0  0  0  0  0  0
   36.9260   25.5110   32.7000 C   0  0  0  0  0  0  0  0  0  0  0  0
   34.6130   23.8540   30.0560 H   0  0  0  0  0  0  0  0  0  0  0  0
   34.7220   26.3130   30.2430 H   0  0  0  0  0  0  0  0  0  0  0  0
   36.1550   27.3370   31.8820 H   0  0  0  0  0  0  0  0  0  0  0  0
   34.9310   20.0840   32.1550 C   0  0  0  0  0  0  0  0  0  0  0  0
   35.8120   19.3060   31.4070 C   0  0  0  0  0  0  0  0  0  0  0  0
   36.8020   19.9970   30.7050 C   0  0  0  0  0  0  0  0  0  0  0  0
   36.8540   21.3590   30.7830 N   0  0  0  0  0  0  0  0  0  0  0  0
   35.9660   22.0600   31.5290 C   0  0  0  0  0  0  0  0  0  0  0  0
   34.9950   21.4130   32.2220 N   0  0  0  0  0  0  0  0  0  0  0  0
   34.1640   19.5350   32.6980 H   0  0  0  0  0  0  0  0  0  0  0  0
   35.7470   18.2280   31.3630 H   0  0  0  0  0  0  0  0  0  0  0  0
   37.5210   19.4720   30.1040 H   0  0  0  0  0  0  0  0  0  0  0  0
   37.8040   26.1500   33.7050 C   0  0  0  0  0  0  0  0  0  0  0  0
   37.3510   26.4660   34.9580 C   0  0  0  0  0  0  0  0  0  0  0  0
   36.3500   26.3050   35.3720 H   0  0  0  0  0  0  0  0  0  0  0  0
   38.7980   27.2090   35.7620 S   0  0  0  0  0  0  0  0  0  0  0  0
   39.8330   26.9580   34.1890 C   0  0  0  0  0  0  0  0  0  0  0  0
   40.9190   27.2000   33.9280 H   0  0  0  0  0  0  0  0  0  0  0  0
   39.0710   26.4680   33.4970 N   0  0  0  0  0  0  0  0  0  0  0  0
  2  7  1  0  0  0  0
  2  1  1  0  0  0  0
  3  2  2  0  0  0  0
  4  5  2  0  0  0  0
  4  3  1  0  0  0  0
  5  6  1  0  0  0  0
  6 10  1  0  0  0  0
  6  7  2  0  0  0  0
  7 20  1  0  0  0  0
  8  4  1  0  0  0  0
  9  5  1  0  0  0  0
 11 16  1  0  0  0  0
 11 17  1  0  0  0  0
 12 11  2  0  0  0  0
 13 14  2  0  0  0  0
 13 12  1  0  0  0  0
 14 15  1  0  0  0  0
 15  3  1  0  0  0  0
 15 16  2  0  0  0  0
 18 12  1  0  0  0  0
 19 13  1  0  0  0  0
 20 21  2  0  0  0  0
 21 22  1  0  0  0  0
 21 23  1  0  0  0  0
 24 23  1  0  0  0  0
 25 24  1  0  0  0  0
 26 20  1  0  0  0  0
 26 24  2  0  0  0  0
M  END
>  <minimizedAffinity>
-4.68349552

$$$$

 OpenBabel03272500313D

 26 28  0  0  0  0  0  0  0  0999 V2000
   40.5770   24.7730   34.3120 Cl  0  0  0  0  0  0  0  0  0  0  0  0
   39.7440   24.1910   35.7600 C   0  0  0  0  0  0  0  0  0  0  0  0
   38.4950   24.7010   35.9760 C   0  0  0  0  0  0  0  0  0  0  0  0
   37.8320   24.2490   37.1090 C   0  0  0  0  0  0  0  0  0  0  0  0
   38.4250   23.3440   37.9400 C   0  0  0  0  0  0  0  0  0  0  0  0
   39.6900   22.8840   37.6420 C   0  0  0  0  0  0  0  0  0  0  0  0
   40.4050   23.2850   36.5420 C   0  0  0  0  0  0  0  0  0  0  0  0
   36.8420   24.6300   37.3110 H   0  0  0  0  0  0  0  0  0  0  0  0
   37.9050   22.9940   38.8230 H   0  0  0  0  0  0  0  0  0  0  0  0
   40.1110   22.1620   38.3450 H   0  0  0  0  0  0  0  0  0  0  0  0
   37.1420   27.8340   34.7110 C   0  0  0  0  0  0  0  0  0  0  0  0
   36.7490   27.5580   33.4040 C   0  0  0  0  0  0  0  0  0  0  0  0
   36.9620   26.2520   32.9580 C   0  0  0  0  0  0  0  0  0  0  0  0
   37.5280   25.3390   33.8020 N   0  0  0  0  0  0  0  0  0  0  0  0
   37.8880   25.6700   35.0640 C   0  0  0  0  0  0  0  0  0  0  0  0
   37.6930   26.9330   35.5230 N   0  0  0  0  0  0  0  0  0  0  0  0
   36.9710   28.8560   35.0480 H   0  0  0  0  0  0  0  0  0  0  0  0
   36.3040   28.3020   32.7580 H   0  0  0  0  0  0  0  0  0  0  0  0
   36.6880   25.9570   31.9630 H   0  0  0  0  0  0  0  0  0  0  0  0
   41.7610   22.7680   36.2570 C   0  0  0  0  0  0  0  0  0  0  0  0
   41.9550   21.5510   35.6590 C   0  0  0  0  0  0  0  0  0  0  0  0
   41.1950   20.8360   35.3280 H   0  0  0  0  0  0  0  0  0  0  0  0
   43.7600   21.4110   35.5470 S   0  0  0  0  0  0  0  0  0  0  0  0
   43.9690   23.1100   36.3710 C   0  0  0  0  0  0  0  0  0  0  0  0
   44.8880   23.7290   36.6500 H   0  0  0  0  0  0  0  0  0  0  0  0
   42.8820   23.4090   36.5420 N   0  0  0  0  0  0  0  0  0  0  0  0
  1  2  1  0  0  0  0
  2  3  2  0  0  0  0
  2  7  1  0  0  0  0
  3  4  1  0  0  0  0
  4  8  1  0  0  0  0
  4  5  2  0  0  0  0
  5  9  1  0  0  0  0
  6  5  1  0  0  0  0
  6 10  1  0  0  0  0
  7  6  2  0  0  0  0
 11 17  1  0  0  0  0
 11 16  1  0  0  0  0
 12 11  2  0  0  0  0
 13 12  1  0  0  0  0
 13 14  2  0  0  0  0
 14 15  1  0  0  0  0
 15 16  2  0  0  0  0
 15  3  1  0  0  0  0
 18 12  1  0  0  0  0
 19 13  1  0  0  0  0
 20  7  1  0  0  0  0
 20 26  1  0  0  0  0
 21 20  2  0  0  0  0
 22 21  1  0  0  0  0
 23 21  1  0  0  0  0
 23 24  1  0  0  0  0
 24 26  2  0  0  0  0
 24 25  1  0  0  0  0
M  END
>  <minimizedAffinity>
-4.68236732

$$$$

 OpenBabel03272500313D

 26 28  0  0  0  0  0  0  0  0999 V2000
   38.1800   22.9560   33.2590 Cl  0  0  0  0  0  0  0  0  0  0  0  0
   37.0460   23.9870   32.3770 C   0  0  0  0  0  0  0  0  0  0  0  0
   37.2780   25.3310   32.4520 C   0  0  0  0  0  0  0  0  0  0  0  0
   36.3940   26.1500   31.7610 C   0  0  0  0  0  0  0  0  0  0  0  0
   35.3610   25.6070   31.0560 C   0  0  0  0  0  0  0  0  0  0  0  0
   35.2040   24.2380   31.0370 C   0  0  0  0  0  0  0  0  0  0  0  0
   36.0360   23.3680   31.6940 C   0  0  0  0  0  0  0  0  0  0  0  0
   36.5480   27.2180   31.7990 H   0  0  0  0  0  0  0  0  0  0  0  0
   34.6730   26.2490   30.5190 H   0  0  0  0  0  0  0  0  0  0  0  0
   34.3580   23.8650   30.4550 H   0  0  0  0  0  0  0  0  0  0  0  0
   40.6210   26.5260   33.2590 C   0  0  0  0  0  0  0  0  0  0  0  0
   40.5560   26.9100   34.5960 C   0  0  0  0  0  0  0  0  0  0  0  0
   39.3200   26.7470   35.2250 C   0  0  0  0  0  0  0  0  0  0  0  0
   38.2690   26.2350   34.5190 N   0  0  0  0  0  0  0  0  0  0  0  0
   38.3960   25.8800   33.2180 C   0  0  0  0  0  0  0  0  0  0  0  0
   39.5870   26.0280   32.5820 N   0  0  0  0  0  0  0  0  0  0  0  0
   41.5890   26.6570   32.7790 H   0  0  0  0  0  0  0  0  0  0  0  0
   41.4040   27.3130   35.1310 H   0  0  0  0  0  0  0  0  0  0  0  0
   39.1850   27.0190   36.2550 H   0  0  0  0  0  0  0  0  0  0  0  0
   35.8340   21.9030   31.6490 C   0  0  0  0  0  0  0  0  0  0  0  0
   34.9990   21.2660   32.5270 C   0  0  0  0  0  0  0  0  0  0  0  0
   34.4030   21.7100   33.3320 H   0  0  0  0  0  0  0  0  0  0  0  0
   35.1170   19.5220   32.0420 S   0  0  0  0  0  0  0  0  0  0  0  0
   36.3400   19.9630   30.6580 C   0  0  0  0  0  0  0  0  0  0  0  0
   36.8870   19.3340   29.8760 H   0  0  0  0  0  0  0  0  0  0  0  0
   36.4200   21.0930   30.7840 N   0  0  0  0  0  0  0  0  0  0  0  0
  2  3  1  0  0  0  0
  2  1  1  0  0  0  0
  3 15  1  0  0  0  0
  4  8  1  0  0  0  0
  4  3  2  0  0  0  0
  5  4  1  0  0  0  0
  6  5  2  0  0  0  0
  6  7  1  0  0  0  0
  7  2  2  0  0  0  0
  9  5  1  0  0  0  0
 10  6  1  0  0  0  0
 11 12  1  0  0  0  0
 12 18  1  0  0  0  0
 12 13  2  0  0  0  0
 13 19  1  0  0  0  0
 14 13  1  0  0  0  0
 15 14  2  0  0  0  0
 16 15  1  0  0  0  0
 16 11  2  0  0  0  0
 17 11  1  0  0  0  0
 20  7  1  0  0  0  0
 20 21  2  0  0  0  0
 21 22  1  0  0  0  0
 23 21  1  0  0  0  0
 24 26  2  0  0  0  0
 24 23  1  0  0  0  0
 25 24  1  0  0  0  0
 26 20  1  0  0  0  0
M  END
>  <minimizedAffinity>
-4.64358234

$$$$

 OpenBabel03272500313D

 26 28  0  0  0  0  0  0  0  0999 V2000
   37.9560   27.1460   33.5300 Cl  0  0  0  0  0  0  0  0  0  0  0  0
   37.0750   25.9190   32.6110 C   0  0  0  0  0  0  0  0  0  0  0  0
   36.1520   26.3890   31.7190 C   0  0  0  0  0  0  0  0  0  0  0  0
   35.4550   25.4330   30.9910 C   0  0  0  0  0  0  0  0  0  0  0  0
   35.7030   24.1050   31.1820 C   0  0  0  0  0  0  0  0  0  0  0  0
   36.6540   23.7240   32.1060 C   0  0  0  0  0  0  0  0  0  0  0  0
   37.3800   24.6100   32.8600 C   0  0  0  0  0  0  0  0  0  0  0  0
   34.7190   25.7690   30.2770 H   0  0  0  0  0  0  0  0  0  0  0  0
   35.1580   23.3630   30.6130 H   0  0  0  0  0  0  0  0  0  0  0  0
   36.8060   22.6480   32.2130 H   0  0  0  0  0  0  0  0  0  0  0  0
   36.3930   29.7620   30.3720 C   0  0  0  0  0  0  0  0  0  0  0  0
   35.5100   30.5210   31.1360 C   0  0  0  0  0  0  0  0  0  0  0  0
   34.8200   29.8400   32.1400 C   0  0  0  0  0  0  0  0  0  0  0  0
   35.0380   28.5030   32.3170 N   0  0  0  0  0  0  0  0  0  0  0  0
   35.9110   27.8200   31.5390 C   0  0  0  0  0  0  0  0  0  0  0  0
   36.5960   28.4580   30.5560 N   0  0  0  0  0  0  0  0  0  0  0  0
   36.9260   30.3030   29.5920 H   0  0  0  0  0  0  0  0  0  0  0  0
   35.3570   31.5790   30.9730 H   0  0  0  0  0  0  0  0  0  0  0  0
   34.1210   30.3520   32.7740 H   0  0  0  0  0  0  0  0  0  0  0  0
   38.3910   24.1600   33.8410 C   0  0  0  0  0  0  0  0  0  0  0  0
   39.6770   23.8730   33.4670 C   0  0  0  0  0  0  0  0  0  0  0  0
   40.1150   23.9300   32.4650 H   0  0  0  0  0  0  0  0  0  0  0  0
   40.4750   23.3810   35.0200 S   0  0  0  0  0  0  0  0  0  0  0  0
   38.8540   23.6580   35.9710 C   0  0  0  0  0  0  0  0  0  0  0  0
   38.5710   23.5420   37.0720 H   0  0  0  0  0  0  0  0  0  0  0  0
   38.1600   23.9960   35.1320 N   0  0  0  0  0  0  0  0  0  0  0  0
  2  7  1  0  0  0  0
  2  1  1  0  0  0  0
  3  2  2  0  0  0  0
  4  5  2  0  0  0  0
  4  3  1  0  0  0  0
  5  6  1  0  0  0  0
  6 10  1  0  0  0  0
  6  7  2  0  0  0  0
  7 20  1  0  0  0  0
  8  4  1  0  0  0  0
  9  5  1  0  0  0  0
 11 16  2  0  0  0  0
 11 12  1  0  0  0  0
 12 13  2  0  0  0  0
 13 14  1  0  0  0  0
 13 19  1  0  0  0  0
 15  3  1  0  0  0  0
 15 14  2  0  0  0  0
 16 15  1  0  0  0  0
 17 11  1  0  0  0  0
 18 12  1  0  0  0  0
 20 26  1  0  0  0  0
 21 20  2  0  0  0  0
 21 23  1  0  0  0  0
 22 21  1  0  0  0  0
 23 24  1  0  0  0  0
 24 25  1  0  0  0  0
 26 24  2  0  0  0  0
M  END
>  <minimizedAffinity>
-4.45981836

$$$$

 OpenBabel03272500313D

 26 28  0  0  0  0  0  0  0  0999 V2000
   36.3380   28.1290   34.6590 Cl  0  0  0  0  0  0  0  0  0  0  0  0
   36.1480   28.9780   33.1190 C   0  0  0  0  0  0  0  0  0  0  0  0
   35.5450   30.2030   33.1840 C   0  0  0  0  0  0  0  0  0  0  0  0
   35.3920   30.8790   31.9800 C   0  0  0  0  0  0  0  0  0  0  0  0
   35.8330   30.3220   30.8160 C   0  0  0  0  0  0  0  0  0  0  0  0
   36.4310   29.0800   30.8480 C   0  0  0  0  0  0  0  0  0  0  0  0
   36.6150   28.3540   31.9970 C   0  0  0  0  0  0  0  0  0  0  0  0
   34.9200   31.8490   31.9940 H   0  0  0  0  0  0  0  0  0  0  0  0
   35.7120   30.8520   29.8790 H   0  0  0  0  0  0  0  0  0  0  0  0
   36.7620   28.6870   29.8840 H   0  0  0  0  0  0  0  0  0  0  0  0
   33.3720   30.9950   35.9950 C   0  0  0  0  0  0  0  0  0  0  0  0
   34.1390   31.8050   36.8280 C   0  0  0  0  0  0  0  0  0  0  0  0
   35.4380   32.0790   36.3970 C   0  0  0  0  0  0  0  0  0  0  0  0
   35.8790   31.5540   35.2160 N   0  0  0  0  0  0  0  0  0  0  0  0
   35.0840   30.7710   34.4490 C   0  0  0  0  0  0  0  0  0  0  0  0
   33.8160   30.4890   34.8450 N   0  0  0  0  0  0  0  0  0  0  0  0
   32.3610   30.7880   36.3410 H   0  0  0  0  0  0  0  0  0  0  0  0
   33.7640   32.2070   37.7590 H   0  0  0  0  0  0  0  0  0  0  0  0
   36.0950   32.6960   36.9820 H   0  0  0  0  0  0  0  0  0  0  0  0
   37.2620   27.0230   31.9890 C   0  0  0  0  0  0  0  0  0  0  0  0
   38.6240   26.8870   31.9890 C   0  0  0  0  0  0  0  0  0  0  0  0
   39.3800   27.6800   31.9950 H   0  0  0  0  0  0  0  0  0  0  0  0
   38.8750   25.0900   31.9780 S   0  0  0  0  0  0  0  0  0  0  0  0
   36.9970   24.8020   31.9740 C   0  0  0  0  0  0  0  0  0  0  0  0
   36.3580   23.8550   31.9680 H   0  0  0  0  0  0  0  0  0  0  0  0
   36.6090   25.8740   31.9810 N   0  0  0  0  0  0  0  0  0  0  0  0
  2  3  1  0  0  0  0
  2  1  1  0  0  0  0
  3 15  1  0  0  0  0
  4  8  1  0  0  0  0
  4  3  2  0  0  0  0
  5  6  2  0  0  0  0
  5  4  1  0  0  0  0
  6  7  1  0  0  0  0
  7  2  2  0  0  0  0
  9  5  1  0  0  0  0
 10  6  1  0  0  0  0
 11 17  1  0  0  0  0
 11 12  1  0  0  0  0
 12 18  1  0  0  0  0
 13 12  2  0  0  0  0
 13 19  1  0  0  0  0
 14 13  1  0  0  0  0
 15 16  1  0  0  0  0
 15 14  2  0  0  0  0
 16 11  2  0  0  0  0
 20  7  1  0  0  0  0
 21 20  2  0  0  0  0
 21 22  1  0  0  0  0
 23 21  1  0  0  0  0
 24 23  1  0  0  0  0
 24 26  2  0  0  0  0
 25 24  1  0  0  0  0
 26 20  1  0  0  0  0
M  END
>  <minimizedAffinity>
-4.40414476

$$$$

 OpenBabel03272500313D

 26 28  0  0  0  0  0  0  0  0999 V2000
   38.0100   27.1860   33.5440 Cl  0  0  0  0  0  0  0  0  0  0  0  0
   37.0520   26.0540   32.5790 C   0  0  0  0  0  0  0  0  0  0  0  0
   37.3520   24.7310   32.7400 C   0  0  0  0  0  0  0  0  0  0  0  0
   36.6050   23.8330   31.9890 C   0  0  0  0  0  0  0  0  0  0  0  0
   35.6320   24.2830   31.1460 C   0  0  0  0  0  0  0  0  0  0  0  0
   35.3990   25.6390   31.0480 C   0  0  0  0  0  0  0  0  0  0  0  0
   36.0960   26.5830   31.7580 C   0  0  0  0  0  0  0  0  0  0  0  0
   36.8150   22.7800   32.0910 H   0  0  0  0  0  0  0  0  0  0  0  0
   35.0510   23.5800   30.5610 H   0  0  0  0  0  0  0  0  0  0  0  0
   34.6070   25.9360   30.3570 H   0  0  0  0  0  0  0  0  0  0  0  0
   40.6290   23.7190   33.9610 C   0  0  0  0  0  0  0  0  0  0  0  0
   40.4420   23.4410   35.3130 C   0  0  0  0  0  0  0  0  0  0  0  0
   39.1470   23.6100   35.8040 C   0  0  0  0  0  0  0  0  0  0  0  0
   38.1570   24.0280   34.9600 N   0  0  0  0  0  0  0  0  0  0  0  0
   38.4030   24.2830   33.6530 C   0  0  0  0  0  0  0  0  0  0  0  0
   39.6540   24.1260   33.1490 N   0  0  0  0  0  0  0  0  0  0  0  0
   41.6430   23.5830   33.5890 H   0  0  0  0  0  0  0  0  0  0  0  0
   41.2450   23.1120   35.9580 H   0  0  0  0  0  0  0  0  0  0  0  0
   38.9180   23.4180   36.8360 H   0  0  0  0  0  0  0  0  0  0  0  0
   35.8150   28.0290   31.6250 C   0  0  0  0  0  0  0  0  0  0  0  0
   36.4370   28.7970   30.6780 C   0  0  0  0  0  0  0  0  0  0  0  0
   37.1770   28.4810   29.9350 H   0  0  0  0  0  0  0  0  0  0  0  0
   35.7460   30.4530   30.9470 S   0  0  0  0  0  0  0  0  0  0  0  0
   34.6720   29.8010   32.3720 C   0  0  0  0  0  0  0  0  0  0  0  0
   33.9200   30.3040   33.0690 H   0  0  0  0  0  0  0  0  0  0  0  0
   34.9640   28.6990   32.3840 N   0  0  0  0  0  0  0  0  0  0  0  0
  2  3  1  0  0  0  0
  2  1  1  0  0  0  0
  3 15  1  0  0  0  0
  4  8  1  0  0  0  0
  4  3  2  0  0  0  0
  5  4  1  0  0  0  0
  6  5  2  0  0  0  0
  6  7  1  0  0  0  0
  7  2  2  0  0  0  0
  9  5  1  0  0  0  0
 10  6  1  0  0  0  0
 11 12  1  0  0  0  0
 12 13  2  0  0  0  0
 12 18  1  0  0  0  0
 13 19  1  0  0  0  0
 14 13  1  0  0  0  0
 15 14  2  0  0  0  0
 16 15  1  0  0  0  0
 16 11  2  0  0  0  0
 17 11  1  0  0  0  0
 20  7  1  0  0  0  0
 20 26  1  0  0  0  0
 21 23  1  0  0  0  0
 21 20  2  0  0  0  0
 22 21  1  0  0  0  0
 23 24  1  0  0  0  0
 24 26  2  0  0  0  0
 24 25  1  0  0  0  0
M  END
>  <minimizedAffinity>
-4.37359476

$$$$

 OpenBabel03272500313D

 26 28  0  0  0  0  0  0  0  0999 V2000
   38.2090   26.6400   33.2930 Cl  0  0  0  0  0  0  0  0  0  0  0  0
   37.1740   25.4670   32.4690 C   0  0  0  0  0  0  0  0  0  0  0  0
   36.2290   25.9890   31.6310 C   0  0  0  0  0  0  0  0  0  0  0  0
   35.4120   25.0760   30.9780 C   0  0  0  0  0  0  0  0  0  0  0  0
   35.5710   23.7370   31.1850 C   0  0  0  0  0  0  0  0  0  0  0  0
   36.5530   23.3010   32.0500 C   0  0  0  0  0  0  0  0  0  0  0  0
   37.3960   24.1430   32.7290 C   0  0  0  0  0  0  0  0  0  0  0  0
   34.6550   25.4530   30.3080 H   0  0  0  0  0  0  0  0  0  0  0  0
   34.9320   23.0280   30.6740 H   0  0  0  0  0  0  0  0  0  0  0  0
   36.6300   22.2190   32.1740 H   0  0  0  0  0  0  0  0  0  0  0  0
   36.5990   29.3000   30.1630 C   0  0  0  0  0  0  0  0  0  0  0  0
   35.8620   30.1460   30.9880 C   0  0  0  0  0  0  0  0  0  0  0  0
   35.2250   29.5470   32.0760 C   0  0  0  0  0  0  0  0  0  0  0  0
   35.3530   28.2010   32.2710 N   0  0  0  0  0  0  0  0  0  0  0  0
   36.0860   27.4300   31.4320 C   0  0  0  0  0  0  0  0  0  0  0  0
   36.7160   27.9880   30.3670 N   0  0  0  0  0  0  0  0  0  0  0  0
   37.0920   29.7780   29.3180 H   0  0  0  0  0  0  0  0  0  0  0  0
   35.7770   31.2090   30.8090 H   0  0  0  0  0  0  0  0  0  0  0  0
   34.6360   30.1290   32.7600 H   0  0  0  0  0  0  0  0  0  0  0  0
   38.4370   23.6360   33.6500 C   0  0  0  0  0  0  0  0  0  0  0  0
   38.1520   23.3180   34.9510 C   0  0  0  0  0  0  0  0  0  0  0  0
   37.1870   23.3860   35.4650 H   0  0  0  0  0  0  0  0  0  0  0  0
   39.7460   22.7600   35.6140 S   0  0  0  0  0  0  0  0  0  0  0  0
   40.5800   23.0640   33.9350 C   0  0  0  0  0  0  0  0  0  0  0  0
   41.6530   22.9280   33.5670 H   0  0  0  0  0  0  0  0  0  0  0  0
   39.7020   23.4460   33.3170 N   0  0  0  0  0  0  0  0  0  0  0  0
  2  7  1  0  0  0  0
  2  1  1  0  0  0  0
  3  2  2  0  0  0  0
  4  5  2  0  0  0  0
  4  3  1  0  0  0  0
  5  6  1  0  0  0  0
  6 10  1  0  0  0  0
  6  7  2  0  0  0  0
  7 20  1  0  0  0  0
  8  4  1  0  0  0  0
  9  5  1  0  0  0  0
 11 16  2  0  0  0  0
 11 12  1  0  0  0  0
 12 13  2  0  0  0  0
 13 14  1  0  0  0  0
 13 19  1  0  0  0  0
 15  3  1  0  0  0  0
 15 14  2  0  0  0  0
 16 15  1  0  0  0  0
 17 11  1  0  0  0  0
 18 12  1  0  0  0  0
 20 21  2  0  0  0  0
 21 22  1  0  0  0  0
 21 23  1  0  0  0  0
 24 23  1  0  0  0  0
 25 24  1  0  0  0  0
 26 20  1  0  0  0  0
 26 24  2  0  0  0  0
M  END
>  <minimizedAffinity>
-4.36869049

$$$$

 OpenBabel03272500313D

 26 28  0  0  0  0  0  0  0  0999 V2000
   38.5330   25.7520   34.4700 Cl  0  0  0  0  0  0  0  0  0  0  0  0
   37.9190   24.3010   33.6650 C   0  0  0  0  0  0  0  0  0  0  0  0
   37.9460   23.1520   34.4040 C   0  0  0  0  0  0  0  0  0  0  0  0
   37.4660   22.0070   33.7810 C   0  0  0  0  0  0  0  0  0  0  0  0
   36.9980   22.0640   32.5010 C   0  0  0  0  0  0  0  0  0  0  0  0
   37.0090   23.2690   31.8320 C   0  0  0  0  0  0  0  0  0  0  0  0
   37.4690   24.4390   32.3820 C   0  0  0  0  0  0  0  0  0  0  0  0
   37.4720   21.0810   34.3360 H   0  0  0  0  0  0  0  0  0  0  0  0
   36.6240   21.1690   32.0190 H   0  0  0  0  0  0  0  0  0  0  0  0
   36.6230   23.2490   30.8110 H   0  0  0  0  0  0  0  0  0  0  0  0
   38.0450   23.4740   38.0280 C   0  0  0  0  0  0  0  0  0  0  0  0
   39.3380   23.1050   38.3900 C   0  0  0  0  0  0  0  0  0  0  0  0
   40.1900   22.7370   37.3460 C   0  0  0  0  0  0  0  0  0  0  0  0
   39.7250   22.7570   36.0620 N   0  0  0  0  0  0  0  0  0  0  0  0
   38.4550   23.1270   35.7740 C   0  0  0  0  0  0  0  0  0  0  0  0
   37.6060   23.4900   36.7700 N   0  0  0  0  0  0  0  0  0  0  0  0
   37.3900   23.7590   38.8500 H   0  0  0  0  0  0  0  0  0  0  0  0
   39.6790   23.0980   39.4160 H   0  0  0  0  0  0  0  0  0  0  0  0
   41.2030   22.4380   37.5400 H   0  0  0  0  0  0  0  0  0  0  0  0
   37.4640   25.7130   31.6310 C   0  0  0  0  0  0  0  0  0  0  0  0
   36.3500   26.5090   31.5730 C   0  0  0  0  0  0  0  0  0  0  0  0
   35.3740   26.3350   32.0380 H   0  0  0  0  0  0  0  0  0  0  0  0
   36.8780   27.9110   30.5490 S   0  0  0  0  0  0  0  0  0  0  0  0
   38.6090   27.1520   30.3560 C   0  0  0  0  0  0  0  0  0  0  0  0
   39.5490   27.4950   29.8050 H   0  0  0  0  0  0  0  0  0  0  0  0
   38.5000   26.1930   30.9630 N   0  0  0  0  0  0  0  0  0  0  0  0
  2  3  1  0  0  0  0
  2  1  1  0  0  0  0
  3 15  1  0  0  0  0
  4  8  1  0  0  0  0
  4  3  2  0  0  0  0
  5  4  1  0  0  0  0
  6  7  1  0  0  0  0
  6  5  2  0  0  0  0
  7  2  2  0  0  0  0
  9  5  1  0  0  0  0
 10  6  1  0  0  0  0
 11 12  1  0  0  0  0
 11 17  1  0  0  0  0
 12 18  1  0  0  0  0
 13 19  1  0  0  0  0
 13 12  2  0  0  0  0
 14 13  1  0  0  0  0
 15 14  2  0  0  0  0
 15 16  1  0  0  0  0
 16 11  2  0  0  0  0
 20  7  1  0  0  0  0
 21 20  2  0  0  0  0
 21 22  1  0  0  0  0
 23 21  1  0  0  0  0
 24 23  1  0  0  0  0
 24 26  2  0  0  0  0
 25 24  1  0  0  0  0
 26 20  1  0  0  0  0
M  END
>  <minimizedAffinity>
-4.36521244

$$$$

 OpenBabel03272500313D

 26 28  0  0  0  0  0  0  0  0999 V2000
   36.8110   25.5900   32.1730 Cl  0  0  0  0  0  0  0  0  0  0  0  0
   37.4780   26.1060   33.7280 C   0  0  0  0  0  0  0  0  0  0  0  0
   37.2340   27.4030   34.0810 C   0  0  0  0  0  0  0  0  0  0  0  0
   37.7510   27.8180   35.3010 C   0  0  0  0  0  0  0  0  0  0  0  0
   38.4600   26.9510   36.0800 C   0  0  0  0  0  0  0  0  0  0  0  0
   38.6570   25.6590   35.6410 C   0  0  0  0  0  0  0  0  0  0  0  0
   38.1770   25.1790   34.4490 C   0  0  0  0  0  0  0  0  0  0  0  0
   37.5770   28.8370   35.6120 H   0  0  0  0  0  0  0  0  0  0  0  0
   38.8630   27.2780   37.0300 H   0  0  0  0  0  0  0  0  0  0  0  0
   39.2330   25.0130   36.3080 H   0  0  0  0  0  0  0  0  0  0  0  0
   36.3550   29.5130   31.2470 C   0  0  0  0  0  0  0  0  0  0  0  0
   35.0890   30.0100   31.5450 C   0  0  0  0  0  0  0  0  0  0  0  0
   34.5340   29.6000   32.7580 C   0  0  0  0  0  0  0  0  0  0  0  0
   35.2400   28.7570   33.5680 N   0  0  0  0  0  0  0  0  0  0  0  0
   36.4700   28.3070   33.2220 C   0  0  0  0  0  0  0  0  0  0  0  0
   37.0320   28.6900   32.0480 N   0  0  0  0  0  0  0  0  0  0  0  0
   36.7780   29.8390   30.2990 H   0  0  0  0  0  0  0  0  0  0  0  0
   34.5530   30.6770   30.8840 H   0  0  0  0  0  0  0  0  0  0  0  0
   33.5620   29.9380   33.0630 H   0  0  0  0  0  0  0  0  0  0  0  0
   38.4100   23.7840   34.0140 C   0  0  0  0  0  0  0  0  0  0  0  0
   39.5450   23.4230   33.3380 C   0  0  0  0  0  0  0  0  0  0  0  0
   40.3830   24.0610   33.0420 H   0  0  0  0  0  0  0  0  0  0  0  0
   39.3260   21.6440   33.0540 S   0  0  0  0  0  0  0  0  0  0  0  0
   37.6470   21.6830   33.9430 C   0  0  0  0  0  0  0  0  0  0  0  0
   36.8710   20.8750   34.1690 H   0  0  0  0  0  0  0  0  0  0  0  0
   37.5730   22.7840   34.2290 N   0  0  0  0  0  0  0  0  0  0  0  0
  1  2  1  0  0  0  0
  2  3  2  0  0  0  0
  2  7  1  0  0  0  0
  3  4  1  0  0  0  0
  4  8  1  0  0  0  0
  4  5  2  0  0  0  0
  5  9  1  0  0  0  0
  6  5  1  0  0  0  0
  6 10  1  0  0  0  0
  7  6  2  0  0  0  0
 11 12  2  0  0  0  0
 11 16  1  0  0  0  0
 12 13  1  0  0  0  0
 13 19  1  0  0  0  0
 13 14  2  0  0  0  0
 15 14  1  0  0  0  0
 15  3  1  0  0  0  0
 16 15  2  0  0  0  0
 17 11  1  0  0  0  0
 18 12  1  0  0  0  0
 20 26  1  0  0  0  0
 20  7  1  0  0  0  0
 21 20  2  0  0  0  0
 22 21  1  0  0  0  0
 23 21  1  0  0  0  0
 23 24  1  0  0  0  0
 24 25  1  0  0  0  0
 24 26  2  0  0  0  0
M  END
>  <minimizedAffinity>
-4.36467505

$$$$
