
 OpenBabel03272505123D

 37 40  0  0  0  0  0  0  0  0999 V2000
   36.4020   30.8920   45.7100 Cl  0  0  0  0  0  0  0  0  0  0  0  0
   36.6860   30.7770   47.4230 C   0  0  0  0  0  0  0  0  0  0  0  0
   37.9450   31.1140   47.8820 C   0  0  0  0  0  0  0  0  0  0  0  0
   38.1810   31.0260   49.2380 C   0  0  0  0  0  0  0  0  0  0  0  0
   37.1800   30.6130   50.0850 C   0  0  0  0  0  0  0  0  0  0  0  0
   35.9260   30.2870   49.5580 C   0  0  0  0  0  0  0  0  0  0  0  0
   35.6300   30.3530   48.2220 C   0  0  0  0  0  0  0  0  0  0  0  0
   39.1460   31.2810   49.6150 H   0  0  0  0  0  0  0  0  0  0  0  0
   37.3690   30.5460   51.1470 H   0  0  0  0  0  0  0  0  0  0  0  0
   35.1640   29.9670   50.2550 H   0  0  0  0  0  0  0  0  0  0  0  0
   40.2190   33.3210   46.0810 C   0  0  0  0  0  0  0  0  0  0  0  0
   40.9220   32.4530   45.2100 C   0  0  0  0  0  0  0  0  0  0  0  0
   40.5920   31.0990   45.2630 C   0  0  0  0  0  0  0  0  0  0  0  0
   39.6250   30.6890   46.1340 N   0  0  0  0  0  0  0  0  0  0  0  0
   38.9900   31.5510   46.9380 C   0  0  0  0  0  0  0  0  0  0  0  0
   39.2890   32.8430   46.9030 N   0  0  0  0  0  0  0  0  0  0  0  0
   40.5050   34.3670   46.0110 H   0  0  0  0  0  0  0  0  0  0  0  0
   41.6830   32.7260   44.5120 H   0  0  0  0  0  0  0  0  0  0  0  0
   41.0450   30.3180   44.6560 H   0  0  0  0  0  0  0  0  0  0  0  0
   34.0640   29.9500   47.5290 S   0  0  0  0  0  0  0  0  0  0  0  0
   33.8970   29.1970   44.4860 Cl  0  0  0  0  0  0  0  0  0  0  0  0
   33.8800   27.9620   45.7440 C   0  0  0  0  0  0  0  0  0  0  0  0
   33.9490   28.2110   47.1080 C   0  0  0  0  0  0  0  0  0  0  0  0
   33.9230   27.1480   47.9710 C   0  0  0  0  0  0  0  0  0  0  0  0
   33.8320   25.8650   47.5400 C   0  0  0  0  0  0  0  0  0  0  0  0
   33.7620   25.5800   46.1800 C   0  0  0  0  0  0  0  0  0  0  0  0
   33.7870   26.6470   45.2900 C   0  0  0  0  0  0  0  0  0  0  0  0
   33.9820   27.4450   49.0090 H   0  0  0  0  0  0  0  0  0  0  0  0
   33.8180   25.0860   48.2880 H   0  0  0  0  0  0  0  0  0  0  0  0
   33.6910   24.5440   45.8840 H   0  0  0  0  0  0  0  0  0  0  0  0
   33.7120   26.3350   43.8340 C   0  0  0  0  0  0  0  0  0  0  0  0
   32.5070   26.1680   43.1910 C   0  0  0  0  0  0  0  0  0  0  0  0
   31.4900   26.2170   43.5530 H   0  0  0  0  0  0  0  0  0  0  0  0
   33.0210   25.8120   41.4560 S   0  0  0  0  0  0  0  0  0  0  0  0
   34.8420   25.9610   41.9310 C   0  0  0  0  0  0  0  0  0  0  0  0
   35.7390   25.8490   41.2990 H   0  0  0  0  0  0  0  0  0  0  0  0
   34.7660   26.1980   43.0610 N   0  0  0  0  0  0  0  0  0  0  0  0
  1  2  1  0  0  0  0
  2  3  2  0  0  0  0
  2  7  1  0  0  0  0
  3  4  1  0  0  0  0
  4  8  1  0  0  0  0
  4  5  2  0  0  0  0
  5  9  1  0  0  0  0
  6  5  1  0  0  0  0
  6 10  1  0  0  0  0
  7  6  2  0  0  0  0
 11 16  1  0  0  0  0
 12 13  1  0  0  0  0
 12 11  2  0  0  0  0
 13 14  2  0  0  0  0
 14 15  1  0  0  0  0
 15  3  1  0  0  0  0
 16 15  2  0  0  0  0
 17 11  1  0  0  0  0
 18 12  1  0  0  0  0
 19 13  1  0  0  0  0
 20  7  1  0  0  0  0
 21 22  1  0  0  0  0
 22 23  1  0  0  0  0
 23 20  1  0  0  0  0
 23 24  2  0  0  0  0
 24 28  1  0  0  0  0
 25 24  1  0  0  0  0
 25 29  1  0  0  0  0
 26 25  2  0  0  0  0
 27 22  2  0  0  0  0
 27 26  1  0  0  0  0
 30 26  1  0  0  0  0
 31 27  1  0  0  0  0
 32 33  1  0  0  0  0
 32 31  2  0  0  0  0
 34 35  1  0  0  0  0
 34 32  1  0  0  0  0
 35 37  2  0  0  0  0
 36 35  1  0  0  0  0
 37 31  1  0  0  0  0
M  END
>  <minimizedAffinity>
-5.63916206

>  <minimizedRMSD>
0.315497011

$$$$
