
 OpenBabel03272510203D

 34 37  0  0  0  0  0  0  0  0999 V2000
   37.4160   29.1970   50.8650 Br  0  0  0  0  0  0  0  0  0  0  0  0
   36.0140   29.2730   49.5780 C   0  0  0  0  0  0  0  0  0  0  0  0
   36.0000   30.2580   48.5980 C   0  0  0  0  0  0  0  0  0  0  0  0
   34.9560   30.2480   47.7050 C   0  0  0  0  0  0  0  0  0  0  0  0
   33.9320   29.3200   47.7320 C   0  0  0  0  0  0  0  0  0  0  0  0
   33.9800   28.3590   48.7170 C   0  0  0  0  0  0  0  0  0  0  0  0
   35.0140   28.3440   49.6270 C   0  0  0  0  0  0  0  0  0  0  0  0
   34.9020   30.9940   46.9260 H   0  0  0  0  0  0  0  0  0  0  0  0
   33.2080   27.5990   48.7960 H   0  0  0  0  0  0  0  0  0  0  0  0
   35.0150   27.5700   50.3880 H   0  0  0  0  0  0  0  0  0  0  0  0
   38.0080   33.1750   49.4450 C   0  0  0  0  0  0  0  0  0  0  0  0
   39.0230   33.1720   48.4530 C   0  0  0  0  0  0  0  0  0  0  0  0
   38.9970   32.1690   47.5110 C   0  0  0  0  0  0  0  0  0  0  0  0
   38.0090   31.2360   47.5790 N   0  0  0  0  0  0  0  0  0  0  0  0
   37.0500   31.2530   48.5300 C   0  0  0  0  0  0  0  0  0  0  0  0
   37.0630   32.2330   49.4600 N   0  0  0  0  0  0  0  0  0  0  0  0
   38.0900   33.9910   50.1510 H   0  0  0  0  0  0  0  0  0  0  0  0
   39.8200   33.8850   48.3600 H   0  0  0  0  0  0  0  0  0  0  0  0
   39.6640   31.9980   46.6970 H   0  0  0  0  0  0  0  0  0  0  0  0
   32.8350   29.3090   46.7930 C   0  0  0  0  0  0  0  0  0  0  0  0
   32.0020   28.2270   46.5640 C   0  0  0  0  0  0  0  0  0  0  0  0
   30.9590   28.2440   45.6590 C   0  0  0  0  0  0  0  0  0  0  0  0
   30.7350   29.3720   44.9610 N   0  0  0  0  0  0  0  0  0  0  0  0
   31.5310   30.4310   45.1680 C   0  0  0  0  0  0  0  0  0  0  0  0
   32.5420   30.3870   46.0570 N   0  0  0  0  0  0  0  0  0  0  0  0
   32.1890   27.3100   47.1380 H   0  0  0  0  0  0  0  0  0  0  0  0
   30.3770   27.3460   45.5630 H   0  0  0  0  0  0  0  0  0  0  0  0
   31.1980   31.6010   44.3540 C   0  0  0  0  0  0  0  0  0  0  0  0
   32.4160   32.1460   43.7730 C   0  0  0  0  0  0  0  0  0  0  0  0
   33.4840   31.9250   43.7780 H   0  0  0  0  0  0  0  0  0  0  0  0
   31.7860   33.6230   42.7760 S   0  0  0  0  0  0  0  0  0  0  0  0
   30.0170   33.2090   43.3420 C   0  0  0  0  0  0  0  0  0  0  0  0
   28.8500   33.5240   43.2820 H   0  0  0  0  0  0  0  0  0  0  0  0
   30.1450   32.3040   43.9910 N   0  0  0  0  0  0  0  0  0  0  0  0
  2  7  1  0  0  0  0
  2  1  1  0  0  0  0
  3  2  2  0  0  0  0
  4  5  2  0  0  0  0
  4  3  1  0  0  0  0
  5  6  1  0  0  0  0
  6  9  1  0  0  0  0
  6  7  2  0  0  0  0
  7 10  1  0  0  0  0
  8  4  1  0  0  0  0
 11 16  1  0  0  0  0
 11 17  1  0  0  0  0
 12 11  2  0  0  0  0
 13 14  2  0  0  0  0
 13 12  1  0  0  0  0
 14 15  1  0  0  0  0
 15  3  1  0  0  0  0
 15 16  2  0  0  0  0
 18 12  1  0  0  0  0
 19 13  1  0  0  0  0
 20  5  1  0  0  0  0
 21 20  1  0  0  0  0
 21 26  1  0  0  0  0
 22 21  2  0  0  0  0
 23 24  2  0  0  0  0
 23 22  1  0  0  0  0
 24 25  1  0  0  0  0
 25 20  2  0  0  0  0
 27 22  1  0  0  0  0
 28 24  1  0  0  0  0
 29 30  1  0  0  0  0
 29 28  2  0  0  0  0
 31 32  1  0  0  0  0
 31 29  1  0  0  0  0
 32 34  2  0  0  0  0
 33 32  1  0  0  0  0
 34 28  1  0  0  0  0
M  END
>  <minimizedAffinity>
-6.23726797

>  <minimizedRMSD>
0.271803916

$$$$
