
 OpenBabel03272505123D

 37 40  0  0  0  0  0  0  0  0999 V2000
   36.3930   30.8520   45.6410 Cl  0  0  0  0  0  0  0  0  0  0  0  0
   36.6590   30.7080   47.3540 C   0  0  0  0  0  0  0  0  0  0  0  0
   37.9110   31.0470   47.8320 C   0  0  0  0  0  0  0  0  0  0  0  0
   38.1330   30.9360   49.1890 C   0  0  0  0  0  0  0  0  0  0  0  0
   37.1260   30.5000   50.0180 C   0  0  0  0  0  0  0  0  0  0  0  0
   35.8810   30.1730   49.4710 C   0  0  0  0  0  0  0  0  0  0  0  0
   35.5980   30.2620   48.1340 C   0  0  0  0  0  0  0  0  0  0  0  0
   39.0910   31.1920   49.5810 H   0  0  0  0  0  0  0  0  0  0  0  0
   37.3040   30.4160   51.0810 H   0  0  0  0  0  0  0  0  0  0  0  0
   35.1140   29.8350   50.1540 H   0  0  0  0  0  0  0  0  0  0  0  0
   40.1790   33.3050   46.0900 C   0  0  0  0  0  0  0  0  0  0  0  0
   40.9050   32.4580   45.2180 C   0  0  0  0  0  0  0  0  0  0  0  0
   40.5920   31.0990   45.2500 C   0  0  0  0  0  0  0  0  0  0  0  0
   39.6200   30.6650   46.1030 N   0  0  0  0  0  0  0  0  0  0  0  0
   38.9620   31.5100   46.9080 C   0  0  0  0  0  0  0  0  0  0  0  0
   39.2440   32.8060   46.8930 N   0  0  0  0  0  0  0  0  0  0  0  0
   40.4510   34.3570   46.0360 H   0  0  0  0  0  0  0  0  0  0  0  0
   41.6720   32.7500   44.5340 H   0  0  0  0  0  0  0  0  0  0  0  0
   41.0640   30.3320   44.6400 H   0  0  0  0  0  0  0  0  0  0  0  0
   34.0440   29.8590   47.4160 S   0  0  0  0  0  0  0  0  0  0  0  0
   33.8400   29.0280   44.3960 Cl  0  0  0  0  0  0  0  0  0  0  0  0
   33.8300   27.8260   45.6850 C   0  0  0  0  0  0  0  0  0  0  0  0
   33.9150   28.1100   47.0420 C   0  0  0  0  0  0  0  0  0  0  0  0
   33.8930   27.0700   47.9320 C   0  0  0  0  0  0  0  0  0  0  0  0
   33.7910   25.7770   47.5350 C   0  0  0  0  0  0  0  0  0  0  0  0
   33.7050   25.4570   46.1850 C   0  0  0  0  0  0  0  0  0  0  0  0
   33.7250   26.5010   45.2670 C   0  0  0  0  0  0  0  0  0  0  0  0
   33.9640   27.3940   48.9610 H   0  0  0  0  0  0  0  0  0  0  0  0
   33.7800   25.0170   48.3040 H   0  0  0  0  0  0  0  0  0  0  0  0
   33.6250   24.4140   45.9160 H   0  0  0  0  0  0  0  0  0  0  0  0
   33.6330   26.1520   43.8200 C   0  0  0  0  0  0  0  0  0  0  0  0
   34.7490   25.8410   43.0770 C   0  0  0  0  0  0  0  0  0  0  0  0
   35.7960   25.7880   43.3440 H   0  0  0  0  0  0  0  0  0  0  0  0
   34.0430   25.5060   41.4080 S   0  0  0  0  0  0  0  0  0  0  0  0
   32.2990   25.8600   42.0390 C   0  0  0  0  0  0  0  0  0  0  0  0
   31.3410   25.8330   41.4930 H   0  0  0  0  0  0  0  0  0  0  0  0
   32.5050   26.1130   43.1490 N   0  0  0  0  0  0  0  0  0  0  0  0
  1  2  1  0  0  0  0
  2  3  2  0  0  0  0
  2  7  1  0  0  0  0
  3  4  1  0  0  0  0
  4  8  1  0  0  0  0
  4  5  2  0  0  0  0
  5  9  1  0  0  0  0
  6  5  1  0  0  0  0
  6 10  1  0  0  0  0
  7  6  2  0  0  0  0
 11 16  1  0  0  0  0
 12 13  1  0  0  0  0
 12 11  2  0  0  0  0
 13 14  2  0  0  0  0
 14 15  1  0  0  0  0
 15  3  1  0  0  0  0
 16 15  2  0  0  0  0
 17 11  1  0  0  0  0
 18 12  1  0  0  0  0
 19 13  1  0  0  0  0
 20  7  1  0  0  0  0
 21 22  1  0  0  0  0
 22 23  1  0  0  0  0
 23 20  1  0  0  0  0
 23 24  2  0  0  0  0
 24 28  1  0  0  0  0
 25 24  1  0  0  0  0
 25 29  1  0  0  0  0
 26 25  2  0  0  0  0
 27 22  2  0  0  0  0
 27 26  1  0  0  0  0
 30 26  1  0  0  0  0
 31 27  1  0  0  0  0
 32 33  1  0  0  0  0
 32 31  2  0  0  0  0
 34 35  1  0  0  0  0
 34 32  1  0  0  0  0
 35 37  2  0  0  0  0
 36 35  1  0  0  0  0
 37 31  1  0  0  0  0
M  END
>  <minimizedAffinity>
-5.59260321

>  <minimizedRMSD>
0.32291615

$$$$
