
 OpenBabel03272508123D

 32 34  0  0  0  0  0  0  0  0999 V2000
   36.5970   29.4900   44.0640 Cl  0  0  0  0  0  0  0  0  0  0  0  0
   38.2530   29.8380   43.5010 C   0  0  0  0  0  0  0  0  0  0  0  0
   39.2610   30.2970   44.3320 C   0  0  0  0  0  0  0  0  0  0  0  0
   40.4890   30.5220   43.7490 C   0  0  0  0  0  0  0  0  0  0  0  0
   40.7220   30.3090   42.4170 C   0  0  0  0  0  0  0  0  0  0  0  0
   39.7320   29.8590   41.6070 C   0  0  0  0  0  0  0  0  0  0  0  0
   38.4770   29.6150   42.1340 C   0  0  0  0  0  0  0  0  0  0  0  0
   41.2330   30.8780   44.4460 H   0  0  0  0  0  0  0  0  0  0  0  0
   41.7240   30.5200   42.0730 H   0  0  0  0  0  0  0  0  0  0  0  0
   39.9340   29.6970   40.5610 H   0  0  0  0  0  0  0  0  0  0  0  0
   37.3730   29.1220   41.2730 C   0  0  0  0  0  0  0  0  0  0  0  0
   36.5970   30.0300   40.5600 C   0  0  0  0  0  0  0  0  0  0  0  0
   36.5930   31.1270   40.4620 H   0  0  0  0  0  0  0  0  0  0  0  0
   35.3750   28.9020   39.6580 S   0  0  0  0  0  0  0  0  0  0  0  0
   36.2030   27.3990   40.4650 C   0  0  0  0  0  0  0  0  0  0  0  0
   36.0570   26.2120   40.4480 H   0  0  0  0  0  0  0  0  0  0  0  0
   37.0150   27.8610   41.0900 N   0  0  0  0  0  0  0  0  0  0  0  0
   38.8490   30.4520   45.6260 O   0  0  0  0  0  0  0  0  0  0  0  0
   39.4470   32.4770   47.1080 O   0  0  0  0  0  0  0  0  0  0  0  0
   38.3030   31.8270   46.4150 P   0  0  1  0  0  0  0  0  0  0  0  0
   37.7280   32.8450   45.1710 O   0  0  0  0  0  0  0  0  0  0  0  0
   38.5220   33.2970   44.7610 H   0  0  0  0  0  0  0  0  0  0  0  0
   37.0220   31.4100   47.4440 O   0  0  0  0  0  0  0  0  0  0  0  0
   37.6130   30.5300   50.9820 C   0  0  0  0  0  0  0  0  0  0  0  0
   37.7070   31.3040   49.8260 C   0  0  0  0  0  0  0  0  0  0  0  0
   37.0710   30.8400   48.6670 C   0  0  0  0  0  0  0  0  0  0  0  0
   36.3950   29.6550   48.7400 N   0  0  0  0  0  0  0  0  0  0  0  0
   36.3260   28.9340   49.8770 C   0  0  0  0  0  0  0  0  0  0  0  0
   36.9340   29.3720   50.9930 N   0  0  0  0  0  0  0  0  0  0  0  0
   38.1340   30.9780   51.8000 H   0  0  0  0  0  0  0  0  0  0  0  0
   38.2120   32.2300   49.6960 H   0  0  0  0  0  0  0  0  0  0  0  0
   35.7900   27.9950   49.9340 H   0  0  0  0  0  0  0  0  0  0  0  0
  2  1  1  0  0  0  0
  2  3  1  0  0  0  0
  3 18  1  0  0  0  0
  4  3  2  0  0  0  0
  4  8  1  0  0  0  0
  5  4  1  0  0  0  0
  6  7  1  0  0  0  0
  6  5  2  0  0  0  0
  7  2  2  0  0  0  0
  9  5  1  0  0  0  0
 10  6  1  0  0  0  0
 11  7  1  0  0  0  0
 12 11  2  0  0  0  0
 13 12  1  0  0  0  0
 14 15  1  0  0  0  0
 14 12  1  0  0  0  0
 15 17  2  0  0  0  0
 16 15  1  0  0  0  0
 17 11  1  0  0  0  0
 18 20  1  0  0  0  0
 20 19  2  1  0  0  0
 20 23  1  0  0  0  0
 21 20  1  0  0  0  0
 22 21  1  0  0  0  0
 23 26  1  0  0  0  0
 24 29  1  0  0  0  0
 24 30  1  0  0  0  0
 25 24  2  0  0  0  0
 26 27  2  0  0  0  0
 26 25  1  0  0  0  0
 27 28  1  0  0  0  0
 28 32  1  0  0  0  0
 28 29  2  0  0  0  0
 31 25  1  0  0  0  0
M  END
>  <minimizedAffinity>
-4.80207109

>  <minimizedRMSD>
0.0811106414

$$$$
