
 OpenBabel03272505123D

 37 40  0  0  0  0  0  0  0  0999 V2000
   36.4020   30.9040   45.7080 Cl  0  0  0  0  0  0  0  0  0  0  0  0
   36.6870   30.7780   47.4200 C   0  0  0  0  0  0  0  0  0  0  0  0
   37.9480   31.1090   47.8790 C   0  0  0  0  0  0  0  0  0  0  0  0
   38.1840   31.0120   49.2350 C   0  0  0  0  0  0  0  0  0  0  0  0
   37.1820   30.5970   50.0810 C   0  0  0  0  0  0  0  0  0  0  0  0
   35.9270   30.2770   49.5520 C   0  0  0  0  0  0  0  0  0  0  0  0
   35.6300   30.3520   48.2170 C   0  0  0  0  0  0  0  0  0  0  0  0
   39.1500   31.2620   49.6130 H   0  0  0  0  0  0  0  0  0  0  0  0
   37.3710   30.5230   51.1420 H   0  0  0  0  0  0  0  0  0  0  0  0
   35.1650   29.9550   50.2470 H   0  0  0  0  0  0  0  0  0  0  0  0
   40.2110   33.3230   46.0760 C   0  0  0  0  0  0  0  0  0  0  0  0
   40.9250   32.4570   45.2130 C   0  0  0  0  0  0  0  0  0  0  0  0
   40.6050   31.1000   45.2720 C   0  0  0  0  0  0  0  0  0  0  0  0
   39.6380   30.6870   46.1420 N   0  0  0  0  0  0  0  0  0  0  0  0
   38.9920   31.5490   46.9370 C   0  0  0  0  0  0  0  0  0  0  0  0
   39.2820   32.8430   46.8970 N   0  0  0  0  0  0  0  0  0  0  0  0
   40.4890   34.3720   46.0010 H   0  0  0  0  0  0  0  0  0  0  0  0
   41.6870   32.7320   44.5170 H   0  0  0  0  0  0  0  0  0  0  0  0
   41.0670   30.3200   44.6720 H   0  0  0  0  0  0  0  0  0  0  0  0
   34.0630   29.9570   47.5220 S   0  0  0  0  0  0  0  0  0  0  0  0
   33.8280   29.1970   44.4860 Cl  0  0  0  0  0  0  0  0  0  0  0  0
   33.8370   27.9650   45.7460 C   0  0  0  0  0  0  0  0  0  0  0  0
   33.9370   28.2170   47.1080 C   0  0  0  0  0  0  0  0  0  0  0  0
   33.9290   27.1560   47.9740 C   0  0  0  0  0  0  0  0  0  0  0  0
   33.8270   25.8730   47.5470 C   0  0  0  0  0  0  0  0  0  0  0  0
   33.7260   25.5850   46.1900 C   0  0  0  0  0  0  0  0  0  0  0  0
   33.7330   26.6490   45.2970 C   0  0  0  0  0  0  0  0  0  0  0  0
   34.0100   27.4560   49.0090 H   0  0  0  0  0  0  0  0  0  0  0  0
   33.8280   25.0950   48.2980 H   0  0  0  0  0  0  0  0  0  0  0  0
   33.6480   24.5480   45.8980 H   0  0  0  0  0  0  0  0  0  0  0  0
   33.6250   26.3350   43.8440 C   0  0  0  0  0  0  0  0  0  0  0  0
   34.7350   26.0790   43.0740 C   0  0  0  0  0  0  0  0  0  0  0  0
   35.7890   26.0540   43.3210 H   0  0  0  0  0  0  0  0  0  0  0  0
   34.0100   25.7650   41.4080 S   0  0  0  0  0  0  0  0  0  0  0  0
   32.2690   26.0460   42.0800 C   0  0  0  0  0  0  0  0  0  0  0  0
   31.3020   26.0030   41.5500 H   0  0  0  0  0  0  0  0  0  0  0  0
   32.4870   26.2770   43.1920 N   0  0  0  0  0  0  0  0  0  0  0  0
  1  2  1  0  0  0  0
  2  3  2  0  0  0  0
  2  7  1  0  0  0  0
  3  4  1  0  0  0  0
  4  8  1  0  0  0  0
  4  5  2  0  0  0  0
  5  9  1  0  0  0  0
  6  5  1  0  0  0  0
  6 10  1  0  0  0  0
  7  6  2  0  0  0  0
 11 16  1  0  0  0  0
 12 13  1  0  0  0  0
 12 11  2  0  0  0  0
 13 14  2  0  0  0  0
 14 15  1  0  0  0  0
 15  3  1  0  0  0  0
 16 15  2  0  0  0  0
 17 11  1  0  0  0  0
 18 12  1  0  0  0  0
 19 13  1  0  0  0  0
 20  7  1  0  0  0  0
 21 22  1  0  0  0  0
 22 23  1  0  0  0  0
 23 20  1  0  0  0  0
 23 24  2  0  0  0  0
 24 28  1  0  0  0  0
 25 24  1  0  0  0  0
 25 29  1  0  0  0  0
 26 25  2  0  0  0  0
 27 22  2  0  0  0  0
 27 26  1  0  0  0  0
 30 26  1  0  0  0  0
 31 27  1  0  0  0  0
 32 33  1  0  0  0  0
 32 31  2  0  0  0  0
 34 35  1  0  0  0  0
 34 32  1  0  0  0  0
 35 37  2  0  0  0  0
 36 35  1  0  0  0  0
 37 31  1  0  0  0  0
M  END
>  <minimizedAffinity>
-5.60915947

>  <minimizedRMSD>
0.137429729

$$$$
