
 OpenBabel03272505113D

 37 40  0  0  0  0  0  0  0  0999 V2000
   36.4140   30.9030   45.6980 Cl  0  0  0  0  0  0  0  0  0  0  0  0
   36.6920   30.7800   47.4110 C   0  0  0  0  0  0  0  0  0  0  0  0
   37.9510   31.1140   47.8750 C   0  0  0  0  0  0  0  0  0  0  0  0
   38.1820   31.0190   49.2310 C   0  0  0  0  0  0  0  0  0  0  0  0
   37.1780   30.6030   50.0740 C   0  0  0  0  0  0  0  0  0  0  0  0
   35.9260   30.2800   49.5410 C   0  0  0  0  0  0  0  0  0  0  0  0
   35.6340   30.3530   48.2040 C   0  0  0  0  0  0  0  0  0  0  0  0
   39.1460   31.2730   49.6130 H   0  0  0  0  0  0  0  0  0  0  0  0
   37.3640   30.5320   51.1360 H   0  0  0  0  0  0  0  0  0  0  0  0
   35.1620   29.9570   50.2340 H   0  0  0  0  0  0  0  0  0  0  0  0
   40.2140   33.3320   46.0760 C   0  0  0  0  0  0  0  0  0  0  0  0
   40.9350   32.4650   45.2180 C   0  0  0  0  0  0  0  0  0  0  0  0
   40.6200   31.1070   45.2790 C   0  0  0  0  0  0  0  0  0  0  0  0
   39.6510   30.6940   46.1460 N   0  0  0  0  0  0  0  0  0  0  0  0
   38.9980   31.5560   46.9360 C   0  0  0  0  0  0  0  0  0  0  0  0
   39.2830   32.8510   46.8930 N   0  0  0  0  0  0  0  0  0  0  0  0
   40.4880   34.3810   45.9990 H   0  0  0  0  0  0  0  0  0  0  0  0
   41.6990   32.7410   44.5250 H   0  0  0  0  0  0  0  0  0  0  0  0
   41.0870   30.3270   44.6840 H   0  0  0  0  0  0  0  0  0  0  0  0
   34.0700   29.9540   47.5050 S   0  0  0  0  0  0  0  0  0  0  0  0
   33.8820   29.1620   44.4730 Cl  0  0  0  0  0  0  0  0  0  0  0  0
   33.8650   27.9440   45.7460 C   0  0  0  0  0  0  0  0  0  0  0  0
   33.9430   28.2100   47.1070 C   0  0  0  0  0  0  0  0  0  0  0  0
   33.9170   27.1580   47.9840 C   0  0  0  0  0  0  0  0  0  0  0  0
   33.8160   25.8700   47.5690 C   0  0  0  0  0  0  0  0  0  0  0  0
   33.7370   25.5680   46.2140 C   0  0  0  0  0  0  0  0  0  0  0  0
   33.7620   26.6240   45.3100 C   0  0  0  0  0  0  0  0  0  0  0  0
   33.9830   27.4680   49.0170 H   0  0  0  0  0  0  0  0  0  0  0  0
   33.8020   25.1010   48.3280 H   0  0  0  0  0  0  0  0  0  0  0  0
   33.6590   24.5290   45.9310 H   0  0  0  0  0  0  0  0  0  0  0  0
   33.6770   26.2930   43.8580 C   0  0  0  0  0  0  0  0  0  0  0  0
   32.4690   26.1250   43.2240 C   0  0  0  0  0  0  0  0  0  0  0  0
   31.4530   26.1880   43.5900 H   0  0  0  0  0  0  0  0  0  0  0  0
   32.9700   25.7430   41.4920 S   0  0  0  0  0  0  0  0  0  0  0  0
   34.7940   25.8860   41.9550 C   0  0  0  0  0  0  0  0  0  0  0  0
   35.6870   25.7600   41.3190 H   0  0  0  0  0  0  0  0  0  0  0  0
   34.7250   26.1390   43.0820 N   0  0  0  0  0  0  0  0  0  0  0  0
  1  2  1  0  0  0  0
  2  3  2  0  0  0  0
  2  7  1  0  0  0  0
  3  4  1  0  0  0  0
  4  8  1  0  0  0  0
  4  5  2  0  0  0  0
  5  9  1  0  0  0  0
  6  5  1  0  0  0  0
  6 10  1  0  0  0  0
  7  6  2  0  0  0  0
 11 16  1  0  0  0  0
 12 13  1  0  0  0  0
 12 11  2  0  0  0  0
 13 14  2  0  0  0  0
 14 15  1  0  0  0  0
 15  3  1  0  0  0  0
 16 15  2  0  0  0  0
 17 11  1  0  0  0  0
 18 12  1  0  0  0  0
 19 13  1  0  0  0  0
 20  7  1  0  0  0  0
 21 22  1  0  0  0  0
 22 23  1  0  0  0  0
 23 20  1  0  0  0  0
 23 24  2  0  0  0  0
 24 28  1  0  0  0  0
 25 24  1  0  0  0  0
 25 29  1  0  0  0  0
 26 25  2  0  0  0  0
 27 22  2  0  0  0  0
 27 26  1  0  0  0  0
 30 26  1  0  0  0  0
 31 27  1  0  0  0  0
 32 33  1  0  0  0  0
 32 31  2  0  0  0  0
 34 35  1  0  0  0  0
 34 32  1  0  0  0  0
 35 37  2  0  0  0  0
 36 35  1  0  0  0  0
 37 31  1  0  0  0  0
M  END
>  <minimizedAffinity>
-5.63008118

>  <minimizedRMSD>
0.102625594

$$$$
