
 OpenBabel03272506483D

 40 43  0  0  1  0  0  0  0  0999 V2000
   31.9970   28.3840   47.4890 C   0  0  2  0  0  0  0  0  0  0  0  0
   33.2570   28.1670   48.2720 C   0  0  1  0  0  0  0  0  0  0  0  0
   33.5960   26.8530   48.1730 O   0  0  0  0  0  0  0  0  0  0  0  0
   32.8380   26.2590   47.1690 C   0  0  0  0  0  0  0  0  0  0  0  0
   32.2610   27.3730   46.3270 C   0  0  1  0  0  0  0  0  0  0  0  0
   31.0710   28.1360   47.9920 H   0  0  0  0  0  0  0  0  0  0  0  0
   33.0890   28.5240   49.3060 H   0  0  0  0  0  0  0  0  0  0  0  0
   32.1230   25.6160   47.6610 H   0  0  0  0  0  0  0  0  0  0  0  0
   33.5500   25.6760   46.5300 H   0  0  0  0  0  0  0  0  0  0  0  0
   32.9840   27.8600   45.6830 H   0  0  0  0  0  0  0  0  0  0  0  0
   31.9590   29.6910   46.9610 O   0  0  0  0  0  0  0  0  0  0  0  0
   32.3480   29.7340   46.0580 H   0  0  0  0  0  0  0  0  0  0  0  0
   34.5850   29.1610   47.4860 S   0  0  0  0  0  0  0  0  0  0  0  0
   36.9920   29.2520   50.6330 C   0  0  0  0  0  0  0  0  0  0  0  0
   37.3990   30.5860   50.7330 C   0  0  0  0  0  0  0  0  0  0  0  0
   36.9100   31.4960   49.7880 C   0  0  0  0  0  0  0  0  0  0  0  0
   36.0690   31.0360   48.8280 N   0  0  0  0  0  0  0  0  0  0  0  0
   35.6970   29.7400   48.7620 C   0  0  0  0  0  0  0  0  0  0  0  0
   36.1520   28.8310   49.6620 N   0  0  0  0  0  0  0  0  0  0  0  0
   37.3840   28.5710   51.3760 H   0  0  0  0  0  0  0  0  0  0  0  0
   38.0700   30.9460   51.5010 H   0  0  0  0  0  0  0  0  0  0  0  0
   37.1630   32.5470   49.7780 H   0  0  0  0  0  0  0  0  0  0  0  0
   31.0780   26.9460   45.7730 O   0  0  0  0  0  0  0  0  0  0  0  0
   29.8970   29.2080   44.3090 Cl  0  0  0  0  0  0  0  0  0  0  0  0
   29.2010   28.2710   45.6150 C   0  0  0  0  0  0  0  0  0  0  0  0
   29.8550   27.2200   46.2110 C   0  0  0  0  0  0  0  0  0  0  0  0
   29.1860   26.5250   47.2190 C   0  0  0  0  0  0  0  0  0  0  0  0
   27.9130   26.8880   47.5980 C   0  0  0  0  0  0  0  0  0  0  0  0
   27.2510   27.9420   47.0050 C   0  0  0  0  0  0  0  0  0  0  0  0
   27.9200   28.6460   45.9890 C   0  0  0  0  0  0  0  0  0  0  0  0
   29.6010   25.6840   47.7470 H   0  0  0  0  0  0  0  0  0  0  0  0
   27.3650   26.3750   48.3730 H   0  0  0  0  0  0  0  0  0  0  0  0
   26.2580   28.2190   47.3060 H   0  0  0  0  0  0  0  0  0  0  0  0
   27.2620   29.7740   45.3290 C   0  0  0  0  0  0  0  0  0  0  0  0
   27.2910   31.0460   45.8860 C   0  0  0  0  0  0  0  0  0  0  0  0
   27.7610   31.4670   46.8490 H   0  0  0  0  0  0  0  0  0  0  0  0
   26.3220   32.1230   44.6770 S   0  0  0  0  0  0  0  0  0  0  0  0
   26.0590   30.5800   43.6150 C   0  0  0  0  0  0  0  0  0  0  0  0
   25.5110   30.2570   42.5600 H   0  0  0  0  0  0  0  0  0  0  0  0
   26.5920   29.7760   44.1950 N   0  0  0  0  0  0  0  0  0  0  0  0
  1  6  1  1  0  0  0
  1  2  1  0  0  0  0
  2  7  1  1  0  0  0
  3  2  1  0  0  0  0
  4  8  1  0  0  0  0
  4  3  1  0  0  0  0
  5 10  1  6  0  0  0
  5  4  1  0  0  0  0
  5  1  1  0  0  0  0
  9  4  1  0  0  0  0
 11  1  1  0  0  0  0
 12 11  1  0  0  0  0
 13  2  1  0  0  0  0
 13 18  1  0  0  0  0
 14 15  1  0  0  0  0
 14 20  1  0  0  0  0
 15 21  1  0  0  0  0
 16 15  2  0  0  0  0
 17 16  1  0  0  0  0
 18 17  2  0  0  0  0
 18 19  1  0  0  0  0
 19 14  2  0  0  0  0
 22 16  1  0  0  0  0
 23 26  1  0  0  0  0
 23  5  1  0  0  0  0
 24 25  1  0  0  0  0
 25 30  2  0  0  0  0
 25 26  1  0  0  0  0
 26 27  2  0  0  0  0
 27 28  1  0  0  0  0
 27 31  1  0  0  0  0
 28 32  1  0  0  0  0
 29 33  1  0  0  0  0
 29 28  2  0  0  0  0
 30 29  1  0  0  0  0
 34 35  2  0  0  0  0
 34 30  1  0  0  0  0
 35 36  1  0  0  0  0
 37 35  1  0  0  0  0
 38 40  2  0  0  0  0
 38 37  1  0  0  0  0
 39 38  1  0  0  0  0
 40 34  1  0  0  0  0
M  END
>  <minimizedAffinity>
-5.17717886

>  <minimizedRMSD>
0.552682459

$$$$
