
 OpenBabel03272508553D

 36 39  0  0  1  0  0  0  0  0999 V2000
   38.3010   31.8970   44.5390 C   0  0  0  0  0  0  0  0  0  0  0  0
   37.1450   32.3530   44.4440 O   0  0  0  0  0  0  0  0  0  0  0  0
   38.9300   31.7320   45.8350 N   0  0  0  0  0  0  0  0  0  0  0  0
   39.9390   31.5340   45.9780 H   0  0  0  0  0  0  0  0  0  0  0  0
   39.0960   31.4990   43.3500 C   0  0  0  0  0  0  0  0  0  0  0  0
   40.0830   30.5610   43.4910 C   0  0  0  0  0  0  0  0  0  0  0  0
   40.8010   30.2370   42.3500 C   0  0  0  0  0  0  0  0  0  0  0  0
   40.4930   30.8590   41.1690 C   0  0  0  0  0  0  0  0  0  0  0  0
   39.4950   31.8050   41.0300 C   0  0  0  0  0  0  0  0  0  0  0  0
   38.8430   32.0710   42.1630 N   0  0  0  0  0  0  0  0  0  0  0  0
   40.3110   30.0810   44.4330 H   0  0  0  0  0  0  0  0  0  0  0  0
   41.6030   29.5090   42.3470 H   0  0  0  0  0  0  0  0  0  0  0  0
   41.0630   30.6030   40.2630 H   0  0  0  0  0  0  0  0  0  0  0  0
   39.1400   32.4850   39.7930 C   0  0  0  0  0  0  0  0  0  0  0  0
   38.4120   33.6760   39.8910 C   0  0  0  0  0  0  0  0  0  0  0  0
   37.9790   34.3240   40.7220 H   0  0  0  0  0  0  0  0  0  0  0  0
   38.1830   34.1910   38.0890 S   0  0  0  0  0  0  0  0  0  0  0  0
   39.1480   32.6440   37.5650 C   0  0  0  0  0  0  0  0  0  0  0  0
   39.5120   32.1240   36.5360 H   0  0  0  0  0  0  0  0  0  0  0  0
   39.3950   32.1610   38.5460 N   0  0  0  0  0  0  0  0  0  0  0  0
   38.4540   31.1750   48.2160 C   0  0  2  0  0  0  0  0  0  0  0  0
   38.7320   32.6190   48.1690 C   0  0  0  0  0  0  0  0  0  0  0  0
   38.0700   31.8540   47.0010 C   0  0  1  0  0  0  0  0  0  0  0  0
   39.3570   30.5340   48.2490 H   0  0  0  0  0  0  0  0  0  0  0  0
   39.7750   32.9530   48.0310 H   0  0  0  0  0  0  0  0  0  0  0  0
   38.1120   33.3430   48.7310 H   0  0  0  0  0  0  0  0  0  0  0  0
   37.0190   32.1940   46.8330 H   0  0  0  0  0  0  0  0  0  0  0  0
   35.1180   30.2310   49.5340 C   0  0  0  0  0  0  0  0  0  0  0  0
   35.4520   29.5550   50.7430 C   0  0  0  0  0  0  0  0  0  0  0  0
   36.8530   29.4460   51.0850 C   0  0  0  0  0  0  0  0  0  0  0  0
   37.7820   29.9870   50.2470 N   0  0  0  0  0  0  0  0  0  0  0  0
   37.3820   30.6180   49.1080 C   0  0  0  0  0  0  0  0  0  0  0  0
   36.0630   30.7570   48.7230 N   0  0  0  0  0  0  0  0  0  0  0  0
   34.0630   30.2860   49.3250 H   0  0  0  0  0  0  0  0  0  0  0  0
   34.6920   29.1450   51.3740 H   0  0  0  0  0  0  0  0  0  0  0  0
   37.1150   28.9370   51.9970 H   0  0  0  0  0  0  0  0  0  0  0  0
  1  3  1  0  0  0  0
  2  1  2  0  0  0  0
  3  4  1  0  0  0  0
  3 23  1  0  0  0  0
  5  6  1  0  0  0  0
  5  1  1  0  0  0  0
  6 11  1  0  0  0  0
  7  6  2  0  0  0  0
  8  7  1  0  0  0  0
  9  8  2  0  0  0  0
  9 10  1  0  0  0  0
 10  5  2  0  0  0  0
 12  7  1  0  0  0  0
 13  8  1  0  0  0  0
 14 15  2  0  0  0  0
 14  9  1  0  0  0  0
 15 16  1  0  0  0  0
 17 15  1  0  0  0  0
 18 17  1  0  0  0  0
 18 20  2  0  0  0  0
 19 18  1  0  0  0  0
 20 14  1  0  0  0  0
 21 24  1  6  0  0  0
 21 32  1  0  0  0  0
 22 21  1  0  0  0  0
 22 26  1  0  0  0  0
 23 27  1  6  0  0  0
 23 22  1  0  0  0  0
 23 21  1  0  0  0  0
 25 22  1  0  0  0  0
 28 29  1  0  0  0  0
 29 30  2  0  0  0  0
 29 35  1  0  0  0  0
 30 36  1  0  0  0  0
 31 30  1  0  0  0  0
 32 31  2  0  0  0  0
 33 32  1  0  0  0  0
 33 28  2  0  0  0  0
 34 28  1  0  0  0  0
M  END
>  <minimizedAffinity>
-5.18368053

>  <minimizedRMSD>
0.605829

$$$$
