
 OpenBabel03272509343D

 39 43  0  0  1  0  0  0  0  0999 V2000
   38.8530   26.7500   34.6400 C   0  0  1  0  0  0  0  0  0  0  0  0
   38.1430   27.1890   35.8530 C   0  0  0  0  0  0  0  0  0  0  0  0
   37.8990   25.7920   35.4080 C   0  0  2  0  0  0  0  0  0  0  0  0
   39.8670   26.3920   34.6970 H   0  0  0  0  0  0  0  0  0  0  0  0
   37.2720   27.8850   35.6450 H   0  0  0  0  0  0  0  0  0  0  0  0
   38.8060   27.5730   36.6050 H   0  0  0  0  0  0  0  0  0  0  0  0
   37.2330   25.3300   34.7050 H   0  0  0  0  0  0  0  0  0  0  0  0
   38.4830   24.8250   36.3750 C   0  0  0  0  0  0  0  0  0  0  0  0
   37.8790   24.9640   37.6300 C   0  0  0  0  0  0  0  0  0  0  0  0
   38.1940   24.1160   38.6710 C   0  0  0  0  0  0  0  0  0  0  0  0
   39.1250   23.0970   38.4940 C   0  0  0  0  0  0  0  0  0  0  0  0
   39.7050   22.9810   37.2510 C   0  0  0  0  0  0  0  0  0  0  0  0
   40.6500   22.0210   36.9460 C   0  0  0  0  0  0  0  0  0  0  0  0
   41.2450   21.9020   35.7040 C   0  0  0  0  0  0  0  0  0  0  0  0
   40.8840   22.7850   34.6990 C   0  0  0  0  0  0  0  0  0  0  0  0
   39.9420   23.7470   34.9920 C   0  0  0  0  0  0  0  0  0  0  0  0
   39.3770   23.8290   36.2380 C   0  0  0  0  0  0  0  0  0  0  0  0
   37.1420   25.5970   38.0810 H   0  0  0  0  0  0  0  0  0  0  0  0
   37.8300   24.0840   39.6840 H   0  0  0  0  0  0  0  0  0  0  0  0
   39.4860   22.3540   39.1940 H   0  0  0  0  0  0  0  0  0  0  0  0
   40.9460   21.3170   37.7230 H   0  0  0  0  0  0  0  0  0  0  0  0
   41.9850   21.1330   35.4980 H   0  0  0  0  0  0  0  0  0  0  0  0
   41.3070   22.7500   33.7060 H   0  0  0  0  0  0  0  0  0  0  0  0
   39.6720   24.4390   34.1750 H   0  0  0  0  0  0  0  0  0  0  0  0
   38.4580   27.1950   30.9170 C   0  0  0  0  0  0  0  0  0  0  0  0
   38.9820   26.7750   32.1730 C   0  0  0  0  0  0  0  0  0  0  0  0
   38.3290   27.1580   33.3200 C   0  0  0  0  0  0  0  0  0  0  0  0
   37.2170   27.9180   33.1590 N   0  0  0  0  0  0  0  0  0  0  0  0
   36.7240   28.3130   31.9740 C   0  0  0  0  0  0  0  0  0  0  0  0
   37.3550   27.9450   30.8310 N   0  0  0  0  0  0  0  0  0  0  0  0
   38.9860   26.8830   30.0270 H   0  0  0  0  0  0  0  0  0  0  0  0
   39.8830   26.1660   32.1730 H   0  0  0  0  0  0  0  0  0  0  0  0
   35.4970   29.1400   32.0280 C   0  0  0  0  0  0  0  0  0  0  0  0
   35.6180   30.2380   31.2210 C   0  0  0  0  0  0  0  0  0  0  0  0
   36.3410   30.7140   30.5340 H   0  0  0  0  0  0  0  0  0  0  0  0
   34.0270   31.1490   31.3990 S   0  0  0  0  0  0  0  0  0  0  0  0
   33.4380   29.8010   32.6110 C   0  0  0  0  0  0  0  0  0  0  0  0
   32.5660   29.2980   33.3910 H   0  0  0  0  0  0  0  0  0  0  0  0
   34.3300   29.1200   32.6260 N   0  0  0  0  0  0  0  0  0  0  0  0
  1  4  1  1  0  0  0
  1  3  1  0  0  0  0
  1  2  1  0  0  0  0
  2  6  1  0  0  0  0
  3  7  1  6  0  0  0
  3  2  1  0  0  0  0
  3  8  1  0  0  0  0
  5  2  1  0  0  0  0
  8  9  1  0  0  0  0
  9 18  1  0  0  0  0
  9 10  2  0  0  0  0
 10 19  1  0  0  0  0
 11 10  1  0  0  0  0
 11 20  1  0  0  0  0
 12 11  2  0  0  0  0
 13 12  1  0  0  0  0
 13 21  1  0  0  0  0
 14 13  2  0  0  0  0
 15 16  2  0  0  0  0
 15 14  1  0  0  0  0
 16 17  1  0  0  0  0
 17  8  2  0  0  0  0
 17 12  1  0  0  0  0
 22 14  1  0  0  0  0
 23 15  1  0  0  0  0
 24 16  1  0  0  0  0
 25 26  1  0  0  0  0
 26 32  1  0  0  0  0
 26 27  2  0  0  0  0
 27  1  1  0  0  0  0
 28 27  1  0  0  0  0
 29 33  1  0  0  0  0
 29 28  2  0  0  0  0
 30 25  2  0  0  0  0
 30 29  1  0  0  0  0
 31 25  1  0  0  0  0
 33 39  1  0  0  0  0
 34 36  1  0  0  0  0
 34 33  2  0  0  0  0
 35 34  1  0  0  0  0
 36 37  1  0  0  0  0
 37 39  2  0  0  0  0
 37 38  1  0  0  0  0
M  END
>  <minimizedAffinity>
-6.24688005

$$$$

 OpenBabel03272509343D

 39 43  0  0  1  0  0  0  0  0999 V2000
   38.3590   27.1260   33.8480 C   0  0  1  0  0  0  0  0  0  0  0  0
   37.9860   27.1400   35.2720 C   0  0  0  0  0  0  0  0  0  0  0  0
   37.7370   25.8770   34.5310 C   0  0  2  0  0  0  0  0  0  0  0  0
   39.3730   26.9230   33.5490 H   0  0  0  0  0  0  0  0  0  0  0  0
   37.0390   27.7270   35.4890 H   0  0  0  0  0  0  0  0  0  0  0  0
   38.8000   27.4240   35.9110 H   0  0  0  0  0  0  0  0  0  0  0  0
   36.9400   25.5060   33.9160 H   0  0  0  0  0  0  0  0  0  0  0  0
   38.6430   24.8000   35.0150 C   0  0  0  0  0  0  0  0  0  0  0  0
   39.5150   24.4000   33.9960 C   0  0  0  0  0  0  0  0  0  0  0  0
   40.5070   23.4720   34.2310 C   0  0  0  0  0  0  0  0  0  0  0  0
   40.6630   22.9100   35.4940 C   0  0  0  0  0  0  0  0  0  0  0  0
   39.7940   23.3190   36.4790 C   0  0  0  0  0  0  0  0  0  0  0  0
   39.8340   22.8340   37.7710 C   0  0  0  0  0  0  0  0  0  0  0  0
   38.9590   23.2320   38.7650 C   0  0  0  0  0  0  0  0  0  0  0  0
   37.9840   24.1690   38.4650 C   0  0  0  0  0  0  0  0  0  0  0  0
   37.9350   24.6610   37.1800 C   0  0  0  0  0  0  0  0  0  0  0  0
   38.8220   24.2390   36.2240 C   0  0  0  0  0  0  0  0  0  0  0  0
   39.6780   24.6360   32.9640 H   0  0  0  0  0  0  0  0  0  0  0  0
   41.2510   23.0590   33.5710 H   0  0  0  0  0  0  0  0  0  0  0  0
   41.3790   22.1770   35.8470 H   0  0  0  0  0  0  0  0  0  0  0  0
   40.5940   22.0960   38.0260 H   0  0  0  0  0  0  0  0  0  0  0  0
   39.0190   22.8280   39.7720 H   0  0  0  0  0  0  0  0  0  0  0  0
   37.2680   24.5260   39.1910 H   0  0  0  0  0  0  0  0  0  0  0  0
   37.1490   25.4060   36.9650 H   0  0  0  0  0  0  0  0  0  0  0  0
   36.9260   28.4540   30.6230 C   0  0  0  0  0  0  0  0  0  0  0  0
   37.8120   27.8230   31.5410 C   0  0  0  0  0  0  0  0  0  0  0  0
   37.4560   27.7630   32.8670 C   0  0  0  0  0  0  0  0  0  0  0  0
   36.2640   28.3210   33.1990 N   0  0  0  0  0  0  0  0  0  0  0  0
   35.4280   28.9150   32.3320 C   0  0  0  0  0  0  0  0  0  0  0  0
   35.7640   28.9830   31.0200 N   0  0  0  0  0  0  0  0  0  0  0  0
   37.2250   28.4900   29.5850 H   0  0  0  0  0  0  0  0  0  0  0  0
   38.7420   27.4120   31.1540 H   0  0  0  0  0  0  0  0  0  0  0  0
   34.1780   29.4580   32.9090 C   0  0  0  0  0  0  0  0  0  0  0  0
   34.2750   29.5540   34.2700 C   0  0  0  0  0  0  0  0  0  0  0  0
   34.9900   29.3560   35.0880 H   0  0  0  0  0  0  0  0  0  0  0  0
   32.6570   30.2380   34.8250 S   0  0  0  0  0  0  0  0  0  0  0  0
   32.0950   30.2780   33.0030 C   0  0  0  0  0  0  0  0  0  0  0  0
   31.2310   30.5260   32.1030 H   0  0  0  0  0  0  0  0  0  0  0  0
   33.0070   29.8730   32.4880 N   0  0  0  0  0  0  0  0  0  0  0  0
  1  4  1  6  0  0  0
  1  3  1  0  0  0  0
  1  2  1  0  0  0  0
  2  5  1  0  0  0  0
  2  6  1  0  0  0  0
  3  7  1  6  0  0  0
  3  8  1  0  0  0  0
  3  2  1  0  0  0  0
  8 17  1  0  0  0  0
  9 10  1  0  0  0  0
  9  8  2  0  0  0  0
 10 11  2  0  0  0  0
 11 20  1  0  0  0  0
 11 12  1  0  0  0  0
 12 13  1  0  0  0  0
 13 21  1  0  0  0  0
 13 14  2  0  0  0  0
 14 22  1  0  0  0  0
 15 14  1  0  0  0  0
 15 23  1  0  0  0  0
 16 15  2  0  0  0  0
 17 12  2  0  0  0  0
 17 16  1  0  0  0  0
 18  9  1  0  0  0  0
 19 10  1  0  0  0  0
 24 16  1  0  0  0  0
 25 30  2  0  0  0  0
 25 26  1  0  0  0  0
 26 27  2  0  0  0  0
 27 28  1  0  0  0  0
 27  1  1  0  0  0  0
 29 33  1  0  0  0  0
 29 28  2  0  0  0  0
 30 29  1  0  0  0  0
 31 25  1  0  0  0  0
 32 26  1  0  0  0  0
 33 34  2  0  0  0  0
 34 36  1  0  0  0  0
 34 35  1  0  0  0  0
 37 36  1  0  0  0  0
 38 37  1  0  0  0  0
 39 33  1  0  0  0  0
 39 37  2  0  0  0  0
M  END
>  <minimizedAffinity>
-6.22861576

$$$$

 OpenBabel03272509343D

 39 43  0  0  1  0  0  0  0  0999 V2000
   37.6730   27.5220   34.2040 C   0  0  1  0  0  0  0  0  0  0  0  0
   38.1050   27.5290   35.6120 C   0  0  0  0  0  0  0  0  0  0  0  0
   37.3510   26.3340   35.1530 C   0  0  2  0  0  0  0  0  0  0  0  0
   38.3470   27.2060   33.4260 H   0  0  0  0  0  0  0  0  0  0  0  0
   37.4930   28.2200   36.2720 H   0  0  0  0  0  0  0  0  0  0  0  0
   39.1610   27.6860   35.7210 H   0  0  0  0  0  0  0  0  0  0  0  0
   36.3110   26.0880   35.0600 H   0  0  0  0  0  0  0  0  0  0  0  0
   38.2330   25.1370   35.1270 C   0  0  0  0  0  0  0  0  0  0  0  0
   38.7330   24.9260   33.8370 C   0  0  0  0  0  0  0  0  0  0  0  0
   39.6430   23.9220   33.5810 C   0  0  0  0  0  0  0  0  0  0  0  0
   40.0890   23.0940   34.6070 C   0  0  0  0  0  0  0  0  0  0  0  0
   39.5840   23.3220   35.8660 C   0  0  0  0  0  0  0  0  0  0  0  0
   39.9350   22.5690   36.9690 C   0  0  0  0  0  0  0  0  0  0  0  0
   39.4260   22.7840   38.2360 C   0  0  0  0  0  0  0  0  0  0  0  0
   38.5140   23.8090   38.4280 C   0  0  0  0  0  0  0  0  0  0  0  0
   38.1560   24.5680   37.3360 C   0  0  0  0  0  0  0  0  0  0  0  0
   38.6860   24.3200   36.0960 C   0  0  0  0  0  0  0  0  0  0  0  0
   38.6210   25.3700   32.8690 H   0  0  0  0  0  0  0  0  0  0  0  0
   40.1200   23.6270   32.6620 H   0  0  0  0  0  0  0  0  0  0  0  0
   40.7910   22.2700   34.5820 H   0  0  0  0  0  0  0  0  0  0  0  0
   40.6510   21.7590   36.8370 H   0  0  0  0  0  0  0  0  0  0  0  0
   39.7250   22.1700   39.0820 H   0  0  0  0  0  0  0  0  0  0  0  0
   38.0760   24.0350   39.3890 H   0  0  0  0  0  0  0  0  0  0  0  0
   37.4280   25.3780   37.5140 H   0  0  0  0  0  0  0  0  0  0  0  0
   34.7870   28.9260   32.2240 C   0  0  0  0  0  0  0  0  0  0  0  0
   35.9320   28.1520   32.5680 C   0  0  0  0  0  0  0  0  0  0  0  0
   36.4780   28.3010   33.8200 C   0  0  0  0  0  0  0  0  0  0  0  0
   35.8680   29.1910   34.6440 N   0  0  0  0  0  0  0  0  0  0  0  0
   34.7880   29.9200   34.3190 C   0  0  0  0  0  0  0  0  0  0  0  0
   34.2370   29.7860   33.0870 N   0  0  0  0  0  0  0  0  0  0  0  0
   34.3740   28.7930   31.2350 H   0  0  0  0  0  0  0  0  0  0  0  0
   36.3310   27.4700   31.8200 H   0  0  0  0  0  0  0  0  0  0  0  0
   34.2850   30.8320   35.3710 C   0  0  0  0  0  0  0  0  0  0  0  0
   35.2770   31.6700   35.8010 C   0  0  0  0  0  0  0  0  0  0  0  0
   36.3440   31.8900   35.6170 H   0  0  0  0  0  0  0  0  0  0  0  0
   34.4940   32.7260   37.0920 S   0  0  0  0  0  0  0  0  0  0  0  0
   32.8580   31.7920   36.8060 C   0  0  0  0  0  0  0  0  0  0  0  0
   31.6280   31.5820   37.0600 H   0  0  0  0  0  0  0  0  0  0  0  0
   33.1610   31.0660   36.0050 N   0  0  0  0  0  0  0  0  0  0  0  0
  1  4  1  6  0  0  0
  1  3  1  0  0  0  0
  1  2  1  0  0  0  0
  2  6  1  0  0  0  0
  2  5  1  0  0  0  0
  3  7  1  1  0  0  0
  3  2  1  0  0  0  0
  8  3  1  0  0  0  0
  8 17  1  0  0  0  0
  9  8  2  0  0  0  0
 10  9  1  0  0  0  0
 10 11  2  0  0  0  0
 11 12  1  0  0  0  0
 12 17  2  0  0  0  0
 12 13  1  0  0  0  0
 13 14  2  0  0  0  0
 14 15  1  0  0  0  0
 14 22  1  0  0  0  0
 15 23  1  0  0  0  0
 16 24  1  0  0  0  0
 16 15  2  0  0  0  0
 17 16  1  0  0  0  0
 18  9  1  0  0  0  0
 19 10  1  0  0  0  0
 20 11  1  0  0  0  0
 21 13  1  0  0  0  0
 25 26  2  0  0  0  0
 25 30  1  0  0  0  0
 26 27  1  0  0  0  0
 27  1  1  0  0  0  0
 27 28  2  0  0  0  0
 29 28  1  0  0  0  0
 29 33  1  0  0  0  0
 30 29  2  0  0  0  0
 31 25  1  0  0  0  0
 32 26  1  0  0  0  0
 33 34  2  0  0  0  0
 33 39  1  0  0  0  0
 34 36  1  0  0  0  0
 35 34  1  0  0  0  0
 37 38  1  0  0  0  0
 37 36  1  0  0  0  0
 39 37  2  0  0  0  0
M  END
>  <minimizedAffinity>
-6.13098335

$$$$

 OpenBabel03272509343D

 39 43  0  0  1  0  0  0  0  0999 V2000
   38.5350   26.6180   35.4060 C   0  0  1  0  0  0  0  0  0  0  0  0
   39.3540   26.8940   34.2140 C   0  0  0  0  0  0  0  0  0  0  0  0
   37.9450   26.4900   33.9740 C   0  0  2  0  0  0  0  0  0  0  0  0
   38.0530   27.4200   35.9380 H   0  0  0  0  0  0  0  0  0  0  0  0
   40.1030   26.0760   33.9760 H   0  0  0  0  0  0  0  0  0  0  0  0
   39.8040   27.8690   34.2380 H   0  0  0  0  0  0  0  0  0  0  0  0
   37.4320   25.5510   33.8930 H   0  0  0  0  0  0  0  0  0  0  0  0
   37.1620   27.6260   33.4180 C   0  0  0  0  0  0  0  0  0  0  0  0
   36.4080   28.2400   34.4250 C   0  0  0  0  0  0  0  0  0  0  0  0
   35.6640   29.3720   34.1680 C   0  0  0  0  0  0  0  0  0  0  0  0
   35.6490   29.9340   32.8950 C   0  0  0  0  0  0  0  0  0  0  0  0
   36.3990   29.3130   31.9230 C   0  0  0  0  0  0  0  0  0  0  0  0
   36.4640   29.7610   30.6180 C   0  0  0  0  0  0  0  0  0  0  0  0
   37.2070   29.1390   29.6320 C   0  0  0  0  0  0  0  0  0  0  0  0
   37.9330   28.0040   29.9540 C   0  0  0  0  0  0  0  0  0  0  0  0
   37.8770   27.5470   31.2520 C   0  0  0  0  0  0  0  0  0  0  0  0
   37.1270   28.1950   32.1990 C   0  0  0  0  0  0  0  0  0  0  0  0
   36.2200   28.0880   35.4680 H   0  0  0  0  0  0  0  0  0  0  0  0
   35.0370   29.9600   34.8170 H   0  0  0  0  0  0  0  0  0  0  0  0
   35.1280   30.8080   32.5250 H   0  0  0  0  0  0  0  0  0  0  0  0
   35.9000   30.6520   30.3460 H   0  0  0  0  0  0  0  0  0  0  0  0
   37.2350   29.5190   28.6140 H   0  0  0  0  0  0  0  0  0  0  0  0
   38.5350   27.4670   29.2360 H   0  0  0  0  0  0  0  0  0  0  0  0
   38.4630   26.6420   31.4840 H   0  0  0  0  0  0  0  0  0  0  0  0
   38.0130   23.7160   37.7570 C   0  0  0  0  0  0  0  0  0  0  0  0
   37.8310   24.9710   37.1090 C   0  0  0  0  0  0  0  0  0  0  0  0
   38.6870   25.3170   36.0910 C   0  0  0  0  0  0  0  0  0  0  0  0
   39.6530   24.4160   35.7800 N   0  0  0  0  0  0  0  0  0  0  0  0
   39.8230   23.2330   36.3910 C   0  0  0  0  0  0  0  0  0  0  0  0
   38.9880   22.8750   37.3980 N   0  0  0  0  0  0  0  0  0  0  0  0
   37.3280   23.4640   38.5540 H   0  0  0  0  0  0  0  0  0  0  0  0
   37.0190   25.6100   37.4490 H   0  0  0  0  0  0  0  0  0  0  0  0
   40.9420   22.4030   35.8920 C   0  0  0  0  0  0  0  0  0  0  0  0
   41.4420   21.6130   36.8910 C   0  0  0  0  0  0  0  0  0  0  0  0
   41.2800   21.3910   37.9610 H   0  0  0  0  0  0  0  0  0  0  0  0
   42.8100   20.6550   36.1140 S   0  0  0  0  0  0  0  0  0  0  0  0
   42.4440   21.5450   34.4690 C   0  0  0  0  0  0  0  0  0  0  0  0
   42.6760   21.7610   33.2350 H   0  0  0  0  0  0  0  0  0  0  0  0
   41.5890   22.2080   34.7680 N   0  0  0  0  0  0  0  0  0  0  0  0
  1  4  1  1  0  0  0
  1 27  1  0  0  0  0
  2  6  1  0  0  0  0
  2  1  1  0  0  0  0
  3  7  1  6  0  0  0
  3  2  1  0  0  0  0
  3  1  1  0  0  0  0
  5  2  1  0  0  0  0
  8  3  1  0  0  0  0
  8  9  1  0  0  0  0
  9 18  1  0  0  0  0
 10  9  2  0  0  0  0
 10 19  1  0  0  0  0
 11 10  1  0  0  0  0
 12 17  1  0  0  0  0
 12 11  2  0  0  0  0
 13 12  1  0  0  0  0
 14 15  1  0  0  0  0
 14 13  2  0  0  0  0
 15 16  2  0  0  0  0
 16 24  1  0  0  0  0
 16 17  1  0  0  0  0
 17  8  2  0  0  0  0
 20 11  1  0  0  0  0
 21 13  1  0  0  0  0
 22 14  1  0  0  0  0
 23 15  1  0  0  0  0
 25 31  1  0  0  0  0
 26 32  1  0  0  0  0
 26 25  2  0  0  0  0
 27 26  1  0  0  0  0
 28 27  2  0  0  0  0
 28 29  1  0  0  0  0
 29 30  2  0  0  0  0
 30 25  1  0  0  0  0
 33 29  1  0  0  0  0
 33 34  2  0  0  0  0
 34 35  1  0  0  0  0
 36 34  1  0  0  0  0
 37 39  2  0  0  0  0
 37 36  1  0  0  0  0
 38 37  1  0  0  0  0
 39 33  1  0  0  0  0
M  END
>  <minimizedAffinity>
-6.04873991

$$$$

 OpenBabel03272509343D

 39 43  0  0  1  0  0  0  0  0999 V2000
   37.9810   26.5470   35.0430 C   0  0  1  0  0  0  0  0  0  0  0  0
   38.8690   26.9860   33.9540 C   0  0  0  0  0  0  0  0  0  0  0  0
   37.4450   26.7540   33.6000 C   0  0  2  0  0  0  0  0  0  0  0  0
   37.5380   27.2650   35.7120 H   0  0  0  0  0  0  0  0  0  0  0  0
   39.5640   26.1720   33.5770 H   0  0  0  0  0  0  0  0  0  0  0  0
   39.3900   27.8960   34.1850 H   0  0  0  0  0  0  0  0  0  0  0  0
   36.8680   25.8950   33.3180 H   0  0  0  0  0  0  0  0  0  0  0  0
   36.7750   28.0380   33.2620 C   0  0  0  0  0  0  0  0  0  0  0  0
   36.1280   28.5630   34.3860 C   0  0  0  0  0  0  0  0  0  0  0  0
   35.5060   29.7930   34.3420 C   0  0  0  0  0  0  0  0  0  0  0  0
   35.5090   30.5430   33.1700 C   0  0  0  0  0  0  0  0  0  0  0  0
   36.1520   30.0070   32.0780 C   0  0  0  0  0  0  0  0  0  0  0  0
   36.2220   30.6430   30.8540 C   0  0  0  0  0  0  0  0  0  0  0  0
   36.8570   30.1070   29.7490 C   0  0  0  0  0  0  0  0  0  0  0  0
   37.4640   28.8670   29.8590 C   0  0  0  0  0  0  0  0  0  0  0  0
   37.4020   28.2230   31.0750 C   0  0  0  0  0  0  0  0  0  0  0  0
   36.7610   28.7900   32.1460 C   0  0  0  0  0  0  0  0  0  0  0  0
   35.9600   28.2710   35.4030 H   0  0  0  0  0  0  0  0  0  0  0  0
   34.9700   30.3350   35.1020 H   0  0  0  0  0  0  0  0  0  0  0  0
   35.0750   31.5140   32.9630 H   0  0  0  0  0  0  0  0  0  0  0  0
   35.7510   31.6190   30.7490 H   0  0  0  0  0  0  0  0  0  0  0  0
   36.8920   30.6360   28.8000 H   0  0  0  0  0  0  0  0  0  0  0  0
   37.9780   28.3890   29.0390 H   0  0  0  0  0  0  0  0  0  0  0  0
   37.8920   27.2360   31.1380 H   0  0  0  0  0  0  0  0  0  0  0  0
   37.9800   23.4250   37.1570 C   0  0  0  0  0  0  0  0  0  0  0  0
   37.9420   24.8000   36.7900 C   0  0  0  0  0  0  0  0  0  0  0  0
   38.0060   25.1290   35.4580 C   0  0  0  0  0  0  0  0  0  0  0  0
   38.1010   24.0950   34.5830 N   0  0  0  0  0  0  0  0  0  0  0  0
   38.1370   22.7990   34.9300 C   0  0  0  0  0  0  0  0  0  0  0  0
   38.0750   22.4560   36.2410 N   0  0  0  0  0  0  0  0  0  0  0  0
   37.9280   23.1890   38.2100 H   0  0  0  0  0  0  0  0  0  0  0  0
   37.8640   25.5400   37.5850 H   0  0  0  0  0  0  0  0  0  0  0  0
   38.2440   21.8340   33.8130 C   0  0  0  0  0  0  0  0  0  0  0  0
   37.0040   21.4140   33.4170 C   0  0  0  0  0  0  0  0  0  0  0  0
   35.9370   21.5620   33.6610 H   0  0  0  0  0  0  0  0  0  0  0  0
   37.3100   20.2330   32.0360 S   0  0  0  0  0  0  0  0  0  0  0  0
   39.1810   20.5320   32.2500 C   0  0  0  0  0  0  0  0  0  0  0  0
   40.3940   20.3220   31.9240 H   0  0  0  0  0  0  0  0  0  0  0  0
   39.1860   21.2690   33.0970 N   0  0  0  0  0  0  0  0  0  0  0  0
  1 27  1  0  0  0  0
  1  4  1  1  0  0  0
  2  6  1  0  0  0  0
  2  1  1  0  0  0  0
  3  7  1  6  0  0  0
  3  2  1  0  0  0  0
  3  1  1  0  0  0  0
  5  2  1  0  0  0  0
  8  3  1  0  0  0  0
  8  9  1  0  0  0  0
  9 18  1  0  0  0  0
 10  9  2  0  0  0  0
 10 19  1  0  0  0  0
 11 10  1  0  0  0  0
 12 17  1  0  0  0  0
 12 11  2  0  0  0  0
 13 12  1  0  0  0  0
 14 15  1  0  0  0  0
 14 13  2  0  0  0  0
 15 16  2  0  0  0  0
 16 24  1  0  0  0  0
 16 17  1  0  0  0  0
 17  8  2  0  0  0  0
 20 11  1  0  0  0  0
 21 13  1  0  0  0  0
 22 14  1  0  0  0  0
 23 15  1  0  0  0  0
 25 31  1  0  0  0  0
 26 25  1  0  0  0  0
 26 32  1  0  0  0  0
 27 26  2  0  0  0  0
 28 29  2  0  0  0  0
 28 27  1  0  0  0  0
 29 30  1  0  0  0  0
 30 25  2  0  0  0  0
 33 29  1  0  0  0  0
 34 35  1  0  0  0  0
 34 33  2  0  0  0  0
 36 37  1  0  0  0  0
 36 34  1  0  0  0  0
 37 39  2  0  0  0  0
 38 37  1  0  0  0  0
 39 33  1  0  0  0  0
M  END
>  <minimizedAffinity>
-6.03015327

$$$$

 OpenBabel03272509343D

 39 43  0  0  1  0  0  0  0  0999 V2000
   39.1690   26.4430   34.4680 C   0  0  1  0  0  0  0  0  0  0  0  0
   38.1600   26.8620   35.4550 C   0  0  0  0  0  0  0  0  0  0  0  0
   38.1830   25.4200   35.0970 C   0  0  2  0  0  0  0  0  0  0  0  0
   40.1780   26.2260   34.7750 H   0  0  0  0  0  0  0  0  0  0  0  0
   37.2850   27.4240   35.0010 H   0  0  0  0  0  0  0  0  0  0  0  0
   38.5890   27.3780   36.2930 H   0  0  0  0  0  0  0  0  0  0  0  0
   37.7480   24.8300   34.3130 H   0  0  0  0  0  0  0  0  0  0  0  0
   38.6390   24.6020   36.2520 C   0  0  0  0  0  0  0  0  0  0  0  0
   37.8660   24.8800   37.3840 C   0  0  0  0  0  0  0  0  0  0  0  0
   38.0450   24.1810   38.5590 C   0  0  0  0  0  0  0  0  0  0  0  0
   39.0060   23.1770   38.6440 C   0  0  0  0  0  0  0  0  0  0  0  0
   39.7530   22.9220   37.5170 C   0  0  0  0  0  0  0  0  0  0  0  0
   40.7440   21.9610   37.4690 C   0  0  0  0  0  0  0  0  0  0  0  0
   41.5060   21.7040   36.3460 C   0  0  0  0  0  0  0  0  0  0  0  0
   41.2760   22.4410   35.1950 C   0  0  0  0  0  0  0  0  0  0  0  0
   40.2910   23.4030   35.2300 C   0  0  0  0  0  0  0  0  0  0  0  0
   39.5580   23.6250   36.3670 C   0  0  0  0  0  0  0  0  0  0  0  0
   37.0660   25.5420   37.6460 H   0  0  0  0  0  0  0  0  0  0  0  0
   37.5450   24.2660   39.5090 H   0  0  0  0  0  0  0  0  0  0  0  0
   39.2760   22.5400   39.4770 H   0  0  0  0  0  0  0  0  0  0  0  0
   40.9390   21.3710   38.3640 H   0  0  0  0  0  0  0  0  0  0  0  0
   42.2790   20.9390   36.3430 H   0  0  0  0  0  0  0  0  0  0  0  0
   41.8330   22.2950   34.2820 H   0  0  0  0  0  0  0  0  0  0  0  0
   40.1270   23.9770   34.3020 H   0  0  0  0  0  0  0  0  0  0  0  0
   39.2110   26.1480   30.7090 C   0  0  0  0  0  0  0  0  0  0  0  0
   39.4680   25.8720   32.0820 C   0  0  0  0  0  0  0  0  0  0  0  0
   38.9130   26.6940   33.0340 C   0  0  0  0  0  0  0  0  0  0  0  0
   38.1510   27.7200   32.5790 N   0  0  0  0  0  0  0  0  0  0  0  0
   37.9090   27.9790   31.2830 C   0  0  0  0  0  0  0  0  0  0  0  0
   38.4490   27.1780   30.3310 N   0  0  0  0  0  0  0  0  0  0  0  0
   39.6560   25.4890   29.9770 H   0  0  0  0  0  0  0  0  0  0  0  0
   40.0960   25.0180   32.3240 H   0  0  0  0  0  0  0  0  0  0  0  0
   37.0490   29.1510   31.0080 C   0  0  0  0  0  0  0  0  0  0  0  0
   35.9310   29.1270   31.7970 C   0  0  0  0  0  0  0  0  0  0  0  0
   35.4570   28.5110   32.5810 H   0  0  0  0  0  0  0  0  0  0  0  0
   34.9800   30.6360   31.3370 S   0  0  0  0  0  0  0  0  0  0  0  0
   36.3460   31.0630   30.0770 C   0  0  0  0  0  0  0  0  0  0  0  0
   36.8460   31.8130   29.1780 H   0  0  0  0  0  0  0  0  0  0  0  0
   37.0530   30.2040   30.2260 N   0  0  0  0  0  0  0  0  0  0  0  0
  1  4  1  1  0  0  0
  1  3  1  0  0  0  0
  1  2  1  0  0  0  0
  2  6  1  0  0  0  0
  3  7  1  6  0  0  0
  3  2  1  0  0  0  0
  3  8  1  0  0  0  0
  5  2  1  0  0  0  0
  8 17  2  0  0  0  0
  8  9  1  0  0  0  0
  9 18  1  0  0  0  0
  9 10  2  0  0  0  0
 10 11  1  0  0  0  0
 10 19  1  0  0  0  0
 11 20  1  0  0  0  0
 12 11  2  0  0  0  0
 13 12  1  0  0  0  0
 13 21  1  0  0  0  0
 14 13  2  0  0  0  0
 15 16  2  0  0  0  0
 15 14  1  0  0  0  0
 16 17  1  0  0  0  0
 17 12  1  0  0  0  0
 22 14  1  0  0  0  0
 23 15  1  0  0  0  0
 24 16  1  0  0  0  0
 25 26  1  0  0  0  0
 26 32  1  0  0  0  0
 26 27  2  0  0  0  0
 27  1  1  0  0  0  0
 28 27  1  0  0  0  0
 29 28  2  0  0  0  0
 30 25  2  0  0  0  0
 30 29  1  0  0  0  0
 31 25  1  0  0  0  0
 33 29  1  0  0  0  0
 33 34  2  0  0  0  0
 34 35  1  0  0  0  0
 36 34  1  0  0  0  0
 37 39  2  0  0  0  0
 37 36  1  0  0  0  0
 38 37  1  0  0  0  0
 39 33  1  0  0  0  0
M  END
>  <minimizedAffinity>
-6.01800823

$$$$

 OpenBabel03272509343D

 39 43  0  0  1  0  0  0  0  0999 V2000
   36.3230   28.8640   33.2890 C   0  0  1  0  0  0  0  0  0  0  0  0
   35.3760   29.7330   32.5710 C   0  0  0  0  0  0  0  0  0  0  0  0
   34.8820   29.0990   33.8200 C   0  0  2  0  0  0  0  0  0  0  0  0
   37.0450   29.2830   33.9690 H   0  0  0  0  0  0  0  0  0  0  0  0
   34.9500   29.2640   31.6300 H   0  0  0  0  0  0  0  0  0  0  0  0
   35.7660   30.7180   32.3980 H   0  0  0  0  0  0  0  0  0  0  0  0
   34.4420   28.1500   34.0620 H   0  0  0  0  0  0  0  0  0  0  0  0
   34.6660   30.1230   34.8770 C   0  0  0  0  0  0  0  0  0  0  0  0
   35.8660   30.7790   35.1740 C   0  0  0  0  0  0  0  0  0  0  0  0
   35.9010   31.8310   36.0650 C   0  0  0  0  0  0  0  0  0  0  0  0
   34.7370   32.2660   36.6900 C   0  0  0  0  0  0  0  0  0  0  0  0
   33.5700   31.6060   36.3820 C   0  0  0  0  0  0  0  0  0  0  0  0
   32.3480   31.9300   36.9380 C   0  0  0  0  0  0  0  0  0  0  0  0
   31.1730   31.2660   36.6420 C   0  0  0  0  0  0  0  0  0  0  0  0
   31.2040   30.2170   35.7380 C   0  0  0  0  0  0  0  0  0  0  0  0
   32.4160   29.8840   35.1750 C   0  0  0  0  0  0  0  0  0  0  0  0
   33.5590   30.5690   35.4980 C   0  0  0  0  0  0  0  0  0  0  0  0
   36.8910   30.7160   34.8710 H   0  0  0  0  0  0  0  0  0  0  0  0
   36.7260   32.4370   36.4020 H   0  0  0  0  0  0  0  0  0  0  0  0
   34.5870   33.0650   37.4060 H   0  0  0  0  0  0  0  0  0  0  0  0
   32.3040   32.7520   37.6510 H   0  0  0  0  0  0  0  0  0  0  0  0
   30.2280   31.5480   37.0990 H   0  0  0  0  0  0  0  0  0  0  0  0
   30.3250   29.6540   35.4590 H   0  0  0  0  0  0  0  0  0  0  0  0
   32.4150   29.0450   34.4590 H   0  0  0  0  0  0  0  0  0  0  0  0
   36.3340   25.7940   31.1000 C   0  0  0  0  0  0  0  0  0  0  0  0
   36.1160   27.1300   31.5410 C   0  0  0  0  0  0  0  0  0  0  0  0
   36.5450   27.4890   32.7950 C   0  0  0  0  0  0  0  0  0  0  0  0
   37.1560   26.5210   33.5260 N   0  0  0  0  0  0  0  0  0  0  0  0
   37.3620   25.2620   33.1090 C   0  0  0  0  0  0  0  0  0  0  0  0
   36.9440   24.8910   31.8730 N   0  0  0  0  0  0  0  0  0  0  0  0
   35.9900   25.5330   30.1090 H   0  0  0  0  0  0  0  0  0  0  0  0
   35.6130   27.8170   30.8620 H   0  0  0  0  0  0  0  0  0  0  0  0
   38.0490   24.3680   34.0690 C   0  0  0  0  0  0  0  0  0  0  0  0
   38.1060   24.9420   35.3090 C   0  0  0  0  0  0  0  0  0  0  0  0
   37.8030   25.8660   35.8340 H   0  0  0  0  0  0  0  0  0  0  0  0
   38.9790   23.7160   36.3710 S   0  0  0  0  0  0  0  0  0  0  0  0
   39.1240   22.5680   34.8560 C   0  0  0  0  0  0  0  0  0  0  0  0
   39.4960   21.4830   34.3040 H   0  0  0  0  0  0  0  0  0  0  0  0
   38.6160   23.1850   34.0680 N   0  0  0  0  0  0  0  0  0  0  0  0
  1  3  1  0  0  0  0
  1  4  1  1  0  0  0
  2  1  1  0  0  0  0
  2  3  1  0  0  0  0
  3  7  1  6  0  0  0
  3  8  1  0  0  0  0
  5  2  1  0  0  0  0
  6  2  1  0  0  0  0
  8  9  2  0  0  0  0
  8 17  1  0  0  0  0
  9 10  1  0  0  0  0
 10 19  1  0  0  0  0
 10 11  2  0  0  0  0
 11 20  1  0  0  0  0
 12 11  1  0  0  0  0
 12 13  1  0  0  0  0
 13 21  1  0  0  0  0
 14 13  2  0  0  0  0
 14 22  1  0  0  0  0
 15 14  1  0  0  0  0
 16 17  1  0  0  0  0
 16 15  2  0  0  0  0
 17 12  2  0  0  0  0
 18  9  1  0  0  0  0
 23 15  1  0  0  0  0
 24 16  1  0  0  0  0
 25 26  2  0  0  0  0
 25 30  1  0  0  0  0
 26 27  1  0  0  0  0
 27  1  1  0  0  0  0
 27 28  2  0  0  0  0
 29 28  1  0  0  0  0
 29 33  1  0  0  0  0
 30 29  2  0  0  0  0
 31 25  1  0  0  0  0
 32 26  1  0  0  0  0
 33 34  2  0  0  0  0
 34 35  1  0  0  0  0
 34 36  1  0  0  0  0
 37 36  1  0  0  0  0
 38 37  1  0  0  0  0
 39 33  1  0  0  0  0
 39 37  2  0  0  0  0
M  END
>  <minimizedAffinity>
-5.99524355

$$$$

 OpenBabel03272509343D

 39 43  0  0  1  0  0  0  0  0999 V2000
   37.2750   26.2020   33.7680 C   0  0  1  0  0  0  0  0  0  0  0  0
   38.5130   25.6570   33.1890 C   0  0  0  0  0  0  0  0  0  0  0  0
   38.6170   26.2440   34.5500 C   0  0  2  0  0  0  0  0  0  0  0  0
   36.5720   25.5560   34.2670 H   0  0  0  0  0  0  0  0  0  0  0  0
   38.9660   26.3130   32.3810 H   0  0  0  0  0  0  0  0  0  0  0  0
   38.4110   24.6350   32.8780 H   0  0  0  0  0  0  0  0  0  0  0  0
   38.7630   27.2350   34.9350 H   0  0  0  0  0  0  0  0  0  0  0  0
   38.8930   25.1850   35.5570 C   0  0  0  0  0  0  0  0  0  0  0  0
   37.7970   25.0250   36.4110 C   0  0  0  0  0  0  0  0  0  0  0  0
   37.7820   24.0400   37.3760 C   0  0  0  0  0  0  0  0  0  0  0  0
   38.8650   23.1770   37.5210 C   0  0  0  0  0  0  0  0  0  0  0  0
   39.9310   23.3540   36.6680 C   0  0  0  0  0  0  0  0  0  0  0  0
   41.0700   22.5740   36.7110 C   0  0  0  0  0  0  0  0  0  0  0  0
   42.1490   22.7500   35.8660 C   0  0  0  0  0  0  0  0  0  0  0  0
   42.1010   23.7580   34.9170 C   0  0  0  0  0  0  0  0  0  0  0  0
   40.9700   24.5420   34.8640 C   0  0  0  0  0  0  0  0  0  0  0  0
   39.9220   24.3330   35.7220 C   0  0  0  0  0  0  0  0  0  0  0  0
   36.8380   25.4810   36.5530 H   0  0  0  0  0  0  0  0  0  0  0  0
   37.0320   23.7840   38.1050 H   0  0  0  0  0  0  0  0  0  0  0  0
   39.0180   22.3610   38.2160 H   0  0  0  0  0  0  0  0  0  0  0  0
   41.1250   21.7760   37.4510 H   0  0  0  0  0  0  0  0  0  0  0  0
   43.0300   22.1170   35.9280 H   0  0  0  0  0  0  0  0  0  0  0  0
   42.9060   23.9520   34.2240 H   0  0  0  0  0  0  0  0  0  0  0  0
   40.9560   25.3390   34.1000 H   0  0  0  0  0  0  0  0  0  0  0  0
   36.6130   29.2680   31.6750 C   0  0  0  0  0  0  0  0  0  0  0  0
   37.0630   27.9720   32.0570 C   0  0  0  0  0  0  0  0  0  0  0  0
   36.8110   27.5370   33.3360 C   0  0  0  0  0  0  0  0  0  0  0  0
   36.1380   28.3940   34.1450 N   0  0  0  0  0  0  0  0  0  0  0  0
   35.7140   29.6160   33.7840 C   0  0  0  0  0  0  0  0  0  0  0  0
   35.9550   30.0610   32.5260 N   0  0  0  0  0  0  0  0  0  0  0  0
   36.8220   29.5900   30.6650 H   0  0  0  0  0  0  0  0  0  0  0  0
   37.5930   27.3760   31.3170 H   0  0  0  0  0  0  0  0  0  0  0  0
   34.9990   30.3860   34.8260 C   0  0  0  0  0  0  0  0  0  0  0  0
   35.8700   31.1710   35.5300 C   0  0  0  0  0  0  0  0  0  0  0  0
   36.9450   31.4210   35.5750 H   0  0  0  0  0  0  0  0  0  0  0  0
   34.8330   32.0530   36.7720 S   0  0  0  0  0  0  0  0  0  0  0  0
   33.3050   31.1480   36.0780 C   0  0  0  0  0  0  0  0  0  0  0  0
   32.0570   30.8990   36.0740 H   0  0  0  0  0  0  0  0  0  0  0  0
   33.7720   30.5300   35.2660 N   0  0  0  0  0  0  0  0  0  0  0  0
  1  4  1  1  0  0  0
  1  3  1  0  0  0  0
  2  1  1  0  0  0  0
  2  3  1  0  0  0  0
  3  7  1  1  0  0  0
  3  8  1  0  0  0  0
  5  2  1  0  0  0  0
  6  2  1  0  0  0  0
  8 17  2  0  0  0  0
  8  9  1  0  0  0  0
  9 18  1  0  0  0  0
  9 10  2  0  0  0  0
 10 11  1  0  0  0  0
 10 19  1  0  0  0  0
 11 20  1  0  0  0  0
 12 13  1  0  0  0  0
 12 11  2  0  0  0  0
 13 21  1  0  0  0  0
 14 22  1  0  0  0  0
 14 13  2  0  0  0  0
 15 14  1  0  0  0  0
 16 15  2  0  0  0  0
 16 17  1  0  0  0  0
 17 12  1  0  0  0  0
 23 15  1  0  0  0  0
 24 16  1  0  0  0  0
 25 26  2  0  0  0  0
 25 30  1  0  0  0  0
 26 27  1  0  0  0  0
 27  1  1  0  0  0  0
 27 28  2  0  0  0  0
 29 28  1  0  0  0  0
 29 33  1  0  0  0  0
 30 29  2  0  0  0  0
 31 25  1  0  0  0  0
 32 26  1  0  0  0  0
 33 39  1  0  0  0  0
 33 34  2  0  0  0  0
 34 35  1  0  0  0  0
 34 36  1  0  0  0  0
 37 36  1  0  0  0  0
 38 37  1  0  0  0  0
 39 37  2  0  0  0  0
M  END
>  <minimizedAffinity>
-5.95462227

$$$$

 OpenBabel03272509343D

 39 43  0  0  1  0  0  0  0  0999 V2000
   38.7370   26.8250   34.5830 C   0  0  1  0  0  0  0  0  0  0  0  0
   38.0700   27.1760   35.8480 C   0  0  0  0  0  0  0  0  0  0  0  0
   37.8470   25.7980   35.3370 C   0  0  2  0  0  0  0  0  0  0  0  0
   39.7620   26.4970   34.5760 H   0  0  0  0  0  0  0  0  0  0  0  0
   37.1710   27.8550   35.7160 H   0  0  0  0  0  0  0  0  0  0  0  0
   38.7550   27.5400   36.5900 H   0  0  0  0  0  0  0  0  0  0  0  0
   37.1640   25.3540   34.6400 H   0  0  0  0  0  0  0  0  0  0  0  0
   38.5010   24.7990   36.2240 C   0  0  0  0  0  0  0  0  0  0  0  0
   37.9440   24.8450   37.5060 C   0  0  0  0  0  0  0  0  0  0  0  0
   38.3290   23.9510   38.4830 C   0  0  0  0  0  0  0  0  0  0  0  0
   39.2860   22.9780   38.2120 C   0  0  0  0  0  0  0  0  0  0  0  0
   39.8200   22.9530   36.9440 C   0  0  0  0  0  0  0  0  0  0  0  0
   40.7830   22.0470   36.5470 C   0  0  0  0  0  0  0  0  0  0  0  0
   41.3310   22.0200   35.2790 C   0  0  0  0  0  0  0  0  0  0  0  0
   40.9010   22.9460   34.3420 C   0  0  0  0  0  0  0  0  0  0  0  0
   39.9400   23.8550   34.7250 C   0  0  0  0  0  0  0  0  0  0  0  0
   39.4230   23.8460   35.9950 C   0  0  0  0  0  0  0  0  0  0  0  0
   37.2050   25.4240   38.0220 H   0  0  0  0  0  0  0  0  0  0  0  0
   38.0070   23.8480   39.5060 H   0  0  0  0  0  0  0  0  0  0  0  0
   39.6990   22.2090   38.8540 H   0  0  0  0  0  0  0  0  0  0  0  0
   41.1330   21.3120   37.2700 H   0  0  0  0  0  0  0  0  0  0  0  0
   42.0890   21.2920   35.0000 H   0  0  0  0  0  0  0  0  0  0  0  0
   41.2840   22.9830   33.3330 H   0  0  0  0  0  0  0  0  0  0  0  0
   39.6140   24.5820   33.9620 H   0  0  0  0  0  0  0  0  0  0  0  0
   36.3550   28.3040   32.0610 C   0  0  0  0  0  0  0  0  0  0  0  0
   36.9040   27.8810   33.3050 C   0  0  0  0  0  0  0  0  0  0  0  0
   38.1430   27.2870   33.3110 C   0  0  0  0  0  0  0  0  0  0  0  0
   38.7540   27.1500   32.1060 N   0  0  0  0  0  0  0  0  0  0  0  0
   38.2360   27.5500   30.9340 C   0  0  0  0  0  0  0  0  0  0  0  0
   37.0140   28.1380   30.9110 N   0  0  0  0  0  0  0  0  0  0  0  0
   35.3800   28.7700   32.0800 H   0  0  0  0  0  0  0  0  0  0  0  0
   36.3170   28.0460   34.2060 H   0  0  0  0  0  0  0  0  0  0  0  0
   39.0730   27.3030   29.7390 C   0  0  0  0  0  0  0  0  0  0  0  0
   38.7260   28.1480   28.7220 C   0  0  0  0  0  0  0  0  0  0  0  0
   38.0150   28.9640   28.4980 H   0  0  0  0  0  0  0  0  0  0  0  0
   39.8490   27.7160   27.3270 S   0  0  0  0  0  0  0  0  0  0  0  0
   40.6440   26.3830   28.4340 C   0  0  0  0  0  0  0  0  0  0  0  0
   41.4850   25.4490   28.6340 H   0  0  0  0  0  0  0  0  0  0  0  0
   40.0520   26.5070   29.3800 N   0  0  0  0  0  0  0  0  0  0  0  0
  1  4  1  1  0  0  0
  1  3  1  0  0  0  0
  1  2  1  0  0  0  0
  2  6  1  0  0  0  0
  3  7  1  6  0  0  0
  3  2  1  0  0  0  0
  3  8  1  0  0  0  0
  5  2  1  0  0  0  0
  8  9  1  0  0  0  0
  9 18  1  0  0  0  0
  9 10  2  0  0  0  0
 10 19  1  0  0  0  0
 11 10  1  0  0  0  0
 11 20  1  0  0  0  0
 12 11  2  0  0  0  0
 13 12  1  0  0  0  0
 13 21  1  0  0  0  0
 14 13  2  0  0  0  0
 15 16  2  0  0  0  0
 15 14  1  0  0  0  0
 16 17  1  0  0  0  0
 17  8  2  0  0  0  0
 17 12  1  0  0  0  0
 22 14  1  0  0  0  0
 23 15  1  0  0  0  0
 24 16  1  0  0  0  0
 25 31  1  0  0  0  0
 25 26  1  0  0  0  0
 26 27  2  0  0  0  0
 26 32  1  0  0  0  0
 27  1  1  0  0  0  0
 28 27  1  0  0  0  0
 29 28  2  0  0  0  0
 30 29  1  0  0  0  0
 30 25  2  0  0  0  0
 33 29  1  0  0  0  0
 34 33  2  0  0  0  0
 35 34  1  0  0  0  0
 36 37  1  0  0  0  0
 36 34  1  0  0  0  0
 37 38  1  0  0  0  0
 37 39  2  0  0  0  0
 39 33  1  0  0  0  0
M  END
>  <minimizedAffinity>
-5.90659428

$$$$
