
 OpenBabel03262520283D

 18 19  0  0  0  0  0  0  0  0999 V2000
   37.2070   30.2250   51.1690 C   0  0  0  0  0  0  0  0  0  0  0  0
   38.1810   30.8460   50.3780 C   0  0  0  0  0  0  0  0  0  0  0  0
   37.9510   30.9250   48.9990 C   0  0  0  0  0  0  0  0  0  0  0  0
   36.7950   30.3940   48.5050 N   0  0  0  0  0  0  0  0  0  0  0  0
   35.8850   29.8050   49.3060 C   0  0  0  0  0  0  0  0  0  0  0  0
   36.0870   29.7200   50.6250 N   0  0  0  0  0  0  0  0  0  0  0  0
   38.9450   31.5570   48.2170 N   0  0  0  0  0  0  0  0  0  0  0  0
   37.3830   30.1620   52.2370 H   0  0  0  0  0  0  0  0  0  0  0  0
   39.0810   31.2490   50.8360 H   0  0  0  0  0  0  0  0  0  0  0  0
   39.9530   31.4520   48.4510 H   0  0  0  0  0  0  0  0  0  0  0  0
   38.6460   32.1310   47.3960 H   0  0  0  0  0  0  0  0  0  0  0  0
   34.6970   29.2890   48.5900 C   0  0  0  0  0  0  0  0  0  0  0  0
   34.3010   29.6200   47.2140 C   0  0  0  0  0  0  0  0  0  0  0  0
   34.9340   30.2900   46.6980 H   0  0  0  0  0  0  0  0  0  0  0  0
   32.7980   28.6420   47.0430 S   0  0  0  0  0  0  0  0  0  0  0  0
   32.9270   27.9520   48.8110 C   0  0  0  0  0  0  0  0  0  0  0  0
   32.1670   27.2620   49.1690 H   0  0  0  0  0  0  0  0  0  0  0  0
   33.9130   28.4400   49.2700 N   0  0  0  0  0  0  0  0  0  0  0  0
  1  8  1  0  0  0  0
  2  9  1  0  0  0  0
  2  1  2  0  0  0  0
  3  2  1  0  0  0  0
  4  3  2  0  0  0  0
  4  5  1  0  0  0  0
  5  6  2  0  0  0  0
  6  1  1  0  0  0  0
  7 10  1  0  0  0  0
  7  3  1  0  0  0  0
 11  7  1  0  0  0  0
 12 18  1  0  0  0  0
 12  5  1  0  0  0  0
 13 12  2  0  0  0  0
 14 13  1  0  0  0  0
 15 13  1  0  0  0  0
 15 16  1  0  0  0  0
 16 17  1  0  0  0  0
 16 18  2  0  0  0  0
M  END
>  <minimizedAffinity>
-4.23065567

>  <minimizedRMSD>
1.35925853

$$$$
