
 OpenBabel03262523453D

 26 28  0  0  0  0  0  0  0  0999 V2000
   35.6520   32.7970   32.5560 Cl  0  0  0  0  0  0  0  0  0  0  0  0
   35.7680   31.0610   32.3870 C   0  0  0  0  0  0  0  0  0  0  0  0
   35.3430   30.2250   33.4160 C   0  0  0  0  0  0  0  0  0  0  0  0
   35.4750   28.8840   33.1870 C   0  0  0  0  0  0  0  0  0  0  0  0
   35.9810   28.3250   32.0460 C   0  0  0  0  0  0  0  0  0  0  0  0
   36.3900   29.2180   31.0510 C   0  0  0  0  0  0  0  0  0  0  0  0
   37.0430   28.5190   29.5750 Cl  0  0  0  0  0  0  0  0  0  0  0  0
   36.2900   30.5900   31.2030 C   0  0  0  0  0  0  0  0  0  0  0  0
   35.1320   28.2630   34.0150 H   0  0  0  0  0  0  0  0  0  0  0  0
   36.6230   31.2190   30.3970 H   0  0  0  0  0  0  0  0  0  0  0  0
   35.1250   31.9050   36.7940 C   0  0  0  0  0  0  0  0  0  0  0  0
   35.6270   31.3030   35.6300 C   0  0  0  0  0  0  0  0  0  0  0  0
   34.8110   30.8450   34.6140 C   0  0  0  0  0  0  0  0  0  0  0  0
   33.4910   31.0170   34.8190 N   0  0  0  0  0  0  0  0  0  0  0  0
   32.9990   31.5920   35.9280 C   0  0  0  0  0  0  0  0  0  0  0  0
   33.7990   32.0270   36.8970 N   0  0  0  0  0  0  0  0  0  0  0  0
   35.9120   32.1970   37.4730 H   0  0  0  0  0  0  0  0  0  0  0  0
   36.7030   31.1590   35.4570 H   0  0  0  0  0  0  0  0  0  0  0  0
   31.9310   31.7390   36.1110 H   0  0  0  0  0  0  0  0  0  0  0  0
   36.0940   26.8710   31.8680 C   0  0  0  0  0  0  0  0  0  0  0  0
   37.1490   26.1580   32.4620 C   0  0  0  0  0  0  0  0  0  0  0  0
   37.9710   26.5450   33.0880 H   0  0  0  0  0  0  0  0  0  0  0  0
   36.8120   24.4170   31.9280 S   0  0  0  0  0  0  0  0  0  0  0  0
   35.2710   24.9900   30.9800 C   0  0  0  0  0  0  0  0  0  0  0  0
   34.4960   24.4210   30.3530 H   0  0  0  0  0  0  0  0  0  0  0  0
   35.2580   26.1120   31.1670 N   0  0  0  0  0  0  0  0  0  0  0  0
  2  1  1  0  0  0  0
  2  3  1  0  0  0  0
  3 13  1  0  0  0  0
  4  3  2  0  0  0  0
  4  9  1  0  0  0  0
  5  4  1  0  0  0  0
  6  8  1  0  0  0  0
  6  5  2  0  0  0  0
  7  6  1  0  0  0  0
  8  2  2  0  0  0  0
 10  8  1  0  0  0  0
 11 16  1  0  0  0  0
 11 17  1  0  0  0  0
 12 11  2  0  0  0  0
 13 14  2  0  0  0  0
 13 12  1  0  0  0  0
 14 15  1  0  0  0  0
 15 19  1  0  0  0  0
 15 16  2  0  0  0  0
 18 12  1  0  0  0  0
 20  5  1  0  0  0  0
 20 21  2  0  0  0  0
 21 22  1  0  0  0  0
 23 21  1  0  0  0  0
 24 26  2  0  0  0  0
 24 23  1  0  0  0  0
 25 24  1  0  0  0  0
 26 20  1  0  0  0  0
M  END
>  <minimizedAffinity>
-4.81526232

$$$$

 OpenBabel03262523453D

 26 28  0  0  0  0  0  0  0  0999 V2000
   35.8390   20.8880   36.1270 Cl  0  0  0  0  0  0  0  0  0  0  0  0
   36.6420   21.3690   34.6500 C   0  0  0  0  0  0  0  0  0  0  0  0
   37.7720   22.1790   34.6960 C   0  0  0  0  0  0  0  0  0  0  0  0
   38.3270   22.5000   33.4890 C   0  0  0  0  0  0  0  0  0  0  0  0
   37.8570   22.0870   32.2720 C   0  0  0  0  0  0  0  0  0  0  0  0
   36.7190   21.2760   32.2930 C   0  0  0  0  0  0  0  0  0  0  0  0
   36.1000   20.7350   30.7390 Cl  0  0  0  0  0  0  0  0  0  0  0  0
   36.0970   20.9050   33.4730 C   0  0  0  0  0  0  0  0  0  0  0  0
   39.2090   23.1350   33.5670 H   0  0  0  0  0  0  0  0  0  0  0  0
   35.2250   20.2790   33.4170 H   0  0  0  0  0  0  0  0  0  0  0  0
   39.9710   22.6550   37.7330 C   0  0  0  0  0  0  0  0  0  0  0  0
   39.4980   22.2530   36.4740 C   0  0  0  0  0  0  0  0  0  0  0  0
   38.2480   22.6010   36.0000 C   0  0  0  0  0  0  0  0  0  0  0  0
   37.5090   23.3560   36.8340 N   0  0  0  0  0  0  0  0  0  0  0  0
   37.9510   23.7470   38.0410 C   0  0  0  0  0  0  0  0  0  0  0  0
   39.1580   23.4040   38.4820 N   0  0  0  0  0  0  0  0  0  0  0  0
   40.9670   22.2890   37.9290 H   0  0  0  0  0  0  0  0  0  0  0  0
   40.0960   21.6370   35.7890 H   0  0  0  0  0  0  0  0  0  0  0  0
   37.3650   24.3600   38.7320 H   0  0  0  0  0  0  0  0  0  0  0  0
   38.5050   22.4710   31.0110 C   0  0  0  0  0  0  0  0  0  0  0  0
   38.2210   23.7090   30.4090 C   0  0  0  0  0  0  0  0  0  0  0  0
   37.5350   24.4990   30.7580 H   0  0  0  0  0  0  0  0  0  0  0  0
   39.2810   23.6740   28.8900 S   0  0  0  0  0  0  0  0  0  0  0  0
   39.9260   21.9530   29.3630 C   0  0  0  0  0  0  0  0  0  0  0  0
   40.6730   21.2430   28.8550 H   0  0  0  0  0  0  0  0  0  0  0  0
   39.3820   21.7340   30.3370 N   0  0  0  0  0  0  0  0  0  0  0  0
  2  3  1  0  0  0  0
  2  1  1  0  0  0  0
  3 13  1  0  0  0  0
  4  9  1  0  0  0  0
  4  3  2  0  0  0  0
  5  6  2  0  0  0  0
  5  4  1  0  0  0  0
  6  8  1  0  0  0  0
  7  6  1  0  0  0  0
  8  2  2  0  0  0  0
 10  8  1  0  0  0  0
 11 17  1  0  0  0  0
 11 16  1  0  0  0  0
 12 11  2  0  0  0  0
 13 12  1  0  0  0  0
 13 14  2  0  0  0  0
 14 15  1  0  0  0  0
 15 16  2  0  0  0  0
 15 19  1  0  0  0  0
 18 12  1  0  0  0  0
 20  5  1  0  0  0  0
 21 22  1  0  0  0  0
 21 20  2  0  0  0  0
 23 24  1  0  0  0  0
 23 21  1  0  0  0  0
 24 26  2  0  0  0  0
 25 24  1  0  0  0  0
 26 20  1  0  0  0  0
M  END
>  <minimizedAffinity>
-4.74721861

$$$$

 OpenBabel03262523453D

 26 28  0  0  0  0  0  0  0  0999 V2000
   37.0830   28.3280   29.5410 Cl  0  0  0  0  0  0  0  0  0  0  0  0
   36.4770   29.0720   31.0030 C   0  0  0  0  0  0  0  0  0  0  0  0
   36.0130   28.2840   32.0510 C   0  0  0  0  0  0  0  0  0  0  0  0
   35.5600   28.9600   33.1500 C   0  0  0  0  0  0  0  0  0  0  0  0
   35.5350   30.3210   33.2820 C   0  0  0  0  0  0  0  0  0  0  0  0
   36.0150   31.0560   32.1950 C   0  0  0  0  0  0  0  0  0  0  0  0
   35.9920   32.8080   32.3460 Cl  0  0  0  0  0  0  0  0  0  0  0  0
   36.4920   30.4490   31.0450 C   0  0  0  0  0  0  0  0  0  0  0  0
   35.2050   28.3090   33.9490 H   0  0  0  0  0  0  0  0  0  0  0  0
   36.8460   31.0740   30.2460 H   0  0  0  0  0  0  0  0  0  0  0  0
   37.0920   24.6710   32.2920 C   0  0  0  0  0  0  0  0  0  0  0  0
   37.0430   26.0650   32.4460 C   0  0  0  0  0  0  0  0  0  0  0  0
   36.0510   26.8450   31.8830 C   0  0  0  0  0  0  0  0  0  0  0  0
   35.1290   26.1700   31.1700 N   0  0  0  0  0  0  0  0  0  0  0  0
   35.1650   24.8370   31.0160 C   0  0  0  0  0  0  0  0  0  0  0  0
   36.1270   24.1000   31.5650 N   0  0  0  0  0  0  0  0  0  0  0  0
   37.9370   24.2340   32.8020 H   0  0  0  0  0  0  0  0  0  0  0  0
   37.7930   26.6200   33.0260 H   0  0  0  0  0  0  0  0  0  0  0  0
   34.4250   24.2730   30.4400 H   0  0  0  0  0  0  0  0  0  0  0  0
   35.0330   30.9810   34.4950 C   0  0  0  0  0  0  0  0  0  0  0  0
   35.8980   31.2590   35.5670 C   0  0  0  0  0  0  0  0  0  0  0  0
   36.9770   31.0440   35.6520 H   0  0  0  0  0  0  0  0  0  0  0  0
   34.7740   32.0710   36.7950 S   0  0  0  0  0  0  0  0  0  0  0  0
   33.3100   31.8800   35.6020 C   0  0  0  0  0  0  0  0  0  0  0  0
   32.2040   32.1750   35.6860 H   0  0  0  0  0  0  0  0  0  0  0  0
   33.7780   31.3680   34.7020 N   0  0  0  0  0  0  0  0  0  0  0  0
  1  2  1  0  0  0  0
  2  8  2  0  0  0  0
  2  3  1  0  0  0  0
  3  4  2  0  0  0  0
  4  5  1  0  0  0  0
  4  9  1  0  0  0  0
  5 20  1  0  0  0  0
  6  7  1  0  0  0  0
  6  5  2  0  0  0  0
  8  6  1  0  0  0  0
 10  8  1  0  0  0  0
 11 12  1  0  0  0  0
 11 17  1  0  0  0  0
 12 18  1  0  0  0  0
 13  3  1  0  0  0  0
 13 12  2  0  0  0  0
 14 13  1  0  0  0  0
 15 14  2  0  0  0  0
 15 16  1  0  0  0  0
 16 11  2  0  0  0  0
 19 15  1  0  0  0  0
 20 26  1  0  0  0  0
 20 21  2  0  0  0  0
 21 22  1  0  0  0  0
 21 23  1  0  0  0  0
 24 25  1  0  0  0  0
 24 23  1  0  0  0  0
 26 24  2  0  0  0  0
M  END
>  <minimizedAffinity>
-4.71456623

$$$$

 OpenBabel03262523453D

 26 28  0  0  0  0  0  0  0  0999 V2000
   34.9070   31.1270   32.1570 Cl  0  0  0  0  0  0  0  0  0  0  0  0
   35.8240   29.7480   32.7180 C   0  0  0  0  0  0  0  0  0  0  0  0
   35.8600   29.4330   34.0730 C   0  0  0  0  0  0  0  0  0  0  0  0
   36.6040   28.3370   34.4110 C   0  0  0  0  0  0  0  0  0  0  0  0
   37.2960   27.5530   33.5300 C   0  0  0  0  0  0  0  0  0  0  0  0
   37.2200   27.9220   32.1840 C   0  0  0  0  0  0  0  0  0  0  0  0
   38.1030   26.9260   31.0350 Cl  0  0  0  0  0  0  0  0  0  0  0  0
   36.4890   29.0170   31.7580 C   0  0  0  0  0  0  0  0  0  0  0  0
   36.6070   28.1220   35.4800 H   0  0  0  0  0  0  0  0  0  0  0  0
   36.4730   29.2460   30.7080 H   0  0  0  0  0  0  0  0  0  0  0  0
   35.0260   32.0680   36.6500 C   0  0  0  0  0  0  0  0  0  0  0  0
   35.7330   31.2400   35.7650 C   0  0  0  0  0  0  0  0  0  0  0  0
   35.1160   30.2810   34.9840 C   0  0  0  0  0  0  0  0  0  0  0  0
   33.7810   30.1950   35.1330 N   0  0  0  0  0  0  0  0  0  0  0  0
   33.0940   30.9820   35.9770 C   0  0  0  0  0  0  0  0  0  0  0  0
   33.7030   31.9010   36.7210 N   0  0  0  0  0  0  0  0  0  0  0  0
   35.6760   32.7530   37.1730 H   0  0  0  0  0  0  0  0  0  0  0  0
   36.8230   31.3050   35.6400 H   0  0  0  0  0  0  0  0  0  0  0  0
   32.0090   30.9260   36.1100 H   0  0  0  0  0  0  0  0  0  0  0  0
   38.0780   26.3870   33.9650 C   0  0  0  0  0  0  0  0  0  0  0  0
   39.3910   26.5440   34.4390 C   0  0  0  0  0  0  0  0  0  0  0  0
   39.9750   27.4730   34.5440 H   0  0  0  0  0  0  0  0  0  0  0  0
   39.8880   24.8040   34.8360 S   0  0  0  0  0  0  0  0  0  0  0  0
   38.1880   24.1750   34.2750 C   0  0  0  0  0  0  0  0  0  0  0  0
   37.7320   23.1220   34.2310 H   0  0  0  0  0  0  0  0  0  0  0  0
   37.6540   25.1270   33.9590 N   0  0  0  0  0  0  0  0  0  0  0  0
  1  2  1  0  0  0  0
  2  3  1  0  0  0  0
  3  4  2  0  0  0  0
  3 13  1  0  0  0  0
  4  9  1  0  0  0  0
  5 20  1  0  0  0  0
  5  4  1  0  0  0  0
  6  5  2  0  0  0  0
  7  6  1  0  0  0  0
  8  6  1  0  0  0  0
  8  2  2  0  0  0  0
 10  8  1  0  0  0  0
 11 16  1  0  0  0  0
 11 17  1  0  0  0  0
 12 11  2  0  0  0  0
 13 14  2  0  0  0  0
 13 12  1  0  0  0  0
 14 15  1  0  0  0  0
 15 19  1  0  0  0  0
 15 16  2  0  0  0  0
 18 12  1  0  0  0  0
 20 21  2  0  0  0  0
 21 22  1  0  0  0  0
 21 23  1  0  0  0  0
 24 23  1  0  0  0  0
 25 24  1  0  0  0  0
 26 20  1  0  0  0  0
 26 24  2  0  0  0  0
M  END
>  <minimizedAffinity>
-4.69502974

$$$$

 OpenBabel03262523453D

 26 28  0  0  0  0  0  0  0  0999 V2000
   39.0610   26.1900   35.0150 Cl  0  0  0  0  0  0  0  0  0  0  0  0
   38.4630   24.8040   34.1330 C   0  0  0  0  0  0  0  0  0  0  0  0
   38.2280   23.6010   34.7910 C   0  0  0  0  0  0  0  0  0  0  0  0
   37.7620   22.5770   34.0150 C   0  0  0  0  0  0  0  0  0  0  0  0
   37.5170   22.6560   32.6710 C   0  0  0  0  0  0  0  0  0  0  0  0
   37.7730   23.8910   32.0690 C   0  0  0  0  0  0  0  0  0  0  0  0
   37.4630   24.0130   30.3420 Cl  0  0  0  0  0  0  0  0  0  0  0  0
   38.2460   24.9780   32.7840 C   0  0  0  0  0  0  0  0  0  0  0  0
   37.5900   21.6520   34.5660 H   0  0  0  0  0  0  0  0  0  0  0  0
   38.4210   25.8990   32.2580 H   0  0  0  0  0  0  0  0  0  0  0  0
   39.9190   22.9180   38.1010 C   0  0  0  0  0  0  0  0  0  0  0  0
   39.6470   22.9770   36.7260 C   0  0  0  0  0  0  0  0  0  0  0  0
   38.4960   23.5460   36.2150 C   0  0  0  0  0  0  0  0  0  0  0  0
   37.6480   24.0430   37.1350 N   0  0  0  0  0  0  0  0  0  0  0  0
   37.8980   23.9930   38.4530 C   0  0  0  0  0  0  0  0  0  0  0  0
   39.0110   23.4420   38.9280 N   0  0  0  0  0  0  0  0  0  0  0  0
   40.8630   22.4380   38.3090 H   0  0  0  0  0  0  0  0  0  0  0  0
   40.3350   22.5730   35.9710 H   0  0  0  0  0  0  0  0  0  0  0  0
   37.2200   24.3920   39.2140 H   0  0  0  0  0  0  0  0  0  0  0  0
   37.0140   21.5120   31.8980 C   0  0  0  0  0  0  0  0  0  0  0  0
   37.8800   20.7670   31.0790 C   0  0  0  0  0  0  0  0  0  0  0  0
   38.9600   20.9160   30.9090 H   0  0  0  0  0  0  0  0  0  0  0  0
   36.7540   19.4850   30.3600 S   0  0  0  0  0  0  0  0  0  0  0  0
   35.2890   20.2100   31.3230 C   0  0  0  0  0  0  0  0  0  0  0  0
   34.1810   19.9130   31.3810 H   0  0  0  0  0  0  0  0  0  0  0  0
   35.7580   21.0790   31.8880 N   0  0  0  0  0  0  0  0  0  0  0  0
  2  3  1  0  0  0  0
  2  1  1  0  0  0  0
  3 13  1  0  0  0  0
  4  9  1  0  0  0  0
  4  3  2  0  0  0  0
  5  4  1  0  0  0  0
  6  5  2  0  0  0  0
  6  8  1  0  0  0  0
  7  6  1  0  0  0  0
  8  2  2  0  0  0  0
 10  8  1  0  0  0  0
 11 17  1  0  0  0  0
 11 16  1  0  0  0  0
 12 11  2  0  0  0  0
 13 12  1  0  0  0  0
 13 14  2  0  0  0  0
 14 15  1  0  0  0  0
 15 16  2  0  0  0  0
 15 19  1  0  0  0  0
 18 12  1  0  0  0  0
 20  5  1  0  0  0  0
 21 20  2  0  0  0  0
 22 21  1  0  0  0  0
 23 21  1  0  0  0  0
 23 24  1  0  0  0  0
 24 25  1  0  0  0  0
 24 26  2  0  0  0  0
 26 20  1  0  0  0  0
M  END
>  <minimizedAffinity>
-4.56414175

$$$$

 OpenBabel03262523453D

 26 28  0  0  0  0  0  0  0  0999 V2000
   33.9650   32.6280   32.8140 Cl  0  0  0  0  0  0  0  0  0  0  0  0
   34.8840   31.1440   32.7240 C   0  0  0  0  0  0  0  0  0  0  0  0
   35.0580   30.3550   33.8570 C   0  0  0  0  0  0  0  0  0  0  0  0
   35.7920   29.2150   33.6840 C   0  0  0  0  0  0  0  0  0  0  0  0
   36.3500   28.8100   32.5030 C   0  0  0  0  0  0  0  0  0  0  0  0
   36.1400   29.6450   31.4020 C   0  0  0  0  0  0  0  0  0  0  0  0
   36.8490   29.1410   29.8740 Cl  0  0  0  0  0  0  0  0  0  0  0  0
   35.4090   30.8170   31.4930 C   0  0  0  0  0  0  0  0  0  0  0  0
   35.9050   28.6250   34.5930 H   0  0  0  0  0  0  0  0  0  0  0  0
   35.2860   31.4130   30.6070 H   0  0  0  0  0  0  0  0  0  0  0  0
   34.5440   32.0960   37.1720 C   0  0  0  0  0  0  0  0  0  0  0  0
   35.1160   31.6480   35.9710 C   0  0  0  0  0  0  0  0  0  0  0  0
   34.4540   30.8100   35.0950 C   0  0  0  0  0  0  0  0  0  0  0  0
   33.2140   30.4480   35.4750 N   0  0  0  0  0  0  0  0  0  0  0  0
   32.6560   30.8700   36.6220 C   0  0  0  0  0  0  0  0  0  0  0  0
   33.3070   31.6780   37.4540 N   0  0  0  0  0  0  0  0  0  0  0  0
   35.2090   32.7410   37.7240 H   0  0  0  0  0  0  0  0  0  0  0  0
   36.1270   31.9390   35.6560 H   0  0  0  0  0  0  0  0  0  0  0  0
   31.6500   30.5870   36.9460 H   0  0  0  0  0  0  0  0  0  0  0  0
   37.1280   27.5690   32.3890 C   0  0  0  0  0  0  0  0  0  0  0  0
   36.4810   26.3250   32.2990 C   0  0  0  0  0  0  0  0  0  0  0  0
   35.3980   26.1140   32.3010 H   0  0  0  0  0  0  0  0  0  0  0  0
   37.8980   25.1390   32.1800 S   0  0  0  0  0  0  0  0  0  0  0  0
   39.1310   26.5790   32.2750 C   0  0  0  0  0  0  0  0  0  0  0  0
   40.2780   26.6140   32.2590 H   0  0  0  0  0  0  0  0  0  0  0  0
   38.4550   27.4890   32.3600 N   0  0  0  0  0  0  0  0  0  0  0  0
  2  1  1  0  0  0  0
  2  3  1  0  0  0  0
  3 13  1  0  0  0  0
  4  3  2  0  0  0  0
  4  9  1  0  0  0  0
  5  4  1  0  0  0  0
  6  8  1  0  0  0  0
  6  5  2  0  0  0  0
  7  6  1  0  0  0  0
  8  2  2  0  0  0  0
 10  8  1  0  0  0  0
 11 16  1  0  0  0  0
 11 17  1  0  0  0  0
 12 11  2  0  0  0  0
 13 14  2  0  0  0  0
 13 12  1  0  0  0  0
 14 15  1  0  0  0  0
 15 19  1  0  0  0  0
 15 16  2  0  0  0  0
 18 12  1  0  0  0  0
 20  5  1  0  0  0  0
 21 22  1  0  0  0  0
 21 20  2  0  0  0  0
 23 24  1  0  0  0  0
 23 21  1  0  0  0  0
 24 26  2  0  0  0  0
 25 24  1  0  0  0  0
 26 20  1  0  0  0  0
M  END
>  <minimizedAffinity>
-4.48512316

$$$$

 OpenBabel03262523453D

 26 28  0  0  0  0  0  0  0  0999 V2000
   36.0520   20.6640   30.7470 Cl  0  0  0  0  0  0  0  0  0  0  0  0
   36.7430   21.2030   32.2590 C   0  0  0  0  0  0  0  0  0  0  0  0
   37.9200   21.9450   32.2680 C   0  0  0  0  0  0  0  0  0  0  0  0
   38.3800   22.3190   33.5000 C   0  0  0  0  0  0  0  0  0  0  0  0
   37.7750   22.0210   34.6900 C   0  0  0  0  0  0  0  0  0  0  0  0
   36.5960   21.2740   34.6130 C   0  0  0  0  0  0  0  0  0  0  0  0
   35.8030   20.8810   36.1330 Cl  0  0  0  0  0  0  0  0  0  0  0  0
   36.0640   20.8560   33.4060 C   0  0  0  0  0  0  0  0  0  0  0  0
   39.3030   22.8980   33.4660 H   0  0  0  0  0  0  0  0  0  0  0  0
   35.1540   20.2840   33.4190 H   0  0  0  0  0  0  0  0  0  0  0  0
   39.0050   23.7860   29.1510 C   0  0  0  0  0  0  0  0  0  0  0  0
   38.4110   23.4810   30.3860 C   0  0  0  0  0  0  0  0  0  0  0  0
   38.5390   22.2460   30.9920 C   0  0  0  0  0  0  0  0  0  0  0  0
   39.2780   21.3490   30.3120 N   0  0  0  0  0  0  0  0  0  0  0  0
   39.8520   21.6300   29.1310 C   0  0  0  0  0  0  0  0  0  0  0  0
   39.7180   22.8240   28.5600 N   0  0  0  0  0  0  0  0  0  0  0  0
   38.7950   24.7970   28.8370 H   0  0  0  0  0  0  0  0  0  0  0  0
   37.8070   24.2090   30.9450 H   0  0  0  0  0  0  0  0  0  0  0  0
   40.4550   20.9130   28.5640 H   0  0  0  0  0  0  0  0  0  0  0  0
   38.3270   22.4570   35.9810 C   0  0  0  0  0  0  0  0  0  0  0  0
   37.5810   23.2900   36.8320 C   0  0  0  0  0  0  0  0  0  0  0  0
   36.5700   23.7020   36.6740 H   0  0  0  0  0  0  0  0  0  0  0  0
   38.7200   23.5210   38.2730 S   0  0  0  0  0  0  0  0  0  0  0  0
   40.0230   22.4220   37.4380 C   0  0  0  0  0  0  0  0  0  0  0  0
   41.0720   22.0860   37.7640 H   0  0  0  0  0  0  0  0  0  0  0  0
   39.5230   22.1310   36.4590 N   0  0  0  0  0  0  0  0  0  0  0  0
  1  2  1  0  0  0  0
  2  3  2  0  0  0  0
  2  8  1  0  0  0  0
  3  4  1  0  0  0  0
  4  5  2  0  0  0  0
  5 20  1  0  0  0  0
  6  5  1  0  0  0  0
  6  7  1  0  0  0  0
  8 10  1  0  0  0  0
  8  6  2  0  0  0  0
  9  4  1  0  0  0  0
 11 12  1  0  0  0  0
 12 18  1  0  0  0  0
 12 13  2  0  0  0  0
 13  3  1  0  0  0  0
 14 13  1  0  0  0  0
 15 14  2  0  0  0  0
 16 15  1  0  0  0  0
 16 11  2  0  0  0  0
 17 11  1  0  0  0  0
 19 15  1  0  0  0  0
 20 26  1  0  0  0  0
 20 21  2  0  0  0  0
 21 23  1  0  0  0  0
 22 21  1  0  0  0  0
 24 25  1  0  0  0  0
 24 23  1  0  0  0  0
 26 24  2  0  0  0  0
M  END
>  <minimizedAffinity>
-4.4426713

$$$$

 OpenBabel03262523453D

 26 28  0  0  0  0  0  0  0  0999 V2000
   34.6110   25.2610   30.4680 Cl  0  0  0  0  0  0  0  0  0  0  0  0
   35.9470   24.8920   31.5330 C   0  0  0  0  0  0  0  0  0  0  0  0
   36.7400   25.9150   32.0450 C   0  0  0  0  0  0  0  0  0  0  0  0
   37.7600   25.5240   32.8670 C   0  0  0  0  0  0  0  0  0  0  0  0
   38.0430   24.2310   33.2110 C   0  0  0  0  0  0  0  0  0  0  0  0
   37.2100   23.2510   32.6640 C   0  0  0  0  0  0  0  0  0  0  0  0
   37.5580   21.5810   33.0940 Cl  0  0  0  0  0  0  0  0  0  0  0  0
   36.1560   23.5620   31.8230 C   0  0  0  0  0  0  0  0  0  0  0  0
   38.3570   26.3520   33.2480 H   0  0  0  0  0  0  0  0  0  0  0  0
   35.5550   22.7580   31.4370 H   0  0  0  0  0  0  0  0  0  0  0  0
   36.6680   29.1970   30.1730 C   0  0  0  0  0  0  0  0  0  0  0  0
   36.9730   27.8810   30.5540 C   0  0  0  0  0  0  0  0  0  0  0  0
   36.4160   27.2760   31.6640 C   0  0  0  0  0  0  0  0  0  0  0  0
   35.5560   28.0410   32.3610 N   0  0  0  0  0  0  0  0  0  0  0  0
   35.2560   29.3010   32.0070 C   0  0  0  0  0  0  0  0  0  0  0  0
   35.8010   29.8690   30.9350 N   0  0  0  0  0  0  0  0  0  0  0  0
   37.1980   29.4960   29.2820 H   0  0  0  0  0  0  0  0  0  0  0  0
   37.6740   27.2520   29.9890 H   0  0  0  0  0  0  0  0  0  0  0  0
   34.5600   29.9380   32.5620 H   0  0  0  0  0  0  0  0  0  0  0  0
   39.1580   23.8830   34.1030 C   0  0  0  0  0  0  0  0  0  0  0  0
   40.4570   23.7180   33.5920 C   0  0  0  0  0  0  0  0  0  0  0  0
   40.8000   23.8140   32.5480 H   0  0  0  0  0  0  0  0  0  0  0  0
   41.4370   23.2990   35.1070 S   0  0  0  0  0  0  0  0  0  0  0  0
   39.8720   23.4280   36.1730 C   0  0  0  0  0  0  0  0  0  0  0  0
   39.6920   23.2880   37.2980 H   0  0  0  0  0  0  0  0  0  0  0  0
   39.0680   23.6980   35.4160 N   0  0  0  0  0  0  0  0  0  0  0  0
  1  2  1  0  0  0  0
  2  8  2  0  0  0  0
  2  3  1  0  0  0  0
  3  4  2  0  0  0  0
  4  5  1  0  0  0  0
  4  9  1  0  0  0  0
  5 20  1  0  0  0  0
  6  7  1  0  0  0  0
  6  5  2  0  0  0  0
  8  6  1  0  0  0  0
 10  8  1  0  0  0  0
 11 12  2  0  0  0  0
 11 16  1  0  0  0  0
 12 13  1  0  0  0  0
 13  3  1  0  0  0  0
 13 14  2  0  0  0  0
 15 14  1  0  0  0  0
 15 19  1  0  0  0  0
 16 15  2  0  0  0  0
 17 11  1  0  0  0  0
 18 12  1  0  0  0  0
 20 26  1  0  0  0  0
 21 20  2  0  0  0  0
 21 23  1  0  0  0  0
 22 21  1  0  0  0  0
 23 24  1  0  0  0  0
 24 25  1  0  0  0  0
 26 24  2  0  0  0  0
M  END
>  <minimizedAffinity>
-4.377841

$$$$

 OpenBabel03262523453D

 26 28  0  0  0  0  0  0  0  0999 V2000
   34.9840   30.5890   31.6870 Cl  0  0  0  0  0  0  0  0  0  0  0  0
   35.9860   29.3350   32.3800 C   0  0  0  0  0  0  0  0  0  0  0  0
   35.9000   29.0370   33.7360 C   0  0  0  0  0  0  0  0  0  0  0  0
   36.7250   28.0410   34.1810 C   0  0  0  0  0  0  0  0  0  0  0  0
   37.6020   27.3380   33.4020 C   0  0  0  0  0  0  0  0  0  0  0  0
   37.6410   27.6860   32.0490 C   0  0  0  0  0  0  0  0  0  0  0  0
   38.7630   26.7930   31.0310 Cl  0  0  0  0  0  0  0  0  0  0  0  0
   36.8400   28.6820   31.5180 C   0  0  0  0  0  0  0  0  0  0  0  0
   36.6280   27.8360   35.2470 H   0  0  0  0  0  0  0  0  0  0  0  0
   36.9200   28.8980   30.4680 H   0  0  0  0  0  0  0  0  0  0  0  0
   32.7160   30.1550   35.4360 C   0  0  0  0  0  0  0  0  0  0  0  0
   33.6350   29.4290   34.6640 C   0  0  0  0  0  0  0  0  0  0  0  0
   34.9610   29.7980   34.5370 C   0  0  0  0  0  0  0  0  0  0  0  0
   35.3120   30.9100   35.2100 N   0  0  0  0  0  0  0  0  0  0  0  0
   34.4410   31.6130   35.9520 C   0  0  0  0  0  0  0  0  0  0  0  0
   33.1680   31.2440   36.0640 N   0  0  0  0  0  0  0  0  0  0  0  0
   31.7300   29.7160   35.4150 H   0  0  0  0  0  0  0  0  0  0  0  0
   33.3550   28.5210   34.1120 H   0  0  0  0  0  0  0  0  0  0  0  0
   34.7090   32.5180   36.5050 H   0  0  0  0  0  0  0  0  0  0  0  0
   38.4600   26.2780   33.9490 C   0  0  0  0  0  0  0  0  0  0  0  0
   38.0000   24.9520   34.0180 C   0  0  0  0  0  0  0  0  0  0  0  0
   37.0230   24.5480   33.7050 H   0  0  0  0  0  0  0  0  0  0  0  0
   39.4420   24.0620   34.7680 S   0  0  0  0  0  0  0  0  0  0  0  0
   40.4200   25.6860   34.8490 C   0  0  0  0  0  0  0  0  0  0  0  0
   41.4770   25.9320   35.2260 H   0  0  0  0  0  0  0  0  0  0  0  0
   39.6950   26.4450   34.4120 N   0  0  0  0  0  0  0  0  0  0  0  0
  1  2  1  0  0  0  0
  2  3  1  0  0  0  0
  3  4  2  0  0  0  0
  3 13  1  0  0  0  0
  4  9  1  0  0  0  0
  5 20  1  0  0  0  0
  5  4  1  0  0  0  0
  6  5  2  0  0  0  0
  7  6  1  0  0  0  0
  8  6  1  0  0  0  0
  8  2  2  0  0  0  0
 10  8  1  0  0  0  0
 11 16  1  0  0  0  0
 12 11  2  0  0  0  0
 13 12  1  0  0  0  0
 13 14  2  0  0  0  0
 14 15  1  0  0  0  0
 15 16  2  0  0  0  0
 15 19  1  0  0  0  0
 17 11  1  0  0  0  0
 18 12  1  0  0  0  0
 20 21  2  0  0  0  0
 20 26  1  0  0  0  0
 21 23  1  0  0  0  0
 22 21  1  0  0  0  0
 23 24  1  0  0  0  0
 24 25  1  0  0  0  0
 26 24  2  0  0  0  0
M  END
>  <minimizedAffinity>
-4.35257673

$$$$
