
 OpenBabel03272508113D

 32 34  0  0  0  0  0  0  0  0999 V2000
   36.6530   29.4590   44.0550 Cl  0  0  0  0  0  0  0  0  0  0  0  0
   38.3150   29.8240   43.5220 C   0  0  0  0  0  0  0  0  0  0  0  0
   39.3000   30.3020   44.3690 C   0  0  0  0  0  0  0  0  0  0  0  0
   40.5370   30.5370   43.8080 C   0  0  0  0  0  0  0  0  0  0  0  0
   40.7990   30.3160   42.4830 C   0  0  0  0  0  0  0  0  0  0  0  0
   39.8310   29.8480   41.6580 C   0  0  0  0  0  0  0  0  0  0  0  0
   38.5690   29.5930   42.1620 C   0  0  0  0  0  0  0  0  0  0  0  0
   41.2630   30.9080   44.5170 H   0  0  0  0  0  0  0  0  0  0  0  0
   41.8050   30.5370   42.1570 H   0  0  0  0  0  0  0  0  0  0  0  0
   40.0560   29.6800   40.6170 H   0  0  0  0  0  0  0  0  0  0  0  0
   37.4880   29.0790   41.2830 C   0  0  0  0  0  0  0  0  0  0  0  0
   37.3930   27.7160   41.0280 C   0  0  0  0  0  0  0  0  0  0  0  0
   37.9730   26.8340   41.3450 H   0  0  0  0  0  0  0  0  0  0  0  0
   35.8880   27.6160   39.8880 S   0  0  0  0  0  0  0  0  0  0  0  0
   35.7050   29.4990   40.0030 C   0  0  0  0  0  0  0  0  0  0  0  0
   34.9670   30.3290   39.5610 H   0  0  0  0  0  0  0  0  0  0  0  0
   36.5530   29.7960   40.6780 N   0  0  0  0  0  0  0  0  0  0  0  0
   38.8620   30.4620   45.6530 O   0  0  0  0  0  0  0  0  0  0  0  0
   39.4450   32.5060   47.1160 O   0  0  0  0  0  0  0  0  0  0  0  0
   38.3060   31.8410   46.4270 P   0  0  1  0  0  0  0  0  0  0  0  0
   37.7280   32.8440   45.1710 O   0  0  0  0  0  0  0  0  0  0  0  0
   38.5200   33.2960   44.7580 H   0  0  0  0  0  0  0  0  0  0  0  0
   37.0250   31.4280   47.4570 O   0  0  0  0  0  0  0  0  0  0  0  0
   37.6160   30.5260   50.9900 C   0  0  0  0  0  0  0  0  0  0  0  0
   37.7100   31.3070   49.8380 C   0  0  0  0  0  0  0  0  0  0  0  0
   37.0740   30.8510   48.6770 C   0  0  0  0  0  0  0  0  0  0  0  0
   36.3970   29.6660   48.7420 N   0  0  0  0  0  0  0  0  0  0  0  0
   36.3280   28.9380   49.8750 C   0  0  0  0  0  0  0  0  0  0  0  0
   36.9360   29.3690   50.9940 N   0  0  0  0  0  0  0  0  0  0  0  0
   38.1370   30.9690   51.8110 H   0  0  0  0  0  0  0  0  0  0  0  0
   38.2150   32.2340   49.7140 H   0  0  0  0  0  0  0  0  0  0  0  0
   35.7910   27.9990   49.9260 H   0  0  0  0  0  0  0  0  0  0  0  0
  2  1  1  0  0  0  0
  2  3  1  0  0  0  0
  3 18  1  0  0  0  0
  4  3  2  0  0  0  0
  4  8  1  0  0  0  0
  5  4  1  0  0  0  0
  6  7  1  0  0  0  0
  6  5  2  0  0  0  0
  7  2  2  0  0  0  0
  9  5  1  0  0  0  0
 10  6  1  0  0  0  0
 11  7  1  0  0  0  0
 12 11  2  0  0  0  0
 12 13  1  0  0  0  0
 14 15  1  0  0  0  0
 14 12  1  0  0  0  0
 15 17  2  0  0  0  0
 16 15  1  0  0  0  0
 17 11  1  0  0  0  0
 18 20  1  0  0  0  0
 20 19  2  1  0  0  0
 20 23  1  0  0  0  0
 21 20  1  0  0  0  0
 22 21  1  0  0  0  0
 23 26  1  0  0  0  0
 24 29  1  0  0  0  0
 24 30  1  0  0  0  0
 25 24  2  0  0  0  0
 26 27  2  0  0  0  0
 26 25  1  0  0  0  0
 27 28  1  0  0  0  0
 28 32  1  0  0  0  0
 28 29  2  0  0  0  0
 31 25  1  0  0  0  0
M  END
>  <minimizedAffinity>
-4.79301167

>  <minimizedRMSD>
0.103154115

$$$$
