
 OpenBabel03272506473D

 40 43  0  0  1  0  0  0  0  0999 V2000
   32.1580   28.4260   47.4870 C   0  0  2  0  0  0  0  0  0  0  0  0
   33.4140   28.2910   48.2940 C   0  0  1  0  0  0  0  0  0  0  0  0
   33.8390   27.0020   48.2040 O   0  0  0  0  0  0  0  0  0  0  0  0
   33.1400   26.3600   47.1870 C   0  0  0  0  0  0  0  0  0  0  0  0
   32.5080   27.4330   46.3320 C   0  0  1  0  0  0  0  0  0  0  0  0
   31.2400   28.1190   47.9730 H   0  0  0  0  0  0  0  0  0  0  0  0
   33.2040   28.6380   49.3230 H   0  0  0  0  0  0  0  0  0  0  0  0
   32.4590   25.6720   47.6670 H   0  0  0  0  0  0  0  0  0  0  0  0
   33.9000   25.8230   46.5630 H   0  0  0  0  0  0  0  0  0  0  0  0
   33.2100   27.9650   45.7010 H   0  0  0  0  0  0  0  0  0  0  0  0
   32.0450   29.7270   46.9560 O   0  0  0  0  0  0  0  0  0  0  0  0
   32.4480   29.7950   46.0600 H   0  0  0  0  0  0  0  0  0  0  0  0
   34.6890   29.3690   47.5310 S   0  0  0  0  0  0  0  0  0  0  0  0
   37.1410   29.2890   50.6430 C   0  0  0  0  0  0  0  0  0  0  0  0
   37.6170   30.5990   50.7570 C   0  0  0  0  0  0  0  0  0  0  0  0
   37.1610   31.5470   49.8330 C   0  0  0  0  0  0  0  0  0  0  0  0
   36.2850   31.1450   48.8780 N   0  0  0  0  0  0  0  0  0  0  0  0
   35.8470   29.8710   48.7980 C   0  0  0  0  0  0  0  0  0  0  0  0
   36.2680   28.9260   49.6780 N   0  0  0  0  0  0  0  0  0  0  0  0
   37.5090   28.5770   51.3690 H   0  0  0  0  0  0  0  0  0  0  0  0
   38.3150   30.9120   51.5210 H   0  0  0  0  0  0  0  0  0  0  0  0
   37.4670   32.5840   49.8350 H   0  0  0  0  0  0  0  0  0  0  0  0
   31.3660   26.9300   45.7570 O   0  0  0  0  0  0  0  0  0  0  0  0
   30.0890   29.0310   44.1430 Cl  0  0  0  0  0  0  0  0  0  0  0  0
   29.4170   28.1270   45.4830 C   0  0  0  0  0  0  0  0  0  0  0  0
   30.1170   27.1520   46.1510 C   0  0  0  0  0  0  0  0  0  0  0  0
   29.4660   26.4730   47.1820 C   0  0  0  0  0  0  0  0  0  0  0  0
   28.1640   26.7780   47.5120 C   0  0  0  0  0  0  0  0  0  0  0  0
   27.4560   27.7550   46.8450 C   0  0  0  0  0  0  0  0  0  0  0  0
   28.1070   28.4420   45.8070 C   0  0  0  0  0  0  0  0  0  0  0  0
   29.9170   25.6900   47.7650 H   0  0  0  0  0  0  0  0  0  0  0  0
   27.6280   26.2750   48.3010 H   0  0  0  0  0  0  0  0  0  0  0  0
   26.4400   27.9870   47.1090 H   0  0  0  0  0  0  0  0  0  0  0  0
   27.3990   29.4900   45.0700 C   0  0  0  0  0  0  0  0  0  0  0  0
   26.6400   29.1870   43.9470 C   0  0  0  0  0  0  0  0  0  0  0  0
   26.4100   28.2000   43.4010 H   0  0  0  0  0  0  0  0  0  0  0  0
   25.9490   30.8460   43.3720 S   0  0  0  0  0  0  0  0  0  0  0  0
   26.8600   31.6530   44.8220 C   0  0  0  0  0  0  0  0  0  0  0  0
   27.0260   32.7710   45.3090 H   0  0  0  0  0  0  0  0  0  0  0  0
   27.3670   30.7820   45.3220 N   0  0  0  0  0  0  0  0  0  0  0  0
  1  6  1  1  0  0  0
  1  2  1  0  0  0  0
  2  7  1  1  0  0  0
  3  2  1  0  0  0  0
  4  8  1  0  0  0  0
  4  3  1  0  0  0  0
  5 10  1  6  0  0  0
  5  4  1  0  0  0  0
  5  1  1  0  0  0  0
  9  4  1  0  0  0  0
 11  1  1  0  0  0  0
 12 11  1  0  0  0  0
 13  2  1  0  0  0  0
 13 18  1  0  0  0  0
 14 15  1  0  0  0  0
 14 20  1  0  0  0  0
 15 21  1  0  0  0  0
 16 22  1  0  0  0  0
 16 15  2  0  0  0  0
 17 16  1  0  0  0  0
 18 17  2  0  0  0  0
 18 19  1  0  0  0  0
 19 14  2  0  0  0  0
 23 26  1  0  0  0  0
 23  5  1  0  0  0  0
 24 25  1  0  0  0  0
 25 30  2  0  0  0  0
 25 26  1  0  0  0  0
 26 27  2  0  0  0  0
 27 28  1  0  0  0  0
 27 31  1  0  0  0  0
 28 32  1  0  0  0  0
 29 33  1  0  0  0  0
 29 28  2  0  0  0  0
 30 29  1  0  0  0  0
 34 40  1  0  0  0  0
 34 30  1  0  0  0  0
 35 34  2  0  0  0  0
 36 35  1  0  0  0  0
 37 35  1  0  0  0  0
 37 38  1  0  0  0  0
 38 39  1  0  0  0  0
 38 40  2  0  0  0  0
M  END
>  <minimizedAffinity>
-5.07488632

>  <minimizedRMSD>
0.511551976

$$$$
