
 OpenBabel03272508113D

 32 34  0  0  0  0  0  0  0  0999 V2000
   36.5930   29.4860   44.0690 Cl  0  0  0  0  0  0  0  0  0  0  0  0
   38.2490   29.8330   43.5050 C   0  0  0  0  0  0  0  0  0  0  0  0
   39.2570   30.2930   44.3350 C   0  0  0  0  0  0  0  0  0  0  0  0
   40.4850   30.5160   43.7520 C   0  0  0  0  0  0  0  0  0  0  0  0
   40.7180   30.3010   42.4200 C   0  0  0  0  0  0  0  0  0  0  0  0
   39.7280   29.8510   41.6110 C   0  0  0  0  0  0  0  0  0  0  0  0
   38.4730   29.6080   42.1390 C   0  0  0  0  0  0  0  0  0  0  0  0
   41.2290   30.8730   44.4480 H   0  0  0  0  0  0  0  0  0  0  0  0
   41.7200   30.5110   42.0760 H   0  0  0  0  0  0  0  0  0  0  0  0
   39.9300   29.6870   40.5660 H   0  0  0  0  0  0  0  0  0  0  0  0
   37.3680   29.1140   41.2790 C   0  0  0  0  0  0  0  0  0  0  0  0
   36.5910   30.0190   40.5650 C   0  0  0  0  0  0  0  0  0  0  0  0
   36.5870   31.1160   40.4670 H   0  0  0  0  0  0  0  0  0  0  0  0
   35.3710   28.8900   39.6640 S   0  0  0  0  0  0  0  0  0  0  0  0
   36.2010   27.3880   40.4720 C   0  0  0  0  0  0  0  0  0  0  0  0
   36.0560   26.2010   40.4550 H   0  0  0  0  0  0  0  0  0  0  0  0
   37.0120   27.8510   41.0950 N   0  0  0  0  0  0  0  0  0  0  0  0
   38.8460   30.4500   45.6290 O   0  0  0  0  0  0  0  0  0  0  0  0
   39.4480   32.4770   47.1080 O   0  0  0  0  0  0  0  0  0  0  0  0
   38.3020   31.8270   46.4170 P   0  0  1  0  0  0  0  0  0  0  0  0
   37.7270   32.8440   45.1720 O   0  0  0  0  0  0  0  0  0  0  0  0
   38.5220   33.2940   44.7600 H   0  0  0  0  0  0  0  0  0  0  0  0
   37.0220   31.4130   47.4480 O   0  0  0  0  0  0  0  0  0  0  0  0
   37.6130   30.5290   50.9840 C   0  0  0  0  0  0  0  0  0  0  0  0
   37.7070   31.3050   49.8290 C   0  0  0  0  0  0  0  0  0  0  0  0
   37.0700   30.8420   48.6700 C   0  0  0  0  0  0  0  0  0  0  0  0
   36.3950   29.6570   48.7410 N   0  0  0  0  0  0  0  0  0  0  0  0
   36.3270   28.9340   49.8780 C   0  0  0  0  0  0  0  0  0  0  0  0
   36.9350   29.3710   50.9940 N   0  0  0  0  0  0  0  0  0  0  0  0
   38.1330   30.9770   51.8030 H   0  0  0  0  0  0  0  0  0  0  0  0
   38.2110   32.2310   49.7010 H   0  0  0  0  0  0  0  0  0  0  0  0
   35.7910   27.9950   49.9330 H   0  0  0  0  0  0  0  0  0  0  0  0
  2  1  1  0  0  0  0
  2  3  1  0  0  0  0
  3 18  1  0  0  0  0
  4  3  2  0  0  0  0
  4  8  1  0  0  0  0
  5  4  1  0  0  0  0
  6  7  1  0  0  0  0
  6  5  2  0  0  0  0
  7  2  2  0  0  0  0
  9  5  1  0  0  0  0
 10  6  1  0  0  0  0
 11  7  1  0  0  0  0
 12 11  2  0  0  0  0
 13 12  1  0  0  0  0
 14 15  1  0  0  0  0
 14 12  1  0  0  0  0
 15 17  2  0  0  0  0
 16 15  1  0  0  0  0
 17 11  1  0  0  0  0
 18 20  1  0  0  0  0
 20 19  2  1  0  0  0
 20 23  1  0  0  0  0
 21 20  1  0  0  0  0
 22 21  1  0  0  0  0
 23 26  1  0  0  0  0
 24 29  1  0  0  0  0
 24 30  1  0  0  0  0
 25 24  2  0  0  0  0
 26 27  2  0  0  0  0
 26 25  1  0  0  0  0
 27 28  1  0  0  0  0
 28 32  1  0  0  0  0
 28 29  2  0  0  0  0
 31 25  1  0  0  0  0
M  END
>  <minimizedAffinity>
-4.80044699

>  <minimizedRMSD>
0.643301666

$$$$
