
 OpenBabel03272510233D

 29 32  0  0  0  0  0  0  0  0999 V2000
   36.6130   30.5190   45.7670 C   0  0  0  0  0  0  0  0  0  0  0  0
   37.5220   31.4580   46.2380 C   0  0  0  0  0  0  0  0  0  0  0  0
   38.0740   32.3730   45.3840 C   0  0  0  0  0  0  0  0  0  0  0  0
   37.6890   32.3230   44.0440 C   0  0  0  0  0  0  0  0  0  0  0  0
   38.1100   33.1300   43.0320 N   0  0  0  0  0  0  0  0  0  0  0  0
   37.4830   32.7220   41.9240 C   0  0  0  0  0  0  0  0  0  0  0  0
   36.6770   31.6730   42.2130 N   0  0  0  0  0  0  0  0  0  0  0  0
   36.7870   31.4070   43.5270 C   0  0  0  0  0  0  0  0  0  0  0  0
   36.2440   30.4910   44.4130 C   0  0  0  0  0  0  0  0  0  0  0  0
   36.1410   29.7710   46.3810 H   0  0  0  0  0  0  0  0  0  0  0  0
   38.7810   33.1050   45.7460 H   0  0  0  0  0  0  0  0  0  0  0  0
   38.7950   33.9150   43.1290 H   0  0  0  0  0  0  0  0  0  0  0  0
   35.5430   29.7730   44.0270 H   0  0  0  0  0  0  0  0  0  0  0  0
   38.6430   32.3010   49.7260 C   0  0  0  0  0  0  0  0  0  0  0  0
   38.3820   32.4660   48.3670 C   0  0  0  0  0  0  0  0  0  0  0  0
   37.8360   31.4010   47.6590 C   0  0  0  0  0  0  0  0  0  0  0  0
   37.5790   30.2350   48.3240 N   0  0  0  0  0  0  0  0  0  0  0  0
   37.8420   30.1000   49.6450 C   0  0  0  0  0  0  0  0  0  0  0  0
   38.3670   31.1180   50.3410 N   0  0  0  0  0  0  0  0  0  0  0  0
   39.0700   33.1820   50.2070 H   0  0  0  0  0  0  0  0  0  0  0  0
   38.5860   33.3760   47.8600 H   0  0  0  0  0  0  0  0  0  0  0  0
   37.6430   29.1840   50.1860 H   0  0  0  0  0  0  0  0  0  0  0  0
   37.6520   33.3310   40.5760 C   0  0  0  0  0  0  0  0  0  0  0  0
   36.5550   34.0660   39.9780 C   0  0  0  0  0  0  0  0  0  0  0  0
   35.6270   34.2380   40.3660 H   0  0  0  0  0  0  0  0  0  0  0  0
   37.3020   34.5760   38.3710 S   0  0  0  0  0  0  0  0  0  0  0  0
   38.9470   33.7170   38.7870 C   0  0  0  0  0  0  0  0  0  0  0  0
   39.7810   33.7240   38.1150 H   0  0  0  0  0  0  0  0  0  0  0  0
   38.7980   33.2200   39.8940 N   0  0  0  0  0  0  0  0  0  0  0  0
  1  2  1  0  0  0  0
  1 10  1  0  0  0  0
  2 16  1  0  0  0  0
  3 11  1  0  0  0  0
  3  2  2  0  0  0  0
  4  3  1  0  0  0  0
  5 12  1  0  0  0  0
  5  4  1  0  0  0  0
  6  7  2  0  0  0  0
  6  5  1  0  0  0  0
  7  8  1  0  0  0  0
  8  4  2  0  0  0  0
  8  9  1  0  0  0  0
  9  1  2  0  0  0  0
 13  9  1  0  0  0  0
 14 20  1  0  0  0  0
 14 19  1  0  0  0  0
 15 14  2  0  0  0  0
 16 17  2  0  0  0  0
 16 15  1  0  0  0  0
 17 18  1  0  0  0  0
 18 22  1  0  0  0  0
 18 19  2  0  0  0  0
 21 15  1  0  0  0  0
 23  6  1  0  0  0  0
 24 25  1  0  0  0  0
 24 23  2  0  0  0  0
 26 27  1  0  0  0  0
 26 24  1  0  0  0  0
 27 29  2  0  0  0  0
 28 27  1  0  0  0  0
 29 23  1  0  0  0  0
M  END
>  <minimizedAffinity>
-4.7901845

>  <minimizedRMSD>
3.72888613

$$$$
