
 OpenBabel03262523093D

 18 19  0  0  0  0  0  0  0  0999 V2000
   37.5170   30.1940   50.7720 C   0  0  0  0  0  0  0  0  0  0  0  0
   38.1770   31.2170   50.0570 C   0  0  0  0  0  0  0  0  0  0  0  0
   37.6510   31.5930   48.8310 C   0  0  0  0  0  0  0  0  0  0  0  0
   36.5380   30.9660   48.3870 N   0  0  0  0  0  0  0  0  0  0  0  0
   35.9160   29.9850   49.0850 C   0  0  0  0  0  0  0  0  0  0  0  0
   36.4190   29.6190   50.2650 N   0  0  0  0  0  0  0  0  0  0  0  0
   39.0440   31.6570   50.4770 H   0  0  0  0  0  0  0  0  0  0  0  0
   38.1380   32.3810   48.2520 H   0  0  0  0  0  0  0  0  0  0  0  0
   34.7050   29.3760   48.4900 C   0  0  0  0  0  0  0  0  0  0  0  0
   34.1330   28.3330   49.2740 C   0  0  0  0  0  0  0  0  0  0  0  0
   34.4340   27.8880   50.2650 H   0  0  0  0  0  0  0  0  0  0  0  0
   32.6960   27.7720   48.3380 S   0  0  0  0  0  0  0  0  0  0  0  0
   33.0710   29.0460   46.9890 C   0  0  0  0  0  0  0  0  0  0  0  0
   32.7320   29.5070   45.9300 H   0  0  0  0  0  0  0  0  0  0  0  0
   33.9900   29.5380   47.4010 N   0  0  0  0  0  0  0  0  0  0  0  0
   37.9770   29.7300   52.0440 N   0  0  0  0  0  0  0  0  0  0  0  0
   37.3770   29.9460   52.8620 H   0  0  0  0  0  0  0  0  0  0  0  0
   38.8780   29.2250   51.9720 H   0  0  0  0  0  0  0  0  0  0  0  0
  1 16  1  0  0  0  0
  2  7  1  0  0  0  0
  2  1  2  0  0  0  0
  3  2  1  0  0  0  0
  4  3  2  0  0  0  0
  4  5  1  0  0  0  0
  5  6  2  0  0  0  0
  6  1  1  0  0  0  0
  8  3  1  0  0  0  0
  9  5  1  0  0  0  0
  9 10  2  0  0  0  0
 10 11  1  0  0  0  0
 12 10  1  0  0  0  0
 13 15  2  0  0  0  0
 13 12  1  0  0  0  0
 14 13  1  0  0  0  0
 15  9  1  0  0  0  0
 16 17  1  0  0  0  0
 18 16  1  0  0  0  0
M  END
>  <minimizedAffinity>
-4.25285625

>  <minimizedRMSD>
0.994593203

$$$$
