
 OpenBabel03272508123D

 32 34  0  0  0  0  0  0  0  0999 V2000
   36.6080   29.4850   44.0650 Cl  0  0  0  0  0  0  0  0  0  0  0  0
   38.2580   29.8460   43.4950 C   0  0  0  0  0  0  0  0  0  0  0  0
   39.2670   30.3090   44.3220 C   0  0  0  0  0  0  0  0  0  0  0  0
   40.4900   30.5420   43.7330 C   0  0  0  0  0  0  0  0  0  0  0  0
   40.7180   30.3340   42.4000 C   0  0  0  0  0  0  0  0  0  0  0  0
   39.7270   29.8810   41.5940 C   0  0  0  0  0  0  0  0  0  0  0  0
   38.4760   29.6280   42.1260 C   0  0  0  0  0  0  0  0  0  0  0  0
   41.2360   30.9020   44.4270 H   0  0  0  0  0  0  0  0  0  0  0  0
   41.7180   30.5530   42.0510 H   0  0  0  0  0  0  0  0  0  0  0  0
   39.9250   29.7230   40.5460 H   0  0  0  0  0  0  0  0  0  0  0  0
   37.3710   29.1300   41.2700 C   0  0  0  0  0  0  0  0  0  0  0  0
   36.5870   30.0330   40.5600 C   0  0  0  0  0  0  0  0  0  0  0  0
   36.5770   31.1310   40.4640 H   0  0  0  0  0  0  0  0  0  0  0  0
   35.3680   28.8990   39.6620 S   0  0  0  0  0  0  0  0  0  0  0  0
   36.2080   27.4010   40.4630 C   0  0  0  0  0  0  0  0  0  0  0  0
   36.0680   26.2130   40.4460 H   0  0  0  0  0  0  0  0  0  0  0  0
   37.0200   27.8660   41.0850 N   0  0  0  0  0  0  0  0  0  0  0  0
   38.8610   30.4570   45.6180 O   0  0  0  0  0  0  0  0  0  0  0  0
   39.4430   32.4790   47.1130 O   0  0  0  0  0  0  0  0  0  0  0  0
   38.3050   31.8260   46.4120 P   0  0  1  0  0  0  0  0  0  0  0  0
   37.7290   32.8480   45.1710 O   0  0  0  0  0  0  0  0  0  0  0  0
   38.5220   33.3050   44.7660 H   0  0  0  0  0  0  0  0  0  0  0  0
   37.0230   31.3970   47.4350 O   0  0  0  0  0  0  0  0  0  0  0  0
   37.6120   30.5330   50.9770 C   0  0  0  0  0  0  0  0  0  0  0  0
   37.7070   31.3020   49.8170 C   0  0  0  0  0  0  0  0  0  0  0  0
   37.0700   30.8330   48.6610 C   0  0  0  0  0  0  0  0  0  0  0  0
   36.3940   29.6490   48.7380 N   0  0  0  0  0  0  0  0  0  0  0  0
   36.3240   28.9330   49.8790 C   0  0  0  0  0  0  0  0  0  0  0  0
   36.9320   29.3770   50.9940 N   0  0  0  0  0  0  0  0  0  0  0  0
   38.1320   30.9860   51.7930 H   0  0  0  0  0  0  0  0  0  0  0  0
   38.2120   32.2280   49.6830 H   0  0  0  0  0  0  0  0  0  0  0  0
   35.7870   27.9950   49.9400 H   0  0  0  0  0  0  0  0  0  0  0  0
  2  1  1  0  0  0  0
  2  3  1  0  0  0  0
  3 18  1  0  0  0  0
  4  3  2  0  0  0  0
  4  8  1  0  0  0  0
  5  4  1  0  0  0  0
  6  7  1  0  0  0  0
  6  5  2  0  0  0  0
  7  2  2  0  0  0  0
  9  5  1  0  0  0  0
 10  6  1  0  0  0  0
 11  7  1  0  0  0  0
 12 11  2  0  0  0  0
 13 12  1  0  0  0  0
 14 15  1  0  0  0  0
 14 12  1  0  0  0  0
 15 17  2  0  0  0  0
 16 15  1  0  0  0  0
 17 11  1  0  0  0  0
 18 20  1  0  0  0  0
 20 19  2  1  0  0  0
 20 23  1  0  0  0  0
 21 20  1  0  0  0  0
 22 21  1  0  0  0  0
 23 26  1  0  0  0  0
 24 29  1  0  0  0  0
 24 30  1  0  0  0  0
 25 24  2  0  0  0  0
 26 27  2  0  0  0  0
 26 25  1  0  0  0  0
 27 28  1  0  0  0  0
 28 32  1  0  0  0  0
 28 29  2  0  0  0  0
 31 25  1  0  0  0  0
M  END
>  <minimizedAffinity>
-4.80142164

>  <minimizedRMSD>
0.264071614

$$$$
