
 OpenBabel03272510203D

 34 37  0  0  0  0  0  0  0  0999 V2000
   37.3820   29.2010   50.8800 Br  0  0  0  0  0  0  0  0  0  0  0  0
   35.9850   29.2620   49.5880 C   0  0  0  0  0  0  0  0  0  0  0  0
   35.9760   30.2330   48.5930 C   0  0  0  0  0  0  0  0  0  0  0  0
   34.9340   30.2120   47.6980 C   0  0  0  0  0  0  0  0  0  0  0  0
   33.9080   29.2870   47.7350 C   0  0  0  0  0  0  0  0  0  0  0  0
   33.9500   28.3400   48.7340 C   0  0  0  0  0  0  0  0  0  0  0  0
   34.9820   28.3360   49.6470 C   0  0  0  0  0  0  0  0  0  0  0  0
   34.8840   30.9470   46.9070 H   0  0  0  0  0  0  0  0  0  0  0  0
   33.1770   27.5840   48.8220 H   0  0  0  0  0  0  0  0  0  0  0  0
   34.9790   27.5740   50.4190 H   0  0  0  0  0  0  0  0  0  0  0  0
   37.9970   33.1490   49.4100 C   0  0  0  0  0  0  0  0  0  0  0  0
   39.0070   33.1360   48.4140 C   0  0  0  0  0  0  0  0  0  0  0  0
   38.9740   32.1260   47.4790 C   0  0  0  0  0  0  0  0  0  0  0  0
   37.9840   31.1970   47.5580 N   0  0  0  0  0  0  0  0  0  0  0  0
   37.0290   31.2240   48.5130 C   0  0  0  0  0  0  0  0  0  0  0  0
   37.0490   32.2110   49.4360 N   0  0  0  0  0  0  0  0  0  0  0  0
   38.0840   33.9700   50.1090 H   0  0  0  0  0  0  0  0  0  0  0  0
   39.8060   33.8450   48.3120 H   0  0  0  0  0  0  0  0  0  0  0  0
   39.6370   31.9470   46.6640 H   0  0  0  0  0  0  0  0  0  0  0  0
   32.8140   29.2650   46.7940 C   0  0  0  0  0  0  0  0  0  0  0  0
   32.0450   28.1510   46.5010 C   0  0  0  0  0  0  0  0  0  0  0  0
   31.0020   28.1590   45.5950 C   0  0  0  0  0  0  0  0  0  0  0  0
   30.7130   29.3090   44.9600 N   0  0  0  0  0  0  0  0  0  0  0  0
   31.4470   30.3990   45.2300 C   0  0  0  0  0  0  0  0  0  0  0  0
   32.4580   30.3640   46.1180 N   0  0  0  0  0  0  0  0  0  0  0  0
   32.2850   27.2160   47.0240 H   0  0  0  0  0  0  0  0  0  0  0  0
   30.4740   27.2350   45.4470 H   0  0  0  0  0  0  0  0  0  0  0  0
   31.0460   31.5920   44.4810 C   0  0  0  0  0  0  0  0  0  0  0  0
   31.8930   32.7090   44.8700 C   0  0  0  0  0  0  0  0  0  0  0  0
   32.7260   32.8960   45.5480 H   0  0  0  0  0  0  0  0  0  0  0  0
   31.2290   34.1290   43.8130 S   0  0  0  0  0  0  0  0  0  0  0  0
   29.9500   32.9350   43.0680 C   0  0  0  0  0  0  0  0  0  0  0  0
   29.0310   32.8150   42.2890 H   0  0  0  0  0  0  0  0  0  0  0  0
   30.1630   31.9590   43.5760 N   0  0  0  0  0  0  0  0  0  0  0  0
  2  7  1  0  0  0  0
  2  1  1  0  0  0  0
  3  2  2  0  0  0  0
  4  5  2  0  0  0  0
  4  3  1  0  0  0  0
  5  6  1  0  0  0  0
  6  9  1  0  0  0  0
  6  7  2  0  0  0  0
  7 10  1  0  0  0  0
  8  4  1  0  0  0  0
 11 16  1  0  0  0  0
 11 17  1  0  0  0  0
 12 11  2  0  0  0  0
 13 14  2  0  0  0  0
 13 12  1  0  0  0  0
 14 15  1  0  0  0  0
 15  3  1  0  0  0  0
 15 16  2  0  0  0  0
 18 12  1  0  0  0  0
 19 13  1  0  0  0  0
 20  5  1  0  0  0  0
 21 20  1  0  0  0  0
 21 26  1  0  0  0  0
 22 21  2  0  0  0  0
 23 24  2  0  0  0  0
 23 22  1  0  0  0  0
 24 25  1  0  0  0  0
 25 20  2  0  0  0  0
 27 22  1  0  0  0  0
 28 29  2  0  0  0  0
 28 24  1  0  0  0  0
 29 30  1  0  0  0  0
 31 29  1  0  0  0  0
 32 34  2  0  0  0  0
 32 31  1  0  0  0  0
 33 32  1  0  0  0  0
 34 28  1  0  0  0  0
M  END
>  <minimizedAffinity>
-6.32102251

>  <minimizedRMSD>
0.181735218

$$$$
