
 OpenBabel03272510213D

 34 37  0  0  0  0  0  0  0  0999 V2000
   37.3850   29.1950   50.8670 Br  0  0  0  0  0  0  0  0  0  0  0  0
   35.9860   29.2590   49.5760 C   0  0  0  0  0  0  0  0  0  0  0  0
   35.9750   30.2340   48.5850 C   0  0  0  0  0  0  0  0  0  0  0  0
   34.9320   30.2160   47.6910 C   0  0  0  0  0  0  0  0  0  0  0  0
   33.9070   29.2890   47.7260 C   0  0  0  0  0  0  0  0  0  0  0  0
   33.9510   28.3390   48.7220 C   0  0  0  0  0  0  0  0  0  0  0  0
   34.9840   28.3330   49.6330 C   0  0  0  0  0  0  0  0  0  0  0  0
   34.8800   30.9530   46.9030 H   0  0  0  0  0  0  0  0  0  0  0  0
   33.1780   27.5820   48.8070 H   0  0  0  0  0  0  0  0  0  0  0  0
   34.9820   27.5670   50.4030 H   0  0  0  0  0  0  0  0  0  0  0  0
   37.9950   33.1480   49.4130 C   0  0  0  0  0  0  0  0  0  0  0  0
   39.0030   33.1410   48.4140 C   0  0  0  0  0  0  0  0  0  0  0  0
   38.9690   32.1360   47.4740 C   0  0  0  0  0  0  0  0  0  0  0  0
   37.9790   31.2060   47.5510 N   0  0  0  0  0  0  0  0  0  0  0  0
   37.0260   31.2260   48.5080 C   0  0  0  0  0  0  0  0  0  0  0  0
   37.0480   32.2080   49.4360 N   0  0  0  0  0  0  0  0  0  0  0  0
   38.0830   33.9650   50.1170 H   0  0  0  0  0  0  0  0  0  0  0  0
   39.8020   33.8510   48.3140 H   0  0  0  0  0  0  0  0  0  0  0  0
   39.6300   31.9610   46.6560 H   0  0  0  0  0  0  0  0  0  0  0  0
   32.8120   29.2700   46.7860 C   0  0  0  0  0  0  0  0  0  0  0  0
   32.0580   28.1510   46.4730 C   0  0  0  0  0  0  0  0  0  0  0  0
   31.0140   28.1620   45.5690 C   0  0  0  0  0  0  0  0  0  0  0  0
   30.7080   29.3190   44.9560 N   0  0  0  0  0  0  0  0  0  0  0  0
   31.4270   30.4140   45.2450 C   0  0  0  0  0  0  0  0  0  0  0  0
   32.4400   30.3760   46.1310 N   0  0  0  0  0  0  0  0  0  0  0  0
   32.3110   27.2100   46.9780 H   0  0  0  0  0  0  0  0  0  0  0  0
   30.4980   27.2340   45.4050 H   0  0  0  0  0  0  0  0  0  0  0  0
   31.0090   31.6150   44.5190 C   0  0  0  0  0  0  0  0  0  0  0  0
   31.9300   32.7020   44.8180 C   0  0  0  0  0  0  0  0  0  0  0  0
   32.8250   32.8620   45.4190 H   0  0  0  0  0  0  0  0  0  0  0  0
   31.2310   34.1370   43.8050 S   0  0  0  0  0  0  0  0  0  0  0  0
   29.8470   32.9870   43.1880 C   0  0  0  0  0  0  0  0  0  0  0  0
   28.8590   32.8950   42.4940 H   0  0  0  0  0  0  0  0  0  0  0  0
   30.0650   32.0090   43.6890 N   0  0  0  0  0  0  0  0  0  0  0  0
  2  7  1  0  0  0  0
  2  1  1  0  0  0  0
  3  2  2  0  0  0  0
  4  5  2  0  0  0  0
  4  3  1  0  0  0  0
  5  6  1  0  0  0  0
  6  9  1  0  0  0  0
  6  7  2  0  0  0  0
  7 10  1  0  0  0  0
  8  4  1  0  0  0  0
 11 16  1  0  0  0  0
 11 17  1  0  0  0  0
 12 11  2  0  0  0  0
 13 14  2  0  0  0  0
 13 12  1  0  0  0  0
 14 15  1  0  0  0  0
 15  3  1  0  0  0  0
 15 16  2  0  0  0  0
 18 12  1  0  0  0  0
 19 13  1  0  0  0  0
 20  5  1  0  0  0  0
 21 20  1  0  0  0  0
 21 26  1  0  0  0  0
 22 21  2  0  0  0  0
 23 24  2  0  0  0  0
 23 22  1  0  0  0  0
 24 25  1  0  0  0  0
 25 20  2  0  0  0  0
 27 22  1  0  0  0  0
 28 29  2  0  0  0  0
 28 24  1  0  0  0  0
 29 30  1  0  0  0  0
 31 29  1  0  0  0  0
 32 34  2  0  0  0  0
 32 31  1  0  0  0  0
 33 32  1  0  0  0  0
 34 28  1  0  0  0  0
M  END
>  <minimizedAffinity>
-6.32397318

>  <minimizedRMSD>
0.264347374

$$$$
