
 OpenBabel03272506473D

 40 43  0  0  1  0  0  0  0  0999 V2000
   32.1410   28.4090   47.4760 C   0  0  2  0  0  0  0  0  0  0  0  0
   33.4050   28.2390   48.2630 C   0  0  1  0  0  0  0  0  0  0  0  0
   33.8090   26.9450   48.1420 O   0  0  0  0  0  0  0  0  0  0  0  0
   33.0860   26.3340   47.1220 C   0  0  0  0  0  0  0  0  0  0  0  0
   32.4600   27.4340   46.2970 C   0  0  1  0  0  0  0  0  0  0  0  0
   31.2250   28.1070   47.9680 H   0  0  0  0  0  0  0  0  0  0  0  0
   33.2140   28.5690   49.3020 H   0  0  0  0  0  0  0  0  0  0  0  0
   32.4010   25.6480   47.5980 H   0  0  0  0  0  0  0  0  0  0  0  0
   33.8300   25.7980   46.4780 H   0  0  0  0  0  0  0  0  0  0  0  0
   33.1630   27.9670   45.6670 H   0  0  0  0  0  0  0  0  0  0  0  0
   32.0420   29.7220   46.9710 O   0  0  0  0  0  0  0  0  0  0  0  0
   32.4350   29.8010   46.0720 H   0  0  0  0  0  0  0  0  0  0  0  0
   34.6880   29.3110   47.5040 S   0  0  0  0  0  0  0  0  0  0  0  0
   37.1060   29.2800   50.6440 C   0  0  0  0  0  0  0  0  0  0  0  0
   37.5620   30.5970   50.7560 C   0  0  0  0  0  0  0  0  0  0  0  0
   37.1050   31.5340   49.8220 C   0  0  0  0  0  0  0  0  0  0  0  0
   36.2440   31.1160   48.8600 N   0  0  0  0  0  0  0  0  0  0  0  0
   35.8250   29.8350   48.7820 C   0  0  0  0  0  0  0  0  0  0  0  0
   36.2480   28.9010   49.6710 N   0  0  0  0  0  0  0  0  0  0  0  0
   37.4750   28.5770   51.3780 H   0  0  0  0  0  0  0  0  0  0  0  0
   38.2480   30.9240   51.5250 H   0  0  0  0  0  0  0  0  0  0  0  0
   37.3970   32.5750   49.8210 H   0  0  0  0  0  0  0  0  0  0  0  0
   31.3030   26.9600   45.7270 O   0  0  0  0  0  0  0  0  0  0  0  0
   30.0800   29.1870   44.2460 Cl  0  0  0  0  0  0  0  0  0  0  0  0
   29.3890   28.2260   45.5360 C   0  0  0  0  0  0  0  0  0  0  0  0
   30.0640   27.1940   46.1420 C   0  0  0  0  0  0  0  0  0  0  0  0
   29.3980   26.4750   47.1360 C   0  0  0  0  0  0  0  0  0  0  0  0
   28.1070   26.7970   47.4910 C   0  0  0  0  0  0  0  0  0  0  0  0
   27.4240   27.8310   46.8870 C   0  0  0  0  0  0  0  0  0  0  0  0
   28.0890   28.5580   45.8860 C   0  0  0  0  0  0  0  0  0  0  0  0
   29.8300   25.6470   47.6700 H   0  0  0  0  0  0  0  0  0  0  0  0
   27.5600   26.2650   48.2540 H   0  0  0  0  0  0  0  0  0  0  0  0
   26.4160   28.0760   47.1700 H   0  0  0  0  0  0  0  0  0  0  0  0
   27.4090   29.6670   45.2150 C   0  0  0  0  0  0  0  0  0  0  0  0
   26.7430   29.4750   44.0110 C   0  0  0  0  0  0  0  0  0  0  0  0
   26.5850   28.5510   43.3450 H   0  0  0  0  0  0  0  0  0  0  0  0
   26.0480   31.1730   43.5700 S   0  0  0  0  0  0  0  0  0  0  0  0
   26.8250   31.8320   45.1640 C   0  0  0  0  0  0  0  0  0  0  0  0
   26.9210   32.8930   45.7840 H   0  0  0  0  0  0  0  0  0  0  0  0
   27.3190   30.9220   45.6040 N   0  0  0  0  0  0  0  0  0  0  0  0
  1  6  1  1  0  0  0
  1  2  1  0  0  0  0
  2  7  1  1  0  0  0
  3  2  1  0  0  0  0
  4  8  1  0  0  0  0
  4  3  1  0  0  0  0
  5 10  1  6  0  0  0
  5  4  1  0  0  0  0
  5  1  1  0  0  0  0
  9  4  1  0  0  0  0
 11  1  1  0  0  0  0
 12 11  1  0  0  0  0
 13  2  1  0  0  0  0
 13 18  1  0  0  0  0
 14 15  1  0  0  0  0
 14 20  1  0  0  0  0
 15 21  1  0  0  0  0
 16 15  2  0  0  0  0
 17 16  1  0  0  0  0
 18 17  2  0  0  0  0
 18 19  1  0  0  0  0
 19 14  2  0  0  0  0
 22 16  1  0  0  0  0
 23 26  1  0  0  0  0
 23  5  1  0  0  0  0
 24 25  1  0  0  0  0
 25 30  2  0  0  0  0
 25 26  1  0  0  0  0
 26 27  2  0  0  0  0
 27 28  1  0  0  0  0
 27 31  1  0  0  0  0
 28 32  1  0  0  0  0
 29 33  1  0  0  0  0
 29 28  2  0  0  0  0
 30 29  1  0  0  0  0
 34 40  1  0  0  0  0
 34 30  1  0  0  0  0
 35 34  2  0  0  0  0
 36 35  1  0  0  0  0
 37 35  1  0  0  0  0
 37 38  1  0  0  0  0
 38 40  2  0  0  0  0
 38 39  1  0  0  0  0
M  END
>  <minimizedAffinity>
-5.13998795

>  <minimizedRMSD>
0.459291548

$$$$
