
 OpenBabel03272506473D

 40 43  0  0  1  0  0  0  0  0999 V2000
   31.9960   28.3860   47.4890 C   0  0  2  0  0  0  0  0  0  0  0  0
   33.2550   28.1690   48.2730 C   0  0  1  0  0  0  0  0  0  0  0  0
   33.5940   26.8550   48.1750 O   0  0  0  0  0  0  0  0  0  0  0  0
   32.8360   26.2600   47.1710 C   0  0  0  0  0  0  0  0  0  0  0  0
   32.2600   27.3740   46.3280 C   0  0  1  0  0  0  0  0  0  0  0  0
   31.0700   28.1390   47.9920 H   0  0  0  0  0  0  0  0  0  0  0  0
   33.0870   28.5280   49.3060 H   0  0  0  0  0  0  0  0  0  0  0  0
   32.1210   25.6180   47.6640 H   0  0  0  0  0  0  0  0  0  0  0  0
   33.5480   25.6760   46.5340 H   0  0  0  0  0  0  0  0  0  0  0  0
   32.9840   27.8590   45.6840 H   0  0  0  0  0  0  0  0  0  0  0  0
   31.9590   29.6920   46.9600 O   0  0  0  0  0  0  0  0  0  0  0  0
   32.3490   29.7340   46.0570 H   0  0  0  0  0  0  0  0  0  0  0  0
   34.5840   29.1620   47.4870 S   0  0  0  0  0  0  0  0  0  0  0  0
   36.9910   29.2520   50.6340 C   0  0  0  0  0  0  0  0  0  0  0  0
   37.3990   30.5860   50.7330 C   0  0  0  0  0  0  0  0  0  0  0  0
   36.9100   31.4960   49.7880 C   0  0  0  0  0  0  0  0  0  0  0  0
   36.0690   31.0360   48.8280 N   0  0  0  0  0  0  0  0  0  0  0  0
   35.6970   29.7400   48.7620 C   0  0  0  0  0  0  0  0  0  0  0  0
   36.1520   28.8310   49.6620 N   0  0  0  0  0  0  0  0  0  0  0  0
   37.3840   28.5710   51.3760 H   0  0  0  0  0  0  0  0  0  0  0  0
   38.0700   30.9460   51.5010 H   0  0  0  0  0  0  0  0  0  0  0  0
   37.1640   32.5460   49.7780 H   0  0  0  0  0  0  0  0  0  0  0  0
   31.0770   26.9470   45.7740 O   0  0  0  0  0  0  0  0  0  0  0  0
   29.8970   29.2080   44.3100 Cl  0  0  0  0  0  0  0  0  0  0  0  0
   29.2000   28.2720   45.6150 C   0  0  0  0  0  0  0  0  0  0  0  0
   29.8540   27.2210   46.2110 C   0  0  0  0  0  0  0  0  0  0  0  0
   29.1850   26.5260   47.2200 C   0  0  0  0  0  0  0  0  0  0  0  0
   27.9110   26.8890   47.5990 C   0  0  0  0  0  0  0  0  0  0  0  0
   27.2500   27.9430   47.0050 C   0  0  0  0  0  0  0  0  0  0  0  0
   27.9190   28.6470   45.9890 C   0  0  0  0  0  0  0  0  0  0  0  0
   29.6000   25.6850   47.7480 H   0  0  0  0  0  0  0  0  0  0  0  0
   27.3630   26.3770   48.3730 H   0  0  0  0  0  0  0  0  0  0  0  0
   26.2570   28.2200   47.3060 H   0  0  0  0  0  0  0  0  0  0  0  0
   27.2610   29.7750   45.3290 C   0  0  0  0  0  0  0  0  0  0  0  0
   27.2900   31.0470   45.8860 C   0  0  0  0  0  0  0  0  0  0  0  0
   27.7590   31.4680   46.8490 H   0  0  0  0  0  0  0  0  0  0  0  0
   26.3210   32.1230   44.6760 S   0  0  0  0  0  0  0  0  0  0  0  0
   26.0590   30.5800   43.6140 C   0  0  0  0  0  0  0  0  0  0  0  0
   25.5120   30.2580   42.5600 H   0  0  0  0  0  0  0  0  0  0  0  0
   26.5920   29.7760   44.1950 N   0  0  0  0  0  0  0  0  0  0  0  0
  1  6  1  1  0  0  0
  1  2  1  0  0  0  0
  2  7  1  1  0  0  0
  3  2  1  0  0  0  0
  4  8  1  0  0  0  0
  4  3  1  0  0  0  0
  5 10  1  6  0  0  0
  5  4  1  0  0  0  0
  5  1  1  0  0  0  0
  9  4  1  0  0  0  0
 11  1  1  0  0  0  0
 12 11  1  0  0  0  0
 13  2  1  0  0  0  0
 13 18  1  0  0  0  0
 14 15  1  0  0  0  0
 14 20  1  0  0  0  0
 15 21  1  0  0  0  0
 16 15  2  0  0  0  0
 17 16  1  0  0  0  0
 18 17  2  0  0  0  0
 18 19  1  0  0  0  0
 19 14  2  0  0  0  0
 22 16  1  0  0  0  0
 23 26  1  0  0  0  0
 23  5  1  0  0  0  0
 24 25  1  0  0  0  0
 25 30  2  0  0  0  0
 25 26  1  0  0  0  0
 26 27  2  0  0  0  0
 27 28  1  0  0  0  0
 27 31  1  0  0  0  0
 28 32  1  0  0  0  0
 29 33  1  0  0  0  0
 29 28  2  0  0  0  0
 30 29  1  0  0  0  0
 34 35  2  0  0  0  0
 34 30  1  0  0  0  0
 35 36  1  0  0  0  0
 37 35  1  0  0  0  0
 38 40  2  0  0  0  0
 38 37  1  0  0  0  0
 39 38  1  0  0  0  0
 40 34  1  0  0  0  0
M  END
>  <minimizedAffinity>
-5.17647982

>  <minimizedRMSD>
0.424780756

$$$$
