
 OpenBabel03272500563D

 33 35  0  0  0  0  0  0  0  0999 V2000
   38.0780   31.8990   47.4220 C   0  0  0  0  0  0  0  0  0  0  0  0
   38.5080   32.8480   48.3100 C   0  0  0  0  0  0  0  0  0  0  0  0
   37.9950   32.9250   49.6010 C   0  0  0  0  0  0  0  0  0  0  0  0
   36.9820   31.9590   49.9810 C   0  0  0  0  0  0  0  0  0  0  0  0
   36.6010   31.0440   49.0510 C   0  0  0  0  0  0  0  0  0  0  0  0
   37.0950   30.9740   47.8080 C   0  0  0  0  0  0  0  0  0  0  0  0
   39.2730   33.5920   48.0530 H   0  0  0  0  0  0  0  0  0  0  0  0
   38.3650   33.6930   50.2680 H   0  0  0  0  0  0  0  0  0  0  0  0
   36.6840   32.1370   50.9920 H   0  0  0  0  0  0  0  0  0  0  0  0
   35.8730   30.4240   49.5490 H   0  0  0  0  0  0  0  0  0  0  0  0
   40.0000   31.2990   46.0250 C   0  0  0  0  0  0  0  0  0  0  0  0
   38.7270   31.9290   46.1270 C   0  0  0  0  0  0  0  0  0  0  0  0
   38.2610   32.4920   44.9640 C   0  0  0  0  0  0  0  0  0  0  0  0
   38.9800   32.4310   43.8330 N   0  0  0  0  0  0  0  0  0  0  0  0
   40.1720   31.8350   43.7570 C   0  0  0  0  0  0  0  0  0  0  0  0
   40.6670   31.2770   44.8550 N   0  0  0  0  0  0  0  0  0  0  0  0
   40.4250   30.8330   46.9220 H   0  0  0  0  0  0  0  0  0  0  0  0
   37.2950   32.9700   45.0410 H   0  0  0  0  0  0  0  0  0  0  0  0
   40.7740   31.7720   42.8560 H   0  0  0  0  0  0  0  0  0  0  0  0
   35.1620   29.9590   46.9360 C   0  0  0  0  0  0  0  0  0  0  0  0
   34.5110   30.6500   47.8100 O   0  0  0  0  0  0  0  0  0  0  0  0
   36.6440   30.0450   46.9050 N   0  0  0  0  0  0  0  0  0  0  0  0
   37.1680   29.4340   46.2490 H   0  0  0  0  0  0  0  0  0  0  0  0
   34.5550   29.1000   45.9730 O   0  0  0  0  0  0  0  0  0  0  0  0
   33.3980   29.4960   45.3290 C   0  0  0  0  0  0  0  0  0  0  0  0
   33.5250   30.5330   44.6090 O   0  0  0  0  0  0  0  0  0  0  0  0
   32.0340   28.9100   45.3470 C   0  0  0  0  0  0  0  0  0  0  0  0
   31.2910   29.1070   46.5120 C   0  0  0  0  0  0  0  0  0  0  0  0
   31.3690   29.5730   47.4900 H   0  0  0  0  0  0  0  0  0  0  0  0
   29.7230   28.2570   46.1170 S   0  0  0  0  0  0  0  0  0  0  0  0
   30.3520   27.7700   44.4020 C   0  0  0  0  0  0  0  0  0  0  0  0
   29.9860   27.1980   43.4680 H   0  0  0  0  0  0  0  0  0  0  0  0
   31.4060   28.2290   44.4160 N   0  0  0  0  0  0  0  0  0  0  0  0
  1  6  2  0  0  0  0
  1  2  1  0  0  0  0
  2  3  2  0  0  0  0
  3  4  1  0  0  0  0
  3  8  1  0  0  0  0
  4  9  1  0  0  0  0
  5 10  1  0  0  0  0
  5  4  2  0  0  0  0
  6  5  1  0  0  0  0
  7  2  1  0  0  0  0
 11 12  1  0  0  0  0
 11 17  1  0  0  0  0
 12  1  1  0  0  0  0
 13 18  1  0  0  0  0
 13 12  2  0  0  0  0
 14 13  1  0  0  0  0
 15 14  2  0  0  0  0
 15 16  1  0  0  0  0
 16 11  2  0  0  0  0
 19 15  1  0  0  0  0
 20 21  2  0  0  0  0
 22 20  1  0  0  0  0
 22  6  1  0  0  0  0
 23 22  1  0  0  0  0
 24 20  1  0  0  0  0
 25 27  1  0  0  0  0
 25 24  1  0  0  0  0
 26 25  2  0  0  0  0
 27 28  2  0  0  0  0
 28 29  1  0  0  0  0
 30 28  1  0  0  0  0
 31 33  2  0  0  0  0
 31 30  1  0  0  0  0
 32 31  1  0  0  0  0
 33 27  1  0  0  0  0
M  END
>  <minimizedAffinity>
-5.13429165

>  <minimizedRMSD>
0.230370924

$$$$
