
 OpenBabel03272500593D

 33 35  0  0  0  0  0  0  0  0999 V2000
   39.7990   25.6220   34.4150 C   0  0  0  0  0  0  0  0  0  0  0  0
   40.7140   26.5780   34.7650 C   0  0  0  0  0  0  0  0  0  0  0  0
   41.3110   27.4000   33.8130 C   0  0  0  0  0  0  0  0  0  0  0  0
   40.9280   27.2110   32.4270 C   0  0  0  0  0  0  0  0  0  0  0  0
   40.0130   26.2450   32.1490 C   0  0  0  0  0  0  0  0  0  0  0  0
   39.4430   25.4540   33.0680 C   0  0  0  0  0  0  0  0  0  0  0  0
   41.0240   26.7460   35.8040 H   0  0  0  0  0  0  0  0  0  0  0  0
   42.0290   28.1420   34.1360 H   0  0  0  0  0  0  0  0  0  0  0  0
   41.4610   27.9070   31.8140 H   0  0  0  0  0  0  0  0  0  0  0  0
   39.8620   26.2980   31.0830 H   0  0  0  0  0  0  0  0  0  0  0  0
   39.9540   23.6990   35.9250 C   0  0  0  0  0  0  0  0  0  0  0  0
   39.2460   24.8660   35.5210 C   0  0  0  0  0  0  0  0  0  0  0  0
   38.1130   25.1410   36.2460 C   0  0  0  0  0  0  0  0  0  0  0  0
   37.7310   24.3440   37.2550 N   0  0  0  0  0  0  0  0  0  0  0  0
   38.4070   23.2530   37.6210 C   0  0  0  0  0  0  0  0  0  0  0  0
   39.5110   22.9440   36.9500 N   0  0  0  0  0  0  0  0  0  0  0  0
   40.8660   23.4280   35.3830 H   0  0  0  0  0  0  0  0  0  0  0  0
   37.5760   26.0280   35.9390 H   0  0  0  0  0  0  0  0  0  0  0  0
   38.1210   22.5920   38.4320 H   0  0  0  0  0  0  0  0  0  0  0  0
   37.1890   25.0420   32.5420 C   0  0  0  0  0  0  0  0  0  0  0  0
   36.9900   26.2900   32.8070 O   0  0  0  0  0  0  0  0  0  0  0  0
   38.5490   24.4740   32.7180 N   0  0  0  0  0  0  0  0  0  0  0  0
   38.6900   23.4540   32.5720 H   0  0  0  0  0  0  0  0  0  0  0  0
   36.1810   24.1460   32.0790 O   0  0  0  0  0  0  0  0  0  0  0  0
   36.5310   23.0540   31.3080 C   0  0  0  0  0  0  0  0  0  0  0  0
   37.3520   23.3120   30.3750 O   0  0  0  0  0  0  0  0  0  0  0  0
   36.1010   21.6360   31.3880 C   0  0  0  0  0  0  0  0  0  0  0  0
   35.1370   21.3350   32.3520 C   0  0  0  0  0  0  0  0  0  0  0  0
   34.5460   21.8140   33.1280 H   0  0  0  0  0  0  0  0  0  0  0  0
   34.8980   19.5410   32.1100 S   0  0  0  0  0  0  0  0  0  0  0  0
   36.1710   19.4990   30.7140 C   0  0  0  0  0  0  0  0  0  0  0  0
   36.6450   18.7380   29.9850 H   0  0  0  0  0  0  0  0  0  0  0  0
   36.4900   20.6040   30.6760 N   0  0  0  0  0  0  0  0  0  0  0  0
  1  2  1  0  0  0  0
  1 12  1  0  0  0  0
  2  7  1  0  0  0  0
  3  8  1  0  0  0  0
  3  2  2  0  0  0  0
  4  3  1  0  0  0  0
  5  4  2  0  0  0  0
  5  6  1  0  0  0  0
  6  1  2  0  0  0  0
  9  4  1  0  0  0  0
 10  5  1  0  0  0  0
 11 16  1  0  0  0  0
 12 11  2  0  0  0  0
 12 13  1  0  0  0  0
 13 14  2  0  0  0  0
 14 15  1  0  0  0  0
 15 19  1  0  0  0  0
 16 15  2  0  0  0  0
 17 11  1  0  0  0  0
 18 13  1  0  0  0  0
 20 22  1  0  0  0  0
 20 21  2  0  0  0  0
 22  6  1  0  0  0  0
 23 22  1  0  0  0  0
 24 20  1  0  0  0  0
 25 27  1  0  0  0  0
 25 24  1  0  0  0  0
 26 25  2  0  0  0  0
 27 28  2  0  0  0  0
 28 29  1  0  0  0  0
 30 28  1  0  0  0  0
 31 30  1  0  0  0  0
 32 31  1  0  0  0  0
 33 31  2  0  0  0  0
 33 27  1  0  0  0  0
M  END
>  <minimizedAffinity>
-5.07385635

$$$$

 OpenBabel03272500593D

 33 35  0  0  0  0  0  0  0  0999 V2000
   37.4900   26.1180   34.2020 C   0  0  0  0  0  0  0  0  0  0  0  0
   37.0150   27.1460   34.9700 C   0  0  0  0  0  0  0  0  0  0  0  0
   36.4900   28.3020   34.3990 C   0  0  0  0  0  0  0  0  0  0  0  0
   36.4600   28.3820   32.9510 C   0  0  0  0  0  0  0  0  0  0  0  0
   36.9470   27.3250   32.2490 C   0  0  0  0  0  0  0  0  0  0  0  0
   37.4540   26.2160   32.8020 C   0  0  0  0  0  0  0  0  0  0  0  0
   37.0240   27.1160   36.0670 H   0  0  0  0  0  0  0  0  0  0  0  0
   36.1270   29.0890   35.0470 H   0  0  0  0  0  0  0  0  0  0  0  0
   36.0330   29.3170   32.6570 H   0  0  0  0  0  0  0  0  0  0  0  0
   36.8030   27.5860   31.2130 H   0  0  0  0  0  0  0  0  0  0  0  0
   38.0760   25.1080   36.3560 C   0  0  0  0  0  0  0  0  0  0  0  0
   37.9790   24.9720   34.9420 C   0  0  0  0  0  0  0  0  0  0  0  0
   38.3600   23.7500   34.4460 C   0  0  0  0  0  0  0  0  0  0  0  0
   38.7870   22.7770   35.2670 N   0  0  0  0  0  0  0  0  0  0  0  0
   38.8710   22.9220   36.5900 C   0  0  0  0  0  0  0  0  0  0  0  0
   38.5140   24.0880   37.1190 N   0  0  0  0  0  0  0  0  0  0  0  0
   37.7860   26.0630   36.8100 H   0  0  0  0  0  0  0  0  0  0  0  0
   38.2860   23.6470   33.3730 H   0  0  0  0  0  0  0  0  0  0  0  0
   39.2120   22.1540   37.2750 H   0  0  0  0  0  0  0  0  0  0  0  0
   36.8620   24.4030   31.4270 C   0  0  0  0  0  0  0  0  0  0  0  0
   35.6400   24.6820   31.7350 O   0  0  0  0  0  0  0  0  0  0  0  0
   37.9600   25.1960   32.0360 N   0  0  0  0  0  0  0  0  0  0  0  0
   38.9440   24.9240   31.8410 H   0  0  0  0  0  0  0  0  0  0  0  0
   37.2510   23.3710   30.5230 O   0  0  0  0  0  0  0  0  0  0  0  0
   37.5130   22.1000   30.9990 C   0  0  0  0  0  0  0  0  0  0  0  0
   38.6930   21.6890   30.7780 O   0  0  0  0  0  0  0  0  0  0  0  0
   36.6410   21.1400   31.7200 C   0  0  0  0  0  0  0  0  0  0  0  0
   36.1570   20.0640   30.9760 C   0  0  0  0  0  0  0  0  0  0  0  0
   36.1960   19.6510   29.9710 H   0  0  0  0  0  0  0  0  0  0  0  0
   35.1660   19.1560   32.2110 S   0  0  0  0  0  0  0  0  0  0  0  0
   35.5840   20.4130   33.5590 C   0  0  0  0  0  0  0  0  0  0  0  0
   35.3620   20.6040   34.6760 H   0  0  0  0  0  0  0  0  0  0  0  0
   36.2530   21.1440   32.9750 N   0  0  0  0  0  0  0  0  0  0  0  0
  1 12  1  0  0  0  0
  1  2  1  0  0  0  0
  2  7  1  0  0  0  0
  3  2  2  0  0  0  0
  3  8  1  0  0  0  0
  4  3  1  0  0  0  0
  5  6  1  0  0  0  0
  5  4  2  0  0  0  0
  6  1  2  0  0  0  0
  9  4  1  0  0  0  0
 10  5  1  0  0  0  0
 11 17  1  0  0  0  0
 11 16  1  0  0  0  0
 12 11  2  0  0  0  0
 13 12  1  0  0  0  0
 13 14  2  0  0  0  0
 14 15  1  0  0  0  0
 15 16  2  0  0  0  0
 15 19  1  0  0  0  0
 18 13  1  0  0  0  0
 20 21  2  0  0  0  0
 20 22  1  0  0  0  0
 22  6  1  0  0  0  0
 23 22  1  0  0  0  0
 24 25  1  0  0  0  0
 24 20  1  0  0  0  0
 25 27  1  0  0  0  0
 26 25  2  0  0  0  0
 27 33  1  0  0  0  0
 28 27  2  0  0  0  0
 28 30  1  0  0  0  0
 29 28  1  0  0  0  0
 30 31  1  0  0  0  0
 31 32  1  0  0  0  0
 33 31  2  0  0  0  0
M  END
>  <minimizedAffinity>
-5.06907368

$$$$

 OpenBabel03272500593D

 33 35  0  0  0  0  0  0  0  0999 V2000
   33.6020   30.4540   35.6220 C   0  0  0  0  0  0  0  0  0  0  0  0
   33.4080   31.4890   36.4970 C   0  0  0  0  0  0  0  0  0  0  0  0
   34.4280   32.3830   36.8070 C   0  0  0  0  0  0  0  0  0  0  0  0
   35.7160   32.1820   36.1690 C   0  0  0  0  0  0  0  0  0  0  0  0
   35.8390   31.1360   35.3110 C   0  0  0  0  0  0  0  0  0  0  0  0
   34.8560   30.2760   35.0160 C   0  0  0  0  0  0  0  0  0  0  0  0
   32.4470   31.6680   36.9950 H   0  0  0  0  0  0  0  0  0  0  0  0
   34.2290   33.1860   37.5050 H   0  0  0  0  0  0  0  0  0  0  0  0
   36.3960   32.9380   36.4990 H   0  0  0  0  0  0  0  0  0  0  0  0
   36.8510   31.1940   34.9410 H   0  0  0  0  0  0  0  0  0  0  0  0
   32.1910   28.5690   36.2990 C   0  0  0  0  0  0  0  0  0  0  0  0
   32.4370   29.6280   35.3790 C   0  0  0  0  0  0  0  0  0  0  0  0
   31.5210   29.7420   34.3620 C   0  0  0  0  0  0  0  0  0  0  0  0
   30.4810   28.8980   34.2750 N   0  0  0  0  0  0  0  0  0  0  0  0
   30.2660   27.9110   35.1470 C   0  0  0  0  0  0  0  0  0  0  0  0
   31.1250   27.7590   36.1490 N   0  0  0  0  0  0  0  0  0  0  0  0
   32.8890   28.4280   37.1310 H   0  0  0  0  0  0  0  0  0  0  0  0
   31.7080   30.5450   33.6640 H   0  0  0  0  0  0  0  0  0  0  0  0
   29.4350   27.2160   35.1000 H   0  0  0  0  0  0  0  0  0  0  0  0
   34.9290   29.6540   32.7500 C   0  0  0  0  0  0  0  0  0  0  0  0
   34.5800   30.8700   32.4950 O   0  0  0  0  0  0  0  0  0  0  0  0
   35.0550   29.2190   34.1640 N   0  0  0  0  0  0  0  0  0  0  0  0
   35.2660   28.2220   34.3660 H   0  0  0  0  0  0  0  0  0  0  0  0
   35.2130   28.6710   31.7560 O   0  0  0  0  0  0  0  0  0  0  0  0
   36.2500   27.7780   31.9460 C   0  0  0  0  0  0  0  0  0  0  0  0
   37.3640   28.3170   32.2270 O   0  0  0  0  0  0  0  0  0  0  0  0
   36.2740   26.2950   31.8710 C   0  0  0  0  0  0  0  0  0  0  0  0
   35.3150   25.7010   31.0490 C   0  0  0  0  0  0  0  0  0  0  0  0
   34.4890   25.9660   30.3950 H   0  0  0  0  0  0  0  0  0  0  0  0
   35.6960   23.9260   31.2360 S   0  0  0  0  0  0  0  0  0  0  0  0
   37.1200   24.2940   32.4210 C   0  0  0  0  0  0  0  0  0  0  0  0
   37.9190   23.7250   33.0320 H   0  0  0  0  0  0  0  0  0  0  0  0
   37.0760   25.4420   32.4650 N   0  0  0  0  0  0  0  0  0  0  0  0
  1  2  1  0  0  0  0
  2  3  2  0  0  0  0
  2  7  1  0  0  0  0
  3  8  1  0  0  0  0
  4  9  1  0  0  0  0
  4  3  1  0  0  0  0
  5  4  2  0  0  0  0
  6  5  1  0  0  0  0
  6  1  2  0  0  0  0
 10  5  1  0  0  0  0
 11 17  1  0  0  0  0
 12  1  1  0  0  0  0
 12 11  2  0  0  0  0
 13 12  1  0  0  0  0
 14 13  2  0  0  0  0
 14 15  1  0  0  0  0
 15 16  2  0  0  0  0
 16 11  1  0  0  0  0
 18 13  1  0  0  0  0
 19 15  1  0  0  0  0
 20 22  1  0  0  0  0
 21 20  2  0  0  0  0
 22 23  1  0  0  0  0
 22  6  1  0  0  0  0
 24 25  1  0  0  0  0
 24 20  1  0  0  0  0
 25 26  2  0  0  0  0
 27 25  1  0  0  0  0
 27 33  1  0  0  0  0
 28 30  1  0  0  0  0
 28 27  2  0  0  0  0
 29 28  1  0  0  0  0
 30 31  1  0  0  0  0
 31 33  2  0  0  0  0
 31 32  1  0  0  0  0
M  END
>  <minimizedAffinity>
-5.01420164

$$$$

 OpenBabel03272500593D

 33 35  0  0  0  0  0  0  0  0999 V2000
   37.6370   26.9280   33.9020 C   0  0  0  0  0  0  0  0  0  0  0  0
   38.1020   27.6560   34.9640 C   0  0  0  0  0  0  0  0  0  0  0  0
   38.5090   27.0450   36.1460 C   0  0  0  0  0  0  0  0  0  0  0  0
   38.4250   25.5980   36.2180 C   0  0  0  0  0  0  0  0  0  0  0  0
   37.9550   24.9370   35.1270 C   0  0  0  0  0  0  0  0  0  0  0  0
   37.5620   25.5290   33.9920 C   0  0  0  0  0  0  0  0  0  0  0  0
   38.1780   28.7510   34.9410 H   0  0  0  0  0  0  0  0  0  0  0  0
   38.8690   27.6610   36.9590 H   0  0  0  0  0  0  0  0  0  0  0  0
   38.7690   25.2700   37.1760 H   0  0  0  0  0  0  0  0  0  0  0  0
   38.0050   23.8920   35.3890 H   0  0  0  0  0  0  0  0  0  0  0  0
   35.9980   28.3280   32.7360 C   0  0  0  0  0  0  0  0  0  0  0  0
   37.2790   27.7060   32.7330 C   0  0  0  0  0  0  0  0  0  0  0  0
   38.0320   27.9290   31.6070 C   0  0  0  0  0  0  0  0  0  0  0  0
   37.5630   28.6850   30.6030 N   0  0  0  0  0  0  0  0  0  0  0  0
   36.3590   29.2610   30.6230 C   0  0  0  0  0  0  0  0  0  0  0  0
   35.5910   29.0750   31.6910 N   0  0  0  0  0  0  0  0  0  0  0  0
   35.3510   28.1850   33.6090 H   0  0  0  0  0  0  0  0  0  0  0  0
   39.0040   27.4560   31.6040 H   0  0  0  0  0  0  0  0  0  0  0  0
   35.9550   29.8760   29.8260 H   0  0  0  0  0  0  0  0  0  0  0  0
   38.1700   24.2000   32.1510 C   0  0  0  0  0  0  0  0  0  0  0  0
   39.3910   24.4740   32.4670 O   0  0  0  0  0  0  0  0  0  0  0  0
   37.0660   24.8060   32.9370 N   0  0  0  0  0  0  0  0  0  0  0  0
   36.0860   24.6400   32.6360 H   0  0  0  0  0  0  0  0  0  0  0  0
   37.7890   23.3370   31.0810 O   0  0  0  0  0  0  0  0  0  0  0  0
   36.5720   22.6840   31.1230 C   0  0  0  0  0  0  0  0  0  0  0  0
   35.5680   23.4300   30.9080 O   0  0  0  0  0  0  0  0  0  0  0  0
   36.2480   21.2590   31.3830 C   0  0  0  0  0  0  0  0  0  0  0  0
   35.5970   20.9820   32.5860 C   0  0  0  0  0  0  0  0  0  0  0  0
   35.2160   21.4850   33.4710 H   0  0  0  0  0  0  0  0  0  0  0  0
   35.3880   19.1710   32.5020 S   0  0  0  0  0  0  0  0  0  0  0  0
   36.2350   19.0910   30.8150 C   0  0  0  0  0  0  0  0  0  0  0  0
   36.5300   18.3060   30.0210 H   0  0  0  0  0  0  0  0  0  0  0  0
   36.4790   20.2010   30.6410 N   0  0  0  0  0  0  0  0  0  0  0  0
  1  6  2  0  0  0  0
  1  2  1  0  0  0  0
  2  3  2  0  0  0  0
  3  4  1  0  0  0  0
  3  8  1  0  0  0  0
  4  9  1  0  0  0  0
  5 10  1  0  0  0  0
  5  4  2  0  0  0  0
  6  5  1  0  0  0  0
  7  2  1  0  0  0  0
 11 17  1  0  0  0  0
 12 11  1  0  0  0  0
 12  1  1  0  0  0  0
 13 12  2  0  0  0  0
 14 15  2  0  0  0  0
 14 13  1  0  0  0  0
 15 16  1  0  0  0  0
 16 11  2  0  0  0  0
 18 13  1  0  0  0  0
 19 15  1  0  0  0  0
 20 21  2  0  0  0  0
 20 22  1  0  0  0  0
 22  6  1  0  0  0  0
 23 22  1  0  0  0  0
 24 25  1  0  0  0  0
 24 20  1  0  0  0  0
 25 27  1  0  0  0  0
 26 25  2  0  0  0  0
 27 28  2  0  0  0  0
 28 29  1  0  0  0  0
 30 28  1  0  0  0  0
 31 30  1  0  0  0  0
 32 31  1  0  0  0  0
 33 31  2  0  0  0  0
 33 27  1  0  0  0  0
M  END
>  <minimizedAffinity>
-4.91865587

$$$$

 OpenBabel03272500593D

 33 35  0  0  0  0  0  0  0  0999 V2000
   38.4650   25.5020   35.2830 C   0  0  0  0  0  0  0  0  0  0  0  0
   38.5000   26.7240   35.8990 C   0  0  0  0  0  0  0  0  0  0  0  0
   37.8170   27.8210   35.3820 C   0  0  0  0  0  0  0  0  0  0  0  0
   37.0590   27.6270   34.1600 C   0  0  0  0  0  0  0  0  0  0  0  0
   37.0670   26.3880   33.6020 C   0  0  0  0  0  0  0  0  0  0  0  0
   37.7280   25.3350   34.1000 C   0  0  0  0  0  0  0  0  0  0  0  0
   39.0630   26.9030   36.8230 H   0  0  0  0  0  0  0  0  0  0  0  0
   37.8740   28.7680   35.9030 H   0  0  0  0  0  0  0  0  0  0  0  0
   36.5910   28.5470   33.8840 H   0  0  0  0  0  0  0  0  0  0  0  0
   36.4300   26.4670   32.7350 H   0  0  0  0  0  0  0  0  0  0  0  0
   38.6150   23.8970   37.1290 C   0  0  0  0  0  0  0  0  0  0  0  0
   39.2030   24.4530   35.9570 C   0  0  0  0  0  0  0  0  0  0  0  0
   40.4140   23.9120   35.6000 C   0  0  0  0  0  0  0  0  0  0  0  0
   40.9710   22.9320   36.3280 N   0  0  0  0  0  0  0  0  0  0  0  0
   40.4050   22.4230   37.4240 C   0  0  0  0  0  0  0  0  0  0  0  0
   39.2330   22.9130   37.8110 N   0  0  0  0  0  0  0  0  0  0  0  0
   37.6480   24.2900   37.4640 H   0  0  0  0  0  0  0  0  0  0  0  0
   40.8600   24.3340   34.7110 H   0  0  0  0  0  0  0  0  0  0  0  0
   40.8330   21.6320   38.0290 H   0  0  0  0  0  0  0  0  0  0  0  0
   38.7230   24.0870   32.3730 C   0  0  0  0  0  0  0  0  0  0  0  0
   39.3790   25.1630   32.0930 O   0  0  0  0  0  0  0  0  0  0  0  0
   37.7210   24.1170   33.4700 N   0  0  0  0  0  0  0  0  0  0  0  0
   37.1450   23.2700   33.6460 H   0  0  0  0  0  0  0  0  0  0  0  0
   38.8900   22.8420   31.6990 O   0  0  0  0  0  0  0  0  0  0  0  0
   38.4420   21.6740   32.2880 C   0  0  0  0  0  0  0  0  0  0  0  0
   39.1130   21.3050   33.3000 O   0  0  0  0  0  0  0  0  0  0  0  0
   37.3130   20.7820   31.9260 C   0  0  0  0  0  0  0  0  0  0  0  0
   36.2430   20.7430   32.8220 C   0  0  0  0  0  0  0  0  0  0  0  0
   35.9240   21.1700   33.7690 H   0  0  0  0  0  0  0  0  0  0  0  0
   35.1070   19.5650   32.0140 S   0  0  0  0  0  0  0  0  0  0  0  0
   36.2960   19.3180   30.5660 C   0  0  0  0  0  0  0  0  0  0  0  0
   36.3620   18.7200   29.5800 H   0  0  0  0  0  0  0  0  0  0  0  0
   37.1600   20.0140   30.8720 N   0  0  0  0  0  0  0  0  0  0  0  0
  1  2  1  0  0  0  0
  1 12  1  0  0  0  0
  2  7  1  0  0  0  0
  3  2  2  0  0  0  0
  3  8  1  0  0  0  0
  4  3  1  0  0  0  0
  5  6  1  0  0  0  0
  5  4  2  0  0  0  0
  6  1  2  0  0  0  0
  9  4  1  0  0  0  0
 10  5  1  0  0  0  0
 11 17  1  0  0  0  0
 11 16  1  0  0  0  0
 12 11  2  0  0  0  0
 13 12  1  0  0  0  0
 13 14  2  0  0  0  0
 14 15  1  0  0  0  0
 15 16  2  0  0  0  0
 15 19  1  0  0  0  0
 18 13  1  0  0  0  0
 20 22  1  0  0  0  0
 21 20  2  0  0  0  0
 22 23  1  0  0  0  0
 22  6  1  0  0  0  0
 24 25  1  0  0  0  0
 24 20  1  0  0  0  0
 25 26  2  0  0  0  0
 27 25  1  0  0  0  0
 27 28  2  0  0  0  0
 28 29  1  0  0  0  0
 30 28  1  0  0  0  0
 31 33  2  0  0  0  0
 31 30  1  0  0  0  0
 32 31  1  0  0  0  0
 33 27  1  0  0  0  0
M  END
>  <minimizedAffinity>
-4.90477562

$$$$

 OpenBabel03272500593D

 33 35  0  0  0  0  0  0  0  0999 V2000
   39.9160   23.2720   36.4610 C   0  0  0  0  0  0  0  0  0  0  0  0
   39.9800   22.9690   37.7950 C   0  0  0  0  0  0  0  0  0  0  0  0
   38.9270   23.2530   38.6590 C   0  0  0  0  0  0  0  0  0  0  0  0
   37.7480   23.8840   38.0970 C   0  0  0  0  0  0  0  0  0  0  0  0
   37.7500   24.1560   36.7650 C   0  0  0  0  0  0  0  0  0  0  0  0
   38.7670   23.8840   35.9370 C   0  0  0  0  0  0  0  0  0  0  0  0
   40.8570   22.4920   38.2500 H   0  0  0  0  0  0  0  0  0  0  0  0
   39.0230   22.9960   39.7060 H   0  0  0  0  0  0  0  0  0  0  0  0
   37.0270   24.0400   38.8710 H   0  0  0  0  0  0  0  0  0  0  0  0
   36.7830   24.5900   36.5650 H   0  0  0  0  0  0  0  0  0  0  0  0
   42.1710   23.8030   35.6630 C   0  0  0  0  0  0  0  0  0  0  0  0
   41.0800   22.8890   35.6870 C   0  0  0  0  0  0  0  0  0  0  0  0
   41.2700   21.7350   34.9680 C   0  0  0  0  0  0  0  0  0  0  0  0
   42.4160   21.5190   34.3040 N   0  0  0  0  0  0  0  0  0  0  0  0
   43.4290   22.3870   34.2930 C   0  0  0  0  0  0  0  0  0  0  0  0
   43.2930   23.5200   34.9740 N   0  0  0  0  0  0  0  0  0  0  0  0
   42.0770   24.7430   36.2190 H   0  0  0  0  0  0  0  0  0  0  0  0
   40.4410   21.0410   34.9860 H   0  0  0  0  0  0  0  0  0  0  0  0
   44.3650   22.2370   33.7650 H   0  0  0  0  0  0  0  0  0  0  0  0
   37.9960   23.1730   33.8330 C   0  0  0  0  0  0  0  0  0  0  0  0
   37.5990   22.1030   34.4370 O   0  0  0  0  0  0  0  0  0  0  0  0
   38.7190   24.2140   34.6060 N   0  0  0  0  0  0  0  0  0  0  0  0
   39.0990   25.0400   34.1030 H   0  0  0  0  0  0  0  0  0  0  0  0
   37.7870   23.4410   32.4480 O   0  0  0  0  0  0  0  0  0  0  0  0
   36.7560   24.2750   32.0560 C   0  0  0  0  0  0  0  0  0  0  0  0
   35.8140   23.6910   31.4380 O   0  0  0  0  0  0  0  0  0  0  0  0
   36.5760   25.7370   32.2330 C   0  0  0  0  0  0  0  0  0  0  0  0
   35.7850   26.3840   31.2820 C   0  0  0  0  0  0  0  0  0  0  0  0
   35.2110   26.1740   30.3840 H   0  0  0  0  0  0  0  0  0  0  0  0
   35.8200   28.1140   31.8640 S   0  0  0  0  0  0  0  0  0  0  0  0
   36.9240   27.6610   33.3300 C   0  0  0  0  0  0  0  0  0  0  0  0
   37.4350   28.1730   34.2310 H   0  0  0  0  0  0  0  0  0  0  0  0
   37.0510   26.5300   33.1670 N   0  0  0  0  0  0  0  0  0  0  0  0
  1  2  1  0  0  0  0
  2  7  1  0  0  0  0
  2  3  2  0  0  0  0
  3  8  1  0  0  0  0
  4  3  1  0  0  0  0
  4  9  1  0  0  0  0
  5  4  2  0  0  0  0
  6  1  2  0  0  0  0
  6  5  1  0  0  0  0
 10  5  1  0  0  0  0
 11 12  1  0  0  0  0
 11 17  1  0  0  0  0
 12  1  1  0  0  0  0
 13 18  1  0  0  0  0
 13 12  2  0  0  0  0
 14 13  1  0  0  0  0
 15 14  2  0  0  0  0
 15 16  1  0  0  0  0
 16 11  2  0  0  0  0
 19 15  1  0  0  0  0
 20 21  2  0  0  0  0
 20 22  1  0  0  0  0
 22  6  1  0  0  0  0
 23 22  1  0  0  0  0
 24 20  1  0  0  0  0
 25 27  1  0  0  0  0
 25 24  1  0  0  0  0
 26 25  2  0  0  0  0
 27 33  1  0  0  0  0
 28 30  1  0  0  0  0
 28 27  2  0  0  0  0
 29 28  1  0  0  0  0
 30 31  1  0  0  0  0
 31 32  1  0  0  0  0
 33 31  2  0  0  0  0
M  END
>  <minimizedAffinity>
-4.9022994

$$$$

 OpenBabel03272500593D

 33 35  0  0  0  0  0  0  0  0999 V2000
   38.9090   23.6500   35.9710 C   0  0  0  0  0  0  0  0  0  0  0  0
   39.5620   22.8870   36.9020 C   0  0  0  0  0  0  0  0  0  0  0  0
   39.3600   23.0700   38.2670 C   0  0  0  0  0  0  0  0  0  0  0  0
   38.4270   24.1030   38.6760 C   0  0  0  0  0  0  0  0  0  0  0  0
   37.8130   24.8230   37.7000 C   0  0  0  0  0  0  0  0  0  0  0  0
   38.0120   24.6460   36.3880 C   0  0  0  0  0  0  0  0  0  0  0  0
   40.2730   22.0990   36.6250 H   0  0  0  0  0  0  0  0  0  0  0  0
   39.8990   22.4430   38.9660 H   0  0  0  0  0  0  0  0  0  0  0  0
   38.3730   24.1280   39.7440 H   0  0  0  0  0  0  0  0  0  0  0  0
   37.1570   25.5010   38.2230 H   0  0  0  0  0  0  0  0  0  0  0  0
   38.5710   22.1650   34.0520 C   0  0  0  0  0  0  0  0  0  0  0  0
   39.2040   23.3210   34.5910 C   0  0  0  0  0  0  0  0  0  0  0  0
   40.0230   23.9970   33.7210 C   0  0  0  0  0  0  0  0  0  0  0  0
   40.1900   23.5690   32.4600 N   0  0  0  0  0  0  0  0  0  0  0  0
   39.5880   22.4830   31.9710 C   0  0  0  0  0  0  0  0  0  0  0  0
   38.7850   21.7940   32.7750 N   0  0  0  0  0  0  0  0  0  0  0  0
   37.9050   21.5840   34.7000 H   0  0  0  0  0  0  0  0  0  0  0  0
   40.5040   24.8740   34.1310 H   0  0  0  0  0  0  0  0  0  0  0  0
   39.7050   22.1160   30.9570 H   0  0  0  0  0  0  0  0  0  0  0  0
   38.1060   26.7150   35.2740 C   0  0  0  0  0  0  0  0  0  0  0  0
   39.1190   26.9760   36.0300 O   0  0  0  0  0  0  0  0  0  0  0  0
   37.3840   25.4290   35.4530 N   0  0  0  0  0  0  0  0  0  0  0  0
   36.5270   25.2530   34.8930 H   0  0  0  0  0  0  0  0  0  0  0  0
   37.6140   27.5830   34.2560 O   0  0  0  0  0  0  0  0  0  0  0  0
   37.5990   27.1610   32.9390 C   0  0  0  0  0  0  0  0  0  0  0  0
   38.4740   27.7090   32.2010 O   0  0  0  0  0  0  0  0  0  0  0  0
   36.7240   26.1800   32.2500 C   0  0  0  0  0  0  0  0  0  0  0  0
   35.7150   26.7080   31.4440 C   0  0  0  0  0  0  0  0  0  0  0  0
   35.3120   27.6640   31.1210 H   0  0  0  0  0  0  0  0  0  0  0  0
   34.9080   25.2030   30.8010 S   0  0  0  0  0  0  0  0  0  0  0  0
   36.0990   24.0860   31.7510 C   0  0  0  0  0  0  0  0  0  0  0  0
   36.3010   22.9600   31.9130 H   0  0  0  0  0  0  0  0  0  0  0  0
   36.7580   24.8670   32.2780 N   0  0  0  0  0  0  0  0  0  0  0  0
  1  6  2  0  0  0  0
  1  2  1  0  0  0  0
  2  3  2  0  0  0  0
  3  4  1  0  0  0  0
  3  8  1  0  0  0  0
  4  9  1  0  0  0  0
  5 10  1  0  0  0  0
  5  4  2  0  0  0  0
  6  5  1  0  0  0  0
  7  2  1  0  0  0  0
 11 12  1  0  0  0  0
 11 17  1  0  0  0  0
 12  1  1  0  0  0  0
 13 18  1  0  0  0  0
 13 12  2  0  0  0  0
 14 13  1  0  0  0  0
 15 14  2  0  0  0  0
 15 16  1  0  0  0  0
 16 11  2  0  0  0  0
 19 15  1  0  0  0  0
 20 22  1  0  0  0  0
 20 21  2  0  0  0  0
 22  6  1  0  0  0  0
 23 22  1  0  0  0  0
 24 20  1  0  0  0  0
 25 24  1  0  0  0  0
 26 25  2  0  0  0  0
 27 33  1  0  0  0  0
 27 25  1  0  0  0  0
 28 27  2  0  0  0  0
 29 28  1  0  0  0  0
 30 28  1  0  0  0  0
 30 31  1  0  0  0  0
 31 32  1  0  0  0  0
 31 33  2  0  0  0  0
M  END
>  <minimizedAffinity>
-4.89721489

$$$$

 OpenBabel03272500593D

 33 35  0  0  0  0  0  0  0  0999 V2000
   39.0320   23.6870   35.7560 C   0  0  0  0  0  0  0  0  0  0  0  0
   39.8930   22.8860   36.4580 C   0  0  0  0  0  0  0  0  0  0  0  0
   39.8460   22.8050   37.8460 C   0  0  0  0  0  0  0  0  0  0  0  0
   38.8470   23.6030   38.5330 C   0  0  0  0  0  0  0  0  0  0  0  0
   38.0240   24.3750   37.7750 C   0  0  0  0  0  0  0  0  0  0  0  0
   38.0740   24.4520   36.4390 C   0  0  0  0  0  0  0  0  0  0  0  0
   40.6580   22.2710   35.9680 H   0  0  0  0  0  0  0  0  0  0  0  0
   40.5470   22.1600   38.3580 H   0  0  0  0  0  0  0  0  0  0  0  0
   38.9280   23.4410   39.5870 H   0  0  0  0  0  0  0  0  0  0  0  0
   37.3580   24.8490   38.4780 H   0  0  0  0  0  0  0  0  0  0  0  0
   38.3390   22.7470   33.6010 C   0  0  0  0  0  0  0  0  0  0  0  0
   39.1860   23.6410   34.3150 C   0  0  0  0  0  0  0  0  0  0  0  0
   40.0560   24.3670   33.5390 C   0  0  0  0  0  0  0  0  0  0  0  0
   40.0750   24.2180   32.2050 N   0  0  0  0  0  0  0  0  0  0  0  0
   39.2730   23.3750   31.5520 C   0  0  0  0  0  0  0  0  0  0  0  0
   38.4140   22.6500   32.2600 N   0  0  0  0  0  0  0  0  0  0  0  0
   37.6240   22.1400   34.1680 H   0  0  0  0  0  0  0  0  0  0  0  0
   40.6990   25.0450   34.0810 H   0  0  0  0  0  0  0  0  0  0  0  0
   39.2680   23.2360   30.4770 H   0  0  0  0  0  0  0  0  0  0  0  0
   37.8490   26.6150   35.5450 C   0  0  0  0  0  0  0  0  0  0  0  0
   38.9850   26.8680   36.1030 O   0  0  0  0  0  0  0  0  0  0  0  0
   37.2340   25.2760   35.7340 N   0  0  0  0  0  0  0  0  0  0  0  0
   36.2880   25.0990   35.3430 H   0  0  0  0  0  0  0  0  0  0  0  0
   37.1210   27.5400   34.7390 O   0  0  0  0  0  0  0  0  0  0  0  0
   36.9670   27.3020   33.3870 C   0  0  0  0  0  0  0  0  0  0  0  0
   37.0040   26.0760   33.0600 O   0  0  0  0  0  0  0  0  0  0  0  0
   36.7720   28.2450   32.2560 C   0  0  0  0  0  0  0  0  0  0  0  0
   37.7160   28.1850   31.2300 C   0  0  0  0  0  0  0  0  0  0  0  0
   38.6180   27.6490   30.9490 H   0  0  0  0  0  0  0  0  0  0  0  0
   37.1130   29.4650   30.0770 S   0  0  0  0  0  0  0  0  0  0  0  0
   35.6510   29.8750   31.2030 C   0  0  0  0  0  0  0  0  0  0  0  0
   34.7430   30.5880   31.2320 H   0  0  0  0  0  0  0  0  0  0  0  0
   35.8280   29.1380   32.0680 N   0  0  0  0  0  0  0  0  0  0  0  0
  1  6  2  0  0  0  0
  1  2  1  0  0  0  0
  2  3  2  0  0  0  0
  3  8  1  0  0  0  0
  3  4  1  0  0  0  0
  4  9  1  0  0  0  0
  5 10  1  0  0  0  0
  5  4  2  0  0  0  0
  6  5  1  0  0  0  0
  7  2  1  0  0  0  0
 11 17  1  0  0  0  0
 11 12  1  0  0  0  0
 12  1  1  0  0  0  0
 13 18  1  0  0  0  0
 13 12  2  0  0  0  0
 14 13  1  0  0  0  0
 15 14  2  0  0  0  0
 15 16  1  0  0  0  0
 16 11  2  0  0  0  0
 19 15  1  0  0  0  0
 20 22  1  0  0  0  0
 20 21  2  0  0  0  0
 22  6  1  0  0  0  0
 23 22  1  0  0  0  0
 24 20  1  0  0  0  0
 25 24  1  0  0  0  0
 26 25  2  0  0  0  0
 27 25  1  0  0  0  0
 28 27  2  0  0  0  0
 29 28  1  0  0  0  0
 30 31  1  0  0  0  0
 30 28  1  0  0  0  0
 31 32  1  0  0  0  0
 31 33  2  0  0  0  0
 33 27  1  0  0  0  0
M  END
>  <minimizedAffinity>
-4.78471375

$$$$

 OpenBabel03272500593D

 33 35  0  0  0  0  0  0  0  0999 V2000
   39.7030   23.4460   36.3520 C   0  0  0  0  0  0  0  0  0  0  0  0
   39.9330   23.0090   37.6290 C   0  0  0  0  0  0  0  0  0  0  0  0
   39.0240   23.2460   38.6560 C   0  0  0  0  0  0  0  0  0  0  0  0
   37.8140   23.9760   38.3280 C   0  0  0  0  0  0  0  0  0  0  0  0
   37.6490   24.3800   37.0410 C   0  0  0  0  0  0  0  0  0  0  0  0
   38.5270   24.1530   36.0550 C   0  0  0  0  0  0  0  0  0  0  0  0
   40.8370   22.4550   37.9090 H   0  0  0  0  0  0  0  0  0  0  0  0
   39.2480   22.8820   39.6500 H   0  0  0  0  0  0  0  0  0  0  0  0
   37.2140   24.0820   39.2070 H   0  0  0  0  0  0  0  0  0  0  0  0
   36.6880   24.8700   37.0210 H   0  0  0  0  0  0  0  0  0  0  0  0
   41.8290   23.9920   35.2630 C   0  0  0  0  0  0  0  0  0  0  0  0
   40.7280   23.0980   35.3890 C   0  0  0  0  0  0  0  0  0  0  0  0
   40.7780   21.9930   34.5750 C   0  0  0  0  0  0  0  0  0  0  0  0
   41.8060   21.8040   33.7350 N   0  0  0  0  0  0  0  0  0  0  0  0
   42.8300   22.6530   33.6290 C   0  0  0  0  0  0  0  0  0  0  0  0
   42.8280   23.7380   34.3960 N   0  0  0  0  0  0  0  0  0  0  0  0
   41.8440   24.8930   35.8870 H   0  0  0  0  0  0  0  0  0  0  0  0
   39.9420   21.3140   34.6710 H   0  0  0  0  0  0  0  0  0  0  0  0
   43.6730   22.5240   32.9590 H   0  0  0  0  0  0  0  0  0  0  0  0
   38.6940   26.0480   34.6740 C   0  0  0  0  0  0  0  0  0  0  0  0
   39.0680   26.6800   35.7350 O   0  0  0  0  0  0  0  0  0  0  0  0
   38.3150   24.6160   34.7820 N   0  0  0  0  0  0  0  0  0  0  0  0
   37.9480   24.1290   33.9400 H   0  0  0  0  0  0  0  0  0  0  0  0
   38.6190   26.6280   33.3740 O   0  0  0  0  0  0  0  0  0  0  0  0
   37.3850   26.8840   32.8040 C   0  0  0  0  0  0  0  0  0  0  0  0
   36.6720   25.8520   32.6110 O   0  0  0  0  0  0  0  0  0  0  0  0
   36.7640   28.1620   32.3770 C   0  0  0  0  0  0  0  0  0  0  0  0
   36.0040   28.8320   33.3360 C   0  0  0  0  0  0  0  0  0  0  0  0
   35.6790   28.7360   34.3690 H   0  0  0  0  0  0  0  0  0  0  0  0
   35.4490   30.3120   32.4230 S   0  0  0  0  0  0  0  0  0  0  0  0
   36.3600   29.7630   30.8610 C   0  0  0  0  0  0  0  0  0  0  0  0
   36.5410   30.1280   29.7800 H   0  0  0  0  0  0  0  0  0  0  0  0
   36.8260   28.7740   31.2160 N   0  0  0  0  0  0  0  0  0  0  0  0
  1  2  1  0  0  0  0
  2  7  1  0  0  0  0
  2  3  2  0  0  0  0
  3  8  1  0  0  0  0
  4  3  1  0  0  0  0
  4  9  1  0  0  0  0
  5  4  2  0  0  0  0
  6  1  2  0  0  0  0
  6  5  1  0  0  0  0
 10  5  1  0  0  0  0
 11 12  1  0  0  0  0
 11 17  1  0  0  0  0
 12  1  1  0  0  0  0
 13 18  1  0  0  0  0
 13 12  2  0  0  0  0
 14 13  1  0  0  0  0
 15 14  2  0  0  0  0
 15 16  1  0  0  0  0
 16 11  2  0  0  0  0
 19 15  1  0  0  0  0
 20 22  1  0  0  0  0
 20 21  2  0  0  0  0
 22  6  1  0  0  0  0
 23 22  1  0  0  0  0
 24 20  1  0  0  0  0
 25 24  1  0  0  0  0
 26 25  2  0  0  0  0
 27 25  1  0  0  0  0
 27 28  2  0  0  0  0
 28 29  1  0  0  0  0
 30 28  1  0  0  0  0
 31 33  2  0  0  0  0
 31 30  1  0  0  0  0
 32 31  1  0  0  0  0
 33 27  1  0  0  0  0
M  END
>  <minimizedAffinity>
-4.75918722

$$$$
