
 OpenBabel03272500563D

 33 35  0  0  0  0  0  0  0  0999 V2000
   38.1560   31.8710   47.3950 C   0  0  0  0  0  0  0  0  0  0  0  0
   38.6920   32.7470   48.3000 C   0  0  0  0  0  0  0  0  0  0  0  0
   38.2380   32.8080   49.6140 C   0  0  0  0  0  0  0  0  0  0  0  0
   37.1690   31.9050   49.9990 C   0  0  0  0  0  0  0  0  0  0  0  0
   36.6840   31.0610   49.0510 C   0  0  0  0  0  0  0  0  0  0  0  0
   37.1210   31.0060   47.7860 C   0  0  0  0  0  0  0  0  0  0  0  0
   39.5010   33.4420   48.0400 H   0  0  0  0  0  0  0  0  0  0  0  0
   38.6910   33.5170   50.2940 H   0  0  0  0  0  0  0  0  0  0  0  0
   36.9260   32.0630   51.0280 H   0  0  0  0  0  0  0  0  0  0  0  0
   35.9310   30.4760   49.5550 H   0  0  0  0  0  0  0  0  0  0  0  0
   40.0080   31.2510   45.9140 C   0  0  0  0  0  0  0  0  0  0  0  0
   38.7540   31.9070   46.0750 C   0  0  0  0  0  0  0  0  0  0  0  0
   38.2550   32.4970   44.9410 C   0  0  0  0  0  0  0  0  0  0  0  0
   38.9270   32.4380   43.7810 N   0  0  0  0  0  0  0  0  0  0  0  0
   40.1020   31.8180   43.6490 C   0  0  0  0  0  0  0  0  0  0  0  0
   40.6280   31.2320   44.7190 N   0  0  0  0  0  0  0  0  0  0  0  0
   40.4570   30.7630   46.7870 H   0  0  0  0  0  0  0  0  0  0  0  0
   37.3030   32.9940   45.0630 H   0  0  0  0  0  0  0  0  0  0  0  0
   40.6660   31.7560   42.7240 H   0  0  0  0  0  0  0  0  0  0  0  0
   35.0970   30.0530   47.0640 C   0  0  0  0  0  0  0  0  0  0  0  0
   34.5540   30.6650   48.0620 O   0  0  0  0  0  0  0  0  0  0  0  0
   36.5660   30.1520   46.8680 N   0  0  0  0  0  0  0  0  0  0  0  0
   37.0090   29.6010   46.1070 H   0  0  0  0  0  0  0  0  0  0  0  0
   34.3800   29.2730   46.1100 O   0  0  0  0  0  0  0  0  0  0  0  0
   33.1020   29.6430   45.7380 C   0  0  0  0  0  0  0  0  0  0  0  0
   33.0540   30.4920   44.7950 O   0  0  0  0  0  0  0  0  0  0  0  0
   31.7810   29.2170   46.2630 C   0  0  0  0  0  0  0  0  0  0  0  0
   31.7850   28.1370   47.1470 C   0  0  0  0  0  0  0  0  0  0  0  0
   32.4710   27.4410   47.6190 H   0  0  0  0  0  0  0  0  0  0  0  0
   30.0110   27.9570   47.5420 S   0  0  0  0  0  0  0  0  0  0  0  0
   29.5530   29.4070   46.4200 C   0  0  0  0  0  0  0  0  0  0  0  0
   28.6130   29.9850   46.0790 H   0  0  0  0  0  0  0  0  0  0  0  0
   30.5880   29.7140   46.0240 N   0  0  0  0  0  0  0  0  0  0  0  0
  1  6  2  0  0  0  0
  1  2  1  0  0  0  0
  2  3  2  0  0  0  0
  3  4  1  0  0  0  0
  3  8  1  0  0  0  0
  4  9  1  0  0  0  0
  5 10  1  0  0  0  0
  5  4  2  0  0  0  0
  6  5  1  0  0  0  0
  7  2  1  0  0  0  0
 11 12  1  0  0  0  0
 11 17  1  0  0  0  0
 12  1  1  0  0  0  0
 13 18  1  0  0  0  0
 13 12  2  0  0  0  0
 14 13  1  0  0  0  0
 15 14  2  0  0  0  0
 15 16  1  0  0  0  0
 16 11  2  0  0  0  0
 19 15  1  0  0  0  0
 20 21  2  0  0  0  0
 22 20  1  0  0  0  0
 22  6  1  0  0  0  0
 23 22  1  0  0  0  0
 24 20  1  0  0  0  0
 25 24  1  0  0  0  0
 25 27  1  0  0  0  0
 26 25  2  0  0  0  0
 27 28  2  0  0  0  0
 28 30  1  0  0  0  0
 28 29  1  0  0  0  0
 31 30  1  0  0  0  0
 32 31  1  0  0  0  0
 33 27  1  0  0  0  0
 33 31  2  0  0  0  0
M  END
>  <minimizedAffinity>
-5.62723827

>  <minimizedRMSD>
0.511926472

$$$$
