
 OpenBabel03272500563D

 33 35  0  0  0  0  0  0  0  0999 V2000
   38.2550   31.9310   47.3970 C   0  0  0  0  0  0  0  0  0  0  0  0
   38.8080   32.8370   48.2620 C   0  0  0  0  0  0  0  0  0  0  0  0
   38.3880   32.9330   49.5860 C   0  0  0  0  0  0  0  0  0  0  0  0
   37.3380   32.0330   50.0250 C   0  0  0  0  0  0  0  0  0  0  0  0
   36.8340   31.1580   49.1150 C   0  0  0  0  0  0  0  0  0  0  0  0
   37.2390   31.0710   47.8410 C   0  0  0  0  0  0  0  0  0  0  0  0
   39.6040   33.5300   47.9610 H   0  0  0  0  0  0  0  0  0  0  0  0
   38.8540   33.6650   50.2330 H   0  0  0  0  0  0  0  0  0  0  0  0
   37.1210   32.2180   51.0550 H   0  0  0  0  0  0  0  0  0  0  0  0
   36.1000   30.5820   49.6550 H   0  0  0  0  0  0  0  0  0  0  0  0
   40.0570   31.2570   45.8800 C   0  0  0  0  0  0  0  0  0  0  0  0
   38.8180   31.9340   46.0620 C   0  0  0  0  0  0  0  0  0  0  0  0
   38.2960   32.5100   44.9300 C   0  0  0  0  0  0  0  0  0  0  0  0
   38.9360   32.4190   43.7540 N   0  0  0  0  0  0  0  0  0  0  0  0
   40.0980   31.7800   43.6020 C   0  0  0  0  0  0  0  0  0  0  0  0
   40.6440   31.2070   44.6680 N   0  0  0  0  0  0  0  0  0  0  0  0
   40.5230   30.7780   46.7490 H   0  0  0  0  0  0  0  0  0  0  0  0
   37.3560   33.0240   45.0680 H   0  0  0  0  0  0  0  0  0  0  0  0
   40.6360   31.6920   42.6640 H   0  0  0  0  0  0  0  0  0  0  0  0
   35.2080   30.0660   47.2150 C   0  0  0  0  0  0  0  0  0  0  0  0
   34.6900   30.6910   48.2180 O   0  0  0  0  0  0  0  0  0  0  0  0
   36.6660   30.1860   46.9630 N   0  0  0  0  0  0  0  0  0  0  0  0
   37.0910   29.6260   46.1980 H   0  0  0  0  0  0  0  0  0  0  0  0
   34.4710   29.2510   46.3050 O   0  0  0  0  0  0  0  0  0  0  0  0
   33.0940   29.3560   46.2460 C   0  0  0  0  0  0  0  0  0  0  0  0
   32.6670   30.2420   45.4440 O   0  0  0  0  0  0  0  0  0  0  0  0
   32.0370   28.6070   46.9710 C   0  0  0  0  0  0  0  0  0  0  0  0
   32.4720   27.7090   47.9460 C   0  0  0  0  0  0  0  0  0  0  0  0
   33.3870   27.3330   48.3950 H   0  0  0  0  0  0  0  0  0  0  0  0
   30.8970   27.0310   48.5750 S   0  0  0  0  0  0  0  0  0  0  0  0
   29.8930   28.1020   47.3860 C   0  0  0  0  0  0  0  0  0  0  0  0
   28.7900   28.3040   47.1120 H   0  0  0  0  0  0  0  0  0  0  0  0
   30.7320   28.6660   46.8370 N   0  0  0  0  0  0  0  0  0  0  0  0
  1  6  2  0  0  0  0
  1  2  1  0  0  0  0
  2  3  2  0  0  0  0
  3  4  1  0  0  0  0
  3  8  1  0  0  0  0
  4  9  1  0  0  0  0
  5 10  1  0  0  0  0
  5  4  2  0  0  0  0
  6  5  1  0  0  0  0
  7  2  1  0  0  0  0
 11 12  1  0  0  0  0
 11 17  1  0  0  0  0
 12  1  1  0  0  0  0
 13 18  1  0  0  0  0
 13 12  2  0  0  0  0
 14 13  1  0  0  0  0
 15 14  2  0  0  0  0
 15 16  1  0  0  0  0
 16 11  2  0  0  0  0
 19 15  1  0  0  0  0
 20 21  2  0  0  0  0
 22 20  1  0  0  0  0
 22  6  1  0  0  0  0
 23 22  1  0  0  0  0
 24 20  1  0  0  0  0
 25 24  1  0  0  0  0
 25 27  1  0  0  0  0
 26 25  2  0  0  0  0
 27 28  2  0  0  0  0
 28 29  1  0  0  0  0
 28 30  1  0  0  0  0
 31 30  1  0  0  0  0
 32 31  1  0  0  0  0
 33 27  1  0  0  0  0
 33 31  2  0  0  0  0
M  END
>  <minimizedAffinity>
-5.69552565

>  <minimizedRMSD>
1.12720501

$$$$
