
 OpenBabel03272500573D

 33 35  0  0  0  0  0  0  0  0999 V2000
   38.2550   31.9300   47.3970 C   0  0  0  0  0  0  0  0  0  0  0  0
   38.8080   32.8360   48.2620 C   0  0  0  0  0  0  0  0  0  0  0  0
   38.3890   32.9310   49.5860 C   0  0  0  0  0  0  0  0  0  0  0  0
   37.3380   32.0310   50.0250 C   0  0  0  0  0  0  0  0  0  0  0  0
   36.8340   31.1560   49.1150 C   0  0  0  0  0  0  0  0  0  0  0  0
   37.2390   31.0690   47.8410 C   0  0  0  0  0  0  0  0  0  0  0  0
   39.6030   33.5290   47.9620 H   0  0  0  0  0  0  0  0  0  0  0  0
   38.8540   33.6630   50.2330 H   0  0  0  0  0  0  0  0  0  0  0  0
   37.1210   32.2160   51.0550 H   0  0  0  0  0  0  0  0  0  0  0  0
   36.1000   30.5800   49.6550 H   0  0  0  0  0  0  0  0  0  0  0  0
   40.0570   31.2570   45.8790 C   0  0  0  0  0  0  0  0  0  0  0  0
   38.8180   31.9330   46.0620 C   0  0  0  0  0  0  0  0  0  0  0  0
   38.2950   32.5090   44.9300 C   0  0  0  0  0  0  0  0  0  0  0  0
   38.9350   32.4190   43.7540 N   0  0  0  0  0  0  0  0  0  0  0  0
   40.0970   31.7810   43.6010 C   0  0  0  0  0  0  0  0  0  0  0  0
   40.6440   31.2080   44.6680 N   0  0  0  0  0  0  0  0  0  0  0  0
   40.5240   30.7790   46.7480 H   0  0  0  0  0  0  0  0  0  0  0  0
   37.3540   33.0220   45.0690 H   0  0  0  0  0  0  0  0  0  0  0  0
   40.6350   31.6930   42.6630 H   0  0  0  0  0  0  0  0  0  0  0  0
   35.2070   30.0660   47.2140 C   0  0  0  0  0  0  0  0  0  0  0  0
   34.6900   30.6910   48.2170 O   0  0  0  0  0  0  0  0  0  0  0  0
   36.6660   30.1850   46.9620 N   0  0  0  0  0  0  0  0  0  0  0  0
   37.0910   29.6250   46.1980 H   0  0  0  0  0  0  0  0  0  0  0  0
   34.4700   29.2520   46.3030 O   0  0  0  0  0  0  0  0  0  0  0  0
   33.0930   29.3560   46.2460 C   0  0  0  0  0  0  0  0  0  0  0  0
   32.6660   30.2420   45.4430 O   0  0  0  0  0  0  0  0  0  0  0  0
   32.0370   28.6070   46.9710 C   0  0  0  0  0  0  0  0  0  0  0  0
   32.4720   27.7090   47.9450 C   0  0  0  0  0  0  0  0  0  0  0  0
   33.3890   27.3340   48.3930 H   0  0  0  0  0  0  0  0  0  0  0  0
   30.8980   27.0310   48.5750 S   0  0  0  0  0  0  0  0  0  0  0  0
   29.8930   28.1030   47.3870 C   0  0  0  0  0  0  0  0  0  0  0  0
   28.7890   28.3040   47.1120 H   0  0  0  0  0  0  0  0  0  0  0  0
   30.7320   28.6660   46.8370 N   0  0  0  0  0  0  0  0  0  0  0  0
  1  6  2  0  0  0  0
  1  2  1  0  0  0  0
  2  3  2  0  0  0  0
  3  4  1  0  0  0  0
  3  8  1  0  0  0  0
  4  9  1  0  0  0  0
  5 10  1  0  0  0  0
  5  4  2  0  0  0  0
  6  5  1  0  0  0  0
  7  2  1  0  0  0  0
 11 12  1  0  0  0  0
 11 17  1  0  0  0  0
 12  1  1  0  0  0  0
 13 18  1  0  0  0  0
 13 12  2  0  0  0  0
 14 13  1  0  0  0  0
 15 14  2  0  0  0  0
 15 16  1  0  0  0  0
 16 11  2  0  0  0  0
 19 15  1  0  0  0  0
 20 21  2  0  0  0  0
 22 20  1  0  0  0  0
 22  6  1  0  0  0  0
 23 22  1  0  0  0  0
 24 20  1  0  0  0  0
 25 24  1  0  0  0  0
 25 27  1  0  0  0  0
 26 25  2  0  0  0  0
 27 28  2  0  0  0  0
 28 29  1  0  0  0  0
 28 30  1  0  0  0  0
 31 30  1  0  0  0  0
 32 31  1  0  0  0  0
 33 27  1  0  0  0  0
 33 31  2  0  0  0  0
M  END
>  <minimizedAffinity>
-5.69490004

>  <minimizedRMSD>
1.07186699

$$$$
