
 OpenBabel03272500563D

 33 35  0  0  0  0  0  0  0  0999 V2000
   38.1100   31.8820   47.4220 C   0  0  0  0  0  0  0  0  0  0  0  0
   38.6130   32.8030   48.3010 C   0  0  0  0  0  0  0  0  0  0  0  0
   38.1520   32.8890   49.6120 C   0  0  0  0  0  0  0  0  0  0  0  0
   37.1120   31.9640   50.0210 C   0  0  0  0  0  0  0  0  0  0  0  0
   36.6570   31.0760   49.0980 C   0  0  0  0  0  0  0  0  0  0  0  0
   37.1020   30.9970   47.8370 C   0  0  0  0  0  0  0  0  0  0  0  0
   39.4000   33.5150   48.0230 H   0  0  0  0  0  0  0  0  0  0  0  0
   38.5800   33.6330   50.2710 H   0  0  0  0  0  0  0  0  0  0  0  0
   36.8590   32.1450   51.0440 H   0  0  0  0  0  0  0  0  0  0  0  0
   35.9220   30.4820   49.6180 H   0  0  0  0  0  0  0  0  0  0  0  0
   39.9600   31.2290   45.9550 C   0  0  0  0  0  0  0  0  0  0  0  0
   38.7120   31.8970   46.1040 C   0  0  0  0  0  0  0  0  0  0  0  0
   38.2200   32.4770   44.9610 C   0  0  0  0  0  0  0  0  0  0  0  0
   38.8950   32.3990   43.8040 N   0  0  0  0  0  0  0  0  0  0  0  0
   40.0650   31.7670   43.6820 C   0  0  0  0  0  0  0  0  0  0  0  0
   40.5830   31.1900   44.7610 N   0  0  0  0  0  0  0  0  0  0  0  0
   40.4030   30.7470   46.8340 H   0  0  0  0  0  0  0  0  0  0  0  0
   37.2730   32.9850   45.0750 H   0  0  0  0  0  0  0  0  0  0  0  0
   40.6310   31.6890   42.7600 H   0  0  0  0  0  0  0  0  0  0  0  0
   35.1000   30.0320   47.0700 C   0  0  0  0  0  0  0  0  0  0  0  0
   34.5180   30.7110   48.0010 O   0  0  0  0  0  0  0  0  0  0  0  0
   36.5780   30.0970   46.9440 N   0  0  0  0  0  0  0  0  0  0  0  0
   37.0480   29.4950   46.2400 H   0  0  0  0  0  0  0  0  0  0  0  0
   34.4180   29.2060   46.1280 O   0  0  0  0  0  0  0  0  0  0  0  0
   33.2250   29.6320   45.5750 C   0  0  0  0  0  0  0  0  0  0  0  0
   33.3390   30.5980   44.7590 O   0  0  0  0  0  0  0  0  0  0  0  0
   31.8360   29.1510   45.7840 C   0  0  0  0  0  0  0  0  0  0  0  0
   31.6270   28.3270   46.8910 C   0  0  0  0  0  0  0  0  0  0  0  0
   32.1680   27.8780   47.7180 H   0  0  0  0  0  0  0  0  0  0  0  0
   29.8370   27.9830   46.7800 S   0  0  0  0  0  0  0  0  0  0  0  0
   29.6700   29.0340   45.2190 C   0  0  0  0  0  0  0  0  0  0  0  0
   28.8550   29.3640   44.4710 H   0  0  0  0  0  0  0  0  0  0  0  0
   30.7560   29.3900   45.0770 N   0  0  0  0  0  0  0  0  0  0  0  0
  1  6  2  0  0  0  0
  1  2  1  0  0  0  0
  2  3  2  0  0  0  0
  3  4  1  0  0  0  0
  3  8  1  0  0  0  0
  4  9  1  0  0  0  0
  5 10  1  0  0  0  0
  5  4  2  0  0  0  0
  6  5  1  0  0  0  0
  7  2  1  0  0  0  0
 11 12  1  0  0  0  0
 11 17  1  0  0  0  0
 12  1  1  0  0  0  0
 13 18  1  0  0  0  0
 13 12  2  0  0  0  0
 14 13  1  0  0  0  0
 15 14  2  0  0  0  0
 15 16  1  0  0  0  0
 16 11  2  0  0  0  0
 19 15  1  0  0  0  0
 20 21  2  0  0  0  0
 22 20  1  0  0  0  0
 22  6  1  0  0  0  0
 23 22  1  0  0  0  0
 24 20  1  0  0  0  0
 25 27  1  0  0  0  0
 25 24  1  0  0  0  0
 26 25  2  0  0  0  0
 27 28  2  0  0  0  0
 28 29  1  0  0  0  0
 30 28  1  0  0  0  0
 31 30  1  0  0  0  0
 32 31  1  0  0  0  0
 33 31  2  0  0  0  0
 33 27  1  0  0  0  0
M  END
>  <minimizedAffinity>
-5.29433012

>  <minimizedRMSD>
0.159380525

$$$$
