
 OpenBabel03272500573D

 33 35  0  0  0  0  0  0  0  0999 V2000
   38.0950   31.8790   47.4220 C   0  0  0  0  0  0  0  0  0  0  0  0
   38.5590   32.7910   48.3320 C   0  0  0  0  0  0  0  0  0  0  0  0
   38.0530   32.8540   49.6260 C   0  0  0  0  0  0  0  0  0  0  0  0
   37.0080   31.9140   49.9860 C   0  0  0  0  0  0  0  0  0  0  0  0
   36.5940   31.0350   49.0360 C   0  0  0  0  0  0  0  0  0  0  0  0
   37.0820   30.9790   47.7900 C   0  0  0  0  0  0  0  0  0  0  0  0
   39.3480   33.5150   48.0910 H   0  0  0  0  0  0  0  0  0  0  0  0
   38.4500   33.5930   50.3100 H   0  0  0  0  0  0  0  0  0  0  0  0
   36.7190   32.0780   51.0020 H   0  0  0  0  0  0  0  0  0  0  0  0
   35.8470   30.4280   49.5210 H   0  0  0  0  0  0  0  0  0  0  0  0
   40.0030   31.2700   46.0120 C   0  0  0  0  0  0  0  0  0  0  0  0
   38.7410   31.9190   46.1260 C   0  0  0  0  0  0  0  0  0  0  0  0
   38.2810   32.5070   44.9740 C   0  0  0  0  0  0  0  0  0  0  0  0
   38.9960   32.4520   43.8400 N   0  0  0  0  0  0  0  0  0  0  0  0
   40.1780   31.8390   43.7510 C   0  0  0  0  0  0  0  0  0  0  0  0
   40.6670   31.2550   44.8400 N   0  0  0  0  0  0  0  0  0  0  0  0
   40.4220   30.7840   46.9000 H   0  0  0  0  0  0  0  0  0  0  0  0
   37.3230   33.0000   45.0610 H   0  0  0  0  0  0  0  0  0  0  0  0
   40.7760   31.7800   42.8480 H   0  0  0  0  0  0  0  0  0  0  0  0
   35.1170   30.0030   46.9450 C   0  0  0  0  0  0  0  0  0  0  0  0
   34.4980   30.6600   47.8670 O   0  0  0  0  0  0  0  0  0  0  0  0
   36.5970   30.0880   46.8660 N   0  0  0  0  0  0  0  0  0  0  0  0
   37.0970   29.5030   46.1680 H   0  0  0  0  0  0  0  0  0  0  0  0
   34.4750   29.1850   45.9690 O   0  0  0  0  0  0  0  0  0  0  0  0
   33.2520   29.5640   45.4490 C   0  0  0  0  0  0  0  0  0  0  0  0
   33.3000   30.5630   44.6670 O   0  0  0  0  0  0  0  0  0  0  0  0
   31.8960   28.9990   45.6590 C   0  0  0  0  0  0  0  0  0  0  0  0
   31.2680   28.4580   44.5360 C   0  0  0  0  0  0  0  0  0  0  0  0
   31.4370   28.2960   43.4760 H   0  0  0  0  0  0  0  0  0  0  0  0
   29.6760   27.8870   45.2230 S   0  0  0  0  0  0  0  0  0  0  0  0
   30.1380   28.4900   46.9540 C   0  0  0  0  0  0  0  0  0  0  0  0
   29.6860   28.5240   48.0160 H   0  0  0  0  0  0  0  0  0  0  0  0
   31.1850   28.9240   46.7620 N   0  0  0  0  0  0  0  0  0  0  0  0
  1  6  2  0  0  0  0
  1  2  1  0  0  0  0
  2  3  2  0  0  0  0
  3  4  1  0  0  0  0
  3  8  1  0  0  0  0
  4  9  1  0  0  0  0
  5 10  1  0  0  0  0
  5  4  2  0  0  0  0
  6  5  1  0  0  0  0
  7  2  1  0  0  0  0
 11 12  1  0  0  0  0
 11 17  1  0  0  0  0
 12  1  1  0  0  0  0
 13 18  1  0  0  0  0
 13 12  2  0  0  0  0
 14 13  1  0  0  0  0
 15 14  2  0  0  0  0
 15 16  1  0  0  0  0
 16 11  2  0  0  0  0
 19 15  1  0  0  0  0
 20 21  2  0  0  0  0
 22 20  1  0  0  0  0
 22  6  1  0  0  0  0
 23 22  1  0  0  0  0
 24 20  1  0  0  0  0
 25 27  1  0  0  0  0
 25 24  1  0  0  0  0
 26 25  2  0  0  0  0
 27 33  1  0  0  0  0
 28 30  1  0  0  0  0
 28 27  2  0  0  0  0
 29 28  1  0  0  0  0
 30 31  1  0  0  0  0
 31 32  1  0  0  0  0
 33 31  2  0  0  0  0
M  END
>  <minimizedAffinity>
-5.28409624

>  <minimizedRMSD>
0.11961285

$$$$
