
 OpenBabel03272500563D

 33 35  0  0  0  0  0  0  0  0999 V2000
   38.1000   31.8850   47.4250 C   0  0  0  0  0  0  0  0  0  0  0  0
   38.5600   32.8050   48.3290 C   0  0  0  0  0  0  0  0  0  0  0  0
   38.0560   32.8720   49.6240 C   0  0  0  0  0  0  0  0  0  0  0  0
   37.0170   31.9270   49.9910 C   0  0  0  0  0  0  0  0  0  0  0  0
   36.6060   31.0410   49.0450 C   0  0  0  0  0  0  0  0  0  0  0  0
   37.0930   30.9810   47.7990 C   0  0  0  0  0  0  0  0  0  0  0  0
   39.3450   33.5320   48.0830 H   0  0  0  0  0  0  0  0  0  0  0  0
   38.4500   33.6160   50.3030 H   0  0  0  0  0  0  0  0  0  0  0  0
   36.7290   32.0940   51.0060 H   0  0  0  0  0  0  0  0  0  0  0  0
   35.8640   30.4320   49.5360 H   0  0  0  0  0  0  0  0  0  0  0  0
   40.0070   31.2760   46.0130 C   0  0  0  0  0  0  0  0  0  0  0  0
   38.7430   31.9220   46.1280 C   0  0  0  0  0  0  0  0  0  0  0  0
   38.2800   32.5050   44.9740 C   0  0  0  0  0  0  0  0  0  0  0  0
   38.9930   32.4480   43.8390 N   0  0  0  0  0  0  0  0  0  0  0  0
   40.1760   31.8370   43.7500 C   0  0  0  0  0  0  0  0  0  0  0  0
   40.6690   31.2590   44.8400 N   0  0  0  0  0  0  0  0  0  0  0  0
   40.4290   30.7930   46.9020 H   0  0  0  0  0  0  0  0  0  0  0  0
   37.3210   32.9960   45.0610 H   0  0  0  0  0  0  0  0  0  0  0  0
   40.7730   31.7770   42.8460 H   0  0  0  0  0  0  0  0  0  0  0  0
   35.1310   30.0020   46.9510 C   0  0  0  0  0  0  0  0  0  0  0  0
   34.5080   30.6690   47.8640 O   0  0  0  0  0  0  0  0  0  0  0  0
   36.6120   30.0820   46.8810 N   0  0  0  0  0  0  0  0  0  0  0  0
   37.1140   29.4900   46.1910 H   0  0  0  0  0  0  0  0  0  0  0  0
   34.4930   29.1760   45.9790 O   0  0  0  0  0  0  0  0  0  0  0  0
   33.4060   29.6570   45.2730 C   0  0  0  0  0  0  0  0  0  0  0  0
   33.6850   30.5660   44.4330 O   0  0  0  0  0  0  0  0  0  0  0  0
   31.9700   29.2870   45.3410 C   0  0  0  0  0  0  0  0  0  0  0  0
   31.5510   28.2690   44.4840 C   0  0  0  0  0  0  0  0  0  0  0  0
   31.9380   27.6010   43.7210 H   0  0  0  0  0  0  0  0  0  0  0  0
   29.7750   28.1340   44.8890 S   0  0  0  0  0  0  0  0  0  0  0  0
   29.9020   29.5090   46.1790 C   0  0  0  0  0  0  0  0  0  0  0  0
   29.2240   30.0710   46.9260 H   0  0  0  0  0  0  0  0  0  0  0  0
   31.0180   29.7780   46.1020 N   0  0  0  0  0  0  0  0  0  0  0  0
  1  6  2  0  0  0  0
  1  2  1  0  0  0  0
  2  3  2  0  0  0  0
  3  4  1  0  0  0  0
  3  8  1  0  0  0  0
  4  9  1  0  0  0  0
  5 10  1  0  0  0  0
  5  4  2  0  0  0  0
  6  5  1  0  0  0  0
  7  2  1  0  0  0  0
 11 12  1  0  0  0  0
 11 17  1  0  0  0  0
 12  1  1  0  0  0  0
 13 18  1  0  0  0  0
 13 12  2  0  0  0  0
 14 13  1  0  0  0  0
 15 14  2  0  0  0  0
 15 16  1  0  0  0  0
 16 11  2  0  0  0  0
 19 15  1  0  0  0  0
 20 21  2  0  0  0  0
 22 20  1  0  0  0  0
 22  6  1  0  0  0  0
 23 22  1  0  0  0  0
 24 20  1  0  0  0  0
 25 27  1  0  0  0  0
 25 24  1  0  0  0  0
 26 25  2  0  0  0  0
 27 33  1  0  0  0  0
 28 30  1  0  0  0  0
 28 27  2  0  0  0  0
 29 28  1  0  0  0  0
 30 31  1  0  0  0  0
 31 32  1  0  0  0  0
 33 31  2  0  0  0  0
M  END
>  <minimizedAffinity>
-5.32320023

>  <minimizedRMSD>
0.206530482

$$$$
