
 OpenBabel03272507433D

 39 42  0  0  0  0  0  0  0  0999 V2000
   37.2410   25.5420   32.4360 O   0  0  0  0  0  0  0  0  0  0  0  0
   37.9600   24.9350   34.7170 C   0  0  0  0  0  0  0  0  0  0  0  0
   37.5960   25.8440   33.7320 C   0  0  0  0  0  0  0  0  0  0  0  0
   37.5660   27.1960   34.0140 C   0  0  0  0  0  0  0  0  0  0  0  0
   37.9000   27.6480   35.2820 C   0  0  0  0  0  0  0  0  0  0  0  0
   38.2620   26.7400   36.2590 C   0  0  0  0  0  0  0  0  0  0  0  0
   38.2810   25.4020   35.9440 C   0  0  0  0  0  0  0  0  0  0  0  0
   37.2930   27.9590   33.2970 H   0  0  0  0  0  0  0  0  0  0  0  0
   37.8900   28.6820   35.5420 H   0  0  0  0  0  0  0  0  0  0  0  0
   38.5230   27.0920   37.2490 H   0  0  0  0  0  0  0  0  0  0  0  0
   38.6710   24.4350   37.0030 C   0  0  0  0  0  0  0  0  0  0  0  0
   38.1040   24.2010   38.2310 C   0  0  0  0  0  0  0  0  0  0  0  0
   38.8450   23.1950   38.8440 C   0  0  0  0  0  0  0  0  0  0  0  0
   39.8320   22.8760   37.9330 C   0  0  0  0  0  0  0  0  0  0  0  0
   39.7070   23.6260   36.8510 O   0  0  0  0  0  0  0  0  0  0  0  0
   37.2300   24.7600   38.5690 H   0  0  0  0  0  0  0  0  0  0  0  0
   38.6160   22.8080   39.8320 H   0  0  0  0  0  0  0  0  0  0  0  0
   40.5770   22.1190   38.1200 H   0  0  0  0  0  0  0  0  0  0  0  0
   37.9760   22.4450   34.0700 N   0  0  0  0  0  0  0  0  0  0  0  0
   37.9660   23.5600   34.3480 C   0  0  0  0  0  0  0  0  0  0  0  0
   38.0360   25.6990   31.3590 C   0  0  0  0  0  0  0  0  0  0  0  0
   38.2970   24.5050   30.6910 C   0  0  0  0  0  0  0  0  0  0  0  0
   39.0880   24.4550   29.5710 C   0  0  0  0  0  0  0  0  0  0  0  0
   39.6150   25.6290   29.1280 N   0  0  0  0  0  0  0  0  0  0  0  0
   39.3560   26.7990   29.7850 C   0  0  0  0  0  0  0  0  0  0  0  0
   38.5900   26.8120   30.8640 N   0  0  0  0  0  0  0  0  0  0  0  0
   39.3310   23.5680   29.0060 H   0  0  0  0  0  0  0  0  0  0  0  0
   39.7790   27.7270   29.4260 H   0  0  0  0  0  0  0  0  0  0  0  0
   36.4180   22.9300   30.9580 C   0  0  0  0  0  0  0  0  0  0  0  0
   35.3830   23.6930   30.7060 O   0  0  0  0  0  0  0  0  0  0  0  0
   37.7990   23.2390   31.0550 N   0  0  0  0  0  0  0  0  0  0  0  0
   38.4500   22.5080   31.4060 H   0  0  0  0  0  0  0  0  0  0  0  0
   36.0500   21.4960   31.1740 C   0  0  0  0  0  0  0  0  0  0  0  0
   35.1130   21.2680   32.1330 C   0  0  0  0  0  0  0  0  0  0  0  0
   34.4630   21.7390   32.8700 H   0  0  0  0  0  0  0  0  0  0  0  0
   34.8890   19.4330   32.1500 S   0  0  0  0  0  0  0  0  0  0  0  0
   36.1990   19.2940   30.7570 C   0  0  0  0  0  0  0  0  0  0  0  0
   36.8780   18.5680   29.9600 H   0  0  0  0  0  0  0  0  0  0  0  0
   36.4670   20.3890   30.6060 N   0  0  0  0  0  0  0  0  0  0  0  0
  1  3  1  0  0  0  0
  2  7  1  0  0  0  0
  3  4  1  0  0  0  0
  3  2  2  0  0  0  0
  4  5  2  0  0  0  0
  5  9  1  0  0  0  0
  5  6  1  0  0  0  0
  6 10  1  0  0  0  0
  7  6  2  0  0  0  0
  7 11  1  0  0  0  0
  8  4  1  0  0  0  0
 11 12  2  0  0  0  0
 12 16  1  0  0  0  0
 12 13  1  0  0  0  0
 13 17  1  0  0  0  0
 14 18  1  0  0  0  0
 14 13  2  0  0  0  0
 15 11  1  0  0  0  0
 15 14  1  0  0  0  0
 19 20  3  0  0  0  0
 20  2  1  0  0  0  0
 21  1  1  0  0  0  0
 22 31  1  0  0  0  0
 22 21  2  0  0  0  0
 23 22  1  0  0  0  0
 24 23  2  0  0  0  0
 24 25  1  0  0  0  0
 25 26  2  0  0  0  0
 26 21  1  0  0  0  0
 27 23  1  0  0  0  0
 28 25  1  0  0  0  0
 29 31  1  0  0  0  0
 29 33  1  0  0  0  0
 30 29  2  0  0  0  0
 31 32  1  0  0  0  0
 33 34  2  0  0  0  0
 34 36  1  0  0  0  0
 34 35  1  0  0  0  0
 37 36  1  0  0  0  0
 38 37  1  0  0  0  0
 39 37  2  0  0  0  0
 39 33  1  0  0  0  0
M  END
>  <minimizedAffinity>
-5.83651876

$$$$

 OpenBabel03272507433D

 39 42  0  0  0  0  0  0  0  0999 V2000
   37.0310   27.0390   33.2100 O   0  0  0  0  0  0  0  0  0  0  0  0
   38.0630   25.2980   34.6210 C   0  0  0  0  0  0  0  0  0  0  0  0
   37.4110   25.7430   33.4790 C   0  0  0  0  0  0  0  0  0  0  0  0
   37.0820   24.8500   32.4770 C   0  0  0  0  0  0  0  0  0  0  0  0
   37.4030   23.5080   32.6100 C   0  0  0  0  0  0  0  0  0  0  0  0
   38.0530   23.0690   33.7480 C   0  0  0  0  0  0  0  0  0  0  0  0
   38.3650   23.9840   34.7260 C   0  0  0  0  0  0  0  0  0  0  0  0
   36.5740   25.1260   31.5620 H   0  0  0  0  0  0  0  0  0  0  0  0
   37.1690   22.7850   31.8620 H   0  0  0  0  0  0  0  0  0  0  0  0
   38.3050   22.0210   33.8540 H   0  0  0  0  0  0  0  0  0  0  0  0
   39.0640   23.5010   35.9450 C   0  0  0  0  0  0  0  0  0  0  0  0
   40.3530   23.0550   36.1000 C   0  0  0  0  0  0  0  0  0  0  0  0
   40.5160   22.7170   37.4410 C   0  0  0  0  0  0  0  0  0  0  0  0
   39.2930   22.9840   38.0240 C   0  0  0  0  0  0  0  0  0  0  0  0
   38.4510   23.4480   37.1160 O   0  0  0  0  0  0  0  0  0  0  0  0
   41.0450   23.0130   35.2580 H   0  0  0  0  0  0  0  0  0  0  0  0
   41.4450   22.3330   37.8470 H   0  0  0  0  0  0  0  0  0  0  0  0
   39.0990   22.8230   39.0720 H   0  0  0  0  0  0  0  0  0  0  0  0
   38.5970   27.0820   36.3960 N   0  0  0  0  0  0  0  0  0  0  0  0
   38.3670   26.2780   35.6070 C   0  0  0  0  0  0  0  0  0  0  0  0
   37.3090   27.7070   32.0720 C   0  0  0  0  0  0  0  0  0  0  0  0
   36.2490   28.4900   31.6220 C   0  0  0  0  0  0  0  0  0  0  0  0
   36.3360   29.2460   30.4800 C   0  0  0  0  0  0  0  0  0  0  0  0
   37.5090   29.2030   29.7920 N   0  0  0  0  0  0  0  0  0  0  0  0
   38.5480   28.4330   30.2370 C   0  0  0  0  0  0  0  0  0  0  0  0
   38.4320   27.7160   31.3430 N   0  0  0  0  0  0  0  0  0  0  0  0
   35.5570   29.8720   30.0750 H   0  0  0  0  0  0  0  0  0  0  0  0
   39.4770   28.4050   29.6850 H   0  0  0  0  0  0  0  0  0  0  0  0
   34.7870   29.5520   33.3010 C   0  0  0  0  0  0  0  0  0  0  0  0
   35.6320   30.3070   33.9610 O   0  0  0  0  0  0  0  0  0  0  0  0
   34.9990   28.6150   32.2580 N   0  0  0  0  0  0  0  0  0  0  0  0
   34.2060   28.0100   31.9630 H   0  0  0  0  0  0  0  0  0  0  0  0
   33.3710   29.7300   33.7450 C   0  0  0  0  0  0  0  0  0  0  0  0
   32.4390   29.7340   32.7540 C   0  0  0  0  0  0  0  0  0  0  0  0
   32.2870   29.6530   31.6780 H   0  0  0  0  0  0  0  0  0  0  0  0
   30.8240   29.9700   33.6210 S   0  0  0  0  0  0  0  0  0  0  0  0
   31.7660   30.0260   35.2900 C   0  0  0  0  0  0  0  0  0  0  0  0
   31.7420   30.1430   36.5590 H   0  0  0  0  0  0  0  0  0  0  0  0
   32.8380   29.8890   34.9340 N   0  0  0  0  0  0  0  0  0  0  0  0
  1  3  1  0  0  0  0
  2  7  1  0  0  0  0
  2 20  1  0  0  0  0
  3  2  2  0  0  0  0
  4  5  2  0  0  0  0
  4  3  1  0  0  0  0
  5  6  1  0  0  0  0
  6 10  1  0  0  0  0
  6  7  2  0  0  0  0
  7 11  1  0  0  0  0
  8  4  1  0  0  0  0
  9  5  1  0  0  0  0
 11 12  2  0  0  0  0
 11 15  1  0  0  0  0
 12 13  1  0  0  0  0
 13 17  1  0  0  0  0
 13 14  2  0  0  0  0
 14 18  1  0  0  0  0
 15 14  1  0  0  0  0
 16 12  1  0  0  0  0
 20 19  3  0  0  0  0
 21  1  1  0  0  0  0
 22 21  1  0  0  0  0
 22 31  1  0  0  0  0
 23 22  2  0  0  0  0
 24 25  2  0  0  0  0
 24 23  1  0  0  0  0
 25 26  1  0  0  0  0
 26 21  2  0  0  0  0
 27 23  1  0  0  0  0
 28 25  1  0  0  0  0
 29 33  1  0  0  0  0
 29 30  2  0  0  0  0
 31 29  1  0  0  0  0
 32 31  1  0  0  0  0
 33 39  1  0  0  0  0
 34 36  1  0  0  0  0
 34 33  2  0  0  0  0
 35 34  1  0  0  0  0
 36 37  1  0  0  0  0
 37 38  1  0  0  0  0
 39 37  2  0  0  0  0
M  END
>  <minimizedAffinity>
-5.40406561

$$$$

 OpenBabel03272507433D

 39 42  0  0  0  0  0  0  0  0999 V2000
   38.2050   24.1530   32.8760 O   0  0  0  0  0  0  0  0  0  0  0  0
   37.4020   26.2300   31.8160 C   0  0  0  0  0  0  0  0  0  0  0  0
   37.2820   24.8940   32.1730 C   0  0  0  0  0  0  0  0  0  0  0  0
   36.1530   24.1810   31.8180 C   0  0  0  0  0  0  0  0  0  0  0  0
   35.1370   24.7990   31.1060 C   0  0  0  0  0  0  0  0  0  0  0  0
   35.2600   26.1300   30.7530 C   0  0  0  0  0  0  0  0  0  0  0  0
   36.3970   26.8090   31.1220 C   0  0  0  0  0  0  0  0  0  0  0  0
   35.9930   23.1380   32.0620 H   0  0  0  0  0  0  0  0  0  0  0  0
   34.2490   24.2870   30.8120 H   0  0  0  0  0  0  0  0  0  0  0  0
   34.4670   26.6140   30.1970 H   0  0  0  0  0  0  0  0  0  0  0  0
   36.5180   28.2400   30.7380 C   0  0  0  0  0  0  0  0  0  0  0  0
   36.0660   29.3640   31.3830 C   0  0  0  0  0  0  0  0  0  0  0  0
   36.4340   30.4620   30.6100 C   0  0  0  0  0  0  0  0  0  0  0  0
   37.0980   29.9240   29.5250 C   0  0  0  0  0  0  0  0  0  0  0  0
   37.1330   28.6060   29.6250 O   0  0  0  0  0  0  0  0  0  0  0  0
   35.5250   29.2980   32.3290 H   0  0  0  0  0  0  0  0  0  0  0  0
   36.2020   31.4850   30.8850 H   0  0  0  0  0  0  0  0  0  0  0  0
   37.5100   30.5300   28.7350 H   0  0  0  0  0  0  0  0  0  0  0  0
   39.5490   27.4350   32.5620 N   0  0  0  0  0  0  0  0  0  0  0  0
   38.5940   26.8960   32.2180 C   0  0  0  0  0  0  0  0  0  0  0  0
   38.1430   23.8910   34.1980 C   0  0  0  0  0  0  0  0  0  0  0  0
   38.0920   22.5290   34.4860 C   0  0  0  0  0  0  0  0  0  0  0  0
   38.0240   22.0600   35.7730 C   0  0  0  0  0  0  0  0  0  0  0  0
   38.0090   22.9820   36.7730 N   0  0  0  0  0  0  0  0  0  0  0  0
   38.0590   24.3180   36.4860 C   0  0  0  0  0  0  0  0  0  0  0  0
   38.1240   24.7380   35.2330 N   0  0  0  0  0  0  0  0  0  0  0  0
   37.9820   21.0230   36.0670 H   0  0  0  0  0  0  0  0  0  0  0  0
   38.0470   25.0450   37.2870 H   0  0  0  0  0  0  0  0  0  0  0  0
   36.9130   20.9150   33.0410 C   0  0  0  0  0  0  0  0  0  0  0  0
   35.6680   21.0640   33.4240 O   0  0  0  0  0  0  0  0  0  0  0  0
   38.1110   21.4910   33.5340 N   0  0  0  0  0  0  0  0  0  0  0  0
   39.0200   21.1320   33.1790 H   0  0  0  0  0  0  0  0  0  0  0  0
   37.0630   19.9740   31.8880 C   0  0  0  0  0  0  0  0  0  0  0  0
   36.3780   20.3100   30.7620 C   0  0  0  0  0  0  0  0  0  0  0  0
   35.7080   21.0450   30.3160 H   0  0  0  0  0  0  0  0  0  0  0  0
   36.7700   18.9690   29.5510 S   0  0  0  0  0  0  0  0  0  0  0  0
   37.8680   18.1340   30.8820 C   0  0  0  0  0  0  0  0  0  0  0  0
   38.6400   17.1800   31.2250 H   0  0  0  0  0  0  0  0  0  0  0  0
   37.7430   18.8600   31.7490 N   0  0  0  0  0  0  0  0  0  0  0  0
  1 21  1  0  0  0  0
  2  3  1  0  0  0  0
  2 20  1  0  0  0  0
  3  1  1  0  0  0  0
  4  8  1  0  0  0  0
  4  3  2  0  0  0  0
  5  4  1  0  0  0  0
  6  5  2  0  0  0  0
  6  7  1  0  0  0  0
  7  2  2  0  0  0  0
  9  5  1  0  0  0  0
 10  6  1  0  0  0  0
 11  7  1  0  0  0  0
 11 12  2  0  0  0  0
 12 16  1  0  0  0  0
 13 17  1  0  0  0  0
 13 12  1  0  0  0  0
 14 15  1  0  0  0  0
 14 13  2  0  0  0  0
 15 11  1  0  0  0  0
 18 14  1  0  0  0  0
 20 19  3  0  0  0  0
 21 22  2  0  0  0  0
 21 26  1  0  0  0  0
 22 23  1  0  0  0  0
 23 27  1  0  0  0  0
 23 24  2  0  0  0  0
 25 24  1  0  0  0  0
 25 28  1  0  0  0  0
 26 25  2  0  0  0  0
 29 30  2  0  0  0  0
 29 31  1  0  0  0  0
 31 22  1  0  0  0  0
 32 31  1  0  0  0  0
 33 29  1  0  0  0  0
 34 33  2  0  0  0  0
 35 34  1  0  0  0  0
 36 34  1  0  0  0  0
 36 37  1  0  0  0  0
 37 38  1  0  0  0  0
 37 39  2  0  0  0  0
 39 33  1  0  0  0  0
M  END
>  <minimizedAffinity>
-5.38074064

$$$$

 OpenBabel03272507433D

 39 42  0  0  0  0  0  0  0  0999 V2000
   36.6240   26.7330   32.6370 O   0  0  0  0  0  0  0  0  0  0  0  0
   38.0110   25.3600   34.1460 C   0  0  0  0  0  0  0  0  0  0  0  0
   37.3470   26.5270   33.7910 C   0  0  0  0  0  0  0  0  0  0  0  0
   37.3740   27.6230   34.6310 C   0  0  0  0  0  0  0  0  0  0  0  0
   38.0660   27.5600   35.8320 C   0  0  0  0  0  0  0  0  0  0  0  0
   38.7250   26.3970   36.1820 C   0  0  0  0  0  0  0  0  0  0  0  0
   38.6770   25.3250   35.3210 C   0  0  0  0  0  0  0  0  0  0  0  0
   36.8810   28.5620   34.4190 H   0  0  0  0  0  0  0  0  0  0  0  0
   38.1120   28.3810   36.5090 H   0  0  0  0  0  0  0  0  0  0  0  0
   39.2660   26.3460   37.1180 H   0  0  0  0  0  0  0  0  0  0  0  0
   39.3900   24.0800   35.7080 C   0  0  0  0  0  0  0  0  0  0  0  0
   38.9830   23.0510   36.5200 C   0  0  0  0  0  0  0  0  0  0  0  0
   40.0180   22.1210   36.5610 C   0  0  0  0  0  0  0  0  0  0  0  0
   41.0050   22.6550   35.7570 C   0  0  0  0  0  0  0  0  0  0  0  0
   40.6080   23.8160   35.2640 O   0  0  0  0  0  0  0  0  0  0  0  0
   38.0030   23.0590   36.9990 H   0  0  0  0  0  0  0  0  0  0  0  0
   39.9660   21.2010   37.1330 H   0  0  0  0  0  0  0  0  0  0  0  0
   41.9490   22.1610   35.5850 H   0  0  0  0  0  0  0  0  0  0  0  0
   37.8810   23.3870   32.5000 N   0  0  0  0  0  0  0  0  0  0  0  0
   37.9360   24.2760   33.2270 C   0  0  0  0  0  0  0  0  0  0  0  0
   36.9080   27.6610   31.7010 C   0  0  0  0  0  0  0  0  0  0  0  0
   35.9200   28.6350   31.5750 C   0  0  0  0  0  0  0  0  0  0  0  0
   36.0230   29.6650   30.6750 C   0  0  0  0  0  0  0  0  0  0  0  0
   37.1400   29.7050   29.8990 N   0  0  0  0  0  0  0  0  0  0  0  0
   38.1080   28.7480   30.0250 C   0  0  0  0  0  0  0  0  0  0  0  0
   37.9770   27.7660   30.9030 N   0  0  0  0  0  0  0  0  0  0  0  0
   35.2980   30.4500   30.5260 H   0  0  0  0  0  0  0  0  0  0  0  0
   38.9930   28.7870   29.4050 H   0  0  0  0  0  0  0  0  0  0  0  0
   34.5700   29.6330   33.3830 C   0  0  0  0  0  0  0  0  0  0  0  0
   35.4290   30.4440   33.9490 O   0  0  0  0  0  0  0  0  0  0  0  0
   34.7320   28.6960   32.3310 N   0  0  0  0  0  0  0  0  0  0  0  0
   33.9510   28.0420   32.1200 H   0  0  0  0  0  0  0  0  0  0  0  0
   33.1960   29.7350   33.9630 C   0  0  0  0  0  0  0  0  0  0  0  0
   32.1730   29.5040   33.0980 C   0  0  0  0  0  0  0  0  0  0  0  0
   31.9200   29.2520   32.0680 H   0  0  0  0  0  0  0  0  0  0  0  0
   30.6400   29.7050   34.1110 S   0  0  0  0  0  0  0  0  0  0  0  0
   31.7370   30.0960   35.6330 C   0  0  0  0  0  0  0  0  0  0  0  0
   31.8310   30.3930   36.8690 H   0  0  0  0  0  0  0  0  0  0  0  0
   32.7750   30.0130   35.1750 N   0  0  0  0  0  0  0  0  0  0  0  0
  1  3  1  0  0  0  0
  2  7  1  0  0  0  0
  3  2  2  0  0  0  0
  3  4  1  0  0  0  0
  4  5  2  0  0  0  0
  5  6  1  0  0  0  0
  5  9  1  0  0  0  0
  6 10  1  0  0  0  0
  7 11  1  0  0  0  0
  7  6  2  0  0  0  0
  8  4  1  0  0  0  0
 11 12  2  0  0  0  0
 12 13  1  0  0  0  0
 12 16  1  0  0  0  0
 13 17  1  0  0  0  0
 14 13  2  0  0  0  0
 15 11  1  0  0  0  0
 15 14  1  0  0  0  0
 18 14  1  0  0  0  0
 19 20  3  0  0  0  0
 20  2  1  0  0  0  0
 21  1  1  0  0  0  0
 22 21  1  0  0  0  0
 22 31  1  0  0  0  0
 23 22  2  0  0  0  0
 24 25  2  0  0  0  0
 24 23  1  0  0  0  0
 25 26  1  0  0  0  0
 26 21  2  0  0  0  0
 27 23  1  0  0  0  0
 28 25  1  0  0  0  0
 29 30  2  0  0  0  0
 29 33  1  0  0  0  0
 31 29  1  0  0  0  0
 32 31  1  0  0  0  0
 33 39  1  0  0  0  0
 34 33  2  0  0  0  0
 34 36  1  0  0  0  0
 35 34  1  0  0  0  0
 36 37  1  0  0  0  0
 37 38  1  0  0  0  0
 39 37  2  0  0  0  0
M  END
>  <minimizedAffinity>
-5.35180855

$$$$

 OpenBabel03272507433D

 39 42  0  0  0  0  0  0  0  0999 V2000
   36.9210   26.3270   32.3810 O   0  0  0  0  0  0  0  0  0  0  0  0
   38.1520   25.2270   34.2150 C   0  0  0  0  0  0  0  0  0  0  0  0
   37.4880   26.3000   33.6360 C   0  0  0  0  0  0  0  0  0  0  0  0
   37.3460   27.4840   34.3330 C   0  0  0  0  0  0  0  0  0  0  0  0
   37.8680   27.6030   35.6130 C   0  0  0  0  0  0  0  0  0  0  0  0
   38.5280   26.5320   36.1850 C   0  0  0  0  0  0  0  0  0  0  0  0
   38.6510   25.3690   35.4630 C   0  0  0  0  0  0  0  0  0  0  0  0
   36.8420   28.3600   33.9450 H   0  0  0  0  0  0  0  0  0  0  0  0
   37.7810   28.4980   36.1860 H   0  0  0  0  0  0  0  0  0  0  0  0
   38.9360   26.6240   37.1840 H   0  0  0  0  0  0  0  0  0  0  0  0
   39.3630   24.2240   36.0880 C   0  0  0  0  0  0  0  0  0  0  0  0
   38.9320   23.3380   37.0450 C   0  0  0  0  0  0  0  0  0  0  0  0
   39.9770   22.4530   37.2910 C   0  0  0  0  0  0  0  0  0  0  0  0
   40.9950   22.8660   36.4540 C   0  0  0  0  0  0  0  0  0  0  0  0
   40.6050   23.9170   35.7530 O   0  0  0  0  0  0  0  0  0  0  0  0
   37.9280   23.4050   37.4700 H   0  0  0  0  0  0  0  0  0  0  0  0
   39.9110   21.6430   38.0090 H   0  0  0  0  0  0  0  0  0  0  0  0
   41.9530   22.3720   36.4120 H   0  0  0  0  0  0  0  0  0  0  0  0
   38.3200   23.0850   32.7980 N   0  0  0  0  0  0  0  0  0  0  0  0
   38.2560   24.0420   33.4330 C   0  0  0  0  0  0  0  0  0  0  0  0
   37.4780   26.8960   31.2930 C   0  0  0  0  0  0  0  0  0  0  0  0
   36.6780   27.8810   30.7190 C   0  0  0  0  0  0  0  0  0  0  0  0
   37.0690   28.5770   29.6020 C   0  0  0  0  0  0  0  0  0  0  0  0
   38.2810   28.2660   29.0670 N   0  0  0  0  0  0  0  0  0  0  0  0
   39.0630   27.2990   29.6330 C   0  0  0  0  0  0  0  0  0  0  0  0
   38.6570   26.6460   30.7100 N   0  0  0  0  0  0  0  0  0  0  0  0
   36.5020   29.3500   29.1080 H   0  0  0  0  0  0  0  0  0  0  0  0
   40.0250   27.0580   29.2010 H   0  0  0  0  0  0  0  0  0  0  0  0
   35.2560   29.4740   31.9540 C   0  0  0  0  0  0  0  0  0  0  0  0
   36.1440   30.2830   32.4790 O   0  0  0  0  0  0  0  0  0  0  0  0
   35.4160   28.2880   31.1930 N   0  0  0  0  0  0  0  0  0  0  0  0
   34.5760   27.7100   30.9870 H   0  0  0  0  0  0  0  0  0  0  0  0
   33.8470   29.9000   32.2160 C   0  0  0  0  0  0  0  0  0  0  0  0
   33.4710   31.0730   31.6400 C   0  0  0  0  0  0  0  0  0  0  0  0
   33.8010   31.9010   31.0120 H   0  0  0  0  0  0  0  0  0  0  0  0
   31.7090   31.3090   32.1490 S   0  0  0  0  0  0  0  0  0  0  0  0
   31.8050   29.6590   33.1210 C   0  0  0  0  0  0  0  0  0  0  0  0
   31.2410   28.7900   33.8620 H   0  0  0  0  0  0  0  0  0  0  0  0
   32.8790   29.3500   32.9110 N   0  0  0  0  0  0  0  0  0  0  0  0
  1  3  1  0  0  0  0
  2  7  1  0  0  0  0
  3  2  2  0  0  0  0
  3  4  1  0  0  0  0
  4  5  2  0  0  0  0
  5  6  1  0  0  0  0
  5  9  1  0  0  0  0
  6 10  1  0  0  0  0
  7 11  1  0  0  0  0
  7  6  2  0  0  0  0
  8  4  1  0  0  0  0
 11 12  2  0  0  0  0
 12 13  1  0  0  0  0
 12 16  1  0  0  0  0
 13 17  1  0  0  0  0
 14 13  2  0  0  0  0
 15 11  1  0  0  0  0
 15 14  1  0  0  0  0
 18 14  1  0  0  0  0
 19 20  3  0  0  0  0
 20  2  1  0  0  0  0
 21  1  1  0  0  0  0
 22 31  1  0  0  0  0
 22 21  1  0  0  0  0
 23 22  2  0  0  0  0
 24 23  1  0  0  0  0
 24 25  2  0  0  0  0
 25 26  1  0  0  0  0
 26 21  2  0  0  0  0
 27 23  1  0  0  0  0
 28 25  1  0  0  0  0
 29 33  1  0  0  0  0
 29 30  2  0  0  0  0
 31 29  1  0  0  0  0
 32 31  1  0  0  0  0
 33 39  1  0  0  0  0
 34 36  1  0  0  0  0
 34 33  2  0  0  0  0
 35 34  1  0  0  0  0
 36 37  1  0  0  0  0
 37 38  1  0  0  0  0
 39 37  2  0  0  0  0
M  END
>  <minimizedAffinity>
-5.33776474

$$$$

 OpenBabel03272507433D

 39 42  0  0  0  0  0  0  0  0999 V2000
   37.9620   26.3790   34.3260 O   0  0  0  0  0  0  0  0  0  0  0  0
   39.6360   24.7420   35.1050 C   0  0  0  0  0  0  0  0  0  0  0  0
   39.2510   25.9730   34.5890 C   0  0  0  0  0  0  0  0  0  0  0  0
   40.2050   26.9260   34.2880 C   0  0  0  0  0  0  0  0  0  0  0  0
   41.5480   26.6550   34.5020 C   0  0  0  0  0  0  0  0  0  0  0  0
   41.9260   25.4300   35.0160 C   0  0  0  0  0  0  0  0  0  0  0  0
   40.9510   24.5040   35.3030 C   0  0  0  0  0  0  0  0  0  0  0  0
   39.9780   27.9040   33.8840 H   0  0  0  0  0  0  0  0  0  0  0  0
   42.3160   27.3620   34.2840 H   0  0  0  0  0  0  0  0  0  0  0  0
   42.9750   25.2170   35.1830 H   0  0  0  0  0  0  0  0  0  0  0  0
   41.3690   23.1890   35.8560 C   0  0  0  0  0  0  0  0  0  0  0  0
   42.0630   22.1660   35.2580 C   0  0  0  0  0  0  0  0  0  0  0  0
   42.1990   21.1510   36.2000 C   0  0  0  0  0  0  0  0  0  0  0  0
   41.5680   21.6320   37.3310 C   0  0  0  0  0  0  0  0  0  0  0  0
   41.0850   22.8410   37.1000 O   0  0  0  0  0  0  0  0  0  0  0  0
   42.4010   22.2370   34.2220 H   0  0  0  0  0  0  0  0  0  0  0  0
   42.7100   20.2170   35.9960 H   0  0  0  0  0  0  0  0  0  0  0  0
   41.5030   21.0670   38.2470 H   0  0  0  0  0  0  0  0  0  0  0  0
   37.7490   23.0750   35.6350 N   0  0  0  0  0  0  0  0  0  0  0  0
   38.5940   23.8140   35.3880 C   0  0  0  0  0  0  0  0  0  0  0  0
   37.3880   26.3940   33.1060 C   0  0  0  0  0  0  0  0  0  0  0  0
   36.3960   27.3630   32.9780 C   0  0  0  0  0  0  0  0  0  0  0  0
   35.6930   27.5350   31.8130 C   0  0  0  0  0  0  0  0  0  0  0  0
   36.0040   26.7170   30.7700 N   0  0  0  0  0  0  0  0  0  0  0  0
   36.9790   25.7680   30.9000 C   0  0  0  0  0  0  0  0  0  0  0  0
   37.6380   25.6270   32.0390 N   0  0  0  0  0  0  0  0  0  0  0  0
   34.9140   28.2630   31.6450 H   0  0  0  0  0  0  0  0  0  0  0  0
   37.2200   25.1220   30.0660 H   0  0  0  0  0  0  0  0  0  0  0  0
   35.7600   29.6340   33.7010 C   0  0  0  0  0  0  0  0  0  0  0  0
   35.9830   30.3380   32.6180 O   0  0  0  0  0  0  0  0  0  0  0  0
   36.0000   28.2650   33.9850 N   0  0  0  0  0  0  0  0  0  0  0  0
   35.8800   27.9300   34.9620 H   0  0  0  0  0  0  0  0  0  0  0  0
   35.1470   30.4350   34.8050 C   0  0  0  0  0  0  0  0  0  0  0  0
   36.0070   31.2140   35.5140 C   0  0  0  0  0  0  0  0  0  0  0  0
   37.0480   31.5210   35.6180 H   0  0  0  0  0  0  0  0  0  0  0  0
   34.9530   32.0560   36.7780 S   0  0  0  0  0  0  0  0  0  0  0  0
   33.4280   31.1360   36.0700 C   0  0  0  0  0  0  0  0  0  0  0  0
   32.1760   30.9000   36.1060 H   0  0  0  0  0  0  0  0  0  0  0  0
   33.9110   30.5340   35.2340 N   0  0  0  0  0  0  0  0  0  0  0  0
  1  3  1  0  0  0  0
  2  7  1  0  0  0  0
  2 20  1  0  0  0  0
  3  2  2  0  0  0  0
  4  5  2  0  0  0  0
  4  3  1  0  0  0  0
  5  6  1  0  0  0  0
  6 10  1  0  0  0  0
  6  7  2  0  0  0  0
  7 11  1  0  0  0  0
  8  4  1  0  0  0  0
  9  5  1  0  0  0  0
 11 15  1  0  0  0  0
 12 11  2  0  0  0  0
 12 13  1  0  0  0  0
 13 14  2  0  0  0  0
 14 18  1  0  0  0  0
 15 14  1  0  0  0  0
 16 12  1  0  0  0  0
 17 13  1  0  0  0  0
 20 19  3  0  0  0  0
 21  1  1  0  0  0  0
 22 21  1  0  0  0  0
 22 31  1  0  0  0  0
 23 22  2  0  0  0  0
 24 25  2  0  0  0  0
 24 23  1  0  0  0  0
 25 26  1  0  0  0  0
 26 21  2  0  0  0  0
 27 23  1  0  0  0  0
 28 25  1  0  0  0  0
 29 31  1  0  0  0  0
 29 33  1  0  0  0  0
 30 29  2  0  0  0  0
 31 32  1  0  0  0  0
 33 39  1  0  0  0  0
 33 34  2  0  0  0  0
 34 35  1  0  0  0  0
 34 36  1  0  0  0  0
 37 38  1  0  0  0  0
 37 36  1  0  0  0  0
 39 37  2  0  0  0  0
M  END
>  <minimizedAffinity>
-5.26474762

$$$$

 OpenBabel03272507433D

 39 42  0  0  0  0  0  0  0  0999 V2000
   37.2690   27.4330   31.5660 O   0  0  0  0  0  0  0  0  0  0  0  0
   36.2680   29.1150   33.0670 C   0  0  0  0  0  0  0  0  0  0  0  0
   36.6670   28.6440   31.8240 C   0  0  0  0  0  0  0  0  0  0  0  0
   36.4690   29.4160   30.6950 C   0  0  0  0  0  0  0  0  0  0  0  0
   35.8710   30.6630   30.8030 C   0  0  0  0  0  0  0  0  0  0  0  0
   35.4750   31.1280   32.0430 C   0  0  0  0  0  0  0  0  0  0  0  0
   35.6880   30.3340   33.1450 C   0  0  0  0  0  0  0  0  0  0  0  0
   36.7540   29.1140   29.6960 H   0  0  0  0  0  0  0  0  0  0  0  0
   35.6990   31.2910   29.9580 H   0  0  0  0  0  0  0  0  0  0  0  0
   35.0090   32.1010   32.1280 H   0  0  0  0  0  0  0  0  0  0  0  0
   35.2580   30.8440   34.4730 C   0  0  0  0  0  0  0  0  0  0  0  0
   35.9780   31.5130   35.4310 C   0  0  0  0  0  0  0  0  0  0  0  0
   35.1170   31.7680   36.4940 C   0  0  0  0  0  0  0  0  0  0  0  0
   33.9070   31.2270   36.1070 C   0  0  0  0  0  0  0  0  0  0  0  0
   34.0180   30.6850   34.9050 O   0  0  0  0  0  0  0  0  0  0  0  0
   37.0330   31.7540   35.2850 H   0  0  0  0  0  0  0  0  0  0  0  0
   35.4240   32.2900   37.3940 H   0  0  0  0  0  0  0  0  0  0  0  0
   33.0260   31.2640   36.7270 H   0  0  0  0  0  0  0  0  0  0  0  0
   36.6940   27.5880   35.0940 N   0  0  0  0  0  0  0  0  0  0  0  0
   36.5060   28.2610   34.1810 C   0  0  0  0  0  0  0  0  0  0  0  0
   36.6190   26.2610   31.4170 C   0  0  0  0  0  0  0  0  0  0  0  0
   37.3760   25.1600   31.8110 C   0  0  0  0  0  0  0  0  0  0  0  0
   36.8900   23.8790   31.7350 C   0  0  0  0  0  0  0  0  0  0  0  0
   35.6270   23.7180   31.2570 N   0  0  0  0  0  0  0  0  0  0  0  0
   34.8870   24.8020   30.8720 C   0  0  0  0  0  0  0  0  0  0  0  0
   35.3850   26.0250   30.9570 N   0  0  0  0  0  0  0  0  0  0  0  0
   37.4200   22.9840   32.0210 H   0  0  0  0  0  0  0  0  0  0  0  0
   33.8830   24.6650   30.4930 H   0  0  0  0  0  0  0  0  0  0  0  0
   38.9640   24.8770   33.6760 C   0  0  0  0  0  0  0  0  0  0  0  0
   38.1620   24.6390   34.6850 O   0  0  0  0  0  0  0  0  0  0  0  0
   38.6850   25.2110   32.3270 N   0  0  0  0  0  0  0  0  0  0  0  0
   39.4730   25.5010   31.7120 H   0  0  0  0  0  0  0  0  0  0  0  0
   40.4110   24.7700   34.0400 C   0  0  0  0  0  0  0  0  0  0  0  0
   40.9680   25.8890   34.5730 C   0  0  0  0  0  0  0  0  0  0  0  0
   40.7790   26.9210   34.8700 H   0  0  0  0  0  0  0  0  0  0  0  0
   42.7280   25.4320   34.9040 S   0  0  0  0  0  0  0  0  0  0  0  0
   42.3680   23.6810   34.2120 C   0  0  0  0  0  0  0  0  0  0  0  0
   42.7800   22.5090   33.9280 H   0  0  0  0  0  0  0  0  0  0  0  0
   41.2680   23.7810   33.9420 N   0  0  0  0  0  0  0  0  0  0  0  0
  1  3  1  0  0  0  0
  2  7  1  0  0  0  0
  2 20  1  0  0  0  0
  3  2  2  0  0  0  0
  4  5  2  0  0  0  0
  4  3  1  0  0  0  0
  5  6  1  0  0  0  0
  6 10  1  0  0  0  0
  6  7  2  0  0  0  0
  7 11  1  0  0  0  0
  8  4  1  0  0  0  0
  9  5  1  0  0  0  0
 11 15  1  0  0  0  0
 11 12  2  0  0  0  0
 12 13  1  0  0  0  0
 13 17  1  0  0  0  0
 14 13  2  0  0  0  0
 14 18  1  0  0  0  0
 15 14  1  0  0  0  0
 16 12  1  0  0  0  0
 20 19  3  0  0  0  0
 21  1  1  0  0  0  0
 21 22  1  0  0  0  0
 22 31  1  0  0  0  0
 23 22  2  0  0  0  0
 23 27  1  0  0  0  0
 24 23  1  0  0  0  0
 25 26  1  0  0  0  0
 25 24  2  0  0  0  0
 26 21  2  0  0  0  0
 28 25  1  0  0  0  0
 29 33  1  0  0  0  0
 29 30  2  0  0  0  0
 31 29  1  0  0  0  0
 32 31  1  0  0  0  0
 33 34  2  0  0  0  0
 34 35  1  0  0  0  0
 34 36  1  0  0  0  0
 37 36  1  0  0  0  0
 38 37  1  0  0  0  0
 39 33  1  0  0  0  0
 39 37  2  0  0  0  0
M  END
>  <minimizedAffinity>
-5.25720263

$$$$

 OpenBabel03272507433D

 39 42  0  0  0  0  0  0  0  0999 V2000
   35.3360   28.6750   33.3690 O   0  0  0  0  0  0  0  0  0  0  0  0
   33.6940   30.1250   34.5030 C   0  0  0  0  0  0  0  0  0  0  0  0
   34.9820   29.6720   34.2500 C   0  0  0  0  0  0  0  0  0  0  0  0
   36.0560   30.2330   34.9130 C   0  0  0  0  0  0  0  0  0  0  0  0
   35.8500   31.2510   35.8330 C   0  0  0  0  0  0  0  0  0  0  0  0
   34.5670   31.6990   36.0810 C   0  0  0  0  0  0  0  0  0  0  0  0
   33.5210   31.1180   35.4040 C   0  0  0  0  0  0  0  0  0  0  0  0
   37.0840   29.9300   34.7670 H   0  0  0  0  0  0  0  0  0  0  0  0
   36.6500   31.7120   36.3660 H   0  0  0  0  0  0  0  0  0  0  0  0
   34.4040   32.4940   36.7990 H   0  0  0  0  0  0  0  0  0  0  0  0
   32.1450   31.6080   35.6790 C   0  0  0  0  0  0  0  0  0  0  0  0
   31.2350   31.1910   36.6200 C   0  0  0  0  0  0  0  0  0  0  0  0
   30.0930   31.9700   36.4660 C   0  0  0  0  0  0  0  0  0  0  0  0
   30.3860   32.8260   35.4230 C   0  0  0  0  0  0  0  0  0  0  0  0
   31.6080   32.5910   34.9750 O   0  0  0  0  0  0  0  0  0  0  0  0
   31.4680   30.3830   37.3160 H   0  0  0  0  0  0  0  0  0  0  0  0
   29.2090   31.8550   37.0830 H   0  0  0  0  0  0  0  0  0  0  0  0
   29.6890   33.5640   35.0590 H   0  0  0  0  0  0  0  0  0  0  0  0
   31.8040   28.9860   33.1810 N   0  0  0  0  0  0  0  0  0  0  0  0
   32.6410   29.4960   33.7810 C   0  0  0  0  0  0  0  0  0  0  0  0
   36.0480   28.8580   32.2390 C   0  0  0  0  0  0  0  0  0  0  0  0
   37.1860   28.0570   32.1720 C   0  0  0  0  0  0  0  0  0  0  0  0
   38.0420   28.0980   31.1000 C   0  0  0  0  0  0  0  0  0  0  0  0
   37.7380   28.9580   30.0910 N   0  0  0  0  0  0  0  0  0  0  0  0
   36.6200   29.7420   30.1610 C   0  0  0  0  0  0  0  0  0  0  0  0
   35.8140   29.6790   31.2090 N   0  0  0  0  0  0  0  0  0  0  0  0
   38.9380   27.5080   30.9830 H   0  0  0  0  0  0  0  0  0  0  0  0
   36.3850   30.4230   29.3540 H   0  0  0  0  0  0  0  0  0  0  0  0
   37.2550   25.7540   33.0530 C   0  0  0  0  0  0  0  0  0  0  0  0
   36.4500   25.1240   32.2340 O   0  0  0  0  0  0  0  0  0  0  0  0
   37.5910   27.1290   33.1510 N   0  0  0  0  0  0  0  0  0  0  0  0
   38.1480   27.4490   33.9680 H   0  0  0  0  0  0  0  0  0  0  0  0
   37.9180   24.8460   34.0390 C   0  0  0  0  0  0  0  0  0  0  0  0
   37.9810   23.5350   33.6810 C   0  0  0  0  0  0  0  0  0  0  0  0
   37.7250   22.8130   32.9060 H   0  0  0  0  0  0  0  0  0  0  0  0
   38.8410   22.7000   35.0870 S   0  0  0  0  0  0  0  0  0  0  0  0
   38.9710   24.3960   35.9710 C   0  0  0  0  0  0  0  0  0  0  0  0
   39.3480   25.0810   36.9770 H   0  0  0  0  0  0  0  0  0  0  0  0
   38.4640   25.0720   35.2100 N   0  0  0  0  0  0  0  0  0  0  0  0
  1  3  1  0  0  0  0
  2  7  1  0  0  0  0
  3  2  2  0  0  0  0
  3  4  1  0  0  0  0
  4  5  2  0  0  0  0
  5  6  1  0  0  0  0
  5  9  1  0  0  0  0
  6 10  1  0  0  0  0
  7 11  1  0  0  0  0
  7  6  2  0  0  0  0
  8  4  1  0  0  0  0
 11 12  2  0  0  0  0
 12 16  1  0  0  0  0
 13 12  1  0  0  0  0
 13 17  1  0  0  0  0
 14 13  2  0  0  0  0
 15 14  1  0  0  0  0
 15 11  1  0  0  0  0
 18 14  1  0  0  0  0
 19 20  3  0  0  0  0
 20  2  1  0  0  0  0
 21  1  1  0  0  0  0
 22 21  1  0  0  0  0
 22 31  1  0  0  0  0
 23 22  2  0  0  0  0
 24 25  2  0  0  0  0
 24 23  1  0  0  0  0
 25 26  1  0  0  0  0
 26 21  2  0  0  0  0
 27 23  1  0  0  0  0
 28 25  1  0  0  0  0
 29 31  1  0  0  0  0
 29 33  1  0  0  0  0
 30 29  2  0  0  0  0
 31 32  1  0  0  0  0
 33 39  1  0  0  0  0
 34 33  2  0  0  0  0
 34 36  1  0  0  0  0
 35 34  1  0  0  0  0
 36 37  1  0  0  0  0
 37 38  1  0  0  0  0
 39 37  2  0  0  0  0
M  END
>  <minimizedAffinity>
-5.21606064

$$$$

 OpenBabel03272507433D

 39 42  0  0  0  0  0  0  0  0999 V2000
   38.3340   26.5550   32.2600 O   0  0  0  0  0  0  0  0  0  0  0  0
   38.4900   25.0940   34.2430 C   0  0  0  0  0  0  0  0  0  0  0  0
   38.1820   25.3520   32.9130 C   0  0  0  0  0  0  0  0  0  0  0  0
   37.6710   24.3480   32.1140 C   0  0  0  0  0  0  0  0  0  0  0  0
   37.4650   23.0810   32.6380 C   0  0  0  0  0  0  0  0  0  0  0  0
   37.7730   22.8280   33.9610 C   0  0  0  0  0  0  0  0  0  0  0  0
   38.2790   23.8510   34.7280 C   0  0  0  0  0  0  0  0  0  0  0  0
   37.4090   24.4770   31.0720 H   0  0  0  0  0  0  0  0  0  0  0  0
   37.0730   22.2780   32.0560 H   0  0  0  0  0  0  0  0  0  0  0  0
   37.6120   21.8400   34.3720 H   0  0  0  0  0  0  0  0  0  0  0  0
   38.6060   23.5680   36.1500 C   0  0  0  0  0  0  0  0  0  0  0  0
   37.8450   23.7470   37.2790 C   0  0  0  0  0  0  0  0  0  0  0  0
   38.6090   23.3290   38.3640 C   0  0  0  0  0  0  0  0  0  0  0  0
   39.8080   22.9170   37.8160 C   0  0  0  0  0  0  0  0  0  0  0  0
   39.7800   23.0690   36.5030 O   0  0  0  0  0  0  0  0  0  0  0  0
   36.8330   24.1510   37.2240 H   0  0  0  0  0  0  0  0  0  0  0  0
   38.2520   23.3600   39.3880 H   0  0  0  0  0  0  0  0  0  0  0  0
   40.6210   22.5340   38.4110 H   0  0  0  0  0  0  0  0  0  0  0  0
   39.4150   27.0590   35.6230 N   0  0  0  0  0  0  0  0  0  0  0  0
   39.0120   26.1810   35.0010 C   0  0  0  0  0  0  0  0  0  0  0  0
   37.4050   27.5310   32.2090 C   0  0  0  0  0  0  0  0  0  0  0  0
   37.1510   27.9800   30.9160 C   0  0  0  0  0  0  0  0  0  0  0  0
   36.2380   28.9700   30.6550 C   0  0  0  0  0  0  0  0  0  0  0  0
   35.5790   29.5060   31.7180 N   0  0  0  0  0  0  0  0  0  0  0  0
   35.8310   29.0630   32.9870 C   0  0  0  0  0  0  0  0  0  0  0  0
   36.7190   28.1050   33.2040 N   0  0  0  0  0  0  0  0  0  0  0  0
   35.9930   29.3650   29.6810 H   0  0  0  0  0  0  0  0  0  0  0  0
   35.3030   29.4940   33.8260 H   0  0  0  0  0  0  0  0  0  0  0  0
   38.9510   28.0760   29.2330 C   0  0  0  0  0  0  0  0  0  0  0  0
   39.5860   29.1710   29.5730 O   0  0  0  0  0  0  0  0  0  0  0  0
   37.7650   27.4920   29.7460 N   0  0  0  0  0  0  0  0  0  0  0  0
   37.3460   26.6860   29.2390 H   0  0  0  0  0  0  0  0  0  0  0  0
   39.6140   27.3380   28.1130 C   0  0  0  0  0  0  0  0  0  0  0  0
   39.9710   26.0550   28.3840 C   0  0  0  0  0  0  0  0  0  0  0  0
   39.9740   25.2750   29.1460 H   0  0  0  0  0  0  0  0  0  0  0  0
   40.7490   25.4390   26.8240 S   0  0  0  0  0  0  0  0  0  0  0  0
   40.4290   27.1520   26.0280 C   0  0  0  0  0  0  0  0  0  0  0  0
   40.5180   27.9260   25.0190 H   0  0  0  0  0  0  0  0  0  0  0  0
   39.9260   27.6980   26.8900 N   0  0  0  0  0  0  0  0  0  0  0  0
  1  3  1  0  0  0  0
  2  7  1  0  0  0  0
  2 20  1  0  0  0  0
  3  2  2  0  0  0  0
  4  5  2  0  0  0  0
  4  3  1  0  0  0  0
  5  6  1  0  0  0  0
  6 10  1  0  0  0  0
  6  7  2  0  0  0  0
  7 11  1  0  0  0  0
  8  4  1  0  0  0  0
  9  5  1  0  0  0  0
 11 15  1  0  0  0  0
 11 12  2  0  0  0  0
 12 13  1  0  0  0  0
 13 17  1  0  0  0  0
 14 13  2  0  0  0  0
 14 18  1  0  0  0  0
 15 14  1  0  0  0  0
 16 12  1  0  0  0  0
 20 19  3  0  0  0  0
 21  1  1  0  0  0  0
 21 26  1  0  0  0  0
 22 21  2  0  0  0  0
 23 22  1  0  0  0  0
 23 24  2  0  0  0  0
 24 25  1  0  0  0  0
 25 26  2  0  0  0  0
 25 28  1  0  0  0  0
 27 23  1  0  0  0  0
 29 30  2  0  0  0  0
 29 31  1  0  0  0  0
 31 22  1  0  0  0  0
 32 31  1  0  0  0  0
 33 34  2  0  0  0  0
 33 29  1  0  0  0  0
 34 35  1  0  0  0  0
 36 34  1  0  0  0  0
 37 36  1  0  0  0  0
 37 39  2  0  0  0  0
 38 37  1  0  0  0  0
 39 33  1  0  0  0  0
M  END
>  <minimizedAffinity>
-5.20870972

$$$$
