
 OpenBabel03272507403D

 39 42  0  0  0  0  0  0  0  0999 V2000
   36.6690   32.2400   49.2100 O   0  0  0  0  0  0  0  0  0  0  0  0
   38.1910   32.2160   47.2690 C   0  0  0  0  0  0  0  0  0  0  0  0
   37.7940   32.6450   48.5280 C   0  0  0  0  0  0  0  0  0  0  0  0
   38.5570   33.5680   49.2170 C   0  0  0  0  0  0  0  0  0  0  0  0
   39.7220   34.0660   48.6520 C   0  0  0  0  0  0  0  0  0  0  0  0
   40.1130   33.6350   47.3980 C   0  0  0  0  0  0  0  0  0  0  0  0
   39.3290   32.7170   46.7410 C   0  0  0  0  0  0  0  0  0  0  0  0
   38.3090   33.9470   50.2000 H   0  0  0  0  0  0  0  0  0  0  0  0
   40.3400   34.7780   49.1490 H   0  0  0  0  0  0  0  0  0  0  0  0
   41.0210   34.0240   46.9560 H   0  0  0  0  0  0  0  0  0  0  0  0
   39.7600   32.2610   45.3930 C   0  0  0  0  0  0  0  0  0  0  0  0
   40.5670   31.2090   45.0380 C   0  0  0  0  0  0  0  0  0  0  0  0
   40.6620   31.2090   43.6500 C   0  0  0  0  0  0  0  0  0  0  0  0
   39.8920   32.2810   43.2430 C   0  0  0  0  0  0  0  0  0  0  0  0
   39.3700   32.8880   44.2950 O   0  0  0  0  0  0  0  0  0  0  0  0
   41.0050   30.5500   45.7900 H   0  0  0  0  0  0  0  0  0  0  0  0
   41.2420   30.4800   43.0950 H   0  0  0  0  0  0  0  0  0  0  0  0
   39.7650   32.5480   42.2060 H   0  0  0  0  0  0  0  0  0  0  0  0
   36.6790   30.5040   46.0840 N   0  0  0  0  0  0  0  0  0  0  0  0
   37.3510   31.2640   46.6230 C   0  0  0  0  0  0  0  0  0  0  0  0
   36.6100   31.1850   50.0480 C   0  0  0  0  0  0  0  0  0  0  0  0
   35.5390   30.3340   49.7840 C   0  0  0  0  0  0  0  0  0  0  0  0
   35.3060   29.2050   50.5280 C   0  0  0  0  0  0  0  0  0  0  0  0
   36.1700   28.9400   51.5460 N   0  0  0  0  0  0  0  0  0  0  0  0
   37.2200   29.7770   51.8010 C   0  0  0  0  0  0  0  0  0  0  0  0
   37.4160   30.8590   51.0650 N   0  0  0  0  0  0  0  0  0  0  0  0
   34.4990   28.5040   50.3800 H   0  0  0  0  0  0  0  0  0  0  0  0
   37.9020   29.5590   52.6120 H   0  0  0  0  0  0  0  0  0  0  0  0
   34.2110   29.4320   47.9120 C   0  0  0  0  0  0  0  0  0  0  0  0
   34.7020   28.2230   47.7860 O   0  0  0  0  0  0  0  0  0  0  0  0
   34.5920   30.5060   48.7550 N   0  0  0  0  0  0  0  0  0  0  0  0
   34.1600   31.4390   48.6020 H   0  0  0  0  0  0  0  0  0  0  0  0
   33.0520   29.6920   47.0030 C   0  0  0  0  0  0  0  0  0  0  0  0
   32.1280   28.6970   46.9270 C   0  0  0  0  0  0  0  0  0  0  0  0
   31.8600   27.7040   47.2890 H   0  0  0  0  0  0  0  0  0  0  0  0
   30.8540   29.3210   45.7440 S   0  0  0  0  0  0  0  0  0  0  0  0
   31.8730   30.9330   45.5470 C   0  0  0  0  0  0  0  0  0  0  0  0
   32.0140   32.0840   45.0180 H   0  0  0  0  0  0  0  0  0  0  0  0
   32.7470   30.7180   46.2440 N   0  0  0  0  0  0  0  0  0  0  0  0
  1 21  1  0  0  0  0
  2  3  1  0  0  0  0
  3  1  1  0  0  0  0
  3  4  2  0  0  0  0
  4  8  1  0  0  0  0
  5  9  1  0  0  0  0
  5  4  1  0  0  0  0
  6  5  2  0  0  0  0
  7  2  2  0  0  0  0
  7  6  1  0  0  0  0
 10  6  1  0  0  0  0
 11  7  1  0  0  0  0
 12 11  2  0  0  0  0
 12 16  1  0  0  0  0
 13 12  1  0  0  0  0
 14 13  2  0  0  0  0
 14 15  1  0  0  0  0
 15 11  1  0  0  0  0
 17 13  1  0  0  0  0
 18 14  1  0  0  0  0
 19 20  3  0  0  0  0
 20  2  1  0  0  0  0
 21 26  1  0  0  0  0
 22 21  2  0  0  0  0
 22 23  1  0  0  0  0
 23 24  2  0  0  0  0
 24 25  1  0  0  0  0
 25 28  1  0  0  0  0
 26 25  2  0  0  0  0
 27 23  1  0  0  0  0
 29 31  1  0  0  0  0
 30 29  2  0  0  0  0
 31 22  1  0  0  0  0
 32 31  1  0  0  0  0
 33 29  1  0  0  0  0
 34 33  2  0  0  0  0
 34 35  1  0  0  0  0
 36 34  1  0  0  0  0
 37 36  1  0  0  0  0
 37 39  2  0  0  0  0
 38 37  1  0  0  0  0
 39 33  1  0  0  0  0
M  END
>  <minimizedAffinity>
-5.96610355

>  <minimizedRMSD>
0.375594527

$$$$
