
 OpenBabel03272507403D

 39 42  0  0  0  0  0  0  0  0999 V2000
   36.7880   32.2820   49.2520 O   0  0  0  0  0  0  0  0  0  0  0  0
   38.2590   32.2560   47.2720 C   0  0  0  0  0  0  0  0  0  0  0  0
   37.8910   32.6930   48.5370 C   0  0  0  0  0  0  0  0  0  0  0  0
   38.6630   33.6280   49.1990 C   0  0  0  0  0  0  0  0  0  0  0  0
   39.8070   34.1330   48.5990 C   0  0  0  0  0  0  0  0  0  0  0  0
   40.1700   33.6950   47.3400 C   0  0  0  0  0  0  0  0  0  0  0  0
   39.3790   32.7640   46.7100 C   0  0  0  0  0  0  0  0  0  0  0  0
   38.4370   34.0130   50.1840 H   0  0  0  0  0  0  0  0  0  0  0  0
   40.4310   34.8550   49.0740 H   0  0  0  0  0  0  0  0  0  0  0  0
   41.0630   34.0880   46.8700 H   0  0  0  0  0  0  0  0  0  0  0  0
   39.7790   32.3000   45.3560 C   0  0  0  0  0  0  0  0  0  0  0  0
   40.6040   31.2660   44.9900 C   0  0  0  0  0  0  0  0  0  0  0  0
   40.6540   31.2490   43.5990 C   0  0  0  0  0  0  0  0  0  0  0  0
   39.8420   32.2920   43.2020 C   0  0  0  0  0  0  0  0  0  0  0  0
   39.3360   32.8990   44.2630 O   0  0  0  0  0  0  0  0  0  0  0  0
   41.0850   30.6310   45.7360 H   0  0  0  0  0  0  0  0  0  0  0  0
   41.2370   30.5280   43.0350 H   0  0  0  0  0  0  0  0  0  0  0  0
   39.6740   32.5410   42.1660 H   0  0  0  0  0  0  0  0  0  0  0  0
   36.7340   30.5200   46.1410 N   0  0  0  0  0  0  0  0  0  0  0  0
   37.4120   31.2910   46.6560 C   0  0  0  0  0  0  0  0  0  0  0  0
   36.7600   31.2330   50.0980 C   0  0  0  0  0  0  0  0  0  0  0  0
   35.7270   30.3380   49.8290 C   0  0  0  0  0  0  0  0  0  0  0  0
   35.5310   29.2060   50.5800 C   0  0  0  0  0  0  0  0  0  0  0  0
   36.3910   28.9850   51.6110 N   0  0  0  0  0  0  0  0  0  0  0  0
   37.4040   29.8660   51.8710 C   0  0  0  0  0  0  0  0  0  0  0  0
   37.5660   30.9480   51.1280 N   0  0  0  0  0  0  0  0  0  0  0  0
   34.7540   28.4730   50.4280 H   0  0  0  0  0  0  0  0  0  0  0  0
   38.0830   29.6820   52.6920 H   0  0  0  0  0  0  0  0  0  0  0  0
   34.3370   29.3350   48.0560 C   0  0  0  0  0  0  0  0  0  0  0  0
   34.7520   28.0920   48.0530 O   0  0  0  0  0  0  0  0  0  0  0  0
   34.7880   30.4630   48.7860 N   0  0  0  0  0  0  0  0  0  0  0  0
   34.4130   31.4010   48.5380 H   0  0  0  0  0  0  0  0  0  0  0  0
   33.1920   29.5730   47.1230 C   0  0  0  0  0  0  0  0  0  0  0  0
   32.2900   28.5610   47.0310 C   0  0  0  0  0  0  0  0  0  0  0  0
   32.0330   27.5620   47.3870 H   0  0  0  0  0  0  0  0  0  0  0  0
   31.0270   29.1590   45.8200 S   0  0  0  0  0  0  0  0  0  0  0  0
   32.0190   30.7900   45.6430 C   0  0  0  0  0  0  0  0  0  0  0  0
   32.1490   31.9420   45.1140 H   0  0  0  0  0  0  0  0  0  0  0  0
   32.8840   30.5920   46.3570 N   0  0  0  0  0  0  0  0  0  0  0  0
  1 21  1  0  0  0  0
  2  3  1  0  0  0  0
  3  4  2  0  0  0  0
  3  1  1  0  0  0  0
  4  8  1  0  0  0  0
  5  9  1  0  0  0  0
  5  4  1  0  0  0  0
  6  5  2  0  0  0  0
  7  2  2  0  0  0  0
  7  6  1  0  0  0  0
 10  6  1  0  0  0  0
 11  7  1  0  0  0  0
 12 11  2  0  0  0  0
 12 16  1  0  0  0  0
 13 12  1  0  0  0  0
 14 13  2  0  0  0  0
 14 15  1  0  0  0  0
 15 11  1  0  0  0  0
 17 13  1  0  0  0  0
 18 14  1  0  0  0  0
 19 20  3  0  0  0  0
 20  2  1  0  0  0  0
 21 26  1  0  0  0  0
 22 21  2  0  0  0  0
 22 23  1  0  0  0  0
 23 24  2  0  0  0  0
 24 25  1  0  0  0  0
 25 28  1  0  0  0  0
 26 25  2  0  0  0  0
 27 23  1  0  0  0  0
 29 31  1  0  0  0  0
 30 29  2  0  0  0  0
 31 22  1  0  0  0  0
 32 31  1  0  0  0  0
 33 29  1  0  0  0  0
 34 33  2  0  0  0  0
 34 35  1  0  0  0  0
 36 34  1  0  0  0  0
 37 36  1  0  0  0  0
 37 39  2  0  0  0  0
 38 37  1  0  0  0  0
 39 33  1  0  0  0  0
M  END
>  <minimizedAffinity>
-6.02074528

>  <minimizedRMSD>
0.491313338

$$$$
