
 OpenBabel03272507403D

 39 42  0  0  0  0  0  0  0  0999 V2000
   36.6680   32.2350   49.1640 O   0  0  0  0  0  0  0  0  0  0  0  0
   38.1980   32.1730   47.2300 C   0  0  0  0  0  0  0  0  0  0  0  0
   37.7970   32.6260   48.4800 C   0  0  0  0  0  0  0  0  0  0  0  0
   38.5600   33.5580   49.1560 C   0  0  0  0  0  0  0  0  0  0  0  0
   39.7280   34.0430   48.5880 C   0  0  0  0  0  0  0  0  0  0  0  0
   40.1240   33.5900   47.3440 C   0  0  0  0  0  0  0  0  0  0  0  0
   39.3410   32.6620   46.6990 C   0  0  0  0  0  0  0  0  0  0  0  0
   38.3090   33.9540   50.1310 H   0  0  0  0  0  0  0  0  0  0  0  0
   40.3470   34.7620   49.0750 H   0  0  0  0  0  0  0  0  0  0  0  0
   41.0360   33.9680   46.8990 H   0  0  0  0  0  0  0  0  0  0  0  0
   39.7760   32.1820   45.3610 C   0  0  0  0  0  0  0  0  0  0  0  0
   40.6240   31.1540   45.0300 C   0  0  0  0  0  0  0  0  0  0  0  0
   40.7040   31.1130   43.6410 C   0  0  0  0  0  0  0  0  0  0  0  0
   39.8850   32.1380   43.2100 C   0  0  0  0  0  0  0  0  0  0  0  0
   39.3480   32.7550   44.2490 O   0  0  0  0  0  0  0  0  0  0  0  0
   41.0980   30.5380   45.7970 H   0  0  0  0  0  0  0  0  0  0  0  0
   41.3090   30.3920   43.1030 H   0  0  0  0  0  0  0  0  0  0  0  0
   39.7360   32.3660   42.1670 H   0  0  0  0  0  0  0  0  0  0  0  0
   36.6870   30.4460   46.0680 N   0  0  0  0  0  0  0  0  0  0  0  0
   37.3590   31.2130   46.5970 C   0  0  0  0  0  0  0  0  0  0  0  0
   36.6000   31.1910   50.0140 C   0  0  0  0  0  0  0  0  0  0  0  0
   35.5200   30.3480   49.7620 C   0  0  0  0  0  0  0  0  0  0  0  0
   35.2780   29.2290   50.5200 C   0  0  0  0  0  0  0  0  0  0  0  0
   36.1410   28.9680   51.5390 N   0  0  0  0  0  0  0  0  0  0  0  0
   37.2000   29.7970   51.7820 C   0  0  0  0  0  0  0  0  0  0  0  0
   37.4050   30.8690   51.0330 N   0  0  0  0  0  0  0  0  0  0  0  0
   34.4640   28.5350   50.3810 H   0  0  0  0  0  0  0  0  0  0  0  0
   37.8820   29.5820   52.5940 H   0  0  0  0  0  0  0  0  0  0  0  0
   34.1890   29.4400   47.8950 C   0  0  0  0  0  0  0  0  0  0  0  0
   34.6780   28.2300   47.7740 O   0  0  0  0  0  0  0  0  0  0  0  0
   34.5740   30.5170   48.7330 N   0  0  0  0  0  0  0  0  0  0  0  0
   34.1430   31.4500   48.5760 H   0  0  0  0  0  0  0  0  0  0  0  0
   33.0310   29.6980   46.9850 C   0  0  0  0  0  0  0  0  0  0  0  0
   32.1100   28.7010   46.9080 C   0  0  0  0  0  0  0  0  0  0  0  0
   31.8440   27.7070   47.2660 H   0  0  0  0  0  0  0  0  0  0  0  0
   30.8330   29.3240   45.7240 S   0  0  0  0  0  0  0  0  0  0  0  0
   31.8480   30.9390   45.5320 C   0  0  0  0  0  0  0  0  0  0  0  0
   31.9860   32.0900   45.0050 H   0  0  0  0  0  0  0  0  0  0  0  0
   32.7220   30.7250   46.2290 N   0  0  0  0  0  0  0  0  0  0  0  0
  1 21  1  0  0  0  0
  2  3  1  0  0  0  0
  3  4  2  0  0  0  0
  3  1  1  0  0  0  0
  4  8  1  0  0  0  0
  5  9  1  0  0  0  0
  5  4  1  0  0  0  0
  6  5  2  0  0  0  0
  7  2  2  0  0  0  0
  7  6  1  0  0  0  0
 10  6  1  0  0  0  0
 11  7  1  0  0  0  0
 12 11  2  0  0  0  0
 12 16  1  0  0  0  0
 13 12  1  0  0  0  0
 14 13  2  0  0  0  0
 14 15  1  0  0  0  0
 15 11  1  0  0  0  0
 17 13  1  0  0  0  0
 18 14  1  0  0  0  0
 19 20  3  0  0  0  0
 20  2  1  0  0  0  0
 21 26  1  0  0  0  0
 22 21  2  0  0  0  0
 22 23  1  0  0  0  0
 23 24  2  0  0  0  0
 24 25  1  0  0  0  0
 25 28  1  0  0  0  0
 26 25  2  0  0  0  0
 27 23  1  0  0  0  0
 29 31  1  0  0  0  0
 30 29  2  0  0  0  0
 31 22  1  0  0  0  0
 32 31  1  0  0  0  0
 33 29  1  0  0  0  0
 34 33  2  0  0  0  0
 34 35  1  0  0  0  0
 36 34  1  0  0  0  0
 37 36  1  0  0  0  0
 37 39  2  0  0  0  0
 38 37  1  0  0  0  0
 39 33  1  0  0  0  0
M  END
>  <minimizedAffinity>
-5.95151234

>  <minimizedRMSD>
0.544262826

$$$$
