
 OpenBabel03272507413D

 39 42  0  0  0  0  0  0  0  0999 V2000
   36.6430   32.1640   49.1440 O   0  0  0  0  0  0  0  0  0  0  0  0
   38.1650   32.1300   47.2020 C   0  0  0  0  0  0  0  0  0  0  0  0
   37.7640   32.5720   48.4560 C   0  0  0  0  0  0  0  0  0  0  0  0
   38.5180   33.5110   49.1330 C   0  0  0  0  0  0  0  0  0  0  0  0
   39.6760   34.0150   48.5610 C   0  0  0  0  0  0  0  0  0  0  0  0
   40.0720   33.5720   47.3130 C   0  0  0  0  0  0  0  0  0  0  0  0
   39.2980   32.6370   46.6680 C   0  0  0  0  0  0  0  0  0  0  0  0
   38.2660   33.9010   50.1110 H   0  0  0  0  0  0  0  0  0  0  0  0
   40.2870   34.7400   49.0480 H   0  0  0  0  0  0  0  0  0  0  0  0
   40.9760   33.9640   46.8650 H   0  0  0  0  0  0  0  0  0  0  0  0
   39.7330   32.1680   45.3260 C   0  0  0  0  0  0  0  0  0  0  0  0
   40.6070   31.1650   44.9870 C   0  0  0  0  0  0  0  0  0  0  0  0
   40.6740   31.1250   43.5970 C   0  0  0  0  0  0  0  0  0  0  0  0
   39.8210   32.1250   43.1740 C   0  0  0  0  0  0  0  0  0  0  0  0
   39.2770   32.7280   44.2180 O   0  0  0  0  0  0  0  0  0  0  0  0
   41.1060   30.5640   45.7490 H   0  0  0  0  0  0  0  0  0  0  0  0
   41.2930   30.4210   43.0530 H   0  0  0  0  0  0  0  0  0  0  0  0
   39.6550   32.3480   42.1320 H   0  0  0  0  0  0  0  0  0  0  0  0
   36.6710   30.3880   46.0400 N   0  0  0  0  0  0  0  0  0  0  0  0
   37.3350   31.1620   46.5690 C   0  0  0  0  0  0  0  0  0  0  0  0
   36.6110   31.1630   50.0470 C   0  0  0  0  0  0  0  0  0  0  0  0
   35.5490   30.2830   49.8530 C   0  0  0  0  0  0  0  0  0  0  0  0
   35.3430   29.2000   50.6690 C   0  0  0  0  0  0  0  0  0  0  0  0
   36.2240   29.0110   51.6890 N   0  0  0  0  0  0  0  0  0  0  0  0
   37.2660   29.8770   51.8760 C   0  0  0  0  0  0  0  0  0  0  0  0
   37.4360   30.9130   51.0700 N   0  0  0  0  0  0  0  0  0  0  0  0
   34.5440   28.4810   50.5770 H   0  0  0  0  0  0  0  0  0  0  0  0
   37.9620   29.7200   52.6880 H   0  0  0  0  0  0  0  0  0  0  0  0
   34.2100   29.2470   48.0590 C   0  0  0  0  0  0  0  0  0  0  0  0
   34.7190   28.0410   48.0000 O   0  0  0  0  0  0  0  0  0  0  0  0
   34.5860   30.3770   48.8290 N   0  0  0  0  0  0  0  0  0  0  0  0
   34.1360   31.2920   48.6250 H   0  0  0  0  0  0  0  0  0  0  0  0
   33.0360   29.4330   47.1520 C   0  0  0  0  0  0  0  0  0  0  0  0
   33.0660   30.5480   46.3740 C   0  0  0  0  0  0  0  0  0  0  0  0
   33.6410   31.4380   46.1170 H   0  0  0  0  0  0  0  0  0  0  0  0
   31.5010   30.4830   45.3910 S   0  0  0  0  0  0  0  0  0  0  0  0
   31.0560   28.8400   46.2710 C   0  0  0  0  0  0  0  0  0  0  0  0
   30.2480   27.8670   46.4350 H   0  0  0  0  0  0  0  0  0  0  0  0
   31.9570   28.7130   46.9550 N   0  0  0  0  0  0  0  0  0  0  0  0
  1 21  1  0  0  0  0
  2  3  1  0  0  0  0
  3  4  2  0  0  0  0
  3  1  1  0  0  0  0
  4  8  1  0  0  0  0
  5  9  1  0  0  0  0
  5  4  1  0  0  0  0
  6  5  2  0  0  0  0
  7  2  2  0  0  0  0
  7  6  1  0  0  0  0
 10  6  1  0  0  0  0
 11  7  1  0  0  0  0
 12 11  2  0  0  0  0
 12 16  1  0  0  0  0
 13 12  1  0  0  0  0
 14 13  2  0  0  0  0
 14 15  1  0  0  0  0
 15 11  1  0  0  0  0
 17 13  1  0  0  0  0
 18 14  1  0  0  0  0
 19 20  3  0  0  0  0
 20  2  1  0  0  0  0
 21 26  1  0  0  0  0
 22 21  2  0  0  0  0
 22 23  1  0  0  0  0
 23 24  2  0  0  0  0
 24 25  1  0  0  0  0
 25 28  1  0  0  0  0
 26 25  2  0  0  0  0
 27 23  1  0  0  0  0
 29 31  1  0  0  0  0
 30 29  2  0  0  0  0
 31 22  1  0  0  0  0
 32 31  1  0  0  0  0
 33 29  1  0  0  0  0
 34 33  2  0  0  0  0
 35 34  1  0  0  0  0
 36 37  1  0  0  0  0
 36 34  1  0  0  0  0
 37 38  1  0  0  0  0
 37 39  2  0  0  0  0
 39 33  1  0  0  0  0
M  END
>  <minimizedAffinity>
-5.84086418

>  <minimizedRMSD>
0.480393052

$$$$
