
 OpenBabel03272508153D

 28 30  0  0  0  0  0  0  0  0999 V2000
   34.4860   30.5170   48.7210 Cl  0  0  0  0  0  0  0  0  0  0  0  0
   35.3920   30.4080   47.2480 C   0  0  0  0  0  0  0  0  0  0  0  0
   34.6860   29.8570   46.2120 C   0  0  0  0  0  0  0  0  0  0  0  0
   35.3300   29.7360   44.9580 C   0  0  0  0  0  0  0  0  0  0  0  0
   36.6100   30.1480   44.7690 C   0  0  0  0  0  0  0  0  0  0  0  0
   37.2910   30.6990   45.8370 C   0  0  0  0  0  0  0  0  0  0  0  0
   38.9360   31.2550   45.6210 Cl  0  0  0  0  0  0  0  0  0  0  0  0
   36.6770   30.8200   47.0580 C   0  0  0  0  0  0  0  0  0  0  0  0
   34.8540   29.3150   44.0820 H   0  0  0  0  0  0  0  0  0  0  0  0
   37.1270   30.0670   43.8190 H   0  0  0  0  0  0  0  0  0  0  0  0
   33.1550   27.9350   46.3610 C   0  0  0  0  0  0  0  0  0  0  0  0
   33.3120   29.3380   46.1740 C   0  0  0  0  0  0  0  0  0  0  0  0
   32.1850   30.1060   45.9720 C   0  0  0  0  0  0  0  0  0  0  0  0
   30.9720   29.4890   45.9600 N   0  0  0  0  0  0  0  0  0  0  0  0
   30.8560   28.1460   46.1420 C   0  0  0  0  0  0  0  0  0  0  0  0
   31.9430   27.3790   46.3410 N   0  0  0  0  0  0  0  0  0  0  0  0
   33.9870   27.2600   46.5260 H   0  0  0  0  0  0  0  0  0  0  0  0
   32.3220   31.1700   45.8310 H   0  0  0  0  0  0  0  0  0  0  0  0
   29.8090   27.8630   46.0970 H   0  0  0  0  0  0  0  0  0  0  0  0
   37.3730   31.3720   48.2170 C   0  0  0  0  0  0  0  0  0  0  0  0
   37.9570   32.4930   48.3030 O   0  0  0  0  0  0  0  0  0  0  0  0
   37.4120   30.5340   49.4410 C   0  0  0  0  0  0  0  0  0  0  0  0
   37.2640   31.2630   50.7340 C   0  0  0  0  0  0  0  0  0  0  0  0
   37.1270   32.2510   51.0380 H   0  0  0  0  0  0  0  0  0  0  0  0
   37.3770   29.9410   51.9540 S   0  0  0  0  0  0  0  0  0  0  0  0
   37.6000   28.6250   50.6010 C   0  0  0  0  0  0  0  0  0  0  0  0
   37.7460   27.4970   50.4990 H   0  0  0  0  0  0  0  0  0  0  0  0
   37.5690   29.2220   49.6100 N   0  0  0  0  0  0  0  0  0  0  0  0
  2  1  1  0  0  0  0
  3  2  2  0  0  0  0
  4  3  1  0  0  0  0
  5  4  2  0  0  0  0
  5  6  1  0  0  0  0
  6  8  2  0  0  0  0
  7  6  1  0  0  0  0
  8  2  1  0  0  0  0
  8 20  1  0  0  0  0
  9  4  1  0  0  0  0
 10  5  1  0  0  0  0
 11 17  1  0  0  0  0
 12  3  1  0  0  0  0
 12 11  2  0  0  0  0
 13 12  1  0  0  0  0
 14 13  2  0  0  0  0
 14 15  1  0  0  0  0
 15 16  2  0  0  0  0
 16 11  1  0  0  0  0
 18 13  1  0  0  0  0
 19 15  1  0  0  0  0
 20 21  2  0  0  0  0
 20 22  1  0  0  0  0
 22 28  1  0  0  0  0
 22 23  2  0  0  0  0
 23 24  1  0  0  0  0
 23 25  1  0  0  0  0
 26 25  1  0  0  0  0
 27 26  1  0  0  0  0
 28 26  2  0  0  0  0
M  END
>  <minimizedAffinity>
-4.12503767

>  <minimizedRMSD>
3.22894573

$$$$
