
 OpenBabel03272509303D

 36 38  0  0  1  0  0  0  0  0999 V2000
   36.4750   30.7620   49.0340 C   0  0  2  0  0  0  0  0  0  0  0  0
   37.4770   31.5680   49.8070 C   0  0  0  0  0  0  0  0  0  0  0  0
   38.2980   30.7270   50.7610 C   0  0  0  0  0  0  0  0  0  0  0  0
   37.3810   29.9780   51.7290 C   0  0  0  0  0  0  0  0  0  0  0  0
   36.1080   29.4780   51.1020 C   0  0  0  0  0  0  0  0  0  0  0  0
   36.3290   29.3830   49.5810 C   0  0  1  0  0  0  0  0  0  0  0  0
   35.4400   31.2330   49.0140 H   0  0  0  0  0  0  0  0  0  0  0  0
   38.0810   32.2590   49.2540 H   0  0  0  0  0  0  0  0  0  0  0  0
   36.8360   32.2040   50.5070 H   0  0  0  0  0  0  0  0  0  0  0  0
   38.9210   31.4210   51.3320 H   0  0  0  0  0  0  0  0  0  0  0  0
   38.9140   29.9700   50.2650 H   0  0  0  0  0  0  0  0  0  0  0  0
   37.1120   30.7220   52.5130 H   0  0  0  0  0  0  0  0  0  0  0  0
   37.9790   29.1760   52.2130 H   0  0  0  0  0  0  0  0  0  0  0  0
   35.2430   30.1230   51.2580 H   0  0  0  0  0  0  0  0  0  0  0  0
   35.9300   28.4320   51.4260 H   0  0  0  0  0  0  0  0  0  0  0  0
   37.2540   28.8580   49.5600 H   0  0  0  0  0  0  0  0  0  0  0  0
   36.8510   30.6730   47.5990 C   0  0  0  0  0  0  0  0  0  0  0  0
   38.2200   30.8510   47.3180 C   0  0  0  0  0  0  0  0  0  0  0  0
   38.5990   30.7680   45.9730 C   0  0  0  0  0  0  0  0  0  0  0  0
   37.6310   30.5210   45.0240 N   0  0  0  0  0  0  0  0  0  0  0  0
   36.3130   30.3550   45.3530 C   0  0  0  0  0  0  0  0  0  0  0  0
   35.9440   30.4350   46.6480 N   0  0  0  0  0  0  0  0  0  0  0  0
   39.0660   31.0370   47.9510 H   0  0  0  0  0  0  0  0  0  0  0  0
   39.6060   30.8830   45.6080 H   0  0  0  0  0  0  0  0  0  0  0  0
   35.6050   30.1630   44.5590 H   0  0  0  0  0  0  0  0  0  0  0  0
   33.9970   28.4410   49.1240 C   0  0  0  0  0  0  0  0  0  0  0  0
   33.2390   29.1270   49.9100 O   0  0  0  0  0  0  0  0  0  0  0  0
   35.3900   28.5740   48.8930 N   0  0  0  0  0  0  0  0  0  0  0  0
   35.7640   27.9820   48.0820 H   0  0  0  0  0  0  0  0  0  0  0  0
   33.2500   27.3800   48.3850 C   0  0  0  0  0  0  0  0  0  0  0  0
   31.7830   27.5190   48.4900 C   0  0  0  0  0  0  0  0  0  0  0  0
   31.0270   28.1210   48.9140 H   0  0  0  0  0  0  0  0  0  0  0  0
   31.2360   26.0340   47.4560 S   0  0  0  0  0  0  0  0  0  0  0  0
   32.9890   25.5350   47.1000 C   0  0  0  0  0  0  0  0  0  0  0  0
   33.6670   24.7520   46.5500 H   0  0  0  0  0  0  0  0  0  0  0  0
   33.8180   26.4020   47.7000 N   0  0  0  0  0  0  0  0  0  0  0  0
  1  7  1  1  0  0  0
  1  6  1  0  0  0  0
  1  2  1  0  0  0  0
  2  9  1  0  0  0  0
  2  3  1  0  0  0  0
  3 10  1  0  0  0  0
  3  4  1  0  0  0  0
  4 13  1  0  0  0  0
  4 12  1  0  0  0  0
  5 14  1  0  0  0  0
  5 15  1  0  0  0  0
  5  4  1  0  0  0  0
  6 16  1  6  0  0  0
  6  5  1  0  0  0  0
  8  2  1  0  0  0  0
 11  3  1  0  0  0  0
 17  1  1  0  0  0  0
 18 17  1  0  0  0  0
 18 23  1  0  0  0  0
 19 18  2  0  0  0  0
 20 21  2  0  0  0  0
 20 19  1  0  0  0  0
 21 22  1  0  0  0  0
 22 17  2  0  0  0  0
 24 19  1  0  0  0  0
 25 21  1  0  0  0  0
 26 27  2  0  0  0  0
 28 26  1  0  0  0  0
 28  6  1  0  0  0  0
 29 28  1  0  0  0  0
 30 31  2  0  0  0  0
 30 26  1  0  0  0  0
 31 32  1  0  0  0  0
 33 31  1  0  0  0  0
 34 33  1  0  0  0  0
 34 36  2  0  0  0  0
 35 34  1  0  0  0  0
 36 30  1  0  0  0  0
M  END
>  <minimizedAffinity>
-5.75431633

>  <minimizedRMSD>
0.748278916

$$$$
