
 OpenBabel03272508503D

 27 29  0  0  1  0  0  0  0  0999 V2000
   38.8830   31.3910   47.0440 C   0  0  2  0  0  0  0  0  0  0  0  0
   39.4690   32.6990   46.7840 C   0  0  0  0  0  0  0  0  0  0  0  0
   38.6250   31.9650   45.7250 C   0  0  1  0  0  0  0  0  0  0  0  0
   39.5470   30.4640   47.0180 H   0  0  0  0  0  0  0  0  0  0  0  0
   39.0310   33.6120   47.2630 H   0  0  0  0  0  0  0  0  0  0  0  0
   40.5200   32.8240   46.5360 H   0  0  0  0  0  0  0  0  0  0  0  0
   37.7820   32.6010   45.4200 H   0  0  0  0  0  0  0  0  0  0  0  0
   35.5770   30.4380   48.4070 C   0  0  0  0  0  0  0  0  0  0  0  0
   35.6730   30.8440   49.7640 C   0  0  0  0  0  0  0  0  0  0  0  0
   36.9060   31.4510   50.1780 C   0  0  0  0  0  0  0  0  0  0  0  0
   37.9040   31.6060   49.2730 N   0  0  0  0  0  0  0  0  0  0  0  0
   37.7440   31.1930   47.9870 C   0  0  0  0  0  0  0  0  0  0  0  0
   36.6090   30.6140   47.5310 N   0  0  0  0  0  0  0  0  0  0  0  0
   34.6200   29.9910   48.1760 H   0  0  0  0  0  0  0  0  0  0  0  0
   34.8750   30.7090   50.4520 H   0  0  0  0  0  0  0  0  0  0  0  0
   37.0340   31.7760   51.1900 H   0  0  0  0  0  0  0  0  0  0  0  0
   38.8820   30.2980   43.9220 C   0  0  0  0  0  0  0  0  0  0  0  0
   37.7130   29.9030   44.1550 O   0  0  0  0  0  0  0  0  0  0  0  0
   39.4200   31.4380   44.6120 N   0  0  0  0  0  0  0  0  0  0  0  0
   40.3200   31.8170   44.2920 H   0  0  0  0  0  0  0  0  0  0  0  0
   39.7300   29.5940   42.9300 C   0  0  0  0  0  0  0  0  0  0  0  0
   39.0830   28.4400   42.2530 C   0  0  0  0  0  0  0  0  0  0  0  0
   38.1680   28.0240   42.3260 H   0  0  0  0  0  0  0  0  0  0  0  0
   40.3560   27.8800   41.1850 S   0  0  0  0  0  0  0  0  0  0  0  0
   41.5910   29.2160   41.7420 C   0  0  0  0  0  0  0  0  0  0  0  0
   42.6080   29.4700   41.4830 H   0  0  0  0  0  0  0  0  0  0  0  0
   40.9660   29.9260   42.6360 N   0  0  0  0  0  0  0  0  0  0  0  0
  1  4  1  6  0  0  0
  1 12  1  0  0  0  0
  2  1  1  0  0  0  0
  2  5  1  0  0  0  0
  3  7  1  6  0  0  0
  3  2  1  0  0  0  0
  3  1  1  0  0  0  0
  6  2  1  0  0  0  0
  8  9  1  0  0  0  0
  9 10  2  0  0  0  0
  9 15  1  0  0  0  0
 10 16  1  0  0  0  0
 11 10  1  0  0  0  0
 12 11  2  0  0  0  0
 13 12  1  0  0  0  0
 13  8  2  0  0  0  0
 14  8  1  0  0  0  0
 17 18  2  0  0  0  0
 17 19  1  0  0  0  0
 19  3  1  0  0  0  0
 20 19  1  0  0  0  0
 21 17  1  0  0  0  0
 22 23  1  0  0  0  0
 22 21  2  0  0  0  0
 24 25  1  0  0  0  0
 24 22  1  0  0  0  0
 25 27  2  0  0  0  0
 26 25  1  0  0  0  0
 27 21  1  0  0  0  0
M  END
>  <minimizedAffinity>
-4.58678389

>  <minimizedRMSD>
7.49395943

$$$$
