
 OpenBabel03272503053D

 30 32  0  0  0  0  0  0  0  0999 V2000
   38.4320   30.4330   47.3070 F   0  0  0  0  0  0  0  0  0  0  0  0
   38.7300   31.6640   47.7990 C   0  0  0  0  0  0  0  0  0  0  0  0
   38.1900   32.0650   48.9900 C   0  0  0  0  0  0  0  0  0  0  0  0
   38.5320   33.3190   49.4290 C   0  0  0  0  0  0  0  0  0  0  0  0
   39.3760   34.1520   48.7280 C   0  0  0  0  0  0  0  0  0  0  0  0
   39.9050   33.7240   47.5350 C   0  0  0  0  0  0  0  0  0  0  0  0
   39.5810   32.4580   47.0540 C   0  0  0  0  0  0  0  0  0  0  0  0
   38.1190   33.6600   50.3680 H   0  0  0  0  0  0  0  0  0  0  0  0
   39.6350   35.1480   49.0970 H   0  0  0  0  0  0  0  0  0  0  0  0
   40.5700   34.3480   46.9530 H   0  0  0  0  0  0  0  0  0  0  0  0
   36.8010   29.5790   51.4790 C   0  0  0  0  0  0  0  0  0  0  0  0
   37.6760   30.4560   50.8310 C   0  0  0  0  0  0  0  0  0  0  0  0
   37.3060   31.1460   49.6900 C   0  0  0  0  0  0  0  0  0  0  0  0
   36.0340   30.9140   49.2410 N   0  0  0  0  0  0  0  0  0  0  0  0
   35.1990   30.0690   49.8720 C   0  0  0  0  0  0  0  0  0  0  0  0
   35.5760   29.4210   50.9620 N   0  0  0  0  0  0  0  0  0  0  0  0
   37.0900   29.0380   52.3740 H   0  0  0  0  0  0  0  0  0  0  0  0
   38.6720   30.5980   51.2360 H   0  0  0  0  0  0  0  0  0  0  0  0
   34.2390   30.0350   49.3440 H   0  0  0  0  0  0  0  0  0  0  0  0
   39.2350   32.1710   44.7050 C   0  0  0  0  0  0  0  0  0  0  0  0
   38.1320   32.7240   44.9800 O   0  0  0  0  0  0  0  0  0  0  0  0
   40.1100   31.9660   45.8100 N   0  0  0  0  0  0  0  0  0  0  0  0
   41.0120   31.5070   45.6560 H   0  0  0  0  0  0  0  0  0  0  0  0
   39.5450   31.7850   43.3370 C   0  0  0  0  0  0  0  0  0  0  0  0
   40.4170   30.6940   43.1020 C   0  0  0  0  0  0  0  0  0  0  0  0
   40.9430   30.0330   43.9070 H   0  0  0  0  0  0  0  0  0  0  0  0
   40.5030   30.5890   41.2130 S   0  0  0  0  0  0  0  0  0  0  0  0
   39.3330   32.0540   41.1280 C   0  0  0  0  0  0  0  0  0  0  0  0
   38.7510   32.7850   40.2960 H   0  0  0  0  0  0  0  0  0  0  0  0
   39.1310   32.3050   42.2060 N   0  0  0  0  0  0  0  0  0  0  0  0
  1  2  1  0  0  0  0
  2  3  1  0  0  0  0
  3  4  2  0  0  0  0
  3 13  1  0  0  0  0
  4  8  1  0  0  0  0
  5  9  1  0  0  0  0
  5  4  1  0  0  0  0
  6  5  2  0  0  0  0
  7  6  1  0  0  0  0
  7  2  2  0  0  0  0
 10  6  1  0  0  0  0
 11 17  1  0  0  0  0
 12 18  1  0  0  0  0
 12 11  2  0  0  0  0
 13 12  1  0  0  0  0
 14 13  2  0  0  0  0
 14 15  1  0  0  0  0
 15 16  2  0  0  0  0
 16 11  1  0  0  0  0
 19 15  1  0  0  0  0
 20 21  2  0  0  0  0
 20 22  1  0  0  0  0
 22  7  1  0  0  0  0
 23 22  1  0  0  0  0
 24 20  1  0  0  0  0
 25 24  2  0  0  0  0
 25 26  1  0  0  0  0
 27 25  1  0  0  0  0
 28 27  1  0  0  0  0
 28 30  2  0  0  0  0
 29 28  1  0  0  0  0
 30 24  1  0  0  0  0
M  END
>  <minimizedAffinity>
-6.45422649

>  <minimizedRMSD>
0.144687414

$$$$
