
 OpenBabel03262521093D

 27 29  0  0  0  0  0  0  0  0999 V2000
   35.3640   29.8580   46.2740 O   0  0  0  0  0  0  0  0  0  0  0  0
   34.2710   29.5710   47.2870 P   0  0  1  0  0  0  0  0  0  0  0  0
   34.3610   27.9430   47.7970 O   0  0  0  0  0  0  0  0  0  0  0  0
   33.7150   27.8100   48.5160 H   0  0  0  0  0  0  0  0  0  0  0  0
   34.4400   30.5060   48.7110 O   0  0  0  0  0  0  0  0  0  0  0  0
   35.5700   30.4510   49.5100 C   0  0  0  0  0  0  0  0  0  0  0  0
   35.7560   29.5590   50.5770 C   0  0  0  0  0  0  0  0  0  0  0  0
   36.9400   29.6170   51.2910 C   0  0  0  0  0  0  0  0  0  0  0  0
   37.8810   30.5460   50.9260 N   0  0  0  0  0  0  0  0  0  0  0  0
   37.6640   31.4020   49.8760 C   0  0  0  0  0  0  0  0  0  0  0  0
   36.5140   31.3480   49.1790 N   0  0  0  0  0  0  0  0  0  0  0  0
   34.9600   28.8860   50.7680 H   0  0  0  0  0  0  0  0  0  0  0  0
   37.0870   28.9410   52.1050 H   0  0  0  0  0  0  0  0  0  0  0  0
   38.4300   32.1280   49.6090 H   0  0  0  0  0  0  0  0  0  0  0  0
   32.8020   29.8950   46.5370 O   0  0  0  0  0  0  0  0  0  0  0  0
   32.0280   27.8990   45.3580 C   0  0  0  0  0  3  0  0  0  0  0  0
   31.8320   28.9950   46.1710 C   0  0  0  0  0  0  0  0  0  0  0  0
   30.5710   29.2810   46.7050 C   0  0  0  0  0  0  0  0  0  0  0  0
   30.3300   30.1090   47.3440 H   0  0  0  0  0  0  0  0  0  0  0  0
   29.5230   28.4230   46.3890 C   0  0  0  0  0  0  0  0  0  0  0  0
   28.2190   28.3910   46.7140 N   0  0  0  0  0  0  0  0  0  0  0  0
   27.6160   27.3270   46.1360 C   0  0  0  0  0  0  0  0  0  0  0  0
   26.5870   26.9820   46.1700 H   0  0  0  0  0  0  0  0  0  0  0  0
   28.5650   26.6620   45.4210 N   0  0  0  0  0  0  0  0  0  0  0  0
   29.7420   27.3330   45.5730 C   0  0  0  0  0  0  0  0  0  0  0  0
   30.9840   27.0270   45.0290 C   0  0  0  0  0  3  0  0  0  0  0  0
   27.7050   29.0790   47.3290 H   0  0  0  0  0  0  0  0  0  0  0  0
  2  1  2  6  0  0  0
  2  3  1  0  0  0  0
  2  5  1  0  0  0  0
  3  4  1  0  0  0  0
  5  6  1  0  0  0  0
  6  7  1  0  0  0  0
  7 12  1  0  0  0  0
  7  8  2  0  0  0  0
  8 13  1  0  0  0  0
  9  8  1  0  0  0  0
 10  9  2  0  0  0  0
 11  6  2  0  0  0  0
 11 10  1  0  0  0  0
 14 10  1  0  0  0  0
 15  2  1  0  0  0  0
 16 17  1  0  0  0  0
 17 15  1  0  0  0  0
 17 18  2  0  0  0  0
 18 19  1  0  0  0  0
 20 18  1  0  0  0  0
 20 21  1  0  0  0  0
 21 27  1  0  0  0  0
 22 23  1  0  0  0  0
 22 21  1  0  0  0  0
 24 25  1  0  0  0  0
 24 22  2  0  0  0  0
 25 20  2  0  0  0  0
 26 16  2  0  0  0  0
 26 25  1  0  0  0  0
M  END
>  <minimizedAffinity>
-4.08227539

>  <minimizedRMSD>
2.18322396

$$$$
