
 OpenBabel03272509573D

 49 53  0  0  0  0  0  0  0  0999 V2000
   33.3600   27.8850   47.4200 C   0  0  0  0  0  0  0  0  0  0  0  0
   33.4260   27.9110   46.2960 H   0  0  0  0  0  0  0  0  0  0  0  0
   33.7180   26.8980   47.7160 H   0  0  0  0  0  0  0  0  0  0  0  0
   31.9270   28.0210   47.7930 C   0  0  0  0  0  0  0  0  0  0  0  0
   31.5540   27.6640   49.0780 C   0  0  0  0  0  0  0  0  0  0  0  0
   30.2480   27.7590   49.5020 C   0  0  0  0  0  0  0  0  0  0  0  0
   29.3170   28.2070   48.6600 N   0  0  0  0  0  0  0  0  0  0  0  0
   29.6940   28.5560   47.3960 C   0  0  0  0  0  0  0  0  0  0  0  0
   30.9650   28.4690   46.9660 N   0  0  0  0  0  0  0  0  0  0  0  0
   32.3050   27.3000   49.7650 H   0  0  0  0  0  0  0  0  0  0  0  0
   29.9200   27.4910   50.4980 H   0  0  0  0  0  0  0  0  0  0  0  0
   28.6350   29.0530   46.4730 C   0  0  0  0  0  0  0  0  0  0  0  0
   29.0900   29.8720   45.8770 H   0  0  0  0  0  0  0  0  0  0  0  0
   27.7740   29.4780   47.0260 H   0  0  0  0  0  0  0  0  0  0  0  0
   27.4660   28.1810   44.3830 C   0  0  0  0  0  3  0  0  0  0  0  0
   28.2140   27.9730   45.5390 C   0  0  0  0  0  0  0  0  0  0  0  0
   28.5930   26.6650   45.8400 C   0  0  0  0  0  0  0  0  0  0  0  0
   29.1840   26.4960   46.7500 H   0  0  0  0  0  0  0  0  0  0  0  0
   28.2570   25.5960   45.0450 C   0  0  0  0  0  0  0  0  0  0  0  0
   28.4830   24.2820   45.0990 N   0  0  0  0  0  0  0  0  0  0  0  0
   27.9320   23.6410   44.0610 C   0  0  0  0  0  0  0  0  0  0  0  0
   27.9970   22.5630   43.9090 H   0  0  0  0  0  0  0  0  0  0  0  0
   27.3200   24.5930   43.2990 N   0  0  0  0  0  0  0  0  0  0  0  0
   27.5070   25.7930   43.8850 C   0  0  0  0  0  0  0  0  0  0  0  0
   27.1450   27.0970   43.6120 C   0  0  0  0  0  3  0  0  0  0  0  0
   29.0370   23.8670   45.8920 H   0  0  0  0  0  0  0  0  0  0  0  0
   34.2220   28.9480   48.0430 C   0  0  0  0  0  0  0  0  0  0  0  0
   33.6710   29.8300   48.3960 H   0  0  0  0  0  0  0  0  0  0  0  0
   34.9110   29.3100   47.2530 H   0  0  0  0  0  0  0  0  0  0  0  0
   35.0470   28.3990   49.0590 O   0  0  0  0  0  0  0  0  0  0  0  0
   37.2870   30.1440   51.2900 C   0  0  0  0  0  0  0  0  0  0  0  0
   38.0550   30.8570   50.3450 C   0  0  0  0  0  0  0  0  0  0  0  0
   37.7610   30.6980   49.0040 C   0  0  0  0  0  0  0  0  0  0  0  0
   36.7310   29.8460   48.7120 N   0  0  0  0  0  0  0  0  0  0  0  0
   36.0090   29.1760   49.6120 C   0  0  0  0  0  0  0  0  0  0  0  0
   36.2990   29.3340   50.9140 N   0  0  0  0  0  0  0  0  0  0  0  0
   37.5440   30.2930   52.3280 H   0  0  0  0  0  0  0  0  0  0  0  0
   38.8590   31.5220   50.5710 H   0  0  0  0  0  0  0  0  0  0  0  0
   38.9370   33.3370   48.9430 F   0  0  0  0  0  0  0  0  0  0  0  0
   38.9950   32.5680   47.8570 C   0  0  0  0  0  0  0  0  0  0  0  0
   38.4430   31.3470   47.9070 C   0  0  0  0  0  0  0  0  0  0  0  0
   38.5600   30.6270   46.7190 C   0  0  0  0  0  0  0  0  0  0  0  0
   39.1790   31.1190   45.6060 C   0  0  0  0  0  0  0  0  0  0  0  0
   39.7290   32.3830   45.6110 C   0  0  0  0  0  0  0  0  0  0  0  0
   39.6270   33.1050   46.7620 C   0  0  0  0  0  0  0  0  0  0  0  0
   38.1630   29.6100   46.5910 H   0  0  0  0  0  0  0  0  0  0  0  0
   39.2710   30.5590   44.6780 H   0  0  0  0  0  0  0  0  0  0  0  0
   40.2240   32.7770   44.7220 H   0  0  0  0  0  0  0  0  0  0  0  0
   40.0550   34.1000   46.7810 H   0  0  0  0  0  0  0  0  0  0  0  0
  1  3  1  0  0  0  0
  1  4  1  0  0  0  0
  1 27  1  0  0  0  0
  2  1  1  0  0  0  0
  4  5  1  0  0  0  0
  5  6  2  0  0  0  0
  5 10  1  0  0  0  0
  6 11  1  0  0  0  0
  7  6  1  0  0  0  0
  8  7  2  0  0  0  0
  9  8  1  0  0  0  0
  9  4  2  0  0  0  0
 12 14  1  0  0  0  0
 12  8  1  0  0  0  0
 13 12  1  0  0  0  0
 15 16  1  0  0  0  0
 16 17  2  0  0  0  0
 16 12  1  0  0  0  0
 17 18  1  0  0  0  0
 19 20  1  0  0  0  0
 19 17  1  0  0  0  0
 20 26  1  0  0  0  0
 21 20  1  0  0  0  0
 22 21  1  0  0  0  0
 23 24  1  0  0  0  0
 23 21  2  0  0  0  0
 24 19  2  0  0  0  0
 25 24  1  0  0  0  0
 25 15  2  0  0  0  0
 27 28  1  0  0  0  0
 27 30  1  0  0  0  0
 29 27  1  0  0  0  0
 30 35  1  0  0  0  0
 31 37  1  0  0  0  0
 32 38  1  0  0  0  0
 32 31  2  0  0  0  0
 33 32  1  0  0  0  0
 34 33  2  0  0  0  0
 34 35  1  0  0  0  0
 35 36  2  0  0  0  0
 36 31  1  0  0  0  0
 40 41  1  0  0  0  0
 40 39  1  0  0  0  0
 41 33  1  0  0  0  0
 42 41  2  0  0  0  0
 43 44  2  0  0  0  0
 43 42  1  0  0  0  0
 44 45  1  0  0  0  0
 45 49  1  0  0  0  0
 45 40  2  0  0  0  0
 46 42  1  0  0  0  0
 47 43  1  0  0  0  0
 48 44  1  0  0  0  0
M  END
>  <minimizedAffinity>
-6.84855318

>  <minimizedRMSD>
0.808662832

$$$$
