
 OpenBabel03262521463D

 33 35  0  0  0  0  0  0  0  0999 V2000
   34.7080   30.7540   49.3380 O   0  0  0  0  0  0  0  0  0  0  0  0
   34.4620   29.4950   50.1500 P   0  0  2  0  0  0  0  0  0  0  0  0
   32.9760   29.7090   50.9100 O   0  0  0  0  0  0  0  0  0  0  0  0
   33.1010   29.4170   51.8460 H   0  0  0  0  0  0  0  0  0  0  0  0
   35.7120   29.3590   51.2950 O   0  0  0  0  0  0  0  0  0  0  0  0
   36.9540   29.1940   50.6710 C   0  0  0  0  0  0  0  0  0  0  0  0
   36.7570   29.0160   49.6080 H   0  0  0  0  0  0  0  0  0  0  0  0
   37.4480   28.2810   51.0630 H   0  0  0  0  0  0  0  0  0  0  0  0
   37.7330   30.4530   50.8600 C   0  0  0  0  0  0  0  0  0  0  0  0
   37.2620   31.1830   51.5630 H   0  0  0  0  0  0  0  0  0  0  0  0
   38.7040   30.1510   51.3500 H   0  0  0  0  0  0  0  0  0  0  0  0
   38.1000   31.1510   49.6280 C   0  0  0  0  0  0  0  0  0  0  0  0
   38.5400   32.4610   49.6130 C   0  0  0  0  0  0  0  0  0  0  0  0
   38.8660   33.0300   48.3650 C   0  0  0  0  0  0  0  0  0  0  0  0
   38.7290   32.2600   47.2400 N   0  0  0  0  0  0  0  0  0  0  0  0
   38.2880   30.9680   47.3110 C   0  0  0  0  0  0  0  0  0  0  0  0
   37.9760   30.4250   48.5140 N   0  0  0  0  0  0  0  0  0  0  0  0
   38.6170   32.9930   50.5530 H   0  0  0  0  0  0  0  0  0  0  0  0
   39.2080   34.0440   48.3390 H   0  0  0  0  0  0  0  0  0  0  0  0
   38.2050   30.4210   46.3820 H   0  0  0  0  0  0  0  0  0  0  0  0
   34.3920   28.1390   49.1780 O   0  0  0  0  0  0  0  0  0  0  0  0
   32.2940   27.1470   48.2700 C   0  0  0  0  0  3  0  0  0  0  0  0
   33.4820   27.8310   48.1990 C   0  0  0  0  0  0  0  0  0  0  0  0
   33.8960   28.3220   46.9560 C   0  0  0  0  0  0  0  0  0  0  0  0
   34.8190   28.8820   46.7560 H   0  0  0  0  0  0  0  0  0  0  0  0
   33.1210   28.1230   45.8090 C   0  0  0  0  0  0  0  0  0  0  0  0
   33.2310   28.4540   44.5100 N   0  0  0  0  0  0  0  0  0  0  0  0
   32.1430   27.9790   43.8490 C   0  0  0  0  0  0  0  0  0  0  0  0
   31.9860   28.1140   42.7750 H   0  0  0  0  0  0  0  0  0  0  0  0
   31.3340   27.3390   44.7390 N   0  0  0  0  0  0  0  0  0  0  0  0
   31.9330   27.4280   45.9370 C   0  0  0  0  0  0  0  0  0  0  0  0
   31.5150   26.9380   47.1620 C   0  0  0  0  0  3  0  0  0  0  0  0
   34.0310   28.9830   44.1340 H   0  0  0  0  0  0  0  0  0  0  0  0
  2  1  2  6  0  0  0
  2  3  1  0  0  0  0
  2  5  1  0  0  0  0
  3  4  1  0  0  0  0
  6  9  1  0  0  0  0
  6  8  1  0  0  0  0
  6  5  1  0  0  0  0
  7  6  1  0  0  0  0
  9 11  1  0  0  0  0
  9 10  1  0  0  0  0
 12  9  1  0  0  0  0
 13 12  1  0  0  0  0
 13 18  1  0  0  0  0
 14 13  2  0  0  0  0
 15 16  2  0  0  0  0
 15 14  1  0  0  0  0
 16 17  1  0  0  0  0
 17 12  2  0  0  0  0
 19 14  1  0  0  0  0
 20 16  1  0  0  0  0
 21  2  1  0  0  0  0
 23 22  1  0  0  0  0
 23 21  1  0  0  0  0
 24 23  2  0  0  0  0
 25 24  1  0  0  0  0
 26 31  2  0  0  0  0
 26 24  1  0  0  0  0
 27 26  1  0  0  0  0
 28 27  1  0  0  0  0
 28 30  2  0  0  0  0
 29 28  1  0  0  0  0
 30 31  1  0  0  0  0
 31 32  1  0  0  0  0
 32 22  2  0  0  0  0
 33 27  1  0  0  0  0
M  END
>  <minimizedAffinity>
-5.2725172

>  <minimizedRMSD>
1.75058258

$$$$
