
 OpenBabel03272509573D

 49 53  0  0  0  0  0  0  0  0999 V2000
   33.2880   28.1020   47.3400 C   0  0  0  0  0  0  0  0  0  0  0  0
   33.3830   28.3270   46.2410 H   0  0  0  0  0  0  0  0  0  0  0  0
   33.7100   27.1060   47.4770 H   0  0  0  0  0  0  0  0  0  0  0  0
   31.8390   28.0720   47.6730 C   0  0  0  0  0  0  0  0  0  0  0  0
   31.4480   27.3910   48.8140 C   0  0  0  0  0  0  0  0  0  0  0  0
   30.1280   27.3160   49.1910 C   0  0  0  0  0  0  0  0  0  0  0  0
   29.1970   27.9110   48.4450 N   0  0  0  0  0  0  0  0  0  0  0  0
   29.5920   28.5800   47.3230 C   0  0  0  0  0  0  0  0  0  0  0  0
   30.8780   28.6630   46.9400 N   0  0  0  0  0  0  0  0  0  0  0  0
   32.1990   26.9050   49.4230 H   0  0  0  0  0  0  0  0  0  0  0  0
   29.7860   26.7940   50.0760 H   0  0  0  0  0  0  0  0  0  0  0  0
   28.5340   29.2380   46.5050 C   0  0  0  0  0  0  0  0  0  0  0  0
   29.0300   30.0550   45.9400 H   0  0  0  0  0  0  0  0  0  0  0  0
   27.7490   29.6960   47.1390 H   0  0  0  0  0  0  0  0  0  0  0  0
   28.6430   27.1730   45.0150 C   0  0  0  0  0  3  0  0  0  0  0  0
   27.9610   28.2740   45.5270 C   0  0  0  0  0  0  0  0  0  0  0  0
   26.6530   28.4840   45.0920 C   0  0  0  0  0  0  0  0  0  0  0  0
   26.1090   29.3500   45.4910 H   0  0  0  0  0  0  0  0  0  0  0  0
   26.0280   27.6540   44.1910 C   0  0  0  0  0  0  0  0  0  0  0  0
   24.8220   27.6260   43.6250 N   0  0  0  0  0  0  0  0  0  0  0  0
   24.6890   26.5880   42.7910 C   0  0  0  0  0  0  0  0  0  0  0  0
   23.7840   26.3760   42.2230 H   0  0  0  0  0  0  0  0  0  0  0  0
   25.8740   25.9120   42.8210 N   0  0  0  0  0  0  0  0  0  0  0  0
   26.7050   26.5490   43.6730 C   0  0  0  0  0  0  0  0  0  0  0  0
   27.9980   26.3640   44.1210 C   0  0  0  0  0  3  0  0  0  0  0  0
   24.1070   28.3650   43.8520 H   0  0  0  0  0  0  0  0  0  0  0  0
   34.0500   29.0970   48.1700 C   0  0  0  0  0  0  0  0  0  0  0  0
   33.4290   29.8800   48.6250 H   0  0  0  0  0  0  0  0  0  0  0  0
   34.7510   29.6190   47.4870 H   0  0  0  0  0  0  0  0  0  0  0  0
   34.8600   28.4380   49.1320 O   0  0  0  0  0  0  0  0  0  0  0  0
   37.0960   29.9290   51.5450 C   0  0  0  0  0  0  0  0  0  0  0  0
   37.8890   30.7130   50.6800 C   0  0  0  0  0  0  0  0  0  0  0  0
   37.6120   30.6840   49.3260 C   0  0  0  0  0  0  0  0  0  0  0  0
   36.5730   29.8810   48.9430 N   0  0  0  0  0  0  0  0  0  0  0  0
   35.8270   29.1440   49.7670 C   0  0  0  0  0  0  0  0  0  0  0  0
   36.1000   29.1750   51.0820 N   0  0  0  0  0  0  0  0  0  0  0  0
   37.3400   29.9770   52.5940 H   0  0  0  0  0  0  0  0  0  0  0  0
   38.7010   31.3390   50.9770 H   0  0  0  0  0  0  0  0  0  0  0  0
   38.7690   33.3260   49.5040 F   0  0  0  0  0  0  0  0  0  0  0  0
   38.8640   32.6440   48.3640 C   0  0  0  0  0  0  0  0  0  0  0  0
   38.3200   31.4200   48.3030 C   0  0  0  0  0  0  0  0  0  0  0  0
   38.4760   30.7950   47.0670 C   0  0  0  0  0  0  0  0  0  0  0  0
   39.1240   31.3750   46.0140 C   0  0  0  0  0  0  0  0  0  0  0  0
   39.6640   32.6370   46.1320 C   0  0  0  0  0  0  0  0  0  0  0  0
   39.5230   33.2680   47.3320 C   0  0  0  0  0  0  0  0  0  0  0  0
   38.0910   29.7880   46.8490 H   0  0  0  0  0  0  0  0  0  0  0  0
   39.2470   30.8900   45.0480 H   0  0  0  0  0  0  0  0  0  0  0  0
   40.1810   33.1020   45.2920 H   0  0  0  0  0  0  0  0  0  0  0  0
   39.9440   34.2600   47.4410 H   0  0  0  0  0  0  0  0  0  0  0  0
  1  3  1  0  0  0  0
  1  4  1  0  0  0  0
  1 27  1  0  0  0  0
  2  1  1  0  0  0  0
  4  5  1  0  0  0  0
  5  6  2  0  0  0  0
  5 10  1  0  0  0  0
  6 11  1  0  0  0  0
  7  6  1  0  0  0  0
  8  7  2  0  0  0  0
  9  8  1  0  0  0  0
  9  4  2  0  0  0  0
 12 14  1  0  0  0  0
 12  8  1  0  0  0  0
 13 12  1  0  0  0  0
 15 16  1  0  0  0  0
 16 12  1  0  0  0  0
 17 18  1  0  0  0  0
 17 16  2  0  0  0  0
 19 17  1  0  0  0  0
 20 26  1  0  0  0  0
 20 19  1  0  0  0  0
 21 23  2  0  0  0  0
 21 20  1  0  0  0  0
 22 21  1  0  0  0  0
 23 24  1  0  0  0  0
 24 25  1  0  0  0  0
 24 19  2  0  0  0  0
 25 15  2  0  0  0  0
 27 28  1  0  0  0  0
 27 30  1  0  0  0  0
 29 27  1  0  0  0  0
 30 35  1  0  0  0  0
 31 37  1  0  0  0  0
 32 38  1  0  0  0  0
 32 31  2  0  0  0  0
 33 32  1  0  0  0  0
 34 33  2  0  0  0  0
 34 35  1  0  0  0  0
 35 36  2  0  0  0  0
 36 31  1  0  0  0  0
 40 39  1  0  0  0  0
 41 40  1  0  0  0  0
 41 33  1  0  0  0  0
 42 41  2  0  0  0  0
 43 44  2  0  0  0  0
 43 42  1  0  0  0  0
 44 45  1  0  0  0  0
 45 49  1  0  0  0  0
 45 40  2  0  0  0  0
 46 42  1  0  0  0  0
 47 43  1  0  0  0  0
 48 44  1  0  0  0  0
M  END
>  <minimizedAffinity>
-7.06071568

>  <minimizedRMSD>
1.28404105

$$$$
