
 OpenBabel03262521463D

 33 35  0  0  0  0  0  0  0  0999 V2000
   34.6930   30.6270   49.2470 O   0  0  0  0  0  0  0  0  0  0  0  0
   34.5060   29.4490   50.1860 P   0  0  2  0  0  0  0  0  0  0  0  0
   32.9750   29.6260   50.8630 O   0  0  0  0  0  0  0  0  0  0  0  0
   33.0800   29.4490   51.8300 H   0  0  0  0  0  0  0  0  0  0  0  0
   35.7110   29.5400   51.3840 O   0  0  0  0  0  0  0  0  0  0  0  0
   36.9780   29.2920   50.8460 C   0  0  0  0  0  0  0  0  0  0  0  0
   36.8320   29.0030   49.7990 H   0  0  0  0  0  0  0  0  0  0  0  0
   37.4350   28.4200   51.3580 H   0  0  0  0  0  0  0  0  0  0  0  0
   37.7700   30.5530   50.9390 C   0  0  0  0  0  0  0  0  0  0  0  0
   37.3240   31.3270   51.6100 H   0  0  0  0  0  0  0  0  0  0  0  0
   38.7520   30.2730   51.4190 H   0  0  0  0  0  0  0  0  0  0  0  0
   38.1080   31.1750   49.6580 C   0  0  0  0  0  0  0  0  0  0  0  0
   38.5580   32.4770   49.5540 C   0  0  0  0  0  0  0  0  0  0  0  0
   38.8520   32.9690   48.2650 C   0  0  0  0  0  0  0  0  0  0  0  0
   38.6760   32.1360   47.1910 N   0  0  0  0  0  0  0  0  0  0  0  0
   38.2270   30.8550   47.3510 C   0  0  0  0  0  0  0  0  0  0  0  0
   37.9450   30.3860   48.5920 N   0  0  0  0  0  0  0  0  0  0  0  0
   38.6670   33.0620   50.4580 H   0  0  0  0  0  0  0  0  0  0  0  0
   39.2030   33.9760   48.1700 H   0  0  0  0  0  0  0  0  0  0  0  0
   38.1120   30.2560   46.4590 H   0  0  0  0  0  0  0  0  0  0  0  0
   34.5810   27.9940   49.3710 O   0  0  0  0  0  0  0  0  0  0  0  0
   33.6470   26.5450   47.5730 C   0  0  0  0  0  3  0  0  0  0  0  0
   34.1680   27.7010   48.0970 C   0  0  0  0  0  0  0  0  0  0  0  0
   34.3330   28.8040   47.2500 C   0  0  0  0  0  0  0  0  0  0  0  0
   34.7360   29.7850   47.5350 H   0  0  0  0  0  0  0  0  0  0  0  0
   33.9760   28.7340   45.9010 C   0  0  0  0  0  0  0  0  0  0  0  0
   34.0060   29.5810   44.8570 N   0  0  0  0  0  0  0  0  0  0  0  0
   33.5180   28.9390   43.7620 C   0  0  0  0  0  0  0  0  0  0  0  0
   33.4340   29.4080   42.7780 H   0  0  0  0  0  0  0  0  0  0  0  0
   33.1750   27.6690   44.1170 N   0  0  0  0  0  0  0  0  0  0  0  0
   33.4550   27.5450   45.4240 C   0  0  0  0  0  0  0  0  0  0  0  0
   33.2890   26.4500   46.2530 C   0  0  0  0  0  3  0  0  0  0  0  0
   34.3520   30.5480   44.9310 H   0  0  0  0  0  0  0  0  0  0  0  0
  2  1  2  6  0  0  0
  2  3  1  0  0  0  0
  2  5  1  0  0  0  0
  3  4  1  0  0  0  0
  6  9  1  0  0  0  0
  6  8  1  0  0  0  0
  6  5  1  0  0  0  0
  7  6  1  0  0  0  0
  9 11  1  0  0  0  0
  9 10  1  0  0  0  0
 12  9  1  0  0  0  0
 13 12  1  0  0  0  0
 13 18  1  0  0  0  0
 14 13  2  0  0  0  0
 15 16  2  0  0  0  0
 15 14  1  0  0  0  0
 16 17  1  0  0  0  0
 17 12  2  0  0  0  0
 19 14  1  0  0  0  0
 20 16  1  0  0  0  0
 21  2  1  0  0  0  0
 22 23  1  0  0  0  0
 23 21  1  0  0  0  0
 24 25  1  0  0  0  0
 24 23  2  0  0  0  0
 26 24  1  0  0  0  0
 27 33  1  0  0  0  0
 27 26  1  0  0  0  0
 28 30  2  0  0  0  0
 28 27  1  0  0  0  0
 29 28  1  0  0  0  0
 30 31  1  0  0  0  0
 31 26  2  0  0  0  0
 31 32  1  0  0  0  0
 32 22  2  0  0  0  0
M  END
>  <minimizedAffinity>
-5.41733122

>  <minimizedRMSD>
0.474650711

$$$$
