
 OpenBabel03272502593D

 37 40  0  0  1  0  0  0  0  0999 V2000
   35.9310   29.7650   48.8360 N   0  0  0  0  0  0  0  0  0  0  0  0
   36.7040   28.9100   49.7120 C   0  0  0  0  0  0  0  0  0  0  0  0
   37.1640   29.4670   50.9800 C   0  0  0  0  0  0  0  0  0  0  0  0
   37.3430   30.9280   51.0900 C   0  0  0  0  0  0  0  0  0  0  0  0
   36.5630   31.7210   50.0870 C   0  0  0  0  0  0  0  0  0  0  0  0
   36.6270   31.0390   48.7140 C   0  0  1  0  0  0  0  0  0  0  0  0
   36.0890   27.9940   49.8700 H   0  0  0  0  0  0  0  0  0  0  0  0
   37.5800   28.5730   49.0890 H   0  0  0  0  0  0  0  0  0  0  0  0
   36.4560   29.1350   51.7880 H   0  0  0  0  0  0  0  0  0  0  0  0
   38.1410   28.9770   51.2560 H   0  0  0  0  0  0  0  0  0  0  0  0
   37.0270   31.2950   52.1020 H   0  0  0  0  0  0  0  0  0  0  0  0
   38.4170   31.2100   51.0240 H   0  0  0  0  0  0  0  0  0  0  0  0
   36.9030   32.7620   50.0470 H   0  0  0  0  0  0  0  0  0  0  0  0
   35.4900   31.6940   50.3740 H   0  0  0  0  0  0  0  0  0  0  0  0
   36.1670   31.6980   47.9740 H   0  0  0  0  0  0  0  0  0  0  0  0
   34.7070   29.4070   48.2090 C   0  0  0  0  0  0  0  0  0  0  0  0
   34.1890   30.0300   47.0780 C   0  0  0  0  0  0  0  0  0  0  0  0
   32.9850   29.5950   46.5550 C   0  0  0  0  0  0  0  0  0  0  0  0
   32.3620   28.5640   47.1900 N   0  0  0  0  0  0  0  0  0  0  0  0
   32.8860   27.9840   48.2780 C   0  0  0  0  0  0  0  0  0  0  0  0
   34.0540   28.4100   48.7810 N   0  0  0  0  0  0  0  0  0  0  0  0
   34.7550   30.8410   46.6410 H   0  0  0  0  0  0  0  0  0  0  0  0
   32.6040   30.0990   45.6710 H   0  0  0  0  0  0  0  0  0  0  0  0
   32.3320   27.1530   48.7450 H   0  0  0  0  0  0  0  0  0  0  0  0
   37.9870   30.8500   48.4790 O   0  0  0  0  0  0  0  0  0  0  0  0
   39.0630   32.3720   47.1650 C   0  0  0  0  0  0  0  0  0  0  0  0
   38.5910   31.0590   47.2760 C   0  0  0  0  0  0  0  0  0  0  0  0
   38.8080   30.2340   46.1940 C   0  0  0  0  0  0  0  0  0  0  0  0
   38.4250   29.2400   46.3370 H   0  0  0  0  0  0  0  0  0  0  0  0
   39.4450   30.6540   45.0690 C   0  0  0  0  0  0  0  0  0  0  0  0
   39.7450   30.0050   43.9280 N   0  0  0  0  0  0  0  0  0  0  0  0
   40.3840   30.8660   43.1150 C   0  0  0  0  0  0  0  0  0  0  0  0
   40.7250   30.5640   42.1330 H   0  0  0  0  0  0  0  0  0  0  0  0
   40.4870   32.0530   43.7410 N   0  0  0  0  0  0  0  0  0  0  0  0
   39.9080   31.9390   44.9550 C   0  0  0  0  0  0  0  0  0  0  0  0
   39.7160   32.8190   46.0220 C   0  0  0  0  0  0  0  0  0  0  0  0
   39.5140   29.0070   43.7240 H   0  0  0  0  0  0  0  0  0  0  0  0
  1  2  1  0  0  0  0
  2  7  1  0  0  0  0
  2  3  1  0  0  0  0
  3  4  1  0  0  0  0
  3 10  1  0  0  0  0
  3  9  1  0  0  0  0
  4 11  1  0  0  0  0
  5 14  1  0  0  0  0
  5  4  1  0  0  0  0
  6 15  1  6  0  0  0
  6  1  1  0  0  0  0
  6  5  1  0  0  0  0
  8  2  1  0  0  0  0
 12  4  1  0  0  0  0
 13  5  1  0  0  0  0
 16 21  1  0  0  0  0
 16  1  1  0  0  0  0
 17 16  2  0  0  0  0
 18 17  1  0  0  0  0
 18 19  2  0  0  0  0
 19 20  1  0  0  0  0
 20 24  1  0  0  0  0
 20 21  2  0  0  0  0
 22 17  1  0  0  0  0
 23 18  1  0  0  0  0
 25  6  1  0  0  0  0
 26 27  1  0  0  0  0
 27 25  1  0  0  0  0
 28 29  1  0  0  0  0
 28 27  2  0  0  0  0
 30 28  1  0  0  0  0
 31 30  1  0  0  0  0
 32 34  2  0  0  0  0
 32 31  1  0  0  0  0
 33 32  1  0  0  0  0
 34 35  1  0  0  0  0
 35 30  2  0  0  0  0
 35 36  1  0  0  0  0
 36 26  2  0  0  0  0
 37 31  1  0  0  0  0
M  END
>  <minimizedAffinity>
-6.36429214

>  <minimizedRMSD>
0.624511242

$$$$
