
 OpenBabel03262521463D

 33 35  0  0  0  0  0  0  0  0999 V2000
   34.6790   30.6480   49.2430 O   0  0  0  0  0  0  0  0  0  0  0  0
   34.4550   29.4380   50.1320 P   0  0  2  0  0  0  0  0  0  0  0  0
   32.9510   29.6570   50.8550 O   0  0  0  0  0  0  0  0  0  0  0  0
   33.0700   29.4300   51.8100 H   0  0  0  0  0  0  0  0  0  0  0  0
   35.6900   29.4130   51.3010 O   0  0  0  0  0  0  0  0  0  0  0  0
   36.9450   29.2320   50.7090 C   0  0  0  0  0  0  0  0  0  0  0  0
   36.7710   29.0230   49.6470 H   0  0  0  0  0  0  0  0  0  0  0  0
   37.4310   28.3310   51.1370 H   0  0  0  0  0  0  0  0  0  0  0  0
   37.7180   30.4970   50.8770 C   0  0  0  0  0  0  0  0  0  0  0  0
   37.2410   31.2390   51.5630 H   0  0  0  0  0  0  0  0  0  0  0  0
   38.6870   30.2090   51.3790 H   0  0  0  0  0  0  0  0  0  0  0  0
   38.0910   31.1720   49.6340 C   0  0  0  0  0  0  0  0  0  0  0  0
   38.5370   32.4790   49.5960 C   0  0  0  0  0  0  0  0  0  0  0  0
   38.8670   33.0240   48.3380 C   0  0  0  0  0  0  0  0  0  0  0  0
   38.7280   32.2350   47.2270 N   0  0  0  0  0  0  0  0  0  0  0  0
   38.2810   30.9470   47.3210 C   0  0  0  0  0  0  0  0  0  0  0  0
   37.9650   30.4260   48.5320 N   0  0  0  0  0  0  0  0  0  0  0  0
   38.6160   33.0270   50.5260 H   0  0  0  0  0  0  0  0  0  0  0  0
   39.2150   34.0360   48.2950 H   0  0  0  0  0  0  0  0  0  0  0  0
   38.1960   30.3840   46.4010 H   0  0  0  0  0  0  0  0  0  0  0  0
   34.4390   28.0200   49.2500 O   0  0  0  0  0  0  0  0  0  0  0  0
   34.1480   28.7250   46.8770 C   0  0  0  0  0  3  0  0  0  0  0  0
   34.1420   27.8380   47.9240 C   0  0  0  0  0  0  0  0  0  0  0  0
   33.7820   26.5080   47.6700 C   0  0  0  0  0  0  0  0  0  0  0  0
   33.7350   25.6970   48.4090 H   0  0  0  0  0  0  0  0  0  0  0  0
   33.4370   26.0910   46.3800 C   0  0  0  0  0  0  0  0  0  0  0  0
   33.0580   24.9290   45.8210 N   0  0  0  0  0  0  0  0  0  0  0  0
   32.8500   25.1350   44.4930 C   0  0  0  0  0  0  0  0  0  0  0  0
   32.5340   24.3460   43.8040 H   0  0  0  0  0  0  0  0  0  0  0  0
   33.1010   26.4430   44.2080 N   0  0  0  0  0  0  0  0  0  0  0  0
   33.4600   27.0260   45.3630 C   0  0  0  0  0  0  0  0  0  0  0  0
   33.8140   28.3430   45.6050 C   0  0  0  0  0  3  0  0  0  0  0  0
   32.9570   24.0550   46.3570 H   0  0  0  0  0  0  0  0  0  0  0  0
  2  1  2  6  0  0  0
  2  3  1  0  0  0  0
  2  5  1  0  0  0  0
  3  4  1  0  0  0  0
  6  9  1  0  0  0  0
  6  8  1  0  0  0  0
  6  5  1  0  0  0  0
  7  6  1  0  0  0  0
  9 11  1  0  0  0  0
  9 10  1  0  0  0  0
 12  9  1  0  0  0  0
 13 12  1  0  0  0  0
 13 18  1  0  0  0  0
 14 13  2  0  0  0  0
 15 16  2  0  0  0  0
 15 14  1  0  0  0  0
 16 17  1  0  0  0  0
 17 12  2  0  0  0  0
 19 14  1  0  0  0  0
 20 16  1  0  0  0  0
 21  2  1  0  0  0  0
 22 23  1  0  0  0  0
 23 21  1  0  0  0  0
 24 23  2  0  0  0  0
 24 25  1  0  0  0  0
 26 24  1  0  0  0  0
 27 33  1  0  0  0  0
 27 26  1  0  0  0  0
 28 27  1  0  0  0  0
 29 28  1  0  0  0  0
 30 28  2  0  0  0  0
 30 31  1  0  0  0  0
 31 32  1  0  0  0  0
 31 26  2  0  0  0  0
 32 22  2  0  0  0  0
M  END
>  <minimizedAffinity>
-5.31839418

>  <minimizedRMSD>
0.36014691

$$$$
