
 OpenBabel03272506403D

 40 43  0  0  1  0  0  0  0  0999 V2000
   37.1130   26.7290   35.1140 O   0  0  0  0  0  0  0  0  0  0  0  0
   37.6570   26.7970   33.9970 C   0  0  0  0  0  0  0  0  0  0  0  0
   38.8820   26.0780   33.7030 C   0  0  2  0  0  0  0  0  0  0  0  0
   39.0070   26.3280   32.1670 C   0  0  0  0  0  0  0  0  0  0  0  0
   38.2860   27.6220   31.9700 C   0  0  0  0  0  0  0  0  0  0  0  0
   37.1630   27.5670   32.8950 N   0  0  0  0  0  0  0  0  0  0  0  0
   39.8220   26.4570   34.0990 H   0  0  0  0  0  0  0  0  0  0  0  0
   38.4620   25.5110   31.6710 H   0  0  0  0  0  0  0  0  0  0  0  0
   40.0760   26.3750   31.8810 H   0  0  0  0  0  0  0  0  0  0  0  0
   38.8730   28.5020   32.2430 H   0  0  0  0  0  0  0  0  0  0  0  0
   37.8730   27.7310   30.9450 H   0  0  0  0  0  0  0  0  0  0  0  0
   35.8560   28.1720   32.7080 C   0  0  0  0  0  0  0  0  0  0  0  0
   35.0880   27.5400   33.1860 H   0  0  0  0  0  0  0  0  0  0  0  0
   35.6450   28.1550   31.6180 H   0  0  0  0  0  0  0  0  0  0  0  0
   35.8660   30.5730   32.3320 C   0  0  0  0  0  3  0  0  0  0  0  0
   35.7880   29.5400   33.2680 C   0  0  0  0  0  0  0  0  0  0  0  0
   35.6570   29.8050   34.6160 C   0  0  0  0  0  0  0  0  0  0  0  0
   35.6000   28.9960   35.3130 H   0  0  0  0  0  0  0  0  0  0  0  0
   35.6040   31.1220   35.0320 C   0  0  0  0  0  0  0  0  0  0  0  0
   35.4830   31.7050   36.2440 N   0  0  0  0  0  0  0  0  0  0  0  0
   35.4870   33.0420   36.0530 C   0  0  0  0  0  0  0  0  0  0  0  0
   35.4100   33.8420   36.7770 H   0  0  0  0  0  0  0  0  0  0  0  0
   35.6090   33.3040   34.7280 N   0  0  0  0  0  0  0  0  0  0  0  0
   35.6840   32.1320   34.0720 C   0  0  0  0  0  0  0  0  0  0  0  0
   35.8140   31.8860   32.7230 C   0  0  0  0  0  3  0  0  0  0  0  0
   35.4010   31.2160   37.1640 H   0  0  0  0  0  0  0  0  0  0  0  0
   38.7700   24.6580   33.8530 O   0  0  0  0  0  0  0  0  0  0  0  0
   39.4860   24.0680   34.8930 C   0  0  0  0  0  0  0  0  0  0  0  0
   40.8560   23.9810   34.7250 C   0  0  0  0  0  0  0  0  0  0  0  0
   41.6010   23.3970   35.7430 C   0  0  0  0  0  0  0  0  0  0  0  0
   40.9640   22.9420   36.8470 N   0  0  0  0  0  0  0  0  0  0  0  0
   39.6230   23.0340   36.9960 C   0  0  0  0  0  0  0  0  0  0  0  0
   38.9180   23.5910   36.0220 N   0  0  0  0  0  0  0  0  0  0  0  0
   38.2730   23.5590   38.8700 C   0  0  0  0  0  0  0  0  0  0  0  0
   38.1580   24.7840   38.5730 O   0  0  0  0  0  0  0  0  0  0  0  0
   38.9840   22.5430   38.1690 N   0  0  0  0  0  0  0  0  0  0  0  0
   41.3280   24.3550   33.8310 H   0  0  0  0  0  0  0  0  0  0  0  0
   42.6550   23.3330   35.6090 H   0  0  0  0  0  0  0  0  0  0  0  0
   37.7320   23.3340   39.7870 H   0  0  0  0  0  0  0  0  0  0  0  0
   39.0170   21.5570   38.4980 H   0  0  0  0  0  0  0  0  0  0  0  0
  2  1  2  0  0  0  0
  3 27  1  0  0  0  0
  3  2  1  0  0  0  0
  3  7  1  1  0  0  0
  4  3  1  0  0  0  0
  5  4  1  0  0  0  0
  5 10  1  0  0  0  0
  5  6  1  0  0  0  0
  6  2  1  0  0  0  0
  8  4  1  0  0  0  0
  9  4  1  0  0  0  0
 11  5  1  0  0  0  0
 12  6  1  0  0  0  0
 12 13  1  0  0  0  0
 12 16  1  0  0  0  0
 14 12  1  0  0  0  0
 15 25  2  0  0  0  0
 15 16  1  0  0  0  0
 16 17  2  0  0  0  0
 17 19  1  0  0  0  0
 17 18  1  0  0  0  0
 19 20  1  0  0  0  0
 20 26  1  0  0  0  0
 21 20  1  0  0  0  0
 21 22  1  0  0  0  0
 23 21  2  0  0  0  0
 24 23  1  0  0  0  0
 24 19  2  0  0  0  0
 25 24  1  0  0  0  0
 27 28  1  0  0  0  0
 28 33  1  0  0  0  0
 29 28  2  0  0  0  0
 29 30  1  0  0  0  0
 30 31  2  0  0  0  0
 31 32  1  0  0  0  0
 32 36  1  0  0  0  0
 33 32  2  0  0  0  0
 34 39  1  0  0  0  0
 35 34  2  0  0  0  0
 36 40  1  0  0  0  0
 36 34  1  0  0  0  0
 37 29  1  0  0  0  0
 38 30  1  0  0  0  0
M  END
>  <minimizedAffinity>
-6.01544952

$$$$

 OpenBabel03272506403D

 40 43  0  0  1  0  0  0  0  0999 V2000
   37.3370   27.8420   35.3140 O   0  0  0  0  0  0  0  0  0  0  0  0
   36.9640   27.6560   34.1420 C   0  0  0  0  0  0  0  0  0  0  0  0
   37.5350   26.6070   33.3200 C   0  0  2  0  0  0  0  0  0  0  0  0
   36.6000   26.6730   32.0710 C   0  0  0  0  0  0  0  0  0  0  0  0
   36.1280   28.0900   32.0690 C   0  0  0  0  0  0  0  0  0  0  0  0
   35.9580   28.4280   33.4740 N   0  0  0  0  0  0  0  0  0  0  0  0
   38.5290   26.7500   32.9010 H   0  0  0  0  0  0  0  0  0  0  0  0
   35.7580   25.9930   32.2730 H   0  0  0  0  0  0  0  0  0  0  0  0
   37.1700   26.3990   31.1610 H   0  0  0  0  0  0  0  0  0  0  0  0
   36.8550   28.7970   31.6620 H   0  0  0  0  0  0  0  0  0  0  0  0
   35.1430   28.2140   31.5720 H   0  0  0  0  0  0  0  0  0  0  0  0
   34.9820   29.3470   34.0330 C   0  0  0  0  0  0  0  0  0  0  0  0
   34.6350   28.9650   35.0080 H   0  0  0  0  0  0  0  0  0  0  0  0
   34.1010   29.3330   33.3570 H   0  0  0  0  0  0  0  0  0  0  0  0
   35.7970   31.0870   35.5220 C   0  0  0  0  0  3  0  0  0  0  0  0
   35.5310   30.7110   34.2040 C   0  0  0  0  0  0  0  0  0  0  0  0
   35.7740   31.5700   33.1520 C   0  0  0  0  0  0  0  0  0  0  0  0
   35.5620   31.2580   32.1510 H   0  0  0  0  0  0  0  0  0  0  0  0
   36.2890   32.8230   33.4230 C   0  0  0  0  0  0  0  0  0  0  0  0
   36.6300   33.8730   32.6440 N   0  0  0  0  0  0  0  0  0  0  0  0
   37.0850   34.8500   33.4560 C   0  0  0  0  0  0  0  0  0  0  0  0
   37.4490   35.8380   33.2090 H   0  0  0  0  0  0  0  0  0  0  0  0
   37.0330   34.4230   34.7430 N   0  0  0  0  0  0  0  0  0  0  0  0
   36.5430   33.1710   34.7520 C   0  0  0  0  0  0  0  0  0  0  0  0
   36.3080   32.3260   35.8140 C   0  0  0  0  0  3  0  0  0  0  0  0
   36.5560   33.9230   31.6030 H   0  0  0  0  0  0  0  0  0  0  0  0
   37.3640   25.2910   33.8590 O   0  0  0  0  0  0  0  0  0  0  0  0
   38.4360   24.7470   34.5630 C   0  0  0  0  0  0  0  0  0  0  0  0
   39.6980   25.0180   34.0690 C   0  0  0  0  0  0  0  0  0  0  0  0
   40.7910   24.4890   34.7470 C   0  0  0  0  0  0  0  0  0  0  0  0
   40.5780   23.7380   35.8520 N   0  0  0  0  0  0  0  0  0  0  0  0
   39.3370   23.4820   36.3230 C   0  0  0  0  0  0  0  0  0  0  0  0
   38.3000   23.9880   35.6720 N   0  0  0  0  0  0  0  0  0  0  0  0
   38.4700   23.3870   38.5250 C   0  0  0  0  0  0  0  0  0  0  0  0
   38.0410   24.5780   38.5180 O   0  0  0  0  0  0  0  0  0  0  0  0
   39.1480   22.6860   37.4880 N   0  0  0  0  0  0  0  0  0  0  0  0
   39.8280   25.6210   33.1840 H   0  0  0  0  0  0  0  0  0  0  0  0
   41.7610   24.7010   34.3630 H   0  0  0  0  0  0  0  0  0  0  0  0
   38.2520   22.9070   39.4780 H   0  0  0  0  0  0  0  0  0  0  0  0
   39.4620   21.7000   37.5940 H   0  0  0  0  0  0  0  0  0  0  0  0
  2  1  2  0  0  0  0
  3  7  1  6  0  0  0
  3 27  1  0  0  0  0
  3  2  1  0  0  0  0
  4  8  1  0  0  0  0
  4  3  1  0  0  0  0
  5  4  1  0  0  0  0
  5  6  1  0  0  0  0
  6 12  1  0  0  0  0
  6  2  1  0  0  0  0
  9  4  1  0  0  0  0
 10  5  1  0  0  0  0
 11  5  1  0  0  0  0
 12 16  1  0  0  0  0
 12 13  1  0  0  0  0
 14 12  1  0  0  0  0
 15 25  1  0  0  0  0
 16 15  2  0  0  0  0
 17 19  2  0  0  0  0
 17 16  1  0  0  0  0
 18 17  1  0  0  0  0
 19 24  1  0  0  0  0
 20 19  1  0  0  0  0
 20 21  1  0  0  0  0
 21 23  2  0  0  0  0
 22 21  1  0  0  0  0
 23 24  1  0  0  0  0
 24 25  2  0  0  0  0
 26 20  1  0  0  0  0
 27 28  1  0  0  0  0
 28 33  1  0  0  0  0
 29 28  2  0  0  0  0
 29 30  1  0  0  0  0
 30 31  2  0  0  0  0
 31 32  1  0  0  0  0
 32 36  1  0  0  0  0
 33 32  2  0  0  0  0
 34 39  1  0  0  0  0
 35 34  2  0  0  0  0
 36 40  1  0  0  0  0
 36 34  1  0  0  0  0
 37 29  1  0  0  0  0
 38 30  1  0  0  0  0
M  END
>  <minimizedAffinity>
-5.942523

$$$$

 OpenBabel03272506403D

 40 43  0  0  1  0  0  0  0  0999 V2000
   36.1620   28.2280   34.4600 O   0  0  0  0  0  0  0  0  0  0  0  0
   35.9710   28.9720   33.4820 C   0  0  0  0  0  0  0  0  0  0  0  0
   35.2220   30.2080   33.6010 C   0  0  2  0  0  0  0  0  0  0  0  0
   35.4570   30.8300   32.1890 C   0  0  0  0  0  0  0  0  0  0  0  0
   35.6910   29.6360   31.3220 C   0  0  0  0  0  0  0  0  0  0  0  0
   36.4470   28.7130   32.1550 N   0  0  0  0  0  0  0  0  0  0  0  0
   34.1380   30.1600   33.6810 H   0  0  0  0  0  0  0  0  0  0  0  0
   36.3750   31.4330   32.2600 H   0  0  0  0  0  0  0  0  0  0  0  0
   34.5700   31.4230   31.8880 H   0  0  0  0  0  0  0  0  0  0  0  0
   34.7760   29.1160   31.0290 H   0  0  0  0  0  0  0  0  0  0  0  0
   36.3100   29.8680   30.4300 H   0  0  0  0  0  0  0  0  0  0  0  0
   37.4470   27.7590   31.7070 C   0  0  0  0  0  0  0  0  0  0  0  0
   38.3320   27.8210   32.3610 H   0  0  0  0  0  0  0  0  0  0  0  0
   37.7760   28.0870   30.6980 H   0  0  0  0  0  0  0  0  0  0  0  0
   35.7240   26.1850   31.0270 C   0  0  0  0  0  3  0  0  0  0  0  0
   36.9320   26.3720   31.7020 C   0  0  0  0  0  0  0  0  0  0  0  0
   37.5800   25.3170   32.3120 C   0  0  0  0  0  0  0  0  0  0  0  0
   38.5050   25.4860   32.8230 H   0  0  0  0  0  0  0  0  0  0  0  0
   37.0110   24.0600   32.2470 C   0  0  0  0  0  0  0  0  0  0  0  0
   37.3790   22.8520   32.7260 N   0  0  0  0  0  0  0  0  0  0  0  0
   36.4300   21.9640   32.3570 C   0  0  0  0  0  0  0  0  0  0  0  0
   36.3690   20.9010   32.5500 H   0  0  0  0  0  0  0  0  0  0  0  0
   35.4680   22.6050   31.6480 N   0  0  0  0  0  0  0  0  0  0  0  0
   35.8020   23.9060   31.5660 C   0  0  0  0  0  0  0  0  0  0  0  0
   35.1420   24.9460   30.9500 C   0  0  0  0  0  3  0  0  0  0  0  0
   38.2380   22.6380   33.2800 H   0  0  0  0  0  0  0  0  0  0  0  0
   35.7880   31.1400   34.5310 O   0  0  0  0  0  0  0  0  0  0  0  0
   34.9640   31.5970   35.5570 C   0  0  0  0  0  0  0  0  0  0  0  0
   35.3330   32.7860   36.1590 C   0  0  0  0  0  0  0  0  0  0  0  0
   34.5330   33.2710   37.1870 C   0  0  0  0  0  0  0  0  0  0  0  0
   33.4370   32.5680   37.5560 N   0  0  0  0  0  0  0  0  0  0  0  0
   33.0900   31.4060   36.9570 C   0  0  0  0  0  0  0  0  0  0  0  0
   33.8560   30.9490   35.9780 N   0  0  0  0  0  0  0  0  0  0  0  0
   30.9870   30.5240   36.3170 C   0  0  0  0  0  0  0  0  0  0  0  0
   31.0680   30.9250   35.1200 O   0  0  0  0  0  0  0  0  0  0  0  0
   31.9310   30.6900   37.3700 N   0  0  0  0  0  0  0  0  0  0  0  0
   36.2140   33.3180   35.8380 H   0  0  0  0  0  0  0  0  0  0  0  0
   34.8210   34.1870   37.6470 H   0  0  0  0  0  0  0  0  0  0  0  0
   30.0500   29.9950   36.4820 H   0  0  0  0  0  0  0  0  0  0  0  0
   31.7690   30.3200   38.3290 H   0  0  0  0  0  0  0  0  0  0  0  0
  2  3  1  0  0  0  0
  2  1  2  0  0  0  0
  3  7  1  1  0  0  0
  3 27  1  0  0  0  0
  4  8  1  0  0  0  0
  4  3  1  0  0  0  0
  5  6  1  0  0  0  0
  5  4  1  0  0  0  0
  6  2  1  0  0  0  0
  9  4  1  0  0  0  0
 10  5  1  0  0  0  0
 11  5  1  0  0  0  0
 12  6  1  0  0  0  0
 12 13  1  0  0  0  0
 14 12  1  0  0  0  0
 15 16  1  0  0  0  0
 16 12  1  0  0  0  0
 16 17  2  0  0  0  0
 17 18  1  0  0  0  0
 19 17  1  0  0  0  0
 19 20  1  0  0  0  0
 20 26  1  0  0  0  0
 21 22  1  0  0  0  0
 21 20  1  0  0  0  0
 23 21  2  0  0  0  0
 24 23  1  0  0  0  0
 24 19  2  0  0  0  0
 25 15  2  0  0  0  0
 25 24  1  0  0  0  0
 27 28  1  0  0  0  0
 28 33  2  0  0  0  0
 28 29  1  0  0  0  0
 29 30  2  0  0  0  0
 30 31  1  0  0  0  0
 30 38  1  0  0  0  0
 32 36  1  0  0  0  0
 32 31  2  0  0  0  0
 33 32  1  0  0  0  0
 34 39  1  0  0  0  0
 34 36  1  0  0  0  0
 35 34  2  0  0  0  0
 36 40  1  0  0  0  0
 37 29  1  0  0  0  0
M  END
>  <minimizedAffinity>
-5.91266012

$$$$

 OpenBabel03272506403D

 40 43  0  0  1  0  0  0  0  0999 V2000
   37.1340   26.1360   34.7360 O   0  0  0  0  0  0  0  0  0  0  0  0
   38.0030   26.3280   33.8660 C   0  0  0  0  0  0  0  0  0  0  0  0
   39.3380   25.7770   33.9900 C   0  0  2  0  0  0  0  0  0  0  0  0
   39.9300   26.1220   32.5880 C   0  0  0  0  0  0  0  0  0  0  0  0
   39.1520   27.3290   32.1740 C   0  0  0  0  0  0  0  0  0  0  0  0
   37.8050   27.0920   32.6700 N   0  0  0  0  0  0  0  0  0  0  0  0
   40.0370   26.2430   34.6820 H   0  0  0  0  0  0  0  0  0  0  0  0
   39.6900   25.2730   31.9290 H   0  0  0  0  0  0  0  0  0  0  0  0
   41.0180   26.3100   32.6760 H   0  0  0  0  0  0  0  0  0  0  0  0
   39.4970   28.2570   32.6380 H   0  0  0  0  0  0  0  0  0  0  0  0
   39.0910   27.4430   31.0720 H   0  0  0  0  0  0  0  0  0  0  0  0
   36.5650   27.5460   32.0640 C   0  0  0  0  0  0  0  0  0  0  0  0
   35.8760   27.8910   32.8530 H   0  0  0  0  0  0  0  0  0  0  0  0
   36.0900   26.6570   31.5970 H   0  0  0  0  0  0  0  0  0  0  0  0
   36.4420   29.9140   31.5320 C   0  0  0  0  0  3  0  0  0  0  0  0
   36.7870   28.6360   31.0880 C   0  0  0  0  0  0  0  0  0  0  0  0
   37.2970   28.4330   29.8220 C   0  0  0  0  0  0  0  0  0  0  0  0
   37.5540   27.4430   29.5060 H   0  0  0  0  0  0  0  0  0  0  0  0
   37.4640   29.5230   28.9900 C   0  0  0  0  0  0  0  0  0  0  0  0
   37.9260   29.6620   27.7280 N   0  0  0  0  0  0  0  0  0  0  0  0
   37.8630   30.9740   27.4160 C   0  0  0  0  0  0  0  0  0  0  0  0
   38.1420   31.4780   26.5000 H   0  0  0  0  0  0  0  0  0  0  0  0
   37.3660   31.6630   28.4730 N   0  0  0  0  0  0  0  0  0  0  0  0
   37.1100   30.7880   29.4620 C   0  0  0  0  0  0  0  0  0  0  0  0
   36.6000   31.0100   30.7230 C   0  0  0  0  0  3  0  0  0  0  0  0
   38.2680   28.8970   27.1040 H   0  0  0  0  0  0  0  0  0  0  0  0
   39.3690   24.3470   34.0800 O   0  0  0  0  0  0  0  0  0  0  0  0
   39.8590   23.7920   35.2600 C   0  0  0  0  0  0  0  0  0  0  0  0
   41.2230   23.5690   35.3150 C   0  0  0  0  0  0  0  0  0  0  0  0
   41.7460   23.0150   36.4780 C   0  0  0  0  0  0  0  0  0  0  0  0
   40.9080   22.7180   37.4990 N   0  0  0  0  0  0  0  0  0  0  0  0
   39.5770   22.9430   37.4300 C   0  0  0  0  0  0  0  0  0  0  0  0
   39.0840   23.4700   36.3180 N   0  0  0  0  0  0  0  0  0  0  0  0
   38.0240   23.7500   39.0240 C   0  0  0  0  0  0  0  0  0  0  0  0
   38.0790   24.9490   38.6230 O   0  0  0  0  0  0  0  0  0  0  0  0
   38.7240   22.6170   38.5220 N   0  0  0  0  0  0  0  0  0  0  0  0
   41.8580   23.8190   34.4800 H   0  0  0  0  0  0  0  0  0  0  0  0
   42.7960   22.8460   36.5160 H   0  0  0  0  0  0  0  0  0  0  0  0
   37.3320   23.6570   39.8600 H   0  0  0  0  0  0  0  0  0  0  0  0
   38.6080   21.6650   38.9250 H   0  0  0  0  0  0  0  0  0  0  0  0
  2  3  1  0  0  0  0
  2  1  2  0  0  0  0
  3 27  1  0  0  0  0
  3  7  1  1  0  0  0
  4  9  1  0  0  0  0
  4  3  1  0  0  0  0
  5  4  1  0  0  0  0
  5 10  1  0  0  0  0
  5  6  1  0  0  0  0
  6  2  1  0  0  0  0
  8  4  1  0  0  0  0
 11  5  1  0  0  0  0
 12  6  1  0  0  0  0
 12 13  1  0  0  0  0
 14 12  1  0  0  0  0
 16 15  1  0  0  0  0
 16 12  1  0  0  0  0
 17 16  2  0  0  0  0
 18 17  1  0  0  0  0
 19 24  2  0  0  0  0
 19 17  1  0  0  0  0
 20 19  1  0  0  0  0
 21 20  1  0  0  0  0
 21 23  2  0  0  0  0
 22 21  1  0  0  0  0
 23 24  1  0  0  0  0
 24 25  1  0  0  0  0
 25 15  2  0  0  0  0
 26 20  1  0  0  0  0
 27 28  1  0  0  0  0
 28 29  2  0  0  0  0
 28 33  1  0  0  0  0
 29 30  1  0  0  0  0
 30 38  1  0  0  0  0
 30 31  2  0  0  0  0
 32 31  1  0  0  0  0
 32 36  1  0  0  0  0
 33 32  2  0  0  0  0
 34 39  1  0  0  0  0
 35 34  2  0  0  0  0
 36 40  1  0  0  0  0
 36 34  1  0  0  0  0
 37 29  1  0  0  0  0
M  END
>  <minimizedAffinity>
-5.78883934

$$$$

 OpenBabel03272506403D

 40 43  0  0  1  0  0  0  0  0999 V2000
   36.8590   28.8590   35.1900 O   0  0  0  0  0  0  0  0  0  0  0  0
   36.6170   28.4270   34.0480 C   0  0  0  0  0  0  0  0  0  0  0  0
   37.2330   27.2130   33.5490 C   0  0  2  0  0  0  0  0  0  0  0  0
   36.4540   27.0180   32.2110 C   0  0  0  0  0  0  0  0  0  0  0  0
   36.0480   28.4080   31.8440 C   0  0  0  0  0  0  0  0  0  0  0  0
   35.7310   29.0500   33.1110 N   0  0  0  0  0  0  0  0  0  0  0  0
   38.2740   27.2430   33.2350 H   0  0  0  0  0  0  0  0  0  0  0  0
   35.5650   26.4140   32.4510 H   0  0  0  0  0  0  0  0  0  0  0  0
   37.1130   26.5410   31.4590 H   0  0  0  0  0  0  0  0  0  0  0  0
   36.8470   28.9960   31.3870 H   0  0  0  0  0  0  0  0  0  0  0  0
   35.1340   28.4360   31.2150 H   0  0  0  0  0  0  0  0  0  0  0  0
   34.7380   30.0870   33.3340 C   0  0  0  0  0  0  0  0  0  0  0  0
   34.5180   30.5960   32.3800 H   0  0  0  0  0  0  0  0  0  0  0  0
   35.2050   30.8450   33.9960 H   0  0  0  0  0  0  0  0  0  0  0  0
   32.5410   29.1110   32.9720 C   0  0  0  0  0  3  0  0  0  0  0  0
   33.4840   29.5450   33.9050 C   0  0  0  0  0  0  0  0  0  0  0  0
   33.2390   29.4640   35.2610 C   0  0  0  0  0  0  0  0  0  0  0  0
   33.9780   29.8040   35.9560 H   0  0  0  0  0  0  0  0  0  0  0  0
   32.0330   28.9410   35.6880 C   0  0  0  0  0  0  0  0  0  0  0  0
   31.4970   28.7300   36.9090 N   0  0  0  0  0  0  0  0  0  0  0  0
   30.2740   28.1870   36.7260 C   0  0  0  0  0  0  0  0  0  0  0  0
   29.5400   27.8780   37.4590 H   0  0  0  0  0  0  0  0  0  0  0  0
   30.0370   28.0550   35.3970 N   0  0  0  0  0  0  0  0  0  0  0  0
   31.1100   28.5160   34.7300 C   0  0  0  0  0  0  0  0  0  0  0  0
   31.3390   28.5880   33.3740 C   0  0  0  0  0  3  0  0  0  0  0  0
   31.9420   28.9450   37.8290 H   0  0  0  0  0  0  0  0  0  0  0  0
   36.9430   26.0510   34.3360 O   0  0  0  0  0  0  0  0  0  0  0  0
   38.0270   25.3320   34.8350 C   0  0  0  0  0  0  0  0  0  0  0  0
   39.2530   25.5790   34.2450 C   0  0  0  0  0  0  0  0  0  0  0  0
   40.3560   24.8780   34.7190 C   0  0  0  0  0  0  0  0  0  0  0  0
   40.1890   23.9910   35.7280 N   0  0  0  0  0  0  0  0  0  0  0  0
   38.9830   23.7610   36.2940 C   0  0  0  0  0  0  0  0  0  0  0  0
   37.9350   24.4320   35.8380 N   0  0  0  0  0  0  0  0  0  0  0  0
   38.3330   23.4100   38.5440 C   0  0  0  0  0  0  0  0  0  0  0  0
   38.0140   24.6180   38.7480 O   0  0  0  0  0  0  0  0  0  0  0  0
   38.8410   22.8200   37.3520 N   0  0  0  0  0  0  0  0  0  0  0  0
   39.3480   26.2930   33.4440 H   0  0  0  0  0  0  0  0  0  0  0  0
   41.2980   25.0720   34.2630 H   0  0  0  0  0  0  0  0  0  0  0  0
   38.1700   22.8140   39.4400 H   0  0  0  0  0  0  0  0  0  0  0  0
   39.0740   21.8080   37.2860 H   0  0  0  0  0  0  0  0  0  0  0  0
  2  1  2  0  0  0  0
  3  7  1  6  0  0  0
  3  2  1  0  0  0  0
  3 27  1  0  0  0  0
  4  8  1  0  0  0  0
  4  3  1  0  0  0  0
  5  4  1  0  0  0  0
  5  6  1  0  0  0  0
  6 12  1  0  0  0  0
  6  2  1  0  0  0  0
  9  4  1  0  0  0  0
 10  5  1  0  0  0  0
 11  5  1  0  0  0  0
 12 16  1  0  0  0  0
 12 14  1  0  0  0  0
 13 12  1  0  0  0  0
 15 25  2  0  0  0  0
 15 16  1  0  0  0  0
 16 17  2  0  0  0  0
 17 19  1  0  0  0  0
 17 18  1  0  0  0  0
 19 20  1  0  0  0  0
 20 26  1  0  0  0  0
 21 20  1  0  0  0  0
 21 22  1  0  0  0  0
 23 21  2  0  0  0  0
 24 23  1  0  0  0  0
 24 19  2  0  0  0  0
 25 24  1  0  0  0  0
 27 28  1  0  0  0  0
 28 33  1  0  0  0  0
 29 30  1  0  0  0  0
 29 28  2  0  0  0  0
 30 31  2  0  0  0  0
 31 32  1  0  0  0  0
 32 36  1  0  0  0  0
 33 32  2  0  0  0  0
 34 35  2  0  0  0  0
 34 39  1  0  0  0  0
 36 34  1  0  0  0  0
 37 29  1  0  0  0  0
 38 30  1  0  0  0  0
 40 36  1  0  0  0  0
M  END
>  <minimizedAffinity>
-5.7183814

$$$$

 OpenBabel03272506403D

 40 43  0  0  1  0  0  0  0  0999 V2000
   37.3620   26.0380   34.9500 O   0  0  0  0  0  0  0  0  0  0  0  0
   38.0960   26.2460   33.9670 C   0  0  0  0  0  0  0  0  0  0  0  0
   39.4490   25.7300   33.9050 C   0  0  2  0  0  0  0  0  0  0  0  0
   39.8300   26.0810   32.4330 C   0  0  0  0  0  0  0  0  0  0  0  0
   38.9720   27.2660   32.1290 C   0  0  0  0  0  0  0  0  0  0  0  0
   37.7130   26.9980   32.8080 N   0  0  0  0  0  0  0  0  0  0  0  0
   40.2250   26.2180   34.4920 H   0  0  0  0  0  0  0  0  0  0  0  0
   39.5230   25.2220   31.8160 H   0  0  0  0  0  0  0  0  0  0  0  0
   40.9150   26.2970   32.3670 H   0  0  0  0  0  0  0  0  0  0  0  0
   39.3540   28.2040   32.5370 H   0  0  0  0  0  0  0  0  0  0  0  0
   38.7540   27.3710   31.0460 H   0  0  0  0  0  0  0  0  0  0  0  0
   36.3900   27.4170   32.3800 C   0  0  0  0  0  0  0  0  0  0  0  0
   35.6320   26.7590   32.8360 H   0  0  0  0  0  0  0  0  0  0  0  0
   36.3370   27.2470   31.2840 H   0  0  0  0  0  0  0  0  0  0  0  0
   35.7130   29.0350   34.0630 C   0  0  0  0  0  3  0  0  0  0  0  0
   36.1060   28.8240   32.7400 C   0  0  0  0  0  0  0  0  0  0  0  0
   36.2130   29.8740   31.8500 C   0  0  0  0  0  0  0  0  0  0  0  0
   36.5150   29.6860   30.8410 H   0  0  0  0  0  0  0  0  0  0  0  0
   35.9230   31.1500   32.2910 C   0  0  0  0  0  0  0  0  0  0  0  0
   35.9290   32.3610   31.6910 N   0  0  0  0  0  0  0  0  0  0  0  0
   35.5540   33.2720   32.6130 C   0  0  0  0  0  0  0  0  0  0  0  0
   35.4390   34.3440   32.5160 H   0  0  0  0  0  0  0  0  0  0  0  0
   35.3130   32.6450   33.7910 N   0  0  0  0  0  0  0  0  0  0  0  0
   35.5330   31.3290   33.6200 C   0  0  0  0  0  0  0  0  0  0  0  0
   35.4210   30.2930   34.5220 C   0  0  0  0  0  3  0  0  0  0  0  0
   36.1760   32.5590   30.6960 H   0  0  0  0  0  0  0  0  0  0  0  0
   39.5280   24.3020   33.9930 O   0  0  0  0  0  0  0  0  0  0  0  0
   39.9870   23.7610   35.1920 C   0  0  0  0  0  0  0  0  0  0  0  0
   41.3500   23.5450   35.2880 C   0  0  0  0  0  0  0  0  0  0  0  0
   41.8420   23.0050   36.4710 C   0  0  0  0  0  0  0  0  0  0  0  0
   40.9770   22.7150   37.4710 N   0  0  0  0  0  0  0  0  0  0  0  0
   39.6470   22.9330   37.3620 C   0  0  0  0  0  0  0  0  0  0  0  0
   39.1840   23.4470   36.2320 N   0  0  0  0  0  0  0  0  0  0  0  0
   38.0460   23.7500   38.9040 C   0  0  0  0  0  0  0  0  0  0  0  0
   38.1070   24.9440   38.4910 O   0  0  0  0  0  0  0  0  0  0  0  0
   38.7650   22.6140   38.4320 N   0  0  0  0  0  0  0  0  0  0  0  0
   42.0070   23.7880   34.4690 H   0  0  0  0  0  0  0  0  0  0  0  0
   42.8910   22.8410   36.5400 H   0  0  0  0  0  0  0  0  0  0  0  0
   37.3320   23.6620   39.7210 H   0  0  0  0  0  0  0  0  0  0  0  0
   38.6420   21.6660   38.8420 H   0  0  0  0  0  0  0  0  0  0  0  0
  2  1  2  0  0  0  0
  3  2  1  0  0  0  0
  3 27  1  0  0  0  0
  3  7  1  1  0  0  0
  4  3  1  0  0  0  0
  5  4  1  0  0  0  0
  5 10  1  0  0  0  0
  5  6  1  0  0  0  0
  6  2  1  0  0  0  0
  8  4  1  0  0  0  0
  9  4  1  0  0  0  0
 11  5  1  0  0  0  0
 12 16  1  0  0  0  0
 12  6  1  0  0  0  0
 12 13  1  0  0  0  0
 14 12  1  0  0  0  0
 15 25  1  0  0  0  0
 16 15  2  0  0  0  0
 17 19  2  0  0  0  0
 17 16  1  0  0  0  0
 18 17  1  0  0  0  0
 19 24  1  0  0  0  0
 20 19  1  0  0  0  0
 20 21  1  0  0  0  0
 21 23  2  0  0  0  0
 22 21  1  0  0  0  0
 24 23  1  0  0  0  0
 24 25  2  0  0  0  0
 26 20  1  0  0  0  0
 27 28  1  0  0  0  0
 28 29  2  0  0  0  0
 28 33  1  0  0  0  0
 29 30  1  0  0  0  0
 30 38  1  0  0  0  0
 30 31  2  0  0  0  0
 32 31  1  0  0  0  0
 32 36  1  0  0  0  0
 33 32  2  0  0  0  0
 34 39  1  0  0  0  0
 35 34  2  0  0  0  0
 36 40  1  0  0  0  0
 36 34  1  0  0  0  0
 37 29  1  0  0  0  0
M  END
>  <minimizedAffinity>
-5.68244743

$$$$

 OpenBabel03272506403D

 40 43  0  0  1  0  0  0  0  0999 V2000
   39.4370   27.5250   31.7030 O   0  0  0  0  0  0  0  0  0  0  0  0
   38.4760   26.7410   31.7990 C   0  0  0  0  0  0  0  0  0  0  0  0
   38.5170   25.5920   32.6830 C   0  0  2  0  0  0  0  0  0  0  0  0
   37.0420   25.0940   32.5850 C   0  0  0  0  0  0  0  0  0  0  0  0
   36.6070   25.5680   31.2360 C   0  0  0  0  0  0  0  0  0  0  0  0
   37.2460   26.8650   31.0740 N   0  0  0  0  0  0  0  0  0  0  0  0
   39.1000   24.7220   32.3870 H   0  0  0  0  0  0  0  0  0  0  0  0
   36.4790   25.6210   33.3710 H   0  0  0  0  0  0  0  0  0  0  0  0
   37.0100   23.9920   32.6930 H   0  0  0  0  0  0  0  0  0  0  0  0
   36.9590   24.9410   30.4130 H   0  0  0  0  0  0  0  0  0  0  0  0
   35.5100   25.7220   31.1680 H   0  0  0  0  0  0  0  0  0  0  0  0
   36.7260   28.0030   30.3350 C   0  0  0  0  0  0  0  0  0  0  0  0
   35.8500   27.6860   29.7440 H   0  0  0  0  0  0  0  0  0  0  0  0
   37.5090   28.2990   29.6060 H   0  0  0  0  0  0  0  0  0  0  0  0
   36.7310   30.3900   30.7930 C   0  0  0  0  0  3  0  0  0  0  0  0
   36.3430   29.1200   31.2260 C   0  0  0  0  0  0  0  0  0  0  0  0
   35.6510   28.9490   32.4080 C   0  0  0  0  0  0  0  0  0  0  0  0
   35.3650   27.9650   32.7180 H   0  0  0  0  0  0  0  0  0  0  0  0
   35.3440   30.0620   33.1660 C   0  0  0  0  0  0  0  0  0  0  0  0
   34.6950   30.2340   34.3380 N   0  0  0  0  0  0  0  0  0  0  0  0
   34.6900   31.5570   34.6080 C   0  0  0  0  0  0  0  0  0  0  0  0
   34.2680   32.0860   35.4530 H   0  0  0  0  0  0  0  0  0  0  0  0
   35.3300   32.2200   33.6130 N   0  0  0  0  0  0  0  0  0  0  0  0
   35.7460   31.3180   32.7060 C   0  0  0  0  0  0  0  0  0  0  0  0
   36.4370   31.5080   31.5290 C   0  0  0  0  0  3  0  0  0  0  0  0
   34.2740   29.4840   34.9310 H   0  0  0  0  0  0  0  0  0  0  0  0
   38.7190   25.9290   34.0610 O   0  0  0  0  0  0  0  0  0  0  0  0
   39.3590   24.9860   34.8610 C   0  0  0  0  0  0  0  0  0  0  0  0
   40.7150   24.8190   34.6500 C   0  0  0  0  0  0  0  0  0  0  0  0
   41.3860   23.8840   35.4320 C   0  0  0  0  0  0  0  0  0  0  0  0
   40.6920   23.1820   36.3580 N   0  0  0  0  0  0  0  0  0  0  0  0
   39.3660   23.3570   36.5520 C   0  0  0  0  0  0  0  0  0  0  0  0
   38.7320   24.2490   35.8040 N   0  0  0  0  0  0  0  0  0  0  0  0
   38.0510   23.4230   38.5210 C   0  0  0  0  0  0  0  0  0  0  0  0
   38.0620   24.6850   38.6100 O   0  0  0  0  0  0  0  0  0  0  0  0
   38.6660   22.6010   37.5340 N   0  0  0  0  0  0  0  0  0  0  0  0
   41.2340   25.3960   33.9020 H   0  0  0  0  0  0  0  0  0  0  0  0
   42.4300   23.7600   35.2660 H   0  0  0  0  0  0  0  0  0  0  0  0
   37.4780   22.9860   39.3370 H   0  0  0  0  0  0  0  0  0  0  0  0
   38.5960   21.5640   37.5500 H   0  0  0  0  0  0  0  0  0  0  0  0
  1  2  2  0  0  0  0
  2  3  1  0  0  0  0
  3  7  1  6  0  0  0
  3 27  1  0  0  0  0
  4  3  1  0  0  0  0
  4  9  1  0  0  0  0
  4  8  1  0  0  0  0
  5  4  1  0  0  0  0
  6  5  1  0  0  0  0
  6  2  1  0  0  0  0
 10  5  1  0  0  0  0
 11  5  1  0  0  0  0
 12  6  1  0  0  0  0
 12 16  1  0  0  0  0
 13 12  1  0  0  0  0
 14 12  1  0  0  0  0
 15 16  2  0  0  0  0
 15 25  1  0  0  0  0
 16 17  1  0  0  0  0
 17 18  1  0  0  0  0
 17 19  2  0  0  0  0
 19 20  1  0  0  0  0
 20 21  1  0  0  0  0
 20 26  1  0  0  0  0
 21 22  1  0  0  0  0
 23 21  2  0  0  0  0
 24 19  1  0  0  0  0
 24 23  1  0  0  0  0
 25 24  2  0  0  0  0
 27 28  1  0  0  0  0
 28 33  1  0  0  0  0
 29 28  2  0  0  0  0
 29 30  1  0  0  0  0
 30 31  2  0  0  0  0
 31 32  1  0  0  0  0
 32 36  1  0  0  0  0
 33 32  2  0  0  0  0
 34 35  2  0  0  0  0
 34 39  1  0  0  0  0
 36 40  1  0  0  0  0
 36 34  1  0  0  0  0
 37 29  1  0  0  0  0
 38 30  1  0  0  0  0
M  END
>  <minimizedAffinity>
-5.56418514

$$$$

 OpenBabel03272506403D

 40 43  0  0  1  0  0  0  0  0999 V2000
   37.0170   28.2270   35.2110 O   0  0  0  0  0  0  0  0  0  0  0  0
   36.4720   28.2970   34.0950 C   0  0  0  0  0  0  0  0  0  0  0  0
   35.2830   29.0990   33.8800 C   0  0  2  0  0  0  0  0  0  0  0  0
   35.1470   29.0110   32.3280 C   0  0  0  0  0  0  0  0  0  0  0  0
   35.8070   27.7110   31.9980 C   0  0  0  0  0  0  0  0  0  0  0  0
   36.9290   27.6190   32.9190 N   0  0  0  0  0  0  0  0  0  0  0  0
   34.3260   28.7270   34.2400 H   0  0  0  0  0  0  0  0  0  0  0  0
   35.7310   29.8480   31.9140 H   0  0  0  0  0  0  0  0  0  0  0  0
   34.0770   29.0440   32.0420 H   0  0  0  0  0  0  0  0  0  0  0  0
   35.1780   26.8370   32.1830 H   0  0  0  0  0  0  0  0  0  0  0  0
   36.2150   27.6870   30.9660 H   0  0  0  0  0  0  0  0  0  0  0  0
   38.2070   26.9750   32.6680 C   0  0  0  0  0  0  0  0  0  0  0  0
   39.0220   27.6240   33.0300 H   0  0  0  0  0  0  0  0  0  0  0  0
   38.3240   26.9090   31.5650 H   0  0  0  0  0  0  0  0  0  0  0  0
   37.6700   24.6050   32.6420 C   0  0  0  0  0  3  0  0  0  0  0  0
   38.3030   25.6500   33.3190 C   0  0  0  0  0  0  0  0  0  0  0  0
   38.9640   25.4340   34.5110 C   0  0  0  0  0  0  0  0  0  0  0  0
   39.4400   26.2510   35.0100 H   0  0  0  0  0  0  0  0  0  0  0  0
   38.9920   24.1550   35.0330 C   0  0  0  0  0  0  0  0  0  0  0  0
   39.5370   23.6220   36.1480 N   0  0  0  0  0  0  0  0  0  0  0  0
   39.2470   22.3030   36.1490 C   0  0  0  0  0  0  0  0  0  0  0  0
   39.5090   21.5410   36.8720 H   0  0  0  0  0  0  0  0  0  0  0  0
   38.5240   22.0010   35.0420 N   0  0  0  0  0  0  0  0  0  0  0  0
   38.3500   23.1310   34.3330 C   0  0  0  0  0  0  0  0  0  0  0  0
   37.6860   23.3280   33.1420 C   0  0  0  0  0  3  0  0  0  0  0  0
   40.0830   24.1320   36.8770 H   0  0  0  0  0  0  0  0  0  0  0  0
   35.4620   30.4900   34.1720 O   0  0  0  0  0  0  0  0  0  0  0  0
   34.7900   31.0000   35.2810 C   0  0  0  0  0  0  0  0  0  0  0  0
   35.4420   31.9920   35.9920 C   0  0  0  0  0  0  0  0  0  0  0  0
   34.8010   32.5240   37.1050 C   0  0  0  0  0  0  0  0  0  0  0  0
   33.5780   32.0550   37.4460 N   0  0  0  0  0  0  0  0  0  0  0  0
   32.9540   31.0850   36.7400 C   0  0  0  0  0  0  0  0  0  0  0  0
   33.5700   30.5820   35.6800 N   0  0  0  0  0  0  0  0  0  0  0  0
   30.6900   30.7970   36.1090 C   0  0  0  0  0  0  0  0  0  0  0  0
   30.8380   31.3070   34.9600 O   0  0  0  0  0  0  0  0  0  0  0  0
   31.6680   30.6130   37.1270 N   0  0  0  0  0  0  0  0  0  0  0  0
   36.4170   32.3390   35.6900 H   0  0  0  0  0  0  0  0  0  0  0  0
   35.3060   33.2870   37.6480 H   0  0  0  0  0  0  0  0  0  0  0  0
   29.6580   30.4830   36.2590 H   0  0  0  0  0  0  0  0  0  0  0  0
   31.4430   30.1800   38.0450 H   0  0  0  0  0  0  0  0  0  0  0  0
  2  1  2  0  0  0  0
  3  2  1  0  0  0  0
  3 27  1  0  0  0  0
  3  7  1  1  0  0  0
  4  3  1  0  0  0  0
  5 10  1  0  0  0  0
  5  4  1  0  0  0  0
  5  6  1  0  0  0  0
  6  2  1  0  0  0  0
  8  4  1  0  0  0  0
  9  4  1  0  0  0  0
 11  5  1  0  0  0  0
 12  6  1  0  0  0  0
 12 13  1  0  0  0  0
 12 16  1  0  0  0  0
 14 12  1  0  0  0  0
 15 25  2  0  0  0  0
 15 16  1  0  0  0  0
 16 17  2  0  0  0  0
 17 18  1  0  0  0  0
 17 19  1  0  0  0  0
 19 20  1  0  0  0  0
 20 21  1  0  0  0  0
 20 26  1  0  0  0  0
 21 22  1  0  0  0  0
 23 21  2  0  0  0  0
 24 19  2  0  0  0  0
 24 23  1  0  0  0  0
 25 24  1  0  0  0  0
 27 28  1  0  0  0  0
 28 33  2  0  0  0  0
 28 29  1  0  0  0  0
 29 30  2  0  0  0  0
 30 31  1  0  0  0  0
 30 38  1  0  0  0  0
 32 36  1  0  0  0  0
 32 31  2  0  0  0  0
 33 32  1  0  0  0  0
 34 39  1  0  0  0  0
 34 36  1  0  0  0  0
 35 34  2  0  0  0  0
 36 40  1  0  0  0  0
 37 29  1  0  0  0  0
M  END
>  <minimizedAffinity>
-5.55879736

$$$$

 OpenBabel03272506403D

 40 43  0  0  1  0  0  0  0  0999 V2000
   38.0980   25.8910   33.0630 O   0  0  0  0  0  0  0  0  0  0  0  0
   37.2840   25.1800   32.4480 C   0  0  0  0  0  0  0  0  0  0  0  0
   36.1540   25.7540   31.7420 C   0  0  2  0  0  0  0  0  0  0  0  0
   35.6040   24.4970   30.9980 C   0  0  0  0  0  0  0  0  0  0  0  0
   36.0380   23.3640   31.8710 C   0  0  0  0  0  0  0  0  0  0  0  0
   37.3520   23.7520   32.3590 N   0  0  0  0  0  0  0  0  0  0  0  0
   35.2990   26.1040   32.3160 H   0  0  0  0  0  0  0  0  0  0  0  0
   36.1270   24.4510   30.0310 H   0  0  0  0  0  0  0  0  0  0  0  0
   34.5040   24.5740   30.8940 H   0  0  0  0  0  0  0  0  0  0  0  0
   35.4070   23.2180   32.7520 H   0  0  0  0  0  0  0  0  0  0  0  0
   36.1530   22.4120   31.3120 H   0  0  0  0  0  0  0  0  0  0  0  0
   38.4570   22.8630   32.6770 C   0  0  0  0  0  0  0  0  0  0  0  0
   39.3350   23.1370   32.0680 H   0  0  0  0  0  0  0  0  0  0  0  0
   38.1540   21.8440   32.3540 H   0  0  0  0  0  0  0  0  0  0  0  0
   40.1850   22.9500   34.3840 C   0  0  0  0  0  3  0  0  0  0  0  0
   38.8160   22.9090   34.1120 C   0  0  0  0  0  0  0  0  0  0  0  0
   37.8850   22.9110   35.1300 C   0  0  0  0  0  0  0  0  0  0  0  0
   36.8410   22.8790   34.8950 H   0  0  0  0  0  0  0  0  0  0  0  0
   38.3290   22.9550   36.4370 C   0  0  0  0  0  0  0  0  0  0  0  0
   37.6950   22.9700   37.6300 N   0  0  0  0  0  0  0  0  0  0  0  0
   38.6430   23.0180   38.5910 C   0  0  0  0  0  0  0  0  0  0  0  0
   38.5320   23.0420   39.6670 H   0  0  0  0  0  0  0  0  0  0  0  0
   39.8690   23.0340   38.0110 N   0  0  0  0  0  0  0  0  0  0  0  0
   39.7040   22.9960   36.6770 C   0  0  0  0  0  0  0  0  0  0  0  0
   40.6480   22.9950   35.6730 C   0  0  0  0  0  3  0  0  0  0  0  0
   36.6630   22.9470   37.7850 H   0  0  0  0  0  0  0  0  0  0  0  0
   36.5240   26.6790   30.7130 O   0  0  0  0  0  0  0  0  0  0  0  0
   36.3280   28.0340   30.9720 C   0  0  0  0  0  0  0  0  0  0  0  0
   36.8080   28.9170   30.0220 C   0  0  0  0  0  0  0  0  0  0  0  0
   36.6300   30.2770   30.2490 C   0  0  0  0  0  0  0  0  0  0  0  0
   36.0000   30.6780   31.3780 N   0  0  0  0  0  0  0  0  0  0  0  0
   35.5350   29.8020   32.2960 C   0  0  0  0  0  0  0  0  0  0  0  0
   35.7090   28.5070   32.0750 N   0  0  0  0  0  0  0  0  0  0  0  0
   33.5480   29.7640   33.5830 C   0  0  0  0  0  0  0  0  0  0  0  0
   32.9240   29.0040   32.7860 O   0  0  0  0  0  0  0  0  0  0  0  0
   34.8790   30.2580   33.4740 N   0  0  0  0  0  0  0  0  0  0  0  0
   37.3050   28.5590   29.1350 H   0  0  0  0  0  0  0  0  0  0  0  0
   37.0010   30.9530   29.5150 H   0  0  0  0  0  0  0  0  0  0  0  0
   32.9200   30.0270   34.4330 H   0  0  0  0  0  0  0  0  0  0  0  0
   35.3030   30.8820   34.1900 H   0  0  0  0  0  0  0  0  0  0  0  0
  2  1  2  0  0  0  0
  3  7  1  1  0  0  0
  3  2  1  0  0  0  0
  4  3  1  0  0  0  0
  4  5  1  0  0  0  0
  5  6  1  0  0  0  0
  5 10  1  0  0  0  0
  6  2  1  0  0  0  0
  6 12  1  0  0  0  0
  8  4  1  0  0  0  0
  9  4  1  0  0  0  0
 11  5  1  0  0  0  0
 12 16  1  0  0  0  0
 13 12  1  0  0  0  0
 14 12  1  0  0  0  0
 15 25  1  0  0  0  0
 16 15  2  0  0  0  0
 16 17  1  0  0  0  0
 17 19  2  0  0  0  0
 18 17  1  0  0  0  0
 19 24  1  0  0  0  0
 19 20  1  0  0  0  0
 20 26  1  0  0  0  0
 20 21  1  0  0  0  0
 21 22  1  0  0  0  0
 23 21  2  0  0  0  0
 24 23  1  0  0  0  0
 25 24  2  0  0  0  0
 27 28  1  0  0  0  0
 27  3  1  0  0  0  0
 28 33  1  0  0  0  0
 29 30  1  0  0  0  0
 29 28  2  0  0  0  0
 30 31  2  0  0  0  0
 31 32  1  0  0  0  0
 32 36  1  0  0  0  0
 33 32  2  0  0  0  0
 34 39  1  0  0  0  0
 35 34  2  0  0  0  0
 36 34  1  0  0  0  0
 36 40  1  0  0  0  0
 37 29  1  0  0  0  0
 38 30  1  0  0  0  0
M  END
>  <minimizedAffinity>
-5.52210665

$$$$
