
 OpenBabel03272503313D

 37 40  0  0  1  0  0  0  0  0999 V2000
   37.0380   23.7640   32.1720 C   0  0  0  0  0  0  0  0  0  0  0  0
   36.4600   24.5220   31.1460 C   0  0  0  0  0  0  0  0  0  0  0  0
   36.3680   25.8910   31.3570 C   0  0  0  0  0  0  0  0  0  0  0  0
   36.8430   26.3850   32.5400 N   0  0  0  0  0  0  0  0  0  0  0  0
   37.3850   25.6450   33.4940 C   0  0  0  0  0  0  0  0  0  0  0  0
   37.4810   24.3090   33.3010 N   0  0  0  0  0  0  0  0  0  0  0  0
   36.0900   24.1310   30.2250 H   0  0  0  0  0  0  0  0  0  0  0  0
   35.9510   26.5810   30.6590 H   0  0  0  0  0  0  0  0  0  0  0  0
   37.1380   22.3450   31.9610 N   0  0  0  0  0  0  0  0  0  0  0  0
   37.0900   21.3160   32.9640 C   0  0  0  0  0  0  0  0  0  0  0  0
   36.5220   20.1300   32.1850 C   0  0  2  0  0  0  0  0  0  0  0  0
   36.1980   20.6490   30.7990 C   0  0  0  0  0  0  0  0  0  0  0  0
   37.3100   21.6810   30.6920 C   0  0  0  0  0  0  0  0  0  0  0  0
   38.1170   21.0850   33.2780 H   0  0  0  0  0  0  0  0  0  0  0  0
   36.4400   21.5800   33.8170 H   0  0  0  0  0  0  0  0  0  0  0  0
   37.3130   19.3630   32.0480 H   0  0  0  0  0  0  0  0  0  0  0  0
   36.3800   19.8940   30.0310 H   0  0  0  0  0  0  0  0  0  0  0  0
   35.2000   21.1280   30.7330 H   0  0  0  0  0  0  0  0  0  0  0  0
   37.0320   22.3550   29.8570 H   0  0  0  0  0  0  0  0  0  0  0  0
   38.2600   21.1690   30.5540 H   0  0  0  0  0  0  0  0  0  0  0  0
   35.3260   19.5100   32.8490 C   0  0  0  0  0  0  0  0  0  0  0  0
   34.2110   20.0420   32.2390 F   0  0  0  0  0  0  0  0  0  0  0  0
   35.2990   19.9660   34.1590 F   0  0  0  0  0  0  0  0  0  0  0  0
   35.3280   18.1450   32.8340 F   0  0  0  0  0  0  0  0  0  0  0  0
   37.9840   26.3580   35.0100 S   0  0  0  0  0  0  0  0  0  0  0  0
   38.0610   24.4690   37.1700 C   0  0  0  0  0  3  0  0  0  0  0  0
   38.6100   25.0100   36.0280 C   0  0  0  0  0  0  0  0  0  0  0  0
   39.8010   24.5090   35.5260 C   0  0  0  0  0  0  0  0  0  0  0  0
   40.3350   24.8510   34.6320 H   0  0  0  0  0  0  0  0  0  0  0  0
   40.4690   23.4550   36.1570 C   0  0  0  0  0  0  0  0  0  0  0  0
   41.6160   22.7680   35.9130 N   0  0  0  0  0  0  0  0  0  0  0  0
   41.7730   21.8360   36.8700 C   0  0  0  0  0  0  0  0  0  0  0  0
   42.6250   21.1490   36.9000 H   0  0  0  0  0  0  0  0  0  0  0  0
   40.7180   21.9370   37.7190 N   0  0  0  0  0  0  0  0  0  0  0  0
   39.9040   22.9280   37.2980 C   0  0  0  0  0  0  0  0  0  0  0  0
   38.7280   23.4340   37.7800 C   0  0  0  0  0  3  0  0  0  0  0  0
   42.2610   22.9570   35.1000 H   0  0  0  0  0  0  0  0  0  0  0  0
  1  6  1  0  0  0  0
  2  3  1  0  0  0  0
  2  1  2  0  0  0  0
  3  4  2  0  0  0  0
  4  5  1  0  0  0  0
  5 25  1  0  0  0  0
  6  5  2  0  0  0  0
  7  2  1  0  0  0  0
  8  3  1  0  0  0  0
  9  1  1  0  0  0  0
  9 10  1  0  0  0  0
 10 14  1  0  0  0  0
 10 15  1  0  0  0  0
 11 16  1  6  0  0  0
 11 21  1  0  0  0  0
 11 10  1  0  0  0  0
 12 11  1  0  0  0  0
 13 12  1  0  0  0  0
 13  9  1  0  0  0  0
 17 12  1  0  0  0  0
 18 12  1  0  0  0  0
 19 13  1  0  0  0  0
 20 13  1  0  0  0  0
 21 23  1  0  0  0  0
 22 21  1  0  0  0  0
 24 21  1  0  0  0  0
 25 27  1  0  0  0  0
 26 36  1  0  0  0  0
 27 26  2  0  0  0  0
 28 27  1  0  0  0  0
 28 30  2  0  0  0  0
 29 28  1  0  0  0  0
 30 35  1  0  0  0  0
 31 30  1  0  0  0  0
 31 32  1  0  0  0  0
 32 33  1  0  0  0  0
 32 34  2  0  0  0  0
 35 34  1  0  0  0  0
 35 36  2  0  0  0  0
 37 31  1  0  0  0  0
M  END
>  <minimizedAffinity>
-6.23681498

$$$$

 OpenBabel03272503313D

 37 40  0  0  1  0  0  0  0  0999 V2000
   37.8710   22.8920   34.1830 C   0  0  0  0  0  0  0  0  0  0  0  0
   37.9850   22.0990   35.3320 C   0  0  0  0  0  0  0  0  0  0  0  0
   38.4830   22.7190   36.4700 C   0  0  0  0  0  0  0  0  0  0  0  0
   38.8210   24.0410   36.3780 N   0  0  0  0  0  0  0  0  0  0  0  0
   38.7040   24.7660   35.2770 C   0  0  0  0  0  0  0  0  0  0  0  0
   38.2190   24.1750   34.1610 N   0  0  0  0  0  0  0  0  0  0  0  0
   37.7190   21.0680   35.3980 H   0  0  0  0  0  0  0  0  0  0  0  0
   38.6200   22.2330   37.4090 H   0  0  0  0  0  0  0  0  0  0  0  0
   37.3540   22.2590   32.9990 N   0  0  0  0  0  0  0  0  0  0  0  0
   37.3420   20.8510   32.7070 C   0  0  0  0  0  0  0  0  0  0  0  0
   36.1210   20.7190   31.7970 C   0  0  2  0  0  0  0  0  0  0  0  0
   35.4800   22.0910   31.7450 C   0  0  0  0  0  0  0  0  0  0  0  0
   36.7480   22.9230   31.8710 C   0  0  0  0  0  0  0  0  0  0  0  0
   38.2470   20.6040   32.1350 H   0  0  0  0  0  0  0  0  0  0  0  0
   37.2340   20.2280   33.6110 H   0  0  0  0  0  0  0  0  0  0  0  0
   36.4510   20.4960   30.7620 H   0  0  0  0  0  0  0  0  0  0  0  0
   35.0510   22.3010   30.7640 H   0  0  0  0  0  0  0  0  0  0  0  0
   34.7900   22.2850   32.5910 H   0  0  0  0  0  0  0  0  0  0  0  0
   36.4240   23.9470   32.1480 H   0  0  0  0  0  0  0  0  0  0  0  0
   37.3050   22.8690   30.9390 H   0  0  0  0  0  0  0  0  0  0  0  0
   35.1560   19.6640   32.2580 C   0  0  0  0  0  0  0  0  0  0  0  0
   35.3810   19.4800   33.6060 F   0  0  0  0  0  0  0  0  0  0  0  0
   35.5220   18.4750   31.6440 F   0  0  0  0  0  0  0  0  0  0  0  0
   33.8500   19.9460   31.9810 F   0  0  0  0  0  0  0  0  0  0  0  0
   39.1630   26.4840   35.2320 S   0  0  0  0  0  0  0  0  0  0  0  0
   38.2320   27.3820   32.6690 C   0  0  0  0  0  3  0  0  0  0  0  0
   38.0880   27.2970   34.0360 C   0  0  0  0  0  0  0  0  0  0  0  0
   36.9980   27.8870   34.6570 C   0  0  0  0  0  0  0  0  0  0  0  0
   36.7720   27.8900   35.7300 H   0  0  0  0  0  0  0  0  0  0  0  0
   36.0290   28.5760   33.9210 C   0  0  0  0  0  0  0  0  0  0  0  0
   34.8840   29.2380   34.2340 N   0  0  0  0  0  0  0  0  0  0  0  0
   34.3390   29.7170   33.1010 C   0  0  0  0  0  0  0  0  0  0  0  0
   33.4070   30.2920   33.0830 H   0  0  0  0  0  0  0  0  0  0  0  0
   35.1460   29.3530   32.0710 N   0  0  0  0  0  0  0  0  0  0  0  0
   36.1910   28.6500   32.5550 C   0  0  0  0  0  0  0  0  0  0  0  0
   37.2730   28.0620   31.9590 C   0  0  0  0  0  3  0  0  0  0  0  0
   34.5070   29.3460   35.2140 H   0  0  0  0  0  0  0  0  0  0  0  0
  1  2  1  0  0  0  0
  2  7  1  0  0  0  0
  2  3  2  0  0  0  0
  3  8  1  0  0  0  0
  4  3  1  0  0  0  0
  5  4  2  0  0  0  0
  6  1  2  0  0  0  0
  6  5  1  0  0  0  0
  9  1  1  0  0  0  0
 10  9  1  0  0  0  0
 10 15  1  0  0  0  0
 11 16  1  6  0  0  0
 11 21  1  0  0  0  0
 11 10  1  0  0  0  0
 12 11  1  0  0  0  0
 12 13  1  0  0  0  0
 12 18  1  0  0  0  0
 13 19  1  0  0  0  0
 13  9  1  0  0  0  0
 14 10  1  0  0  0  0
 17 12  1  0  0  0  0
 20 13  1  0  0  0  0
 21 22  1  0  0  0  0
 23 21  1  0  0  0  0
 24 21  1  0  0  0  0
 25  5  1  0  0  0  0
 26 27  1  0  0  0  0
 27 28  2  0  0  0  0
 27 25  1  0  0  0  0
 28 29  1  0  0  0  0
 30 31  1  0  0  0  0
 30 28  1  0  0  0  0
 31 37  1  0  0  0  0
 32 31  1  0  0  0  0
 33 32  1  0  0  0  0
 34 35  1  0  0  0  0
 34 32  2  0  0  0  0
 35 30  2  0  0  0  0
 36 35  1  0  0  0  0
 36 26  2  0  0  0  0
M  END
>  <minimizedAffinity>
-6.06208038

$$$$

 OpenBabel03272503313D

 37 40  0  0  1  0  0  0  0  0999 V2000
   36.1750   29.1610   32.0850 C   0  0  0  0  0  0  0  0  0  0  0  0
   36.1050   29.6170   30.7620 C   0  0  0  0  0  0  0  0  0  0  0  0
   37.0090   29.0670   29.8640 C   0  0  0  0  0  0  0  0  0  0  0  0
   37.8890   28.1340   30.3380 N   0  0  0  0  0  0  0  0  0  0  0  0
   37.9340   27.7220   31.5950 C   0  0  0  0  0  0  0  0  0  0  0  0
   37.0570   28.2500   32.4810 N   0  0  0  0  0  0  0  0  0  0  0  0
   35.4160   30.3450   30.3970 H   0  0  0  0  0  0  0  0  0  0  0  0
   37.0630   29.3240   28.8300 H   0  0  0  0  0  0  0  0  0  0  0  0
   35.2410   29.7250   33.0220 N   0  0  0  0  0  0  0  0  0  0  0  0
   35.2590   29.5830   34.4520 C   0  0  0  0  0  0  0  0  0  0  0  0
   34.5850   30.8750   34.9150 C   0  0  2  0  0  0  0  0  0  0  0  0
   34.3370   31.6950   33.6650 C   0  0  0  0  0  0  0  0  0  0  0  0
   34.0980   30.5440   32.6990 C   0  0  0  0  0  0  0  0  0  0  0  0
   34.6270   28.7270   34.7280 H   0  0  0  0  0  0  0  0  0  0  0  0
   36.2810   29.4990   34.8610 H   0  0  0  0  0  0  0  0  0  0  0  0
   33.5840   30.6430   35.3330 H   0  0  0  0  0  0  0  0  0  0  0  0
   33.4060   32.2610   33.7310 H   0  0  0  0  0  0  0  0  0  0  0  0
   35.2130   32.3000   33.3560 H   0  0  0  0  0  0  0  0  0  0  0  0
   34.1950   30.9670   31.6790 H   0  0  0  0  0  0  0  0  0  0  0  0
   33.1270   30.0990   32.9070 H   0  0  0  0  0  0  0  0  0  0  0  0
   35.3950   31.6280   35.9310 C   0  0  0  0  0  0  0  0  0  0  0  0
   35.6660   32.8660   35.3880 F   0  0  0  0  0  0  0  0  0  0  0  0
   36.6190   30.9840   36.0430 F   0  0  0  0  0  0  0  0  0  0  0  0
   34.8050   31.7160   37.1580 F   0  0  0  0  0  0  0  0  0  0  0  0
   39.1070   26.5020   32.1420 S   0  0  0  0  0  0  0  0  0  0  0  0
   38.7970   27.0790   34.9370 C   0  0  0  0  0  3  0  0  0  0  0  0
   38.7830   26.1880   33.8860 C   0  0  0  0  0  0  0  0  0  0  0  0
   38.4900   24.8520   34.1130 C   0  0  0  0  0  0  0  0  0  0  0  0
   38.4480   24.0510   33.3660 H   0  0  0  0  0  0  0  0  0  0  0  0
   38.2040   24.3790   35.3970 C   0  0  0  0  0  0  0  0  0  0  0  0
   37.8890   23.1650   35.9210 N   0  0  0  0  0  0  0  0  0  0  0  0
   37.7140   23.2990   37.2470 C   0  0  0  0  0  0  0  0  0  0  0  0
   37.4530   22.4610   37.9020 H   0  0  0  0  0  0  0  0  0  0  0  0
   37.9210   24.6040   37.5590 N   0  0  0  0  0  0  0  0  0  0  0  0
   38.2230   25.2860   36.4350 C   0  0  0  0  0  0  0  0  0  0  0  0
   38.5150   26.6010   36.1930 C   0  0  0  0  0  3  0  0  0  0  0  0
   37.8040   22.2780   35.3560 H   0  0  0  0  0  0  0  0  0  0  0  0
  1  6  1  0  0  0  0
  1  9  1  0  0  0  0
  2  1  2  0  0  0  0
  3  4  2  0  0  0  0
  3  2  1  0  0  0  0
  4  5  1  0  0  0  0
  5 25  1  0  0  0  0
  5  6  2  0  0  0  0
  7  2  1  0  0  0  0
  8  3  1  0  0  0  0
  9 10  1  0  0  0  0
 10 14  1  0  0  0  0
 10 15  1  0  0  0  0
 10 11  1  0  0  0  0
 11 16  1  1  0  0  0
 11 21  1  0  0  0  0
 12 17  1  0  0  0  0
 12 11  1  0  0  0  0
 13 20  1  0  0  0  0
 13  9  1  0  0  0  0
 13 12  1  0  0  0  0
 18 12  1  0  0  0  0
 19 13  1  0  0  0  0
 21 23  1  0  0  0  0
 21 24  1  0  0  0  0
 22 21  1  0  0  0  0
 25 27  1  0  0  0  0
 26 36  1  0  0  0  0
 27 28  1  0  0  0  0
 27 26  2  0  0  0  0
 28 30  2  0  0  0  0
 29 28  1  0  0  0  0
 30 31  1  0  0  0  0
 30 35  1  0  0  0  0
 31 32  1  0  0  0  0
 32 34  2  0  0  0  0
 32 33  1  0  0  0  0
 35 34  1  0  0  0  0
 36 35  2  0  0  0  0
 37 31  1  0  0  0  0
M  END
>  <minimizedAffinity>
-6.03901243

$$$$

 OpenBabel03272503313D

 37 40  0  0  1  0  0  0  0  0999 V2000
   38.1300   24.8250   35.3580 C   0  0  0  0  0  0  0  0  0  0  0  0
   38.2110   26.1160   35.8950 C   0  0  0  0  0  0  0  0  0  0  0  0
   37.8800   27.1650   35.0480 C   0  0  0  0  0  0  0  0  0  0  0  0
   37.5060   26.8570   33.7690 N   0  0  0  0  0  0  0  0  0  0  0  0
   37.4380   25.6250   33.2880 C   0  0  0  0  0  0  0  0  0  0  0  0
   37.7580   24.5940   34.1030 N   0  0  0  0  0  0  0  0  0  0  0  0
   38.5040   26.3510   36.8930 H   0  0  0  0  0  0  0  0  0  0  0  0
   37.8980   28.1940   35.3280 H   0  0  0  0  0  0  0  0  0  0  0  0
   38.4710   23.7320   36.2280 N   0  0  0  0  0  0  0  0  0  0  0  0
   39.1820   22.5340   35.8740 C   0  0  0  0  0  0  0  0  0  0  0  0
   39.8570   22.1550   37.1930 C   0  0  2  0  0  0  0  0  0  0  0  0
   39.5350   23.2680   38.1690 C   0  0  0  0  0  0  0  0  0  0  0  0
   38.1580   23.6300   37.6330 C   0  0  0  0  0  0  0  0  0  0  0  0
   38.4510   21.7580   35.6070 H   0  0  0  0  0  0  0  0  0  0  0  0
   39.9280   22.6990   35.0780 H   0  0  0  0  0  0  0  0  0  0  0  0
   39.3820   21.2410   37.6040 H   0  0  0  0  0  0  0  0  0  0  0  0
   39.3990   22.8900   39.1840 H   0  0  0  0  0  0  0  0  0  0  0  0
   40.2300   24.1290   38.0970 H   0  0  0  0  0  0  0  0  0  0  0  0
   37.9110   24.6260   38.0520 H   0  0  0  0  0  0  0  0  0  0  0  0
   37.4530   22.8470   37.9020 H   0  0  0  0  0  0  0  0  0  0  0  0
   41.3370   21.9380   37.0540 C   0  0  0  0  0  0  0  0  0  0  0  0
   41.9260   23.1840   37.0700 F   0  0  0  0  0  0  0  0  0  0  0  0
   41.5600   21.4250   35.7840 F   0  0  0  0  0  0  0  0  0  0  0  0
   41.8650   21.0990   37.9910 F   0  0  0  0  0  0  0  0  0  0  0  0
   36.9420   25.2990   31.6110 S   0  0  0  0  0  0  0  0  0  0  0  0
   37.9480   22.7300   30.8190 C   0  0  0  0  0  3  0  0  0  0  0  0
   36.9640   23.5120   31.3820 C   0  0  0  0  0  0  0  0  0  0  0  0
   35.8030   22.9260   31.8640 C   0  0  0  0  0  0  0  0  0  0  0  0
   34.9530   23.4370   32.3310 H   0  0  0  0  0  0  0  0  0  0  0  0
   35.6030   21.5450   31.7920 C   0  0  0  0  0  0  0  0  0  0  0  0
   34.6040   20.7030   32.1660 N   0  0  0  0  0  0  0  0  0  0  0  0
   34.9550   19.4460   31.8450 C   0  0  0  0  0  0  0  0  0  0  0  0
   34.3170   18.5780   32.0430 H   0  0  0  0  0  0  0  0  0  0  0  0
   36.1820   19.4970   31.2660 N   0  0  0  0  0  0  0  0  0  0  0  0
   36.5980   20.7800   31.2240 C   0  0  0  0  0  0  0  0  0  0  0  0
   37.7370   21.3740   30.7530 C   0  0  0  0  0  3  0  0  0  0  0  0
   33.7070   21.0120   32.6290 H   0  0  0  0  0  0  0  0  0  0  0  0
  1  2  1  0  0  0  0
  1  9  1  0  0  0  0
  2  7  1  0  0  0  0
  3  8  1  0  0  0  0
  3  2  2  0  0  0  0
  4  3  1  0  0  0  0
  5  4  2  0  0  0  0
  5  6  1  0  0  0  0
  6  1  2  0  0  0  0
  9 13  1  0  0  0  0
 10  9  1  0  0  0  0
 10 11  1  0  0  0  0
 11 16  1  1  0  0  0
 11 12  1  0  0  0  0
 12 17  1  0  0  0  0
 13 20  1  0  0  0  0
 13 19  1  0  0  0  0
 13 12  1  0  0  0  0
 14 10  1  0  0  0  0
 15 10  1  0  0  0  0
 18 12  1  0  0  0  0
 21 22  1  0  0  0  0
 21 11  1  0  0  0  0
 21 24  1  0  0  0  0
 23 21  1  0  0  0  0
 25  5  1  0  0  0  0
 26 27  1  0  0  0  0
 27 25  1  0  0  0  0
 27 28  2  0  0  0  0
 28 29  1  0  0  0  0
 30 28  1  0  0  0  0
 30 31  1  0  0  0  0
 31 37  1  0  0  0  0
 32 33  1  0  0  0  0
 32 31  1  0  0  0  0
 34 32  2  0  0  0  0
 35 34  1  0  0  0  0
 35 30  2  0  0  0  0
 36 26  2  0  0  0  0
 36 35  1  0  0  0  0
M  END
>  <minimizedAffinity>
-6.02403069

$$$$

 OpenBabel03272503313D

 37 40  0  0  1  0  0  0  0  0999 V2000
   36.6470   27.9720   33.4520 C   0  0  0  0  0  0  0  0  0  0  0  0
   37.2040   27.5670   32.2310 C   0  0  0  0  0  0  0  0  0  0  0  0
   37.9470   26.3950   32.2440 C   0  0  0  0  0  0  0  0  0  0  0  0
   38.0750   25.7350   33.4350 N   0  0  0  0  0  0  0  0  0  0  0  0
   37.5380   26.1410   34.5740 C   0  0  0  0  0  0  0  0  0  0  0  0
   36.8110   27.2820   34.5760 N   0  0  0  0  0  0  0  0  0  0  0  0
   37.1010   28.0860   31.3050 H   0  0  0  0  0  0  0  0  0  0  0  0
   38.4240   25.9750   31.3870 H   0  0  0  0  0  0  0  0  0  0  0  0
   35.8750   29.1850   33.4480 N   0  0  0  0  0  0  0  0  0  0  0  0
   35.2950   29.8440   34.5870 C   0  0  0  0  0  0  0  0  0  0  0  0
   35.2740   31.3060   34.1400 C   0  0  2  0  0  0  0  0  0  0  0  0
   35.9620   31.3470   32.7910 C   0  0  0  0  0  0  0  0  0  0  0  0
   35.5330   29.9760   32.2910 C   0  0  0  0  0  0  0  0  0  0  0  0
   34.2620   29.4880   34.7080 H   0  0  0  0  0  0  0  0  0  0  0  0
   35.8930   29.7160   35.5060 H   0  0  0  0  0  0  0  0  0  0  0  0
   34.2270   31.6240   33.9600 H   0  0  0  0  0  0  0  0  0  0  0  0
   35.5110   32.0890   32.1290 H   0  0  0  0  0  0  0  0  0  0  0  0
   37.0660   31.4180   32.8630 H   0  0  0  0  0  0  0  0  0  0  0  0
   36.1980   29.7310   31.4390 H   0  0  0  0  0  0  0  0  0  0  0  0
   34.4750   30.0030   32.0370 H   0  0  0  0  0  0  0  0  0  0  0  0
   35.9210   32.2310   35.1310 C   0  0  0  0  0  0  0  0  0  0  0  0
   36.8760   32.9480   34.4430 F   0  0  0  0  0  0  0  0  0  0  0  0
   36.6150   31.4430   36.0390 F   0  0  0  0  0  0  0  0  0  0  0  0
   35.0420   33.0370   35.7940 F   0  0  0  0  0  0  0  0  0  0  0  0
   37.7460   25.2300   36.0870 S   0  0  0  0  0  0  0  0  0  0  0  0
   40.3870   24.6170   35.1450 C   0  0  0  0  0  3  0  0  0  0  0  0
   39.3220   24.3630   35.9800 C   0  0  0  0  0  0  0  0  0  0  0  0
   39.3880   23.3200   36.8910 C   0  0  0  0  0  0  0  0  0  0  0  0
   38.6130   23.0190   37.6050 H   0  0  0  0  0  0  0  0  0  0  0  0
   40.5230   22.5090   36.9850 C   0  0  0  0  0  0  0  0  0  0  0  0
   40.8760   21.4450   37.7530 N   0  0  0  0  0  0  0  0  0  0  0  0
   42.1150   21.0540   37.4060 C   0  0  0  0  0  0  0  0  0  0  0  0
   42.6300   20.2110   37.8800 H   0  0  0  0  0  0  0  0  0  0  0  0
   42.5430   21.8770   36.4140 N   0  0  0  0  0  0  0  0  0  0  0  0
   41.5780   22.7790   36.1410 C   0  0  0  0  0  0  0  0  0  0  0  0
   41.4960   23.8120   35.2480 C   0  0  0  0  0  3  0  0  0  0  0  0
   40.2590   21.0140   38.4930 H   0  0  0  0  0  0  0  0  0  0  0  0
  1  6  1  0  0  0  0
  2  3  1  0  0  0  0
  2  1  2  0  0  0  0
  3  4  2  0  0  0  0
  4  5  1  0  0  0  0
  5  6  2  0  0  0  0
  5 25  1  0  0  0  0
  7  2  1  0  0  0  0
  8  3  1  0  0  0  0
  9  1  1  0  0  0  0
  9 10  1  0  0  0  0
 10 14  1  0  0  0  0
 10 15  1  0  0  0  0
 11 16  1  6  0  0  0
 11 10  1  0  0  0  0
 11 21  1  0  0  0  0
 12 18  1  0  0  0  0
 12 11  1  0  0  0  0
 13 12  1  0  0  0  0
 13  9  1  0  0  0  0
 17 12  1  0  0  0  0
 19 13  1  0  0  0  0
 20 13  1  0  0  0  0
 21 24  1  0  0  0  0
 21 23  1  0  0  0  0
 22 21  1  0  0  0  0
 26 36  2  0  0  0  0
 26 27  1  0  0  0  0
 27 25  1  0  0  0  0
 27 28  2  0  0  0  0
 28 30  1  0  0  0  0
 28 29  1  0  0  0  0
 30 31  1  0  0  0  0
 31 37  1  0  0  0  0
 32 31  1  0  0  0  0
 32 33  1  0  0  0  0
 34 32  2  0  0  0  0
 35 34  1  0  0  0  0
 35 30  2  0  0  0  0
 36 35  1  0  0  0  0
M  END
>  <minimizedAffinity>
-5.98853493

$$$$

 OpenBabel03272503313D

 37 40  0  0  1  0  0  0  0  0999 V2000
   38.1470   25.1200   35.5120 C   0  0  0  0  0  0  0  0  0  0  0  0
   38.4750   26.3300   36.1370 C   0  0  0  0  0  0  0  0  0  0  0  0
   38.1870   27.4930   35.4350 C   0  0  0  0  0  0  0  0  0  0  0  0
   37.6120   27.3650   34.2010 N   0  0  0  0  0  0  0  0  0  0  0  0
   37.3130   26.2070   33.6330 C   0  0  0  0  0  0  0  0  0  0  0  0
   37.5880   25.0660   34.3070 N   0  0  0  0  0  0  0  0  0  0  0  0
   38.9230   26.4240   37.1000 H   0  0  0  0  0  0  0  0  0  0  0  0
   38.3840   28.4770   35.7940 H   0  0  0  0  0  0  0  0  0  0  0  0
   38.4410   23.9110   36.2320 N   0  0  0  0  0  0  0  0  0  0  0  0
   39.1930   22.7820   35.7570 C   0  0  0  0  0  0  0  0  0  0  0  0
   39.7780   22.2130   37.0500 C   0  0  2  0  0  0  0  0  0  0  0  0
   39.3710   23.1670   38.1540 C   0  0  0  0  0  0  0  0  0  0  0  0
   38.0300   23.5990   37.5800 C   0  0  0  0  0  0  0  0  0  0  0  0
   38.4950   22.0520   35.3240 H   0  0  0  0  0  0  0  0  0  0  0  0
   39.9920   23.0680   35.0500 H   0  0  0  0  0  0  0  0  0  0  0  0
   39.2890   21.2460   37.2840 H   0  0  0  0  0  0  0  0  0  0  0  0
   39.1690   22.6400   39.0890 H   0  0  0  0  0  0  0  0  0  0  0  0
   40.0560   24.0320   38.2620 H   0  0  0  0  0  0  0  0  0  0  0  0
   37.7390   24.5200   38.1240 H   0  0  0  0  0  0  0  0  0  0  0  0
   37.3200   22.7810   37.6770 H   0  0  0  0  0  0  0  0  0  0  0  0
   41.2670   22.0260   36.9880 C   0  0  0  0  0  0  0  0  0  0  0  0
   41.8320   23.2790   37.0850 F   0  0  0  0  0  0  0  0  0  0  0  0
   41.5720   21.5670   35.7140 F   0  0  0  0  0  0  0  0  0  0  0  0
   41.7570   21.1590   37.9210 F   0  0  0  0  0  0  0  0  0  0  0  0
   36.5640   26.1170   32.0220 S   0  0  0  0  0  0  0  0  0  0  0  0
   35.9040   28.9060   31.8780 C   0  0  0  0  0  3  0  0  0  0  0  0
   36.5200   27.7900   31.3560 C   0  0  0  0  0  0  0  0  0  0  0  0
   37.2200   27.8770   30.1630 C   0  0  0  0  0  0  0  0  0  0  0  0
   37.7490   27.0670   29.6480 H   0  0  0  0  0  0  0  0  0  0  0  0
   37.3190   29.0850   29.4660 C   0  0  0  0  0  0  0  0  0  0  0  0
   37.9170   29.4750   28.3090 N   0  0  0  0  0  0  0  0  0  0  0  0
   37.6800   30.7850   28.1210 C   0  0  0  0  0  0  0  0  0  0  0  0
   38.0550   31.3420   27.2550 H   0  0  0  0  0  0  0  0  0  0  0  0
   36.9290   31.2210   29.1650 N   0  0  0  0  0  0  0  0  0  0  0  0
   36.6960   30.1900   30.0040 C   0  0  0  0  0  0  0  0  0  0  0  0
   36.0090   30.0870   31.1820 C   0  0  0  0  0  3  0  0  0  0  0  0
   38.4690   28.8340   27.6800 H   0  0  0  0  0  0  0  0  0  0  0  0
  1  2  1  0  0  0  0
  1  9  1  0  0  0  0
  2  7  1  0  0  0  0
  3  8  1  0  0  0  0
  3  2  2  0  0  0  0
  4  3  1  0  0  0  0
  5  4  2  0  0  0  0
  5  6  1  0  0  0  0
  6  1  2  0  0  0  0
  9 13  1  0  0  0  0
 10  9  1  0  0  0  0
 10 11  1  0  0  0  0
 11 16  1  1  0  0  0
 11 12  1  0  0  0  0
 12 18  1  0  0  0  0
 12 17  1  0  0  0  0
 13 20  1  0  0  0  0
 13 19  1  0  0  0  0
 13 12  1  0  0  0  0
 14 10  1  0  0  0  0
 15 10  1  0  0  0  0
 21 11  1  0  0  0  0
 21 22  1  0  0  0  0
 21 24  1  0  0  0  0
 23 21  1  0  0  0  0
 25  5  1  0  0  0  0
 27 26  1  0  0  0  0
 27 25  1  0  0  0  0
 28 27  2  0  0  0  0
 29 28  1  0  0  0  0
 30 35  2  0  0  0  0
 30 28  1  0  0  0  0
 31 30  1  0  0  0  0
 32 31  1  0  0  0  0
 32 34  2  0  0  0  0
 33 32  1  0  0  0  0
 34 35  1  0  0  0  0
 35 36  1  0  0  0  0
 36 26  2  0  0  0  0
 37 31  1  0  0  0  0
M  END
>  <minimizedAffinity>
-5.95317888

$$$$

 OpenBabel03272503313D

 37 40  0  0  1  0  0  0  0  0999 V2000
   37.4960   24.8170   33.0240 C   0  0  0  0  0  0  0  0  0  0  0  0
   36.7170   24.0270   32.1690 C   0  0  0  0  0  0  0  0  0  0  0  0
   35.9420   24.6970   31.2330 C   0  0  0  0  0  0  0  0  0  0  0  0
   35.9990   26.0640   31.2220 N   0  0  0  0  0  0  0  0  0  0  0  0
   36.7440   26.7860   32.0430 C   0  0  0  0  0  0  0  0  0  0  0  0
   37.5050   26.1450   32.9590 N   0  0  0  0  0  0  0  0  0  0  0  0
   36.6760   22.9610   32.1820 H   0  0  0  0  0  0  0  0  0  0  0  0
   35.3050   24.2180   30.5240 H   0  0  0  0  0  0  0  0  0  0  0  0
   38.3030   24.1310   33.9960 N   0  0  0  0  0  0  0  0  0  0  0  0
   38.8940   24.6910   35.1810 C   0  0  0  0  0  0  0  0  0  0  0  0
   38.9610   23.4820   36.1130 C   0  0  2  0  0  0  0  0  0  0  0  0
   38.2850   22.3420   35.3790 C   0  0  0  0  0  0  0  0  0  0  0  0
   38.6780   22.7380   33.9630 C   0  0  0  0  0  0  0  0  0  0  0  0
   39.9150   25.0200   34.9410 H   0  0  0  0  0  0  0  0  0  0  0  0
   38.2850   25.5000   35.6200 H   0  0  0  0  0  0  0  0  0  0  0  0
   40.0180   23.1750   36.2480 H   0  0  0  0  0  0  0  0  0  0  0  0
   38.7620   21.3840   35.5920 H   0  0  0  0  0  0  0  0  0  0  0  0
   37.1830   22.3340   35.5000 H   0  0  0  0  0  0  0  0  0  0  0  0
   38.0120   22.1690   33.2840 H   0  0  0  0  0  0  0  0  0  0  0  0
   39.7370   22.5390   33.8180 H   0  0  0  0  0  0  0  0  0  0  0  0
   38.3330   23.7390   37.4540 C   0  0  0  0  0  0  0  0  0  0  0  0
   37.0940   23.1360   37.4370 F   0  0  0  0  0  0  0  0  0  0  0  0
   38.0930   25.1030   37.5420 F   0  0  0  0  0  0  0  0  0  0  0  0
   39.0960   23.3350   38.5100 F   0  0  0  0  0  0  0  0  0  0  0  0
   36.7690   28.5630   31.9690 S   0  0  0  0  0  0  0  0  0  0  0  0
   35.5030   29.7750   34.2420 C   0  0  0  0  0  3  0  0  0  0  0  0
   35.4270   29.1640   33.0100 C   0  0  0  0  0  0  0  0  0  0  0  0
   34.1920   28.9420   32.4210 C   0  0  0  0  0  0  0  0  0  0  0  0
   34.0010   28.4680   31.4510 H   0  0  0  0  0  0  0  0  0  0  0  0
   33.0060   29.3280   33.0520 C   0  0  0  0  0  0  0  0  0  0  0  0
   31.6860   29.2490   32.7370 N   0  0  0  0  0  0  0  0  0  0  0  0
   30.9700   29.7920   33.7370 C   0  0  0  0  0  0  0  0  0  0  0  0
   29.8770   29.8500   33.7260 H   0  0  0  0  0  0  0  0  0  0  0  0
   31.8450   30.2140   34.6860 N   0  0  0  0  0  0  0  0  0  0  0  0
   33.1030   29.9380   34.2830 C   0  0  0  0  0  0  0  0  0  0  0  0
   34.3290   30.1490   34.8510 C   0  0  0  0  0  3  0  0  0  0  0  0
   31.3110   28.8250   31.8460 H   0  0  0  0  0  0  0  0  0  0  0  0
  1  9  1  0  0  0  0
  2  7  1  0  0  0  0
  2  1  2  0  0  0  0
  3  2  1  0  0  0  0
  4  3  2  0  0  0  0
  4  5  1  0  0  0  0
  5  6  2  0  0  0  0
  6  1  1  0  0  0  0
  8  3  1  0  0  0  0
  9 10  1  0  0  0  0
 10 15  1  0  0  0  0
 10 11  1  0  0  0  0
 11 16  1  1  0  0  0
 11 21  1  0  0  0  0
 12 18  1  0  0  0  0
 12 17  1  0  0  0  0
 12 11  1  0  0  0  0
 13  9  1  0  0  0  0
 13 12  1  0  0  0  0
 14 10  1  0  0  0  0
 19 13  1  0  0  0  0
 20 13  1  0  0  0  0
 21 23  1  0  0  0  0
 21 24  1  0  0  0  0
 22 21  1  0  0  0  0
 25  5  1  0  0  0  0
 25 27  1  0  0  0  0
 26 36  1  0  0  0  0
 27 26  2  0  0  0  0
 28 27  1  0  0  0  0
 28 30  2  0  0  0  0
 29 28  1  0  0  0  0
 30 35  1  0  0  0  0
 31 30  1  0  0  0  0
 31 32  1  0  0  0  0
 32 34  2  0  0  0  0
 33 32  1  0  0  0  0
 35 34  1  0  0  0  0
 35 36  2  0  0  0  0
 37 31  1  0  0  0  0
M  END
>  <minimizedAffinity>
-5.92250824

$$$$

 OpenBabel03272503313D

 37 40  0  0  1  0  0  0  0  0999 V2000
   37.4110   25.8380   33.2760 C   0  0  0  0  0  0  0  0  0  0  0  0
   36.7750   24.8590   32.5010 C   0  0  0  0  0  0  0  0  0  0  0  0
   35.8760   25.3080   31.5430 C   0  0  0  0  0  0  0  0  0  0  0  0
   35.6840   26.6570   31.4340 N   0  0  0  0  0  0  0  0  0  0  0  0
   36.2990   27.5610   32.1810 C   0  0  0  0  0  0  0  0  0  0  0  0
   37.1780   27.1370   33.1180 N   0  0  0  0  0  0  0  0  0  0  0  0
   36.9280   23.8070   32.5910 H   0  0  0  0  0  0  0  0  0  0  0  0
   35.3260   24.6710   30.8880 H   0  0  0  0  0  0  0  0  0  0  0  0
   38.3440   25.3810   34.2700 N   0  0  0  0  0  0  0  0  0  0  0  0
   38.3970   25.7740   35.6520 C   0  0  0  0  0  0  0  0  0  0  0  0
   39.0020   24.5380   36.3180 C   0  0  2  0  0  0  0  0  0  0  0  0
   39.1420   23.4950   35.2280 C   0  0  0  0  0  0  0  0  0  0  0  0
   39.4160   24.4370   34.0650 C   0  0  0  0  0  0  0  0  0  0  0  0
   39.0950   26.6170   35.7510 H   0  0  0  0  0  0  0  0  0  0  0  0
   37.4010   26.0040   36.0690 H   0  0  0  0  0  0  0  0  0  0  0  0
   40.0330   24.7670   36.6570 H   0  0  0  0  0  0  0  0  0  0  0  0
   40.0350   22.8820   35.3670 H   0  0  0  0  0  0  0  0  0  0  0  0
   38.2150   22.9100   35.0590 H   0  0  0  0  0  0  0  0  0  0  0  0
   39.2470   23.8490   33.1410 H   0  0  0  0  0  0  0  0  0  0  0  0
   40.4220   24.8390   34.1600 H   0  0  0  0  0  0  0  0  0  0  0  0
   38.1880   24.0370   37.4760 C   0  0  0  0  0  0  0  0  0  0  0  0
   38.8340   22.9230   37.9660 F   0  0  0  0  0  0  0  0  0  0  0  0
   36.9790   23.5860   36.9660 F   0  0  0  0  0  0  0  0  0  0  0  0
   37.9610   24.9740   38.4420 F   0  0  0  0  0  0  0  0  0  0  0  0
   36.0000   29.3030   31.9820 S   0  0  0  0  0  0  0  0  0  0  0  0
   33.6370   29.5610   33.5910 C   0  0  0  0  0  3  0  0  0  0  0  0
   34.9680   29.8320   33.3610 C   0  0  0  0  0  0  0  0  0  0  0  0
   35.6840   30.6080   34.2590 C   0  0  0  0  0  0  0  0  0  0  0  0
   36.7400   30.8920   34.1890 H   0  0  0  0  0  0  0  0  0  0  0  0
   35.0820   31.1290   35.4090 C   0  0  0  0  0  0  0  0  0  0  0  0
   35.5080   31.8980   36.4450 N   0  0  0  0  0  0  0  0  0  0  0  0
   34.4780   32.0970   37.2870 C   0  0  0  0  0  0  0  0  0  0  0  0
   34.5620   32.6890   38.2040 H   0  0  0  0  0  0  0  0  0  0  0  0
   33.3990   31.4490   36.7760 N   0  0  0  0  0  0  0  0  0  0  0  0
   33.7500   30.8470   35.6210 C   0  0  0  0  0  0  0  0  0  0  0  0
   33.0590   30.0800   34.7240 C   0  0  0  0  0  3  0  0  0  0  0  0
   36.4910   32.2680   36.5480 H   0  0  0  0  0  0  0  0  0  0  0  0
  1  9  1  0  0  0  0
  2  7  1  0  0  0  0
  2  1  2  0  0  0  0
  3  2  1  0  0  0  0
  4  3  2  0  0  0  0
  4  5  1  0  0  0  0
  5  6  2  0  0  0  0
  6  1  1  0  0  0  0
  8  3  1  0  0  0  0
  9 10  1  0  0  0  0
 10 14  1  0  0  0  0
 10 15  1  0  0  0  0
 10 11  1  0  0  0  0
 11 16  1  1  0  0  0
 11 21  1  0  0  0  0
 12 17  1  0  0  0  0
 12 11  1  0  0  0  0
 13 20  1  0  0  0  0
 13  9  1  0  0  0  0
 13 12  1  0  0  0  0
 18 12  1  0  0  0  0
 19 13  1  0  0  0  0
 21 22  1  0  0  0  0
 21 24  1  0  0  0  0
 23 21  1  0  0  0  0
 25  5  1  0  0  0  0
 25 27  1  0  0  0  0
 26 36  1  0  0  0  0
 27 26  2  0  0  0  0
 27 28  1  0  0  0  0
 28 30  2  0  0  0  0
 29 28  1  0  0  0  0
 30 35  1  0  0  0  0
 30 31  1  0  0  0  0
 31 37  1  0  0  0  0
 31 32  1  0  0  0  0
 32 33  1  0  0  0  0
 34 32  2  0  0  0  0
 35 34  1  0  0  0  0
 36 35  2  0  0  0  0
M  END
>  <minimizedAffinity>
-5.89566231

$$$$

 OpenBabel03272503313D

 37 40  0  0  1  0  0  0  0  0999 V2000
   36.5950   23.8470   31.8560 C   0  0  0  0  0  0  0  0  0  0  0  0
   35.5330   24.2230   31.0230 C   0  0  0  0  0  0  0  0  0  0  0  0
   35.2050   25.5720   31.0020 C   0  0  0  0  0  0  0  0  0  0  0  0
   35.9370   26.4170   31.7890 N   0  0  0  0  0  0  0  0  0  0  0  0
   36.9360   26.0330   32.5680 C   0  0  0  0  0  0  0  0  0  0  0  0
   37.2670   24.7220   32.5980 N   0  0  0  0  0  0  0  0  0  0  0  0
   34.9650   23.5590   30.4120 H   0  0  0  0  0  0  0  0  0  0  0  0
   34.4210   25.9910   30.4140 H   0  0  0  0  0  0  0  0  0  0  0  0
   36.9420   22.4520   31.8840 N   0  0  0  0  0  0  0  0  0  0  0  0
   36.8790   21.5670   33.0150 C   0  0  0  0  0  0  0  0  0  0  0  0
   36.6380   20.2100   32.3530 C   0  0  2  0  0  0  0  0  0  0  0  0
   36.4810   20.4830   30.8710 C   0  0  0  0  0  0  0  0  0  0  0  0
   37.4260   21.6700   30.7710 C   0  0  0  0  0  0  0  0  0  0  0  0
   37.8610   21.5590   33.5090 H   0  0  0  0  0  0  0  0  0  0  0  0
   36.0610   21.8210   33.7110 H   0  0  0  0  0  0  0  0  0  0  0  0
   37.5470   19.5810   32.4540 H   0  0  0  0  0  0  0  0  0  0  0  0
   36.9030   19.6800   30.2640 H   0  0  0  0  0  0  0  0  0  0  0  0
   35.4480   20.7700   30.5850 H   0  0  0  0  0  0  0  0  0  0  0  0
   37.1970   22.1730   29.8100 H   0  0  0  0  0  0  0  0  0  0  0  0
   38.4520   21.3180   30.8560 H   0  0  0  0  0  0  0  0  0  0  0  0
   35.4540   19.4820   32.9210 C   0  0  0  0  0  0  0  0  0  0  0  0
   35.3210   19.8940   34.2290 F   0  0  0  0  0  0  0  0  0  0  0  0
   35.7860   18.1350   32.9770 F   0  0  0  0  0  0  0  0  0  0  0  0
   34.3050   19.6460   32.2030 F   0  0  0  0  0  0  0  0  0  0  0  0
   37.8460   27.1910   33.5660 S   0  0  0  0  0  0  0  0  0  0  0  0
   40.0150   27.2820   31.6880 C   0  0  0  0  0  3  0  0  0  0  0  0
   39.5500   27.1820   32.9800 C   0  0  0  0  0  0  0  0  0  0  0  0
   40.4450   27.0540   34.0320 C   0  0  0  0  0  0  0  0  0  0  0  0
   40.2010   26.9660   35.0970 H   0  0  0  0  0  0  0  0  0  0  0  0
   41.8250   27.0240   33.8110 C   0  0  0  0  0  0  0  0  0  0  0  0
   42.9180   26.9120   34.6100 N   0  0  0  0  0  0  0  0  0  0  0  0
   44.0210   26.9410   33.8410 C   0  0  0  0  0  0  0  0  0  0  0  0
   45.0350   26.8670   34.2480 H   0  0  0  0  0  0  0  0  0  0  0  0
   43.6180   27.0720   32.5510 N   0  0  0  0  0  0  0  0  0  0  0  0
   42.2700   27.1250   32.5110 C   0  0  0  0  0  0  0  0  0  0  0  0
   41.3740   27.2500   31.4850 C   0  0  0  0  0  3  0  0  0  0  0  0
   42.8800   26.8170   35.6610 H   0  0  0  0  0  0  0  0  0  0  0  0
  1  9  1  0  0  0  0
  1  6  1  0  0  0  0
  2  1  2  0  0  0  0
  3  2  1  0  0  0  0
  3  4  2  0  0  0  0
  4  5  1  0  0  0  0
  5  6  2  0  0  0  0
  5 25  1  0  0  0  0
  7  2  1  0  0  0  0
  8  3  1  0  0  0  0
  9 10  1  0  0  0  0
 10 14  1  0  0  0  0
 10 15  1  0  0  0  0
 11 16  1  1  0  0  0
 11 21  1  0  0  0  0
 11 10  1  0  0  0  0
 12 11  1  0  0  0  0
 13 20  1  0  0  0  0
 13 12  1  0  0  0  0
 13  9  1  0  0  0  0
 17 12  1  0  0  0  0
 18 12  1  0  0  0  0
 19 13  1  0  0  0  0
 21 23  1  0  0  0  0
 21 22  1  0  0  0  0
 24 21  1  0  0  0  0
 26 27  1  0  0  0  0
 27 25  1  0  0  0  0
 27 28  2  0  0  0  0
 28 29  1  0  0  0  0
 30 28  1  0  0  0  0
 30 31  1  0  0  0  0
 31 37  1  0  0  0  0
 32 33  1  0  0  0  0
 32 31  1  0  0  0  0
 34 32  2  0  0  0  0
 35 34  1  0  0  0  0
 35 30  2  0  0  0  0
 36 26  2  0  0  0  0
 36 35  1  0  0  0  0
M  END
>  <minimizedAffinity>
-5.89059019

$$$$
