
 OpenBabel03272509013D

 34 37  0  0  0  0  0  0  0  0999 V2000
   39.2830   31.1090   51.1130 Cl  0  0  0  0  0  0  0  0  0  0  0  0
   37.9930   30.5460   50.0690 C   0  0  0  0  0  0  0  0  0  0  0  0
   37.7640   31.2120   48.8940 C   0  0  0  0  0  0  0  0  0  0  0  0
   36.7480   30.8400   48.0580 C   0  0  0  0  0  0  0  0  0  0  0  0
   35.9190   29.7740   48.3800 C   0  0  0  0  0  0  0  0  0  0  0  0
   36.1470   29.0990   49.5660 C   0  0  0  0  0  0  0  0  0  0  0  0
   35.1600   27.7360   50.0690 Cl  0  0  0  0  0  0  0  0  0  0  0  0
   37.1960   29.5060   50.3970 C   0  0  0  0  0  0  0  0  0  0  0  0
   36.5380   31.3430   47.1240 H   0  0  0  0  0  0  0  0  0  0  0  0
   35.1180   29.4770   47.7270 H   0  0  0  0  0  0  0  0  0  0  0  0
   39.5510   34.4230   49.0490 C   0  0  0  0  0  0  0  0  0  0  0  0
   40.1780   34.4850   47.7950 C   0  0  0  0  0  0  0  0  0  0  0  0
   39.9730   33.3970   46.8930 C   0  0  0  0  0  0  0  0  0  0  0  0
   39.1810   32.3680   47.3090 N   0  0  0  0  0  0  0  0  0  0  0  0
   38.5980   32.3480   48.5200 C   0  0  0  0  0  0  0  0  0  0  0  0
   38.7980   33.3800   49.3660 N   0  0  0  0  0  0  0  0  0  0  0  0
   39.7560   35.2760   49.6640 H   0  0  0  0  0  0  0  0  0  0  0  0
   40.8030   35.2620   47.4280 H   0  0  0  0  0  0  0  0  0  0  0  0
   40.3750   33.2940   45.9130 H   0  0  0  0  0  0  0  0  0  0  0  0
   37.4470   28.7640   51.6550 C   0  0  0  0  0  0  0  0  0  0  0  0
   37.7920   29.4810   52.4510 H   0  0  0  0  0  0  0  0  0  0  0  0
   36.4360   28.3910   51.9760 H   0  0  0  0  0  0  0  0  0  0  0  0
   38.9320   26.9200   50.5910 C   0  0  0  0  0  3  0  0  0  0  0  0
   38.3590   27.6360   51.6060 C   0  0  0  0  0  0  0  0  0  0  0  0
   38.8390   27.1300   52.8360 C   0  0  0  0  0  0  0  0  0  0  0  0
   38.5120   27.5750   53.7830 H   0  0  0  0  0  0  0  0  0  0  0  0
   39.7260   26.0970   53.0190 C   0  0  0  0  0  0  0  0  0  0  0  0
   40.2660   25.5150   54.1140 N   0  0  0  0  0  0  0  0  0  0  0  0
   41.0950   24.5280   53.7020 C   0  0  0  0  0  0  0  0  0  0  0  0
   41.6360   23.9280   54.4210 H   0  0  0  0  0  0  0  0  0  0  0  0
   41.0570   24.5090   52.3360 N   0  0  0  0  0  0  0  0  0  0  0  0
   40.2330   25.4520   51.9050 C   0  0  0  0  0  0  0  0  0  0  0  0
   39.8210   25.8800   50.6610 C   0  0  0  0  0  3  0  0  0  0  0  0
   40.0730   25.7850   55.1210 H   0  0  0  0  0  0  0  0  0  0  0  0
  2  8  1  0  0  0  0
  2  1  1  0  0  0  0
  3  2  2  0  0  0  0
  4  5  2  0  0  0  0
  4  3  1  0  0  0  0
  5  6  1  0  0  0  0
  6  7  1  0  0  0  0
  6  8  2  0  0  0  0
  8 20  1  0  0  0  0
  9  4  1  0  0  0  0
 10  5  1  0  0  0  0
 11 16  1  0  0  0  0
 11 17  1  0  0  0  0
 12 11  2  0  0  0  0
 13 14  2  0  0  0  0
 13 12  1  0  0  0  0
 14 15  1  0  0  0  0
 15  3  1  0  0  0  0
 15 16  2  0  0  0  0
 18 12  1  0  0  0  0
 19 13  1  0  0  0  0
 20 22  1  0  0  0  0
 20 21  1  0  0  0  0
 23 33  2  0  0  0  0
 23 24  1  0  0  0  0
 24 20  1  0  0  0  0
 24 25  2  0  0  0  0
 25 27  1  0  0  0  0
 25 26  1  0  0  0  0
 27 28  1  0  0  0  0
 28 34  1  0  0  0  0
 29 28  1  0  0  0  0
 29 30  1  0  0  0  0
 31 29  2  0  0  0  0
 32 31  1  0  0  0  0
 32 27  2  0  0  0  0
 33 32  1  0  0  0  0
M  END
>  <minimizedAffinity>
0.129840285

>  <minimizedRMSD>
2.28190279

$$$$
