
 OpenBabel03272509183D

 36 39  0  0  0  0  0  0  0  0999 V2000
   37.5410   31.6570   47.4140 C   0  0  0  0  0  0  0  0  0  0  0  0
   36.9900   31.1890   48.5920 C   0  0  0  0  0  0  0  0  0  0  0  0
   37.5370   31.7740   49.7470 C   0  0  0  0  0  0  0  0  0  0  0  0
   38.5490   32.7440   49.6810 C   0  0  0  0  0  0  0  0  0  0  0  0
   39.0360   33.1460   48.4230 C   0  0  0  0  0  0  0  0  0  0  0  0
   38.5080   32.5780   47.2710 C   0  0  0  0  0  0  0  0  0  0  0  0
   37.1620   31.4650   50.7070 H   0  0  0  0  0  0  0  0  0  0  0  0
   38.9380   33.1650   50.5960 H   0  0  0  0  0  0  0  0  0  0  0  0
   39.8190   33.8960   48.3950 H   0  0  0  0  0  0  0  0  0  0  0  0
   34.8350   30.3160   47.8520 C   0  0  0  0  0  0  0  0  0  0  0  0
   35.9620   30.2070   48.6650 C   0  0  0  0  0  0  0  0  0  0  0  0
   36.0320   29.1120   49.5350 C   0  0  0  0  0  0  0  0  0  0  0  0
   35.0090   28.2240   49.5410 N   0  0  0  0  0  0  0  0  0  0  0  0
   33.9260   28.3700   48.7290 C   0  0  0  0  0  0  0  0  0  0  0  0
   33.8450   29.4090   47.8930 N   0  0  0  0  0  0  0  0  0  0  0  0
   34.7560   31.1550   47.1690 H   0  0  0  0  0  0  0  0  0  0  0  0
   33.1620   27.6060   48.8090 H   0  0  0  0  0  0  0  0  0  0  0  0
   37.2100   28.9450   50.4250 C   0  0  0  0  0  0  0  0  0  0  0  0
   38.1640   29.1050   49.8590 H   0  0  0  0  0  0  0  0  0  0  0  0
   37.1660   29.7790   51.1660 H   0  0  0  0  0  0  0  0  0  0  0  0
   37.1760   27.9540   50.8860 H   0  0  0  0  0  0  0  0  0  0  0  0
   37.0590   31.1320   46.2030 O   0  0  0  0  0  0  0  0  0  0  0  0
   36.9080   30.1370   46.0750 H   0  0  0  0  0  0  0  0  0  0  0  0
   39.0340   33.0220   46.0820 O   0  0  0  0  0  0  0  0  0  0  0  0
   40.3810   31.1800   45.0570 C   0  0  0  0  0  3  0  0  0  0  0  0
   39.5350   32.2680   45.0600 C   0  0  0  0  0  0  0  0  0  0  0  0
   39.0670   32.7430   43.8290 C   0  0  0  0  0  0  0  0  0  0  0  0
   38.4000   33.5840   43.6620 H   0  0  0  0  0  0  0  0  0  0  0  0
   39.4400   32.1360   42.6240 C   0  0  0  0  0  0  0  0  0  0  0  0
   39.1730   32.3440   41.3230 N   0  0  0  0  0  0  0  0  0  0  0  0
   39.8120   31.4410   40.5610 C   0  0  0  0  0  0  0  0  0  0  0  0
   39.7780   31.3720   39.4780 H   0  0  0  0  0  0  0  0  0  0  0  0
   40.5060   30.6370   41.4100 N   0  0  0  0  0  0  0  0  0  0  0  0
   40.2880   31.0500   42.6800 C   0  0  0  0  0  0  0  0  0  0  0  0
   40.7610   30.5670   43.8830 C   0  0  0  0  0  3  0  0  0  0  0  0
   38.5530   33.1030   40.9570 H   0  0  0  0  0  0  0  0  0  0  0  0
  1  2  1  0  0  0  0
  2 11  1  0  0  0  0
  2  3  2  0  0  0  0
  3  7  1  0  0  0  0
  4  3  1  0  0  0  0
  4  8  1  0  0  0  0
  5  4  2  0  0  0  0
  6  1  2  0  0  0  0
  6  5  1  0  0  0  0
  9  5  1  0  0  0  0
 10 15  2  0  0  0  0
 10 11  1  0  0  0  0
 11 12  2  0  0  0  0
 12 13  1  0  0  0  0
 12 18  1  0  0  0  0
 14 17  1  0  0  0  0
 14 13  2  0  0  0  0
 15 14  1  0  0  0  0
 16 10  1  0  0  0  0
 18 21  1  0  0  0  0
 18 20  1  0  0  0  0
 19 18  1  0  0  0  0
 22  1  1  0  0  0  0
 23 22  1  0  0  0  0
 24  6  1  0  0  0  0
 25 26  1  0  0  0  0
 26 24  1  0  0  0  0
 27 26  2  0  0  0  0
 28 27  1  0  0  0  0
 29 34  2  0  0  0  0
 29 27  1  0  0  0  0
 30 29  1  0  0  0  0
 31 30  1  0  0  0  0
 31 33  2  0  0  0  0
 32 31  1  0  0  0  0
 33 34  1  0  0  0  0
 34 35  1  0  0  0  0
 35 25  2  0  0  0  0
 36 30  1  0  0  0  0
M  END
>  <minimizedAffinity>
-6.91517735

>  <minimizedRMSD>
2.13995218

$$$$
