
 OpenBabel03272503053D

 35 38  0  0  0  0  0  0  0  0999 V2000
   38.4440   30.4260   47.3350 F   0  0  0  0  0  0  0  0  0  0  0  0
   38.7310   31.6660   47.8270 C   0  0  0  0  0  0  0  0  0  0  0  0
   38.1700   32.0630   49.0090 C   0  0  0  0  0  0  0  0  0  0  0  0
   38.5020   33.3180   49.4430 C   0  0  0  0  0  0  0  0  0  0  0  0
   39.3450   34.1580   48.7600 C   0  0  0  0  0  0  0  0  0  0  0  0
   39.8930   33.7210   47.5670 C   0  0  0  0  0  0  0  0  0  0  0  0
   39.5830   32.4620   47.0960 C   0  0  0  0  0  0  0  0  0  0  0  0
   38.0520   33.6410   50.3950 H   0  0  0  0  0  0  0  0  0  0  0  0
   39.5450   35.1350   49.1900 H   0  0  0  0  0  0  0  0  0  0  0  0
   40.5550   34.3820   47.0310 H   0  0  0  0  0  0  0  0  0  0  0  0
   36.7740   29.5750   51.4920 C   0  0  0  0  0  0  0  0  0  0  0  0
   37.6580   30.4610   50.8430 C   0  0  0  0  0  0  0  0  0  0  0  0
   37.2790   31.1390   49.7050 C   0  0  0  0  0  0  0  0  0  0  0  0
   36.0150   30.9120   49.2430 N   0  0  0  0  0  0  0  0  0  0  0  0
   35.1730   30.0660   49.8620 C   0  0  0  0  0  0  0  0  0  0  0  0
   35.5470   29.4140   50.9620 N   0  0  0  0  0  0  0  0  0  0  0  0
   37.1330   29.0680   52.3890 H   0  0  0  0  0  0  0  0  0  0  0  0
   38.6630   30.6650   51.1800 H   0  0  0  0  0  0  0  0  0  0  0  0
   34.1910   29.9510   49.4200 H   0  0  0  0  0  0  0  0  0  0  0  0
   39.2760   32.1580   44.7380 C   0  0  0  0  0  0  0  0  0  0  0  0
   38.1630   32.7090   44.9880 O   0  0  0  0  0  0  0  0  0  0  0  0
   40.1320   31.9770   45.8650 N   0  0  0  0  0  0  0  0  0  0  0  0
   41.0430   31.5300   45.7100 H   0  0  0  0  0  0  0  0  0  0  0  0
   40.4160   30.6760   43.2370 C   0  0  0  0  0  3  0  0  0  0  0  0
   39.5860   31.7690   43.3830 C   0  0  0  0  0  0  0  0  0  0  0  0
   39.0690   32.4660   42.3100 C   0  0  0  0  0  0  0  0  0  0  0  0
   38.4200   33.3230   42.4240 H   0  0  0  0  0  0  0  0  0  0  0  0
   39.3910   32.0610   41.0270 C   0  0  0  0  0  0  0  0  0  0  0  0
   39.0480   32.5320   39.8150 N   0  0  0  0  0  0  0  0  0  0  0  0
   39.6460   31.7540   38.9090 C   0  0  0  0  0  0  0  0  0  0  0  0
   39.5280   31.9260   37.8450 H   0  0  0  0  0  0  0  0  0  0  0  0
   40.3590   30.8050   39.5330 N   0  0  0  0  0  0  0  0  0  0  0  0
   40.2210   30.9670   40.8790 C   0  0  0  0  0  0  0  0  0  0  0  0
   40.7460   30.2590   41.9430 C   0  0  0  0  0  3  0  0  0  0  0  0
   38.4240   33.3580   39.6700 H   0  0  0  0  0  0  0  0  0  0  0  0
  1  2  1  0  0  0  0
  2  3  1  0  0  0  0
  3  4  2  0  0  0  0
  3 13  1  0  0  0  0
  4  8  1  0  0  0  0
  5  9  1  0  0  0  0
  5  4  1  0  0  0  0
  6  5  2  0  0  0  0
  7  6  1  0  0  0  0
  7  2  2  0  0  0  0
 10  6  1  0  0  0  0
 11 17  1  0  0  0  0
 12 18  1  0  0  0  0
 12 11  2  0  0  0  0
 13 12  1  0  0  0  0
 14 13  2  0  0  0  0
 14 15  1  0  0  0  0
 15 16  2  0  0  0  0
 16 11  1  0  0  0  0
 19 15  1  0  0  0  0
 20 21  2  0  0  0  0
 20 22  1  0  0  0  0
 22  7  1  0  0  0  0
 23 22  1  0  0  0  0
 24 25  1  0  0  0  0
 25 20  1  0  0  0  0
 26 27  1  0  0  0  0
 26 25  2  0  0  0  0
 28 26  1  0  0  0  0
 29 28  1  0  0  0  0
 30 32  2  0  0  0  0
 30 29  1  0  0  0  0
 31 30  1  0  0  0  0
 32 33  1  0  0  0  0
 33 28  2  0  0  0  0
 33 34  1  0  0  0  0
 34 24  2  0  0  0  0
 35 29  1  0  0  0  0
M  END
>  <minimizedAffinity>
-7.01118088

>  <minimizedRMSD>
0.659669816

$$$$
