
 OpenBabel03272506323D

 43 46  0  0  1  0  0  0  0  0999 V2000
   34.2830   29.1490   48.6350 C   0  0  1  0  0  0  0  0  0  0  0  0
   33.7640   30.0850   49.6090 C   0  0  0  0  0  0  0  0  0  0  0  0
   34.1470   29.8570   51.0560 C   0  0  0  0  0  0  0  0  0  0  0  0
   35.5420   29.3720   51.2790 C   0  0  0  0  0  0  0  0  0  0  0  0
   36.1130   28.4380   50.2780 C   0  0  0  0  0  0  0  0  0  0  0  0
   35.7260   28.7810   48.8880 C   0  0  2  0  0  0  0  0  0  0  0  0
   34.3410   29.6620   47.6240 H   0  0  0  0  0  0  0  0  0  0  0  0
   32.7010   30.3060   49.5970 H   0  0  0  0  0  0  0  0  0  0  0  0
   34.2450   31.0850   49.3820 H   0  0  0  0  0  0  0  0  0  0  0  0
   33.4470   29.1270   51.5290 H   0  0  0  0  0  0  0  0  0  0  0  0
   34.0140   30.8000   51.6240 H   0  0  0  0  0  0  0  0  0  0  0  0
   36.2230   30.2510   51.4200 H   0  0  0  0  0  0  0  0  0  0  0  0
   35.5660   28.8540   52.2650 H   0  0  0  0  0  0  0  0  0  0  0  0
   35.9080   27.3570   50.4860 H   0  0  0  0  0  0  0  0  0  0  0  0
   37.2190   28.5220   50.3300 H   0  0  0  0  0  0  0  0  0  0  0  0
   36.1030   28.0100   48.2180 H   0  0  0  0  0  0  0  0  0  0  0  0
   32.0950   27.8310   48.7460 C   0  0  0  0  0  0  0  0  0  0  0  0
   33.4640   27.9580   48.3520 C   0  0  0  0  0  0  0  0  0  0  0  0
   33.9900   26.8690   47.6770 C   0  0  0  0  0  0  0  0  0  0  0  0
   33.2070   25.7740   47.4340 N   0  0  0  0  0  0  0  0  0  0  0  0
   31.9290   25.7120   47.8290 C   0  0  0  0  0  0  0  0  0  0  0  0
   31.3680   26.7580   48.4940 N   0  0  0  0  0  0  0  0  0  0  0  0
   31.6550   28.6670   49.2760 H   0  0  0  0  0  0  0  0  0  0  0  0
   35.0050   26.8370   47.3260 H   0  0  0  0  0  0  0  0  0  0  0  0
   31.4110   24.7980   47.5800 H   0  0  0  0  0  0  0  0  0  0  0  0
   36.5080   30.0870   48.5790 C   0  0  0  0  0  0  0  0  0  0  0  0
   36.0620   30.9420   49.1590 H   0  0  0  0  0  0  0  0  0  0  0  0
   37.5700   29.9880   48.8140 H   0  0  0  0  0  0  0  0  0  0  0  0
   36.2880   30.4850   47.1170 C   0  0  0  0  0  0  0  0  0  0  0  0
   35.3370   31.0650   47.0680 H   0  0  0  0  0  0  0  0  0  0  0  0
   36.2410   29.5580   46.5290 H   0  0  0  0  0  0  0  0  0  0  0  0
   38.4430   31.8370   47.4230 C   0  0  0  0  0  3  0  0  0  0  0  0
   37.4270   31.3140   46.6500 C   0  0  0  0  0  0  0  0  0  0  0  0
   37.4860   31.6000   45.2960 C   0  0  0  0  0  0  0  0  0  0  0  0
   36.7090   31.2130   44.6290 H   0  0  0  0  0  0  0  0  0  0  0  0
   38.4630   32.3510   44.6720 C   0  0  0  0  0  0  0  0  0  0  0  0
   38.6920   32.7300   43.4190 N   0  0  0  0  0  0  0  0  0  0  0  0
   39.8180   33.4630   43.4290 C   0  0  0  0  0  0  0  0  0  0  0  0
   40.1940   33.8790   42.4960 H   0  0  0  0  0  0  0  0  0  0  0  0
   40.2820   33.5350   44.6960 N   0  0  0  0  0  0  0  0  0  0  0  0
   39.4550   32.8510   45.4910 C   0  0  0  0  0  0  0  0  0  0  0  0
   39.4460   32.5960   46.8590 C   0  0  0  0  0  3  0  0  0  0  0  0
   38.0820   32.4790   42.6090 H   0  0  0  0  0  0  0  0  0  0  0  0
  1  7  1  6  0  0  0
  1  6  1  0  0  0  0
  1  2  1  0  0  0  0
  2  3  1  0  0  0  0
  3  4  1  0  0  0  0
  3 10  1  0  0  0  0
  3 11  1  0  0  0  0
  4 12  1  0  0  0  0
  4 13  1  0  0  0  0
  5 15  1  0  0  0  0
  5 14  1  0  0  0  0
  5  4  1  0  0  0  0
  6 16  1  6  0  0  0
  6  5  1  0  0  0  0
  8  2  1  0  0  0  0
  9  2  1  0  0  0  0
 17 23  1  0  0  0  0
 18  1  1  0  0  0  0
 18 17  2  0  0  0  0
 19 18  1  0  0  0  0
 20 19  2  0  0  0  0
 20 21  1  0  0  0  0
 21 22  2  0  0  0  0
 22 17  1  0  0  0  0
 24 19  1  0  0  0  0
 25 21  1  0  0  0  0
 26 28  1  0  0  0  0
 26  6  1  0  0  0  0
 26 27  1  0  0  0  0
 29 26  1  0  0  0  0
 30 29  1  0  0  0  0
 31 29  1  0  0  0  0
 33 29  1  0  0  0  0
 33 32  2  0  0  0  0
 34 33  1  0  0  0  0
 35 34  1  0  0  0  0
 36 34  2  0  0  0  0
 36 41  1  0  0  0  0
 37 38  1  0  0  0  0
 37 36  1  0  0  0  0
 38 40  2  0  0  0  0
 39 38  1  0  0  0  0
 40 41  1  0  0  0  0
 41 42  2  0  0  0  0
 42 32  1  0  0  0  0
 43 37  1  0  0  0  0
M  END
>  <minimizedAffinity>
-5.30480528

>  <minimizedRMSD>
4.93318701

$$$$
