
 OpenBabel03272507523D

 35 38  0  0  0  0  0  0  0  0999 V2000
   36.9960   31.2980   48.1530 N   0  0  0  0  0  0  0  0  0  0  0  0
   37.6000   32.0700   49.0480 C   0  0  0  0  0  0  0  0  0  0  0  0
   38.6810   32.8640   48.6550 C   0  0  0  0  0  0  0  0  0  0  0  0
   39.0230   32.7640   47.3360 C   0  0  0  0  0  0  0  0  0  0  0  0
   40.0090   33.5000   47.0170 O   0  0  0  0  0  0  0  0  0  0  0  0
   38.4450   32.0060   46.4150 N   0  0  0  0  0  0  0  0  0  0  0  0
   37.4050   31.2570   46.8470 C   0  0  0  0  0  0  0  0  0  0  0  0
   36.8400   30.5250   45.9730 O   0  0  0  0  0  0  0  0  0  0  0  0
   37.1890   32.0150   50.0420 H   0  0  0  0  0  0  0  0  0  0  0  0
   39.1410   33.4690   49.3960 H   0  0  0  0  0  0  0  0  0  0  0  0
   38.5800   32.8100   44.0090 C   0  0  0  0  0  3  0  0  0  0  0  0
   38.8700   31.9620   45.0500 C   0  0  0  0  0  0  0  0  0  0  0  0
   39.6980   30.8560   44.8410 C   0  0  0  0  0  0  0  0  0  0  0  0
   40.0020   30.1150   45.5780 H   0  0  0  0  0  0  0  0  0  0  0  0
   40.2370   30.6030   43.5860 C   0  0  0  0  0  0  0  0  0  0  0  0
   41.0520   29.6500   43.0580 N   0  0  0  0  0  0  0  0  0  0  0  0
   41.2470   29.9130   41.7460 C   0  0  0  0  0  0  0  0  0  0  0  0
   41.8710   29.2710   41.1330 H   0  0  0  0  0  0  0  0  0  0  0  0
   40.5500   31.0440   41.4350 N   0  0  0  0  0  0  0  0  0  0  0  0
   39.9380   31.4620   42.5500 C   0  0  0  0  0  0  0  0  0  0  0  0
   39.1180   32.5510   42.7660 C   0  0  0  0  0  3  0  0  0  0  0  0
   41.4480   28.8440   43.6280 H   0  0  0  0  0  0  0  0  0  0  0  0
   35.7440   30.0470   49.8210 C   0  0  0  0  0  0  0  0  0  0  0  0
   35.8830   30.4490   48.4770 C   0  0  0  0  0  0  0  0  0  0  0  0
   34.9440   30.0070   47.5310 C   0  0  0  0  0  0  0  0  0  0  0  0
   33.9450   29.2090   47.9710 N   0  0  0  0  0  0  0  0  0  0  0  0
   33.8130   28.8310   49.2320 C   0  0  0  0  0  0  0  0  0  0  0  0
   34.7070   29.2480   50.1480 N   0  0  0  0  0  0  0  0  0  0  0  0
   35.0780   30.3310   46.5130 H   0  0  0  0  0  0  0  0  0  0  0  0
   33.0180   28.1930   49.5920 H   0  0  0  0  0  0  0  0  0  0  0  0
   37.6060   29.7290   51.6230 C   0  0  0  0  0  0  0  0  0  0  0  0
   37.8660   28.5280   51.4020 O   0  0  0  0  0  0  0  0  0  0  0  0
   36.6260   30.4470   50.8470 N   0  0  0  0  0  0  0  0  0  0  0  0
   38.1580   30.1860   52.4260 H   0  0  0  0  0  0  0  0  0  0  0  0
   36.6080   31.4670   51.1430 H   0  0  0  0  0  0  0  0  0  0  0  0
  1 24  1  0  0  0  0
  1  2  1  0  0  0  0
  2  9  1  0  0  0  0
  3  2  2  0  0  0  0
  3 10  1  0  0  0  0
  4  3  1  0  0  0  0
  5  4  2  0  0  0  0
  6  7  1  0  0  0  0
  6  4  1  0  0  0  0
  7  1  1  0  0  0  0
  8  7  2  0  0  0  0
 11 12  1  0  0  0  0
 12  6  1  0  0  0  0
 13 12  2  0  0  0  0
 13 14  1  0  0  0  0
 15 13  1  0  0  0  0
 16 15  1  0  0  0  0
 16 22  1  0  0  0  0
 17 16  1  0  0  0  0
 18 17  1  0  0  0  0
 19 17  2  0  0  0  0
 19 20  1  0  0  0  0
 20 21  1  0  0  0  0
 20 15  2  0  0  0  0
 21 11  2  0  0  0  0
 23 28  1  0  0  0  0
 23 33  1  0  0  0  0
 24 23  2  0  0  0  0
 25 26  2  0  0  0  0
 25 24  1  0  0  0  0
 26 27  1  0  0  0  0
 27 30  1  0  0  0  0
 27 28  2  0  0  0  0
 29 25  1  0  0  0  0
 31 34  1  0  0  0  0
 32 31  2  0  0  0  0
 33 35  1  0  0  0  0
 33 31  1  0  0  0  0
M  END
>  <minimizedAffinity>
-6.94651175

>  <minimizedRMSD>
2.73780894

$$$$
