
 OpenBabel03262521093D

 27 29  0  0  0  0  0  0  0  0999 V2000
   35.5610   30.1070   46.4100 O   0  0  0  0  0  0  0  0  0  0  0  0
   34.3590   29.8450   47.3000 P   0  0  1  0  0  0  0  0  0  0  0  0
   34.2200   28.1710   47.6130 O   0  0  0  0  0  0  0  0  0  0  0  0
   33.5030   28.0390   48.2630 H   0  0  0  0  0  0  0  0  0  0  0  0
   34.5120   30.5860   48.8350 O   0  0  0  0  0  0  0  0  0  0  0  0
   35.6630   30.4880   49.6000 C   0  0  0  0  0  0  0  0  0  0  0  0
   35.8780   29.5360   50.6090 C   0  0  0  0  0  0  0  0  0  0  0  0
   37.0800   29.5560   51.2940 C   0  0  0  0  0  0  0  0  0  0  0  0
   38.0110   30.5080   50.9570 N   0  0  0  0  0  0  0  0  0  0  0  0
   37.7650   31.4220   49.9650 C   0  0  0  0  0  0  0  0  0  0  0  0
   36.5970   31.4040   49.2970 N   0  0  0  0  0  0  0  0  0  0  0  0
   35.0880   28.8510   50.7810 H   0  0  0  0  0  0  0  0  0  0  0  0
   37.2500   28.8350   52.0630 H   0  0  0  0  0  0  0  0  0  0  0  0
   38.5230   32.1640   49.7200 H   0  0  0  0  0  0  0  0  0  0  0  0
   33.0060   30.4290   46.4930 O   0  0  0  0  0  0  0  0  0  0  0  0
   30.7530   29.4970   46.3190 C   0  0  0  0  0  3  0  0  0  0  0  0
   32.0340   29.7020   45.8520 C   0  0  0  0  0  0  0  0  0  0  0  0
   32.4520   29.1600   44.6320 C   0  0  0  0  0  0  0  0  0  0  0  0
   33.4260   29.2690   44.1940 H   0  0  0  0  0  0  0  0  0  0  0  0
   31.5350   28.4060   43.9080 C   0  0  0  0  0  0  0  0  0  0  0  0
   31.5890   27.7550   42.7350 N   0  0  0  0  0  0  0  0  0  0  0  0
   30.4010   27.1630   42.4680 C   0  0  0  0  0  0  0  0  0  0  0  0
   30.0740   26.5600   41.6260 H   0  0  0  0  0  0  0  0  0  0  0  0
   29.5650   27.4470   43.5060 N   0  0  0  0  0  0  0  0  0  0  0  0
   30.2590   28.2130   44.3950 C   0  0  0  0  0  0  0  0  0  0  0  0
   29.8180   28.7400   45.6040 C   0  0  0  0  0  3  0  0  0  0  0  0
   32.4200   27.6910   42.0850 H   0  0  0  0  0  0  0  0  0  0  0  0
  2  1  2  6  0  0  0
  2  3  1  0  0  0  0
  2  5  1  0  0  0  0
  3  4  1  0  0  0  0
  5  6  1  0  0  0  0
  6  7  1  0  0  0  0
  7 12  1  0  0  0  0
  7  8  2  0  0  0  0
  8 13  1  0  0  0  0
  9  8  1  0  0  0  0
 10  9  2  0  0  0  0
 11  6  2  0  0  0  0
 11 10  1  0  0  0  0
 14 10  1  0  0  0  0
 15  2  1  0  0  0  0
 17 16  1  0  0  0  0
 17 15  1  0  0  0  0
 18 17  2  0  0  0  0
 19 18  1  0  0  0  0
 20 25  2  0  0  0  0
 20 18  1  0  0  0  0
 21 20  1  0  0  0  0
 22 21  1  0  0  0  0
 22 24  2  0  0  0  0
 23 22  1  0  0  0  0
 24 25  1  0  0  0  0
 25 26  1  0  0  0  0
 26 16  2  0  0  0  0
 27 21  1  0  0  0  0
M  END
>  <minimizedAffinity>
-3.83694267

>  <minimizedRMSD>
1.83797407

$$$$
