
 OpenBabel03272501593D

 34 37  0  0  0  0  0  0  0  0999 V2000
   36.4530   27.9890   32.9190 C   0  0  0  0  0  0  0  0  0  0  0  0
   36.4290   26.9970   31.9530 C   0  0  0  0  0  0  0  0  0  0  0  0
   37.0140   25.8480   32.4160 C   0  0  0  0  0  0  0  0  0  0  0  0
   37.3870   26.1670   33.6700 N   0  0  0  0  0  0  0  0  0  0  0  0
   37.0590   27.4250   33.9690 N   0  0  0  0  0  0  0  0  0  0  0  0
   36.0030   27.1080   30.9520 H   0  0  0  0  0  0  0  0  0  0  0  0
   37.1430   24.9110   31.8930 H   0  0  0  0  0  0  0  0  0  0  0  0
   39.0900   24.4950   34.2190 C   0  0  0  0  0  3  0  0  0  0  0  0
   38.0520   25.2940   34.5890 C   0  0  0  0  0  0  0  0  0  0  0  0
   37.6240   25.2540   35.9150 C   0  0  0  0  0  0  0  0  0  0  0  0
   36.7920   25.8990   36.1920 H   0  0  0  0  0  0  0  0  0  0  0  0
   38.1720   24.4680   36.8800 C   0  0  0  0  0  0  0  0  0  0  0  0
   37.9070   24.2870   38.2000 N   0  0  0  0  0  0  0  0  0  0  0  0
   38.7870   23.3700   38.6500 C   0  0  0  0  0  0  0  0  0  0  0  0
   38.7820   23.0530   39.6770 H   0  0  0  0  0  0  0  0  0  0  0  0
   39.5900   22.9880   37.6180 N   0  0  0  0  0  0  0  0  0  0  0  0
   39.2270   23.6540   36.5140 C   0  0  0  0  0  0  0  0  0  0  0  0
   39.6670   23.6810   35.1940 C   0  0  0  0  0  3  0  0  0  0  0  0
   37.1420   24.8070   38.6850 H   0  0  0  0  0  0  0  0  0  0  0  0
   35.9180   29.3870   32.8120 C   0  0  0  0  0  0  0  0  0  0  0  0
   35.8270   29.6290   31.7450 H   0  0  0  0  0  0  0  0  0  0  0  0
   36.5810   30.1070   33.3530 H   0  0  0  0  0  0  0  0  0  0  0  0
   34.5830   29.3660   33.5040 C   0  0  0  0  0  0  0  0  0  0  0  0
   34.2950   28.3530   33.8420 H   0  0  0  0  0  0  0  0  0  0  0  0
   33.7570   29.6930   32.8140 H   0  0  0  0  0  0  0  0  0  0  0  0
   33.5470   31.3830   36.4210 C   0  0  0  0  0  0  0  0  0  0  0  0
   34.7360   32.0090   36.8110 C   0  0  0  0  0  0  0  0  0  0  0  0
   35.8970   31.7240   36.0520 C   0  0  0  0  0  0  0  0  0  0  0  0
   35.7920   30.8700   35.0030 N   0  0  0  0  0  0  0  0  0  0  0  0
   34.6170   30.2940   34.6720 C   0  0  0  0  0  0  0  0  0  0  0  0
   33.5150   30.5590   35.3850 N   0  0  0  0  0  0  0  0  0  0  0  0
   32.6710   31.6130   37.0130 H   0  0  0  0  0  0  0  0  0  0  0  0
   34.8020   32.6870   37.6510 H   0  0  0  0  0  0  0  0  0  0  0  0
   36.8230   32.1900   36.3290 H   0  0  0  0  0  0  0  0  0  0  0  0
  1  5  2  0  0  0  0
  2  3  2  0  0  0  0
  2  1  1  0  0  0  0
  3  4  1  0  0  0  0
  4  5  1  0  0  0  0
  4  9  1  0  0  0  0
  6  2  1  0  0  0  0
  7  3  1  0  0  0  0
  8  9  2  0  0  0  0
  8 18  1  0  0  0  0
  9 10  1  0  0  0  0
 10 11  1  0  0  0  0
 10 12  2  0  0  0  0
 12 13  1  0  0  0  0
 13 14  1  0  0  0  0
 13 19  1  0  0  0  0
 14 15  1  0  0  0  0
 16 14  2  0  0  0  0
 17 12  1  0  0  0  0
 17 16  1  0  0  0  0
 18 17  2  0  0  0  0
 20  1  1  0  0  0  0
 20 22  1  0  0  0  0
 20 23  1  0  0  0  0
 21 20  1  0  0  0  0
 23 24  1  0  0  0  0
 23 30  1  0  0  0  0
 25 23  1  0  0  0  0
 26 27  1  0  0  0  0
 26 32  1  0  0  0  0
 27 33  1  0  0  0  0
 28 34  1  0  0  0  0
 28 27  2  0  0  0  0
 29 28  1  0  0  0  0
 30 29  2  0  0  0  0
 30 31  1  0  0  0  0
 31 26  2  0  0  0  0
M  END
>  <minimizedAffinity>
-5.51902008

$$$$

 OpenBabel03272501593D

 34 37  0  0  0  0  0  0  0  0999 V2000
   37.8700   27.2750   34.1720 C   0  0  0  0  0  0  0  0  0  0  0  0
   37.6660   27.2580   32.8010 C   0  0  0  0  0  0  0  0  0  0  0  0
   36.5810   28.0210   32.4580 C   0  0  0  0  0  0  0  0  0  0  0  0
   36.1410   28.4930   33.6400 N   0  0  0  0  0  0  0  0  0  0  0  0
   36.8960   28.0570   34.6490 N   0  0  0  0  0  0  0  0  0  0  0  0
   38.2830   26.7110   32.0840 H   0  0  0  0  0  0  0  0  0  0  0  0
   36.1800   28.1970   31.4710 H   0  0  0  0  0  0  0  0  0  0  0  0
   34.9670   30.3020   34.7990 C   0  0  0  0  0  3  0  0  0  0  0  0
   35.0120   29.3540   33.8240 C   0  0  0  0  0  0  0  0  0  0  0  0
   33.9120   29.2190   32.9780 C   0  0  0  0  0  0  0  0  0  0  0  0
   33.9660   28.4550   32.2050 H   0  0  0  0  0  0  0  0  0  0  0  0
   32.7840   29.9730   33.0530 C   0  0  0  0  0  0  0  0  0  0  0  0
   31.6280   30.0000   32.3400 N   0  0  0  0  0  0  0  0  0  0  0  0
   30.8630   30.9700   32.8770 C   0  0  0  0  0  0  0  0  0  0  0  0
   29.8870   31.1900   32.4830 H   0  0  0  0  0  0  0  0  0  0  0  0
   31.5390   31.5410   33.9130 N   0  0  0  0  0  0  0  0  0  0  0  0
   32.7290   30.9400   34.0400 C   0  0  0  0  0  0  0  0  0  0  0  0
   33.8180   31.0870   34.8940 C   0  0  0  0  0  3  0  0  0  0  0  0
   31.4570   29.3470   31.5420 H   0  0  0  0  0  0  0  0  0  0  0  0
   38.9450   26.5720   34.9480 C   0  0  0  0  0  0  0  0  0  0  0  0
   38.8690   26.8960   35.9940 H   0  0  0  0  0  0  0  0  0  0  0  0
   39.9520   26.7870   34.5110 H   0  0  0  0  0  0  0  0  0  0  0  0
   38.6670   25.1030   34.7880 C   0  0  0  0  0  0  0  0  0  0  0  0
   39.3560   24.6140   34.0740 H   0  0  0  0  0  0  0  0  0  0  0  0
   37.6360   24.9220   34.3750 H   0  0  0  0  0  0  0  0  0  0  0  0
   39.7560   22.8780   37.5300 C   0  0  0  0  0  0  0  0  0  0  0  0
   38.9060   23.2350   38.5820 C   0  0  0  0  0  0  0  0  0  0  0  0
   37.9550   24.2530   38.3310 C   0  0  0  0  0  0  0  0  0  0  0  0
   37.9220   24.8180   37.0970 N   0  0  0  0  0  0  0  0  0  0  0  0
   38.7670   24.4330   36.1170 C   0  0  0  0  0  0  0  0  0  0  0  0
   39.6690   23.4720   36.3490 N   0  0  0  0  0  0  0  0  0  0  0  0
   40.4760   22.0990   37.7420 H   0  0  0  0  0  0  0  0  0  0  0  0
   38.9470   22.7740   39.5600 H   0  0  0  0  0  0  0  0  0  0  0  0
   37.2900   24.5470   39.1200 H   0  0  0  0  0  0  0  0  0  0  0  0
  1  5  2  0  0  0  0
  1 20  1  0  0  0  0
  2  1  1  0  0  0  0
  3  2  2  0  0  0  0
  3  4  1  0  0  0  0
  4  9  1  0  0  0  0
  4  5  1  0  0  0  0
  6  2  1  0  0  0  0
  7  3  1  0  0  0  0
  8 18  1  0  0  0  0
  9  8  2  0  0  0  0
 10 12  2  0  0  0  0
 10  9  1  0  0  0  0
 11 10  1  0  0  0  0
 12 17  1  0  0  0  0
 13 14  1  0  0  0  0
 13 12  1  0  0  0  0
 14 16  2  0  0  0  0
 15 14  1  0  0  0  0
 16 17  1  0  0  0  0
 17 18  2  0  0  0  0
 19 13  1  0  0  0  0
 20 21  1  0  0  0  0
 22 20  1  0  0  0  0
 23 20  1  0  0  0  0
 23 30  1  0  0  0  0
 24 23  1  0  0  0  0
 25 23  1  0  0  0  0
 26 32  1  0  0  0  0
 26 27  1  0  0  0  0
 27 33  1  0  0  0  0
 28 27  2  0  0  0  0
 28 34  1  0  0  0  0
 29 28  1  0  0  0  0
 30 31  1  0  0  0  0
 30 29  2  0  0  0  0
 31 26  2  0  0  0  0
M  END
>  <minimizedAffinity>
-5.34113598

$$$$

 OpenBabel03272501593D

 34 37  0  0  0  0  0  0  0  0999 V2000
   37.3390   27.5720   33.2960 C   0  0  0  0  0  0  0  0  0  0  0  0
   36.7770   28.0580   32.1270 C   0  0  0  0  0  0  0  0  0  0  0  0
   35.7870   28.9660   32.4010 C   0  0  0  0  0  0  0  0  0  0  0  0
   35.7670   29.0160   33.7460 N   0  0  0  0  0  0  0  0  0  0  0  0
   36.6780   28.1970   34.2760 N   0  0  0  0  0  0  0  0  0  0  0  0
   37.0760   27.7620   31.1180 H   0  0  0  0  0  0  0  0  0  0  0  0
   35.1730   29.5090   31.6970 H   0  0  0  0  0  0  0  0  0  0  0  0
   33.5390   29.7340   34.4620 C   0  0  0  0  0  3  0  0  0  0  0  0
   34.8940   29.8290   34.5370 C   0  0  0  0  0  0  0  0  0  0  0  0
   35.4480   30.7570   35.4180 C   0  0  0  0  0  0  0  0  0  0  0  0
   36.5330   30.8190   35.4630 H   0  0  0  0  0  0  0  0  0  0  0  0
   34.7270   31.5850   36.2190 C   0  0  0  0  0  0  0  0  0  0  0  0
   35.0660   32.5370   37.1260 N   0  0  0  0  0  0  0  0  0  0  0  0
   33.9130   33.0350   37.6170 C   0  0  0  0  0  0  0  0  0  0  0  0
   33.9150   33.8110   38.3610 H   0  0  0  0  0  0  0  0  0  0  0  0
   32.8690   32.3960   37.0190 N   0  0  0  0  0  0  0  0  0  0  0  0
   33.3480   31.4960   36.1510 C   0  0  0  0  0  0  0  0  0  0  0  0
   32.7800   30.5750   35.2760 C   0  0  0  0  0  3  0  0  0  0  0  0
   36.0630   32.7690   37.3360 H   0  0  0  0  0  0  0  0  0  0  0  0
   38.4450   26.5660   33.4330 C   0  0  0  0  0  0  0  0  0  0  0  0
   39.2700   26.8860   32.7830 H   0  0  0  0  0  0  0  0  0  0  0  0
   38.0790   25.5410   33.1790 H   0  0  0  0  0  0  0  0  0  0  0  0
   38.8310   26.5820   34.8860 C   0  0  0  0  0  0  0  0  0  0  0  0
   38.3700   27.4200   35.4410 H   0  0  0  0  0  0  0  0  0  0  0  0
   39.9410   26.7170   35.0150 H   0  0  0  0  0  0  0  0  0  0  0  0
   37.7490   24.0660   37.3660 C   0  0  0  0  0  0  0  0  0  0  0  0
   37.7210   22.8810   36.6230 C   0  0  0  0  0  0  0  0  0  0  0  0
   38.0800   22.9650   35.2560 C   0  0  0  0  0  0  0  0  0  0  0  0
   38.4280   24.1760   34.7510 N   0  0  0  0  0  0  0  0  0  0  0  0
   38.4370   25.2880   35.5160 C   0  0  0  0  0  0  0  0  0  0  0  0
   38.0980   25.2150   36.8090 N   0  0  0  0  0  0  0  0  0  0  0  0
   37.4700   23.9810   38.4080 H   0  0  0  0  0  0  0  0  0  0  0  0
   37.4410   21.9240   37.0420 H   0  0  0  0  0  0  0  0  0  0  0  0
   38.0680   22.0720   34.6620 H   0  0  0  0  0  0  0  0  0  0  0  0
  1 20  1  0  0  0  0
  1  5  2  0  0  0  0
  2  3  2  0  0  0  0
  2  1  1  0  0  0  0
  3  4  1  0  0  0  0
  4  5  1  0  0  0  0
  4  9  1  0  0  0  0
  6  2  1  0  0  0  0
  7  3  1  0  0  0  0
  8  9  2  0  0  0  0
  8 18  1  0  0  0  0
  9 10  1  0  0  0  0
 10 11  1  0  0  0  0
 10 12  2  0  0  0  0
 12 13  1  0  0  0  0
 13 19  1  0  0  0  0
 13 14  1  0  0  0  0
 14 15  1  0  0  0  0
 16 14  2  0  0  0  0
 17 12  1  0  0  0  0
 17 16  1  0  0  0  0
 18 17  2  0  0  0  0
 20 23  1  0  0  0  0
 21 20  1  0  0  0  0
 22 20  1  0  0  0  0
 23 25  1  0  0  0  0
 23 24  1  0  0  0  0
 23 30  1  0  0  0  0
 26 32  1  0  0  0  0
 27 33  1  0  0  0  0
 27 26  2  0  0  0  0
 28 27  1  0  0  0  0
 29 28  2  0  0  0  0
 29 30  1  0  0  0  0
 30 31  2  0  0  0  0
 31 26  1  0  0  0  0
 34 28  1  0  0  0  0
M  END
>  <minimizedAffinity>
-5.26943541

$$$$

 OpenBabel03272501593D

 34 37  0  0  0  0  0  0  0  0999 V2000
   37.8370   24.2350   33.0390 C   0  0  0  0  0  0  0  0  0  0  0  0
   36.9330   24.0660   32.0020 C   0  0  0  0  0  0  0  0  0  0  0  0
   36.2630   25.2320   31.7420 C   0  0  0  0  0  0  0  0  0  0  0  0
   36.7770   26.0980   32.6350 N   0  0  0  0  0  0  0  0  0  0  0  0
   37.7030   25.5150   33.3990 N   0  0  0  0  0  0  0  0  0  0  0  0
   36.7710   23.1310   31.4600 H   0  0  0  0  0  0  0  0  0  0  0  0
   35.5020   25.4070   30.9950 H   0  0  0  0  0  0  0  0  0  0  0  0
   36.3190   28.0880   33.9850 C   0  0  0  0  0  3  0  0  0  0  0  0
   36.4030   27.4730   32.7750 C   0  0  0  0  0  0  0  0  0  0  0  0
   36.1090   28.2130   31.6310 C   0  0  0  0  0  0  0  0  0  0  0  0
   36.1800   27.7030   30.6730 H   0  0  0  0  0  0  0  0  0  0  0  0
   35.7410   29.5220   31.6330 C   0  0  0  0  0  0  0  0  0  0  0  0
   35.4200   30.4040   30.6510 N   0  0  0  0  0  0  0  0  0  0  0  0
   35.1360   31.5740   31.2580 C   0  0  0  0  0  0  0  0  0  0  0  0
   34.8500   32.4400   30.6880 H   0  0  0  0  0  0  0  0  0  0  0  0
   35.2810   31.4180   32.6030 N   0  0  0  0  0  0  0  0  0  0  0  0
   35.6540   30.1570   32.8580 C   0  0  0  0  0  0  0  0  0  0  0  0
   35.9440   29.4320   34.0100 C   0  0  0  0  0  3  0  0  0  0  0  0
   35.4210   30.1310   29.6430 H   0  0  0  0  0  0  0  0  0  0  0  0
   38.7610   23.2080   33.6260 C   0  0  0  0  0  0  0  0  0  0  0  0
   39.5710   23.7420   34.1390 H   0  0  0  0  0  0  0  0  0  0  0  0
   39.1440   22.5210   32.8320 H   0  0  0  0  0  0  0  0  0  0  0  0
   37.9210   22.4040   34.5790 C   0  0  0  0  0  0  0  0  0  0  0  0
   38.0100   21.3140   34.4110 H   0  0  0  0  0  0  0  0  0  0  0  0
   36.8260   22.6330   34.4560 H   0  0  0  0  0  0  0  0  0  0  0  0
   37.8060   23.5820   38.0790 C   0  0  0  0  0  0  0  0  0  0  0  0
   39.0940   23.3030   38.5490 C   0  0  0  0  0  0  0  0  0  0  0  0
   39.9990   22.7020   37.6410 C   0  0  0  0  0  0  0  0  0  0  0  0
   39.5710   22.4360   36.3810 N   0  0  0  0  0  0  0  0  0  0  0  0
   38.3150   22.7280   35.9810 C   0  0  0  0  0  0  0  0  0  0  0  0
   37.4540   23.2950   36.8350 N   0  0  0  0  0  0  0  0  0  0  0  0
   37.1290   24.0400   38.7880 H   0  0  0  0  0  0  0  0  0  0  0  0
   39.4180   23.5220   39.5570 H   0  0  0  0  0  0  0  0  0  0  0  0
   40.9940   22.4770   37.9740 H   0  0  0  0  0  0  0  0  0  0  0  0
  1  5  2  0  0  0  0
  1 20  1  0  0  0  0
  2  1  1  0  0  0  0
  3  2  2  0  0  0  0
  3  4  1  0  0  0  0
  4  9  1  0  0  0  0
  4  5  1  0  0  0  0
  6  2  1  0  0  0  0
  7  3  1  0  0  0  0
  8 18  1  0  0  0  0
  9  8  2  0  0  0  0
 10 12  2  0  0  0  0
 10  9  1  0  0  0  0
 11 10  1  0  0  0  0
 12 17  1  0  0  0  0
 13 14  1  0  0  0  0
 13 12  1  0  0  0  0
 14 16  2  0  0  0  0
 15 14  1  0  0  0  0
 16 17  1  0  0  0  0
 17 18  2  0  0  0  0
 19 13  1  0  0  0  0
 20 21  1  0  0  0  0
 20 23  1  0  0  0  0
 22 20  1  0  0  0  0
 23 30  1  0  0  0  0
 24 23  1  0  0  0  0
 25 23  1  0  0  0  0
 26 27  1  0  0  0  0
 26 32  1  0  0  0  0
 27 33  1  0  0  0  0
 28 34  1  0  0  0  0
 28 27  2  0  0  0  0
 29 28  1  0  0  0  0
 30 29  2  0  0  0  0
 30 31  1  0  0  0  0
 31 26  2  0  0  0  0
M  END
>  <minimizedAffinity>
-5.26534319

$$$$

 OpenBabel03272501593D

 34 37  0  0  0  0  0  0  0  0999 V2000
   37.2240   25.5090   33.0490 C   0  0  0  0  0  0  0  0  0  0  0  0
   36.4500   25.5460   31.9010 C   0  0  0  0  0  0  0  0  0  0  0  0
   35.9180   26.7940   31.7080 C   0  0  0  0  0  0  0  0  0  0  0  0
   36.3840   27.5000   32.7550 N   0  0  0  0  0  0  0  0  0  0  0  0
   37.1520   26.7480   33.5460 N   0  0  0  0  0  0  0  0  0  0  0  0
   36.2810   24.6970   31.2320 H   0  0  0  0  0  0  0  0  0  0  0  0
   35.2770   27.1240   30.9040 H   0  0  0  0  0  0  0  0  0  0  0  0
   36.0740   29.8180   32.0310 C   0  0  0  0  0  3  0  0  0  0  0  0
   36.1100   28.8810   33.0170 C   0  0  0  0  0  0  0  0  0  0  0  0
   35.8720   29.2870   34.3290 C   0  0  0  0  0  0  0  0  0  0  0  0
   35.9050   28.5230   35.1030 H   0  0  0  0  0  0  0  0  0  0  0  0
   35.6020   30.5650   34.7040 C   0  0  0  0  0  0  0  0  0  0  0  0
   35.3460   31.1540   35.9010 N   0  0  0  0  0  0  0  0  0  0  0  0
   35.1510   32.4650   35.6550 C   0  0  0  0  0  0  0  0  0  0  0  0
   34.9290   33.1520   36.4520 H   0  0  0  0  0  0  0  0  0  0  0  0
   35.2830   32.6860   34.3180 N   0  0  0  0  0  0  0  0  0  0  0  0
   35.5630   31.5260   33.7100 C   0  0  0  0  0  0  0  0  0  0  0  0
   35.7990   31.1370   32.3950 C   0  0  0  0  0  3  0  0  0  0  0  0
   35.3270   30.6080   36.7910 H   0  0  0  0  0  0  0  0  0  0  0  0
   37.9760   24.3380   33.6120 C   0  0  0  0  0  0  0  0  0  0  0  0
   38.3800   23.7640   32.7680 H   0  0  0  0  0  0  0  0  0  0  0  0
   37.3110   23.7190   34.2650 H   0  0  0  0  0  0  0  0  0  0  0  0
   39.0620   24.9260   34.4690 C   0  0  0  0  0  0  0  0  0  0  0  0
   39.0220   26.0310   34.5100 H   0  0  0  0  0  0  0  0  0  0  0  0
   40.0830   24.6820   34.0650 H   0  0  0  0  0  0  0  0  0  0  0  0
   37.9400   24.3170   37.9370 C   0  0  0  0  0  0  0  0  0  0  0  0
   38.8080   23.3130   38.3780 C   0  0  0  0  0  0  0  0  0  0  0  0
   39.7840   22.8510   37.4620 C   0  0  0  0  0  0  0  0  0  0  0  0
   39.8210   23.4030   36.2220 N   0  0  0  0  0  0  0  0  0  0  0  0
   38.9570   24.3710   35.8500 C   0  0  0  0  0  0  0  0  0  0  0  0
   38.0310   24.8110   36.7110 N   0  0  0  0  0  0  0  0  0  0  0  0
   37.2010   24.6560   38.6510 H   0  0  0  0  0  0  0  0  0  0  0  0
   38.7640   22.8840   39.3700 H   0  0  0  0  0  0  0  0  0  0  0  0
   40.4630   22.0810   37.7730 H   0  0  0  0  0  0  0  0  0  0  0  0
  1  5  2  0  0  0  0
  1 20  1  0  0  0  0
  2  1  1  0  0  0  0
  3  2  2  0  0  0  0
  3  4  1  0  0  0  0
  4  9  1  0  0  0  0
  4  5  1  0  0  0  0
  6  2  1  0  0  0  0
  7  3  1  0  0  0  0
  8 18  2  0  0  0  0
  8  9  1  0  0  0  0
  9 10  2  0  0  0  0
 10 12  1  0  0  0  0
 10 11  1  0  0  0  0
 12 13  1  0  0  0  0
 13 19  1  0  0  0  0
 14 13  1  0  0  0  0
 14 15  1  0  0  0  0
 16 14  2  0  0  0  0
 17 16  1  0  0  0  0
 17 12  2  0  0  0  0
 18 17  1  0  0  0  0
 20 22  1  0  0  0  0
 20 23  1  0  0  0  0
 21 20  1  0  0  0  0
 23 24  1  0  0  0  0
 23 30  1  0  0  0  0
 25 23  1  0  0  0  0
 26 27  1  0  0  0  0
 26 32  1  0  0  0  0
 27 33  1  0  0  0  0
 28 34  1  0  0  0  0
 28 27  2  0  0  0  0
 29 28  1  0  0  0  0
 30 29  2  0  0  0  0
 30 31  1  0  0  0  0
 31 26  2  0  0  0  0
M  END
>  <minimizedAffinity>
-5.2226367

$$$$

 OpenBabel03272501593D

 34 37  0  0  0  0  0  0  0  0999 V2000
   36.6470   27.7000   34.2140 C   0  0  0  0  0  0  0  0  0  0  0  0
   36.8820   26.9210   33.0920 C   0  0  0  0  0  0  0  0  0  0  0  0
   37.5300   25.7620   33.4280 C   0  0  0  0  0  0  0  0  0  0  0  0
   37.6780   25.8580   34.7620 N   0  0  0  0  0  0  0  0  0  0  0  0
   37.1600   26.9960   35.2280 N   0  0  0  0  0  0  0  0  0  0  0  0
   36.5930   27.1900   32.0720 H   0  0  0  0  0  0  0  0  0  0  0  0
   37.8440   24.9640   32.7700 H   0  0  0  0  0  0  0  0  0  0  0  0
   37.7470   24.4560   36.7680 C   0  0  0  0  0  3  0  0  0  0  0  0
   38.3050   24.8840   35.6030 C   0  0  0  0  0  0  0  0  0  0  0  0
   39.5340   24.3500   35.2200 C   0  0  0  0  0  0  0  0  0  0  0  0
   39.9650   24.7050   34.2860 H   0  0  0  0  0  0  0  0  0  0  0  0
   40.2280   23.4220   35.9320 C   0  0  0  0  0  0  0  0  0  0  0  0
   41.4140   22.7890   35.7370 N   0  0  0  0  0  0  0  0  0  0  0  0
   41.5910   21.9640   36.7880 C   0  0  0  0  0  0  0  0  0  0  0  0
   42.4670   21.3460   36.8670 H   0  0  0  0  0  0  0  0  0  0  0  0
   40.5250   22.0850   37.6260 N   0  0  0  0  0  0  0  0  0  0  0  0
   39.6690   22.9810   37.1170 C   0  0  0  0  0  0  0  0  0  0  0  0
   38.4420   23.5040   37.5140 C   0  0  0  0  0  3  0  0  0  0  0  0
   42.0060   22.9750   34.8970 H   0  0  0  0  0  0  0  0  0  0  0  0
   35.9680   29.0370   34.2760 C   0  0  0  0  0  0  0  0  0  0  0  0
   36.7410   29.8100   34.1800 H   0  0  0  0  0  0  0  0  0  0  0  0
   35.3840   29.1390   35.2250 H   0  0  0  0  0  0  0  0  0  0  0  0
   35.0010   29.0560   33.1250 C   0  0  0  0  0  0  0  0  0  0  0  0
   34.9600   28.0910   32.5870 H   0  0  0  0  0  0  0  0  0  0  0  0
   35.3010   29.8140   32.3490 H   0  0  0  0  0  0  0  0  0  0  0  0
   32.1870   29.8630   35.3790 C   0  0  0  0  0  0  0  0  0  0  0  0
   31.1200   30.0580   34.4950 C   0  0  0  0  0  0  0  0  0  0  0  0
   31.3880   29.9070   33.1130 C   0  0  0  0  0  0  0  0  0  0  0  0
   32.6490   29.5850   32.7290 N   0  0  0  0  0  0  0  0  0  0  0  0
   33.6410   29.4080   33.6270 C   0  0  0  0  0  0  0  0  0  0  0  0
   33.3950   29.5500   34.9350 N   0  0  0  0  0  0  0  0  0  0  0  0
   31.9630   29.9830   36.4310 H   0  0  0  0  0  0  0  0  0  0  0  0
   30.1210   30.3140   34.8190 H   0  0  0  0  0  0  0  0  0  0  0  0
   30.5880   30.0510   32.4120 H   0  0  0  0  0  0  0  0  0  0  0  0
  1 20  1  0  0  0  0
  1  5  2  0  0  0  0
  2  3  2  0  0  0  0
  2  1  1  0  0  0  0
  3  4  1  0  0  0  0
  4  5  1  0  0  0  0
  4  9  1  0  0  0  0
  6  2  1  0  0  0  0
  7  3  1  0  0  0  0
  8 18  1  0  0  0  0
  9  8  2  0  0  0  0
 10  9  1  0  0  0  0
 10 12  2  0  0  0  0
 11 10  1  0  0  0  0
 12 17  1  0  0  0  0
 13 12  1  0  0  0  0
 13 14  1  0  0  0  0
 14 15  1  0  0  0  0
 14 16  2  0  0  0  0
 17 18  2  0  0  0  0
 17 16  1  0  0  0  0
 19 13  1  0  0  0  0
 20 22  1  0  0  0  0
 21 20  1  0  0  0  0
 23 30  1  0  0  0  0
 23 20  1  0  0  0  0
 24 23  1  0  0  0  0
 25 23  1  0  0  0  0
 26 32  1  0  0  0  0
 27 33  1  0  0  0  0
 27 26  2  0  0  0  0
 28 27  1  0  0  0  0
 29 28  2  0  0  0  0
 29 30  1  0  0  0  0
 30 31  2  0  0  0  0
 31 26  1  0  0  0  0
 34 28  1  0  0  0  0
M  END
>  <minimizedAffinity>
-5.21175241

$$$$

 OpenBabel03272501593D

 34 37  0  0  0  0  0  0  0  0999 V2000
   38.2000   24.6380   35.5210 C   0  0  0  0  0  0  0  0  0  0  0  0
   38.2670   25.7330   36.3680 C   0  0  0  0  0  0  0  0  0  0  0  0
   37.9720   26.8900   35.6960 C   0  0  0  0  0  0  0  0  0  0  0  0
   37.7280   26.4730   34.4400 N   0  0  0  0  0  0  0  0  0  0  0  0
   37.8610   25.1490   34.3330 N   0  0  0  0  0  0  0  0  0  0  0  0
   38.5210   25.6880   37.4300 H   0  0  0  0  0  0  0  0  0  0  0  0
   37.9440   27.8960   36.0890 H   0  0  0  0  0  0  0  0  0  0  0  0
   36.5020   28.3530   33.4630 C   0  0  0  0  0  3  0  0  0  0  0  0
   37.3700   27.3130   33.3370 C   0  0  0  0  0  0  0  0  0  0  0  0
   37.9270   27.0590   32.0850 C   0  0  0  0  0  0  0  0  0  0  0  0
   38.6180   26.2230   32.0040 H   0  0  0  0  0  0  0  0  0  0  0  0
   37.6660   27.7830   30.9640 C   0  0  0  0  0  0  0  0  0  0  0  0
   38.0950   27.7020   29.6780 N   0  0  0  0  0  0  0  0  0  0  0  0
   37.4890   28.6990   29.0020 C   0  0  0  0  0  0  0  0  0  0  0  0
   37.6680   28.8470   27.9530 H   0  0  0  0  0  0  0  0  0  0  0  0
   36.6920   29.3920   29.8620 N   0  0  0  0  0  0  0  0  0  0  0  0
   36.7860   28.8430   31.0810 C   0  0  0  0  0  0  0  0  0  0  0  0
   36.2200   29.1090   32.3240 C   0  0  0  0  0  3  0  0  0  0  0  0
   38.7700   26.9670   29.3670 H   0  0  0  0  0  0  0  0  0  0  0  0
   38.4520   23.1980   35.8620 C   0  0  0  0  0  0  0  0  0  0  0  0
   39.0170   22.7530   35.0330 H   0  0  0  0  0  0  0  0  0  0  0  0
   37.4890   22.6640   36.0540 H   0  0  0  0  0  0  0  0  0  0  0  0
   39.2430   23.2160   37.1410 C   0  0  0  0  0  0  0  0  0  0  0  0
   38.7820   22.6010   37.9360 H   0  0  0  0  0  0  0  0  0  0  0  0
   39.3070   24.2540   37.5700 H   0  0  0  0  0  0  0  0  0  0  0  0
   42.6950   22.9820   35.8450 C   0  0  0  0  0  0  0  0  0  0  0  0
   43.1660   21.7920   36.4120 C   0  0  0  0  0  0  0  0  0  0  0  0
   42.2740   21.0750   37.2470 C   0  0  0  0  0  0  0  0  0  0  0  0
   41.0290   21.5770   37.4460 N   0  0  0  0  0  0  0  0  0  0  0  0
   40.6280   22.7310   36.8720 C   0  0  0  0  0  0  0  0  0  0  0  0
   41.4660   23.4140   36.0830 N   0  0  0  0  0  0  0  0  0  0  0  0
   43.3920   23.5150   35.2110 H   0  0  0  0  0  0  0  0  0  0  0  0
   44.1620   21.4070   36.2420 H   0  0  0  0  0  0  0  0  0  0  0  0
   42.6080   20.1600   37.6950 H   0  0  0  0  0  0  0  0  0  0  0  0
  1 20  1  0  0  0  0
  1  2  1  0  0  0  0
  2  6  1  0  0  0  0
  3  7  1  0  0  0  0
  3  2  2  0  0  0  0
  4  3  1  0  0  0  0
  5  4  1  0  0  0  0
  5  1  2  0  0  0  0
  9  8  1  0  0  0  0
  9  4  1  0  0  0  0
 10  9  2  0  0  0  0
 11 10  1  0  0  0  0
 12 17  2  0  0  0  0
 12 10  1  0  0  0  0
 13 12  1  0  0  0  0
 14 13  1  0  0  0  0
 14 16  2  0  0  0  0
 15 14  1  0  0  0  0
 16 17  1  0  0  0  0
 17 18  1  0  0  0  0
 18  8  2  0  0  0  0
 19 13  1  0  0  0  0
 20 22  1  0  0  0  0
 20 23  1  0  0  0  0
 21 20  1  0  0  0  0
 23 25  1  0  0  0  0
 23 24  1  0  0  0  0
 26 31  2  0  0  0  0
 26 27  1  0  0  0  0
 27 28  2  0  0  0  0
 28 29  1  0  0  0  0
 28 34  1  0  0  0  0
 30 23  1  0  0  0  0
 30 29  2  0  0  0  0
 31 30  1  0  0  0  0
 32 26  1  0  0  0  0
 33 27  1  0  0  0  0
M  END
>  <minimizedAffinity>
-5.20757771

$$$$

 OpenBabel03272501593D

 34 37  0  0  0  0  0  0  0  0999 V2000
   36.6430   28.2050   32.9270 C   0  0  0  0  0  0  0  0  0  0  0  0
   37.4400   27.7050   31.9100 C   0  0  0  0  0  0  0  0  0  0  0  0
   38.1850   26.6420   32.3500 C   0  0  0  0  0  0  0  0  0  0  0  0
   37.8210   26.5140   33.6400 N   0  0  0  0  0  0  0  0  0  0  0  0
   36.9150   27.4310   33.9830 N   0  0  0  0  0  0  0  0  0  0  0  0
   37.4770   28.1010   30.8920 H   0  0  0  0  0  0  0  0  0  0  0  0
   38.8930   26.0520   31.7880 H   0  0  0  0  0  0  0  0  0  0  0  0
   39.2650   24.6170   34.1980 C   0  0  0  0  0  3  0  0  0  0  0  0
   38.3230   25.5320   34.5530 C   0  0  0  0  0  0  0  0  0  0  0  0
   37.8290   25.5060   35.8570 C   0  0  0  0  0  0  0  0  0  0  0  0
   37.0750   26.2440   36.1210 H   0  0  0  0  0  0  0  0  0  0  0  0
   38.2240   24.6240   36.8130 C   0  0  0  0  0  0  0  0  0  0  0  0
   37.8750   24.4360   38.1120 N   0  0  0  0  0  0  0  0  0  0  0  0
   38.6060   23.3990   38.5650 C   0  0  0  0  0  0  0  0  0  0  0  0
   38.5100   23.0510   39.5780 H   0  0  0  0  0  0  0  0  0  0  0  0
   39.4020   22.9480   37.5550 N   0  0  0  0  0  0  0  0  0  0  0  0
   39.1820   23.6910   36.4630 C   0  0  0  0  0  0  0  0  0  0  0  0
   39.6850   23.7030   35.1650 C   0  0  0  0  0  3  0  0  0  0  0  0
   37.1610   25.0360   38.5840 H   0  0  0  0  0  0  0  0  0  0  0  0
   35.6860   29.3590   32.8590 C   0  0  0  0  0  0  0  0  0  0  0  0
   34.8920   29.0940   32.1480 H   0  0  0  0  0  0  0  0  0  0  0  0
   36.2190   30.2980   32.5660 H   0  0  0  0  0  0  0  0  0  0  0  0
   35.1600   29.5340   34.2560 C   0  0  0  0  0  0  0  0  0  0  0  0
   35.4840   30.4850   34.7180 H   0  0  0  0  0  0  0  0  0  0  0  0
   35.5400   28.7280   34.9430 H   0  0  0  0  0  0  0  0  0  0  0  0
   31.6650   29.3890   33.0660 C   0  0  0  0  0  0  0  0  0  0  0  0
   30.9270   29.3540   34.2540 C   0  0  0  0  0  0  0  0  0  0  0  0
   31.6540   29.3820   35.4690 C   0  0  0  0  0  0  0  0  0  0  0  0
   33.0090   29.4390   35.4120 N   0  0  0  0  0  0  0  0  0  0  0  0
   33.6690   29.4710   34.2350 C   0  0  0  0  0  0  0  0  0  0  0  0
   32.9880   29.4450   33.0830 N   0  0  0  0  0  0  0  0  0  0  0  0
   31.0920   29.3660   32.1480 H   0  0  0  0  0  0  0  0  0  0  0  0
   29.8470   29.3080   34.2810 H   0  0  0  0  0  0  0  0  0  0  0  0
   31.1140   29.3560   36.3960 H   0  0  0  0  0  0  0  0  0  0  0  0
  1  5  2  0  0  0  0
  2  3  2  0  0  0  0
  2  1  1  0  0  0  0
  3  4  1  0  0  0  0
  4  5  1  0  0  0  0
  4  9  1  0  0  0  0
  6  2  1  0  0  0  0
  7  3  1  0  0  0  0
  8  9  2  0  0  0  0
  8 18  1  0  0  0  0
  9 10  1  0  0  0  0
 10 11  1  0  0  0  0
 10 12  2  0  0  0  0
 12 13  1  0  0  0  0
 13 14  1  0  0  0  0
 13 19  1  0  0  0  0
 14 15  1  0  0  0  0
 16 14  2  0  0  0  0
 17 12  1  0  0  0  0
 17 16  1  0  0  0  0
 18 17  2  0  0  0  0
 20  1  1  0  0  0  0
 20 23  1  0  0  0  0
 21 20  1  0  0  0  0
 22 20  1  0  0  0  0
 23 24  1  0  0  0  0
 23 25  1  0  0  0  0
 26 31  2  0  0  0  0
 26 27  1  0  0  0  0
 27 33  1  0  0  0  0
 27 28  2  0  0  0  0
 28 34  1  0  0  0  0
 29 28  1  0  0  0  0
 30 23  1  0  0  0  0
 30 29  2  0  0  0  0
 31 30  1  0  0  0  0
 32 26  1  0  0  0  0
M  END
>  <minimizedAffinity>
-5.17214203

$$$$

 OpenBabel03272501593D

 34 37  0  0  0  0  0  0  0  0999 V2000
   36.7030   27.4480   33.2640 C   0  0  0  0  0  0  0  0  0  0  0  0
   37.0510   26.5260   32.2910 C   0  0  0  0  0  0  0  0  0  0  0  0
   37.6760   25.4410   32.8460 C   0  0  0  0  0  0  0  0  0  0  0  0
   37.6960   25.7270   34.1620 N   0  0  0  0  0  0  0  0  0  0  0  0
   37.1250   26.9060   34.4110 N   0  0  0  0  0  0  0  0  0  0  0  0
   36.8580   26.6420   31.2210 H   0  0  0  0  0  0  0  0  0  0  0  0
   38.0600   24.5660   32.3410 H   0  0  0  0  0  0  0  0  0  0  0  0
   37.7530   24.8660   36.4530 C   0  0  0  0  0  3  0  0  0  0  0  0
   38.2510   24.8950   35.1870 C   0  0  0  0  0  0  0  0  0  0  0  0
   39.3430   24.0840   34.8830 C   0  0  0  0  0  0  0  0  0  0  0  0
   39.7270   24.1220   33.8660 H   0  0  0  0  0  0  0  0  0  0  0  0
   39.9570   23.2550   35.7680 C   0  0  0  0  0  0  0  0  0  0  0  0
   41.0100   22.4020   35.6740 N   0  0  0  0  0  0  0  0  0  0  0  0
   41.1660   21.8410   36.8890 C   0  0  0  0  0  0  0  0  0  0  0  0
   41.9430   21.1210   37.0730 H   0  0  0  0  0  0  0  0  0  0  0  0
   40.2170   22.3410   37.7290 N   0  0  0  0  0  0  0  0  0  0  0  0
   39.4590   23.2170   37.0570 C   0  0  0  0  0  0  0  0  0  0  0  0
   38.3690   24.0210   37.3770 C   0  0  0  0  0  3  0  0  0  0  0  0
   41.5390   22.2750   34.7810 H   0  0  0  0  0  0  0  0  0  0  0  0
   36.0060   28.7640   33.0730 C   0  0  0  0  0  0  0  0  0  0  0  0
   35.1580   28.5980   32.3970 H   0  0  0  0  0  0  0  0  0  0  0  0
   36.7170   29.5340   32.6810 H   0  0  0  0  0  0  0  0  0  0  0  0
   35.5620   29.1910   34.4450 C   0  0  0  0  0  0  0  0  0  0  0  0
   36.1240   28.6860   35.2520 H   0  0  0  0  0  0  0  0  0  0  0  0
   34.4830   28.9290   34.6280 H   0  0  0  0  0  0  0  0  0  0  0  0
   36.0670   32.5580   35.8810 C   0  0  0  0  0  0  0  0  0  0  0  0
   35.9920   33.3940   34.7620 C   0  0  0  0  0  0  0  0  0  0  0  0
   35.7660   32.7770   33.5070 C   0  0  0  0  0  0  0  0  0  0  0  0
   35.6350   31.4270   33.4630 N   0  0  0  0  0  0  0  0  0  0  0  0
   35.7160   30.6700   34.5770 C   0  0  0  0  0  0  0  0  0  0  0  0
   35.9300   31.2460   35.7660 N   0  0  0  0  0  0  0  0  0  0  0  0
   36.2410   33.0480   36.8300 H   0  0  0  0  0  0  0  0  0  0  0  0
   36.0990   34.4680   34.8150 H   0  0  0  0  0  0  0  0  0  0  0  0
   35.7040   33.3940   32.6310 H   0  0  0  0  0  0  0  0  0  0  0  0
  1  5  2  0  0  0  0
  2  3  2  0  0  0  0
  2  1  1  0  0  0  0
  3  4  1  0  0  0  0
  4  5  1  0  0  0  0
  4  9  1  0  0  0  0
  6  2  1  0  0  0  0
  7  3  1  0  0  0  0
  8 18  1  0  0  0  0
  9  8  2  0  0  0  0
 10  9  1  0  0  0  0
 10 12  2  0  0  0  0
 11 10  1  0  0  0  0
 12 17  1  0  0  0  0
 13 12  1  0  0  0  0
 13 14  1  0  0  0  0
 14 15  1  0  0  0  0
 14 16  2  0  0  0  0
 17 18  2  0  0  0  0
 17 16  1  0  0  0  0
 19 13  1  0  0  0  0
 20  1  1  0  0  0  0
 20 23  1  0  0  0  0
 21 20  1  0  0  0  0
 22 20  1  0  0  0  0
 23 30  1  0  0  0  0
 23 25  1  0  0  0  0
 23 24  1  0  0  0  0
 26 32  1  0  0  0  0
 27 33  1  0  0  0  0
 27 26  2  0  0  0  0
 28 27  1  0  0  0  0
 29 28  2  0  0  0  0
 29 30  1  0  0  0  0
 30 31  2  0  0  0  0
 31 26  1  0  0  0  0
 34 28  1  0  0  0  0
M  END
>  <minimizedAffinity>
-5.17115879

$$$$
