
 OpenBabel03272502183D

 36 39  0  0  1  0  0  0  0  0999 V2000
   37.1920   30.4750   49.2070 C   0  0  0  0  0  0  0  0  0  0  0  0
   37.4120   31.5970   50.0260 C   0  0  0  0  0  0  0  0  0  0  0  0
   38.2520   32.5980   49.5210 C   0  0  0  0  0  0  0  0  0  0  0  0
   38.7960   32.4220   48.2770 N   0  0  0  0  0  0  0  0  0  0  0  0
   38.5540   31.3320   47.5360 C   0  0  0  0  0  0  0  0  0  0  0  0
   37.7580   30.3700   47.9990 N   0  0  0  0  0  0  0  0  0  0  0  0
   37.0040   31.7650   50.9990 H   0  0  0  0  0  0  0  0  0  0  0  0
   38.4660   33.4850   50.0920 H   0  0  0  0  0  0  0  0  0  0  0  0
   40.0920   32.1460   45.7840 C   0  0  0  0  0  3  0  0  0  0  0  0
   39.1670   31.2070   46.2180 C   0  0  0  0  0  0  0  0  0  0  0  0
   38.8750   30.1820   45.3440 C   0  0  0  0  0  0  0  0  0  0  0  0
   38.1380   29.4540   45.7150 H   0  0  0  0  0  0  0  0  0  0  0  0
   39.4700   30.0760   44.0860 C   0  0  0  0  0  0  0  0  0  0  0  0
   39.3060   29.1470   43.1070 N   0  0  0  0  0  0  0  0  0  0  0  0
   40.1420   29.5530   42.1080 C   0  0  0  0  0  0  0  0  0  0  0  0
   40.2880   29.0640   41.1600 H   0  0  0  0  0  0  0  0  0  0  0  0
   40.7940   30.6830   42.4520 N   0  0  0  0  0  0  0  0  0  0  0  0
   40.3850   31.0330   43.6990 C   0  0  0  0  0  0  0  0  0  0  0  0
   40.6950   32.0680   44.5520 C   0  0  0  0  0  3  0  0  0  0  0  0
   38.6890   28.3210   43.1190 H   0  0  0  0  0  0  0  0  0  0  0  0
   36.1100   29.2890   49.9750 S   0  0  0  0  0  0  0  0  0  0  0  0
   33.7260   28.2690   49.2250 N   0  0  0  0  0  0  0  0  0  0  0  0
   34.3750   29.5420   49.4460 C   0  0  2  0  0  0  0  0  0  0  0  0
   34.3690   30.3140   48.1560 C   0  0  0  0  0  0  0  0  0  0  0  0
   33.4170   29.7860   47.2580 O   0  0  0  0  0  0  0  0  0  0  0  0
   33.9540   28.5400   46.8710 C   0  0  0  0  0  0  0  0  0  0  0  0
   34.3130   27.6710   48.0430 C   0  0  2  0  0  0  0  0  0  0  0  0
   32.7080   28.3910   49.1720 H   0  0  0  0  0  0  0  0  0  0  0  0
   33.8040   30.0710   50.2630 H   0  0  0  0  0  0  0  0  0  0  0  0
   35.3590   30.3400   47.6520 H   0  0  0  0  0  0  0  0  0  0  0  0
   34.0180   31.3430   48.3770 H   0  0  0  0  0  0  0  0  0  0  0  0
   33.1130   28.0490   46.3170 H   0  0  0  0  0  0  0  0  0  0  0  0
   34.7770   28.6390   46.1390 H   0  0  0  0  0  0  0  0  0  0  0  0
   35.3970   27.6120   48.2130 H   0  0  0  0  0  0  0  0  0  0  0  0
   33.7430   26.3890   47.9050 O   0  0  0  0  0  0  0  0  0  0  0  0
   33.2110   26.3710   47.0850 H   0  0  0  0  0  0  0  0  0  0  0  0
  1 21  1  0  0  0  0
  1  2  1  0  0  0  0
  2  7  1  0  0  0  0
  3  2  2  0  0  0  0
  3  8  1  0  0  0  0
  4  3  1  0  0  0  0
  5  6  1  0  0  0  0
  5  4  2  0  0  0  0
  6  1  2  0  0  0  0
  9 10  1  0  0  0  0
 10  5  1  0  0  0  0
 11 12  1  0  0  0  0
 11 10  2  0  0  0  0
 13 11  1  0  0  0  0
 14 20  1  0  0  0  0
 14 13  1  0  0  0  0
 15 17  2  0  0  0  0
 15 14  1  0  0  0  0
 16 15  1  0  0  0  0
 17 18  1  0  0  0  0
 18 13  2  0  0  0  0
 18 19  1  0  0  0  0
 19  9  2  0  0  0  0
 22 23  1  0  0  0  0
 23 21  1  0  0  0  0
 23 29  1  1  0  0  0
 24 31  1  0  0  0  0
 24 23  1  0  0  0  0
 25 24  1  0  0  0  0
 26 25  1  0  0  0  0
 26 27  1  0  0  0  0
 27 34  1  1  0  0  0
 27 22  1  0  0  0  0
 28 22  1  0  0  0  0
 30 24  1  0  0  0  0
 32 26  1  0  0  0  0
 33 26  1  0  0  0  0
 35 27  1  0  0  0  0
 36 35  1  0  0  0  0
M  END
>  <minimizedAffinity>
-6.3825078

>  <minimizedRMSD>
0.978279531

$$$$
