
 OpenBabel03272508023D

 31 34  0  0  0  0  0  0  0  0999 V2000
   37.3620   30.5980   43.2790 C   0  0  0  0  0  0  0  0  0  0  0  0
   36.0970   31.0290   42.9390 C   0  0  0  0  0  0  0  0  0  0  0  0
   35.2260   30.8020   44.0110 C   0  0  0  0  0  0  0  0  0  0  0  0
   36.0180   30.2300   44.9710 N   0  0  0  0  0  0  0  0  0  0  0  0
   37.2570   30.1170   44.5370 N   0  0  0  0  0  0  0  0  0  0  0  0
   35.8630   31.4700   41.9770 H   0  0  0  0  0  0  0  0  0  0  0  0
   34.1930   31.0680   43.9450 H   0  0  0  0  0  0  0  0  0  0  0  0
   35.8620   30.2990   47.4300 C   0  0  0  0  0  3  0  0  0  0  0  0
   35.4140   29.8770   46.2030 C   0  0  0  0  0  0  0  0  0  0  0  0
   34.3080   29.0480   46.0690 C   0  0  0  0  0  0  0  0  0  0  0  0
   33.9060   28.6820   45.1380 H   0  0  0  0  0  0  0  0  0  0  0  0
   33.6040   28.6130   47.1950 C   0  0  0  0  0  0  0  0  0  0  0  0
   32.5210   27.8260   47.3840 N   0  0  0  0  0  0  0  0  0  0  0  0
   32.2980   27.7620   48.7240 C   0  0  0  0  0  0  0  0  0  0  0  0
   31.4590   27.1710   49.1180 H   0  0  0  0  0  0  0  0  0  0  0  0
   33.2320   28.4990   49.3570 N   0  0  0  0  0  0  0  0  0  0  0  0
   34.0570   29.0400   48.4390 C   0  0  0  0  0  0  0  0  0  0  0  0
   35.1640   29.8660   48.5290 C   0  0  0  0  0  3  0  0  0  0  0  0
   31.9720   27.3630   46.6310 H   0  0  0  0  0  0  0  0  0  0  0  0
   38.5710   30.6470   42.4560 C   0  0  0  0  0  0  0  0  0  0  0  0
   38.4630   31.3040   41.1900 C   0  0  0  0  0  0  0  0  0  0  0  0
   39.6240   31.3510   40.4000 C   0  0  0  0  0  0  0  0  0  0  0  0
   40.7520   30.7750   40.8870 N   0  0  0  0  0  0  0  0  0  0  0  0
   40.8120   30.1640   42.0880 C   0  0  0  0  0  0  0  0  0  0  0  0
   39.7110   30.1110   42.8550 N   0  0  0  0  0  0  0  0  0  0  0  0
   37.5200   31.7360   40.8820 H   0  0  0  0  0  0  0  0  0  0  0  0
   41.7530   29.7300   42.4020 H   0  0  0  0  0  0  0  0  0  0  0  0
   39.5570   32.0250   39.0780 C   0  0  0  0  0  0  0  0  0  0  0  0
   39.2480   33.3460   39.3430 F   0  0  0  0  0  0  0  0  0  0  0  0
   40.7510   31.9880   38.3970 F   0  0  0  0  0  0  0  0  0  0  0  0
   38.5370   31.5050   38.2850 F   0  0  0  0  0  0  0  0  0  0  0  0
  1  5  2  0  0  0  0
  2  1  1  0  0  0  0
  2  3  2  0  0  0  0
  3  4  1  0  0  0  0
  4  9  1  0  0  0  0
  5  4  1  0  0  0  0
  6  2  1  0  0  0  0
  7  3  1  0  0  0  0
  8 18  1  0  0  0  0
  9  8  2  0  0  0  0
 10  9  1  0  0  0  0
 10 12  2  0  0  0  0
 11 10  1  0  0  0  0
 12 13  1  0  0  0  0
 12 17  1  0  0  0  0
 13 14  1  0  0  0  0
 14 15  1  0  0  0  0
 14 16  2  0  0  0  0
 17 18  2  0  0  0  0
 17 16  1  0  0  0  0
 19 13  1  0  0  0  0
 20 25  1  0  0  0  0
 20  1  1  0  0  0  0
 21 20  2  0  0  0  0
 22 23  2  0  0  0  0
 22 21  1  0  0  0  0
 23 24  1  0  0  0  0
 24 27  1  0  0  0  0
 24 25  2  0  0  0  0
 26 21  1  0  0  0  0
 28 29  1  0  0  0  0
 28 22  1  0  0  0  0
 30 28  1  0  0  0  0
 31 28  1  0  0  0  0
M  END
>  <minimizedAffinity>
-3.98866677

>  <minimizedRMSD>
9.51354694

$$$$
