
 OpenBabel03262521463D

 33 35  0  0  0  0  0  0  0  0999 V2000
   34.6860   30.6230   49.1740 O   0  0  0  0  0  0  0  0  0  0  0  0
   34.4350   29.4300   50.0790 P   0  0  2  0  0  0  0  0  0  0  0  0
   32.9850   29.7400   50.8740 O   0  0  0  0  0  0  0  0  0  0  0  0
   33.1370   29.5080   51.8230 H   0  0  0  0  0  0  0  0  0  0  0  0
   35.7230   29.3330   51.1850 O   0  0  0  0  0  0  0  0  0  0  0  0
   36.9520   29.2300   50.5230 C   0  0  0  0  0  0  0  0  0  0  0  0
   36.7330   29.1160   49.4560 H   0  0  0  0  0  0  0  0  0  0  0  0
   37.4700   28.3020   50.8450 H   0  0  0  0  0  0  0  0  0  0  0  0
   37.7150   30.4870   50.7740 C   0  0  0  0  0  0  0  0  0  0  0  0
   37.2140   31.1950   51.4790 H   0  0  0  0  0  0  0  0  0  0  0  0
   38.6690   30.1780   51.2910 H   0  0  0  0  0  0  0  0  0  0  0  0
   38.1210   31.2210   49.5760 C   0  0  0  0  0  0  0  0  0  0  0  0
   38.5500   32.5340   49.6120 C   0  0  0  0  0  0  0  0  0  0  0  0
   38.9160   33.1380   48.3910 C   0  0  0  0  0  0  0  0  0  0  0  0
   38.8270   32.3980   47.2420 N   0  0  0  0  0  0  0  0  0  0  0  0
   38.3950   31.1020   47.2630 C   0  0  0  0  0  0  0  0  0  0  0  0
   38.0440   30.5240   48.4380 N   0  0  0  0  0  0  0  0  0  0  0  0
   38.5890   33.0410   50.5670 H   0  0  0  0  0  0  0  0  0  0  0  0
   39.2510   34.1550   48.4050 H   0  0  0  0  0  0  0  0  0  0  0  0
   38.3510   30.5790   46.3170 H   0  0  0  0  0  0  0  0  0  0  0  0
   34.2900   28.0150   49.2040 O   0  0  0  0  0  0  0  0  0  0  0  0
   33.8540   27.8950   46.7540 C   0  0  0  0  0  3  0  0  0  0  0  0
   33.5390   27.7710   48.0830 C   0  0  0  0  0  0  0  0  0  0  0  0
   32.2570   27.3270   48.4270 C   0  0  0  0  0  0  0  0  0  0  0  0
   31.8720   27.1830   49.4450 H   0  0  0  0  0  0  0  0  0  0  0  0
   31.3150   27.0160   47.4410 C   0  0  0  0  0  0  0  0  0  0  0  0
   30.0430   26.5790   47.4360 N   0  0  0  0  0  0  0  0  0  0  0  0
   29.6330   26.4550   46.1460 C   0  0  0  0  0  0  0  0  0  0  0  0
   28.6310   26.1150   45.8630 H   0  0  0  0  0  0  0  0  0  0  0  0
   30.6570   26.8150   45.3250 N   0  0  0  0  0  0  0  0  0  0  0  0
   31.6840   27.1580   46.1180 C   0  0  0  0  0  0  0  0  0  0  0  0
   32.9510   27.5970   45.7680 C   0  0  0  0  0  3  0  0  0  0  0  0
   29.5140   26.3880   48.2990 H   0  0  0  0  0  0  0  0  0  0  0  0
  2  1  2  6  0  0  0
  2  3  1  0  0  0  0
  2  5  1  0  0  0  0
  3  4  1  0  0  0  0
  6  9  1  0  0  0  0
  6  8  1  0  0  0  0
  6  5  1  0  0  0  0
  7  6  1  0  0  0  0
  9 11  1  0  0  0  0
  9 10  1  0  0  0  0
 12 13  1  0  0  0  0
 12  9  1  0  0  0  0
 13 18  1  0  0  0  0
 14 19  1  0  0  0  0
 14 13  2  0  0  0  0
 15 16  2  0  0  0  0
 15 14  1  0  0  0  0
 16 17  1  0  0  0  0
 17 12  2  0  0  0  0
 20 16  1  0  0  0  0
 21  2  1  0  0  0  0
 22 23  1  0  0  0  0
 23 24  2  0  0  0  0
 23 21  1  0  0  0  0
 24 25  1  0  0  0  0
 26 24  1  0  0  0  0
 27 26  1  0  0  0  0
 27 33  1  0  0  0  0
 28 27  1  0  0  0  0
 29 28  1  0  0  0  0
 30 31  1  0  0  0  0
 30 28  2  0  0  0  0
 31 26  2  0  0  0  0
 32 31  1  0  0  0  0
 32 22  2  0  0  0  0
M  END
>  <minimizedAffinity>
-5.44781971

>  <minimizedRMSD>
1.42384112

$$$$
