
 OpenBabel03262521463D

 33 35  0  0  0  0  0  0  0  0999 V2000
   34.6620   30.5380   49.1140 O   0  0  0  0  0  0  0  0  0  0  0  0
   34.4350   29.3930   50.0850 P   0  0  2  0  0  0  0  0  0  0  0  0
   32.9770   29.7170   50.8610 O   0  0  0  0  0  0  0  0  0  0  0  0
   33.1320   29.5430   51.8210 H   0  0  0  0  0  0  0  0  0  0  0  0
   35.7230   29.3880   51.1960 O   0  0  0  0  0  0  0  0  0  0  0  0
   36.9520   29.2400   50.5450 C   0  0  0  0  0  0  0  0  0  0  0  0
   36.7360   29.0940   49.4810 H   0  0  0  0  0  0  0  0  0  0  0  0
   37.4520   28.3160   50.9010 H   0  0  0  0  0  0  0  0  0  0  0  0
   37.7360   30.4930   50.7560 C   0  0  0  0  0  0  0  0  0  0  0  0
   37.2650   31.2140   51.4680 H   0  0  0  0  0  0  0  0  0  0  0  0
   38.7030   30.1800   51.2450 H   0  0  0  0  0  0  0  0  0  0  0  0
   38.1100   31.2090   49.5360 C   0  0  0  0  0  0  0  0  0  0  0  0
   38.5520   32.5170   49.5420 C   0  0  0  0  0  0  0  0  0  0  0  0
   38.8840   33.1040   48.3030 C   0  0  0  0  0  0  0  0  0  0  0  0
   38.7520   32.3510   47.1670 N   0  0  0  0  0  0  0  0  0  0  0  0
   38.3090   31.0590   47.2180 C   0  0  0  0  0  0  0  0  0  0  0  0
   37.9900   30.4980   48.4110 N   0  0  0  0  0  0  0  0  0  0  0  0
   38.6250   33.0360   50.4890 H   0  0  0  0  0  0  0  0  0  0  0  0
   39.2280   34.1180   48.2940 H   0  0  0  0  0  0  0  0  0  0  0  0
   38.2300   30.5250   46.2800 H   0  0  0  0  0  0  0  0  0  0  0  0
   34.3230   27.9270   49.2930 O   0  0  0  0  0  0  0  0  0  0  0  0
   32.0780   27.9160   48.2120 C   0  0  0  0  0  3  0  0  0  0  0  0
   33.3740   27.5050   48.3980 C   0  0  0  0  0  0  0  0  0  0  0  0
   33.8780   26.4910   47.5740 C   0  0  0  0  0  0  0  0  0  0  0  0
   34.8900   26.0690   47.6120 H   0  0  0  0  0  0  0  0  0  0  0  0
   33.0820   25.9080   46.5830 C   0  0  0  0  0  0  0  0  0  0  0  0
   33.2570   24.9480   45.6580 N   0  0  0  0  0  0  0  0  0  0  0  0
   32.1000   24.8050   44.9580 C   0  0  0  0  0  0  0  0  0  0  0  0
   31.9740   24.0860   44.1430 H   0  0  0  0  0  0  0  0  0  0  0  0
   31.1810   25.6860   45.4450 N   0  0  0  0  0  0  0  0  0  0  0  0
   31.7840   26.3590   46.4380 C   0  0  0  0  0  0  0  0  0  0  0  0
   31.2760   27.3610   47.2480 C   0  0  0  0  0  3  0  0  0  0  0  0
   34.1430   24.4350   45.5440 H   0  0  0  0  0  0  0  0  0  0  0  0
  2  1  2  6  0  0  0
  2  3  1  0  0  0  0
  2  5  1  0  0  0  0
  3  4  1  0  0  0  0
  6  9  1  0  0  0  0
  6  8  1  0  0  0  0
  6  5  1  0  0  0  0
  7  6  1  0  0  0  0
  9 11  1  0  0  0  0
  9 10  1  0  0  0  0
 12 13  1  0  0  0  0
 12  9  1  0  0  0  0
 13 18  1  0  0  0  0
 14 13  2  0  0  0  0
 15 16  2  0  0  0  0
 15 14  1  0  0  0  0
 16 17  1  0  0  0  0
 17 12  2  0  0  0  0
 19 14  1  0  0  0  0
 20 16  1  0  0  0  0
 21  2  1  0  0  0  0
 22 23  1  0  0  0  0
 23 21  1  0  0  0  0
 24 25  1  0  0  0  0
 24 23  2  0  0  0  0
 26 24  1  0  0  0  0
 27 26  1  0  0  0  0
 28 30  2  0  0  0  0
 28 27  1  0  0  0  0
 29 28  1  0  0  0  0
 30 31  1  0  0  0  0
 31 26  2  0  0  0  0
 31 32  1  0  0  0  0
 32 22  2  0  0  0  0
 33 27  1  0  0  0  0
M  END
>  <minimizedAffinity>
-5.32174587

>  <minimizedRMSD>
1.71483099

$$$$
