
 OpenBabel03272500453D

 28 31  0  0  0  0  0  0  0  0999 V2000
   37.9010   25.3890   34.9480 C   0  0  0  0  0  0  0  0  0  0  0  0
   37.8400   25.0120   33.5960 C   0  0  0  0  0  0  0  0  0  0  0  0
   37.2570   26.0460   32.8700 C   0  0  0  0  0  0  0  0  0  0  0  0
   36.9850   27.0050   33.7790 N   0  0  0  0  0  0  0  0  0  0  0  0
   37.3680   26.6020   34.9800 N   0  0  0  0  0  0  0  0  0  0  0  0
   38.1870   24.0710   33.1810 H   0  0  0  0  0  0  0  0  0  0  0  0
   37.0780   26.0390   31.7930 H   0  0  0  0  0  0  0  0  0  0  0  0
   35.9440   28.9930   34.4470 C   0  0  0  0  0  3  0  0  0  0  0  0
   36.3740   28.2220   33.3630 C   0  0  0  0  0  0  0  0  0  0  0  0
   36.1880   28.6660   32.0710 C   0  0  0  0  0  0  0  0  0  0  0  0
   36.5530   28.0040   31.3230 H   0  0  0  0  0  0  0  0  0  0  0  0
   35.5700   29.8860   31.8640 C   0  0  0  0  0  0  0  0  0  0  0  0
   35.2860   30.5120   30.6970 N   0  0  0  0  0  0  0  0  0  0  0  0
   34.6790   31.6760   31.0480 C   0  0  0  0  0  0  0  0  0  0  0  0
   34.3070   32.4430   30.3830 H   0  0  0  0  0  0  0  0  0  0  0  0
   34.5690   31.8020   32.3820 N   0  0  0  0  0  0  0  0  0  0  0  0
   35.1270   30.6810   32.9140 C   0  0  0  0  0  0  0  0  0  0  0  0
   35.3270   30.2090   34.2040 C   0  0  0  0  0  3  0  0  0  0  0  0
   35.4990   30.1590   29.7450 H   0  0  0  0  0  0  0  0  0  0  0  0
   37.8830   24.3960   37.2410 C   0  0  0  0  0  0  0  0  0  0  0  0
   38.4530   24.5390   35.9750 C   0  0  0  0  0  0  0  0  0  0  0  0
   39.6220   23.8120   35.7040 C   0  0  0  0  0  0  0  0  0  0  0  0
   40.1270   23.0140   36.6920 N   0  0  0  0  0  0  0  0  0  0  0  0
   39.5290   22.9140   37.9040 C   0  0  0  0  0  0  0  0  0  0  0  0
   38.4070   23.6020   38.1860 N   0  0  0  0  0  0  0  0  0  0  0  0
   36.9820   24.9430   37.4780 H   0  0  0  0  0  0  0  0  0  0  0  0
   40.0900   23.9000   34.7330 H   0  0  0  0  0  0  0  0  0  0  0  0
   40.1120   22.2290   38.5030 H   0  0  0  0  0  0  0  0  0  0  0  0
  1  5  2  0  0  0  0
  1 21  1  0  0  0  0
  2  1  1  0  0  0  0
  3  2  2  0  0  0  0
  3  4  1  0  0  0  0
  4  5  1  0  0  0  0
  6  2  1  0  0  0  0
  7  3  1  0  0  0  0
  9  4  1  0  0  0  0
  9  8  2  0  0  0  0
 10  9  1  0  0  0  0
 11 10  1  0  0  0  0
 12 10  2  0  0  0  0
 12 17  1  0  0  0  0
 13 14  1  0  0  0  0
 13 12  1  0  0  0  0
 14 16  2  0  0  0  0
 15 14  1  0  0  0  0
 16 17  1  0  0  0  0
 17 18  2  0  0  0  0
 18  8  1  0  0  0  0
 19 13  1  0  0  0  0
 20 26  1  0  0  0  0
 20 25  1  0  0  0  0
 21 20  2  0  0  0  0
 22 21  1  0  0  0  0
 22 23  2  0  0  0  0
 23 24  1  0  0  0  0
 24 25  2  0  0  0  0
 24 28  1  0  0  0  0
 27 22  1  0  0  0  0
M  END
>  <minimizedAffinity>
-5.24555635

$$$$

 OpenBabel03272500453D

 28 31  0  0  0  0  0  0  0  0999 V2000
   37.7220   26.8650   33.6720 C   0  0  0  0  0  0  0  0  0  0  0  0
   37.1100   26.7930   34.9340 C   0  0  0  0  0  0  0  0  0  0  0  0
   37.8190   25.8940   35.7240 C   0  0  0  0  0  0  0  0  0  0  0  0
   38.8230   25.4510   34.9390 N   0  0  0  0  0  0  0  0  0  0  0  0
   38.7470   26.0290   33.7510 N   0  0  0  0  0  0  0  0  0  0  0  0
   36.2290   27.3440   35.2470 H   0  0  0  0  0  0  0  0  0  0  0  0
   37.5780   25.6320   36.7560 H   0  0  0  0  0  0  0  0  0  0  0  0
   41.0240   24.6560   34.8840 C   0  0  0  0  0  3  0  0  0  0  0  0
   39.7540   24.5020   35.4480 C   0  0  0  0  0  0  0  0  0  0  0  0
   39.5190   23.5170   36.3840 C   0  0  0  0  0  0  0  0  0  0  0  0
   38.5200   23.4880   36.7480 H   0  0  0  0  0  0  0  0  0  0  0  0
   40.5580   22.6840   36.7560 C   0  0  0  0  0  0  0  0  0  0  0  0
   40.5560   21.6620   37.6450 N   0  0  0  0  0  0  0  0  0  0  0  0
   41.8240   21.1740   37.6390 C   0  0  0  0  0  0  0  0  0  0  0  0
   42.2080   20.3500   38.2250 H   0  0  0  0  0  0  0  0  0  0  0  0
   42.6160   21.8460   36.7860 N   0  0  0  0  0  0  0  0  0  0  0  0
   41.8340   22.8030   36.2190 C   0  0  0  0  0  0  0  0  0  0  0  0
   42.0420   23.8040   35.2790 C   0  0  0  0  0  3  0  0  0  0  0  0
   39.7440   21.3370   38.2030 H   0  0  0  0  0  0  0  0  0  0  0  0
   36.1390   28.5660   32.7550 C   0  0  0  0  0  0  0  0  0  0  0  0
   37.2320   27.7110   32.6100 C   0  0  0  0  0  0  0  0  0  0  0  0
   37.8740   27.6830   31.3640 C   0  0  0  0  0  0  0  0  0  0  0  0
   37.3910   28.4920   30.3730 N   0  0  0  0  0  0  0  0  0  0  0  0
   36.3250   29.3050   30.5720 C   0  0  0  0  0  0  0  0  0  0  0  0
   35.6930   29.3480   31.7600 N   0  0  0  0  0  0  0  0  0  0  0  0
   35.6240   28.6100   33.7040 H   0  0  0  0  0  0  0  0  0  0  0  0
   38.7240   27.0310   31.2180 H   0  0  0  0  0  0  0  0  0  0  0  0
   36.1410   29.8370   29.6500 H   0  0  0  0  0  0  0  0  0  0  0  0
  1  5  2  0  0  0  0
  1  2  1  0  0  0  0
  2  6  1  0  0  0  0
  2  3  2  0  0  0  0
  3  7  1  0  0  0  0
  4  9  1  0  0  0  0
  4  3  1  0  0  0  0
  5  4  1  0  0  0  0
  8 18  2  0  0  0  0
  8  9  1  0  0  0  0
  9 10  2  0  0  0  0
 10 11  1  0  0  0  0
 10 12  1  0  0  0  0
 12 13  1  0  0  0  0
 13 19  1  0  0  0  0
 14 13  1  0  0  0  0
 14 15  1  0  0  0  0
 16 14  2  0  0  0  0
 17 12  2  0  0  0  0
 17 16  1  0  0  0  0
 18 17  1  0  0  0  0
 20 26  1  0  0  0  0
 21 20  1  0  0  0  0
 21  1  1  0  0  0  0
 22 21  2  0  0  0  0
 23 24  2  0  0  0  0
 23 22  1  0  0  0  0
 24 25  1  0  0  0  0
 25 20  2  0  0  0  0
 27 22  1  0  0  0  0
 28 24  1  0  0  0  0
M  END
>  <minimizedAffinity>
-5.11746931

$$$$

 OpenBabel03272500453D

 28 31  0  0  0  0  0  0  0  0999 V2000
   38.2130   24.5970   34.6480 C   0  0  0  0  0  0  0  0  0  0  0  0
   37.9100   23.7390   33.5780 C   0  0  0  0  0  0  0  0  0  0  0  0
   37.6970   24.5050   32.4360 C   0  0  0  0  0  0  0  0  0  0  0  0
   37.8710   25.7840   32.8330 N   0  0  0  0  0  0  0  0  0  0  0  0
   38.1700   25.8130   34.1220 N   0  0  0  0  0  0  0  0  0  0  0  0
   37.8510   22.6560   33.6270 H   0  0  0  0  0  0  0  0  0  0  0  0
   37.4440   24.1130   31.4490 H   0  0  0  0  0  0  0  0  0  0  0  0
   37.0540   27.9410   32.4390 C   0  0  0  0  0  3  0  0  0  0  0  0
   37.7240   26.8420   31.8930 C   0  0  0  0  0  0  0  0  0  0  0  0
   38.1590   26.8670   30.5850 C   0  0  0  0  0  0  0  0  0  0  0  0
   38.6580   25.9810   30.2710 H   0  0  0  0  0  0  0  0  0  0  0  0
   37.9220   27.9960   29.8210 C   0  0  0  0  0  0  0  0  0  0  0  0
   38.2550   28.2380   28.5310 N   0  0  0  0  0  0  0  0  0  0  0  0
   37.7940   29.4890   28.2660 C   0  0  0  0  0  0  0  0  0  0  0  0
   37.8740   30.0280   27.3320 H   0  0  0  0  0  0  0  0  0  0  0  0
   37.1870   30.0360   29.3340 N   0  0  0  0  0  0  0  0  0  0  0  0
   37.2590   29.1080   30.3250 C   0  0  0  0  0  0  0  0  0  0  0  0
   36.8320   29.0550   31.6450 C   0  0  0  0  0  3  0  0  0  0  0  0
   38.7580   27.5900   27.8960 H   0  0  0  0  0  0  0  0  0  0  0  0
   37.6390   24.3430   37.0660 C   0  0  0  0  0  0  0  0  0  0  0  0
   38.4890   24.1200   35.9810 C   0  0  0  0  0  0  0  0  0  0  0  0
   39.6660   23.3960   36.2170 C   0  0  0  0  0  0  0  0  0  0  0  0
   39.9070   22.9550   37.4880 N   0  0  0  0  0  0  0  0  0  0  0  0
   39.0450   23.2010   38.5040 C   0  0  0  0  0  0  0  0  0  0  0  0
   37.9090   23.8940   38.3020 N   0  0  0  0  0  0  0  0  0  0  0  0
   36.7250   24.8970   36.9160 H   0  0  0  0  0  0  0  0  0  0  0  0
   40.3470   23.2060   35.3980 H   0  0  0  0  0  0  0  0  0  0  0  0
   39.4540   22.7540   39.3990 H   0  0  0  0  0  0  0  0  0  0  0  0
  1 21  1  0  0  0  0
  2  6  1  0  0  0  0
  2  1  1  0  0  0  0
  3  4  1  0  0  0  0
  3  2  2  0  0  0  0
  4  5  1  0  0  0  0
  5  1  2  0  0  0  0
  7  3  1  0  0  0  0
  9  8  1  0  0  0  0
  9  4  1  0  0  0  0
 10  9  2  0  0  0  0
 11 10  1  0  0  0  0
 12 17  2  0  0  0  0
 12 10  1  0  0  0  0
 13 12  1  0  0  0  0
 14 13  1  0  0  0  0
 14 16  2  0  0  0  0
 15 14  1  0  0  0  0
 16 17  1  0  0  0  0
 17 18  1  0  0  0  0
 18  8  2  0  0  0  0
 19 13  1  0  0  0  0
 20 25  1  0  0  0  0
 21 22  1  0  0  0  0
 21 20  2  0  0  0  0
 22 23  2  0  0  0  0
 23 24  1  0  0  0  0
 24 28  1  0  0  0  0
 25 24  2  0  0  0  0
 26 20  1  0  0  0  0
 27 22  1  0  0  0  0
M  END
>  <minimizedAffinity>
-5.07043886

$$$$

 OpenBabel03272500453D

 28 31  0  0  0  0  0  0  0  0999 V2000
   37.6880   27.2830   33.0190 C   0  0  0  0  0  0  0  0  0  0  0  0
   36.9700   27.5450   34.1970 C   0  0  0  0  0  0  0  0  0  0  0  0
   37.3980   26.6670   35.1870 C   0  0  0  0  0  0  0  0  0  0  0  0
   38.3470   25.9080   34.5980 N   0  0  0  0  0  0  0  0  0  0  0  0
   38.4990   26.2850   33.3380 N   0  0  0  0  0  0  0  0  0  0  0  0
   36.2040   28.3050   34.3210 H   0  0  0  0  0  0  0  0  0  0  0  0
   37.0200   26.6330   36.2100 H   0  0  0  0  0  0  0  0  0  0  0  0
   38.2390   24.4550   36.4290 C   0  0  0  0  0  3  0  0  0  0  0  0
   39.0050   24.8910   35.3450 C   0  0  0  0  0  0  0  0  0  0  0  0
   40.2470   24.3430   35.1000 C   0  0  0  0  0  0  0  0  0  0  0  0
   40.7440   24.7460   34.2510 H   0  0  0  0  0  0  0  0  0  0  0  0
   40.7210   23.3560   35.9440 C   0  0  0  0  0  0  0  0  0  0  0  0
   41.8970   22.6840   35.8960 N   0  0  0  0  0  0  0  0  0  0  0  0
   41.8690   21.8270   36.9500 C   0  0  0  0  0  0  0  0  0  0  0  0
   42.6380   21.1240   37.2380 H   0  0  0  0  0  0  0  0  0  0  0  0
   40.7280   21.9350   37.6530 N   0  0  0  0  0  0  0  0  0  0  0  0
   39.9920   22.8950   37.0330 C   0  0  0  0  0  0  0  0  0  0  0  0
   38.7450   23.4650   37.2550 C   0  0  0  0  0  3  0  0  0  0  0  0
   42.6480   22.8140   35.1920 H   0  0  0  0  0  0  0  0  0  0  0  0
   36.5190   29.0200   31.6550 C   0  0  0  0  0  0  0  0  0  0  0  0
   37.4840   28.0210   31.7960 C   0  0  0  0  0  0  0  0  0  0  0  0
   38.2860   27.7320   30.6830 C   0  0  0  0  0  0  0  0  0  0  0  0
   38.0740   28.4440   29.5340 N   0  0  0  0  0  0  0  0  0  0  0  0
   37.1210   29.4050   29.4560 C   0  0  0  0  0  0  0  0  0  0  0  0
   36.3390   29.6980   30.5120 N   0  0  0  0  0  0  0  0  0  0  0  0
   35.8860   29.2650   32.4960 H   0  0  0  0  0  0  0  0  0  0  0  0
   39.0430   26.9640   30.7570 H   0  0  0  0  0  0  0  0  0  0  0  0
   37.1510   29.8170   28.4580 H   0  0  0  0  0  0  0  0  0  0  0  0
  1  5  2  0  0  0  0
  1  2  1  0  0  0  0
  2  6  1  0  0  0  0
  2  3  2  0  0  0  0
  3  7  1  0  0  0  0
  4  3  1  0  0  0  0
  4  9  1  0  0  0  0
  5  4  1  0  0  0  0
  8 18  1  0  0  0  0
  9  8  2  0  0  0  0
 10  9  1  0  0  0  0
 10 12  2  0  0  0  0
 11 10  1  0  0  0  0
 12 17  1  0  0  0  0
 13 12  1  0  0  0  0
 13 14  1  0  0  0  0
 14 15  1  0  0  0  0
 14 16  2  0  0  0  0
 17 18  2  0  0  0  0
 17 16  1  0  0  0  0
 19 13  1  0  0  0  0
 20 21  1  0  0  0  0
 20 26  1  0  0  0  0
 21  1  1  0  0  0  0
 22 27  1  0  0  0  0
 22 21  2  0  0  0  0
 23 22  1  0  0  0  0
 24 23  2  0  0  0  0
 24 25  1  0  0  0  0
 25 20  2  0  0  0  0
 28 24  1  0  0  0  0
M  END
>  <minimizedAffinity>
-5.0011034

$$$$

 OpenBabel03272500453D

 28 31  0  0  0  0  0  0  0  0999 V2000
   37.9800   25.3720   35.0700 C   0  0  0  0  0  0  0  0  0  0  0  0
   37.8560   25.0250   33.7150 C   0  0  0  0  0  0  0  0  0  0  0  0
   37.2490   26.0770   33.0370 C   0  0  0  0  0  0  0  0  0  0  0  0
   37.0240   27.0190   33.9780 N   0  0  0  0  0  0  0  0  0  0  0  0
   37.4580   26.5870   35.1520 N   0  0  0  0  0  0  0  0  0  0  0  0
   38.1770   24.0910   33.2640 H   0  0  0  0  0  0  0  0  0  0  0  0
   37.0220   26.0960   31.9700 H   0  0  0  0  0  0  0  0  0  0  0  0
   36.4080   28.4520   32.2340 C   0  0  0  0  0  3  0  0  0  0  0  0
   36.4050   28.2480   33.6170 C   0  0  0  0  0  0  0  0  0  0  0  0
   35.8440   29.1830   34.4610 C   0  0  0  0  0  0  0  0  0  0  0  0
   35.8940   28.9290   35.4920 H   0  0  0  0  0  0  0  0  0  0  0  0
   35.2840   30.3250   33.9180 C   0  0  0  0  0  0  0  0  0  0  0  0
   34.6850   31.3650   34.5470 N   0  0  0  0  0  0  0  0  0  0  0  0
   34.3120   32.2210   33.5610 C   0  0  0  0  0  0  0  0  0  0  0  0
   33.8040   33.1680   33.6770 H   0  0  0  0  0  0  0  0  0  0  0  0
   34.6530   31.7620   32.3440 N   0  0  0  0  0  0  0  0  0  0  0  0
   35.2670   30.5660   32.5500 C   0  0  0  0  0  0  0  0  0  0  0  0
   35.8400   29.6080   31.7230 C   0  0  0  0  0  3  0  0  0  0  0  0
   34.5500   31.4650   35.5710 H   0  0  0  0  0  0  0  0  0  0  0  0
   39.7260   23.7480   35.8170 C   0  0  0  0  0  0  0  0  0  0  0  0
   38.5710   24.4950   36.0530 C   0  0  0  0  0  0  0  0  0  0  0  0
   37.9660   24.3770   37.3120 C   0  0  0  0  0  0  0  0  0  0  0  0
   38.5440   23.5390   38.2260 N   0  0  0  0  0  0  0  0  0  0  0  0
   39.6680   22.8380   37.9420 C   0  0  0  0  0  0  0  0  0  0  0  0
   40.2640   22.9360   36.7390 N   0  0  0  0  0  0  0  0  0  0  0  0
   40.2140   23.8190   34.8560 H   0  0  0  0  0  0  0  0  0  0  0  0
   37.0700   24.9410   37.5280 H   0  0  0  0  0  0  0  0  0  0  0  0
   39.9230   22.2570   38.8160 H   0  0  0  0  0  0  0  0  0  0  0  0
  1  5  2  0  0  0  0
  1 21  1  0  0  0  0
  2  1  1  0  0  0  0
  3  2  2  0  0  0  0
  3  4  1  0  0  0  0
  4  5  1  0  0  0  0
  6  2  1  0  0  0  0
  7  3  1  0  0  0  0
  8  9  1  0  0  0  0
  9  4  1  0  0  0  0
  9 10  2  0  0  0  0
 10 11  1  0  0  0  0
 12 10  1  0  0  0  0
 12 13  1  0  0  0  0
 13 19  1  0  0  0  0
 14 15  1  0  0  0  0
 14 13  1  0  0  0  0
 16 17  1  0  0  0  0
 16 14  2  0  0  0  0
 17 12  2  0  0  0  0
 18  8  2  0  0  0  0
 18 17  1  0  0  0  0
 20 21  2  0  0  0  0
 20 25  1  0  0  0  0
 21 22  1  0  0  0  0
 22 27  1  0  0  0  0
 22 23  2  0  0  0  0
 24 23  1  0  0  0  0
 24 28  1  0  0  0  0
 25 24  2  0  0  0  0
 26 20  1  0  0  0  0
M  END
>  <minimizedAffinity>
-4.99788952

$$$$

 OpenBabel03272500453D

 28 31  0  0  0  0  0  0  0  0999 V2000
   36.6520   27.7190   33.7120 C   0  0  0  0  0  0  0  0  0  0  0  0
   37.2310   27.0540   32.6180 C   0  0  0  0  0  0  0  0  0  0  0  0
   37.9890   25.9890   33.0920 C   0  0  0  0  0  0  0  0  0  0  0  0
   37.8550   26.0320   34.4350 N   0  0  0  0  0  0  0  0  0  0  0  0
   37.0740   27.0450   34.7720 N   0  0  0  0  0  0  0  0  0  0  0  0
   37.1110   27.3230   31.5730 H   0  0  0  0  0  0  0  0  0  0  0  0
   38.5560   25.2910   32.4740 H   0  0  0  0  0  0  0  0  0  0  0  0
   37.8520   24.8500   36.4550 C   0  0  0  0  0  3  0  0  0  0  0  0
   38.5140   25.0630   35.2430 C   0  0  0  0  0  0  0  0  0  0  0  0
   39.6690   24.3700   34.9450 C   0  0  0  0  0  0  0  0  0  0  0  0
   40.0910   24.6070   33.9980 H   0  0  0  0  0  0  0  0  0  0  0  0
   40.1610   23.4610   35.8650 C   0  0  0  0  0  0  0  0  0  0  0  0
   41.2640   22.6790   35.7850 N   0  0  0  0  0  0  0  0  0  0  0  0
   41.2950   21.9760   36.9470 C   0  0  0  0  0  0  0  0  0  0  0  0
   42.0330   21.2450   37.2470 H   0  0  0  0  0  0  0  0  0  0  0  0
   40.2600   22.2850   37.7480 N   0  0  0  0  0  0  0  0  0  0  0  0
   39.5340   23.2210   37.0810 C   0  0  0  0  0  0  0  0  0  0  0  0
   38.3730   23.9340   37.3540 C   0  0  0  0  0  3  0  0  0  0  0  0
   41.9320   22.6410   34.9920 H   0  0  0  0  0  0  0  0  0  0  0  0
   35.6120   29.8200   34.5750 C   0  0  0  0  0  0  0  0  0  0  0  0
   35.8020   28.8760   33.5650 C   0  0  0  0  0  0  0  0  0  0  0  0
   35.1230   29.0750   32.3550 C   0  0  0  0  0  0  0  0  0  0  0  0
   34.3220   30.1770   32.2400 N   0  0  0  0  0  0  0  0  0  0  0  0
   34.1760   31.0620   33.2550 C   0  0  0  0  0  0  0  0  0  0  0  0
   34.8180   30.8910   34.4270 N   0  0  0  0  0  0  0  0  0  0  0  0
   36.1220   29.6930   35.5190 H   0  0  0  0  0  0  0  0  0  0  0  0
   35.2470   28.3620   31.5510 H   0  0  0  0  0  0  0  0  0  0  0  0
   33.5010   31.8370   32.9220 H   0  0  0  0  0  0  0  0  0  0  0  0
  1  5  2  0  0  0  0
  2  3  2  0  0  0  0
  2  1  1  0  0  0  0
  3  4  1  0  0  0  0
  4  5  1  0  0  0  0
  4  9  1  0  0  0  0
  6  2  1  0  0  0  0
  7  3  1  0  0  0  0
  8 18  1  0  0  0  0
  9  8  2  0  0  0  0
 10  9  1  0  0  0  0
 10 12  2  0  0  0  0
 11 10  1  0  0  0  0
 12 17  1  0  0  0  0
 13 12  1  0  0  0  0
 13 14  1  0  0  0  0
 14 15  1  0  0  0  0
 14 16  2  0  0  0  0
 17 18  2  0  0  0  0
 17 16  1  0  0  0  0
 19 13  1  0  0  0  0
 20 26  1  0  0  0  0
 21  1  1  0  0  0  0
 21 20  2  0  0  0  0
 22 21  1  0  0  0  0
 23 22  2  0  0  0  0
 23 24  1  0  0  0  0
 24 25  2  0  0  0  0
 25 20  1  0  0  0  0
 27 22  1  0  0  0  0
 28 24  1  0  0  0  0
M  END
>  <minimizedAffinity>
-4.99163198

$$$$

 OpenBabel03272500453D

 28 31  0  0  0  0  0  0  0  0999 V2000
   36.6120   28.2300   32.6660 C   0  0  0  0  0  0  0  0  0  0  0  0
   37.7280   27.8220   31.9170 C   0  0  0  0  0  0  0  0  0  0  0  0
   38.4110   26.8410   32.6280 C   0  0  0  0  0  0  0  0  0  0  0  0
   37.7070   26.6800   33.7690 N   0  0  0  0  0  0  0  0  0  0  0  0
   36.6660   27.4970   33.7680 N   0  0  0  0  0  0  0  0  0  0  0  0
   38.0170   28.2060   30.9430 H   0  0  0  0  0  0  0  0  0  0  0  0
   39.3190   26.3340   32.2970 H   0  0  0  0  0  0  0  0  0  0  0  0
   39.0830   24.8410   34.2220 C   0  0  0  0  0  3  0  0  0  0  0  0
   38.1380   25.7320   34.7390 C   0  0  0  0  0  0  0  0  0  0  0  0
   37.7280   25.6330   36.0520 C   0  0  0  0  0  0  0  0  0  0  0  0
   37.0080   26.3590   36.3430 H   0  0  0  0  0  0  0  0  0  0  0  0
   38.2660   24.6380   36.8480 C   0  0  0  0  0  0  0  0  0  0  0  0
   38.0140   24.3560   38.1490 N   0  0  0  0  0  0  0  0  0  0  0  0
   38.7990   23.2880   38.4480 C   0  0  0  0  0  0  0  0  0  0  0  0
   38.8710   22.7780   39.3990 H   0  0  0  0  0  0  0  0  0  0  0  0
   39.5300   22.8920   37.3910 N   0  0  0  0  0  0  0  0  0  0  0  0
   39.2060   23.7330   36.3730 C   0  0  0  0  0  0  0  0  0  0  0  0
   39.6010   23.8560   35.0470 C   0  0  0  0  0  3  0  0  0  0  0  0
   37.3540   24.8630   38.7690 H   0  0  0  0  0  0  0  0  0  0  0  0
   34.3710   29.3340   32.6590 C   0  0  0  0  0  0  0  0  0  0  0  0
   35.6890   29.2410   32.2100 C   0  0  0  0  0  0  0  0  0  0  0  0
   36.1210   30.1840   31.2660 C   0  0  0  0  0  0  0  0  0  0  0  0
   35.2280   31.1310   30.8480 N   0  0  0  0  0  0  0  0  0  0  0  0
   33.9590   31.1740   31.3210 C   0  0  0  0  0  0  0  0  0  0  0  0
   33.5230   30.2780   32.2270 N   0  0  0  0  0  0  0  0  0  0  0  0
   34.0100   28.6210   33.3860 H   0  0  0  0  0  0  0  0  0  0  0  0
   37.1360   30.1400   30.8960 H   0  0  0  0  0  0  0  0  0  0  0  0
   33.4580   32.0040   30.8440 H   0  0  0  0  0  0  0  0  0  0  0  0
  1  5  2  0  0  0  0
  2  3  2  0  0  0  0
  2  1  1  0  0  0  0
  3  4  1  0  0  0  0
  4  9  1  0  0  0  0
  5  4  1  0  0  0  0
  6  2  1  0  0  0  0
  7  3  1  0  0  0  0
  8  9  2  0  0  0  0
  8 18  1  0  0  0  0
  9 10  1  0  0  0  0
 10 11  1  0  0  0  0
 10 12  2  0  0  0  0
 12 13  1  0  0  0  0
 13 14  1  0  0  0  0
 13 19  1  0  0  0  0
 14 15  1  0  0  0  0
 16 14  2  0  0  0  0
 17 12  1  0  0  0  0
 17 16  1  0  0  0  0
 18 17  2  0  0  0  0
 20 26  1  0  0  0  0
 21 20  2  0  0  0  0
 21  1  1  0  0  0  0
 22 21  1  0  0  0  0
 23 22  2  0  0  0  0
 23 24  1  0  0  0  0
 24 25  2  0  0  0  0
 25 20  1  0  0  0  0
 27 22  1  0  0  0  0
 28 24  1  0  0  0  0
M  END
>  <minimizedAffinity>
-4.98952675

$$$$

 OpenBabel03272500453D

 28 31  0  0  0  0  0  0  0  0999 V2000
   38.0590   27.5230   31.7020 C   0  0  0  0  0  0  0  0  0  0  0  0
   36.9940   27.9600   32.5070 C   0  0  0  0  0  0  0  0  0  0  0  0
   37.0200   27.2530   33.7050 C   0  0  0  0  0  0  0  0  0  0  0  0
   38.0780   26.4220   33.6010 N   0  0  0  0  0  0  0  0  0  0  0  0
   38.6670   26.5960   32.4290 N   0  0  0  0  0  0  0  0  0  0  0  0
   36.2670   28.7220   32.2440 H   0  0  0  0  0  0  0  0  0  0  0  0
   36.3140   27.3780   34.5290 H   0  0  0  0  0  0  0  0  0  0  0  0
   39.3810   24.6160   34.3220 C   0  0  0  0  0  3  0  0  0  0  0  0
   38.3950   25.5420   34.6740 C   0  0  0  0  0  0  0  0  0  0  0  0
   37.8470   25.5340   35.9400 C   0  0  0  0  0  0  0  0  0  0  0  0
   37.1080   26.2810   36.1030 H   0  0  0  0  0  0  0  0  0  0  0  0
   38.2890   24.5950   36.8550 C   0  0  0  0  0  0  0  0  0  0  0  0
   37.8980   24.4030   38.1370 N   0  0  0  0  0  0  0  0  0  0  0  0
   38.6370   23.3580   38.5900 C   0  0  0  0  0  0  0  0  0  0  0  0
   38.6030   22.9140   39.5750 H   0  0  0  0  0  0  0  0  0  0  0  0
   39.4710   22.8880   37.6460 N   0  0  0  0  0  0  0  0  0  0  0  0
   39.2650   23.6570   36.5440 C   0  0  0  0  0  0  0  0  0  0  0  0
   39.7990   23.6890   35.2620 C   0  0  0  0  0  3  0  0  0  0  0  0
   37.1810   24.9540   38.6480 H   0  0  0  0  0  0  0  0  0  0  0  0
   37.3860   28.8070   29.6680 C   0  0  0  0  0  0  0  0  0  0  0  0
   38.3180   28.0570   30.3870 C   0  0  0  0  0  0  0  0  0  0  0  0
   39.5620   27.8180   29.7870 C   0  0  0  0  0  0  0  0  0  0  0  0
   39.7840   28.3330   28.5390 N   0  0  0  0  0  0  0  0  0  0  0  0
   38.8410   29.0560   27.8880 C   0  0  0  0  0  0  0  0  0  0  0  0
   37.6400   29.2970   28.4450 N   0  0  0  0  0  0  0  0  0  0  0  0
   36.4190   29.0080   30.1050 H   0  0  0  0  0  0  0  0  0  0  0  0
   40.3070   27.2400   30.3160 H   0  0  0  0  0  0  0  0  0  0  0  0
   39.2530   29.3480   26.9320 H   0  0  0  0  0  0  0  0  0  0  0  0
  1  5  2  0  0  0  0
  1  2  1  0  0  0  0
  2  3  2  0  0  0  0
  3  7  1  0  0  0  0
  4  3  1  0  0  0  0
  4  9  1  0  0  0  0
  5  4  1  0  0  0  0
  6  2  1  0  0  0  0
  8  9  2  0  0  0  0
  8 18  1  0  0  0  0
  9 10  1  0  0  0  0
 10 11  1  0  0  0  0
 10 12  2  0  0  0  0
 12 13  1  0  0  0  0
 13 14  1  0  0  0  0
 13 19  1  0  0  0  0
 14 15  1  0  0  0  0
 16 14  2  0  0  0  0
 17 12  1  0  0  0  0
 17 16  1  0  0  0  0
 18 17  2  0  0  0  0
 20 26  1  0  0  0  0
 20 21  1  0  0  0  0
 21  1  1  0  0  0  0
 22 27  1  0  0  0  0
 22 21  2  0  0  0  0
 23 22  1  0  0  0  0
 24 25  1  0  0  0  0
 24 23  2  0  0  0  0
 25 20  2  0  0  0  0
 28 24  1  0  0  0  0
M  END
>  <minimizedAffinity>
-4.98392534

$$$$

 OpenBabel03272500453D

 28 31  0  0  0  0  0  0  0  0999 V2000
   38.3840   25.5850   34.9790 C   0  0  0  0  0  0  0  0  0  0  0  0
   37.3560   26.4780   35.3250 C   0  0  0  0  0  0  0  0  0  0  0  0
   37.0850   27.2930   34.2310 C   0  0  0  0  0  0  0  0  0  0  0  0
   37.9370   26.8840   33.2670 N   0  0  0  0  0  0  0  0  0  0  0  0
   38.6820   25.8910   33.7250 N   0  0  0  0  0  0  0  0  0  0  0  0
   36.8530   26.5290   36.2850 H   0  0  0  0  0  0  0  0  0  0  0  0
   36.3320   28.0830   34.2020 H   0  0  0  0  0  0  0  0  0  0  0  0
   36.7640   28.2740   31.7940 C   0  0  0  0  0  3  0  0  0  0  0  0
   37.9240   27.5200   31.9940 C   0  0  0  0  0  0  0  0  0  0  0  0
   38.8940   27.4550   31.0150 C   0  0  0  0  0  0  0  0  0  0  0  0
   39.7340   26.8550   31.2700 H   0  0  0  0  0  0  0  0  0  0  0  0
   38.7000   28.1470   29.8340 C   0  0  0  0  0  0  0  0  0  0  0  0
   39.5080   28.2260   28.7490 N   0  0  0  0  0  0  0  0  0  0  0  0
   38.8560   29.0290   27.8680 C   0  0  0  0  0  0  0  0  0  0  0  0
   39.1910   29.3250   26.8840 H   0  0  0  0  0  0  0  0  0  0  0  0
   37.6770   29.4540   28.3560 N   0  0  0  0  0  0  0  0  0  0  0  0
   37.5620   28.9070   29.5960 C   0  0  0  0  0  0  0  0  0  0  0  0
   36.6020   28.9540   30.5980 C   0  0  0  0  0  3  0  0  0  0  0  0
   40.4290   27.7620   28.6360 H   0  0  0  0  0  0  0  0  0  0  0  0
   40.0890   23.8930   35.6670 C   0  0  0  0  0  0  0  0  0  0  0  0
   38.9070   24.5990   35.8940 C   0  0  0  0  0  0  0  0  0  0  0  0
   38.2030   24.3230   37.0750 C   0  0  0  0  0  0  0  0  0  0  0  0
   38.7160   23.3840   37.9260 N   0  0  0  0  0  0  0  0  0  0  0  0
   39.8710   22.7300   37.6530 C   0  0  0  0  0  0  0  0  0  0  0  0
   40.5630   22.9780   36.5250 N   0  0  0  0  0  0  0  0  0  0  0  0
   40.6530   24.0850   34.7650 H   0  0  0  0  0  0  0  0  0  0  0  0
   37.2820   24.8520   37.2820 H   0  0  0  0  0  0  0  0  0  0  0  0
   40.0630   22.0480   38.4690 H   0  0  0  0  0  0  0  0  0  0  0  0
  1  2  1  0  0  0  0
  1 21  1  0  0  0  0
  2  6  1  0  0  0  0
  3  2  2  0  0  0  0
  4  5  1  0  0  0  0
  4  3  1  0  0  0  0
  5  1  2  0  0  0  0
  7  3  1  0  0  0  0
  8  9  1  0  0  0  0
  9  4  1  0  0  0  0
 10 11  1  0  0  0  0
 10  9  2  0  0  0  0
 12 10  1  0  0  0  0
 13 12  1  0  0  0  0
 14 16  2  0  0  0  0
 14 13  1  0  0  0  0
 15 14  1  0  0  0  0
 16 17  1  0  0  0  0
 17 12  2  0  0  0  0
 17 18  1  0  0  0  0
 18  8  2  0  0  0  0
 19 13  1  0  0  0  0
 20 21  2  0  0  0  0
 20 25  1  0  0  0  0
 21 22  1  0  0  0  0
 22 27  1  0  0  0  0
 22 23  2  0  0  0  0
 24 23  1  0  0  0  0
 24 28  1  0  0  0  0
 25 24  2  0  0  0  0
 26 20  1  0  0  0  0
M  END
>  <minimizedAffinity>
-4.92899132

$$$$
