
 OpenBabel03272506393D

 40 43  0  0  1  0  0  0  0  0999 V2000
   34.4930   29.5240   50.0760 O   0  0  0  0  0  0  0  0  0  0  0  0
   34.3160   29.5600   48.8450 C   0  0  0  0  0  0  0  0  0  0  0  0
   35.1350   30.3920   47.9830 C   0  0  2  0  0  0  0  0  0  0  0  0
   34.6550   29.9170   46.5760 C   0  0  0  0  0  0  0  0  0  0  0  0
   33.2620   29.4410   46.8300 C   0  0  0  0  0  0  0  0  0  0  0  0
   33.3160   28.8130   48.1420 N   0  0  0  0  0  0  0  0  0  0  0  0
   34.9550   31.4650   47.9640 H   0  0  0  0  0  0  0  0  0  0  0  0
   35.2990   29.0700   46.2940 H   0  0  0  0  0  0  0  0  0  0  0  0
   34.7060   30.7590   45.8580 H   0  0  0  0  0  0  0  0  0  0  0  0
   32.5260   30.2450   46.8990 H   0  0  0  0  0  0  0  0  0  0  0  0
   32.9320   28.6710   46.1020 H   0  0  0  0  0  0  0  0  0  0  0  0
   32.5200   27.6870   48.5990 C   0  0  0  0  0  0  0  0  0  0  0  0
   31.4540   27.9700   48.6040 H   0  0  0  0  0  0  0  0  0  0  0  0
   32.8010   27.5010   49.6560 H   0  0  0  0  0  0  0  0  0  0  0  0
   31.5350   25.8510   47.3470 C   0  0  0  0  0  3  0  0  0  0  0  0
   32.7090   26.4880   47.7520 C   0  0  0  0  0  0  0  0  0  0  0  0
   33.9470   26.0120   47.3740 C   0  0  0  0  0  0  0  0  0  0  0  0
   34.8330   26.5180   47.6970 H   0  0  0  0  0  0  0  0  0  0  0  0
   34.0120   24.8830   46.5800 C   0  0  0  0  0  0  0  0  0  0  0  0
   35.0360   24.1790   46.0510 N   0  0  0  0  0  0  0  0  0  0  0  0
   34.5050   23.1540   45.3510 C   0  0  0  0  0  0  0  0  0  0  0  0
   35.0020   22.3740   44.7870 H   0  0  0  0  0  0  0  0  0  0  0  0
   33.1530   23.2060   45.4360 N   0  0  0  0  0  0  0  0  0  0  0  0
   32.8190   24.2680   46.1920 C   0  0  0  0  0  0  0  0  0  0  0  0
   31.5750   24.7300   46.5600 C   0  0  0  0  0  3  0  0  0  0  0  0
   36.0540   24.3870   46.1600 H   0  0  0  0  0  0  0  0  0  0  0  0
   36.5320   30.0820   48.0380 O   0  0  0  0  0  0  0  0  0  0  0  0
   37.4180   31.1510   48.1590 C   0  0  0  0  0  0  0  0  0  0  0  0
   37.5840   31.6710   49.4300 C   0  0  0  0  0  0  0  0  0  0  0  0
   38.4600   32.7390   49.5870 C   0  0  0  0  0  0  0  0  0  0  0  0
   39.1100   33.2220   48.5020 N   0  0  0  0  0  0  0  0  0  0  0  0
   38.9370   32.7020   47.2670 C   0  0  0  0  0  0  0  0  0  0  0  0
   38.1000   31.6850   47.1230 N   0  0  0  0  0  0  0  0  0  0  0  0
   40.4600   32.2680   45.5060 C   0  0  0  0  0  0  0  0  0  0  0  0
   40.6290   31.0520   45.8140 O   0  0  0  0  0  0  0  0  0  0  0  0
   39.6340   33.2350   46.1460 N   0  0  0  0  0  0  0  0  0  0  0  0
   37.0480   31.2600   50.2700 H   0  0  0  0  0  0  0  0  0  0  0  0
   38.5850   33.1350   50.5670 H   0  0  0  0  0  0  0  0  0  0  0  0
   41.0560   32.5280   44.6320 H   0  0  0  0  0  0  0  0  0  0  0  0
   39.5650   34.2180   45.8130 H   0  0  0  0  0  0  0  0  0  0  0  0
  2  1  2  0  0  0  0
  3  7  1  1  0  0  0
  3 27  1  0  0  0  0
  3  2  1  0  0  0  0
  4  5  1  0  0  0  0
  4  3  1  0  0  0  0
  5 10  1  0  0  0  0
  5  6  1  0  0  0  0
  6 12  1  0  0  0  0
  6  2  1  0  0  0  0
  8  4  1  0  0  0  0
  9  4  1  0  0  0  0
 11  5  1  0  0  0  0
 12 13  1  0  0  0  0
 12 14  1  0  0  0  0
 15 16  1  0  0  0  0
 16 12  1  0  0  0  0
 17 18  1  0  0  0  0
 17 16  2  0  0  0  0
 19 17  1  0  0  0  0
 20 26  1  0  0  0  0
 20 19  1  0  0  0  0
 21 23  2  0  0  0  0
 21 20  1  0  0  0  0
 22 21  1  0  0  0  0
 23 24  1  0  0  0  0
 24 25  1  0  0  0  0
 24 19  2  0  0  0  0
 25 15  2  0  0  0  0
 27 28  1  0  0  0  0
 28 29  1  0  0  0  0
 29 30  2  0  0  0  0
 29 37  1  0  0  0  0
 30 38  1  0  0  0  0
 31 30  1  0  0  0  0
 32 31  2  0  0  0  0
 33 32  1  0  0  0  0
 33 28  2  0  0  0  0
 34 35  2  0  0  0  0
 34 36  1  0  0  0  0
 36 32  1  0  0  0  0
 39 34  1  0  0  0  0
 40 36  1  0  0  0  0
M  END
>  <minimizedAffinity>
-5.89536953

>  <minimizedRMSD>
1.85118341

$$$$
