
 OpenBabel03262521093D

 27 29  0  0  0  0  0  0  0  0999 V2000
   35.8780   30.0760   46.1100 O   0  0  0  0  0  0  0  0  0  0  0  0
   34.5110   29.8200   46.7180 P   0  0  1  0  0  0  0  0  0  0  0  0
   34.2940   28.1450   46.9800 O   0  0  0  0  0  0  0  0  0  0  0  0
   33.4520   28.0170   47.4590 H   0  0  0  0  0  0  0  0  0  0  0  0
   34.3340   30.5510   48.2550 O   0  0  0  0  0  0  0  0  0  0  0  0
   35.2820   30.4220   49.2560 C   0  0  0  0  0  0  0  0  0  0  0  0
   35.2480   29.4570   50.2750 C   0  0  0  0  0  0  0  0  0  0  0  0
   36.2660   29.4460   51.2120 C   0  0  0  0  0  0  0  0  0  0  0  0
   37.2660   30.3800   51.1050 N   0  0  0  0  0  0  0  0  0  0  0  0
   37.2650   31.3080   50.0950 C   0  0  0  0  0  0  0  0  0  0  0  0
   36.2760   31.3210   49.1820 N   0  0  0  0  0  0  0  0  0  0  0  0
   34.4270   28.7870   50.2570 H   0  0  0  0  0  0  0  0  0  0  0  0
   36.2460   28.7140   51.9900 H   0  0  0  0  0  0  0  0  0  0  0  0
   38.0720   32.0360   50.0360 H   0  0  0  0  0  0  0  0  0  0  0  0
   33.3690   30.4220   45.6410 O   0  0  0  0  0  0  0  0  0  0  0  0
   31.3470   29.2530   46.3650 C   0  0  0  0  0  3  0  0  0  0  0  0
   32.0070   30.2560   45.6850 C   0  0  0  0  0  0  0  0  0  0  0  0
   31.3000   31.2200   44.9580 C   0  0  0  0  0  0  0  0  0  0  0  0
   31.7310   32.0310   44.4030 H   0  0  0  0  0  0  0  0  0  0  0  0
   29.9120   31.1330   44.9430 C   0  0  0  0  0  0  0  0  0  0  0  0
   28.9430   31.8640   44.3690 N   0  0  0  0  0  0  0  0  0  0  0  0
   27.7260   31.3530   44.6680 C   0  0  0  0  0  0  0  0  0  0  0  0
   26.7270   31.6710   44.3860 H   0  0  0  0  0  0  0  0  0  0  0  0
   27.9290   30.2610   45.4580 N   0  0  0  0  0  0  0  0  0  0  0  0
   29.2730   30.1230   45.6300 C   0  0  0  0  0  0  0  0  0  0  0  0
   29.9510   29.1520   46.3600 C   0  0  0  0  0  3  0  0  0  0  0  0
   29.0720   32.7220   43.7650 H   0  0  0  0  0  0  0  0  0  0  0  0
  2  1  2  6  0  0  0
  2  3  1  0  0  0  0
  2  5  1  0  0  0  0
  3  4  1  0  0  0  0
  5  6  1  0  0  0  0
  6  7  1  0  0  0  0
  7  8  2  0  0  0  0
  8 13  1  0  0  0  0
  9  8  1  0  0  0  0
 10  9  2  0  0  0  0
 11  6  2  0  0  0  0
 11 10  1  0  0  0  0
 12  7  1  0  0  0  0
 14 10  1  0  0  0  0
 15 17  1  0  0  0  0
 15  2  1  0  0  0  0
 17 16  2  0  0  0  0
 18 17  1  0  0  0  0
 19 18  1  0  0  0  0
 20 18  2  0  0  0  0
 20 25  1  0  0  0  0
 21 22  1  0  0  0  0
 21 20  1  0  0  0  0
 22 24  2  0  0  0  0
 23 22  1  0  0  0  0
 24 25  1  0  0  0  0
 25 26  2  0  0  0  0
 26 16  1  0  0  0  0
 27 21  1  0  0  0  0
M  END
>  <minimizedAffinity>
-4.13500643

>  <minimizedRMSD>
0.767032921

$$$$
