
 OpenBabel03262521463D

 33 35  0  0  0  0  0  0  0  0999 V2000
   34.6950   30.5570   49.1430 O   0  0  0  0  0  0  0  0  0  0  0  0
   34.4330   29.4170   50.1120 P   0  0  2  0  0  0  0  0  0  0  0  0
   32.9950   29.7940   50.9020 O   0  0  0  0  0  0  0  0  0  0  0  0
   33.1520   29.6090   51.8600 H   0  0  0  0  0  0  0  0  0  0  0  0
   35.7290   29.3570   51.2110 O   0  0  0  0  0  0  0  0  0  0  0  0
   36.9530   29.2370   50.5440 C   0  0  0  0  0  0  0  0  0  0  0  0
   36.7270   29.1160   49.4780 H   0  0  0  0  0  0  0  0  0  0  0  0
   37.4650   28.3080   50.8710 H   0  0  0  0  0  0  0  0  0  0  0  0
   37.7280   30.4910   50.7790 C   0  0  0  0  0  0  0  0  0  0  0  0
   37.2420   31.2050   51.4870 H   0  0  0  0  0  0  0  0  0  0  0  0
   38.6880   30.1770   51.2840 H   0  0  0  0  0  0  0  0  0  0  0  0
   38.1240   31.2170   49.5710 C   0  0  0  0  0  0  0  0  0  0  0  0
   38.5440   32.5320   49.5930 C   0  0  0  0  0  0  0  0  0  0  0  0
   38.9000   33.1280   48.3660 C   0  0  0  0  0  0  0  0  0  0  0  0
   38.8100   32.3770   47.2240 N   0  0  0  0  0  0  0  0  0  0  0  0
   38.3880   31.0780   47.2590 C   0  0  0  0  0  0  0  0  0  0  0  0
   38.0460   30.5080   48.4410 N   0  0  0  0  0  0  0  0  0  0  0  0
   38.5830   33.0490   50.5440 H   0  0  0  0  0  0  0  0  0  0  0  0
   39.2270   34.1480   48.3690 H   0  0  0  0  0  0  0  0  0  0  0  0
   38.3430   30.5460   46.3180 H   0  0  0  0  0  0  0  0  0  0  0  0
   34.2570   27.9610   49.3140 O   0  0  0  0  0  0  0  0  0  0  0  0
   31.9240   27.5840   48.5260 C   0  0  0  0  0  3  0  0  0  0  0  0
   33.2910   27.5850   48.4160 C   0  0  0  0  0  0  0  0  0  0  0  0
   33.8660   27.1400   47.2200 C   0  0  0  0  0  0  0  0  0  0  0  0
   34.9390   27.0870   46.9970 H   0  0  0  0  0  0  0  0  0  0  0  0
   33.0670   26.7040   46.1580 C   0  0  0  0  0  0  0  0  0  0  0  0
   33.2960   26.2320   44.9190 N   0  0  0  0  0  0  0  0  0  0  0  0
   32.1000   25.9670   44.3280 C   0  0  0  0  0  0  0  0  0  0  0  0
   32.0050   25.5710   43.3130 H   0  0  0  0  0  0  0  0  0  0  0  0
   31.1020   26.2740   45.2040 N   0  0  0  0  0  0  0  0  0  0  0  0
   31.6950   26.7250   46.3210 C   0  0  0  0  0  0  0  0  0  0  0  0
   31.1180   27.1630   47.5010 C   0  0  0  0  0  3  0  0  0  0  0  0
   34.2430   26.1130   44.5320 H   0  0  0  0  0  0  0  0  0  0  0  0
  2  1  2  6  0  0  0
  2  3  1  0  0  0  0
  2  5  1  0  0  0  0
  3  4  1  0  0  0  0
  6  9  1  0  0  0  0
  6  8  1  0  0  0  0
  6  5  1  0  0  0  0
  7  6  1  0  0  0  0
  9 11  1  0  0  0  0
  9 10  1  0  0  0  0
 12 13  1  0  0  0  0
 12  9  1  0  0  0  0
 13 18  1  0  0  0  0
 14 19  1  0  0  0  0
 14 13  2  0  0  0  0
 15 16  2  0  0  0  0
 15 14  1  0  0  0  0
 16 17  1  0  0  0  0
 17 12  2  0  0  0  0
 20 16  1  0  0  0  0
 21  2  1  0  0  0  0
 23 22  1  0  0  0  0
 23 21  1  0  0  0  0
 24 23  2  0  0  0  0
 25 24  1  0  0  0  0
 26 31  2  0  0  0  0
 26 24  1  0  0  0  0
 27 26  1  0  0  0  0
 28 27  1  0  0  0  0
 28 30  2  0  0  0  0
 29 28  1  0  0  0  0
 30 31  1  0  0  0  0
 31 32  1  0  0  0  0
 32 22  2  0  0  0  0
 33 27  1  0  0  0  0
M  END
>  <minimizedAffinity>
-5.37377596

>  <minimizedRMSD>
1.93490326

$$$$
