
 OpenBabel03272506323D

 43 46  0  0  1  0  0  0  0  0999 V2000
   38.1110   26.3480   35.4070 C   0  0  1  0  0  0  0  0  0  0  0  0
   39.4410   26.9060   35.2920 C   0  0  0  0  0  0  0  0  0  0  0  0
   40.0360   26.9890   33.9030 C   0  0  0  0  0  0  0  0  0  0  0  0
   39.0750   27.3390   32.8140 C   0  0  0  0  0  0  0  0  0  0  0  0
   37.6930   26.8080   32.9220 C   0  0  0  0  0  0  0  0  0  0  0  0
   37.1810   26.8230   34.3150 C   0  0  2  0  0  0  0  0  0  0  0  0
   37.6150   26.7620   36.3390 H   0  0  0  0  0  0  0  0  0  0  0  0
   40.2190   26.5220   35.9450 H   0  0  0  0  0  0  0  0  0  0  0  0
   39.3590   27.9960   35.5900 H   0  0  0  0  0  0  0  0  0  0  0  0
   40.5260   26.0220   33.6350 H   0  0  0  0  0  0  0  0  0  0  0  0
   40.8520   27.7410   33.8970 H   0  0  0  0  0  0  0  0  0  0  0  0
   39.0520   28.4510   32.6810 H   0  0  0  0  0  0  0  0  0  0  0  0
   39.4980   26.9630   31.8560 H   0  0  0  0  0  0  0  0  0  0  0  0
   37.5500   25.7970   32.4640 H   0  0  0  0  0  0  0  0  0  0  0  0
   37.0290   27.4740   32.3320 H   0  0  0  0  0  0  0  0  0  0  0  0
   36.2040   26.3430   34.3350 H   0  0  0  0  0  0  0  0  0  0  0  0
   38.1950   23.9400   34.5500 C   0  0  0  0  0  0  0  0  0  0  0  0
   38.0140   24.8910   35.6030 C   0  0  0  0  0  0  0  0  0  0  0  0
   37.7300   24.3520   36.8470 C   0  0  0  0  0  0  0  0  0  0  0  0
   37.6410   22.9960   36.9990 N   0  0  0  0  0  0  0  0  0  0  0  0
   37.8200   22.1530   35.9740 C   0  0  0  0  0  0  0  0  0  0  0  0
   38.1020   22.6360   34.7330 N   0  0  0  0  0  0  0  0  0  0  0  0
   38.4180   24.3320   33.5660 H   0  0  0  0  0  0  0  0  0  0  0  0
   37.5730   24.9570   37.7210 H   0  0  0  0  0  0  0  0  0  0  0  0
   37.7260   21.1050   36.2140 H   0  0  0  0  0  0  0  0  0  0  0  0
   36.9650   28.3280   34.6320 C   0  0  0  0  0  0  0  0  0  0  0  0
   36.5110   28.4380   35.6550 H   0  0  0  0  0  0  0  0  0  0  0  0
   37.8970   28.8920   34.5710 H   0  0  0  0  0  0  0  0  0  0  0  0
   35.8960   28.9020   33.6980 C   0  0  0  0  0  0  0  0  0  0  0  0
   35.3630   28.0420   33.2290 H   0  0  0  0  0  0  0  0  0  0  0  0
   36.4120   29.5260   32.9550 H   0  0  0  0  0  0  0  0  0  0  0  0
   33.5720   29.7120   34.4080 C   0  0  0  0  0  3  0  0  0  0  0  0
   34.9490   29.7380   34.4770 C   0  0  0  0  0  0  0  0  0  0  0  0
   35.4950   30.6430   35.3720 C   0  0  0  0  0  0  0  0  0  0  0  0
   36.5820   30.7110   35.4740 H   0  0  0  0  0  0  0  0  0  0  0  0
   34.7840   31.5040   36.1840 C   0  0  0  0  0  0  0  0  0  0  0  0
   35.1110   32.4230   37.0860 N   0  0  0  0  0  0  0  0  0  0  0  0
   33.9640   32.9430   37.5530 C   0  0  0  0  0  0  0  0  0  0  0  0
   34.0000   33.7240   38.3110 H   0  0  0  0  0  0  0  0  0  0  0  0
   32.9260   32.3390   36.9340 N   0  0  0  0  0  0  0  0  0  0  0  0
   33.4100   31.4380   36.0760 C   0  0  0  0  0  0  0  0  0  0  0  0
   32.8040   30.5470   35.1940 C   0  0  0  0  0  3  0  0  0  0  0  0
   36.0940   32.6620   37.3490 H   0  0  0  0  0  0  0  0  0  0  0  0
  1 18  1  0  0  0  0
  1  7  1  1  0  0  0
  2  1  1  0  0  0  0
  2  9  1  0  0  0  0
  2  8  1  0  0  0  0
  3  2  1  0  0  0  0
  4  5  1  0  0  0  0
  4  3  1  0  0  0  0
  5  6  1  0  0  0  0
  6 16  1  1  0  0  0
  6 26  1  0  0  0  0
  6  1  1  0  0  0  0
 10  3  1  0  0  0  0
 11  3  1  0  0  0  0
 12  4  1  0  0  0  0
 13  4  1  0  0  0  0
 14  5  1  0  0  0  0
 15  5  1  0  0  0  0
 17 22  2  0  0  0  0
 17 18  1  0  0  0  0
 18 19  2  0  0  0  0
 19 20  1  0  0  0  0
 19 24  1  0  0  0  0
 21 25  1  0  0  0  0
 21 20  2  0  0  0  0
 22 21  1  0  0  0  0
 23 17  1  0  0  0  0
 26 27  1  0  0  0  0
 28 26  1  0  0  0  0
 29 33  1  0  0  0  0
 29 26  1  0  0  0  0
 30 29  1  0  0  0  0
 31 29  1  0  0  0  0
 32 33  2  0  0  0  0
 32 42  1  0  0  0  0
 33 34  1  0  0  0  0
 34 35  1  0  0  0  0
 34 36  2  0  0  0  0
 36 37  1  0  0  0  0
 37 43  1  0  0  0  0
 37 38  1  0  0  0  0
 38 39  1  0  0  0  0
 40 38  2  0  0  0  0
 41 36  1  0  0  0  0
 41 40  1  0  0  0  0
 42 41  2  0  0  0  0
M  END
>  <minimizedAffinity>
-6.09752178

$$$$

 OpenBabel03272506323D

 43 46  0  0  1  0  0  0  0  0999 V2000
   38.0040   26.3210   35.3330 C   0  0  1  0  0  0  0  0  0  0  0  0
   39.3010   26.9630   35.3500 C   0  0  0  0  0  0  0  0  0  0  0  0
   40.0560   27.0270   34.0410 C   0  0  0  0  0  0  0  0  0  0  0  0
   39.2160   27.2640   32.8280 C   0  0  0  0  0  0  0  0  0  0  0  0
   37.8680   26.6460   32.7960 C   0  0  0  0  0  0  0  0  0  0  0  0
   37.1880   26.6850   34.1140 C   0  0  2  0  0  0  0  0  0  0  0  0
   37.3720   26.7400   36.1770 H   0  0  0  0  0  0  0  0  0  0  0  0
   40.0150   26.6610   36.1110 H   0  0  0  0  0  0  0  0  0  0  0  0
   39.1150   28.0570   35.5810 H   0  0  0  0  0  0  0  0  0  0  0  0
   40.6340   26.0850   33.8820 H   0  0  0  0  0  0  0  0  0  0  0  0
   40.8180   27.8310   34.0950 H   0  0  0  0  0  0  0  0  0  0  0  0
   39.1410   28.3650   32.6370 H   0  0  0  0  0  0  0  0  0  0  0  0
   39.7770   26.8770   31.9480 H   0  0  0  0  0  0  0  0  0  0  0  0
   37.8450   25.6090   32.3750 H   0  0  0  0  0  0  0  0  0  0  0  0
   37.2410   27.2390   32.0980 H   0  0  0  0  0  0  0  0  0  0  0  0
   36.2480   26.1410   34.0410 H   0  0  0  0  0  0  0  0  0  0  0  0
   38.2220   23.8870   34.5810 C   0  0  0  0  0  0  0  0  0  0  0  0
   37.9740   24.8710   35.5890 C   0  0  0  0  0  0  0  0  0  0  0  0
   37.6940   24.3710   36.8500 C   0  0  0  0  0  0  0  0  0  0  0  0
   37.6670   23.0190   37.0580 N   0  0  0  0  0  0  0  0  0  0  0  0
   37.9070   22.1440   36.0720 C   0  0  0  0  0  0  0  0  0  0  0  0
   38.1890   22.5890   34.8170 N   0  0  0  0  0  0  0  0  0  0  0  0
   38.4440   24.2480   33.5840 H   0  0  0  0  0  0  0  0  0  0  0  0
   37.4900   25.0030   37.6950 H   0  0  0  0  0  0  0  0  0  0  0  0
   37.8590   21.1030   36.3550 H   0  0  0  0  0  0  0  0  0  0  0  0
   36.8410   28.1840   34.3270 C   0  0  0  0  0  0  0  0  0  0  0  0
   36.1350   28.2900   35.1960 H   0  0  0  0  0  0  0  0  0  0  0  0
   37.7360   28.7870   34.4930 H   0  0  0  0  0  0  0  0  0  0  0  0
   36.0280   28.6980   33.1350 C   0  0  0  0  0  0  0  0  0  0  0  0
   35.7730   27.8180   32.5000 H   0  0  0  0  0  0  0  0  0  0  0  0
   36.6540   29.4280   32.6030 H   0  0  0  0  0  0  0  0  0  0  0  0
   34.6600   30.1250   34.7650 C   0  0  0  0  0  3  0  0  0  0  0  0
   34.7940   29.3620   33.6230 C   0  0  0  0  0  0  0  0  0  0  0  0
   33.6490   29.2070   32.8600 C   0  0  0  0  0  0  0  0  0  0  0  0
   33.6900   28.6130   31.9420 H   0  0  0  0  0  0  0  0  0  0  0  0
   32.4100   29.7440   33.1450 C   0  0  0  0  0  0  0  0  0  0  0  0
   31.2190   29.7130   32.5570 N   0  0  0  0  0  0  0  0  0  0  0  0
   30.3830   30.4370   33.3190 C   0  0  0  0  0  0  0  0  0  0  0  0
   29.3420   30.5450   33.0180 H   0  0  0  0  0  0  0  0  0  0  0  0
   31.0650   30.9150   34.3830 N   0  0  0  0  0  0  0  0  0  0  0  0
   32.3300   30.4980   34.2980 C   0  0  0  0  0  0  0  0  0  0  0  0
   33.4480   30.6900   35.1060 C   0  0  0  0  0  3  0  0  0  0  0  0
   31.0190   29.2050   31.6660 H   0  0  0  0  0  0  0  0  0  0  0  0
  1  2  1  0  0  0  0
  1 18  1  0  0  0  0
  1  7  1  1  0  0  0
  2  9  1  0  0  0  0
  2  8  1  0  0  0  0
  3 11  1  0  0  0  0
  3  2  1  0  0  0  0
  4  3  1  0  0  0  0
  5  4  1  0  0  0  0
  5  6  1  0  0  0  0
  6 16  1  6  0  0  0
  6 26  1  0  0  0  0
  6  1  1  0  0  0  0
 10  3  1  0  0  0  0
 12  4  1  0  0  0  0
 13  4  1  0  0  0  0
 14  5  1  0  0  0  0
 15  5  1  0  0  0  0
 17 22  2  0  0  0  0
 17 18  1  0  0  0  0
 18 19  2  0  0  0  0
 19 20  1  0  0  0  0
 19 24  1  0  0  0  0
 21 25  1  0  0  0  0
 21 20  2  0  0  0  0
 22 21  1  0  0  0  0
 23 17  1  0  0  0  0
 26 28  1  0  0  0  0
 26 27  1  0  0  0  0
 29 33  1  0  0  0  0
 29 26  1  0  0  0  0
 30 29  1  0  0  0  0
 31 29  1  0  0  0  0
 32 42  1  0  0  0  0
 33 32  2  0  0  0  0
 34 36  2  0  0  0  0
 34 33  1  0  0  0  0
 35 34  1  0  0  0  0
 36 41  1  0  0  0  0
 37 36  1  0  0  0  0
 37 38  1  0  0  0  0
 38 40  2  0  0  0  0
 39 38  1  0  0  0  0
 41 40  1  0  0  0  0
 41 42  2  0  0  0  0
 43 37  1  0  0  0  0
M  END
>  <minimizedAffinity>
-5.74923706

$$$$

 OpenBabel03272506323D

 43 46  0  0  1  0  0  0  0  0999 V2000
   37.4100   26.8460   33.4530 C   0  0  1  0  0  0  0  0  0  0  0  0
   38.5970   26.6420   32.6500 C   0  0  0  0  0  0  0  0  0  0  0  0
   39.9110   27.1200   33.2280 C   0  0  0  0  0  0  0  0  0  0  0  0
   40.0680   26.9330   34.7020 C   0  0  0  0  0  0  0  0  0  0  0  0
   38.8610   27.1030   35.5480 C   0  0  0  0  0  0  0  0  0  0  0  0
   37.6370   26.5500   34.9170 C   0  0  2  0  0  0  0  0  0  0  0  0
   36.6340   26.0690   33.1690 H   0  0  0  0  0  0  0  0  0  0  0  0
   38.5780   26.9580   31.6110 H   0  0  0  0  0  0  0  0  0  0  0  0
   38.7510   25.5210   32.5830 H   0  0  0  0  0  0  0  0  0  0  0  0
   40.0630   28.2020   32.9990 H   0  0  0  0  0  0  0  0  0  0  0  0
   40.7480   26.5950   32.7230 H   0  0  0  0  0  0  0  0  0  0  0  0
   40.5430   25.9380   34.9020 H   0  0  0  0  0  0  0  0  0  0  0  0
   40.8260   27.6670   35.0570 H   0  0  0  0  0  0  0  0  0  0  0  0
   38.6830   28.1530   35.8920 H   0  0  0  0  0  0  0  0  0  0  0  0
   39.0210   26.5300   36.4850 H   0  0  0  0  0  0  0  0  0  0  0  0
   36.7800   26.7860   35.5460 H   0  0  0  0  0  0  0  0  0  0  0  0
   35.9690   28.7780   34.3080 C   0  0  0  0  0  0  0  0  0  0  0  0
   36.6890   28.1160   33.2640 C   0  0  0  0  0  0  0  0  0  0  0  0
   36.6640   28.7510   32.0320 C   0  0  0  0  0  0  0  0  0  0  0  0
   35.9810   29.9270   31.8840 N   0  0  0  0  0  0  0  0  0  0  0  0
   35.3240   30.5000   32.9010 C   0  0  0  0  0  0  0  0  0  0  0  0
   35.3210   29.9140   34.1300 N   0  0  0  0  0  0  0  0  0  0  0  0
   35.9710   28.3050   35.2820 H   0  0  0  0  0  0  0  0  0  0  0  0
   37.1650   28.3600   31.1660 H   0  0  0  0  0  0  0  0  0  0  0  0
   34.8220   31.4260   32.6650 H   0  0  0  0  0  0  0  0  0  0  0  0
   37.8380   25.0110   34.9640 C   0  0  0  0  0  0  0  0  0  0  0  0
   36.8980   24.4950   34.6220 H   0  0  0  0  0  0  0  0  0  0  0  0
   38.6840   24.6950   34.3500 H   0  0  0  0  0  0  0  0  0  0  0  0
   37.9940   24.5560   36.4170 C   0  0  0  0  0  0  0  0  0  0  0  0
   37.0370   24.0700   36.7200 H   0  0  0  0  0  0  0  0  0  0  0  0
   38.2140   25.4500   37.0170 H   0  0  0  0  0  0  0  0  0  0  0  0
   39.6270   23.0350   37.6740 C   0  0  0  0  0  3  0  0  0  0  0  0
   39.1210   23.5960   36.5210 C   0  0  0  0  0  0  0  0  0  0  0  0
   39.7360   23.2150   35.3400 C   0  0  0  0  0  0  0  0  0  0  0  0
   39.3800   23.6250   34.3900 H   0  0  0  0  0  0  0  0  0  0  0  0
   40.7950   22.3370   35.2290 C   0  0  0  0  0  0  0  0  0  0  0  0
   41.5090   21.8550   34.2170 N   0  0  0  0  0  0  0  0  0  0  0  0
   42.4240   21.0230   34.7400 C   0  0  0  0  0  0  0  0  0  0  0  0
   43.1230   20.5130   34.0790 H   0  0  0  0  0  0  0  0  0  0  0  0
   42.2730   20.9950   36.0820 N   0  0  0  0  0  0  0  0  0  0  0  0
   41.2640   21.8050   36.4120 C   0  0  0  0  0  0  0  0  0  0  0  0
   40.6850   22.1500   37.6310 C   0  0  0  0  0  3  0  0  0  0  0  0
   41.3490   22.1060   33.2160 H   0  0  0  0  0  0  0  0  0  0  0  0
  1  7  1  6  0  0  0
  1  6  1  0  0  0  0
  2  3  1  0  0  0  0
  2  1  1  0  0  0  0
  3  4  1  0  0  0  0
  4 12  1  0  0  0  0
  4 13  1  0  0  0  0
  4  5  1  0  0  0  0
  5 14  1  0  0  0  0
  5 15  1  0  0  0  0
  6 26  1  0  0  0  0
  6 16  1  1  0  0  0
  6  5  1  0  0  0  0
  8  2  1  0  0  0  0
  9  2  1  0  0  0  0
 10  3  1  0  0  0  0
 11  3  1  0  0  0  0
 17 23  1  0  0  0  0
 18  1  1  0  0  0  0
 18 17  2  0  0  0  0
 19 18  1  0  0  0  0
 20 19  2  0  0  0  0
 20 21  1  0  0  0  0
 21 22  2  0  0  0  0
 22 17  1  0  0  0  0
 24 19  1  0  0  0  0
 25 21  1  0  0  0  0
 26 29  1  0  0  0  0
 27 26  1  0  0  0  0
 28 26  1  0  0  0  0
 29 33  1  0  0  0  0
 29 30  1  0  0  0  0
 29 31  1  0  0  0  0
 33 32  2  0  0  0  0
 34 33  1  0  0  0  0
 35 34  1  0  0  0  0
 36 34  2  0  0  0  0
 36 41  1  0  0  0  0
 37 38  1  0  0  0  0
 37 36  1  0  0  0  0
 38 40  2  0  0  0  0
 39 38  1  0  0  0  0
 40 41  1  0  0  0  0
 41 42  2  0  0  0  0
 42 32  1  0  0  0  0
 43 37  1  0  0  0  0
M  END
>  <minimizedAffinity>
-5.66592312

$$$$

 OpenBabel03272506323D

 43 46  0  0  1  0  0  0  0  0999 V2000
   38.9720   23.2610   35.9460 C   0  0  1  0  0  0  0  0  0  0  0  0
   39.4720   23.0630   37.2890 C   0  0  0  0  0  0  0  0  0  0  0  0
   40.5850   22.0530   37.4700 C   0  0  0  0  0  0  0  0  0  0  0  0
   41.5990   22.0170   36.3740 C   0  0  0  0  0  0  0  0  0  0  0  0
   41.1220   22.2500   34.9880 C   0  0  0  0  0  0  0  0  0  0  0  0
   40.0740   23.2980   34.9120 C   0  0  2  0  0  0  0  0  0  0  0  0
   38.5340   24.3040   35.8640 H   0  0  0  0  0  0  0  0  0  0  0  0
   38.7550   22.8850   38.0850 H   0  0  0  0  0  0  0  0  0  0  0  0
   39.9690   24.0350   37.5940 H   0  0  0  0  0  0  0  0  0  0  0  0
   40.1600   21.0270   37.5820 H   0  0  0  0  0  0  0  0  0  0  0  0
   41.1140   22.2560   38.4230 H   0  0  0  0  0  0  0  0  0  0  0  0
   42.4360   22.7210   36.6180 H   0  0  0  0  0  0  0  0  0  0  0  0
   42.0810   21.0130   36.3920 H   0  0  0  0  0  0  0  0  0  0  0  0
   40.7900   21.3250   34.4520 H   0  0  0  0  0  0  0  0  0  0  0  0
   41.9820   22.6180   34.3910 H   0  0  0  0  0  0  0  0  0  0  0  0
   39.7080   23.3550   33.8880 H   0  0  0  0  0  0  0  0  0  0  0  0
   36.9040   21.8350   36.4190 C   0  0  0  0  0  0  0  0  0  0  0  0
   37.8570   22.4010   35.5160 C   0  0  0  0  0  0  0  0  0  0  0  0
   37.6700   22.0820   34.1800 C   0  0  0  0  0  0  0  0  0  0  0  0
   36.6280   21.2760   33.8100 N   0  0  0  0  0  0  0  0  0  0  0  0
   35.7660   20.7740   34.7040 C   0  0  0  0  0  0  0  0  0  0  0  0
   35.9090   21.0610   36.0270 N   0  0  0  0  0  0  0  0  0  0  0  0
   37.0240   22.0670   37.4700 H   0  0  0  0  0  0  0  0  0  0  0  0
   38.3150   22.4430   33.4000 H   0  0  0  0  0  0  0  0  0  0  0  0
   34.9850   20.1520   34.2950 H   0  0  0  0  0  0  0  0  0  0  0  0
   40.8270   24.6220   35.2110 C   0  0  0  0  0  0  0  0  0  0  0  0
   40.3480   25.1420   36.0850 H   0  0  0  0  0  0  0  0  0  0  0  0
   41.8860   24.4480   35.4110 H   0  0  0  0  0  0  0  0  0  0  0  0
   40.6260   25.6020   34.0510 C   0  0  0  0  0  0  0  0  0  0  0  0
   40.5100   24.9990   33.1200 H   0  0  0  0  0  0  0  0  0  0  0  0
   41.5100   26.2530   34.0170 H   0  0  0  0  0  0  0  0  0  0  0  0
   38.9840   26.9230   35.5060 C   0  0  0  0  0  3  0  0  0  0  0  0
   39.4130   26.4210   34.2960 C   0  0  0  0  0  0  0  0  0  0  0  0
   38.6200   26.7180   33.2000 C   0  0  0  0  0  0  0  0  0  0  0  0
   38.9070   26.3490   32.2110 H   0  0  0  0  0  0  0  0  0  0  0  0
   37.4580   27.4630   33.2230 C   0  0  0  0  0  0  0  0  0  0  0  0
   36.5770   27.8500   32.3070 N   0  0  0  0  0  0  0  0  0  0  0  0
   35.6370   28.5690   32.9420 C   0  0  0  0  0  0  0  0  0  0  0  0
   34.8090   28.9890   32.3730 H   0  0  0  0  0  0  0  0  0  0  0  0
   35.9430   28.6230   34.2570 N   0  0  0  0  0  0  0  0  0  0  0  0
   37.0730   27.9420   34.4580 C   0  0  0  0  0  0  0  0  0  0  0  0
   37.8300   27.6750   35.5960 C   0  0  0  0  0  3  0  0  0  0  0  0
   36.6460   27.6140   31.2920 H   0  0  0  0  0  0  0  0  0  0  0  0
  1  7  1  1  0  0  0
  1  2  1  0  0  0  0
  2  3  1  0  0  0  0
  2  9  1  0  0  0  0
  2  8  1  0  0  0  0
  3 10  1  0  0  0  0
  3 11  1  0  0  0  0
  4 13  1  0  0  0  0
  4 12  1  0  0  0  0
  4  3  1  0  0  0  0
  5  4  1  0  0  0  0
  6 16  1  6  0  0  0
  6  5  1  0  0  0  0
  6 26  1  0  0  0  0
  6  1  1  0  0  0  0
 14  5  1  0  0  0  0
 15  5  1  0  0  0  0
 17 23  1  0  0  0  0
 18  1  1  0  0  0  0
 18 17  2  0  0  0  0
 19 18  1  0  0  0  0
 20 19  2  0  0  0  0
 20 21  1  0  0  0  0
 21 22  2  0  0  0  0
 22 17  1  0  0  0  0
 24 19  1  0  0  0  0
 25 21  1  0  0  0  0
 26 28  1  0  0  0  0
 26 27  1  0  0  0  0
 29 33  1  0  0  0  0
 29 26  1  0  0  0  0
 30 29  1  0  0  0  0
 31 29  1  0  0  0  0
 32 42  1  0  0  0  0
 33 32  2  0  0  0  0
 34 36  2  0  0  0  0
 34 33  1  0  0  0  0
 35 34  1  0  0  0  0
 36 41  1  0  0  0  0
 37 38  1  0  0  0  0
 37 36  1  0  0  0  0
 38 40  2  0  0  0  0
 39 38  1  0  0  0  0
 40 41  1  0  0  0  0
 41 42  2  0  0  0  0
 43 37  1  0  0  0  0
M  END
>  <minimizedAffinity>
-5.58819723

$$$$

 OpenBabel03272506323D

 43 46  0  0  1  0  0  0  0  0999 V2000
   38.2440   24.5490   35.1560 C   0  0  1  0  0  0  0  0  0  0  0  0
   37.9180   25.7790   35.8450 C   0  0  0  0  0  0  0  0  0  0  0  0
   38.8250   26.9660   35.6020 C   0  0  0  0  0  0  0  0  0  0  0  0
   39.3370   27.1050   34.2060 C   0  0  0  0  0  0  0  0  0  0  0  0
   39.6480   25.8590   33.4620 C   0  0  0  0  0  0  0  0  0  0  0  0
   38.6690   24.7760   33.7240 C   0  0  2  0  0  0  0  0  0  0  0  0
   37.2990   23.9340   35.0310 H   0  0  0  0  0  0  0  0  0  0  0  0
   37.7350   25.7380   36.9150 H   0  0  0  0  0  0  0  0  0  0  0  0
   36.9290   26.1330   35.4210 H   0  0  0  0  0  0  0  0  0  0  0  0
   39.7030   26.9290   36.2900 H   0  0  0  0  0  0  0  0  0  0  0  0
   38.2860   27.9000   35.8660 H   0  0  0  0  0  0  0  0  0  0  0  0
   38.6330   27.7430   33.6130 H   0  0  0  0  0  0  0  0  0  0  0  0
   40.2730   27.7060   34.2470 H   0  0  0  0  0  0  0  0  0  0  0  0
   40.6930   25.4850   33.6050 H   0  0  0  0  0  0  0  0  0  0  0  0
   39.5850   26.0880   32.3770 H   0  0  0  0  0  0  0  0  0  0  0  0
   39.0030   23.8700   33.2210 H   0  0  0  0  0  0  0  0  0  0  0  0
   40.0860   22.7750   35.1670 C   0  0  0  0  0  0  0  0  0  0  0  0
   39.1520   23.6180   35.8480 C   0  0  0  0  0  0  0  0  0  0  0  0
   39.1470   23.5030   37.2280 C   0  0  0  0  0  0  0  0  0  0  0  0
   39.9980   22.6270   37.8440 N   0  0  0  0  0  0  0  0  0  0  0  0
   40.8510   21.8610   37.1520 C   0  0  0  0  0  0  0  0  0  0  0  0
   40.8930   21.9400   35.7940 N   0  0  0  0  0  0  0  0  0  0  0  0
   40.1130   22.8420   34.0870 H   0  0  0  0  0  0  0  0  0  0  0  0
   38.4950   24.0810   37.8580 H   0  0  0  0  0  0  0  0  0  0  0  0
   41.4730   21.2080   37.7450 H   0  0  0  0  0  0  0  0  0  0  0  0
   37.3700   25.2470   33.0160 C   0  0  0  0  0  0  0  0  0  0  0  0
   36.4930   24.6550   33.3970 H   0  0  0  0  0  0  0  0  0  0  0  0
   37.1940   26.3150   33.1620 H   0  0  0  0  0  0  0  0  0  0  0  0
   37.4330   24.8850   31.5290 C   0  0  0  0  0  0  0  0  0  0  0  0
   38.4390   25.1880   31.1540 H   0  0  0  0  0  0  0  0  0  0  0  0
   36.6210   25.4280   31.0260 H   0  0  0  0  0  0  0  0  0  0  0  0
   38.0800   22.5400   30.7280 C   0  0  0  0  0  3  0  0  0  0  0  0
   37.2340   23.4240   31.3630 C   0  0  0  0  0  0  0  0  0  0  0  0
   36.0790   22.8790   31.9000 C   0  0  0  0  0  0  0  0  0  0  0  0
   35.3670   23.5290   32.4170 H   0  0  0  0  0  0  0  0  0  0  0  0
   35.7150   21.5490   31.8490 C   0  0  0  0  0  0  0  0  0  0  0  0
   34.6780   20.8450   32.2900 N   0  0  0  0  0  0  0  0  0  0  0  0
   34.8870   19.5670   31.9320 C   0  0  0  0  0  0  0  0  0  0  0  0
   34.1500   18.8110   32.1960 H   0  0  0  0  0  0  0  0  0  0  0  0
   36.0600   19.4860   31.2670 N   0  0  0  0  0  0  0  0  0  0  0  0
   36.5960   20.7070   31.2020 C   0  0  0  0  0  0  0  0  0  0  0  0
   37.7740   21.1970   30.6430 C   0  0  0  0  0  3  0  0  0  0  0  0
   33.8720   21.2550   32.8130 H   0  0  0  0  0  0  0  0  0  0  0  0
  1  7  1  6  0  0  0
  1  2  1  0  0  0  0
  1 18  1  0  0  0  0
  2  8  1  0  0  0  0
  3  2  1  0  0  0  0
  3 11  1  0  0  0  0
  3 10  1  0  0  0  0
  4 13  1  0  0  0  0
  4  3  1  0  0  0  0
  5 14  1  0  0  0  0
  5  6  1  0  0  0  0
  5  4  1  0  0  0  0
  6 16  1  6  0  0  0
  6  1  1  0  0  0  0
  9  2  1  0  0  0  0
 12  4  1  0  0  0  0
 15  5  1  0  0  0  0
 17 22  2  0  0  0  0
 17 18  1  0  0  0  0
 18 19  2  0  0  0  0
 19 20  1  0  0  0  0
 19 24  1  0  0  0  0
 21 25  1  0  0  0  0
 21 20  2  0  0  0  0
 22 21  1  0  0  0  0
 23 17  1  0  0  0  0
 26 28  1  0  0  0  0
 26 27  1  0  0  0  0
 26  6  1  0  0  0  0
 29 26  1  0  0  0  0
 30 29  1  0  0  0  0
 31 29  1  0  0  0  0
 32 33  1  0  0  0  0
 33 29  1  0  0  0  0
 33 34  2  0  0  0  0
 34 35  1  0  0  0  0
 36 34  1  0  0  0  0
 36 37  1  0  0  0  0
 37 43  1  0  0  0  0
 38 39  1  0  0  0  0
 38 37  1  0  0  0  0
 40 38  2  0  0  0  0
 41 40  1  0  0  0  0
 41 36  2  0  0  0  0
 42 32  2  0  0  0  0
 42 41  1  0  0  0  0
M  END
>  <minimizedAffinity>
-5.54080439

$$$$

 OpenBabel03272506323D

 43 46  0  0  1  0  0  0  0  0999 V2000
   39.0160   24.4000   35.0500 C   0  0  1  0  0  0  0  0  0  0  0  0
   37.9500   24.9470   35.8610 C   0  0  0  0  0  0  0  0  0  0  0  0
   38.1890   26.3010   36.4940 C   0  0  0  0  0  0  0  0  0  0  0  0
   38.9460   27.2750   35.6510 C   0  0  0  0  0  0  0  0  0  0  0  0
   40.0230   26.7400   34.7830 C   0  0  0  0  0  0  0  0  0  0  0  0
   39.6690   25.4380   34.1660 C   0  0  2  0  0  0  0  0  0  0  0  0
   38.5730   23.6840   34.2900 H   0  0  0  0  0  0  0  0  0  0  0  0
   37.5100   24.3160   36.6280 H   0  0  0  0  0  0  0  0  0  0  0  0
   37.0840   25.1510   35.1590 H   0  0  0  0  0  0  0  0  0  0  0  0
   38.7320   26.1850   37.4610 H   0  0  0  0  0  0  0  0  0  0  0  0
   37.2140   26.7590   36.7590 H   0  0  0  0  0  0  0  0  0  0  0  0
   38.2250   27.8810   35.0440 H   0  0  0  0  0  0  0  0  0  0  0  0
   39.4130   28.0210   36.3340 H   0  0  0  0  0  0  0  0  0  0  0  0
   41.0260   26.6780   35.2770 H   0  0  0  0  0  0  0  0  0  0  0  0
   40.1720   27.4560   33.9480 H   0  0  0  0  0  0  0  0  0  0  0  0
   40.5310   25.0620   33.6180 H   0  0  0  0  0  0  0  0  0  0  0  0
   39.7800   22.9200   36.9900 C   0  0  0  0  0  0  0  0  0  0  0  0
   40.0190   23.5700   35.7390 C   0  0  0  0  0  0  0  0  0  0  0  0
   41.2800   23.3730   35.1990 C   0  0  0  0  0  0  0  0  0  0  0  0
   42.1940   22.6010   35.8640 N   0  0  0  0  0  0  0  0  0  0  0  0
   41.9120   22.0170   37.0350 C   0  0  0  0  0  0  0  0  0  0  0  0
   40.6860   22.1810   37.6030 N   0  0  0  0  0  0  0  0  0  0  0  0
   38.8030   23.0550   37.4360 H   0  0  0  0  0  0  0  0  0  0  0  0
   41.5870   23.8050   34.2640 H   0  0  0  0  0  0  0  0  0  0  0  0
   42.7110   21.4320   37.4650 H   0  0  0  0  0  0  0  0  0  0  0  0
   38.5720   25.7890   33.1240 C   0  0  0  0  0  0  0  0  0  0  0  0
   38.2730   24.8620   32.5620 H   0  0  0  0  0  0  0  0  0  0  0  0
   37.6970   26.2420   33.5950 H   0  0  0  0  0  0  0  0  0  0  0  0
   39.1630   26.6960   32.0410 C   0  0  0  0  0  0  0  0  0  0  0  0
   39.4370   26.0480   31.1760 H   0  0  0  0  0  0  0  0  0  0  0  0
   40.0360   27.1990   32.4770 H   0  0  0  0  0  0  0  0  0  0  0  0
   38.1650   28.4690   30.4850 C   0  0  0  0  0  3  0  0  0  0  0  0
   38.1560   27.7070   31.6340 C   0  0  0  0  0  0  0  0  0  0  0  0
   37.0900   27.9170   32.4930 C   0  0  0  0  0  0  0  0  0  0  0  0
   37.0250   27.3440   33.4220 H   0  0  0  0  0  0  0  0  0  0  0  0
   36.0560   28.8110   32.2930 C   0  0  0  0  0  0  0  0  0  0  0  0
   34.9700   29.1530   32.9770 N   0  0  0  0  0  0  0  0  0  0  0  0
   34.3350   30.0960   32.2630 C   0  0  0  0  0  0  0  0  0  0  0  0
   33.4080   30.5230   32.6450 H   0  0  0  0  0  0  0  0  0  0  0  0
   35.0360   30.3360   31.1340 N   0  0  0  0  0  0  0  0  0  0  0  0
   36.1130   29.5480   31.1280 C   0  0  0  0  0  0  0  0  0  0  0  0
   37.1610   29.3790   30.2260 C   0  0  0  0  0  3  0  0  0  0  0  0
   34.7020   28.7360   33.8970 H   0  0  0  0  0  0  0  0  0  0  0  0
  1  7  1  6  0  0  0
  1 18  1  0  0  0  0
  1  2  1  0  0  0  0
  2  3  1  0  0  0  0
  2  8  1  0  0  0  0
  3 11  1  0  0  0  0
  3 10  1  0  0  0  0
  4 13  1  0  0  0  0
  4  3  1  0  0  0  0
  5 14  1  0  0  0  0
  5  4  1  0  0  0  0
  6 16  1  6  0  0  0
  6  5  1  0  0  0  0
  6  1  1  0  0  0  0
  9  2  1  0  0  0  0
 12  4  1  0  0  0  0
 15  5  1  0  0  0  0
 17 23  1  0  0  0  0
 17 22  1  0  0  0  0
 18 17  2  0  0  0  0
 19 18  1  0  0  0  0
 19 20  2  0  0  0  0
 20 21  1  0  0  0  0
 21 25  1  0  0  0  0
 21 22  2  0  0  0  0
 24 19  1  0  0  0  0
 26 28  1  0  0  0  0
 26  6  1  0  0  0  0
 27 26  1  0  0  0  0
 29 31  1  0  0  0  0
 29 26  1  0  0  0  0
 30 29  1  0  0  0  0
 32 33  1  0  0  0  0
 33 29  1  0  0  0  0
 33 34  2  0  0  0  0
 34 35  1  0  0  0  0
 36 34  1  0  0  0  0
 36 37  1  0  0  0  0
 37 43  1  0  0  0  0
 38 39  1  0  0  0  0
 38 37  1  0  0  0  0
 40 38  2  0  0  0  0
 41 40  1  0  0  0  0
 41 36  2  0  0  0  0
 42 32  2  0  0  0  0
 42 41  1  0  0  0  0
M  END
>  <minimizedAffinity>
-5.52496052

$$$$

 OpenBabel03272506323D

 43 46  0  0  1  0  0  0  0  0999 V2000
   39.4050   23.7400   35.6440 C   0  0  1  0  0  0  0  0  0  0  0  0
   38.4740   22.9330   34.8850 C   0  0  0  0  0  0  0  0  0  0  0  0
   37.5220   22.0560   35.6690 C   0  0  0  0  0  0  0  0  0  0  0  0
   37.0020   22.6510   36.9370 C   0  0  0  0  0  0  0  0  0  0  0  0
   37.9240   23.5100   37.7210 C   0  0  0  0  0  0  0  0  0  0  0  0
   38.7730   24.3730   36.8620 C   0  0  2  0  0  0  0  0  0  0  0  0
   39.6960   24.6460   35.0280 H   0  0  0  0  0  0  0  0  0  0  0  0
   38.8610   22.3270   34.0710 H   0  0  0  0  0  0  0  0  0  0  0  0
   37.7720   23.6560   34.3650 H   0  0  0  0  0  0  0  0  0  0  0  0
   38.0090   21.0840   35.9180 H   0  0  0  0  0  0  0  0  0  0  0  0
   36.6530   21.7940   35.0300 H   0  0  0  0  0  0  0  0  0  0  0  0
   36.0480   23.1990   36.7280 H   0  0  0  0  0  0  0  0  0  0  0  0
   36.6890   21.8130   37.6000 H   0  0  0  0  0  0  0  0  0  0  0  0
   38.5540   22.9560   38.4620 H   0  0  0  0  0  0  0  0  0  0  0  0
   37.3050   24.1920   38.3420 H   0  0  0  0  0  0  0  0  0  0  0  0
   39.4810   24.9070   37.4920 H   0  0  0  0  0  0  0  0  0  0  0  0
   40.8460   21.9350   36.7410 C   0  0  0  0  0  0  0  0  0  0  0  0
   40.7060   23.1290   35.9670 C   0  0  0  0  0  0  0  0  0  0  0  0
   41.8920   23.6960   35.5300 C   0  0  0  0  0  0  0  0  0  0  0  0
   43.0870   23.1100   35.8490 N   0  0  0  0  0  0  0  0  0  0  0  0
   43.1550   21.9900   36.5800 C   0  0  0  0  0  0  0  0  0  0  0  0
   42.0160   21.3970   37.0300 N   0  0  0  0  0  0  0  0  0  0  0  0
   39.9360   21.4690   37.0960 H   0  0  0  0  0  0  0  0  0  0  0  0
   41.9260   24.5930   34.9400 H   0  0  0  0  0  0  0  0  0  0  0  0
   44.1520   21.6200   36.7680 H   0  0  0  0  0  0  0  0  0  0  0  0
   37.7900   25.4210   36.2740 C   0  0  0  0  0  0  0  0  0  0  0  0
   37.4400   25.0860   35.2590 H   0  0  0  0  0  0  0  0  0  0  0  0
   36.9340   25.5860   36.9310 H   0  0  0  0  0  0  0  0  0  0  0  0
   38.5390   26.7250   35.9880 C   0  0  0  0  0  0  0  0  0  0  0  0
   39.5820   26.6010   36.3640 H   0  0  0  0  0  0  0  0  0  0  0  0
   38.0030   27.5310   36.5070 H   0  0  0  0  0  0  0  0  0  0  0  0
   39.6280   26.9490   33.6800 C   0  0  0  0  0  3  0  0  0  0  0  0
   38.5410   26.9890   34.5270 C   0  0  0  0  0  0  0  0  0  0  0  0
   37.3270   27.3090   33.9420 C   0  0  0  0  0  0  0  0  0  0  0  0
   36.4270   27.3560   34.5610 H   0  0  0  0  0  0  0  0  0  0  0  0
   37.1240   27.5860   32.6050 C   0  0  0  0  0  0  0  0  0  0  0  0
   36.0680   27.9070   31.8660 N   0  0  0  0  0  0  0  0  0  0  0  0
   36.5000   28.0580   30.6030 C   0  0  0  0  0  0  0  0  0  0  0  0
   35.7900   28.3250   29.8230 H   0  0  0  0  0  0  0  0  0  0  0  0
   37.8310   27.8290   30.5670 N   0  0  0  0  0  0  0  0  0  0  0  0
   38.2450   27.5330   31.8010 C   0  0  0  0  0  0  0  0  0  0  0  0
   39.4920   27.2160   32.3330 C   0  0  0  0  0  3  0  0  0  0  0  0
   35.0990   28.0110   32.2430 H   0  0  0  0  0  0  0  0  0  0  0  0
  1  7  1  6  0  0  0
  1 18  1  0  0  0  0
  1  6  1  0  0  0  0
  2  1  1  0  0  0  0
  2  3  1  0  0  0  0
  3 10  1  0  0  0  0
  3  4  1  0  0  0  0
  4 13  1  0  0  0  0
  4  5  1  0  0  0  0
  5 15  1  0  0  0  0
  5 14  1  0  0  0  0
  6 16  1  1  0  0  0
  6  5  1  0  0  0  0
  8  2  1  0  0  0  0
  9  2  1  0  0  0  0
 11  3  1  0  0  0  0
 12  4  1  0  0  0  0
 17 22  1  0  0  0  0
 17 23  1  0  0  0  0
 18 17  2  0  0  0  0
 19 20  2  0  0  0  0
 19 18  1  0  0  0  0
 20 21  1  0  0  0  0
 21 25  1  0  0  0  0
 21 22  2  0  0  0  0
 24 19  1  0  0  0  0
 26  6  1  0  0  0  0
 26 28  1  0  0  0  0
 27 26  1  0  0  0  0
 29 26  1  0  0  0  0
 29 30  1  0  0  0  0
 29 31  1  0  0  0  0
 32 33  1  0  0  0  0
 33 29  1  0  0  0  0
 34 33  2  0  0  0  0
 34 35  1  0  0  0  0
 36 34  1  0  0  0  0
 37 43  1  0  0  0  0
 37 36  1  0  0  0  0
 38 37  1  0  0  0  0
 39 38  1  0  0  0  0
 40 38  2  0  0  0  0
 40 41  1  0  0  0  0
 41 42  1  0  0  0  0
 41 36  2  0  0  0  0
 42 32  2  0  0  0  0
M  END
>  <minimizedAffinity>
-5.45950937

$$$$

 OpenBabel03272506323D

 43 46  0  0  1  0  0  0  0  0999 V2000
   38.2080   24.5150   35.1420 C   0  0  1  0  0  0  0  0  0  0  0  0
   37.7900   25.7070   35.8480 C   0  0  0  0  0  0  0  0  0  0  0  0
   38.6620   26.9360   35.7030 C   0  0  0  0  0  0  0  0  0  0  0  0
   39.2540   27.1430   34.3470 C   0  0  0  0  0  0  0  0  0  0  0  0
   39.6610   25.9370   33.5850 C   0  0  0  0  0  0  0  0  0  0  0  0
   38.7120   24.8080   33.7480 C   0  0  2  0  0  0  0  0  0  0  0  0
   37.2980   23.8700   34.9360 H   0  0  0  0  0  0  0  0  0  0  0  0
   37.5420   25.6220   36.9020 H   0  0  0  0  0  0  0  0  0  0  0  0
   36.8160   26.0380   35.3730 H   0  0  0  0  0  0  0  0  0  0  0  0
   39.4960   26.9080   36.4440 H   0  0  0  0  0  0  0  0  0  0  0  0
   38.0700   27.8380   35.9620 H   0  0  0  0  0  0  0  0  0  0  0  0
   38.5640   27.7740   33.7320 H   0  0  0  0  0  0  0  0  0  0  0  0
   40.1610   27.7780   34.4680 H   0  0  0  0  0  0  0  0  0  0  0  0
   40.7100   25.5980   33.7820 H   0  0  0  0  0  0  0  0  0  0  0  0
   39.6570   26.2010   32.5070 H   0  0  0  0  0  0  0  0  0  0  0  0
   39.1140   23.9340   33.2380 H   0  0  0  0  0  0  0  0  0  0  0  0
   39.1010   23.4350   37.2810 C   0  0  0  0  0  0  0  0  0  0  0  0
   39.1080   23.5960   35.8590 C   0  0  0  0  0  0  0  0  0  0  0  0
   40.0340   22.8220   35.1790 C   0  0  0  0  0  0  0  0  0  0  0  0
   40.8610   21.9810   35.8720 N   0  0  0  0  0  0  0  0  0  0  0  0
   40.8090   21.8740   37.2060 C   0  0  0  0  0  0  0  0  0  0  0  0
   39.9140   22.6120   37.9170 N   0  0  0  0  0  0  0  0  0  0  0  0
   38.3870   24.0270   37.8400 H   0  0  0  0  0  0  0  0  0  0  0  0
   40.1410   22.8480   34.1100 H   0  0  0  0  0  0  0  0  0  0  0  0
   41.5100   21.1780   37.6420 H   0  0  0  0  0  0  0  0  0  0  0  0
   37.4420   25.2550   32.9740 C   0  0  0  0  0  0  0  0  0  0  0  0
   36.5440   24.7070   33.3720 H   0  0  0  0  0  0  0  0  0  0  0  0
   37.2860   26.3330   33.0410 H   0  0  0  0  0  0  0  0  0  0  0  0
   37.5360   24.7890   31.5180 C   0  0  0  0  0  0  0  0  0  0  0  0
   38.6130   24.8110   31.2290 H   0  0  0  0  0  0  0  0  0  0  0  0
   36.9290   25.4770   30.9150 H   0  0  0  0  0  0  0  0  0  0  0  0
   35.7420   22.9800   31.7830 C   0  0  0  0  0  3  0  0  0  0  0  0
   36.9940   23.4120   31.4000 C   0  0  0  0  0  0  0  0  0  0  0  0
   37.8250   22.4510   30.8480 C   0  0  0  0  0  0  0  0  0  0  0  0
   38.8310   22.7310   30.5240 H   0  0  0  0  0  0  0  0  0  0  0  0
   37.5050   21.1220   30.6550 C   0  0  0  0  0  0  0  0  0  0  0  0
   38.1440   20.0700   30.1560 N   0  0  0  0  0  0  0  0  0  0  0  0
   37.3030   19.0250   30.2320 C   0  0  0  0  0  0  0  0  0  0  0  0
   37.6280   18.0500   29.8740 H   0  0  0  0  0  0  0  0  0  0  0  0
   36.1410   19.4390   30.7820 N   0  0  0  0  0  0  0  0  0  0  0  0
   36.2410   20.7420   31.0550 C   0  0  0  0  0  0  0  0  0  0  0  0
   35.3610   21.6640   31.6160 C   0  0  0  0  0  3  0  0  0  0  0  0
   39.1200   20.0990   29.7840 H   0  0  0  0  0  0  0  0  0  0  0  0
  1  7  1  6  0  0  0
  1  2  1  0  0  0  0
  1 18  1  0  0  0  0
  2  8  1  0  0  0  0
  3  2  1  0  0  0  0
  3 11  1  0  0  0  0
  3 10  1  0  0  0  0
  4 13  1  0  0  0  0
  4  3  1  0  0  0  0
  5  6  1  0  0  0  0
  5 14  1  0  0  0  0
  5  4  1  0  0  0  0
  6 16  1  6  0  0  0
  6  1  1  0  0  0  0
  9  2  1  0  0  0  0
 12  4  1  0  0  0  0
 15  5  1  0  0  0  0
 17 23  1  0  0  0  0
 17 22  1  0  0  0  0
 18 17  2  0  0  0  0
 19 18  1  0  0  0  0
 19 20  2  0  0  0  0
 20 21  1  0  0  0  0
 21 25  1  0  0  0  0
 21 22  2  0  0  0  0
 24 19  1  0  0  0  0
 26 28  1  0  0  0  0
 26 27  1  0  0  0  0
 26  6  1  0  0  0  0
 29 26  1  0  0  0  0
 30 29  1  0  0  0  0
 31 29  1  0  0  0  0
 33 29  1  0  0  0  0
 33 32  2  0  0  0  0
 34 33  1  0  0  0  0
 35 34  1  0  0  0  0
 36 34  2  0  0  0  0
 36 41  1  0  0  0  0
 37 38  1  0  0  0  0
 37 36  1  0  0  0  0
 38 40  2  0  0  0  0
 39 38  1  0  0  0  0
 40 41  1  0  0  0  0
 41 42  2  0  0  0  0
 42 32  1  0  0  0  0
 43 37  1  0  0  0  0
M  END
>  <minimizedAffinity>
-5.44285774

$$$$

 OpenBabel03272506323D

 43 46  0  0  1  0  0  0  0  0999 V2000
   38.4690   24.6550   34.6810 C   0  0  1  0  0  0  0  0  0  0  0  0
   37.8030   25.9270   34.5000 C   0  0  0  0  0  0  0  0  0  0  0  0
   38.6710   27.1670   34.5080 C   0  0  0  0  0  0  0  0  0  0  0  0
   40.0050   27.0180   33.8530 C   0  0  0  0  0  0  0  0  0  0  0  0
   40.6970   25.7130   33.9930 C   0  0  0  0  0  0  0  0  0  0  0  0
   39.7670   24.5600   33.9140 C   0  0  2  0  0  0  0  0  0  0  0  0
   37.8460   23.8400   34.1980 H   0  0  0  0  0  0  0  0  0  0  0  0
   36.9360   26.1480   35.1150 H   0  0  0  0  0  0  0  0  0  0  0  0
   37.3870   25.9250   33.4460 H   0  0  0  0  0  0  0  0  0  0  0  0
   38.8370   27.5150   35.5560 H   0  0  0  0  0  0  0  0  0  0  0  0
   38.1310   27.9970   34.0070 H   0  0  0  0  0  0  0  0  0  0  0  0
   39.9220   27.2970   32.7710 H   0  0  0  0  0  0  0  0  0  0  0  0
   40.6800   27.7960   34.2780 H   0  0  0  0  0  0  0  0  0  0  0  0
   41.3470   25.6300   34.9010 H   0  0  0  0  0  0  0  0  0  0  0  0
   41.4020   25.6110   33.1420 H   0  0  0  0  0  0  0  0  0  0  0  0
   40.3230   23.6460   34.1110 H   0  0  0  0  0  0  0  0  0  0  0  0
   39.6520   23.2700   36.4760 C   0  0  0  0  0  0  0  0  0  0  0  0
   38.6230   24.1750   36.0650 C   0  0  0  0  0  0  0  0  0  0  0  0
   37.7560   24.5810   37.0660 C   0  0  0  0  0  0  0  0  0  0  0  0
   37.9200   24.1150   38.3420 N   0  0  0  0  0  0  0  0  0  0  0  0
   38.9030   23.2660   38.6670 C   0  0  0  0  0  0  0  0  0  0  0  0
   39.7800   22.8400   37.7170 N   0  0  0  0  0  0  0  0  0  0  0  0
   40.3450   22.9340   35.7150 H   0  0  0  0  0  0  0  0  0  0  0  0
   36.9410   25.2600   36.8900 H   0  0  0  0  0  0  0  0  0  0  0  0
   38.9330   22.9670   39.7040 H   0  0  0  0  0  0  0  0  0  0  0  0
   39.3240   24.5220   32.4260 C   0  0  0  0  0  0  0  0  0  0  0  0
   38.2380   24.8040   32.3470 H   0  0  0  0  0  0  0  0  0  0  0  0
   39.9300   25.1840   31.8060 H   0  0  0  0  0  0  0  0  0  0  0  0
   39.3620   23.0790   31.9150 C   0  0  0  0  0  0  0  0  0  0  0  0
   40.0180   22.4970   32.6040 H   0  0  0  0  0  0  0  0  0  0  0  0
   39.7570   23.1060   30.8900 H   0  0  0  0  0  0  0  0  0  0  0  0
   36.8120   23.2100   31.7130 C   0  0  0  0  0  3  0  0  0  0  0  0
   37.9890   22.5170   31.9050 C   0  0  0  0  0  0  0  0  0  0  0  0
   37.8630   21.1530   32.1100 C   0  0  0  0  0  0  0  0  0  0  0  0
   38.7600   20.5470   32.2680 H   0  0  0  0  0  0  0  0  0  0  0  0
   36.6770   20.4460   32.1360 C   0  0  0  0  0  0  0  0  0  0  0  0
   36.3530   19.1700   32.3140 N   0  0  0  0  0  0  0  0  0  0  0  0
   35.0140   19.0890   32.2310 C   0  0  0  0  0  0  0  0  0  0  0  0
   34.5290   18.1210   32.3480 H   0  0  0  0  0  0  0  0  0  0  0  0
   34.5140   20.3230   32.0020 N   0  0  0  0  0  0  0  0  0  0  0  0
   35.5300   21.1870   31.9390 C   0  0  0  0  0  0  0  0  0  0  0  0
   35.5940   22.5620   31.7280 C   0  0  0  0  0  3  0  0  0  0  0  0
   37.0460   18.4080   32.4820 H   0  0  0  0  0  0  0  0  0  0  0  0
  1  7  1  6  0  0  0
  1 18  1  0  0  0  0
  2  3  1  0  0  0  0
  2  1  1  0  0  0  0
  2  8  1  0  0  0  0
  3 10  1  0  0  0  0
  4  5  1  0  0  0  0
  4 13  1  0  0  0  0
  4  3  1  0  0  0  0
  5 14  1  0  0  0  0
  6  5  1  0  0  0  0
  6 16  1  1  0  0  0
  6  1  1  0  0  0  0
  9  2  1  0  0  0  0
 11  3  1  0  0  0  0
 12  4  1  0  0  0  0
 15  5  1  0  0  0  0
 17 22  1  0  0  0  0
 18 17  2  0  0  0  0
 18 19  1  0  0  0  0
 19 20  2  0  0  0  0
 20 21  1  0  0  0  0
 21 25  1  0  0  0  0
 22 21  2  0  0  0  0
 23 17  1  0  0  0  0
 24 19  1  0  0  0  0
 26  6  1  0  0  0  0
 27 26  1  0  0  0  0
 28 26  1  0  0  0  0
 29 26  1  0  0  0  0
 29 30  1  0  0  0  0
 31 29  1  0  0  0  0
 32 42  2  0  0  0  0
 32 33  1  0  0  0  0
 33 29  1  0  0  0  0
 33 34  2  0  0  0  0
 34 36  1  0  0  0  0
 34 35  1  0  0  0  0
 36 37  1  0  0  0  0
 37 43  1  0  0  0  0
 38 37  1  0  0  0  0
 38 39  1  0  0  0  0
 40 38  2  0  0  0  0
 41 40  1  0  0  0  0
 41 36  2  0  0  0  0
 42 41  1  0  0  0  0
M  END
>  <minimizedAffinity>
-5.38073063

$$$$
