
 OpenBabel03272504223D

 42 45  0  0  1  0  0  0  0  0999 V2000
   38.9270   32.3770   47.9040 C   0  0  2  0  0  0  0  0  0  0  0  0
   38.1700   31.3810   48.7650 C   0  0  1  0  0  0  0  0  0  0  0  0
   38.5480   31.9550   50.1420 C   0  0  0  0  0  0  0  0  0  0  0  0
   38.2320   33.2940   49.9580 O   0  0  0  0  0  0  0  0  0  0  0  0
   38.6530   33.6470   48.6980 C   0  0  0  0  0  0  0  0  0  0  0  0
   39.9980   32.0970   47.9460 H   0  0  0  0  0  0  0  0  0  0  0  0
   38.5060   30.3500   48.6540 H   0  0  0  0  0  0  0  0  0  0  0  0
   39.6450   31.8580   50.2340 H   0  0  0  0  0  0  0  0  0  0  0  0
   37.9780   31.4980   50.9500 H   0  0  0  0  0  0  0  0  0  0  0  0
   39.5430   34.2910   48.7750 H   0  0  0  0  0  0  0  0  0  0  0  0
   37.8440   34.2030   48.1480 H   0  0  0  0  0  0  0  0  0  0  0  0
   36.8300   31.5830   48.5290 O   0  0  0  0  0  0  0  0  0  0  0  0
   35.9700   29.7520   46.8900 O   0  0  0  0  0  0  0  0  0  0  0  0
   35.9850   30.1360   48.3390 P   0  0  1  0  0  0  0  0  0  0  0  0
   36.7630   28.8810   49.2140 O   0  0  0  0  0  0  0  0  0  0  0  0
   37.5480   28.5580   48.7150 H   0  0  0  0  0  0  0  0  0  0  0  0
   34.3970   30.3170   48.9270 O   0  0  0  0  0  0  0  0  0  0  0  0
   34.1270   29.2140   49.7120 C   0  0  0  0  0  0  0  0  0  0  0  0
   33.5670   29.6060   50.6040 H   0  0  0  0  0  0  0  0  0  0  0  0
   35.0550   28.7730   50.1140 H   0  0  0  0  0  0  0  0  0  0  0  0
   33.2640   28.2170   49.0420 C   0  0  0  0  0  0  0  0  0  0  0  0
   33.8880   27.3100   48.2200 C   0  0  0  0  0  0  0  0  0  0  0  0
   33.1290   26.3430   47.5590 C   0  0  0  0  0  0  0  0  0  0  0  0
   31.7830   26.3590   47.7750 N   0  0  0  0  0  0  0  0  0  0  0  0
   31.1920   27.2610   48.5870 C   0  0  0  0  0  0  0  0  0  0  0  0
   31.9310   28.1950   49.2240 N   0  0  0  0  0  0  0  0  0  0  0  0
   34.9310   27.2180   47.9900 H   0  0  0  0  0  0  0  0  0  0  0  0
   33.5290   25.5870   46.8940 H   0  0  0  0  0  0  0  0  0  0  0  0
   30.1140   27.2510   48.7400 H   0  0  0  0  0  0  0  0  0  0  0  0
   38.3650   32.3690   46.6540 O   0  0  0  0  0  0  0  0  0  0  0  0
   39.1570   32.9110   44.5460 C   0  0  0  0  0  3  0  0  0  0  0  0
   38.8800   31.9050   45.4670 C   0  0  0  0  0  0  0  0  0  0  0  0
   39.1450   30.5950   45.0950 C   0  0  0  0  0  0  0  0  0  0  0  0
   38.9020   29.8740   45.8660 H   0  0  0  0  0  0  0  0  0  0  0  0
   39.6680   30.3150   43.8460 C   0  0  0  0  0  0  0  0  0  0  0  0
   39.9870   29.1190   43.3120 N   0  0  0  0  0  0  0  0  0  0  0  0
   40.4530   29.4010   42.0810 C   0  0  0  0  0  0  0  0  0  0  0  0
   40.7910   28.5990   41.4140 H   0  0  0  0  0  0  0  0  0  0  0  0
   40.4200   30.7290   41.8660 N   0  0  0  0  0  0  0  0  0  0  0  0
   39.9250   31.3490   42.9690 C   0  0  0  0  0  0  0  0  0  0  0  0
   39.6790   32.6610   43.2940 C   0  0  0  0  0  3  0  0  0  0  0  0
   39.8940   28.1810   43.7540 H   0  0  0  0  0  0  0  0  0  0  0  0
  1  6  1  6  0  0  0
  1  5  1  0  0  0  0
  1  2  1  0  0  0  0
  2  7  1  6  0  0  0
  2  3  1  0  0  0  0
  3  8  1  0  0  0  0
  3  9  1  0  0  0  0
  4  3  1  0  0  0  0
  5 10  1  0  0  0  0
  5  4  1  0  0  0  0
 11  5  1  0  0  0  0
 12  2  1  0  0  0  0
 14 13  2  6  0  0  0
 14 12  1  0  0  0  0
 14 17  1  0  0  0  0
 14 15  1  0  0  0  0
 16 15  1  0  0  0  0
 17 18  1  0  0  0  0
 18 20  1  0  0  0  0
 18 19  1  0  0  0  0
 21 26  1  0  0  0  0
 21 18  1  0  0  0  0
 22 21  2  0  0  0  0
 23 24  2  0  0  0  0
 23 22  1  0  0  0  0
 24 25  1  0  0  0  0
 25 29  1  0  0  0  0
 25 26  2  0  0  0  0
 27 22  1  0  0  0  0
 28 23  1  0  0  0  0
 30  1  1  0  0  0  0
 31 32  1  0  0  0  0
 32 30  1  0  0  0  0
 33 32  2  0  0  0  0
 33 34  1  0  0  0  0
 35 33  1  0  0  0  0
 36 42  1  0  0  0  0
 36 35  1  0  0  0  0
 37 36  1  0  0  0  0
 38 37  1  0  0  0  0
 39 37  2  0  0  0  0
 39 40  1  0  0  0  0
 40 41  1  0  0  0  0
 40 35  2  0  0  0  0
 41 31  2  0  0  0  0
M  END
>  <minimizedAffinity>
-5.33819056

>  <minimizedRMSD>
0.578559995

$$$$
