
 OpenBabel03272504223D

 42 45  0  0  1  0  0  0  0  0999 V2000
   38.8980   32.4160   47.8730 C   0  0  2  0  0  0  0  0  0  0  0  0
   38.1920   31.4010   48.7560 C   0  0  1  0  0  0  0  0  0  0  0  0
   38.6510   31.9450   50.1210 C   0  0  0  0  0  0  0  0  0  0  0  0
   38.3260   33.2870   49.9850 O   0  0  0  0  0  0  0  0  0  0  0  0
   38.6730   33.6680   48.7110 C   0  0  0  0  0  0  0  0  0  0  0  0
   39.9690   32.1340   47.8470 H   0  0  0  0  0  0  0  0  0  0  0  0
   38.5190   30.3730   48.6030 H   0  0  0  0  0  0  0  0  0  0  0  0
   39.7510   31.8460   50.1460 H   0  0  0  0  0  0  0  0  0  0  0  0
   38.1290   31.4690   50.9500 H   0  0  0  0  0  0  0  0  0  0  0  0
   39.5660   34.3100   48.7490 H   0  0  0  0  0  0  0  0  0  0  0  0
   37.8340   34.2350   48.2210 H   0  0  0  0  0  0  0  0  0  0  0  0
   36.8400   31.6080   48.6030 O   0  0  0  0  0  0  0  0  0  0  0  0
   35.9650   29.8260   46.9190 O   0  0  0  0  0  0  0  0  0  0  0  0
   35.9910   30.1690   48.3780 P   0  0  1  0  0  0  0  0  0  0  0  0
   36.7710   28.8880   49.2120 O   0  0  0  0  0  0  0  0  0  0  0  0
   37.5520   28.5770   48.6990 H   0  0  0  0  0  0  0  0  0  0  0  0
   34.4070   30.3370   48.9810 O   0  0  0  0  0  0  0  0  0  0  0  0
   34.1430   29.2180   49.7450 C   0  0  0  0  0  0  0  0  0  0  0  0
   33.5840   29.5900   50.6470 H   0  0  0  0  0  0  0  0  0  0  0  0
   35.0740   28.7720   50.1360 H   0  0  0  0  0  0  0  0  0  0  0  0
   33.2810   28.2310   49.0590 C   0  0  0  0  0  0  0  0  0  0  0  0
   33.9080   27.3320   48.2290 C   0  0  0  0  0  0  0  0  0  0  0  0
   33.1510   26.3750   47.5520 C   0  0  0  0  0  0  0  0  0  0  0  0
   31.8030   26.3930   47.7600 N   0  0  0  0  0  0  0  0  0  0  0  0
   31.2100   27.2860   48.5800 C   0  0  0  0  0  0  0  0  0  0  0  0
   31.9470   28.2100   49.2330 N   0  0  0  0  0  0  0  0  0  0  0  0
   34.9530   27.2410   48.0030 H   0  0  0  0  0  0  0  0  0  0  0  0
   33.5520   25.6270   46.8790 H   0  0  0  0  0  0  0  0  0  0  0  0
   30.1310   27.2760   48.7270 H   0  0  0  0  0  0  0  0  0  0  0  0
   38.2640   32.4350   46.6600 O   0  0  0  0  0  0  0  0  0  0  0  0
   37.9690   32.4830   44.3630 C   0  0  0  0  0  3  0  0  0  0  0  0
   38.7020   31.9870   45.4360 C   0  0  0  0  0  0  0  0  0  0  0  0
   39.7560   31.1280   45.1600 C   0  0  0  0  0  0  0  0  0  0  0  0
   40.2760   30.7880   46.0490 H   0  0  0  0  0  0  0  0  0  0  0  0
   40.0560   30.7840   43.8540 C   0  0  0  0  0  0  0  0  0  0  0  0
   41.0290   29.9740   43.3960 N   0  0  0  0  0  0  0  0  0  0  0  0
   40.8860   29.9800   42.0580 C   0  0  0  0  0  0  0  0  0  0  0  0
   41.5590   29.3940   41.4200 H   0  0  0  0  0  0  0  0  0  0  0  0
   39.8540   30.7720   41.7060 N   0  0  0  0  0  0  0  0  0  0  0  0
   39.2980   31.3040   42.8240 C   0  0  0  0  0  0  0  0  0  0  0  0
   38.2450   32.1590   43.0500 C   0  0  0  0  0  3  0  0  0  0  0  0
   41.7390   29.4550   43.9540 H   0  0  0  0  0  0  0  0  0  0  0  0
  1  6  1  6  0  0  0
  1  5  1  0  0  0  0
  1  2  1  0  0  0  0
  2  7  1  6  0  0  0
  2  3  1  0  0  0  0
  3  8  1  0  0  0  0
  3  9  1  0  0  0  0
  4  3  1  0  0  0  0
  5 10  1  0  0  0  0
  5  4  1  0  0  0  0
 11  5  1  0  0  0  0
 12  2  1  0  0  0  0
 14 13  2  6  0  0  0
 14 12  1  0  0  0  0
 14 17  1  0  0  0  0
 14 15  1  0  0  0  0
 16 15  1  0  0  0  0
 17 18  1  0  0  0  0
 18 20  1  0  0  0  0
 18 19  1  0  0  0  0
 21 26  1  0  0  0  0
 21 18  1  0  0  0  0
 22 21  2  0  0  0  0
 23 24  2  0  0  0  0
 23 22  1  0  0  0  0
 24 25  1  0  0  0  0
 25 29  1  0  0  0  0
 25 26  2  0  0  0  0
 27 22  1  0  0  0  0
 28 23  1  0  0  0  0
 30  1  1  0  0  0  0
 31 32  1  0  0  0  0
 32 30  1  0  0  0  0
 33 32  2  0  0  0  0
 33 34  1  0  0  0  0
 35 33  1  0  0  0  0
 36 35  1  0  0  0  0
 36 42  1  0  0  0  0
 37 36  1  0  0  0  0
 38 37  1  0  0  0  0
 39 37  2  0  0  0  0
 39 40  1  0  0  0  0
 40 41  1  0  0  0  0
 40 35  2  0  0  0  0
 41 31  2  0  0  0  0
M  END
>  <minimizedAffinity>
-5.34921741

>  <minimizedRMSD>
0.75960809

$$$$
