
 OpenBabel03272500383D

 39 42  0  0  1  0  0  0  0  0999 V2000
   36.7650   31.2000   48.9730 C   0  0  0  0  0  0  0  0  0  0  0  0
   37.1080   32.2700   49.8010 C   0  0  0  0  0  0  0  0  0  0  0  0
   38.0770   33.1740   49.3400 C   0  0  0  0  0  0  0  0  0  0  0  0
   38.6100   32.9350   48.1060 N   0  0  0  0  0  0  0  0  0  0  0  0
   38.2490   31.8850   47.3310 C   0  0  0  0  0  0  0  0  0  0  0  0
   37.3260   31.0290   47.7800 N   0  0  0  0  0  0  0  0  0  0  0  0
   38.8840   31.7460   46.0580 N   0  0  0  0  0  0  0  0  0  0  0  0
   40.1080   30.9820   45.9770 C   0  0  0  0  0  0  0  0  0  0  0  0
   41.0330   31.8150   45.0960 C   0  0  0  0  0  0  0  0  0  0  0  0
   40.4190   31.7460   43.7140 C   0  0  0  0  0  0  0  0  0  0  0  0
   39.1620   32.5560   43.7410 C   0  0  0  0  0  0  0  0  0  0  0  0
   38.2890   32.3600   44.9330 C   0  0  1  0  0  0  0  0  0  0  0  0
   36.6680   32.4210   50.7600 H   0  0  0  0  0  0  0  0  0  0  0  0
   38.3970   34.0270   49.9230 H   0  0  0  0  0  0  0  0  0  0  0  0
   39.9430   30.0300   45.4450 H   0  0  0  0  0  0  0  0  0  0  0  0
   40.5640   30.7980   46.9720 H   0  0  0  0  0  0  0  0  0  0  0  0
   40.9500   32.8570   45.4430 H   0  0  0  0  0  0  0  0  0  0  0  0
   42.0690   31.4200   45.1180 H   0  0  0  0  0  0  0  0  0  0  0  0
   41.0900   32.1850   42.9470 H   0  0  0  0  0  0  0  0  0  0  0  0
   40.2260   30.6720   43.5090 H   0  0  0  0  0  0  0  0  0  0  0  0
   38.6000   32.3030   42.8050 H   0  0  0  0  0  0  0  0  0  0  0  0
   39.4670   33.6130   43.5870 H   0  0  0  0  0  0  0  0  0  0  0  0
   37.9860   33.3960   45.2730 H   0  0  0  0  0  0  0  0  0  0  0  0
   36.2380   32.1760   43.4830 C   0  0  0  0  0  3  0  0  0  0  0  0
   37.0140   31.7080   44.5260 C   0  0  0  0  0  0  0  0  0  0  0  0
   36.5210   30.5770   45.1720 C   0  0  0  0  0  0  0  0  0  0  0  0
   37.0820   30.1560   46.0020 H   0  0  0  0  0  0  0  0  0  0  0  0
   35.3420   29.9670   44.8000 C   0  0  0  0  0  0  0  0  0  0  0  0
   34.7020   28.8730   45.2980 N   0  0  0  0  0  0  0  0  0  0  0  0
   33.5830   28.7340   44.5420 C   0  0  0  0  0  0  0  0  0  0  0  0
   32.8710   27.9270   44.7180 H   0  0  0  0  0  0  0  0  0  0  0  0
   33.5140   29.6940   43.6060 N   0  0  0  0  0  0  0  0  0  0  0  0
   34.5960   30.4670   43.7530 C   0  0  0  0  0  0  0  0  0  0  0  0
   35.0550   31.5860   43.0900 C   0  0  0  0  0  3  0  0  0  0  0  0
   35.0030   28.2680   46.0910 H   0  0  0  0  0  0  0  0  0  0  0  0
   35.7290   30.2280   49.4580 C   0  0  0  0  0  0  0  0  0  0  0  0
   34.4780   30.8460   49.4830 F   0  0  0  0  0  0  0  0  0  0  0  0
   35.7740   29.1150   48.6790 F   0  0  0  0  0  0  0  0  0  0  0  0
   36.0320   29.9320   50.7800 F   0  0  0  0  0  0  0  0  0  0  0  0
  1 36  1  0  0  0  0
  1  2  1  0  0  0  0
  2 13  1  0  0  0  0
  3  2  2  0  0  0  0
  3 14  1  0  0  0  0
  4  3  1  0  0  0  0
  5  6  1  0  0  0  0
  5  4  2  0  0  0  0
  6  1  2  0  0  0  0
  7  5  1  0  0  0  0
  8  7  1  0  0  0  0
  8 16  1  0  0  0  0
  9 18  1  0  0  0  0
  9 17  1  0  0  0  0
  9  8  1  0  0  0  0
 10 11  1  0  0  0  0
 10  9  1  0  0  0  0
 11 12  1  0  0  0  0
 12 23  1  1  0  0  0
 12  7  1  0  0  0  0
 15  8  1  0  0  0  0
 19 10  1  0  0  0  0
 20 10  1  0  0  0  0
 21 11  1  0  0  0  0
 22 11  1  0  0  0  0
 24 25  1  0  0  0  0
 25 12  1  0  0  0  0
 25 26  2  0  0  0  0
 26 27  1  0  0  0  0
 28 26  1  0  0  0  0
 28 29  1  0  0  0  0
 29 35  1  0  0  0  0
 30 31  1  0  0  0  0
 30 29  1  0  0  0  0
 32 33  1  0  0  0  0
 32 30  2  0  0  0  0
 33 28  2  0  0  0  0
 34 24  2  0  0  0  0
 34 33  1  0  0  0  0
 36 37  1  0  0  0  0
 36 39  1  0  0  0  0
 38 36  1  0  0  0  0
M  END
>  <minimizedAffinity>
-6.69192123

>  <minimizedRMSD>
0.548916936

$$$$
