
 OpenBabel03272502393D

 43 47  0  0  1  0  0  0  0  0999 V2000
   35.6780   30.0020   46.9950 F   0  0  0  0  0  0  0  0  0  0  0  0
   35.8490   29.8130   48.3180 C   0  0  0  0  0  0  0  0  0  0  0  0
   35.0100   29.1500   49.1760 C   0  0  0  0  0  0  0  0  0  0  0  0
   35.3820   29.0420   50.5280 C   0  0  0  0  0  0  0  0  0  0  0  0
   36.5580   29.5840   51.0010 C   0  0  0  0  0  0  0  0  0  0  0  0
   37.3890   30.2500   50.1130 C   0  0  0  0  0  0  0  0  0  0  0  0
   37.0330   30.3650   48.7570 C   0  0  0  0  0  0  0  0  0  0  0  0
   34.6500   28.5010   51.1080 H   0  0  0  0  0  0  0  0  0  0  0  0
   36.7650   29.4570   52.0540 H   0  0  0  0  0  0  0  0  0  0  0  0
   38.3030   30.6620   50.5200 H   0  0  0  0  0  0  0  0  0  0  0  0
   31.7970   27.5620   48.6920 N   0  0  0  0  0  0  0  0  0  0  0  0
   32.6040   26.6570   47.8890 C   0  0  0  0  0  0  0  0  0  0  0  0
   33.9570   27.3080   47.8980 C   0  0  0  0  0  0  0  0  0  0  0  0
   33.7300   28.7120   48.6070 C   0  0  1  0  0  0  0  0  0  0  0  0
   32.6940   28.3360   49.5750 C   0  0  0  0  0  0  0  0  0  0  0  0
   32.6720   25.6890   48.4500 H   0  0  0  0  0  0  0  0  0  0  0  0
   32.1770   26.4840   46.8900 H   0  0  0  0  0  0  0  0  0  0  0  0
   34.3900   27.5280   46.9260 H   0  0  0  0  0  0  0  0  0  0  0  0
   34.7040   26.7590   48.4930 H   0  0  0  0  0  0  0  0  0  0  0  0
   33.4350   29.2980   47.7390 H   0  0  0  0  0  0  0  0  0  0  0  0
   32.1410   29.1670   50.0310 H   0  0  0  0  0  0  0  0  0  0  0  0
   33.0690   27.6010   50.3120 H   0  0  0  0  0  0  0  0  0  0  0  0
   30.3950   27.7140   48.6620 C   0  0  0  0  0  0  0  0  0  0  0  0
   29.8860   28.4420   47.5750 C   0  0  0  0  0  0  0  0  0  0  0  0
   28.4990   28.6430   47.4860 C   0  0  0  0  0  0  0  0  0  0  0  0
   27.7320   28.0960   48.4970 N   0  0  0  0  0  0  0  0  0  0  0  0
   28.2590   27.4040   49.5200 C   0  0  0  0  0  0  0  0  0  0  0  0
   29.5970   27.2160   49.5990 N   0  0  0  0  0  0  0  0  0  0  0  0
   30.5270   28.8440   46.8200 H   0  0  0  0  0  0  0  0  0  0  0  0
   28.0960   29.1920   46.6710 H   0  0  0  0  0  0  0  0  0  0  0  0
   27.6250   26.9940   50.2880 H   0  0  0  0  0  0  0  0  0  0  0  0
   38.3930   32.3960   48.1610 C   0  0  0  0  0  0  0  0  0  0  0  0
   37.9860   31.0840   47.9170 C   0  0  0  0  0  0  0  0  0  0  0  0
   38.4980   30.4120   46.8300 C   0  0  0  0  0  0  0  0  0  0  0  0
   38.2160   29.3850   46.5900 H   0  0  0  0  0  0  0  0  0  0  0  0
   39.4040   31.0370   45.9950 C   0  0  0  0  0  0  0  0  0  0  0  0
   40.0540   30.6210   44.8770 N   0  0  0  0  0  0  0  0  0  0  0  0
   40.8470   31.6300   44.4240 C   0  0  0  0  0  0  0  0  0  0  0  0
   41.4930   31.6040   43.5460 H   0  0  0  0  0  0  0  0  0  0  0  0
   40.7140   32.7070   45.2490 N   0  0  0  0  0  0  0  0  0  0  0  0
   39.8310   32.3370   46.2060 C   0  0  0  0  0  0  0  0  0  0  0  0
   39.3000   32.9950   47.3080 C   0  0  0  0  0  0  0  0  0  0  0  0
   39.9780   29.6720   44.4090 H   0  0  0  0  0  0  0  0  0  0  0  0
  1  2  1  0  0  0  0
  2  7  2  0  0  0  0
  2  3  1  0  0  0  0
  3  4  2  0  0  0  0
  4  5  1  0  0  0  0
  4  8  1  0  0  0  0
  5  9  1  0  0  0  0
  6 10  1  0  0  0  0
  6  5  2  0  0  0  0
  7  6  1  0  0  0  0
 11 15  1  0  0  0  0
 12 13  1  0  0  0  0
 12 16  1  0  0  0  0
 12 11  1  0  0  0  0
 13 19  1  0  0  0  0
 13 14  1  0  0  0  0
 14 20  1  6  0  0  0
 14  3  1  0  0  0  0
 14 15  1  0  0  0  0
 15 21  1  0  0  0  0
 15 22  1  0  0  0  0
 17 12  1  0  0  0  0
 18 13  1  0  0  0  0
 23 11  1  0  0  0  0
 23 28  1  0  0  0  0
 24 23  2  0  0  0  0
 25 24  1  0  0  0  0
 25 26  2  0  0  0  0
 26 27  1  0  0  0  0
 27 28  2  0  0  0  0
 27 31  1  0  0  0  0
 29 24  1  0  0  0  0
 30 25  1  0  0  0  0
 33 32  1  0  0  0  0
 33  7  1  0  0  0  0
 34 33  2  0  0  0  0
 35 34  1  0  0  0  0
 36 41  2  0  0  0  0
 36 34  1  0  0  0  0
 37 36  1  0  0  0  0
 38 37  1  0  0  0  0
 38 40  2  0  0  0  0
 39 38  1  0  0  0  0
 40 41  1  0  0  0  0
 41 42  1  0  0  0  0
 42 32  2  0  0  0  0
 43 37  1  0  0  0  0
M  END
>  <minimizedAffinity>
-7.93194675

>  <minimizedRMSD>
3.96563649

$$$$
