
 OpenBabel03262521463D

 33 35  0  0  0  0  0  0  0  0999 V2000
   34.6710   30.6630   49.2850 O   0  0  0  0  0  0  0  0  0  0  0  0
   34.4740   29.4580   50.1890 P   0  0  2  0  0  0  0  0  0  0  0  0
   32.9600   29.6460   50.8990 O   0  0  0  0  0  0  0  0  0  0  0  0
   33.0780   29.4340   51.8570 H   0  0  0  0  0  0  0  0  0  0  0  0
   35.7010   29.4830   51.3670 O   0  0  0  0  0  0  0  0  0  0  0  0
   36.9590   29.2660   50.7920 C   0  0  0  0  0  0  0  0  0  0  0  0
   36.7910   29.0100   49.7400 H   0  0  0  0  0  0  0  0  0  0  0  0
   37.4360   28.3830   51.2650 H   0  0  0  0  0  0  0  0  0  0  0  0
   37.7400   30.5330   50.9080 C   0  0  0  0  0  0  0  0  0  0  0  0
   37.2780   31.2970   51.5790 H   0  0  0  0  0  0  0  0  0  0  0  0
   38.7170   30.2550   51.4010 H   0  0  0  0  0  0  0  0  0  0  0  0
   38.0920   31.1680   49.6380 C   0  0  0  0  0  0  0  0  0  0  0  0
   38.5530   32.4670   49.5540 C   0  0  0  0  0  0  0  0  0  0  0  0
   38.8600   32.9730   48.2740 C   0  0  0  0  0  0  0  0  0  0  0  0
   38.6870   32.1560   47.1880 N   0  0  0  0  0  0  0  0  0  0  0  0
   38.2270   30.8760   47.3280 C   0  0  0  0  0  0  0  0  0  0  0  0
   37.9320   30.3930   48.5610 N   0  0  0  0  0  0  0  0  0  0  0  0
   38.6590   33.0410   50.4660 H   0  0  0  0  0  0  0  0  0  0  0  0
   39.2190   33.9790   48.1940 H   0  0  0  0  0  0  0  0  0  0  0  0
   38.1150   30.2890   46.4270 H   0  0  0  0  0  0  0  0  0  0  0  0
   34.5040   28.0300   49.3250 O   0  0  0  0  0  0  0  0  0  0  0  0
   33.7040   26.7170   47.3650 C   0  0  0  0  0  3  0  0  0  0  0  0
   34.2140   27.8210   48.0010 C   0  0  0  0  0  0  0  0  0  0  0  0
   34.5100   28.9550   47.2370 C   0  0  0  0  0  0  0  0  0  0  0  0
   34.9200   29.9010   47.6140 H   0  0  0  0  0  0  0  0  0  0  0  0
   34.2930   28.9690   45.8560 C   0  0  0  0  0  0  0  0  0  0  0  0
   34.4660   29.8650   44.8680 N   0  0  0  0  0  0  0  0  0  0  0  0
   34.0690   29.3010   43.6970 C   0  0  0  0  0  0  0  0  0  0  0  0
   34.1070   29.8220   42.7340 H   0  0  0  0  0  0  0  0  0  0  0  0
   33.6390   28.0330   43.9450 N   0  0  0  0  0  0  0  0  0  0  0  0
   33.7770   27.8310   45.2640 C   0  0  0  0  0  0  0  0  0  0  0  0
   33.4810   26.7040   46.0120 C   0  0  0  0  0  3  0  0  0  0  0  0
   34.8420   30.8110   45.0310 H   0  0  0  0  0  0  0  0  0  0  0  0
  2  1  2  6  0  0  0
  2  3  1  0  0  0  0
  2  5  1  0  0  0  0
  3  4  1  0  0  0  0
  6  9  1  0  0  0  0
  6  8  1  0  0  0  0
  6  5  1  0  0  0  0
  7  6  1  0  0  0  0
  9 11  1  0  0  0  0
  9 10  1  0  0  0  0
 12  9  1  0  0  0  0
 13 12  1  0  0  0  0
 13 18  1  0  0  0  0
 14 13  2  0  0  0  0
 15 16  2  0  0  0  0
 15 14  1  0  0  0  0
 16 17  1  0  0  0  0
 17 12  2  0  0  0  0
 19 14  1  0  0  0  0
 20 16  1  0  0  0  0
 21  2  1  0  0  0  0
 22 23  1  0  0  0  0
 23 21  1  0  0  0  0
 24 25  1  0  0  0  0
 24 23  2  0  0  0  0
 26 24  1  0  0  0  0
 27 33  1  0  0  0  0
 27 26  1  0  0  0  0
 28 30  2  0  0  0  0
 28 27  1  0  0  0  0
 29 28  1  0  0  0  0
 30 31  1  0  0  0  0
 31 26  2  0  0  0  0
 31 32  1  0  0  0  0
 32 22  2  0  0  0  0
M  END
>  <minimizedAffinity>
-5.42450809

>  <minimizedRMSD>
0.497231752

$$$$
