
 OpenBabel03272510123D

 38 42  0  0  0  0  0  0  0  0999 V2000
   36.5680   29.2630   49.9360 O   0  0  0  0  0  0  0  0  0  0  0  0
   32.5960   28.1180   49.1080 C   0  0  0  0  0  0  0  0  0  0  0  0
   32.8770   29.0400   50.0540 C   0  0  0  0  0  0  0  0  0  0  0  0
   34.1480   29.4630   50.3780 C   0  0  0  0  0  0  0  0  0  0  0  0
   35.2230   28.9490   49.7320 C   0  0  0  0  0  0  0  0  0  0  0  0
   34.9410   27.9930   48.7490 C   0  0  0  0  0  0  0  0  0  0  0  0
   33.6800   27.6100   48.4670 N   0  0  0  0  0  0  0  0  0  0  0  0
   32.0790   29.5020   50.6190 H   0  0  0  0  0  0  0  0  0  0  0  0
   34.3570   30.2040   51.1400 H   0  0  0  0  0  0  0  0  0  0  0  0
   35.7360   27.5240   48.1800 H   0  0  0  0  0  0  0  0  0  0  0  0
   30.1650   27.7640   49.6190 C   0  0  0  0  0  0  0  0  0  0  0  0
   31.2750   27.6720   48.7620 C   0  0  0  0  0  0  0  0  0  0  0  0
   31.0220   27.1120   47.5380 C   0  0  0  0  0  0  0  0  0  0  0  0
   29.7810   26.6830   47.1870 N   0  0  0  0  0  0  0  0  0  0  0  0
   28.7530   26.8070   48.0740 C   0  0  0  0  0  0  0  0  0  0  0  0
   28.9340   27.3500   49.3010 N   0  0  0  0  0  0  0  0  0  0  0  0
   30.3110   28.1980   50.5980 H   0  0  0  0  0  0  0  0  0  0  0  0
   31.8480   27.0230   46.8510 H   0  0  0  0  0  0  0  0  0  0  0  0
   27.7430   26.4850   47.8560 H   0  0  0  0  0  0  0  0  0  0  0  0
   37.2330   30.1640   49.1200 C   0  0  0  0  0  0  0  0  0  0  0  0
   37.9490   31.1400   49.8220 C   0  0  0  0  0  0  0  0  0  0  0  0
   38.5710   31.9820   48.9010 C   0  0  0  0  0  0  0  0  0  0  0  0
   38.2140   31.4920   47.7050 N   0  0  0  0  0  0  0  0  0  0  0  0
   37.4420   30.4410   47.8180 N   0  0  0  0  0  0  0  0  0  0  0  0
   38.1150   31.3700   50.8870 H   0  0  0  0  0  0  0  0  0  0  0  0
   39.2070   32.8460   49.0370 H   0  0  0  0  0  0  0  0  0  0  0  0
   39.8300   32.6850   46.3090 C   0  0  0  0  0  3  0  0  0  0  0  0
   38.6170   32.0330   46.4450 C   0  0  0  0  0  0  0  0  0  0  0  0
   37.7540   31.8870   45.3540 C   0  0  0  0  0  0  0  0  0  0  0  0
   36.7970   31.3860   45.4140 H   0  0  0  0  0  0  0  0  0  0  0  0
   38.1950   32.4360   44.1430 C   0  0  0  0  0  0  0  0  0  0  0  0
   37.5740   32.4390   42.9490 N   0  0  0  0  0  0  0  0  0  0  0  0
   38.4050   33.0850   42.1150 C   0  0  0  0  0  0  0  0  0  0  0  0
   38.3060   33.3200   41.0490 H   0  0  0  0  0  0  0  0  0  0  0  0
   39.5190   33.4860   42.7260 N   0  0  0  0  0  0  0  0  0  0  0  0
   39.4060   33.0830   44.0190 C   0  0  0  0  0  0  0  0  0  0  0  0
   40.2380   33.2150   45.1010 C   0  0  0  0  0  3  0  0  0  0  0  0
   36.6510   32.0510   42.6540 H   0  0  0  0  0  0  0  0  0  0  0  0
  2  3  1  0  0  0  0
  3  4  2  0  0  0  0
  3  8  1  0  0  0  0
  4  9  1  0  0  0  0
  5  1  1  0  0  0  0
  5  4  1  0  0  0  0
  6  5  2  0  0  0  0
  7  6  1  0  0  0  0
  7  2  2  0  0  0  0
 10  6  1  0  0  0  0
 11 17  1  0  0  0  0
 12  2  1  0  0  0  0
 12 11  2  0  0  0  0
 13 12  1  0  0  0  0
 14 13  2  0  0  0  0
 14 15  1  0  0  0  0
 15 16  2  0  0  0  0
 16 11  1  0  0  0  0
 18 13  1  0  0  0  0
 19 15  1  0  0  0  0
 20 21  1  0  0  0  0
 20  1  1  0  0  0  0
 21 25  1  0  0  0  0
 22 26  1  0  0  0  0
 22 21  2  0  0  0  0
 23 24  1  0  0  0  0
 23 22  1  0  0  0  0
 24 20  2  0  0  0  0
 27 28  1  0  0  0  0
 28 23  1  0  0  0  0
 29 30  1  0  0  0  0
 29 28  2  0  0  0  0
 31 29  1  0  0  0  0
 32 31  1  0  0  0  0
 33 35  2  0  0  0  0
 33 32  1  0  0  0  0
 34 33  1  0  0  0  0
 35 36  1  0  0  0  0
 36 31  2  0  0  0  0
 36 37  1  0  0  0  0
 37 27  2  0  0  0  0
 38 32  1  0  0  0  0
M  END
>  <minimizedAffinity>
-6.36225271

>  <minimizedRMSD>
2.55447006

$$$$
