
 OpenBabel03272509573D

 49 53  0  0  0  0  0  0  0  0999 V2000
   33.2560   27.9880   47.4650 C   0  0  0  0  0  0  0  0  0  0  0  0
   33.3940   28.0890   46.3520 H   0  0  0  0  0  0  0  0  0  0  0  0
   33.6300   26.9980   47.7230 H   0  0  0  0  0  0  0  0  0  0  0  0
   31.7970   28.0520   47.7480 C   0  0  0  0  0  0  0  0  0  0  0  0
   31.3340   27.4600   48.9110 C   0  0  0  0  0  0  0  0  0  0  0  0
   30.0000   27.4740   49.2450 C   0  0  0  0  0  0  0  0  0  0  0  0
   29.1270   28.0710   48.4340 N   0  0  0  0  0  0  0  0  0  0  0  0
   29.5920   28.6520   47.2900 C   0  0  0  0  0  0  0  0  0  0  0  0
   30.8920   28.6470   46.9490 N   0  0  0  0  0  0  0  0  0  0  0  0
   32.0380   26.9740   49.5730 H   0  0  0  0  0  0  0  0  0  0  0  0
   29.6030   27.0230   50.1460 H   0  0  0  0  0  0  0  0  0  0  0  0
   28.5970   29.3130   46.3990 C   0  0  0  0  0  0  0  0  0  0  0  0
   29.1550   30.0650   45.8010 H   0  0  0  0  0  0  0  0  0  0  0  0
   27.8210   29.8520   46.9770 H   0  0  0  0  0  0  0  0  0  0  0  0
   28.6630   27.1940   44.9840 C   0  0  0  0  0  3  0  0  0  0  0  0
   28.0010   28.3210   45.4630 C   0  0  0  0  0  0  0  0  0  0  0  0
   26.6910   28.5330   45.0350 C   0  0  0  0  0  0  0  0  0  0  0  0
   26.1620   29.4200   45.4100 H   0  0  0  0  0  0  0  0  0  0  0  0
   26.0450   27.6800   44.1730 C   0  0  0  0  0  0  0  0  0  0  0  0
   24.8320   27.6460   43.6220 N   0  0  0  0  0  0  0  0  0  0  0  0
   24.6770   26.5800   42.8270 C   0  0  0  0  0  0  0  0  0  0  0  0
   23.7600   26.3590   42.2780 H   0  0  0  0  0  0  0  0  0  0  0  0
   25.8520   25.8900   42.8700 N   0  0  0  0  0  0  0  0  0  0  0  0
   26.7010   26.5470   43.6870 C   0  0  0  0  0  0  0  0  0  0  0  0
   27.9970   26.3620   44.1270 C   0  0  0  0  0  3  0  0  0  0  0  0
   24.1290   28.4020   43.8300 H   0  0  0  0  0  0  0  0  0  0  0  0
   34.0330   29.0370   48.2090 C   0  0  0  0  0  0  0  0  0  0  0  0
   33.4390   29.9040   48.5280 H   0  0  0  0  0  0  0  0  0  0  0  0
   34.8000   29.4300   47.5100 H   0  0  0  0  0  0  0  0  0  0  0  0
   34.7500   28.4630   49.2920 O   0  0  0  0  0  0  0  0  0  0  0  0
   37.1120   30.0010   51.5490 C   0  0  0  0  0  0  0  0  0  0  0  0
   37.8950   30.7190   50.6210 C   0  0  0  0  0  0  0  0  0  0  0  0
   37.5690   30.6340   49.2810 C   0  0  0  0  0  0  0  0  0  0  0  0
   36.4940   29.8440   48.9730 N   0  0  0  0  0  0  0  0  0  0  0  0
   35.7590   29.1690   49.8580 C   0  0  0  0  0  0  0  0  0  0  0  0
   36.0800   29.2550   51.1590 N   0  0  0  0  0  0  0  0  0  0  0  0
   37.3950   30.0910   52.5870 H   0  0  0  0  0  0  0  0  0  0  0  0
   38.7340   31.3350   50.8590 H   0  0  0  0  0  0  0  0  0  0  0  0
   38.7880   33.2540   49.2840 F   0  0  0  0  0  0  0  0  0  0  0  0
   38.8320   32.5110   48.1780 C   0  0  0  0  0  0  0  0  0  0  0  0
   38.2600   31.2990   48.1990 C   0  0  0  0  0  0  0  0  0  0  0  0
   38.3630   30.6070   46.9930 C   0  0  0  0  0  0  0  0  0  0  0  0
   38.9890   31.1160   45.8920 C   0  0  0  0  0  0  0  0  0  0  0  0
   39.5590   32.3700   45.9270 C   0  0  0  0  0  0  0  0  0  0  0  0
   39.4710   33.0650   47.0960 C   0  0  0  0  0  0  0  0  0  0  0  0
   37.9490   29.6000   46.8400 H   0  0  0  0  0  0  0  0  0  0  0  0
   39.0710   30.5790   44.9490 H   0  0  0  0  0  0  0  0  0  0  0  0
   40.0600   32.7780   45.0470 H   0  0  0  0  0  0  0  0  0  0  0  0
   39.9150   34.0520   47.1390 H   0  0  0  0  0  0  0  0  0  0  0  0
  1  3  1  0  0  0  0
  1  4  1  0  0  0  0
  1 27  1  0  0  0  0
  2  1  1  0  0  0  0
  4  5  1  0  0  0  0
  5  6  2  0  0  0  0
  5 10  1  0  0  0  0
  6 11  1  0  0  0  0
  7  6  1  0  0  0  0
  8  7  2  0  0  0  0
  9  8  1  0  0  0  0
  9  4  2  0  0  0  0
 12 14  1  0  0  0  0
 12  8  1  0  0  0  0
 13 12  1  0  0  0  0
 15 16  1  0  0  0  0
 16 12  1  0  0  0  0
 17 18  1  0  0  0  0
 17 16  2  0  0  0  0
 19 17  1  0  0  0  0
 20 26  1  0  0  0  0
 20 19  1  0  0  0  0
 21 23  2  0  0  0  0
 21 20  1  0  0  0  0
 22 21  1  0  0  0  0
 23 24  1  0  0  0  0
 24 25  1  0  0  0  0
 24 19  2  0  0  0  0
 25 15  2  0  0  0  0
 27 28  1  0  0  0  0
 27 30  1  0  0  0  0
 29 27  1  0  0  0  0
 30 35  1  0  0  0  0
 31 37  1  0  0  0  0
 32 38  1  0  0  0  0
 32 31  2  0  0  0  0
 33 32  1  0  0  0  0
 34 33  2  0  0  0  0
 34 35  1  0  0  0  0
 35 36  2  0  0  0  0
 36 31  1  0  0  0  0
 40 41  1  0  0  0  0
 40 39  1  0  0  0  0
 41 33  1  0  0  0  0
 42 41  2  0  0  0  0
 43 44  2  0  0  0  0
 43 42  1  0  0  0  0
 44 45  1  0  0  0  0
 45 49  1  0  0  0  0
 45 40  2  0  0  0  0
 46 42  1  0  0  0  0
 47 43  1  0  0  0  0
 48 44  1  0  0  0  0
M  END
>  <minimizedAffinity>
-7.06295776

>  <minimizedRMSD>
0.87801826

$$$$
