
 OpenBabel03272504223D

 42 45  0  0  1  0  0  0  0  0999 V2000
   38.9370   32.3670   47.8880 C   0  0  2  0  0  0  0  0  0  0  0  0
   38.1780   31.3760   48.7550 C   0  0  1  0  0  0  0  0  0  0  0  0
   38.5600   31.9550   50.1290 C   0  0  0  0  0  0  0  0  0  0  0  0
   38.2480   33.2930   49.9400 O   0  0  0  0  0  0  0  0  0  0  0  0
   38.6680   33.6400   48.6780 C   0  0  0  0  0  0  0  0  0  0  0  0
   40.0070   32.0830   47.9300 H   0  0  0  0  0  0  0  0  0  0  0  0
   38.5090   30.3440   48.6470 H   0  0  0  0  0  0  0  0  0  0  0  0
   39.6560   31.8540   50.2190 H   0  0  0  0  0  0  0  0  0  0  0  0
   37.9900   31.5020   50.9390 H   0  0  0  0  0  0  0  0  0  0  0  0
   39.5600   34.2820   48.7510 H   0  0  0  0  0  0  0  0  0  0  0  0
   37.8600   34.1970   48.1270 H   0  0  0  0  0  0  0  0  0  0  0  0
   36.8380   31.5820   48.5190 O   0  0  0  0  0  0  0  0  0  0  0  0
   35.9730   29.7530   46.8820 O   0  0  0  0  0  0  0  0  0  0  0  0
   35.9890   30.1370   48.3300 P   0  0  1  0  0  0  0  0  0  0  0  0
   36.7630   28.8810   49.2060 O   0  0  0  0  0  0  0  0  0  0  0  0
   37.5480   28.5550   48.7080 H   0  0  0  0  0  0  0  0  0  0  0  0
   34.4010   30.3230   48.9180 O   0  0  0  0  0  0  0  0  0  0  0  0
   34.1300   29.2240   49.7070 C   0  0  0  0  0  0  0  0  0  0  0  0
   33.5690   29.6200   50.5970 H   0  0  0  0  0  0  0  0  0  0  0  0
   35.0570   28.7840   50.1120 H   0  0  0  0  0  0  0  0  0  0  0  0
   33.2670   28.2240   49.0420 C   0  0  0  0  0  0  0  0  0  0  0  0
   33.8910   27.3160   48.2200 C   0  0  0  0  0  0  0  0  0  0  0  0
   33.1320   26.3470   47.5620 C   0  0  0  0  0  0  0  0  0  0  0  0
   31.7860   26.3620   47.7800 N   0  0  0  0  0  0  0  0  0  0  0  0
   31.1950   27.2650   48.5920 C   0  0  0  0  0  0  0  0  0  0  0  0
   31.9340   28.2010   49.2260 N   0  0  0  0  0  0  0  0  0  0  0  0
   34.9330   27.2260   47.9870 H   0  0  0  0  0  0  0  0  0  0  0  0
   33.5310   25.5910   46.8970 H   0  0  0  0  0  0  0  0  0  0  0  0
   30.1180   27.2530   48.7470 H   0  0  0  0  0  0  0  0  0  0  0  0
   38.3730   32.3550   46.6400 O   0  0  0  0  0  0  0  0  0  0  0  0
   38.9720   32.9890   44.4940 C   0  0  0  0  0  3  0  0  0  0  0  0
   38.9160   31.9680   45.4380 C   0  0  0  0  0  0  0  0  0  0  0  0
   39.3970   30.7190   45.0710 C   0  0  0  0  0  0  0  0  0  0  0  0
   39.3170   29.9810   45.8620 H   0  0  0  0  0  0  0  0  0  0  0  0
   39.9130   30.5120   43.8060 C   0  0  0  0  0  0  0  0  0  0  0  0
   40.4200   29.3820   43.2740 N   0  0  0  0  0  0  0  0  0  0  0  0
   40.7800   29.7170   42.0220 C   0  0  0  0  0  0  0  0  0  0  0  0
   41.2310   28.9750   41.3510 H   0  0  0  0  0  0  0  0  0  0  0  0
   40.5020   31.0150   41.7920 N   0  0  0  0  0  0  0  0  0  0  0  0
   39.9470   31.5580   42.9060 C   0  0  0  0  0  0  0  0  0  0  0  0
   39.4830   32.8110   43.2240 C   0  0  0  0  0  3  0  0  0  0  0  0
   40.5140   28.4510   43.7320 H   0  0  0  0  0  0  0  0  0  0  0  0
  1  6  1  6  0  0  0
  1  5  1  0  0  0  0
  1  2  1  0  0  0  0
  2  7  1  6  0  0  0
  2  3  1  0  0  0  0
  3  8  1  0  0  0  0
  3  9  1  0  0  0  0
  4  3  1  0  0  0  0
  5 10  1  0  0  0  0
  5  4  1  0  0  0  0
 11  5  1  0  0  0  0
 12  2  1  0  0  0  0
 14 13  2  6  0  0  0
 14 12  1  0  0  0  0
 14 17  1  0  0  0  0
 14 15  1  0  0  0  0
 16 15  1  0  0  0  0
 17 18  1  0  0  0  0
 18 20  1  0  0  0  0
 18 19  1  0  0  0  0
 21 26  1  0  0  0  0
 21 18  1  0  0  0  0
 22 21  2  0  0  0  0
 23 24  2  0  0  0  0
 23 22  1  0  0  0  0
 24 25  1  0  0  0  0
 25 29  1  0  0  0  0
 25 26  2  0  0  0  0
 27 22  1  0  0  0  0
 28 23  1  0  0  0  0
 30  1  1  0  0  0  0
 31 32  1  0  0  0  0
 32 30  1  0  0  0  0
 33 32  2  0  0  0  0
 33 34  1  0  0  0  0
 35 33  1  0  0  0  0
 36 42  1  0  0  0  0
 36 35  1  0  0  0  0
 37 36  1  0  0  0  0
 38 37  1  0  0  0  0
 39 37  2  0  0  0  0
 39 40  1  0  0  0  0
 40 41  1  0  0  0  0
 40 35  2  0  0  0  0
 41 31  2  0  0  0  0
M  END
>  <minimizedAffinity>
-5.36221886

>  <minimizedRMSD>
0.537314951

$$$$
