
 OpenBabel03262521473D

 33 35  0  0  0  0  0  0  0  0999 V2000
   34.7050   30.5790   49.1530 O   0  0  0  0  0  0  0  0  0  0  0  0
   34.4620   29.4230   50.1070 P   0  0  2  0  0  0  0  0  0  0  0  0
   32.9990   29.7470   50.8740 O   0  0  0  0  0  0  0  0  0  0  0  0
   33.1440   29.5600   51.8340 H   0  0  0  0  0  0  0  0  0  0  0  0
   35.7390   29.3960   51.2300 O   0  0  0  0  0  0  0  0  0  0  0  0
   36.9740   29.2530   50.5880 C   0  0  0  0  0  0  0  0  0  0  0  0
   36.7660   29.1040   49.5220 H   0  0  0  0  0  0  0  0  0  0  0  0
   37.4760   28.3310   50.9480 H   0  0  0  0  0  0  0  0  0  0  0  0
   37.7510   30.5090   50.8030 C   0  0  0  0  0  0  0  0  0  0  0  0
   37.2720   31.2290   51.5100 H   0  0  0  0  0  0  0  0  0  0  0  0
   38.7160   30.2010   51.3010 H   0  0  0  0  0  0  0  0  0  0  0  0
   38.1330   31.2240   49.5850 C   0  0  0  0  0  0  0  0  0  0  0  0
   38.5530   32.5400   49.5910 C   0  0  0  0  0  0  0  0  0  0  0  0
   38.8950   33.1250   48.3540 C   0  0  0  0  0  0  0  0  0  0  0  0
   38.7930   32.3640   47.2190 N   0  0  0  0  0  0  0  0  0  0  0  0
   38.3710   31.0650   47.2710 C   0  0  0  0  0  0  0  0  0  0  0  0
   38.0420   30.5060   48.4620 N   0  0  0  0  0  0  0  0  0  0  0  0
   38.6030   33.0650   50.5360 H   0  0  0  0  0  0  0  0  0  0  0  0
   39.2230   34.1450   48.3440 H   0  0  0  0  0  0  0  0  0  0  0  0
   38.3150   30.5250   46.3360 H   0  0  0  0  0  0  0  0  0  0  0  0
   34.3470   27.9690   49.2960 O   0  0  0  0  0  0  0  0  0  0  0  0
   31.9690   27.6970   48.6050 C   0  0  0  0  0  3  0  0  0  0  0  0
   33.3240   27.5010   48.5120 C   0  0  0  0  0  0  0  0  0  0  0  0
   33.8140   26.7020   47.4720 C   0  0  0  0  0  0  0  0  0  0  0  0
   34.8680   26.4630   47.2800 H   0  0  0  0  0  0  0  0  0  0  0  0
   32.9460   26.1150   46.5470 C   0  0  0  0  0  0  0  0  0  0  0  0
   33.0890   25.3230   45.4690 N   0  0  0  0  0  0  0  0  0  0  0  0
   31.8580   25.0670   44.9520 C   0  0  0  0  0  0  0  0  0  0  0  0
   31.6940   24.4450   44.0680 H   0  0  0  0  0  0  0  0  0  0  0  0
   30.9240   25.7050   45.7120 N   0  0  0  0  0  0  0  0  0  0  0  0
   31.5900   26.3450   46.6860 C   0  0  0  0  0  0  0  0  0  0  0  0
   31.0960   27.1330   47.7100 C   0  0  0  0  0  3  0  0  0  0  0  0
   34.0060   24.9950   45.1350 H   0  0  0  0  0  0  0  0  0  0  0  0
  2  1  2  6  0  0  0
  2  3  1  0  0  0  0
  2  5  1  0  0  0  0
  3  4  1  0  0  0  0
  6  9  1  0  0  0  0
  6  8  1  0  0  0  0
  6  5  1  0  0  0  0
  7  6  1  0  0  0  0
  9 11  1  0  0  0  0
  9 10  1  0  0  0  0
 12 13  1  0  0  0  0
 12  9  1  0  0  0  0
 13 18  1  0  0  0  0
 14 13  2  0  0  0  0
 15 16  2  0  0  0  0
 15 14  1  0  0  0  0
 16 17  1  0  0  0  0
 17 12  2  0  0  0  0
 19 14  1  0  0  0  0
 20 16  1  0  0  0  0
 21  2  1  0  0  0  0
 23 22  1  0  0  0  0
 23 21  1  0  0  0  0
 24 23  2  0  0  0  0
 25 24  1  0  0  0  0
 26 31  2  0  0  0  0
 26 24  1  0  0  0  0
 27 26  1  0  0  0  0
 28 27  1  0  0  0  0
 28 30  2  0  0  0  0
 29 28  1  0  0  0  0
 30 31  1  0  0  0  0
 31 32  1  0  0  0  0
 32 22  2  0  0  0  0
 33 27  1  0  0  0  0
M  END
>  <minimizedAffinity>
-5.43136215

>  <minimizedRMSD>
1.98238647

$$$$
