
 OpenBabel03272504223D

 42 45  0  0  1  0  0  0  0  0999 V2000
   38.8660   32.3640   47.8570 C   0  0  2  0  0  0  0  0  0  0  0  0
   38.1750   31.3790   48.7850 C   0  0  1  0  0  0  0  0  0  0  0  0
   38.6850   31.9470   50.1210 C   0  0  0  0  0  0  0  0  0  0  0  0
   38.3740   33.2910   49.9650 O   0  0  0  0  0  0  0  0  0  0  0  0
   38.6850   33.6370   48.6720 C   0  0  0  0  0  0  0  0  0  0  0  0
   39.9320   32.0670   47.8030 H   0  0  0  0  0  0  0  0  0  0  0  0
   38.4820   30.3440   48.6450 H   0  0  0  0  0  0  0  0  0  0  0  0
   39.7830   31.8330   50.1140 H   0  0  0  0  0  0  0  0  0  0  0  0
   38.1830   31.4980   50.9780 H   0  0  0  0  0  0  0  0  0  0  0  0
   39.5870   34.2680   48.6670 H   0  0  0  0  0  0  0  0  0  0  0  0
   37.8380   34.2060   48.1970 H   0  0  0  0  0  0  0  0  0  0  0  0
   36.8220   31.6030   48.6700 O   0  0  0  0  0  0  0  0  0  0  0  0
   35.8450   29.8550   47.0070 O   0  0  0  0  0  0  0  0  0  0  0  0
   35.9490   30.1740   48.4670 P   0  0  1  0  0  0  0  0  0  0  0  0
   36.7610   28.8740   49.2400 O   0  0  0  0  0  0  0  0  0  0  0  0
   37.5120   28.5650   48.6820 H   0  0  0  0  0  0  0  0  0  0  0  0
   34.4000   30.3440   49.1540 O   0  0  0  0  0  0  0  0  0  0  0  0
   34.1390   29.1870   49.8590 C   0  0  0  0  0  0  0  0  0  0  0  0
   33.5860   29.5110   50.7820 H   0  0  0  0  0  0  0  0  0  0  0  0
   35.0720   28.7200   50.2200 H   0  0  0  0  0  0  0  0  0  0  0  0
   33.2730   28.2380   49.1270 C   0  0  0  0  0  0  0  0  0  0  0  0
   33.9000   27.3440   48.2920 C   0  0  0  0  0  0  0  0  0  0  0  0
   33.1370   26.4220   47.5720 C   0  0  0  0  0  0  0  0  0  0  0  0
   31.7860   26.4690   47.7450 N   0  0  0  0  0  0  0  0  0  0  0  0
   31.1920   27.3580   48.5700 C   0  0  0  0  0  0  0  0  0  0  0  0
   31.9340   28.2470   49.2640 N   0  0  0  0  0  0  0  0  0  0  0  0
   34.9470   27.2310   48.0930 H   0  0  0  0  0  0  0  0  0  0  0  0
   33.5390   25.6800   46.8930 H   0  0  0  0  0  0  0  0  0  0  0  0
   30.1100   27.3720   48.6870 H   0  0  0  0  0  0  0  0  0  0  0  0
   38.1930   32.3650   46.6640 O   0  0  0  0  0  0  0  0  0  0  0  0
   38.8570   30.5390   45.4040 C   0  0  0  0  0  3  0  0  0  0  0  0
   38.5950   31.9040   45.4330 C   0  0  0  0  0  0  0  0  0  0  0  0
   38.7620   32.6220   44.2560 C   0  0  0  0  0  0  0  0  0  0  0  0
   38.5370   33.6780   44.3640 H   0  0  0  0  0  0  0  0  0  0  0  0
   39.1770   31.9850   43.1010 C   0  0  0  0  0  0  0  0  0  0  0  0
   39.3930   32.5090   41.8790 N   0  0  0  0  0  0  0  0  0  0  0  0
   39.7820   31.4680   41.1190 C   0  0  0  0  0  0  0  0  0  0  0  0
   40.0270   31.6110   40.0590 H   0  0  0  0  0  0  0  0  0  0  0  0
   39.8040   30.3410   41.8540 N   0  0  0  0  0  0  0  0  0  0  0  0
   39.4240   30.6270   43.1260 C   0  0  0  0  0  0  0  0  0  0  0  0
   39.2730   29.8760   44.2670 C   0  0  0  0  0  3  0  0  0  0  0  0
   39.2820   33.5010   41.5850 H   0  0  0  0  0  0  0  0  0  0  0  0
  1  6  1  6  0  0  0
  1  5  1  0  0  0  0
  1  2  1  0  0  0  0
  2  7  1  6  0  0  0
  2  3  1  0  0  0  0
  3  9  1  0  0  0  0
  4  3  1  0  0  0  0
  5  4  1  0  0  0  0
  8  3  1  0  0  0  0
 10  5  1  0  0  0  0
 11  5  1  0  0  0  0
 12  2  1  0  0  0  0
 14 13  2  6  0  0  0
 14 12  1  0  0  0  0
 14 17  1  0  0  0  0
 14 15  1  0  0  0  0
 16 15  1  0  0  0  0
 17 18  1  0  0  0  0
 18 20  1  0  0  0  0
 18 19  1  0  0  0  0
 21 26  1  0  0  0  0
 21 18  1  0  0  0  0
 22 21  2  0  0  0  0
 23 24  2  0  0  0  0
 23 22  1  0  0  0  0
 24 25  1  0  0  0  0
 25 29  1  0  0  0  0
 25 26  2  0  0  0  0
 27 22  1  0  0  0  0
 28 23  1  0  0  0  0
 30  1  1  0  0  0  0
 31 32  1  0  0  0  0
 32 30  1  0  0  0  0
 33 34  1  0  0  0  0
 33 32  2  0  0  0  0
 35 40  2  0  0  0  0
 35 33  1  0  0  0  0
 36 35  1  0  0  0  0
 37 39  2  0  0  0  0
 37 36  1  0  0  0  0
 38 37  1  0  0  0  0
 39 40  1  0  0  0  0
 40 41  1  0  0  0  0
 41 31  2  0  0  0  0
 42 36  1  0  0  0  0
M  END
>  <minimizedAffinity>
-5.14053869

>  <minimizedRMSD>
0.532878518

$$$$
