
 OpenBabel03272508023D

 31 34  0  0  0  0  0  0  0  0999 V2000
   37.9030   31.0710   45.2720 C   0  0  0  0  0  0  0  0  0  0  0  0
   38.4420   32.2620   44.8320 C   0  0  0  0  0  0  0  0  0  0  0  0
   39.1980   32.0300   43.6770 C   0  0  0  0  0  0  0  0  0  0  0  0
   39.0810   30.6820   43.4650 N   0  0  0  0  0  0  0  0  0  0  0  0
   38.3260   30.1340   44.3960 N   0  0  0  0  0  0  0  0  0  0  0  0
   38.2770   33.2060   45.3380 H   0  0  0  0  0  0  0  0  0  0  0  0
   39.7010   32.8310   43.1800 H   0  0  0  0  0  0  0  0  0  0  0  0
   40.5710   30.8410   41.5090 C   0  0  0  0  0  3  0  0  0  0  0  0
   39.7480   30.1280   42.3440 C   0  0  0  0  0  0  0  0  0  0  0  0
   39.4980   28.7760   42.1540 C   0  0  0  0  0  0  0  0  0  0  0  0
   38.8630   28.1600   42.7720 H   0  0  0  0  0  0  0  0  0  0  0  0
   40.0850   28.0860   41.0890 C   0  0  0  0  0  0  0  0  0  0  0  0
   40.0380   26.8070   40.6530 N   0  0  0  0  0  0  0  0  0  0  0  0
   40.8290   26.7290   39.5500 C   0  0  0  0  0  0  0  0  0  0  0  0
   40.9440   25.7720   39.0190 H   0  0  0  0  0  0  0  0  0  0  0  0
   41.3600   27.9420   39.3060 N   0  0  0  0  0  0  0  0  0  0  0  0
   40.9190   28.8080   40.2420 C   0  0  0  0  0  0  0  0  0  0  0  0
   41.1430   30.1540   40.4660 C   0  0  0  0  0  3  0  0  0  0  0  0
   39.4910   26.0400   41.0920 H   0  0  0  0  0  0  0  0  0  0  0  0
   37.0500   30.8580   46.4410 C   0  0  0  0  0  0  0  0  0  0  0  0
   37.5560   31.3100   47.7000 C   0  0  0  0  0  0  0  0  0  0  0  0
   36.7360   31.1050   48.8230 C   0  0  0  0  0  0  0  0  0  0  0  0
   35.5360   30.4980   48.6360 N   0  0  0  0  0  0  0  0  0  0  0  0
   35.0960   30.0860   47.4310 C   0  0  0  0  0  0  0  0  0  0  0  0
   35.8670   30.2740   46.3480 N   0  0  0  0  0  0  0  0  0  0  0  0
   38.5270   31.7850   47.7560 H   0  0  0  0  0  0  0  0  0  0  0  0
   34.1250   29.6100   47.3680 H   0  0  0  0  0  0  0  0  0  0  0  0
   37.2220   31.5600   50.1500 C   0  0  0  0  0  0  0  0  0  0  0  0
   36.6160   32.7820   50.3760 F   0  0  0  0  0  0  0  0  0  0  0  0
   36.8710   30.7080   51.1710 F   0  0  0  0  0  0  0  0  0  0  0  0
   38.6000   31.7670   50.1530 F   0  0  0  0  0  0  0  0  0  0  0  0
  1 20  1  0  0  0  0
  2  1  1  0  0  0  0
  2  6  1  0  0  0  0
  3  2  2  0  0  0  0
  4  3  1  0  0  0  0
  4  5  1  0  0  0  0
  5  1  2  0  0  0  0
  7  3  1  0  0  0  0
  8  9  1  0  0  0  0
  9  4  1  0  0  0  0
 10  9  2  0  0  0  0
 10 11  1  0  0  0  0
 12 10  1  0  0  0  0
 13 12  1  0  0  0  0
 13 19  1  0  0  0  0
 14 13  1  0  0  0  0
 15 14  1  0  0  0  0
 16 14  2  0  0  0  0
 16 17  1  0  0  0  0
 17 18  1  0  0  0  0
 17 12  2  0  0  0  0
 18  8  2  0  0  0  0
 20 21  1  0  0  0  0
 21 26  1  0  0  0  0
 21 22  2  0  0  0  0
 22 28  1  0  0  0  0
 23 22  1  0  0  0  0
 24 23  2  0  0  0  0
 25 20  2  0  0  0  0
 25 24  1  0  0  0  0
 27 24  1  0  0  0  0
 28 31  1  0  0  0  0
 28 29  1  0  0  0  0
 28 30  1  0  0  0  0
M  END
>  <minimizedAffinity>
-5.97794104

>  <minimizedRMSD>
2.25046158

$$$$
