
 OpenBabel03272509573D

 49 53  0  0  0  0  0  0  0  0999 V2000
   33.5550   27.5860   47.6210 C   0  0  0  0  0  0  0  0  0  0  0  0
   33.7490   27.3860   46.5290 H   0  0  0  0  0  0  0  0  0  0  0  0
   33.7900   26.6560   48.1390 H   0  0  0  0  0  0  0  0  0  0  0  0
   32.1060   27.8830   47.7760 C   0  0  0  0  0  0  0  0  0  0  0  0
   31.4660   27.4210   48.9130 C   0  0  0  0  0  0  0  0  0  0  0  0
   30.1280   27.6530   49.1320 C   0  0  0  0  0  0  0  0  0  0  0  0
   29.4250   28.3400   48.2310 N   0  0  0  0  0  0  0  0  0  0  0  0
   30.0650   28.7920   47.1130 C   0  0  0  0  0  0  0  0  0  0  0  0
   31.3710   28.5730   46.8840 N   0  0  0  0  0  0  0  0  0  0  0  0
   32.0300   26.8620   49.6480 H   0  0  0  0  0  0  0  0  0  0  0  0
   29.5950   27.3080   50.0090 H   0  0  0  0  0  0  0  0  0  0  0  0
   29.2590   29.5570   46.1200 C   0  0  0  0  0  0  0  0  0  0  0  0
   29.9790   30.1390   45.5070 H   0  0  0  0  0  0  0  0  0  0  0  0
   28.5760   30.2770   46.6120 H   0  0  0  0  0  0  0  0  0  0  0  0
   29.1360   27.6890   44.3900 C   0  0  0  0  0  3  0  0  0  0  0  0
   28.5260   28.6250   45.2200 C   0  0  0  0  0  0  0  0  0  0  0  0
   27.1330   28.6920   45.2060 C   0  0  0  0  0  0  0  0  0  0  0  0
   26.6450   29.4290   45.8580 H   0  0  0  0  0  0  0  0  0  0  0  0
   26.3600   27.8800   44.4130 C   0  0  0  0  0  0  0  0  0  0  0  0
   25.0490   27.7390   44.2120 N   0  0  0  0  0  0  0  0  0  0  0  0
   24.7840   26.7820   43.3140 C   0  0  0  0  0  0  0  0  0  0  0  0
   23.7770   26.5040   43.0030 H   0  0  0  0  0  0  0  0  0  0  0  0
   25.9880   26.2790   42.9160 N   0  0  0  0  0  0  0  0  0  0  0  0
   26.9630   26.9380   43.5770 C   0  0  0  0  0  0  0  0  0  0  0  0
   28.3420   26.8930   43.6100 C   0  0  0  0  0  3  0  0  0  0  0  0
   24.3610   28.3430   44.7320 H   0  0  0  0  0  0  0  0  0  0  0  0
   34.4290   28.6930   48.1390 C   0  0  0  0  0  0  0  0  0  0  0  0
   33.9560   29.6840   48.1390 H   0  0  0  0  0  0  0  0  0  0  0  0
   35.2980   28.7670   47.4530 H   0  0  0  0  0  0  0  0  0  0  0  0
   34.9640   28.3620   49.4120 O   0  0  0  0  0  0  0  0  0  0  0  0
   37.2620   30.1190   51.5730 C   0  0  0  0  0  0  0  0  0  0  0  0
   38.0030   30.8290   50.6050 C   0  0  0  0  0  0  0  0  0  0  0  0
   37.6720   30.6650   49.2730 C   0  0  0  0  0  0  0  0  0  0  0  0
   36.6360   29.8100   49.0120 N   0  0  0  0  0  0  0  0  0  0  0  0
   35.9400   29.1430   49.9350 C   0  0  0  0  0  0  0  0  0  0  0  0
   36.2660   29.3060   51.2270 N   0  0  0  0  0  0  0  0  0  0  0  0
   37.5470   30.2720   52.6030 H   0  0  0  0  0  0  0  0  0  0  0  0
   38.8120   31.4960   50.8070 H   0  0  0  0  0  0  0  0  0  0  0  0
   38.8580   33.2990   49.1760 F   0  0  0  0  0  0  0  0  0  0  0  0
   38.8790   32.5290   48.0880 C   0  0  0  0  0  0  0  0  0  0  0  0
   38.3230   31.3110   48.1560 C   0  0  0  0  0  0  0  0  0  0  0  0
   38.3990   30.5900   46.9640 C   0  0  0  0  0  0  0  0  0  0  0  0
   38.9860   31.0800   45.8330 C   0  0  0  0  0  0  0  0  0  0  0  0
   39.5420   32.3410   45.8200 C   0  0  0  0  0  0  0  0  0  0  0  0
   39.4780   33.0630   46.9740 C   0  0  0  0  0  0  0  0  0  0  0  0
   37.9940   29.5750   46.8490 H   0  0  0  0  0  0  0  0  0  0  0  0
   39.0470   30.5190   44.9020 H   0  0  0  0  0  0  0  0  0  0  0  0
   40.0110   32.7330   44.9160 H   0  0  0  0  0  0  0  0  0  0  0  0
   39.9120   34.0560   46.9790 H   0  0  0  0  0  0  0  0  0  0  0  0
  1  4  1  0  0  0  0
  1  3  1  0  0  0  0
  1 27  1  0  0  0  0
  2  1  1  0  0  0  0
  4  5  1  0  0  0  0
  5  6  2  0  0  0  0
  5 10  1  0  0  0  0
  6 11  1  0  0  0  0
  7  6  1  0  0  0  0
  8  7  2  0  0  0  0
  9  8  1  0  0  0  0
  9  4  2  0  0  0  0
 12 14  1  0  0  0  0
 12  8  1  0  0  0  0
 13 12  1  0  0  0  0
 15 16  1  0  0  0  0
 16 12  1  0  0  0  0
 17 16  2  0  0  0  0
 17 18  1  0  0  0  0
 19 17  1  0  0  0  0
 20 19  1  0  0  0  0
 20 26  1  0  0  0  0
 21 20  1  0  0  0  0
 22 21  1  0  0  0  0
 23 21  2  0  0  0  0
 23 24  1  0  0  0  0
 24 25  1  0  0  0  0
 24 19  2  0  0  0  0
 25 15  2  0  0  0  0
 27 30  1  0  0  0  0
 28 27  1  0  0  0  0
 29 27  1  0  0  0  0
 30 35  1  0  0  0  0
 31 37  1  0  0  0  0
 32 38  1  0  0  0  0
 32 31  2  0  0  0  0
 33 32  1  0  0  0  0
 34 33  2  0  0  0  0
 34 35  1  0  0  0  0
 35 36  2  0  0  0  0
 36 31  1  0  0  0  0
 40 41  1  0  0  0  0
 40 39  1  0  0  0  0
 41 33  1  0  0  0  0
 42 41  2  0  0  0  0
 43 42  1  0  0  0  0
 44 43  2  0  0  0  0
 44 45  1  0  0  0  0
 45 49  1  0  0  0  0
 45 40  2  0  0  0  0
 46 42  1  0  0  0  0
 47 43  1  0  0  0  0
 48 44  1  0  0  0  0
M  END
>  <minimizedAffinity>
-7.02503681

>  <minimizedRMSD>
0.664390981

$$$$
