
 OpenBabel03272508503D

 32 35  0  0  1  0  0  0  0  0999 V2000
   37.9120   30.9320   46.6470 C   0  0  2  0  0  0  0  0  0  0  0  0
   37.8310   31.0310   45.1940 C   0  0  0  0  0  0  0  0  0  0  0  0
   36.5720   31.0380   46.0750 C   0  0  1  0  0  0  0  0  0  0  0  0
   38.0740   29.9500   47.2020 H   0  0  0  0  0  0  0  0  0  0  0  0
   37.9300   30.1530   44.5610 H   0  0  0  0  0  0  0  0  0  0  0  0
   38.1830   31.9890   44.7600 H   0  0  0  0  0  0  0  0  0  0  0  0
   36.0010   31.9540   45.8370 H   0  0  0  0  0  0  0  0  0  0  0  0
   38.3450   33.2740   49.4940 C   0  0  0  0  0  0  0  0  0  0  0  0
   39.3940   34.1010   49.0230 C   0  0  0  0  0  0  0  0  0  0  0  0
   39.9530   33.8520   47.7280 C   0  0  0  0  0  0  0  0  0  0  0  0
   39.4370   32.8210   47.0110 N   0  0  0  0  0  0  0  0  0  0  0  0
   38.4280   32.0490   47.5010 C   0  0  0  0  0  0  0  0  0  0  0  0
   37.8750   32.2480   48.7130 N   0  0  0  0  0  0  0  0  0  0  0  0
   37.9910   33.5380   50.4770 H   0  0  0  0  0  0  0  0  0  0  0  0
   39.7740   34.9120   49.6290 H   0  0  0  0  0  0  0  0  0  0  0  0
   40.7520   34.4680   47.3480 H   0  0  0  0  0  0  0  0  0  0  0  0
   34.7830   29.6110   47.0000 C   0  0  0  0  0  0  0  0  0  0  0  0
   34.4820   30.5400   47.7890 O   0  0  0  0  0  0  0  0  0  0  0  0
   35.7970   29.7940   45.9970 N   0  0  0  0  0  0  0  0  0  0  0  0
   36.0130   29.1200   45.2390 H   0  0  0  0  0  0  0  0  0  0  0  0
   33.3170   27.8550   48.1070 C   0  0  0  0  0  3  0  0  0  0  0  0
   34.1120   28.3170   47.0790 C   0  0  0  0  0  0  0  0  0  0  0  0
   34.2680   27.4210   46.0200 C   0  0  0  0  0  0  0  0  0  0  0  0
   34.8810   27.7310   45.1870 H   0  0  0  0  0  0  0  0  0  0  0  0
   33.7040   26.1660   45.9420 C   0  0  0  0  0  0  0  0  0  0  0  0
   33.7540   25.2020   45.0120 N   0  0  0  0  0  0  0  0  0  0  0  0
   32.9960   24.1850   45.4890 C   0  0  0  0  0  0  0  0  0  0  0  0
   32.8260   23.2410   44.9720 H   0  0  0  0  0  0  0  0  0  0  0  0
   32.4780   24.5160   46.7080 N   0  0  0  0  0  0  0  0  0  0  0  0
   32.9160   25.7500   46.9940 C   0  0  0  0  0  0  0  0  0  0  0  0
   32.7360   26.6050   48.0640 C   0  0  0  0  0  3  0  0  0  0  0  0
   34.2660   25.2180   44.1040 H   0  0  0  0  0  0  0  0  0  0  0  0
  1  4  1  1  0  0  0
  1 12  1  0  0  0  0
  2  3  1  0  0  0  0
  2  1  1  0  0  0  0
  3  7  1  1  0  0  0
  3  1  1  0  0  0  0
  5  2  1  0  0  0  0
  6  2  1  0  0  0  0
  8 14  1  0  0  0  0
  9  8  1  0  0  0  0
  9 15  1  0  0  0  0
 10  9  2  0  0  0  0
 11 12  2  0  0  0  0
 11 10  1  0  0  0  0
 12 13  1  0  0  0  0
 13  8  2  0  0  0  0
 16 10  1  0  0  0  0
 17 22  1  0  0  0  0
 17 18  2  0  0  0  0
 19  3  1  0  0  0  0
 19 17  1  0  0  0  0
 20 19  1  0  0  0  0
 22 21  2  0  0  0  0
 23 22  1  0  0  0  0
 24 23  1  0  0  0  0
 25 23  2  0  0  0  0
 25 30  1  0  0  0  0
 26 27  1  0  0  0  0
 26 25  1  0  0  0  0
 27 29  2  0  0  0  0
 28 27  1  0  0  0  0
 29 30  1  0  0  0  0
 30 31  2  0  0  0  0
 31 21  1  0  0  0  0
 32 26  1  0  0  0  0
M  END
>  <minimizedAffinity>
-3.83077312

>  <minimizedRMSD>
6.73494482

$$$$
