
 OpenBabel03272504223D

 42 45  0  0  1  0  0  0  0  0999 V2000
   38.8970   32.4150   47.8740 C   0  0  2  0  0  0  0  0  0  0  0  0
   38.1910   31.3990   48.7570 C   0  0  1  0  0  0  0  0  0  0  0  0
   38.6500   31.9430   50.1220 C   0  0  0  0  0  0  0  0  0  0  0  0
   38.3240   33.2850   49.9860 O   0  0  0  0  0  0  0  0  0  0  0  0
   38.6710   33.6670   48.7120 C   0  0  0  0  0  0  0  0  0  0  0  0
   39.9690   32.1350   47.8480 H   0  0  0  0  0  0  0  0  0  0  0  0
   38.5190   30.3720   48.6030 H   0  0  0  0  0  0  0  0  0  0  0  0
   39.7500   31.8450   50.1470 H   0  0  0  0  0  0  0  0  0  0  0  0
   38.1280   31.4670   50.9510 H   0  0  0  0  0  0  0  0  0  0  0  0
   39.5630   34.3100   48.7500 H   0  0  0  0  0  0  0  0  0  0  0  0
   37.8310   34.2340   48.2220 H   0  0  0  0  0  0  0  0  0  0  0  0
   36.8400   31.6060   48.6040 O   0  0  0  0  0  0  0  0  0  0  0  0
   35.9720   29.8220   46.9180 O   0  0  0  0  0  0  0  0  0  0  0  0
   35.9910   30.1660   48.3760 P   0  0  1  0  0  0  0  0  0  0  0  0
   36.7680   28.8860   49.2150 O   0  0  0  0  0  0  0  0  0  0  0  0
   37.5520   28.5750   48.7060 H   0  0  0  0  0  0  0  0  0  0  0  0
   34.4050   30.3340   48.9720 O   0  0  0  0  0  0  0  0  0  0  0  0
   34.1390   29.2180   49.7400 C   0  0  0  0  0  0  0  0  0  0  0  0
   33.5790   29.5940   50.6390 H   0  0  0  0  0  0  0  0  0  0  0  0
   35.0690   28.7740   50.1330 H   0  0  0  0  0  0  0  0  0  0  0  0
   33.2790   28.2290   49.0550 C   0  0  0  0  0  0  0  0  0  0  0  0
   33.9060   27.3320   48.2250 C   0  0  0  0  0  0  0  0  0  0  0  0
   33.1490   26.3720   47.5490 C   0  0  0  0  0  0  0  0  0  0  0  0
   31.8020   26.3870   47.7600 N   0  0  0  0  0  0  0  0  0  0  0  0
   31.2080   27.2790   48.5810 C   0  0  0  0  0  0  0  0  0  0  0  0
   31.9450   28.2050   49.2320 N   0  0  0  0  0  0  0  0  0  0  0  0
   34.9500   27.2420   47.9970 H   0  0  0  0  0  0  0  0  0  0  0  0
   33.5510   25.6250   46.8760 H   0  0  0  0  0  0  0  0  0  0  0  0
   30.1300   27.2670   48.7300 H   0  0  0  0  0  0  0  0  0  0  0  0
   38.2630   32.4340   46.6600 O   0  0  0  0  0  0  0  0  0  0  0  0
   37.9700   32.4830   44.3630 C   0  0  0  0  0  3  0  0  0  0  0  0
   38.7020   31.9870   45.4370 C   0  0  0  0  0  0  0  0  0  0  0  0
   39.7560   31.1270   45.1610 C   0  0  0  0  0  0  0  0  0  0  0  0
   40.2730   30.7860   46.0510 H   0  0  0  0  0  0  0  0  0  0  0  0
   40.0550   30.7840   43.8550 C   0  0  0  0  0  0  0  0  0  0  0  0
   41.0290   29.9740   43.3960 N   0  0  0  0  0  0  0  0  0  0  0  0
   40.8850   29.9810   42.0590 C   0  0  0  0  0  0  0  0  0  0  0  0
   41.5580   29.3950   41.4210 H   0  0  0  0  0  0  0  0  0  0  0  0
   39.8540   30.7730   41.7070 N   0  0  0  0  0  0  0  0  0  0  0  0
   39.2970   31.3040   42.8260 C   0  0  0  0  0  0  0  0  0  0  0  0
   38.2450   32.1590   43.0500 C   0  0  0  0  0  3  0  0  0  0  0  0
   41.7380   29.4540   43.9540 H   0  0  0  0  0  0  0  0  0  0  0  0
  1  6  1  6  0  0  0
  1  5  1  0  0  0  0
  1  2  1  0  0  0  0
  2  7  1  6  0  0  0
  2  3  1  0  0  0  0
  3  8  1  0  0  0  0
  3  9  1  0  0  0  0
  4  3  1  0  0  0  0
  5 10  1  0  0  0  0
  5  4  1  0  0  0  0
 11  5  1  0  0  0  0
 12  2  1  0  0  0  0
 14 13  2  6  0  0  0
 14 12  1  0  0  0  0
 14 17  1  0  0  0  0
 14 15  1  0  0  0  0
 16 15  1  0  0  0  0
 17 18  1  0  0  0  0
 18 20  1  0  0  0  0
 18 19  1  0  0  0  0
 21 26  1  0  0  0  0
 21 18  1  0  0  0  0
 22 21  2  0  0  0  0
 23 24  2  0  0  0  0
 23 22  1  0  0  0  0
 24 25  1  0  0  0  0
 25 29  1  0  0  0  0
 25 26  2  0  0  0  0
 27 22  1  0  0  0  0
 28 23  1  0  0  0  0
 30  1  1  0  0  0  0
 31 32  1  0  0  0  0
 32 30  1  0  0  0  0
 33 32  2  0  0  0  0
 33 34  1  0  0  0  0
 35 33  1  0  0  0  0
 36 35  1  0  0  0  0
 36 42  1  0  0  0  0
 37 36  1  0  0  0  0
 38 37  1  0  0  0  0
 39 37  2  0  0  0  0
 39 40  1  0  0  0  0
 40 41  1  0  0  0  0
 40 35  2  0  0  0  0
 41 31  2  0  0  0  0
M  END
>  <minimizedAffinity>
-5.3486557

>  <minimizedRMSD>
0.5141415

$$$$
