
 OpenBabel03272509253D

 27 29  0  0  0  0  0  0  0  0999 V2000
   37.7750   25.1430   36.1330 C   0  0  0  0  0  0  0  0  0  0  0  0
   37.3540   25.2080   37.1380 H   0  0  0  0  0  0  0  0  0  0  0  0
   37.1030   24.6960   35.3720 H   0  0  0  0  0  0  0  0  0  0  0  0
   40.0080   24.4800   35.2740 C   0  0  0  0  0  3  0  0  0  0  0  0
   38.9920   24.2690   36.2070 C   0  0  0  0  0  0  0  0  0  0  0  0
   39.2160   23.2560   37.1180 C   0  0  0  0  0  0  0  0  0  0  0  0
   38.4280   23.0950   37.8390 H   0  0  0  0  0  0  0  0  0  0  0  0
   40.3770   22.5350   37.0670 C   0  0  0  0  0  0  0  0  0  0  0  0
   40.8240   21.5120   37.8360 N   0  0  0  0  0  0  0  0  0  0  0  0
   42.0500   21.1250   37.3880 C   0  0  0  0  0  0  0  0  0  0  0  0
   42.6870   20.3340   37.7770 H   0  0  0  0  0  0  0  0  0  0  0  0
   42.3820   21.9030   36.3360 N   0  0  0  0  0  0  0  0  0  0  0  0
   41.3650   22.7670   36.1340 C   0  0  0  0  0  0  0  0  0  0  0  0
   41.1880   23.7680   35.2010 C   0  0  0  0  0  3  0  0  0  0  0  0
   40.3200   21.0740   38.6500 H   0  0  0  0  0  0  0  0  0  0  0  0
   38.2350   26.5300   35.7050 C   0  0  0  0  0  0  0  0  0  0  0  0
   39.3030   26.4670   35.3600 H   0  0  0  0  0  0  0  0  0  0  0  0
   38.1100   27.2260   36.5400 H   0  0  0  0  0  0  0  0  0  0  0  0
   35.9620   28.5840   33.4510 C   0  0  0  0  0  0  0  0  0  0  0  0
   36.7020   28.1910   34.5650 C   0  0  0  0  0  0  0  0  0  0  0  0
   37.4260   27.0110   34.5570 C   0  0  0  0  0  0  0  0  0  0  0  0
   37.3720   26.2750   33.4170 N   0  0  0  0  0  0  0  0  0  0  0  0
   36.6530   26.6620   32.3380 C   0  0  0  0  0  0  0  0  0  0  0  0
   35.9500   27.8150   32.3580 N   0  0  0  0  0  0  0  0  0  0  0  0
   35.4190   29.5270   33.5370 H   0  0  0  0  0  0  0  0  0  0  0  0
   36.7090   28.8130   35.4470 H   0  0  0  0  0  0  0  0  0  0  0  0
   36.6570   26.0230   31.4610 H   0  0  0  0  0  0  0  0  0  0  0  0
  1  5  1  0  0  0  0
  1  2  1  0  0  0  0
  3  1  1  0  0  0  0
  4  5  1  0  0  0  0
  5  6  2  0  0  0  0
  6  7  1  0  0  0  0
  8  6  1  0  0  0  0
  8  9  1  0  0  0  0
  9 15  1  0  0  0  0
 10 11  1  0  0  0  0
 10  9  1  0  0  0  0
 12 10  2  0  0  0  0
 13 12  1  0  0  0  0
 13  8  2  0  0  0  0
 14  4  2  0  0  0  0
 14 13  1  0  0  0  0
 16  1  1  0  0  0  0
 16 18  1  0  0  0  0
 17 16  1  0  0  0  0
 19 25  1  0  0  0  0
 19 20  1  0  0  0  0
 20 26  1  0  0  0  0
 21 20  2  0  0  0  0
 21 16  1  0  0  0  0
 22 21  1  0  0  0  0
 23 24  1  0  0  0  0
 23 22  2  0  0  0  0
 24 19  2  0  0  0  0
 27 23  1  0  0  0  0
M  END
>  <minimizedAffinity>
-4.8972187

$$$$

 OpenBabel03272509253D

 27 29  0  0  0  0  0  0  0  0999 V2000
   38.1320   26.7820   35.5450 C   0  0  0  0  0  0  0  0  0  0  0  0
   37.8780   27.3550   36.4380 H   0  0  0  0  0  0  0  0  0  0  0  0
   39.2180   26.6850   35.3430 H   0  0  0  0  0  0  0  0  0  0  0  0
   38.1110   27.2870   33.1130 C   0  0  0  0  0  3  0  0  0  0  0  0
   37.5300   27.4890   34.3660 C   0  0  0  0  0  0  0  0  0  0  0  0
   36.4410   28.3380   34.3920 C   0  0  0  0  0  0  0  0  0  0  0  0
   35.9940   28.4920   35.3620 H   0  0  0  0  0  0  0  0  0  0  0  0
   35.9990   28.9180   33.2350 C   0  0  0  0  0  0  0  0  0  0  0  0
   34.9700   29.7690   33.0030 N   0  0  0  0  0  0  0  0  0  0  0  0
   34.9330   30.0660   31.6750 C   0  0  0  0  0  0  0  0  0  0  0  0
   34.2360   30.7170   31.1530 H   0  0  0  0  0  0  0  0  0  0  0  0
   35.9370   29.4030   31.0640 N   0  0  0  0  0  0  0  0  0  0  0  0
   36.5930   28.6990   32.0100 C   0  0  0  0  0  0  0  0  0  0  0  0
   37.6840   27.8590   31.9330 C   0  0  0  0  0  3  0  0  0  0  0  0
   34.3000   30.1500   33.7200 H   0  0  0  0  0  0  0  0  0  0  0  0
   37.4730   25.4120   35.6390 C   0  0  0  0  0  0  0  0  0  0  0  0
   37.4230   24.9620   34.6090 H   0  0  0  0  0  0  0  0  0  0  0  0
   36.4840   25.5170   36.0920 H   0  0  0  0  0  0  0  0  0  0  0  0
   38.8280   23.3650   38.5440 C   0  0  0  0  0  0  0  0  0  0  0  0
   38.0180   24.2310   37.8100 C   0  0  0  0  0  0  0  0  0  0  0  0
   38.2900   24.5020   36.4800 C   0  0  0  0  0  0  0  0  0  0  0  0
   39.3760   23.8850   35.9460 N   0  0  0  0  0  0  0  0  0  0  0  0
   40.1590   23.0450   36.6630 C   0  0  0  0  0  0  0  0  0  0  0  0
   39.8820   22.7880   37.9600 N   0  0  0  0  0  0  0  0  0  0  0  0
   38.5460   23.2030   39.5860 H   0  0  0  0  0  0  0  0  0  0  0  0
   37.1680   24.6960   38.2850 H   0  0  0  0  0  0  0  0  0  0  0  0
   41.0090   22.5870   36.1690 H   0  0  0  0  0  0  0  0  0  0  0  0
  1 16  1  0  0  0  0
  1  2  1  0  0  0  0
  3  1  1  0  0  0  0
  4  5  1  0  0  0  0
  5  6  2  0  0  0  0
  5  1  1  0  0  0  0
  6  7  1  0  0  0  0
  8  6  1  0  0  0  0
  9  8  1  0  0  0  0
  9 15  1  0  0  0  0
 10  9  1  0  0  0  0
 11 10  1  0  0  0  0
 12 10  2  0  0  0  0
 12 13  1  0  0  0  0
 13  8  2  0  0  0  0
 14 13  1  0  0  0  0
 14  4  2  0  0  0  0
 16 18  1  0  0  0  0
 16 21  1  0  0  0  0
 17 16  1  0  0  0  0
 19 25  1  0  0  0  0
 20 26  1  0  0  0  0
 20 19  2  0  0  0  0
 21 20  1  0  0  0  0
 22 21  2  0  0  0  0
 22 23  1  0  0  0  0
 23 24  2  0  0  0  0
 24 19  1  0  0  0  0
 27 23  1  0  0  0  0
M  END
>  <minimizedAffinity>
-4.83801794

$$$$

 OpenBabel03272509253D

 27 29  0  0  0  0  0  0  0  0999 V2000
   37.5310   26.0200   35.6820 C   0  0  0  0  0  0  0  0  0  0  0  0
   37.4630   26.7710   36.4710 H   0  0  0  0  0  0  0  0  0  0  0  0
   36.5650   25.5560   35.3930 H   0  0  0  0  0  0  0  0  0  0  0  0
   38.1240   24.3580   37.4290 C   0  0  0  0  0  3  0  0  0  0  0  0
   38.4130   24.9160   36.1830 C   0  0  0  0  0  0  0  0  0  0  0  0
   39.5060   24.3830   35.5280 C   0  0  0  0  0  0  0  0  0  0  0  0
   39.7280   24.8160   34.5640 H   0  0  0  0  0  0  0  0  0  0  0  0
   40.2250   23.3740   36.1060 C   0  0  0  0  0  0  0  0  0  0  0  0
   41.3160   22.6960   35.6720 N   0  0  0  0  0  0  0  0  0  0  0  0
   41.6670   21.7750   36.6120 C   0  0  0  0  0  0  0  0  0  0  0  0
   42.4930   21.0680   36.5820 H   0  0  0  0  0  0  0  0  0  0  0  0
   40.7980   21.8670   37.6410 N   0  0  0  0  0  0  0  0  0  0  0  0
   39.9150   22.8410   37.3400 C   0  0  0  0  0  0  0  0  0  0  0  0
   38.8320   23.3400   38.0340 C   0  0  0  0  0  3  0  0  0  0  0  0
   41.8230   22.8440   34.7620 H   0  0  0  0  0  0  0  0  0  0  0  0
   38.2190   26.6410   34.4740 C   0  0  0  0  0  0  0  0  0  0  0  0
   39.1370   26.0390   34.2310 H   0  0  0  0  0  0  0  0  0  0  0  0
   38.4550   27.6870   34.6900 H   0  0  0  0  0  0  0  0  0  0  0  0
   35.9760   27.5870   31.5510 C   0  0  0  0  0  0  0  0  0  0  0  0
   36.8090   27.7090   32.6630 C   0  0  0  0  0  0  0  0  0  0  0  0
   37.3280   26.5880   33.2880 C   0  0  0  0  0  0  0  0  0  0  0  0
   36.9820   25.3850   32.7600 N   0  0  0  0  0  0  0  0  0  0  0  0
   36.1730   25.2730   31.6800 C   0  0  0  0  0  0  0  0  0  0  0  0
   35.6740   26.3750   31.0790 N   0  0  0  0  0  0  0  0  0  0  0  0
   35.6090   28.5180   31.1160 H   0  0  0  0  0  0  0  0  0  0  0  0
   37.0520   28.6900   33.0420 H   0  0  0  0  0  0  0  0  0  0  0  0
   35.9400   24.2790   31.3130 H   0  0  0  0  0  0  0  0  0  0  0  0
  1  5  1  0  0  0  0
  1  2  1  0  0  0  0
  3  1  1  0  0  0  0
  4 14  1  0  0  0  0
  5  4  2  0  0  0  0
  6  8  2  0  0  0  0
  6  5  1  0  0  0  0
  7  6  1  0  0  0  0
  8 13  1  0  0  0  0
  9  8  1  0  0  0  0
  9 10  1  0  0  0  0
 10 12  2  0  0  0  0
 11 10  1  0  0  0  0
 13 12  1  0  0  0  0
 13 14  2  0  0  0  0
 15  9  1  0  0  0  0
 16 18  1  0  0  0  0
 16  1  1  0  0  0  0
 17 16  1  0  0  0  0
 19 20  1  0  0  0  0
 20 26  1  0  0  0  0
 20 21  2  0  0  0  0
 21 16  1  0  0  0  0
 22 21  1  0  0  0  0
 23 22  2  0  0  0  0
 24 19  2  0  0  0  0
 24 23  1  0  0  0  0
 25 19  1  0  0  0  0
 27 23  1  0  0  0  0
M  END
>  <minimizedAffinity>
-4.7814374

$$$$

 OpenBabel03272509253D

 27 29  0  0  0  0  0  0  0  0999 V2000
   37.4920   26.6700   35.3520 C   0  0  0  0  0  0  0  0  0  0  0  0
   36.5620   26.3800   35.8420 H   0  0  0  0  0  0  0  0  0  0  0  0
   38.1710   27.2960   35.9670 H   0  0  0  0  0  0  0  0  0  0  0  0
   36.1890   28.4930   34.2830 C   0  0  0  0  0  3  0  0  0  0  0  0
   37.1340   27.4770   34.1390 C   0  0  0  0  0  0  0  0  0  0  0  0
   37.6500   27.3140   32.8690 C   0  0  0  0  0  0  0  0  0  0  0  0
   38.3810   26.5280   32.7600 H   0  0  0  0  0  0  0  0  0  0  0  0
   37.2290   28.1250   31.8510 C   0  0  0  0  0  0  0  0  0  0  0  0
   37.5790   28.1650   30.5420 N   0  0  0  0  0  0  0  0  0  0  0  0
   36.8780   29.1580   29.9270 C   0  0  0  0  0  0  0  0  0  0  0  0
   36.9180   29.4590   28.8830 H   0  0  0  0  0  0  0  0  0  0  0  0
   36.0850   29.7480   30.8460 N   0  0  0  0  0  0  0  0  0  0  0  0
   36.2930   29.1230   32.0230 C   0  0  0  0  0  0  0  0  0  0  0  0
   35.7480   29.3240   33.2740 C   0  0  0  0  0  3  0  0  0  0  0  0
   38.2750   27.5400   30.0610 H   0  0  0  0  0  0  0  0  0  0  0  0
   38.2030   25.4120   34.8690 C   0  0  0  0  0  0  0  0  0  0  0  0
   39.1460   25.7110   34.3340 H   0  0  0  0  0  0  0  0  0  0  0  0
   37.5270   24.8400   34.2260 H   0  0  0  0  0  0  0  0  0  0  0  0
   38.3630   23.7490   38.2850 C   0  0  0  0  0  0  0  0  0  0  0  0
   37.9400   24.5710   37.2410 C   0  0  0  0  0  0  0  0  0  0  0  0
   38.5960   24.5660   36.0220 C   0  0  0  0  0  0  0  0  0  0  0  0
   39.6580   23.7260   35.9090 N   0  0  0  0  0  0  0  0  0  0  0  0
   40.0640   22.9300   36.9260 C   0  0  0  0  0  0  0  0  0  0  0  0
   39.4150   22.9440   38.1100 N   0  0  0  0  0  0  0  0  0  0  0  0
   37.7930   23.8120   39.2140 H   0  0  0  0  0  0  0  0  0  0  0  0
   37.0910   25.2210   37.3850 H   0  0  0  0  0  0  0  0  0  0  0  0
   40.9200   22.2830   36.7630 H   0  0  0  0  0  0  0  0  0  0  0  0
  1  2  1  0  0  0  0
  1  3  1  0  0  0  0
  5  4  1  0  0  0  0
  5  1  1  0  0  0  0
  6  5  2  0  0  0  0
  7  6  1  0  0  0  0
  8 13  2  0  0  0  0
  8  6  1  0  0  0  0
  9  8  1  0  0  0  0
 10  9  1  0  0  0  0
 10 12  2  0  0  0  0
 11 10  1  0  0  0  0
 12 13  1  0  0  0  0
 13 14  1  0  0  0  0
 14  4  2  0  0  0  0
 15  9  1  0  0  0  0
 16  1  1  0  0  0  0
 16 21  1  0  0  0  0
 17 16  1  0  0  0  0
 18 16  1  0  0  0  0
 19 25  1  0  0  0  0
 20 26  1  0  0  0  0
 20 19  2  0  0  0  0
 21 20  1  0  0  0  0
 22 21  2  0  0  0  0
 22 23  1  0  0  0  0
 23 24  2  0  0  0  0
 24 19  1  0  0  0  0
 27 23  1  0  0  0  0
M  END
>  <minimizedAffinity>
-4.76685524

$$$$

 OpenBabel03272509253D

 27 29  0  0  0  0  0  0  0  0999 V2000
   38.4300   26.9140   35.5840 C   0  0  0  0  0  0  0  0  0  0  0  0
   37.9770   27.7580   36.1070 H   0  0  0  0  0  0  0  0  0  0  0  0
   39.4990   26.7360   35.8190 H   0  0  0  0  0  0  0  0  0  0  0  0
   39.4900   26.9840   33.3390 C   0  0  0  0  0  3  0  0  0  0  0  0
   38.3480   27.1960   34.1130 C   0  0  0  0  0  0  0  0  0  0  0  0
   37.2390   27.6560   33.4300 C   0  0  0  0  0  0  0  0  0  0  0  0
   36.3580   27.8200   34.0310 H   0  0  0  0  0  0  0  0  0  0  0  0
   37.3080   27.8720   32.0810 C   0  0  0  0  0  0  0  0  0  0  0  0
   36.3740   28.3110   31.2020 N   0  0  0  0  0  0  0  0  0  0  0  0
   36.9280   28.3610   29.9580 C   0  0  0  0  0  0  0  0  0  0  0  0
   36.4570   28.6680   29.0270 H   0  0  0  0  0  0  0  0  0  0  0  0
   38.2110   27.9530   30.0490 N   0  0  0  0  0  0  0  0  0  0  0  0
   38.4510   27.6520   31.3420 C   0  0  0  0  0  0  0  0  0  0  0  0
   39.5850   27.1930   31.9790 C   0  0  0  0  0  3  0  0  0  0  0  0
   35.3810   28.5760   31.4240 H   0  0  0  0  0  0  0  0  0  0  0  0
   37.6000   25.6670   35.8550 C   0  0  0  0  0  0  0  0  0  0  0  0
   37.2410   25.2500   34.8750 H   0  0  0  0  0  0  0  0  0  0  0  0
   36.7720   25.9210   36.5230 H   0  0  0  0  0  0  0  0  0  0  0  0
   40.2470   23.0270   36.5530 C   0  0  0  0  0  0  0  0  0  0  0  0
   39.5060   24.0020   35.8860 C   0  0  0  0  0  0  0  0  0  0  0  0
   38.4320   24.6220   36.5020 C   0  0  0  0  0  0  0  0  0  0  0  0
   38.1520   24.2290   37.7720 N   0  0  0  0  0  0  0  0  0  0  0  0
   38.8750   23.2820   38.4140 C   0  0  0  0  0  0  0  0  0  0  0  0
   39.9210   22.6850   37.8020 N   0  0  0  0  0  0  0  0  0  0  0  0
   41.0780   22.5860   35.9990 H   0  0  0  0  0  0  0  0  0  0  0  0
   39.7710   24.2760   34.8770 H   0  0  0  0  0  0  0  0  0  0  0  0
   38.5940   23.0200   39.4280 H   0  0  0  0  0  0  0  0  0  0  0  0
  1  3  1  0  0  0  0
  1 16  1  0  0  0  0
  1  2  1  0  0  0  0
  4  5  1  0  0  0  0
  5  1  1  0  0  0  0
  6  7  1  0  0  0  0
  6  5  2  0  0  0  0
  8  6  1  0  0  0  0
  9 15  1  0  0  0  0
  9  8  1  0  0  0  0
 10 12  2  0  0  0  0
 10  9  1  0  0  0  0
 11 10  1  0  0  0  0
 12 13  1  0  0  0  0
 13 14  1  0  0  0  0
 13  8  2  0  0  0  0
 14  4  2  0  0  0  0
 16 21  1  0  0  0  0
 16 18  1  0  0  0  0
 17 16  1  0  0  0  0
 19 24  1  0  0  0  0
 20 21  1  0  0  0  0
 20 19  2  0  0  0  0
 21 22  2  0  0  0  0
 22 23  1  0  0  0  0
 23 27  1  0  0  0  0
 24 23  2  0  0  0  0
 25 19  1  0  0  0  0
 26 20  1  0  0  0  0
M  END
>  <minimizedAffinity>
-4.68737793

$$$$

 OpenBabel03272509253D

 27 29  0  0  0  0  0  0  0  0999 V2000
   35.3430   30.2350   34.0940 C   0  0  0  0  0  0  0  0  0  0  0  0
   34.2790   30.1090   34.2980 H   0  0  0  0  0  0  0  0  0  0  0  0
   35.5860   30.9890   33.3170 H   0  0  0  0  0  0  0  0  0  0  0  0
   36.5990   28.1300   34.4930 C   0  0  0  0  0  3  0  0  0  0  0  0
   35.8690   28.9180   33.6020 C   0  0  0  0  0  0  0  0  0  0  0  0
   35.7050   28.3950   32.3350 C   0  0  0  0  0  0  0  0  0  0  0  0
   35.1400   29.0070   31.6480 H   0  0  0  0  0  0  0  0  0  0  0  0
   36.2430   27.1770   32.0230 C   0  0  0  0  0  0  0  0  0  0  0  0
   36.2190   26.4620   30.8720 N   0  0  0  0  0  0  0  0  0  0  0  0
   36.9020   25.2990   31.0600 C   0  0  0  0  0  0  0  0  0  0  0  0
   37.0750   24.5010   30.3420 H   0  0  0  0  0  0  0  0  0  0  0  0
   37.3580   25.2750   32.3300 N   0  0  0  0  0  0  0  0  0  0  0  0
   36.9590   26.4190   32.9250 C   0  0  0  0  0  0  0  0  0  0  0  0
   37.1510   26.8990   34.2040 C   0  0  0  0  0  3  0  0  0  0  0  0
   35.7550   26.7440   29.9700 H   0  0  0  0  0  0  0  0  0  0  0  0
   36.0580   30.5510   35.4010 C   0  0  0  0  0  0  0  0  0  0  0  0
   37.1680   30.5220   35.2230 H   0  0  0  0  0  0  0  0  0  0  0  0
   35.7430   29.8380   36.1670 H   0  0  0  0  0  0  0  0  0  0  0  0
   35.9110   34.3310   35.7960 C   0  0  0  0  0  0  0  0  0  0  0  0
   36.2750   33.0720   35.3210 C   0  0  0  0  0  0  0  0  0  0  0  0
   35.7190   31.9230   35.8560 C   0  0  0  0  0  0  0  0  0  0  0  0
   34.8140   32.0950   36.8540 N   0  0  0  0  0  0  0  0  0  0  0  0
   34.4640   33.3210   37.3110 C   0  0  0  0  0  0  0  0  0  0  0  0
   35.0130   34.4340   36.7800 N   0  0  0  0  0  0  0  0  0  0  0  0
   36.3940   35.1870   35.3210 H   0  0  0  0  0  0  0  0  0  0  0  0
   37.0000   32.9910   34.5260 H   0  0  0  0  0  0  0  0  0  0  0  0
   33.7330   33.3820   38.1100 H   0  0  0  0  0  0  0  0  0  0  0  0
  1  2  1  0  0  0  0
  1 16  1  0  0  0  0
  3  1  1  0  0  0  0
  5  1  1  0  0  0  0
  5  4  2  0  0  0  0
  6  5  1  0  0  0  0
  7  6  1  0  0  0  0
  8  6  2  0  0  0  0
  8 13  1  0  0  0  0
  9 10  1  0  0  0  0
  9  8  1  0  0  0  0
 10 12  2  0  0  0  0
 11 10  1  0  0  0  0
 12 13  1  0  0  0  0
 13 14  2  0  0  0  0
 14  4  1  0  0  0  0
 15  9  1  0  0  0  0
 16 21  1  0  0  0  0
 16 18  1  0  0  0  0
 17 16  1  0  0  0  0
 19 24  1  0  0  0  0
 20 19  2  0  0  0  0
 20 21  1  0  0  0  0
 21 22  2  0  0  0  0
 22 23  1  0  0  0  0
 23 27  1  0  0  0  0
 24 23  2  0  0  0  0
 25 19  1  0  0  0  0
 26 20  1  0  0  0  0
M  END
>  <minimizedAffinity>
-4.64253855

$$$$

 OpenBabel03272509253D

 27 29  0  0  0  0  0  0  0  0999 V2000
   35.6830   29.7760   33.4370 C   0  0  0  0  0  0  0  0  0  0  0  0
   35.7560   30.3760   32.5280 H   0  0  0  0  0  0  0  0  0  0  0  0
   36.3470   30.0990   34.2660 H   0  0  0  0  0  0  0  0  0  0  0  0
   36.8000   27.6380   34.0270 C   0  0  0  0  0  3  0  0  0  0  0  0
   36.0760   28.3720   33.0860 C   0  0  0  0  0  0  0  0  0  0  0  0
   35.7920   27.7160   31.9040 C   0  0  0  0  0  0  0  0  0  0  0  0
   35.2320   28.2850   31.1790 H   0  0  0  0  0  0  0  0  0  0  0  0
   36.2160   26.4280   31.7180 C   0  0  0  0  0  0  0  0  0  0  0  0
   36.0640   25.5850   30.6680 N   0  0  0  0  0  0  0  0  0  0  0  0
   36.6680   24.4000   30.9620 C   0  0  0  0  0  0  0  0  0  0  0  0
   36.7350   23.5100   30.3410 H   0  0  0  0  0  0  0  0  0  0  0  0
   37.2010   24.4920   32.1980 N   0  0  0  0  0  0  0  0  0  0  0  0
   36.9290   25.7270   32.6670 C   0  0  0  0  0  0  0  0  0  0  0  0
   37.2380   26.3400   33.8640 C   0  0  0  0  0  3  0  0  0  0  0  0
   35.5660   25.7940   29.7640 H   0  0  0  0  0  0  0  0  0  0  0  0
   34.2290   29.7440   33.8870 C   0  0  0  0  0  0  0  0  0  0  0  0
   33.9440   28.6800   34.1160 H   0  0  0  0  0  0  0  0  0  0  0  0
   33.5990   30.1820   33.1080 H   0  0  0  0  0  0  0  0  0  0  0  0
   34.8090   32.0530   36.8540 C   0  0  0  0  0  0  0  0  0  0  0  0
   35.0370   31.3440   35.6740 C   0  0  0  0  0  0  0  0  0  0  0  0
   34.0570   30.5270   35.1360 C   0  0  0  0  0  0  0  0  0  0  0  0
   32.8830   30.4610   35.8150 N   0  0  0  0  0  0  0  0  0  0  0  0
   32.6670   31.1520   36.9590 C   0  0  0  0  0  0  0  0  0  0  0  0
   33.6310   31.9460   37.4740 N   0  0  0  0  0  0  0  0  0  0  0  0
   35.6310   32.6740   37.2120 H   0  0  0  0  0  0  0  0  0  0  0  0
   35.9900   31.4310   35.1750 H   0  0  0  0  0  0  0  0  0  0  0  0
   31.7030   31.0510   37.4470 H   0  0  0  0  0  0  0  0  0  0  0  0
  1 16  1  0  0  0  0
  1  3  1  0  0  0  0
  2  1  1  0  0  0  0
  5  1  1  0  0  0  0
  5  4  2  0  0  0  0
  6  5  1  0  0  0  0
  7  6  1  0  0  0  0
  8  6  2  0  0  0  0
  8 13  1  0  0  0  0
  9 10  1  0  0  0  0
  9  8  1  0  0  0  0
 10 12  2  0  0  0  0
 11 10  1  0  0  0  0
 12 13  1  0  0  0  0
 13 14  2  0  0  0  0
 14  4  1  0  0  0  0
 15  9  1  0  0  0  0
 16 17  1  0  0  0  0
 16 21  1  0  0  0  0
 18 16  1  0  0  0  0
 19 25  1  0  0  0  0
 19 24  1  0  0  0  0
 20 19  2  0  0  0  0
 21 20  1  0  0  0  0
 21 22  2  0  0  0  0
 22 23  1  0  0  0  0
 23 27  1  0  0  0  0
 23 24  2  0  0  0  0
 26 20  1  0  0  0  0
M  END
>  <minimizedAffinity>
-4.63144159

$$$$

 OpenBabel03272509253D

 27 29  0  0  0  0  0  0  0  0999 V2000
   37.8020   26.1750   34.9400 C   0  0  0  0  0  0  0  0  0  0  0  0
   38.0800   27.1160   35.4160 H   0  0  0  0  0  0  0  0  0  0  0  0
   36.7260   25.9150   35.0080 H   0  0  0  0  0  0  0  0  0  0  0  0
   38.0170   24.5360   36.7930 C   0  0  0  0  0  3  0  0  0  0  0  0
   38.5600   25.0780   35.6270 C   0  0  0  0  0  0  0  0  0  0  0  0
   39.7650   24.5390   35.2200 C   0  0  0  0  0  0  0  0  0  0  0  0
   40.1820   24.9600   34.3180 H   0  0  0  0  0  0  0  0  0  0  0  0
   40.3460   23.5370   35.9480 C   0  0  0  0  0  0  0  0  0  0  0  0
   41.5030   22.8560   35.7580 N   0  0  0  0  0  0  0  0  0  0  0  0
   41.6490   21.9470   36.7620 C   0  0  0  0  0  0  0  0  0  0  0  0
   42.4620   21.2410   36.9130 H   0  0  0  0  0  0  0  0  0  0  0  0
   40.5860   22.0510   37.5870 N   0  0  0  0  0  0  0  0  0  0  0  0
   39.7860   23.0200   37.0960 C   0  0  0  0  0  0  0  0  0  0  0  0
   38.5830   23.5270   37.5440 C   0  0  0  0  0  3  0  0  0  0  0  0
   42.1880   22.9930   34.9720 H   0  0  0  0  0  0  0  0  0  0  0  0
   38.2620   26.2070   33.4880 C   0  0  0  0  0  0  0  0  0  0  0  0
   39.1850   25.5730   33.3870 H   0  0  0  0  0  0  0  0  0  0  0  0
   38.4380   27.2440   33.1870 H   0  0  0  0  0  0  0  0  0  0  0  0
   36.0540   23.7780   31.5670 C   0  0  0  0  0  0  0  0  0  0  0  0
   37.0510   24.2620   32.4140 C   0  0  0  0  0  0  0  0  0  0  0  0
   37.2240   25.6220   32.6040 C   0  0  0  0  0  0  0  0  0  0  0  0
   36.3770   26.4410   31.9280 N   0  0  0  0  0  0  0  0  0  0  0  0
   35.4100   25.9660   31.1080 C   0  0  0  0  0  0  0  0  0  0  0  0
   35.2520   24.6360   30.9300 N   0  0  0  0  0  0  0  0  0  0  0  0
   35.9830   22.6940   31.4710 H   0  0  0  0  0  0  0  0  0  0  0  0
   37.6980   23.5660   32.9260 H   0  0  0  0  0  0  0  0  0  0  0  0
   34.7700   26.6800   30.6010 H   0  0  0  0  0  0  0  0  0  0  0  0
  1  3  1  0  0  0  0
  1  2  1  0  0  0  0
  1  5  1  0  0  0  0
  4 14  1  0  0  0  0
  5  4  2  0  0  0  0
  6  5  1  0  0  0  0
  6  8  2  0  0  0  0
  7  6  1  0  0  0  0
  8 13  1  0  0  0  0
  9  8  1  0  0  0  0
  9 10  1  0  0  0  0
 10 11  1  0  0  0  0
 10 12  2  0  0  0  0
 13 14  2  0  0  0  0
 13 12  1  0  0  0  0
 15  9  1  0  0  0  0
 16  1  1  0  0  0  0
 17 16  1  0  0  0  0
 18 16  1  0  0  0  0
 19 20  1  0  0  0  0
 20 21  2  0  0  0  0
 20 26  1  0  0  0  0
 21 16  1  0  0  0  0
 22 21  1  0  0  0  0
 23 22  2  0  0  0  0
 24 23  1  0  0  0  0
 24 19  2  0  0  0  0
 25 19  1  0  0  0  0
 27 23  1  0  0  0  0
M  END
>  <minimizedAffinity>
-4.53286409

$$$$

 OpenBabel03272509253D

 27 29  0  0  0  0  0  0  0  0999 V2000
   39.1040   22.0590   33.3080 C   0  0  0  0  0  0  0  0  0  0  0  0
   39.0420   20.9830   33.4740 H   0  0  0  0  0  0  0  0  0  0  0  0
   40.0890   22.4210   32.9460 H   0  0  0  0  0  0  0  0  0  0  0  0
   38.2590   24.0030   34.6020 C   0  0  0  0  0  3  0  0  0  0  0  0
   38.8460   22.7370   34.6210 C   0  0  0  0  0  0  0  0  0  0  0  0
   39.1360   22.2300   35.8720 C   0  0  0  0  0  0  0  0  0  0  0  0
   39.5900   21.2510   35.8840 H   0  0  0  0  0  0  0  0  0  0  0  0
   38.8460   22.9620   36.9910 C   0  0  0  0  0  0  0  0  0  0  0  0
   39.0290   22.6880   38.3050 N   0  0  0  0  0  0  0  0  0  0  0  0
   38.5740   23.7390   39.0430 C   0  0  0  0  0  0  0  0  0  0  0  0
   38.5710   23.8460   40.1250 H   0  0  0  0  0  0  0  0  0  0  0  0
   38.1020   24.6780   38.1960 N   0  0  0  0  0  0  0  0  0  0  0  0
   38.2640   24.2110   36.9410 C   0  0  0  0  0  0  0  0  0  0  0  0
   37.9550   24.7610   35.7140 C   0  0  0  0  0  3  0  0  0  0  0  0
   39.4520   21.8140   38.7090 H   0  0  0  0  0  0  0  0  0  0  0  0
   37.9900   22.4730   32.3550 C   0  0  0  0  0  0  0  0  0  0  0  0
   38.4310   22.6430   31.3340 H   0  0  0  0  0  0  0  0  0  0  0  0
   37.4940   23.3660   32.7440 H   0  0  0  0  0  0  0  0  0  0  0  0
   34.7350   20.5110   32.2210 C   0  0  0  0  0  0  0  0  0  0  0  0
   35.6230   21.5780   32.3500 C   0  0  0  0  0  0  0  0  0  0  0  0
   36.9880   21.3850   32.2290 C   0  0  0  0  0  0  0  0  0  0  0  0
   37.4010   20.1160   31.9800 N   0  0  0  0  0  0  0  0  0  0  0  0
   36.5350   19.0830   31.8550 C   0  0  0  0  0  0  0  0  0  0  0  0
   35.2050   19.2840   31.9750 N   0  0  0  0  0  0  0  0  0  0  0  0
   33.6750   20.7460   32.3290 H   0  0  0  0  0  0  0  0  0  0  0  0
   35.2410   22.5680   32.5490 H   0  0  0  0  0  0  0  0  0  0  0  0
   36.9370   18.0950   31.6550 H   0  0  0  0  0  0  0  0  0  0  0  0
  1  2  1  0  0  0  0
  1  5  1  0  0  0  0
  3  1  1  0  0  0  0
  4  5  2  0  0  0  0
  4 14  1  0  0  0  0
  5  6  1  0  0  0  0
  6  7  1  0  0  0  0
  6  8  2  0  0  0  0
  8  9  1  0  0  0  0
  9 15  1  0  0  0  0
  9 10  1  0  0  0  0
 10 11  1  0  0  0  0
 12 10  2  0  0  0  0
 13  8  1  0  0  0  0
 13 12  1  0  0  0  0
 14 13  2  0  0  0  0
 16 18  1  0  0  0  0
 16  1  1  0  0  0  0
 17 16  1  0  0  0  0
 19 25  1  0  0  0  0
 19 20  1  0  0  0  0
 20 26  1  0  0  0  0
 21 20  2  0  0  0  0
 21 16  1  0  0  0  0
 22 21  1  0  0  0  0
 23 24  1  0  0  0  0
 23 22  2  0  0  0  0
 24 19  2  0  0  0  0
 27 23  1  0  0  0  0
M  END
>  <minimizedAffinity>
-4.51412868

$$$$
