
 OpenBabel03262521093D

 27 29  0  0  0  0  0  0  0  0999 V2000
   35.1220   29.5370   46.5390 O   0  0  0  0  0  0  0  0  0  0  0  0
   34.1460   29.1550   47.6370 P   0  0  1  0  0  0  0  0  0  0  0  0
   34.4470   27.5540   48.1540 O   0  0  0  0  0  0  0  0  0  0  0  0
   33.8760   27.3680   48.9230 H   0  0  0  0  0  0  0  0  0  0  0  0
   34.3250   30.1270   49.0340 O   0  0  0  0  0  0  0  0  0  0  0  0
   35.5280   30.2520   49.7080 C   0  0  0  0  0  0  0  0  0  0  0  0
   35.9350   29.4440   50.7810 C   0  0  0  0  0  0  0  0  0  0  0  0
   37.1690   29.6830   51.3610 C   0  0  0  0  0  0  0  0  0  0  0  0
   37.9410   30.7020   50.8620 N   0  0  0  0  0  0  0  0  0  0  0  0
   37.5100   31.4710   49.8110 C   0  0  0  0  0  0  0  0  0  0  0  0
   36.3110   31.2400   49.2450 N   0  0  0  0  0  0  0  0  0  0  0  0
   35.2550   28.6880   51.0810 H   0  0  0  0  0  0  0  0  0  0  0  0
   37.4840   29.0720   52.1780 H   0  0  0  0  0  0  0  0  0  0  0  0
   38.1450   32.2720   49.4370 H   0  0  0  0  0  0  0  0  0  0  0  0
   32.5980   29.3100   47.0020 O   0  0  0  0  0  0  0  0  0  0  0  0
   31.0800   27.8230   48.2100 C   0  0  0  0  0  3  0  0  0  0  0  0
   31.5750   28.3970   47.0570 C   0  0  0  0  0  0  0  0  0  0  0  0
   31.0420   28.0740   45.8060 C   0  0  0  0  0  0  0  0  0  0  0  0
   31.3640   28.4720   44.8620 H   0  0  0  0  0  0  0  0  0  0  0  0
   29.9980   27.1550   45.7610 C   0  0  0  0  0  0  0  0  0  0  0  0
   29.2680   26.6270   44.7640 N   0  0  0  0  0  0  0  0  0  0  0  0
   28.3550   25.7600   45.2570 C   0  0  0  0  0  0  0  0  0  0  0  0
   27.6030   25.1530   44.7610 H   0  0  0  0  0  0  0  0  0  0  0  0
   28.5090   25.7350   46.6110 N   0  0  0  0  0  0  0  0  0  0  0  0
   29.5200   26.5930   46.9250 C   0  0  0  0  0  0  0  0  0  0  0  0
   30.0310   26.8960   48.1830 C   0  0  0  0  0  3  0  0  0  0  0  0
   29.3650   26.8350   43.7320 H   0  0  0  0  0  0  0  0  0  0  0  0
  2  1  2  6  0  0  0
  2  3  1  0  0  0  0
  2  5  1  0  0  0  0
  3  4  1  0  0  0  0
  5  6  1  0  0  0  0
  6  7  1  0  0  0  0
  7 12  1  0  0  0  0
  7  8  2  0  0  0  0
  8 13  1  0  0  0  0
  9  8  1  0  0  0  0
 10  9  2  0  0  0  0
 11  6  2  0  0  0  0
 11 10  1  0  0  0  0
 14 10  1  0  0  0  0
 15 17  1  0  0  0  0
 15  2  1  0  0  0  0
 17 16  2  0  0  0  0
 18 17  1  0  0  0  0
 19 18  1  0  0  0  0
 20 18  2  0  0  0  0
 20 25  1  0  0  0  0
 21 22  1  0  0  0  0
 21 20  1  0  0  0  0
 22 24  2  0  0  0  0
 23 22  1  0  0  0  0
 24 25  1  0  0  0  0
 25 26  2  0  0  0  0
 26 16  1  0  0  0  0
 27 21  1  0  0  0  0
M  END
>  <minimizedAffinity>
-4.30400229

>  <minimizedRMSD>
2.08299518

$$$$
