
 OpenBabel03262521093D

 27 29  0  0  0  0  0  0  0  0999 V2000
   35.1630   26.8580   43.4040 O   0  0  0  0  0  0  0  0  0  0  0  0
   35.9560   26.0210   42.4170 P   0  0  1  0  0  0  0  0  0  0  0  0
   36.9860   24.9480   43.2570 O   0  0  0  0  0  0  0  0  0  0  0  0
   37.4100   24.3560   42.6060 H   0  0  0  0  0  0  0  0  0  0  0  0
   34.9510   25.0280   41.4500 O   0  0  0  0  0  0  0  0  0  0  0  0
   33.6720   24.6620   41.8340 C   0  0  0  0  0  0  0  0  0  0  0  0
   33.3630   23.8960   42.9700 C   0  0  0  0  0  0  0  0  0  0  0  0
   32.0360   23.6050   43.2310 C   0  0  0  0  0  0  0  0  0  0  0  0
   31.0780   24.0760   42.3680 N   0  0  0  0  0  0  0  0  0  0  0  0
   31.4190   24.8210   41.2680 C   0  0  0  0  0  0  0  0  0  0  0  0
   32.7090   25.1070   41.0110 N   0  0  0  0  0  0  0  0  0  0  0  0
   34.1850   23.5870   43.5630 H   0  0  0  0  0  0  0  0  0  0  0  0
   31.7940   23.0230   44.0940 H   0  0  0  0  0  0  0  0  0  0  0  0
   30.6370   25.1820   40.6020 H   0  0  0  0  0  0  0  0  0  0  0  0
   36.8350   27.0850   41.4580 O   0  0  0  0  0  0  0  0  0  0  0  0
   39.2510   27.3930   41.6730 C   0  0  0  0  0  3  0  0  0  0  0  0
   37.9440   27.8110   41.8130 C   0  0  0  0  0  0  0  0  0  0  0  0
   37.6440   29.0660   42.3530 C   0  0  0  0  0  0  0  0  0  0  0  0
   36.6600   29.4720   42.4970 H   0  0  0  0  0  0  0  0  0  0  0  0
   38.7060   29.8760   42.7430 C   0  0  0  0  0  0  0  0  0  0  0  0
   38.7860   31.1040   43.2830 N   0  0  0  0  0  0  0  0  0  0  0  0
   40.0800   31.4490   43.4770 C   0  0  0  0  0  0  0  0  0  0  0  0
   40.5270   32.3510   43.8880 H   0  0  0  0  0  0  0  0  0  0  0  0
   40.8460   30.4080   43.0470 N   0  0  0  0  0  0  0  0  0  0  0  0
   40.0040   29.4370   42.5940 C   0  0  0  0  0  0  0  0  0  0  0  0
   40.3310   28.1950   42.0610 C   0  0  0  0  0  3  0  0  0  0  0  0
   37.9790   31.7390   43.5350 H   0  0  0  0  0  0  0  0  0  0  0  0
  2  3  1  0  0  0  0
  2  1  2  1  0  0  0
  4  3  1  0  0  0  0
  5  6  1  0  0  0  0
  5  2  1  0  0  0  0
  6  7  1  0  0  0  0
  7  8  2  0  0  0  0
  7 12  1  0  0  0  0
  8 13  1  0  0  0  0
  9  8  1  0  0  0  0
 10  9  2  0  0  0  0
 11 10  1  0  0  0  0
 11  6  2  0  0  0  0
 14 10  1  0  0  0  0
 15 17  1  0  0  0  0
 15  2  1  0  0  0  0
 16 17  2  0  0  0  0
 16 26  1  0  0  0  0
 17 18  1  0  0  0  0
 18 19  1  0  0  0  0
 18 20  2  0  0  0  0
 20 21  1  0  0  0  0
 21 22  1  0  0  0  0
 21 27  1  0  0  0  0
 22 23  1  0  0  0  0
 24 22  2  0  0  0  0
 25 20  1  0  0  0  0
 25 24  1  0  0  0  0
 26 25  2  0  0  0  0
M  END
>  <minimizedAffinity>
-1.90882528

>  <minimizedRMSD>
10.1464958

$$$$
