
 OpenBabel03272509013D

 34 37  0  0  0  0  0  0  0  0999 V2000
   39.3950   30.8500   50.0620 Cl  0  0  0  0  0  0  0  0  0  0  0  0
   37.7100   30.5100   49.7240 C   0  0  0  0  0  0  0  0  0  0  0  0
   37.1590   31.0090   48.5730 C   0  0  0  0  0  0  0  0  0  0  0  0
   35.8390   30.8080   48.2750 C   0  0  0  0  0  0  0  0  0  0  0  0
   35.0220   30.0890   49.1360 C   0  0  0  0  0  0  0  0  0  0  0  0
   35.5730   29.5830   50.3000 C   0  0  0  0  0  0  0  0  0  0  0  0
   34.6280   28.6590   51.4560 Cl  0  0  0  0  0  0  0  0  0  0  0  0
   36.9260   29.8090   50.5720 C   0  0  0  0  0  0  0  0  0  0  0  0
   35.3730   31.1870   47.3770 H   0  0  0  0  0  0  0  0  0  0  0  0
   33.9830   29.9270   48.9080 H   0  0  0  0  0  0  0  0  0  0  0  0
   39.6380   33.3930   47.2670 C   0  0  0  0  0  0  0  0  0  0  0  0
   39.5080   33.2380   45.8770 C   0  0  0  0  0  0  0  0  0  0  0  0
   38.5480   32.2950   45.3990 C   0  0  0  0  0  0  0  0  0  0  0  0
   37.8200   31.6060   46.3220 N   0  0  0  0  0  0  0  0  0  0  0  0
   37.9750   31.7840   47.6460 C   0  0  0  0  0  0  0  0  0  0  0  0
   38.8850   32.6770   48.0890 N   0  0  0  0  0  0  0  0  0  0  0  0
   40.3780   34.1160   47.5410 H   0  0  0  0  0  0  0  0  0  0  0  0
   40.0520   33.7490   45.1220 H   0  0  0  0  0  0  0  0  0  0  0  0
   38.3310   32.0640   44.3820 H   0  0  0  0  0  0  0  0  0  0  0  0
   37.5150   29.2440   51.8100 C   0  0  0  0  0  0  0  0  0  0  0  0
   38.1420   30.0300   52.3170 H   0  0  0  0  0  0  0  0  0  0  0  0
   36.6360   29.0510   52.4840 H   0  0  0  0  0  0  0  0  0  0  0  0
   38.7170   27.2620   50.6430 C   0  0  0  0  0  3  0  0  0  0  0  0
   38.2870   28.0210   51.6970 C   0  0  0  0  0  0  0  0  0  0  0  0
   38.7720   27.4430   52.8920 C   0  0  0  0  0  0  0  0  0  0  0  0
   38.5530   27.9050   53.8600 H   0  0  0  0  0  0  0  0  0  0  0  0
   39.5440   26.3120   53.0120 C   0  0  0  0  0  0  0  0  0  0  0  0
   40.0740   25.6530   54.0680 N   0  0  0  0  0  0  0  0  0  0  0  0
   40.7590   24.5850   53.6000 C   0  0  0  0  0  0  0  0  0  0  0  0
   41.2670   23.9150   54.2800 H   0  0  0  0  0  0  0  0  0  0  0  0
   40.6430   24.5940   52.2380 N   0  0  0  0  0  0  0  0  0  0  0  0
   39.9110   25.6340   51.8640 C   0  0  0  0  0  0  0  0  0  0  0  0
   39.4820   26.1260   50.6510 C   0  0  0  0  0  3  0  0  0  0  0  0
   39.9690   25.9260   55.0870 H   0  0  0  0  0  0  0  0  0  0  0  0
  2  1  1  0  0  0  0
  2  8  1  0  0  0  0
  3  2  2  0  0  0  0
  4  3  1  0  0  0  0
  4  5  2  0  0  0  0
  5  6  1  0  0  0  0
  6  8  2  0  0  0  0
  6  7  1  0  0  0  0
  8 20  1  0  0  0  0
  9  4  1  0  0  0  0
 10  5  1  0  0  0  0
 11 17  1  0  0  0  0
 11 16  1  0  0  0  0
 12 11  2  0  0  0  0
 13 12  1  0  0  0  0
 13 14  2  0  0  0  0
 14 15  1  0  0  0  0
 15 16  2  0  0  0  0
 15  3  1  0  0  0  0
 18 12  1  0  0  0  0
 19 13  1  0  0  0  0
 20 21  1  0  0  0  0
 20 22  1  0  0  0  0
 23 33  2  0  0  0  0
 23 24  1  0  0  0  0
 24 20  1  0  0  0  0
 24 25  2  0  0  0  0
 25 27  1  0  0  0  0
 25 26  1  0  0  0  0
 27 28  1  0  0  0  0
 28 34  1  0  0  0  0
 29 28  1  0  0  0  0
 29 30  1  0  0  0  0
 31 29  2  0  0  0  0
 32 31  1  0  0  0  0
 32 27  2  0  0  0  0
 33 32  1  0  0  0  0
M  END
>  <minimizedAffinity>
1.25735104

>  <minimizedRMSD>
2.00515151

$$$$
