
 OpenBabel03272507523D

 35 38  0  0  0  0  0  0  0  0999 V2000
   37.0620   31.3770   48.1800 N   0  0  0  0  0  0  0  0  0  0  0  0
   37.6770   32.1810   49.0400 C   0  0  0  0  0  0  0  0  0  0  0  0
   38.7500   32.9620   48.6060 C   0  0  0  0  0  0  0  0  0  0  0  0
   39.0750   32.8180   47.2870 C   0  0  0  0  0  0  0  0  0  0  0  0
   40.0550   33.5440   46.9290 O   0  0  0  0  0  0  0  0  0  0  0  0
   38.4860   32.0280   46.3990 N   0  0  0  0  0  0  0  0  0  0  0  0
   37.4530   31.2930   46.8710 C   0  0  0  0  0  0  0  0  0  0  0  0
   36.8780   30.5310   46.0300 O   0  0  0  0  0  0  0  0  0  0  0  0
   37.2780   32.1600   50.0400 H   0  0  0  0  0  0  0  0  0  0  0  0
   39.2190   33.5930   49.3190 H   0  0  0  0  0  0  0  0  0  0  0  0
   38.5700   32.7370   43.9620 C   0  0  0  0  0  3  0  0  0  0  0  0
   38.8930   31.9380   45.0310 C   0  0  0  0  0  0  0  0  0  0  0  0
   39.7430   30.8440   44.8540 C   0  0  0  0  0  0  0  0  0  0  0  0
   40.0730   30.1390   45.6160 H   0  0  0  0  0  0  0  0  0  0  0  0
   40.2690   30.5500   43.6030 C   0  0  0  0  0  0  0  0  0  0  0  0
   41.0980   29.5940   43.1020 N   0  0  0  0  0  0  0  0  0  0  0  0
   41.2690   29.8070   41.7770 C   0  0  0  0  0  0  0  0  0  0  0  0
   41.8970   29.1550   41.1810 H   0  0  0  0  0  0  0  0  0  0  0  0
   40.5430   30.9100   41.4310 N   0  0  0  0  0  0  0  0  0  0  0  0
   39.9360   31.3600   42.5380 C   0  0  0  0  0  0  0  0  0  0  0  0
   39.0960   32.4390   42.7220 C   0  0  0  0  0  3  0  0  0  0  0  0
   41.5180   28.8210   43.6970 H   0  0  0  0  0  0  0  0  0  0  0  0
   35.8480   30.1640   49.9020 C   0  0  0  0  0  0  0  0  0  0  0  0
   35.9550   30.5390   48.5470 C   0  0  0  0  0  0  0  0  0  0  0  0
   34.9920   30.0810   47.6340 C   0  0  0  0  0  0  0  0  0  0  0  0
   34.0020   29.2950   48.1140 N   0  0  0  0  0  0  0  0  0  0  0  0
   33.9000   28.9420   49.3840 C   0  0  0  0  0  0  0  0  0  0  0  0
   34.8170   29.3750   50.2710 N   0  0  0  0  0  0  0  0  0  0  0  0
   35.1020   30.3850   46.6060 H   0  0  0  0  0  0  0  0  0  0  0  0
   33.1120   28.3140   49.7770 H   0  0  0  0  0  0  0  0  0  0  0  0
   37.6560   29.8570   51.7590 C   0  0  0  0  0  0  0  0  0  0  0  0
   37.8040   28.6210   51.6640 O   0  0  0  0  0  0  0  0  0  0  0  0
   36.7560   30.5820   50.8990 N   0  0  0  0  0  0  0  0  0  0  0  0
   38.2440   30.3400   52.5220 H   0  0  0  0  0  0  0  0  0  0  0  0
   36.8320   31.6230   51.0910 H   0  0  0  0  0  0  0  0  0  0  0  0
  1 24  1  0  0  0  0
  1  2  1  0  0  0  0
  2  9  1  0  0  0  0
  3  2  2  0  0  0  0
  3 10  1  0  0  0  0
  4  3  1  0  0  0  0
  5  4  2  0  0  0  0
  6  7  1  0  0  0  0
  6  4  1  0  0  0  0
  7  1  1  0  0  0  0
  8  7  2  0  0  0  0
 11 12  1  0  0  0  0
 12  6  1  0  0  0  0
 13 12  2  0  0  0  0
 13 14  1  0  0  0  0
 15 13  1  0  0  0  0
 16 15  1  0  0  0  0
 16 22  1  0  0  0  0
 17 16  1  0  0  0  0
 18 17  1  0  0  0  0
 19 17  2  0  0  0  0
 19 20  1  0  0  0  0
 20 21  1  0  0  0  0
 20 15  2  0  0  0  0
 21 11  2  0  0  0  0
 23 28  1  0  0  0  0
 23 33  1  0  0  0  0
 24 23  2  0  0  0  0
 25 26  2  0  0  0  0
 25 24  1  0  0  0  0
 26 27  1  0  0  0  0
 27 30  1  0  0  0  0
 27 28  2  0  0  0  0
 29 25  1  0  0  0  0
 31 34  1  0  0  0  0
 32 31  2  0  0  0  0
 33 35  1  0  0  0  0
 33 31  1  0  0  0  0
M  END
>  <minimizedAffinity>
-6.99188423

>  <minimizedRMSD>
2.64680672

$$$$
