
 OpenBabel03272503053D

 35 38  0  0  0  0  0  0  0  0999 V2000
   38.0740   30.1830   47.4660 F   0  0  0  0  0  0  0  0  0  0  0  0
   38.3590   31.4150   47.9800 C   0  0  0  0  0  0  0  0  0  0  0  0
   37.7250   31.8280   49.1190 C   0  0  0  0  0  0  0  0  0  0  0  0
   38.0590   33.0740   49.5780 C   0  0  0  0  0  0  0  0  0  0  0  0
   38.9720   33.8890   48.9580 C   0  0  0  0  0  0  0  0  0  0  0  0
   39.5930   33.4370   47.8080 C   0  0  0  0  0  0  0  0  0  0  0  0
   39.2830   32.1870   47.3140 C   0  0  0  0  0  0  0  0  0  0  0  0
   37.5500   33.4090   50.4950 H   0  0  0  0  0  0  0  0  0  0  0  0
   39.1670   34.8610   49.4030 H   0  0  0  0  0  0  0  0  0  0  0  0
   40.3100   34.0800   47.3220 H   0  0  0  0  0  0  0  0  0  0  0  0
   36.1030   29.3400   51.4610 C   0  0  0  0  0  0  0  0  0  0  0  0
   37.0570   30.2000   50.8780 C   0  0  0  0  0  0  0  0  0  0  0  0
   36.7610   30.9290   49.7470 C   0  0  0  0  0  0  0  0  0  0  0  0
   35.5090   30.7780   49.2250 N   0  0  0  0  0  0  0  0  0  0  0  0
   34.6000   29.9580   49.7820 C   0  0  0  0  0  0  0  0  0  0  0  0
   34.8940   29.2560   50.8760 N   0  0  0  0  0  0  0  0  0  0  0  0
   36.3980   28.7890   52.3560 H   0  0  0  0  0  0  0  0  0  0  0  0
   38.0540   30.3440   51.2630 H   0  0  0  0  0  0  0  0  0  0  0  0
   33.6340   29.9040   49.2950 H   0  0  0  0  0  0  0  0  0  0  0  0
   39.1840   31.9720   44.9280 C   0  0  0  0  0  0  0  0  0  0  0  0
   38.1040   32.6130   45.0890 O   0  0  0  0  0  0  0  0  0  0  0  0
   39.9060   31.6870   46.1250 N   0  0  0  0  0  0  0  0  0  0  0  0
   40.7860   31.1640   46.0430 H   0  0  0  0  0  0  0  0  0  0  0  0
   40.4910   30.5490   43.5070 C   0  0  0  0  0  3  0  0  0  0  0  0
   39.5910   31.5910   43.5970 C   0  0  0  0  0  0  0  0  0  0  0  0
   39.0950   32.2500   42.4890 C   0  0  0  0  0  0  0  0  0  0  0  0
   38.3910   33.0670   42.5590 H   0  0  0  0  0  0  0  0  0  0  0  0
   39.5110   31.8550   41.2300 C   0  0  0  0  0  0  0  0  0  0  0  0
   39.2080   32.2960   39.9970 N   0  0  0  0  0  0  0  0  0  0  0  0
   39.9020   31.5500   39.1330 C   0  0  0  0  0  0  0  0  0  0  0  0
   39.8330   31.7060   38.0630 H   0  0  0  0  0  0  0  0  0  0  0  0
   40.6310   30.6480   39.8050 N   0  0  0  0  0  0  0  0  0  0  0  0
   40.4100   30.8120   41.1400 C   0  0  0  0  0  0  0  0  0  0  0  0
   40.9160   30.1430   42.2390 C   0  0  0  0  0  3  0  0  0  0  0  0
   38.5460   33.0820   39.8090 H   0  0  0  0  0  0  0  0  0  0  0  0
  1  2  1  0  0  0  0
  2  3  1  0  0  0  0
  3  4  2  0  0  0  0
  3 13  1  0  0  0  0
  4  8  1  0  0  0  0
  5  9  1  0  0  0  0
  5  4  1  0  0  0  0
  6  5  2  0  0  0  0
  7  6  1  0  0  0  0
  7  2  2  0  0  0  0
 10  6  1  0  0  0  0
 11 17  1  0  0  0  0
 12 18  1  0  0  0  0
 12 11  1  0  0  0  0
 13 12  2  0  0  0  0
 14 13  1  0  0  0  0
 14 15  2  0  0  0  0
 15 16  1  0  0  0  0
 16 11  2  0  0  0  0
 19 15  1  0  0  0  0
 20 21  2  0  0  0  0
 20 22  1  0  0  0  0
 22  7  1  0  0  0  0
 23 22  1  0  0  0  0
 24 25  1  0  0  0  0
 25 20  1  0  0  0  0
 26 27  1  0  0  0  0
 26 25  2  0  0  0  0
 28 26  1  0  0  0  0
 29 28  1  0  0  0  0
 30 32  2  0  0  0  0
 30 29  1  0  0  0  0
 31 30  1  0  0  0  0
 32 33  1  0  0  0  0
 33 28  2  0  0  0  0
 33 34  1  0  0  0  0
 34 24  2  0  0  0  0
 35 29  1  0  0  0  0
M  END
>  <minimizedAffinity>
-6.9678731

>  <minimizedRMSD>
1.0153234

$$$$
