
 OpenBabel03272508023D

 31 34  0  0  0  0  0  0  0  0999 V2000
   38.4280   31.4620   46.1540 C   0  0  0  0  0  0  0  0  0  0  0  0
   38.9450   30.4520   45.3710 C   0  0  0  0  0  0  0  0  0  0  0  0
   38.8480   30.8140   44.0220 C   0  0  0  0  0  0  0  0  0  0  0  0
   38.2640   32.0520   44.0490 N   0  0  0  0  0  0  0  0  0  0  0  0
   38.0240   32.4210   45.2920 N   0  0  0  0  0  0  0  0  0  0  0  0
   39.3530   29.5370   45.7840 H   0  0  0  0  0  0  0  0  0  0  0  0
   39.1950   30.1610   43.2520 H   0  0  0  0  0  0  0  0  0  0  0  0
   39.0180   33.1530   41.9770 C   0  0  0  0  0  3  0  0  0  0  0  0
   38.0270   32.7000   42.8110 C   0  0  0  0  0  0  0  0  0  0  0  0
   36.6810   32.8440   42.5020 C   0  0  0  0  0  0  0  0  0  0  0  0
   35.8560   32.5120   43.1120 H   0  0  0  0  0  0  0  0  0  0  0  0
   36.2870   33.4650   41.3130 C   0  0  0  0  0  0  0  0  0  0  0  0
   35.0910   33.7460   40.7470 N   0  0  0  0  0  0  0  0  0  0  0  0
   35.3420   34.3710   39.5650 C   0  0  0  0  0  0  0  0  0  0  0  0
   34.5100   34.6960   38.9240 H   0  0  0  0  0  0  0  0  0  0  0  0
   36.6750   34.4750   39.4020 N   0  0  0  0  0  0  0  0  0  0  0  0
   37.2910   33.9240   40.4670 C   0  0  0  0  0  0  0  0  0  0  0  0
   38.6210   33.7600   40.8120 C   0  0  0  0  0  3  0  0  0  0  0  0
   34.1620   33.5180   41.1550 H   0  0  0  0  0  0  0  0  0  0  0  0
   38.3330   31.4980   47.6140 C   0  0  0  0  0  0  0  0  0  0  0  0
   37.6830   30.3910   48.2450 C   0  0  0  0  0  0  0  0  0  0  0  0
   37.5920   30.4260   49.6470 C   0  0  0  0  0  0  0  0  0  0  0  0
   38.1190   31.4960   50.2960 N   0  0  0  0  0  0  0  0  0  0  0  0
   38.7250   32.5200   49.6620 C   0  0  0  0  0  0  0  0  0  0  0  0
   38.8200   32.5020   48.3220 N   0  0  0  0  0  0  0  0  0  0  0  0
   37.2910   29.5790   47.6470 H   0  0  0  0  0  0  0  0  0  0  0  0
   39.1190   33.3360   50.2540 H   0  0  0  0  0  0  0  0  0  0  0  0
   36.9260   29.2970   50.3440 C   0  0  0  0  0  0  0  0  0  0  0  0
   37.9430   28.4600   50.7650 F   0  0  0  0  0  0  0  0  0  0  0  0
   36.2090   29.6960   51.4470 F   0  0  0  0  0  0  0  0  0  0  0  0
   36.1100   28.5670   49.4820 F   0  0  0  0  0  0  0  0  0  0  0  0
  1 20  1  0  0  0  0
  2  6  1  0  0  0  0
  2  1  1  0  0  0  0
  3  4  1  0  0  0  0
  3  2  2  0  0  0  0
  4  5  1  0  0  0  0
  5  1  2  0  0  0  0
  7  3  1  0  0  0  0
  8  9  1  0  0  0  0
  9  4  1  0  0  0  0
 10  9  2  0  0  0  0
 10 11  1  0  0  0  0
 12 10  1  0  0  0  0
 13 19  1  0  0  0  0
 13 12  1  0  0  0  0
 14 13  1  0  0  0  0
 15 14  1  0  0  0  0
 16 14  2  0  0  0  0
 16 17  1  0  0  0  0
 17 18  1  0  0  0  0
 17 12  2  0  0  0  0
 18  8  2  0  0  0  0
 20 21  2  0  0  0  0
 20 25  1  0  0  0  0
 21 22  1  0  0  0  0
 22 23  2  0  0  0  0
 22 28  1  0  0  0  0
 24 27  1  0  0  0  0
 24 23  1  0  0  0  0
 25 24  2  0  0  0  0
 26 21  1  0  0  0  0
 28 29  1  0  0  0  0
 28 30  1  0  0  0  0
 31 28  1  0  0  0  0
M  END
>  <minimizedAffinity>
-6.35486937

>  <minimizedRMSD>
4.85876465

$$$$
