
 OpenBabel03262521473D

 33 35  0  0  0  0  0  0  0  0999 V2000
   34.6940   30.5810   49.1540 O   0  0  0  0  0  0  0  0  0  0  0  0
   34.4420   29.4220   50.1010 P   0  0  2  0  0  0  0  0  0  0  0  0
   32.9890   29.7580   50.8790 O   0  0  0  0  0  0  0  0  0  0  0  0
   33.1380   29.5610   51.8370 H   0  0  0  0  0  0  0  0  0  0  0  0
   35.7270   29.3680   51.2140 O   0  0  0  0  0  0  0  0  0  0  0  0
   36.9580   29.2400   50.5610 C   0  0  0  0  0  0  0  0  0  0  0  0
   36.7430   29.1070   49.4950 H   0  0  0  0  0  0  0  0  0  0  0  0
   37.4650   28.3140   50.9040 H   0  0  0  0  0  0  0  0  0  0  0  0
   37.7320   30.4950   50.7910 C   0  0  0  0  0  0  0  0  0  0  0  0
   37.2460   31.2100   51.4990 H   0  0  0  0  0  0  0  0  0  0  0  0
   38.6920   30.1840   51.2950 H   0  0  0  0  0  0  0  0  0  0  0  0
   38.1230   31.2180   49.5810 C   0  0  0  0  0  0  0  0  0  0  0  0
   38.5500   32.5320   49.5990 C   0  0  0  0  0  0  0  0  0  0  0  0
   38.9020   33.1250   48.3690 C   0  0  0  0  0  0  0  0  0  0  0  0
   38.8020   32.3730   47.2280 N   0  0  0  0  0  0  0  0  0  0  0  0
   38.3720   31.0760   47.2670 C   0  0  0  0  0  0  0  0  0  0  0  0
   38.0350   30.5090   48.4510 N   0  0  0  0  0  0  0  0  0  0  0  0
   38.5980   33.0480   50.5490 H   0  0  0  0  0  0  0  0  0  0  0  0
   39.2350   34.1430   48.3690 H   0  0  0  0  0  0  0  0  0  0  0  0
   38.3190   30.5440   46.3270 H   0  0  0  0  0  0  0  0  0  0  0  0
   34.3040   27.9750   49.2780 O   0  0  0  0  0  0  0  0  0  0  0  0
   33.8560   27.6460   46.8500 C   0  0  0  0  0  3  0  0  0  0  0  0
   33.5330   27.6800   48.1830 C   0  0  0  0  0  0  0  0  0  0  0  0
   32.2200   27.3750   48.5610 C   0  0  0  0  0  0  0  0  0  0  0  0
   31.8270   27.3640   49.5860 H   0  0  0  0  0  0  0  0  0  0  0  0
   31.2560   27.0430   47.6050 C   0  0  0  0  0  0  0  0  0  0  0  0
   29.9530   26.7090   47.6360 N   0  0  0  0  0  0  0  0  0  0  0  0
   29.5330   26.4880   46.3610 C   0  0  0  0  0  0  0  0  0  0  0  0
   28.5080   26.2020   46.1080 H   0  0  0  0  0  0  0  0  0  0  0  0
   30.5810   26.6840   45.5140 N   0  0  0  0  0  0  0  0  0  0  0  0
   31.6330   27.0220   46.2760 C   0  0  0  0  0  0  0  0  0  0  0  0
   32.9300   27.3220   45.8920 C   0  0  0  0  0  3  0  0  0  0  0  0
   29.4120   26.6470   48.5090 H   0  0  0  0  0  0  0  0  0  0  0  0
  2  1  2  6  0  0  0
  2  3  1  0  0  0  0
  2  5  1  0  0  0  0
  3  4  1  0  0  0  0
  6  9  1  0  0  0  0
  6  8  1  0  0  0  0
  6  5  1  0  0  0  0
  7  6  1  0  0  0  0
  9 11  1  0  0  0  0
  9 10  1  0  0  0  0
 12 13  1  0  0  0  0
 12  9  1  0  0  0  0
 13 18  1  0  0  0  0
 14 13  2  0  0  0  0
 15 16  2  0  0  0  0
 15 14  1  0  0  0  0
 16 17  1  0  0  0  0
 17 12  2  0  0  0  0
 19 14  1  0  0  0  0
 20 16  1  0  0  0  0
 21  2  1  0  0  0  0
 22 23  1  0  0  0  0
 23 24  2  0  0  0  0
 23 21  1  0  0  0  0
 24 25  1  0  0  0  0
 26 27  1  0  0  0  0
 26 24  1  0  0  0  0
 27 33  1  0  0  0  0
 28 27  1  0  0  0  0
 29 28  1  0  0  0  0
 30 31  1  0  0  0  0
 30 28  2  0  0  0  0
 31 26  2  0  0  0  0
 32 31  1  0  0  0  0
 32 22  2  0  0  0  0
M  END
>  <minimizedAffinity>
-5.49044847

>  <minimizedRMSD>
1.56876945

$$$$
