
 OpenBabel03262523053D

 44 49  0  0  0  0  0  0  0  0999 V2000
   37.3630   30.9820   49.5710 C   0  0  0  0  0  0  0  0  0  0  0  0
   37.5990   30.6280   50.8790 C   0  0  0  0  0  0  0  0  0  0  0  0
   36.7730   29.7160   51.4730 C   0  0  0  0  0  0  0  0  0  0  0  0
   35.7350   29.1690   50.7780 N   0  0  0  0  0  0  0  0  0  0  0  0
   35.5420   29.5410   49.5090 C   0  0  0  0  0  0  0  0  0  0  0  0
   36.3400   30.4400   48.8910 N   0  0  0  0  0  0  0  0  0  0  0  0
   38.4010   31.0410   51.4410 H   0  0  0  0  0  0  0  0  0  0  0  0
   36.9480   29.4280   52.5040 H   0  0  0  0  0  0  0  0  0  0  0  0
   34.4390   28.9570   48.7730 C   0  0  0  0  0  0  0  0  0  0  0  0
   34.4850   28.8340   47.3990 C   0  0  0  0  0  0  0  0  0  0  0  0
   33.5290   28.3080   46.5630 C   0  0  0  0  0  0  0  0  0  0  0  0
   32.3920   27.8570   47.2250 C   0  0  0  0  0  0  0  0  0  0  0  0
   31.3960   27.3200   46.4650 N   0  0  0  0  0  0  0  0  0  0  0  0
   30.2520   26.8520   47.0110 C   0  0  0  0  0  0  0  0  0  0  0  0
   30.0840   26.9210   48.3900 C   0  0  0  0  0  0  0  0  0  0  0  0
   31.1000   27.4670   49.1500 C   0  0  0  0  0  0  0  0  0  0  0  0
   32.2790   27.9480   48.5900 C   0  0  0  0  0  0  0  0  0  0  0  0
   33.2900   28.4910   49.3540 C   0  0  0  0  0  0  0  0  0  0  0  0
   35.3990   29.2010   46.9050 H   0  0  0  0  0  0  0  0  0  0  0  0
   33.6830   28.2670   45.5030 H   0  0  0  0  0  0  0  0  0  0  0  0
   29.4680   26.4280   46.3960 H   0  0  0  0  0  0  0  0  0  0  0  0
   29.1940   26.5650   48.8960 H   0  0  0  0  0  0  0  0  0  0  0  0
   30.9660   27.5190   50.2410 H   0  0  0  0  0  0  0  0  0  0  0  0
   33.1840   28.5560   50.4290 H   0  0  0  0  0  0  0  0  0  0  0  0
   39.4620   33.9110   48.8530 C   0  0  0  0  0  0  0  0  0  0  0  0
   39.8180   33.7030   47.5060 C   0  0  0  0  0  0  0  0  0  0  0  0
   39.3220   32.5470   46.8670 C   0  0  0  0  0  0  0  0  0  0  0  0
   38.5390   31.7160   47.5910 N   0  0  0  0  0  0  0  0  0  0  0  0
   38.2190   31.9540   48.8910 C   0  0  0  0  0  0  0  0  0  0  0  0
   38.6810   33.0470   49.5130 N   0  0  0  0  0  0  0  0  0  0  0  0
   39.8480   34.8010   49.3370 H   0  0  0  0  0  0  0  0  0  0  0  0
   40.4450   34.3720   46.9350 H   0  0  0  0  0  0  0  0  0  0  0  0
   39.2270   33.1210   44.5300 C   0  0  0  0  0  0  0  0  0  0  0  0
   39.6060   32.2060   45.4840 C   0  0  0  0  0  0  0  0  0  0  0  0
   40.2220   31.0420   45.0920 C   0  0  0  0  0  0  0  0  0  0  0  0
   40.5230   30.3200   45.8180 H   0  0  0  0  0  0  0  0  0  0  0  0
   40.4780   30.7490   43.7700 C   0  0  0  0  0  0  0  0  0  0  0  0
   41.0550   29.7020   43.1260 N   0  0  0  0  0  0  0  0  0  0  0  0
   41.0260   29.9790   41.8040 C   0  0  0  0  0  0  0  0  0  0  0  0
   41.4530   29.2330   41.1500 H   0  0  0  0  0  0  0  0  0  0  0  0
   40.4370   31.1800   41.6440 N   0  0  0  0  0  0  0  0  0  0  0  0
   40.0860   31.6850   42.8350 C   0  0  0  0  0  0  0  0  0  0  0  0
   39.4650   32.8690   43.1740 C   0  0  0  0  0  0  0  0  0  0  0  0
   41.4210   28.8820   43.6660 H   0  0  0  0  0  0  0  0  0  0  0  0
  1  2  1  0  0  0  0
  2  7  1  0  0  0  0
  2  3  2  0  0  0  0
  3  8  1  0  0  0  0
  4  3  1  0  0  0  0
  5  4  2  0  0  0  0
  6  5  1  0  0  0  0
  6  1  2  0  0  0  0
  9 18  1  0  0  0  0
  9  5  1  0  0  0  0
 10  9  2  0  0  0  0
 11 12  2  0  0  0  0
 11 10  1  0  0  0  0
 12 17  1  0  0  0  0
 13 14  2  0  0  0  0
 13 12  1  0  0  0  0
 14 15  1  0  0  0  0
 15 22  1  0  0  0  0
 15 16  2  0  0  0  0
 16 23  1  0  0  0  0
 17 16  1  0  0  0  0
 17 18  2  0  0  0  0
 18 24  1  0  0  0  0
 19 10  1  0  0  0  0
 20 11  1  0  0  0  0
 21 14  1  0  0  0  0
 25 31  1  0  0  0  0
 25 30  1  0  0  0  0
 26 25  2  0  0  0  0
 27 26  1  0  0  0  0
 27 28  2  0  0  0  0
 28 29  1  0  0  0  0
 29 30  2  0  0  0  0
 29  1  1  0  0  0  0
 32 26  1  0  0  0  0
 33 34  1  0  0  0  0
 34 27  1  0  0  0  0
 35 34  2  0  0  0  0
 35 36  1  0  0  0  0
 37 35  1  0  0  0  0
 38 44  1  0  0  0  0
 38 37  1  0  0  0  0
 39 38  1  0  0  0  0
 40 39  1  0  0  0  0
 41 39  2  0  0  0  0
 41 42  1  0  0  0  0
 42 43  1  0  0  0  0
 42 37  2  0  0  0  0
 43 33  2  0  0  0  0
M  END
>  <minimizedAffinity>
-8.53831959

>  <minimizedRMSD>
0.566530228

$$$$
