
 OpenBabel03262521103D

 27 29  0  0  0  0  0  0  0  0999 V2000
   38.9720   27.4640   35.5210 O   0  0  0  0  0  0  0  0  0  0  0  0
   37.7760   26.7930   34.8690 P   0  0  1  0  0  0  0  0  0  0  0  0
   36.4970   27.9130   34.7030 O   0  0  0  0  0  0  0  0  0  0  0  0
   35.7800   27.4870   34.1960 H   0  0  0  0  0  0  0  0  0  0  0  0
   38.1190   26.2510   33.2830 O   0  0  0  0  0  0  0  0  0  0  0  0
   37.1830   25.5950   32.5000 C   0  0  0  0  0  0  0  0  0  0  0  0
   37.1290   24.2060   32.3070 C   0  0  0  0  0  0  0  0  0  0  0  0
   36.1350   23.6880   31.4950 C   0  0  0  0  0  0  0  0  0  0  0  0
   35.2460   24.5550   30.9120 N   0  0  0  0  0  0  0  0  0  0  0  0
   35.3310   25.9080   31.1240 C   0  0  0  0  0  0  0  0  0  0  0  0
   36.2950   26.4150   31.9140 N   0  0  0  0  0  0  0  0  0  0  0  0
   37.8690   23.6360   32.8080 H   0  0  0  0  0  0  0  0  0  0  0  0
   36.0890   22.6310   31.3450 H   0  0  0  0  0  0  0  0  0  0  0  0
   34.6100   26.5710   30.6480 H   0  0  0  0  0  0  0  0  0  0  0  0
   37.3340   25.5040   35.8530 O   0  0  0  0  0  0  0  0  0  0  0  0
   38.1050   24.2320   37.7930 C   0  0  0  0  0  3  0  0  0  0  0  0
   38.1600   24.5930   36.4630 C   0  0  0  0  0  0  0  0  0  0  0  0
   39.1090   24.0310   35.6020 C   0  0  0  0  0  0  0  0  0  0  0  0
   39.2230   24.2530   34.5580 H   0  0  0  0  0  0  0  0  0  0  0  0
   39.9920   23.0960   36.1310 C   0  0  0  0  0  0  0  0  0  0  0  0
   41.0010   22.3760   35.6130 N   0  0  0  0  0  0  0  0  0  0  0  0
   41.5600   21.5940   36.5660 C   0  0  0  0  0  0  0  0  0  0  0  0
   42.3840   20.8880   36.5190 H   0  0  0  0  0  0  0  0  0  0  0  0
   40.8850   21.8250   37.7260 N   0  0  0  0  0  0  0  0  0  0  0  0
   39.9190   22.7490   37.4630 C   0  0  0  0  0  0  0  0  0  0  0  0
   38.9870   23.2930   38.3410 C   0  0  0  0  0  3  0  0  0  0  0  0
   41.3380   22.3890   34.6110 H   0  0  0  0  0  0  0  0  0  0  0  0
  2  1  2  1  0  0  0
  2 15  1  0  0  0  0
  3  2  1  0  0  0  0
  4  3  1  0  0  0  0
  5  2  1  0  0  0  0
  6  5  1  0  0  0  0
  7  6  1  0  0  0  0
  7 12  1  0  0  0  0
  8  7  2  0  0  0  0
  9 10  2  0  0  0  0
  9  8  1  0  0  0  0
 10 11  1  0  0  0  0
 11  6  2  0  0  0  0
 13  8  1  0  0  0  0
 14 10  1  0  0  0  0
 15 17  1  0  0  0  0
 16 26  1  0  0  0  0
 17 16  2  0  0  0  0
 18 20  2  0  0  0  0
 18 17  1  0  0  0  0
 19 18  1  0  0  0  0
 20 25  1  0  0  0  0
 21 20  1  0  0  0  0
 21 22  1  0  0  0  0
 22 24  2  0  0  0  0
 23 22  1  0  0  0  0
 25 24  1  0  0  0  0
 25 26  2  0  0  0  0
 27 21  1  0  0  0  0
M  END
>  <minimizedAffinity>
-5.2963748

$$$$

 OpenBabel03262521103D

 27 29  0  0  0  0  0  0  0  0999 V2000
   39.5220   27.0660   34.1310 O   0  0  0  0  0  0  0  0  0  0  0  0
   38.3010   26.9210   35.0210 P   0  0  1  0  0  0  0  0  0  0  0  0
   38.5920   27.6600   36.5340 O   0  0  0  0  0  0  0  0  0  0  0  0
   37.7630   27.6400   37.0500 H   0  0  0  0  0  0  0  0  0  0  0  0
   36.9290   27.7160   34.3790 O   0  0  0  0  0  0  0  0  0  0  0  0
   36.7120   27.8490   33.0180 C   0  0  0  0  0  0  0  0  0  0  0  0
   36.5220   29.0690   32.3500 C   0  0  0  0  0  0  0  0  0  0  0  0
   36.3150   29.0500   30.9810 C   0  0  0  0  0  0  0  0  0  0  0  0
   36.3030   27.8390   30.3370 N   0  0  0  0  0  0  0  0  0  0  0  0
   36.4930   26.6660   31.0240 C   0  0  0  0  0  0  0  0  0  0  0  0
   36.6950   26.6810   32.3540 N   0  0  0  0  0  0  0  0  0  0  0  0
   36.5510   29.9400   32.9520 H   0  0  0  0  0  0  0  0  0  0  0  0
   36.1700   29.9750   30.4670 H   0  0  0  0  0  0  0  0  0  0  0  0
   36.4790   25.7210   30.4840 H   0  0  0  0  0  0  0  0  0  0  0  0
   38.0050   25.2750   35.1930 O   0  0  0  0  0  0  0  0  0  0  0  0
   38.4420   24.0580   37.2680 C   0  0  0  0  0  3  0  0  0  0  0  0
   38.7080   24.3730   35.9510 C   0  0  0  0  0  0  0  0  0  0  0  0
   39.7650   23.7650   35.2650 C   0  0  0  0  0  0  0  0  0  0  0  0
   40.0420   23.9500   34.2440 H   0  0  0  0  0  0  0  0  0  0  0  0
   40.5370   22.8340   35.9520 C   0  0  0  0  0  0  0  0  0  0  0  0
   41.5970   22.0800   35.6180 N   0  0  0  0  0  0  0  0  0  0  0  0
   41.9860   21.3220   36.6690 C   0  0  0  0  0  0  0  0  0  0  0  0
   42.7920   20.6020   36.7720 H   0  0  0  0  0  0  0  0  0  0  0  0
   41.1460   21.6040   37.7040 N   0  0  0  0  0  0  0  0  0  0  0  0
   40.2530   22.5340   37.2670 C   0  0  0  0  0  0  0  0  0  0  0  0
   39.2090   23.1230   37.9730 C   0  0  0  0  0  3  0  0  0  0  0  0
   42.0840   22.0540   34.6790 H   0  0  0  0  0  0  0  0  0  0  0  0
  2  1  2  6  0  0  0
  2 15  1  0  0  0  0
  2  3  1  0  0  0  0
  3  4  1  0  0  0  0
  5  2  1  0  0  0  0
  6  5  1  0  0  0  0
  7 12  1  0  0  0  0
  7  6  2  0  0  0  0
  8  7  1  0  0  0  0
  9  8  2  0  0  0  0
  9 10  1  0  0  0  0
 10 11  2  0  0  0  0
 11  6  1  0  0  0  0
 13  8  1  0  0  0  0
 14 10  1  0  0  0  0
 15 17  1  0  0  0  0
 16 26  1  0  0  0  0
 17 16  2  0  0  0  0
 18 17  1  0  0  0  0
 18 20  2  0  0  0  0
 19 18  1  0  0  0  0
 20 25  1  0  0  0  0
 21 20  1  0  0  0  0
 21 22  1  0  0  0  0
 22 23  1  0  0  0  0
 22 24  2  0  0  0  0
 25 24  1  0  0  0  0
 25 26  2  0  0  0  0
 27 21  1  0  0  0  0
M  END
>  <minimizedAffinity>
-5.1995697

$$$$

 OpenBabel03262521103D

 27 29  0  0  0  0  0  0  0  0999 V2000
   39.1600   27.1420   33.8150 O   0  0  0  0  0  0  0  0  0  0  0  0
   38.2630   26.8210   34.9960 P   0  0  1  0  0  0  0  0  0  0  0  0
   38.7560   27.7180   36.3640 O   0  0  0  0  0  0  0  0  0  0  0  0
   38.1080   27.5680   37.0790 H   0  0  0  0  0  0  0  0  0  0  0  0
   36.6340   27.2680   34.7190 O   0  0  0  0  0  0  0  0  0  0  0  0
   36.2820   28.3500   33.9300 C   0  0  0  0  0  0  0  0  0  0  0  0
   36.3290   28.3710   32.5270 C   0  0  0  0  0  0  0  0  0  0  0  0
   35.9450   29.5260   31.8680 C   0  0  0  0  0  0  0  0  0  0  0  0
   35.5360   30.6020   32.6150 N   0  0  0  0  0  0  0  0  0  0  0  0
   35.5040   30.5440   33.9850 C   0  0  0  0  0  0  0  0  0  0  0  0
   35.8750   29.4220   34.6290 N   0  0  0  0  0  0  0  0  0  0  0  0
   36.6620   27.4810   32.0580 H   0  0  0  0  0  0  0  0  0  0  0  0
   35.9800   29.5480   30.8010 H   0  0  0  0  0  0  0  0  0  0  0  0
   35.1730   31.4140   34.5510 H   0  0  0  0  0  0  0  0  0  0  0  0
   38.3830   25.1670   35.2750 O   0  0  0  0  0  0  0  0  0  0  0  0
   40.7520   24.6470   34.9670 C   0  0  0  0  0  3  0  0  0  0  0  0
   39.5180   24.4450   35.5480 C   0  0  0  0  0  0  0  0  0  0  0  0
   39.3270   23.4400   36.5030 C   0  0  0  0  0  0  0  0  0  0  0  0
   38.4050   23.2130   37.0040 H   0  0  0  0  0  0  0  0  0  0  0  0
   40.4220   22.6540   36.8460 C   0  0  0  0  0  0  0  0  0  0  0  0
   40.5990   21.6300   37.6970 N   0  0  0  0  0  0  0  0  0  0  0  0
   41.8820   21.2020   37.6590 C   0  0  0  0  0  0  0  0  0  0  0  0
   42.3880   20.4070   38.2010 H   0  0  0  0  0  0  0  0  0  0  0  0
   42.5420   21.9790   36.7550 N   0  0  0  0  0  0  0  0  0  0  0  0
   41.6470   22.8730   36.2520 C   0  0  0  0  0  0  0  0  0  0  0  0
   41.8630   23.8650   35.3000 C   0  0  0  0  0  3  0  0  0  0  0  0
   39.8670   21.1940   38.3230 H   0  0  0  0  0  0  0  0  0  0  0  0
  2  1  2  6  0  0  0
  2 15  1  0  0  0  0
  2  3  1  0  0  0  0
  3  4  1  0  0  0  0
  5  2  1  0  0  0  0
  6 11  1  0  0  0  0
  6  5  1  0  0  0  0
  7  6  2  0  0  0  0
  8  7  1  0  0  0  0
  8  9  2  0  0  0  0
  9 10  1  0  0  0  0
 10 14  1  0  0  0  0
 10 11  2  0  0  0  0
 12  7  1  0  0  0  0
 13  8  1  0  0  0  0
 15 17  1  0  0  0  0
 16 26  2  0  0  0  0
 16 17  1  0  0  0  0
 17 18  2  0  0  0  0
 18 20  1  0  0  0  0
 18 19  1  0  0  0  0
 20 21  1  0  0  0  0
 21 27  1  0  0  0  0
 22 21  1  0  0  0  0
 22 23  1  0  0  0  0
 24 22  2  0  0  0  0
 25 24  1  0  0  0  0
 25 20  2  0  0  0  0
 26 25  1  0  0  0  0
M  END
>  <minimizedAffinity>
-5.17715311

$$$$

 OpenBabel03262521103D

 27 29  0  0  0  0  0  0  0  0999 V2000
   37.0610   27.9240   34.8990 O   0  0  0  0  0  0  0  0  0  0  0  0
   37.9690   26.7080   34.9490 P   0  0  1  0  0  0  0  0  0  0  0  0
   39.4720   27.1300   35.6440 O   0  0  0  0  0  0  0  0  0  0  0  0
   39.9980   26.3150   35.7540 H   0  0  0  0  0  0  0  0  0  0  0  0
   37.3380   25.4650   35.9410 O   0  0  0  0  0  0  0  0  0  0  0  0
   38.1470   24.5930   36.6500 C   0  0  0  0  0  0  0  0  0  0  0  0
   37.9570   24.2330   37.9930 C   0  0  0  0  0  0  0  0  0  0  0  0
   38.8480   23.3470   38.5750 C   0  0  0  0  0  0  0  0  0  0  0  0
   39.8800   22.8600   37.8120 N   0  0  0  0  0  0  0  0  0  0  0  0
   40.0340   23.2360   36.5020 C   0  0  0  0  0  0  0  0  0  0  0  0
   39.1690   24.0960   35.9340 N   0  0  0  0  0  0  0  0  0  0  0  0
   37.1260   24.6730   38.4820 H   0  0  0  0  0  0  0  0  0  0  0  0
   38.7090   23.0690   39.5970 H   0  0  0  0  0  0  0  0  0  0  0  0
   40.8620   22.8310   35.9220 H   0  0  0  0  0  0  0  0  0  0  0  0
   38.1580   26.1650   33.3690 O   0  0  0  0  0  0  0  0  0  0  0  0
   36.2770   25.5210   31.9480 C   0  0  0  0  0  3  0  0  0  0  0  0
   37.3950   25.2380   32.7050 C   0  0  0  0  0  0  0  0  0  0  0  0
   37.8490   23.9240   32.8570 C   0  0  0  0  0  0  0  0  0  0  0  0
   38.7060   23.6150   33.4250 H   0  0  0  0  0  0  0  0  0  0  0  0
   37.1380   22.9130   32.2190 C   0  0  0  0  0  0  0  0  0  0  0  0
   37.2820   21.5790   32.1480 N   0  0  0  0  0  0  0  0  0  0  0  0
   36.3050   21.0400   31.3830 C   0  0  0  0  0  0  0  0  0  0  0  0
   36.1020   20.0100   31.1040 H   0  0  0  0  0  0  0  0  0  0  0  0
   35.5150   22.0630   30.9540 N   0  0  0  0  0  0  0  0  0  0  0  0
   36.0240   23.2180   31.4670 C   0  0  0  0  0  0  0  0  0  0  0  0
   35.5500   24.5150   31.3000 C   0  0  0  0  0  3  0  0  0  0  0  0
   38.0380   21.0000   32.6080 H   0  0  0  0  0  0  0  0  0  0  0  0
  2  1  2  1  0  0  0
  2  3  1  0  0  0  0
  2  5  1  0  0  0  0
  3  4  1  0  0  0  0
  5  6  1  0  0  0  0
  6  7  1  0  0  0  0
  7 12  1  0  0  0  0
  7  8  2  0  0  0  0
  8 13  1  0  0  0  0
  9  8  1  0  0  0  0
 10  9  2  0  0  0  0
 11 10  1  0  0  0  0
 11  6  2  0  0  0  0
 14 10  1  0  0  0  0
 15  2  1  0  0  0  0
 16 17  1  0  0  0  0
 17 18  2  0  0  0  0
 17 15  1  0  0  0  0
 18 19  1  0  0  0  0
 20 18  1  0  0  0  0
 21 20  1  0  0  0  0
 21 27  1  0  0  0  0
 22 21  1  0  0  0  0
 23 22  1  0  0  0  0
 24 22  2  0  0  0  0
 24 25  1  0  0  0  0
 25 20  2  0  0  0  0
 26 25  1  0  0  0  0
 26 16  2  0  0  0  0
M  END
>  <minimizedAffinity>
-5.11961031

$$$$

 OpenBabel03262521103D

 27 29  0  0  0  0  0  0  0  0999 V2000
   37.1140   27.9720   34.9230 O   0  0  0  0  0  0  0  0  0  0  0  0
   37.9840   26.7310   34.9990 P   0  0  1  0  0  0  0  0  0  0  0  0
   39.5190   27.1330   35.6350 O   0  0  0  0  0  0  0  0  0  0  0  0
   40.0230   26.3070   35.7650 H   0  0  0  0  0  0  0  0  0  0  0  0
   37.3450   25.5500   36.0610 O   0  0  0  0  0  0  0  0  0  0  0  0
   38.1440   24.6390   36.7320 C   0  0  0  0  0  0  0  0  0  0  0  0
   37.9780   24.2620   38.0730 C   0  0  0  0  0  0  0  0  0  0  0  0
   38.8540   23.3370   38.6150 C   0  0  0  0  0  0  0  0  0  0  0  0
   39.8480   22.8290   37.8160 N   0  0  0  0  0  0  0  0  0  0  0  0
   39.9780   23.2220   36.5080 C   0  0  0  0  0  0  0  0  0  0  0  0
   39.1280   24.1210   35.9790 N   0  0  0  0  0  0  0  0  0  0  0  0
   37.1760   24.7200   38.5920 H   0  0  0  0  0  0  0  0  0  0  0  0
   38.7330   23.0460   39.6350 H   0  0  0  0  0  0  0  0  0  0  0  0
   40.7760   22.8010   35.8990 H   0  0  0  0  0  0  0  0  0  0  0  0
   38.1120   26.1180   33.4400 O   0  0  0  0  0  0  0  0  0  0  0  0
   39.8150   27.0710   31.9670 C   0  0  0  0  0  3  0  0  0  0  0  0
   38.5090   26.7840   32.3070 C   0  0  0  0  0  0  0  0  0  0  0  0
   37.4470   27.1730   31.4830 C   0  0  0  0  0  0  0  0  0  0  0  0
   36.4050   26.9930   31.6700 H   0  0  0  0  0  0  0  0  0  0  0  0
   37.7520   27.8560   30.3110 C   0  0  0  0  0  0  0  0  0  0  0  0
   37.0090   28.3660   29.3140 N   0  0  0  0  0  0  0  0  0  0  0  0
   37.8020   28.9470   28.3850 C   0  0  0  0  0  0  0  0  0  0  0  0
   37.5620   29.4550   27.4550 H   0  0  0  0  0  0  0  0  0  0  0  0
   39.0900   28.8030   28.8040 N   0  0  0  0  0  0  0  0  0  0  0  0
   39.0640   28.1320   29.9900 C   0  0  0  0  0  0  0  0  0  0  0  0
   40.1370   27.7580   30.7910 C   0  0  0  0  0  3  0  0  0  0  0  0
   35.9550   28.3360   29.2320 H   0  0  0  0  0  0  0  0  0  0  0  0
  2  1  2  6  0  0  0
  2  3  1  0  0  0  0
  2  5  1  0  0  0  0
  3  4  1  0  0  0  0
  5  6  1  0  0  0  0
  6  7  1  0  0  0  0
  7 12  1  0  0  0  0
  7  8  2  0  0  0  0
  8 13  1  0  0  0  0
  9  8  1  0  0  0  0
 10  9  2  0  0  0  0
 11 10  1  0  0  0  0
 11  6  2  0  0  0  0
 14 10  1  0  0  0  0
 15  2  1  0  0  0  0
 16 17  1  0  0  0  0
 17 15  1  0  0  0  0
 18 19  1  0  0  0  0
 18 17  2  0  0  0  0
 20 18  1  0  0  0  0
 21 20  1  0  0  0  0
 22 24  2  0  0  0  0
 22 21  1  0  0  0  0
 23 22  1  0  0  0  0
 24 25  1  0  0  0  0
 25 20  2  0  0  0  0
 25 26  1  0  0  0  0
 26 16  2  0  0  0  0
 27 21  1  0  0  0  0
M  END
>  <minimizedAffinity>
-4.98962069

$$$$

 OpenBabel03262521103D

 27 29  0  0  0  0  0  0  0  0999 V2000
   34.9950   25.2930   30.7510 O   0  0  0  0  0  0  0  0  0  0  0  0
   36.3350   25.4220   31.4530 P   0  0  1  0  0  0  0  0  0  0  0  0
   37.5720   25.6900   30.3050 O   0  0  0  0  0  0  0  0  0  0  0  0
   38.4030   25.8660   30.7860 H   0  0  0  0  0  0  0  0  0  0  0  0
   36.3910   26.7680   32.5080 O   0  0  0  0  0  0  0  0  0  0  0  0
   37.3710   26.9190   33.4750 C   0  0  0  0  0  0  0  0  0  0  0  0
   37.1300   27.2440   34.8190 C   0  0  0  0  0  0  0  0  0  0  0  0
   38.2100   27.3620   35.6760 C   0  0  0  0  0  0  0  0  0  0  0  0
   39.4710   27.1580   35.1740 N   0  0  0  0  0  0  0  0  0  0  0  0
   39.6670   26.8410   33.8540 C   0  0  0  0  0  0  0  0  0  0  0  0
   38.6190   26.7250   33.0180 N   0  0  0  0  0  0  0  0  0  0  0  0
   36.1150   27.3790   35.0920 H   0  0  0  0  0  0  0  0  0  0  0  0
   38.0330   27.6100   36.7000 H   0  0  0  0  0  0  0  0  0  0  0  0
   40.6790   26.6840   33.4850 H   0  0  0  0  0  0  0  0  0  0  0  0
   36.5890   23.9940   32.3020 O   0  0  0  0  0  0  0  0  0  0  0  0
   35.3580   21.8900   32.1170 C   0  0  0  0  0  3  0  0  0  0  0  0
   36.4350   22.7090   31.8450 C   0  0  0  0  0  0  0  0  0  0  0  0
   37.4950   22.2650   31.0470 C   0  0  0  0  0  0  0  0  0  0  0  0
   38.3680   22.8330   30.7860 H   0  0  0  0  0  0  0  0  0  0  0  0
   37.4270   20.9730   30.5370 C   0  0  0  0  0  0  0  0  0  0  0  0
   38.2400   20.2390   29.7590 N   0  0  0  0  0  0  0  0  0  0  0  0
   37.7070   19.0140   29.5450 C   0  0  0  0  0  0  0  0  0  0  0  0
   38.0720   18.1650   28.9740 H   0  0  0  0  0  0  0  0  0  0  0  0
   36.5190   18.9680   30.2080 N   0  0  0  0  0  0  0  0  0  0  0  0
   36.3420   20.1720   30.8210 C   0  0  0  0  0  0  0  0  0  0  0  0
   35.2760   20.5870   31.6110 C   0  0  0  0  0  3  0  0  0  0  0  0
   39.1680   20.5410   29.3520 H   0  0  0  0  0  0  0  0  0  0  0  0
  2  1  2  6  0  0  0
  2 15  1  0  0  0  0
  2  5  1  0  0  0  0
  3  4  1  0  0  0  0
  3  2  1  0  0  0  0
  5  6  1  0  0  0  0
  6  7  1  0  0  0  0
  7 12  1  0  0  0  0
  7  8  2  0  0  0  0
  8 13  1  0  0  0  0
  9  8  1  0  0  0  0
 10  9  2  0  0  0  0
 11  6  2  0  0  0  0
 11 10  1  0  0  0  0
 14 10  1  0  0  0  0
 17 16  1  0  0  0  0
 17 15  1  0  0  0  0
 18 17  2  0  0  0  0
 19 18  1  0  0  0  0
 20 25  2  0  0  0  0
 20 18  1  0  0  0  0
 21 20  1  0  0  0  0
 22 21  1  0  0  0  0
 22 24  2  0  0  0  0
 23 22  1  0  0  0  0
 24 25  1  0  0  0  0
 25 26  1  0  0  0  0
 26 16  2  0  0  0  0
 27 21  1  0  0  0  0
M  END
>  <minimizedAffinity>
-4.81511545

$$$$

 OpenBabel03262521103D

 27 29  0  0  0  0  0  0  0  0999 V2000
   37.7530   28.7020   31.2240 O   0  0  0  0  0  0  0  0  0  0  0  0
   36.4150   28.0110   31.4160 P   0  0  1  0  0  0  0  0  0  0  0  0
   36.0420   27.0680   30.0410 O   0  0  0  0  0  0  0  0  0  0  0  0
   35.2300   26.5600   30.2290 H   0  0  0  0  0  0  0  0  0  0  0  0
   36.4310   26.9170   32.7320 O   0  0  0  0  0  0  0  0  0  0  0  0
   37.4370   26.9080   33.6840 C   0  0  0  0  0  0  0  0  0  0  0  0
   37.3620   27.5360   34.9360 C   0  0  0  0  0  0  0  0  0  0  0  0
   38.4480   27.4440   35.7900 C   0  0  0  0  0  0  0  0  0  0  0  0
   39.5520   26.7440   35.3730 N   0  0  0  0  0  0  0  0  0  0  0  0
   39.5880   26.1430   34.1400 C   0  0  0  0  0  0  0  0  0  0  0  0
   38.5340   26.2300   33.3090 N   0  0  0  0  0  0  0  0  0  0  0  0
   36.4600   28.0490   35.1490 H   0  0  0  0  0  0  0  0  0  0  0  0
   38.3970   27.9200   36.7450 H   0  0  0  0  0  0  0  0  0  0  0  0
   40.4780   25.5930   33.8380 H   0  0  0  0  0  0  0  0  0  0  0  0
   35.2660   29.2140   31.6610 O   0  0  0  0  0  0  0  0  0  0  0  0
   33.5290   29.3750   33.3740 C   0  0  0  0  0  3  0  0  0  0  0  0
   34.7740   29.6710   32.8580 C   0  0  0  0  0  0  0  0  0  0  0  0
   35.6640   30.4980   33.5520 C   0  0  0  0  0  0  0  0  0  0  0  0
   36.6480   30.7790   33.2260 H   0  0  0  0  0  0  0  0  0  0  0  0
   35.2530   31.0100   34.7780 C   0  0  0  0  0  0  0  0  0  0  0  0
   35.8290   31.8130   35.6890 N   0  0  0  0  0  0  0  0  0  0  0  0
   34.9920   32.0170   36.7320 C   0  0  0  0  0  0  0  0  0  0  0  0
   35.1120   32.6000   37.6410 H   0  0  0  0  0  0  0  0  0  0  0  0
   33.8490   31.3230   36.4770 N   0  0  0  0  0  0  0  0  0  0  0  0
   34.0050   30.7020   35.2750 C   0  0  0  0  0  0  0  0  0  0  0  0
   33.1010   29.8830   34.6050 C   0  0  0  0  0  3  0  0  0  0  0  0
   36.7940   32.2410   35.6340 H   0  0  0  0  0  0  0  0  0  0  0  0
  2  1  2  6  0  0  0
  2 15  1  0  0  0  0
  2  5  1  0  0  0  0
  3  4  1  0  0  0  0
  3  2  1  0  0  0  0
  5  6  1  0  0  0  0
  6  7  1  0  0  0  0
  7 12  1  0  0  0  0
  7  8  2  0  0  0  0
  8 13  1  0  0  0  0
  9  8  1  0  0  0  0
 10  9  2  0  0  0  0
 11  6  2  0  0  0  0
 11 10  1  0  0  0  0
 14 10  1  0  0  0  0
 15 17  1  0  0  0  0
 16 26  1  0  0  0  0
 17 16  2  0  0  0  0
 17 18  1  0  0  0  0
 18 20  2  0  0  0  0
 19 18  1  0  0  0  0
 20 25  1  0  0  0  0
 20 21  1  0  0  0  0
 21 22  1  0  0  0  0
 22 23  1  0  0  0  0
 24 22  2  0  0  0  0
 25 24  1  0  0  0  0
 26 25  2  0  0  0  0
 27 21  1  0  0  0  0
M  END
>  <minimizedAffinity>
-4.77630329

$$$$

 OpenBabel03262521103D

 27 29  0  0  0  0  0  0  0  0999 V2000
   35.7200   25.5800   30.9120 O   0  0  0  0  0  0  0  0  0  0  0  0
   36.2290   26.9860   31.1740 P   0  0  1  0  0  0  0  0  0  0  0  0
   36.4910   27.7970   29.6920 O   0  0  0  0  0  0  0  0  0  0  0  0
   36.7230   28.7250   29.8880 H   0  0  0  0  0  0  0  0  0  0  0  0
   35.0940   27.9420   32.0240 O   0  0  0  0  0  0  0  0  0  0  0  0
   35.3640   29.2390   32.4280 C   0  0  0  0  0  0  0  0  0  0  0  0
   35.1650   29.7340   33.7270 C   0  0  0  0  0  0  0  0  0  0  0  0
   35.4800   31.0560   33.9880 C   0  0  0  0  0  0  0  0  0  0  0  0
   35.9730   31.8270   32.9650 N   0  0  0  0  0  0  0  0  0  0  0  0
   36.1540   31.3080   31.7080 C   0  0  0  0  0  0  0  0  0  0  0  0
   35.8490   30.0230   31.4510 N   0  0  0  0  0  0  0  0  0  0  0  0
   34.7790   29.0460   34.4350 H   0  0  0  0  0  0  0  0  0  0  0  0
   35.3310   31.4380   34.9740 H   0  0  0  0  0  0  0  0  0  0  0  0
   36.5470   31.9450   30.9170 H   0  0  0  0  0  0  0  0  0  0  0  0
   37.6560   26.8420   32.0500 O   0  0  0  0  0  0  0  0  0  0  0  0
   37.8810   27.3360   34.4340 C   0  0  0  0  0  3  0  0  0  0  0  0
   37.7980   26.4700   33.3640 C   0  0  0  0  0  0  0  0  0  0  0  0
   37.8570   25.0850   33.5520 C   0  0  0  0  0  0  0  0  0  0  0  0
   37.8000   24.3400   32.7800 H   0  0  0  0  0  0  0  0  0  0  0  0
   38.0000   24.6110   34.8520 C   0  0  0  0  0  0  0  0  0  0  0  0
   38.0890   23.3830   35.3880 N   0  0  0  0  0  0  0  0  0  0  0  0
   38.2220   23.4630   36.7320 C   0  0  0  0  0  0  0  0  0  0  0  0
   38.3200   22.6900   37.4890 H   0  0  0  0  0  0  0  0  0  0  0  0
   38.2170   24.7850   37.0610 N   0  0  0  0  0  0  0  0  0  0  0  0
   38.0810   25.4950   35.9070 C   0  0  0  0  0  0  0  0  0  0  0  0
   38.0260   26.8760   35.7470 C   0  0  0  0  0  3  0  0  0  0  0  0
   38.0620   22.4620   34.8670 H   0  0  0  0  0  0  0  0  0  0  0  0
  2  1  2  6  0  0  0
  2  5  1  0  0  0  0
  2 15  1  0  0  0  0
  3  4  1  0  0  0  0
  3  2  1  0  0  0  0
  5  6  1  0  0  0  0
  6  7  1  0  0  0  0
  7  8  2  0  0  0  0
  7 12  1  0  0  0  0
  8 13  1  0  0  0  0
  9  8  1  0  0  0  0
 10  9  2  0  0  0  0
 11 10  1  0  0  0  0
 11  6  2  0  0  0  0
 14 10  1  0  0  0  0
 15 17  1  0  0  0  0
 16 26  1  0  0  0  0
 17 18  1  0  0  0  0
 17 16  2  0  0  0  0
 18 20  2  0  0  0  0
 19 18  1  0  0  0  0
 20 21  1  0  0  0  0
 20 25  1  0  0  0  0
 21 22  1  0  0  0  0
 22 24  2  0  0  0  0
 22 23  1  0  0  0  0
 25 24  1  0  0  0  0
 26 25  2  0  0  0  0
 27 21  1  0  0  0  0
M  END
>  <minimizedAffinity>
-4.75525284

$$$$

 OpenBabel03262521103D

 27 29  0  0  0  0  0  0  0  0999 V2000
   38.2990   27.4860   36.0250 O   0  0  0  0  0  0  0  0  0  0  0  0
   38.4920   26.1530   35.3250 P   0  0  1  0  0  0  0  0  0  0  0  0
   40.0950   26.0240   34.7480 O   0  0  0  0  0  0  0  0  0  0  0  0
   40.2210   25.1240   34.3900 H   0  0  0  0  0  0  0  0  0  0  0  0
   38.2780   24.8240   36.3820 O   0  0  0  0  0  0  0  0  0  0  0  0
   39.1710   23.7670   36.4420 C   0  0  0  0  0  0  0  0  0  0  0  0
   39.6600   23.1960   37.6270 C   0  0  0  0  0  0  0  0  0  0  0  0
   40.5510   22.1410   37.5360 C   0  0  0  0  0  0  0  0  0  0  0  0
   40.9180   21.6990   36.2900 N   0  0  0  0  0  0  0  0  0  0  0  0
   40.4180   22.2820   35.1530 C   0  0  0  0  0  0  0  0  0  0  0  0
   39.5520   23.3080   35.2390 N   0  0  0  0  0  0  0  0  0  0  0  0
   39.3060   23.6210   38.5310 H   0  0  0  0  0  0  0  0  0  0  0  0
   40.9270   21.7020   38.4340 H   0  0  0  0  0  0  0  0  0  0  0  0
   40.7280   21.9090   34.1780 H   0  0  0  0  0  0  0  0  0  0  0  0
   37.3830   26.0900   34.0630 O   0  0  0  0  0  0  0  0  0  0  0  0
   36.4190   28.2000   33.2900 C   0  0  0  0  0  3  0  0  0  0  0  0
   37.1500   27.0450   33.1050 C   0  0  0  0  0  0  0  0  0  0  0  0
   37.7310   26.7510   31.8660 C   0  0  0  0  0  0  0  0  0  0  0  0
   38.3130   25.8790   31.6340 H   0  0  0  0  0  0  0  0  0  0  0  0
   37.5490   27.6620   30.8310 C   0  0  0  0  0  0  0  0  0  0  0  0
   37.9510   27.7030   29.5500 N   0  0  0  0  0  0  0  0  0  0  0  0
   37.5000   28.8290   28.9500 C   0  0  0  0  0  0  0  0  0  0  0  0
   37.6230   29.1980   27.9360 H   0  0  0  0  0  0  0  0  0  0  0  0
   36.7880   29.5250   29.8790 N   0  0  0  0  0  0  0  0  0  0  0  0
   36.8160   28.8100   31.0390 C   0  0  0  0  0  0  0  0  0  0  0  0
   36.2270   29.1260   32.2590 C   0  0  0  0  0  3  0  0  0  0  0  0
   38.5380   26.9800   29.0480 H   0  0  0  0  0  0  0  0  0  0  0  0
  2  1  2  1  0  0  0
  2  5  1  0  0  0  0
  3  2  1  0  0  0  0
  4  3  1  0  0  0  0
  5  6  1  0  0  0  0
  6  7  1  0  0  0  0
  7 12  1  0  0  0  0
  8  7  2  0  0  0  0
  8 13  1  0  0  0  0
  9  8  1  0  0  0  0
 10 11  1  0  0  0  0
 10  9  2  0  0  0  0
 11  6  2  0  0  0  0
 14 10  1  0  0  0  0
 15  2  1  0  0  0  0
 17 16  1  0  0  0  0
 17 15  1  0  0  0  0
 18 17  2  0  0  0  0
 19 18  1  0  0  0  0
 20 25  2  0  0  0  0
 20 18  1  0  0  0  0
 21 20  1  0  0  0  0
 22 21  1  0  0  0  0
 22 24  2  0  0  0  0
 23 22  1  0  0  0  0
 24 25  1  0  0  0  0
 25 26  1  0  0  0  0
 26 16  2  0  0  0  0
 27 21  1  0  0  0  0
M  END
>  <minimizedAffinity>
-4.68756723

$$$$
