
 OpenBabel03272504213D

 42 45  0  0  1  0  0  0  0  0999 V2000
   38.8600   32.3690   47.8720 C   0  0  2  0  0  0  0  0  0  0  0  0
   38.1810   31.3790   48.8030 C   0  0  1  0  0  0  0  0  0  0  0  0
   38.7060   31.9410   50.1360 C   0  0  0  0  0  0  0  0  0  0  0  0
   38.3920   33.2850   49.9890 O   0  0  0  0  0  0  0  0  0  0  0  0
   38.6880   33.6380   48.6950 C   0  0  0  0  0  0  0  0  0  0  0  0
   39.9260   32.0730   47.8040 H   0  0  0  0  0  0  0  0  0  0  0  0
   38.4880   30.3450   48.6540 H   0  0  0  0  0  0  0  0  0  0  0  0
   39.8050   31.8280   50.1150 H   0  0  0  0  0  0  0  0  0  0  0  0
   38.2150   31.4880   50.9960 H   0  0  0  0  0  0  0  0  0  0  0  0
   39.5890   34.2700   48.6820 H   0  0  0  0  0  0  0  0  0  0  0  0
   37.8350   34.2080   48.2320 H   0  0  0  0  0  0  0  0  0  0  0  0
   36.8270   31.6020   48.7050 O   0  0  0  0  0  0  0  0  0  0  0  0
   35.8610   29.8640   47.0240 O   0  0  0  0  0  0  0  0  0  0  0  0
   35.9550   30.1740   48.4870 P   0  0  1  0  0  0  0  0  0  0  0  0
   36.7610   28.8690   49.2570 O   0  0  0  0  0  0  0  0  0  0  0  0
   37.5160   28.5640   48.7030 H   0  0  0  0  0  0  0  0  0  0  0  0
   34.4020   30.3410   49.1650 O   0  0  0  0  0  0  0  0  0  0  0  0
   34.1380   29.1820   49.8660 C   0  0  0  0  0  0  0  0  0  0  0  0
   33.5830   29.5040   50.7880 H   0  0  0  0  0  0  0  0  0  0  0  0
   35.0690   28.7140   50.2280 H   0  0  0  0  0  0  0  0  0  0  0  0
   33.2730   28.2360   49.1280 C   0  0  0  0  0  0  0  0  0  0  0  0
   33.9020   27.3450   48.2910 C   0  0  0  0  0  0  0  0  0  0  0  0
   33.1410   26.4260   47.5660 C   0  0  0  0  0  0  0  0  0  0  0  0
   31.7890   26.4720   47.7360 N   0  0  0  0  0  0  0  0  0  0  0  0
   31.1930   27.3570   48.5640 C   0  0  0  0  0  0  0  0  0  0  0  0
   31.9340   28.2440   49.2630 N   0  0  0  0  0  0  0  0  0  0  0  0
   34.9500   27.2330   48.0930 H   0  0  0  0  0  0  0  0  0  0  0  0
   33.5440   25.6860   46.8850 H   0  0  0  0  0  0  0  0  0  0  0  0
   30.1120   27.3700   48.6790 H   0  0  0  0  0  0  0  0  0  0  0  0
   38.1740   32.3750   46.6860 O   0  0  0  0  0  0  0  0  0  0  0  0
   38.8610   30.5850   45.3860 C   0  0  0  0  0  3  0  0  0  0  0  0
   38.5720   31.9440   45.4430 C   0  0  0  0  0  0  0  0  0  0  0  0
   38.7120   32.6870   44.2790 C   0  0  0  0  0  0  0  0  0  0  0  0
   38.4680   33.7350   44.4080 H   0  0  0  0  0  0  0  0  0  0  0  0
   39.1280   32.0790   43.1070 C   0  0  0  0  0  0  0  0  0  0  0  0
   39.3200   32.6290   41.8920 N   0  0  0  0  0  0  0  0  0  0  0  0
   39.7220   31.6110   41.1100 C   0  0  0  0  0  0  0  0  0  0  0  0
   39.9530   31.7760   40.0500 H   0  0  0  0  0  0  0  0  0  0  0  0
   39.7740   30.4700   41.8240 N   0  0  0  0  0  0  0  0  0  0  0  0
   39.4030   30.7260   43.1050 C   0  0  0  0  0  0  0  0  0  0  0  0
   39.2770   29.9520   44.2330 C   0  0  0  0  0  3  0  0  0  0  0  0
   39.1870   33.6240   41.6180 H   0  0  0  0  0  0  0  0  0  0  0  0
  1  6  1  6  0  0  0
  1  5  1  0  0  0  0
  1  2  1  0  0  0  0
  2  7  1  6  0  0  0
  2  3  1  0  0  0  0
  3  9  1  0  0  0  0
  4  3  1  0  0  0  0
  5  4  1  0  0  0  0
  8  3  1  0  0  0  0
 10  5  1  0  0  0  0
 11  5  1  0  0  0  0
 12  2  1  0  0  0  0
 14 13  2  6  0  0  0
 14 12  1  0  0  0  0
 14 17  1  0  0  0  0
 14 15  1  0  0  0  0
 16 15  1  0  0  0  0
 17 18  1  0  0  0  0
 18 20  1  0  0  0  0
 18 19  1  0  0  0  0
 21 26  1  0  0  0  0
 21 18  1  0  0  0  0
 22 21  2  0  0  0  0
 23 24  2  0  0  0  0
 23 22  1  0  0  0  0
 24 25  1  0  0  0  0
 25 29  1  0  0  0  0
 25 26  2  0  0  0  0
 27 22  1  0  0  0  0
 28 23  1  0  0  0  0
 30  1  1  0  0  0  0
 31 32  1  0  0  0  0
 32 30  1  0  0  0  0
 33 34  1  0  0  0  0
 33 32  2  0  0  0  0
 35 33  1  0  0  0  0
 36 35  1  0  0  0  0
 37 39  2  0  0  0  0
 37 36  1  0  0  0  0
 38 37  1  0  0  0  0
 39 40  1  0  0  0  0
 40 35  2  0  0  0  0
 40 41  1  0  0  0  0
 41 31  2  0  0  0  0
 42 36  1  0  0  0  0
M  END
>  <minimizedAffinity>
-5.15451145

>  <minimizedRMSD>
0.410860777

$$$$
