
 OpenBabel03262521463D

 33 35  0  0  0  0  0  0  0  0999 V2000
   34.7360   30.5420   49.1630 O   0  0  0  0  0  0  0  0  0  0  0  0
   34.4800   29.4250   50.1590 P   0  0  2  0  0  0  0  0  0  0  0  0
   33.0340   29.8050   50.9310 O   0  0  0  0  0  0  0  0  0  0  0  0
   33.1870   29.6480   51.8950 H   0  0  0  0  0  0  0  0  0  0  0  0
   35.7710   29.4080   51.2670 O   0  0  0  0  0  0  0  0  0  0  0  0
   36.9990   29.2630   50.6110 C   0  0  0  0  0  0  0  0  0  0  0  0
   36.7790   29.1120   49.5490 H   0  0  0  0  0  0  0  0  0  0  0  0
   37.5040   28.3420   50.9690 H   0  0  0  0  0  0  0  0  0  0  0  0
   37.7780   30.5200   50.8150 C   0  0  0  0  0  0  0  0  0  0  0  0
   37.3060   31.2420   51.5250 H   0  0  0  0  0  0  0  0  0  0  0  0
   38.7470   30.2130   51.3040 H   0  0  0  0  0  0  0  0  0  0  0  0
   38.1480   31.2310   49.5910 C   0  0  0  0  0  0  0  0  0  0  0  0
   38.5660   32.5470   49.5880 C   0  0  0  0  0  0  0  0  0  0  0  0
   38.8960   33.1280   48.3460 C   0  0  0  0  0  0  0  0  0  0  0  0
   38.7850   32.3630   47.2160 N   0  0  0  0  0  0  0  0  0  0  0  0
   38.3660   31.0630   47.2760 C   0  0  0  0  0  0  0  0  0  0  0  0
   38.0490   30.5080   48.4720 N   0  0  0  0  0  0  0  0  0  0  0  0
   38.6230   33.0760   50.5310 H   0  0  0  0  0  0  0  0  0  0  0  0
   39.2220   34.1480   48.3300 H   0  0  0  0  0  0  0  0  0  0  0  0
   38.3020   30.5200   46.3430 H   0  0  0  0  0  0  0  0  0  0  0  0
   34.3250   27.9460   49.4000 O   0  0  0  0  0  0  0  0  0  0  0  0
   33.8930   27.2110   47.0590 C   0  0  0  0  0  0  0  0  0  0  0  0
   33.5440   27.6110   48.3240 C   0  0  0  0  0  0  0  0  0  0  0  0
   32.1840   27.7150   48.6410 C   0  0  0  0  0  0  0  0  0  0  0  0
   31.7660   28.0210   49.6090 H   0  0  0  0  0  0  0  0  0  0  0  0
   31.2010   27.4190   47.6920 C   0  0  0  0  0  0  0  0  0  0  0  0
   29.8550   27.4180   47.6760 N   0  0  0  0  0  0  0  0  0  0  0  0
   29.4370   27.0320   46.4410 C   0  0  0  0  0  0  0  0  0  0  0  0
   28.3810   26.9470   46.1630 H   0  0  0  0  0  0  0  0  0  0  0  0
   30.5290   26.7840   45.6670 N   0  0  0  0  0  0  0  0  0  0  0  0
   31.6060   27.0210   46.4320 C   0  0  0  0  0  0  0  0  0  0  0  0
   32.9480   26.9150   46.1100 C   0  0  0  0  0  0  0  0  0  0  0  0
   29.2870   27.6780   48.4940 H   0  0  0  0  0  0  0  0  0  0  0  0
  2  1  2  6  0  0  0
  2  3  1  0  0  0  0
  2  5  1  0  0  0  0
  3  4  1  0  0  0  0
  6  9  1  0  0  0  0
  6  8  1  0  0  0  0
  6  5  1  0  0  0  0
  7  6  1  0  0  0  0
  9 11  1  0  0  0  0
  9 10  1  0  0  0  0
 12  9  1  0  0  0  0
 13 12  1  0  0  0  0
 13 18  1  0  0  0  0
 14 13  2  0  0  0  0
 15 16  2  0  0  0  0
 15 14  1  0  0  0  0
 16 17  1  0  0  0  0
 17 12  2  0  0  0  0
 19 14  1  0  0  0  0
 20 16  1  0  0  0  0
 21  2  1  0  0  0  0
 22 23  1  0  0  0  0
 23 24  2  0  0  0  0
 23 21  1  0  0  0  0
 24 25  1  0  0  0  0
 26 24  1  0  0  0  0
 27 26  1  0  0  0  0
 27 33  1  0  0  0  0
 28 27  1  0  0  0  0
 29 28  1  0  0  0  0
 30 31  1  0  0  0  0
 30 28  2  0  0  0  0
 31 26  2  0  0  0  0
 32 31  1  0  0  0  0
 32 22  2  0  0  0  0
M  END
>  <minimizedAffinity>
-5.54463911

>  <minimizedRMSD>
1.80859649

$$$$
