
 OpenBabel03272502393D

 43 47  0  0  1  0  0  0  0  0999 V2000
   35.6110   30.2710   47.2360 F   0  0  0  0  0  0  0  0  0  0  0  0
   35.8270   29.9670   48.5310 C   0  0  0  0  0  0  0  0  0  0  0  0
   35.0160   29.2340   49.3580 C   0  0  0  0  0  0  0  0  0  0  0  0
   35.4350   29.0080   50.6810 C   0  0  0  0  0  0  0  0  0  0  0  0
   36.6290   29.5050   51.1570 C   0  0  0  0  0  0  0  0  0  0  0  0
   37.4320   30.2440   50.3020 C   0  0  0  0  0  0  0  0  0  0  0  0
   37.0280   30.4770   48.9740 C   0  0  0  0  0  0  0  0  0  0  0  0
   34.7210   28.4200   51.2370 H   0  0  0  0  0  0  0  0  0  0  0  0
   36.8720   29.2870   52.1870 H   0  0  0  0  0  0  0  0  0  0  0  0
   38.3610   30.6180   50.7100 H   0  0  0  0  0  0  0  0  0  0  0  0
   31.7610   27.7320   48.8740 N   0  0  0  0  0  0  0  0  0  0  0  0
   32.5310   26.8540   48.0070 C   0  0  0  0  0  0  0  0  0  0  0  0
   33.8970   27.4790   48.0150 C   0  0  0  0  0  0  0  0  0  0  0  0
   33.7140   28.8490   48.7990 C   0  0  1  0  0  0  0  0  0  0  0  0
   32.6940   28.4450   49.7720 C   0  0  0  0  0  0  0  0  0  0  0  0
   32.5930   25.8580   48.5180 H   0  0  0  0  0  0  0  0  0  0  0  0
   32.0780   26.7390   47.0110 H   0  0  0  0  0  0  0  0  0  0  0  0
   34.3120   27.7380   47.0450 H   0  0  0  0  0  0  0  0  0  0  0  0
   34.6460   26.8870   48.5640 H   0  0  0  0  0  0  0  0  0  0  0  0
   33.4110   29.4830   47.9680 H   0  0  0  0  0  0  0  0  0  0  0  0
   32.1680   29.2610   50.2820 H   0  0  0  0  0  0  0  0  0  0  0  0
   33.0710   27.6670   50.4620 H   0  0  0  0  0  0  0  0  0  0  0  0
   30.3620   27.9120   48.8850 C   0  0  0  0  0  0  0  0  0  0  0  0
   29.7680   28.1340   47.6320 C   0  0  0  0  0  0  0  0  0  0  0  0
   28.3800   28.3330   47.5690 C   0  0  0  0  0  0  0  0  0  0  0  0
   27.6960   28.2930   48.7690 N   0  0  0  0  0  0  0  0  0  0  0  0
   28.3040   28.0760   49.9470 C   0  0  0  0  0  0  0  0  0  0  0  0
   29.6420   27.8860   50.0000 N   0  0  0  0  0  0  0  0  0  0  0  0
   30.3460   28.1550   46.7340 H   0  0  0  0  0  0  0  0  0  0  0  0
   27.9120   28.5030   46.6300 H   0  0  0  0  0  0  0  0  0  0  0  0
   27.7340   28.0520   50.8610 H   0  0  0  0  0  0  0  0  0  0  0  0
   38.3580   32.5590   48.4980 C   0  0  0  0  0  3  0  0  0  0  0  0
   37.9540   31.2650   48.1660 C   0  0  0  0  0  0  0  0  0  0  0  0
   38.4420   30.6810   47.0190 C   0  0  0  0  0  0  0  0  0  0  0  0
   38.1600   29.6730   46.7100 H   0  0  0  0  0  0  0  0  0  0  0  0
   39.3220   31.3740   46.2100 C   0  0  0  0  0  0  0  0  0  0  0  0
   39.9460   31.0480   45.0490 N   0  0  0  0  0  0  0  0  0  0  0  0
   40.7210   32.0950   44.6510 C   0  0  0  0  0  0  0  0  0  0  0  0
   41.3420   32.1410   43.7600 H   0  0  0  0  0  0  0  0  0  0  0  0
   40.6010   33.1060   45.5590 N   0  0  0  0  0  0  0  0  0  0  0  0
   39.7460   32.6590   46.5070 C   0  0  0  0  0  0  0  0  0  0  0  0
   39.2390   33.2270   47.6690 C   0  0  0  0  0  3  0  0  0  0  0  0
   39.8640   30.1360   44.5130 H   0  0  0  0  0  0  0  0  0  0  0  0
  1  2  1  0  0  0  0
  2  7  2  0  0  0  0
  2  3  1  0  0  0  0
  3  4  2  0  0  0  0
  4  5  1  0  0  0  0
  4  8  1  0  0  0  0
  5  9  1  0  0  0  0
  6 10  1  0  0  0  0
  6  5  2  0  0  0  0
  7  6  1  0  0  0  0
 11 23  1  0  0  0  0
 11 15  1  0  0  0  0
 12 13  1  0  0  0  0
 12 16  1  0  0  0  0
 12 11  1  0  0  0  0
 13 19  1  0  0  0  0
 13 14  1  0  0  0  0
 14 20  1  6  0  0  0
 14  3  1  0  0  0  0
 14 15  1  0  0  0  0
 15 21  1  0  0  0  0
 15 22  1  0  0  0  0
 17 12  1  0  0  0  0
 18 13  1  0  0  0  0
 23 28  1  0  0  0  0
 24 23  2  0  0  0  0
 25 24  1  0  0  0  0
 25 26  2  0  0  0  0
 26 27  1  0  0  0  0
 27 28  2  0  0  0  0
 27 31  1  0  0  0  0
 29 24  1  0  0  0  0
 30 25  1  0  0  0  0
 33 32  1  0  0  0  0
 33  7  1  0  0  0  0
 34 33  2  0  0  0  0
 35 34  1  0  0  0  0
 36 41  2  0  0  0  0
 36 34  1  0  0  0  0
 37 36  1  0  0  0  0
 38 37  1  0  0  0  0
 38 40  2  0  0  0  0
 39 38  1  0  0  0  0
 40 41  1  0  0  0  0
 41 42  1  0  0  0  0
 42 32  2  0  0  0  0
 43 37  1  0  0  0  0
M  END
>  <minimizedAffinity>
-7.82116652

>  <minimizedRMSD>
3.79747725

$$$$
