
 OpenBabel03262521093D

 27 29  0  0  0  0  0  0  0  0999 V2000
   34.1930   28.4960   46.1130 O   0  0  0  0  0  0  0  0  0  0  0  0
   33.4330   28.0850   47.3610 P   0  0  1  0  0  0  0  0  0  0  0  0
   34.1430   26.6890   48.0430 O   0  0  0  0  0  0  0  0  0  0  0  0
   33.6990   26.5030   48.8920 H   0  0  0  0  0  0  0  0  0  0  0  0
   33.4980   29.2780   48.5860 O   0  0  0  0  0  0  0  0  0  0  0  0
   34.6790   29.6360   49.2160 C   0  0  0  0  0  0  0  0  0  0  0  0
   35.1190   29.1260   50.4470 C   0  0  0  0  0  0  0  0  0  0  0  0
   36.3240   29.5770   50.9590 C   0  0  0  0  0  0  0  0  0  0  0  0
   37.0350   30.5040   50.2400 N   0  0  0  0  0  0  0  0  0  0  0  0
   36.5730   30.9790   49.0400 C   0  0  0  0  0  0  0  0  0  0  0  0
   35.4020   30.5430   48.5390 N   0  0  0  0  0  0  0  0  0  0  0  0
   34.4850   28.4150   50.9120 H   0  0  0  0  0  0  0  0  0  0  0  0
   36.6640   29.1920   51.8960 H   0  0  0  0  0  0  0  0  0  0  0  0
   37.1600   31.7140   48.4920 H   0  0  0  0  0  0  0  0  0  0  0  0
   31.8420   27.7970   46.9000 O   0  0  0  0  0  0  0  0  0  0  0  0
   29.6930   28.8980   47.2820 C   0  0  0  0  0  3  0  0  0  0  0  0
   30.7040   28.0260   47.6310 C   0  0  0  0  0  0  0  0  0  0  0  0
   30.6340   27.2790   48.8110 C   0  0  0  0  0  0  0  0  0  0  0  0
   31.3720   26.5810   49.1590 H   0  0  0  0  0  0  0  0  0  0  0  0
   29.5150   27.4440   49.6200 C   0  0  0  0  0  0  0  0  0  0  0  0
   29.1270   26.9060   50.7880 N   0  0  0  0  0  0  0  0  0  0  0  0
   27.9290   27.4100   51.1640 C   0  0  0  0  0  0  0  0  0  0  0  0
   27.3130   27.2150   52.0370 H   0  0  0  0  0  0  0  0  0  0  0  0
   27.5440   28.2960   50.2040 N   0  0  0  0  0  0  0  0  0  0  0  0
   28.5160   28.3210   49.2510 C   0  0  0  0  0  0  0  0  0  0  0  0
   28.5590   29.0760   48.0840 C   0  0  0  0  0  3  0  0  0  0  0  0
   29.6540   26.1900   51.3610 H   0  0  0  0  0  0  0  0  0  0  0  0
  2  1  2  6  0  0  0
  2  3  1  0  0  0  0
  2  5  1  0  0  0  0
  3  4  1  0  0  0  0
  5  6  1  0  0  0  0
  6  7  1  0  0  0  0
  7 12  1  0  0  0  0
  7  8  2  0  0  0  0
  8 13  1  0  0  0  0
  9  8  1  0  0  0  0
 10  9  2  0  0  0  0
 11 10  1  0  0  0  0
 11  6  2  0  0  0  0
 14 10  1  0  0  0  0
 15  2  1  0  0  0  0
 15 17  1  0  0  0  0
 16 17  2  0  0  0  0
 16 26  1  0  0  0  0
 17 18  1  0  0  0  0
 18 19  1  0  0  0  0
 18 20  2  0  0  0  0
 20 21  1  0  0  0  0
 21 22  1  0  0  0  0
 21 27  1  0  0  0  0
 22 23  1  0  0  0  0
 24 22  2  0  0  0  0
 25 20  1  0  0  0  0
 25 24  1  0  0  0  0
 26 25  2  0  0  0  0
M  END
>  <minimizedAffinity>
-4.99102497

>  <minimizedRMSD>
2.68266416

$$$$
