
 OpenBabel03272504203D

 30 32  0  0  0  0  0  0  0  0999 V2000
   37.7960   29.2800   49.8720 O   0  0  0  0  0  0  0  0  0  0  0  0
   36.7790   30.0870   50.6270 P   0  0  2  0  0  0  0  0  0  0  0  0
   37.2680   30.0830   52.2590 O   0  0  0  0  0  0  0  0  0  0  0  0
   36.4690   30.0370   52.8460 H   0  0  0  0  0  0  0  0  0  0  0  0
   35.2420   29.3720   50.5120 O   0  0  0  0  0  0  0  0  0  0  0  0
   35.2810   28.4630   49.4760 C   0  0  0  0  0  0  0  0  0  0  0  0
   36.2570   28.5020   48.9110 H   0  0  0  0  0  0  0  0  0  0  0  0
   35.1720   27.4060   49.7990 H   0  0  0  0  0  0  0  0  0  0  0  0
   34.2420   28.7430   48.4390 C   0  0  0  0  0  0  0  0  0  0  0  0
   34.4310   29.8130   47.5820 C   0  0  0  0  0  0  0  0  0  0  0  0
   33.4710   30.0830   46.6120 C   0  0  0  0  0  0  0  0  0  0  0  0
   32.3920   29.2640   46.5690 N   0  0  0  0  0  0  0  0  0  0  0  0
   32.2190   28.2230   47.4110 C   0  0  0  0  0  0  0  0  0  0  0  0
   33.1450   27.9720   48.3390 N   0  0  0  0  0  0  0  0  0  0  0  0
   35.3160   30.4430   47.6570 H   0  0  0  0  0  0  0  0  0  0  0  0
   33.6020   30.9160   45.9330 H   0  0  0  0  0  0  0  0  0  0  0  0
   31.3530   27.5770   47.3660 H   0  0  0  0  0  0  0  0  0  0  0  0
   36.7470   31.6620   50.0220 O   0  0  0  0  0  0  0  0  0  0  0  0
   38.5670   33.2300   49.4390 C   0  0  0  0  0  0  0  0  0  0  0  0
   37.6730   32.2280   49.1700 C   0  0  0  0  0  0  0  0  0  0  0  0
   37.6520   31.6780   47.8950 C   0  0  0  0  0  0  0  0  0  0  0  0
   36.9810   30.8810   47.5860 H   0  0  0  0  0  0  0  0  0  0  0  0
   38.5270   32.1480   46.9340 C   0  0  0  0  0  0  0  0  0  0  0  0
   38.7720   31.8510   45.6360 N   0  0  0  0  0  0  0  0  0  0  0  0
   39.7510   32.6190   45.1410 C   0  0  0  0  0  0  0  0  0  0  0  0
   40.1190   32.5560   44.1100 H   0  0  0  0  0  0  0  0  0  0  0  0
   40.1520   33.4380   46.1490 N   0  0  0  0  0  0  0  0  0  0  0  0
   39.4190   33.1620   47.2360 C   0  0  0  0  0  0  0  0  0  0  0  0
   39.4490   33.7230   48.5160 C   0  0  0  0  0  0  0  0  0  0  0  0
   38.2350   31.1090   45.1340 H   0  0  0  0  0  0  0  0  0  0  0  0
  2  1  2  6  0  0  0
  2  3  1  0  0  0  0
  3  4  1  0  0  0  0
  5  2  1  0  0  0  0
  6  8  1  0  0  0  0
  6  5  1  0  0  0  0
  7  6  1  0  0  0  0
  9  6  1  0  0  0  0
 10 15  1  0  0  0  0
 10  9  2  0  0  0  0
 11 10  1  0  0  0  0
 12 11  2  0  0  0  0
 12 13  1  0  0  0  0
 13 14  2  0  0  0  0
 14  9  1  0  0  0  0
 16 11  1  0  0  0  0
 17 13  1  0  0  0  0
 18  2  1  0  0  0  0
 20 19  1  0  0  0  0
 20 18  1  0  0  0  0
 21 20  2  0  0  0  0
 22 21  1  0  0  0  0
 23 28  2  0  0  0  0
 23 21  1  0  0  0  0
 24 23  1  0  0  0  0
 25 24  1  0  0  0  0
 25 27  2  0  0  0  0
 26 25  1  0  0  0  0
 27 28  1  0  0  0  0
 28 29  1  0  0  0  0
 29 19  2  0  0  0  0
 30 24  1  0  0  0  0
M  END
>  <minimizedAffinity>
-5.46590137

>  <minimizedRMSD>
3.49822664

$$$$
