
 OpenBabel03272504213D

 42 45  0  0  1  0  0  0  0  0999 V2000
   38.8970   32.3900   47.8740 C   0  0  2  0  0  0  0  0  0  0  0  0
   38.1830   31.3870   48.7650 C   0  0  1  0  0  0  0  0  0  0  0  0
   38.6390   31.9440   50.1250 C   0  0  0  0  0  0  0  0  0  0  0  0
   38.3190   33.2860   49.9730 O   0  0  0  0  0  0  0  0  0  0  0  0
   38.6730   33.6520   48.6970 C   0  0  0  0  0  0  0  0  0  0  0  0
   39.9680   32.1040   47.8550 H   0  0  0  0  0  0  0  0  0  0  0  0
   38.5070   30.3560   48.6240 H   0  0  0  0  0  0  0  0  0  0  0  0
   39.7380   31.8410   50.1560 H   0  0  0  0  0  0  0  0  0  0  0  0
   38.1110   31.4800   50.9580 H   0  0  0  0  0  0  0  0  0  0  0  0
   39.5690   34.2910   48.7320 H   0  0  0  0  0  0  0  0  0  0  0  0
   37.8380   34.2170   48.1970 H   0  0  0  0  0  0  0  0  0  0  0  0
   36.8330   31.5980   48.6040 O   0  0  0  0  0  0  0  0  0  0  0  0
   35.9500   29.8160   46.9240 O   0  0  0  0  0  0  0  0  0  0  0  0
   35.9800   30.1600   48.3820 P   0  0  1  0  0  0  0  0  0  0  0  0
   36.7600   28.8790   49.2150 O   0  0  0  0  0  0  0  0  0  0  0  0
   37.5390   28.5660   48.7000 H   0  0  0  0  0  0  0  0  0  0  0  0
   34.3980   30.3320   48.9890 O   0  0  0  0  0  0  0  0  0  0  0  0
   34.1320   29.2120   49.7510 C   0  0  0  0  0  0  0  0  0  0  0  0
   33.5730   29.5830   50.6520 H   0  0  0  0  0  0  0  0  0  0  0  0
   35.0620   28.7650   50.1430 H   0  0  0  0  0  0  0  0  0  0  0  0
   33.2710   28.2270   49.0620 C   0  0  0  0  0  0  0  0  0  0  0  0
   33.8990   27.3300   48.2310 C   0  0  0  0  0  0  0  0  0  0  0  0
   33.1420   26.3740   47.5510 C   0  0  0  0  0  0  0  0  0  0  0  0
   31.7940   26.3910   47.7580 N   0  0  0  0  0  0  0  0  0  0  0  0
   31.2000   27.2820   48.5800 C   0  0  0  0  0  0  0  0  0  0  0  0
   31.9370   28.2050   49.2360 N   0  0  0  0  0  0  0  0  0  0  0  0
   34.9430   27.2390   48.0050 H   0  0  0  0  0  0  0  0  0  0  0  0
   33.5440   25.6280   46.8770 H   0  0  0  0  0  0  0  0  0  0  0  0
   30.1220   27.2720   48.7260 H   0  0  0  0  0  0  0  0  0  0  0  0
   38.2680   32.3980   46.6570 O   0  0  0  0  0  0  0  0  0  0  0  0
   38.0720   32.5780   44.3570 C   0  0  0  0  0  3  0  0  0  0  0  0
   38.7320   31.9880   45.4300 C   0  0  0  0  0  0  0  0  0  0  0  0
   39.7490   31.0860   45.1490 C   0  0  0  0  0  0  0  0  0  0  0  0
   40.2110   30.6730   46.0390 H   0  0  0  0  0  0  0  0  0  0  0  0
   40.0810   30.7920   43.8400 C   0  0  0  0  0  0  0  0  0  0  0  0
   41.0290   29.9530   43.3770 N   0  0  0  0  0  0  0  0  0  0  0  0
   40.9400   30.0340   42.0370 C   0  0  0  0  0  0  0  0  0  0  0  0
   41.6070   29.4440   41.3950 H   0  0  0  0  0  0  0  0  0  0  0  0
   39.9690   30.8980   41.6880 N   0  0  0  0  0  0  0  0  0  0  0  0
   39.3960   31.4040   42.8110 C   0  0  0  0  0  0  0  0  0  0  0  0
   38.3820   32.3040   43.0400 C   0  0  0  0  0  3  0  0  0  0  0  0
   41.6860   29.3680   43.9340 H   0  0  0  0  0  0  0  0  0  0  0  0
  1  6  1  6  0  0  0
  1  5  1  0  0  0  0
  1  2  1  0  0  0  0
  2  7  1  6  0  0  0
  2  3  1  0  0  0  0
  3  8  1  0  0  0  0
  3  9  1  0  0  0  0
  4  3  1  0  0  0  0
  5 10  1  0  0  0  0
  5  4  1  0  0  0  0
 11  5  1  0  0  0  0
 12  2  1  0  0  0  0
 14 13  2  6  0  0  0
 14 12  1  0  0  0  0
 14 17  1  0  0  0  0
 14 15  1  0  0  0  0
 16 15  1  0  0  0  0
 17 18  1  0  0  0  0
 18 20  1  0  0  0  0
 18 19  1  0  0  0  0
 21 26  1  0  0  0  0
 21 18  1  0  0  0  0
 22 21  2  0  0  0  0
 23 24  2  0  0  0  0
 23 22  1  0  0  0  0
 24 25  1  0  0  0  0
 25 29  1  0  0  0  0
 25 26  2  0  0  0  0
 27 22  1  0  0  0  0
 28 23  1  0  0  0  0
 30  1  1  0  0  0  0
 31 32  1  0  0  0  0
 32 30  1  0  0  0  0
 33 32  2  0  0  0  0
 33 34  1  0  0  0  0
 35 33  1  0  0  0  0
 36 35  1  0  0  0  0
 36 42  1  0  0  0  0
 37 36  1  0  0  0  0
 38 37  1  0  0  0  0
 39 37  2  0  0  0  0
 39 40  1  0  0  0  0
 40 41  1  0  0  0  0
 40 35  2  0  0  0  0
 41 31  2  0  0  0  0
M  END
>  <minimizedAffinity>
-5.3712163

>  <minimizedRMSD>
0.397415042

$$$$
