
 OpenBabel03272509573D

 49 53  0  0  0  0  0  0  0  0999 V2000
   33.4940   27.5760   47.6110 C   0  0  0  0  0  0  0  0  0  0  0  0
   33.7050   27.3620   46.5250 H   0  0  0  0  0  0  0  0  0  0  0  0
   33.7090   26.6490   48.1440 H   0  0  0  0  0  0  0  0  0  0  0  0
   32.0470   27.8920   47.7370 C   0  0  0  0  0  0  0  0  0  0  0  0
   31.3710   27.4130   48.8470 C   0  0  0  0  0  0  0  0  0  0  0  0
   30.0320   27.6600   49.0380 C   0  0  0  0  0  0  0  0  0  0  0  0
   29.3630   28.3790   48.1360 N   0  0  0  0  0  0  0  0  0  0  0  0
   30.0360   28.8470   47.0460 C   0  0  0  0  0  0  0  0  0  0  0  0
   31.3450   28.6150   46.8440 N   0  0  0  0  0  0  0  0  0  0  0  0
   31.9090   26.8280   49.5810 H   0  0  0  0  0  0  0  0  0  0  0  0
   29.4720   27.3030   49.8930 H   0  0  0  0  0  0  0  0  0  0  0  0
   29.2670   29.6480   46.0520 C   0  0  0  0  0  0  0  0  0  0  0  0
   30.0010   30.0200   45.3060 H   0  0  0  0  0  0  0  0  0  0  0  0
   28.7860   30.5310   46.5190 H   0  0  0  0  0  0  0  0  0  0  0  0
   26.8980   28.9320   45.4470 C   0  0  0  0  0  3  0  0  0  0  0  0
   28.2790   28.7880   45.3470 C   0  0  0  0  0  0  0  0  0  0  0  0
   28.7660   27.7670   44.5310 C   0  0  0  0  0  0  0  0  0  0  0  0
   29.8540   27.6470   44.4480 H   0  0  0  0  0  0  0  0  0  0  0  0
   27.9410   26.9160   43.8360 C   0  0  0  0  0  0  0  0  0  0  0  0
   28.1360   25.8870   43.0110 N   0  0  0  0  0  0  0  0  0  0  0  0
   26.9800   25.3700   42.5790 C   0  0  0  0  0  0  0  0  0  0  0  0
   26.9120   24.5220   41.8960 H   0  0  0  0  0  0  0  0  0  0  0  0
   25.9860   26.1040   43.1580 N   0  0  0  0  0  0  0  0  0  0  0  0
   26.5540   27.0540   43.9300 C   0  0  0  0  0  0  0  0  0  0  0  0
   26.1000   28.0710   44.7430 C   0  0  0  0  0  3  0  0  0  0  0  0
   29.1120   25.5740   42.7700 H   0  0  0  0  0  0  0  0  0  0  0  0
   34.3730   28.6790   48.1310 C   0  0  0  0  0  0  0  0  0  0  0  0
   33.9380   29.6840   48.0480 H   0  0  0  0  0  0  0  0  0  0  0  0
   35.2880   28.6870   47.5040 H   0  0  0  0  0  0  0  0  0  0  0  0
   34.8070   28.3990   49.4530 O   0  0  0  0  0  0  0  0  0  0  0  0
   37.1790   30.0380   51.6270 C   0  0  0  0  0  0  0  0  0  0  0  0
   37.9360   30.7410   50.6660 C   0  0  0  0  0  0  0  0  0  0  0  0
   37.5900   30.6120   49.3340 C   0  0  0  0  0  0  0  0  0  0  0  0
   36.5230   29.7980   49.0660 N   0  0  0  0  0  0  0  0  0  0  0  0
   35.8130   29.1370   49.9820 C   0  0  0  0  0  0  0  0  0  0  0  0
   36.1530   29.2650   51.2750 N   0  0  0  0  0  0  0  0  0  0  0  0
   37.4770   30.1630   52.6570 H   0  0  0  0  0  0  0  0  0  0  0  0
   38.7680   31.3770   50.8730 H   0  0  0  0  0  0  0  0  0  0  0  0
   38.8020   33.2340   49.2550 F   0  0  0  0  0  0  0  0  0  0  0  0
   38.8210   32.4690   48.1640 C   0  0  0  0  0  0  0  0  0  0  0  0
   38.2530   31.2570   48.2230 C   0  0  0  0  0  0  0  0  0  0  0  0
   38.3280   30.5410   47.0290 C   0  0  0  0  0  0  0  0  0  0  0  0
   38.9270   31.0290   45.9030 C   0  0  0  0  0  0  0  0  0  0  0  0
   39.4950   32.2840   45.8990 C   0  0  0  0  0  0  0  0  0  0  0  0
   39.4330   33.0020   47.0550 C   0  0  0  0  0  0  0  0  0  0  0  0
   37.9130   29.5300   46.9070 H   0  0  0  0  0  0  0  0  0  0  0  0
   38.9870   30.4720   44.9700 H   0  0  0  0  0  0  0  0  0  0  0  0
   39.9730   32.6750   44.9990 H   0  0  0  0  0  0  0  0  0  0  0  0
   39.8760   33.9910   47.0680 H   0  0  0  0  0  0  0  0  0  0  0  0
  1  4  1  0  0  0  0
  1 27  1  0  0  0  0
  1  3  1  0  0  0  0
  2  1  1  0  0  0  0
  4  5  1  0  0  0  0
  5  6  2  0  0  0  0
  5 10  1  0  0  0  0
  6 11  1  0  0  0  0
  7  6  1  0  0  0  0
  8  7  2  0  0  0  0
  9  8  1  0  0  0  0
  9  4  2  0  0  0  0
 12 14  1  0  0  0  0
 12  8  1  0  0  0  0
 13 12  1  0  0  0  0
 16 15  1  0  0  0  0
 16 12  1  0  0  0  0
 17 16  2  0  0  0  0
 18 17  1  0  0  0  0
 19 24  2  0  0  0  0
 19 17  1  0  0  0  0
 20 19  1  0  0  0  0
 21 20  1  0  0  0  0
 21 23  2  0  0  0  0
 22 21  1  0  0  0  0
 23 24  1  0  0  0  0
 24 25  1  0  0  0  0
 25 15  2  0  0  0  0
 26 20  1  0  0  0  0
 27 30  1  0  0  0  0
 28 27  1  0  0  0  0
 29 27  1  0  0  0  0
 30 35  1  0  0  0  0
 31 37  1  0  0  0  0
 32 38  1  0  0  0  0
 32 31  2  0  0  0  0
 33 32  1  0  0  0  0
 34 33  2  0  0  0  0
 34 35  1  0  0  0  0
 35 36  2  0  0  0  0
 36 31  1  0  0  0  0
 40 41  1  0  0  0  0
 40 39  1  0  0  0  0
 41 33  1  0  0  0  0
 42 41  2  0  0  0  0
 43 42  1  0  0  0  0
 44 43  2  0  0  0  0
 44 45  1  0  0  0  0
 45 49  1  0  0  0  0
 45 40  2  0  0  0  0
 46 42  1  0  0  0  0
 47 43  1  0  0  0  0
 48 44  1  0  0  0  0
M  END
>  <minimizedAffinity>
-6.77887106

>  <minimizedRMSD>
1.08503366

$$$$
