
 OpenBabel03262521463D

 33 35  0  0  0  0  0  0  0  0999 V2000
   34.7370   30.5410   49.1630 O   0  0  0  0  0  0  0  0  0  0  0  0
   34.4810   29.4240   50.1590 P   0  0  2  0  0  0  0  0  0  0  0  0
   33.0350   29.8060   50.9320 O   0  0  0  0  0  0  0  0  0  0  0  0
   33.1890   29.6480   51.8950 H   0  0  0  0  0  0  0  0  0  0  0  0
   35.7720   29.4070   51.2660 O   0  0  0  0  0  0  0  0  0  0  0  0
   36.9990   29.2640   50.6110 C   0  0  0  0  0  0  0  0  0  0  0  0
   36.7790   29.1130   49.5480 H   0  0  0  0  0  0  0  0  0  0  0  0
   37.5060   28.3430   50.9670 H   0  0  0  0  0  0  0  0  0  0  0  0
   37.7770   30.5210   50.8150 C   0  0  0  0  0  0  0  0  0  0  0  0
   37.3040   31.2440   51.5240 H   0  0  0  0  0  0  0  0  0  0  0  0
   38.7470   30.2150   51.3050 H   0  0  0  0  0  0  0  0  0  0  0  0
   38.1480   31.2320   49.5910 C   0  0  0  0  0  0  0  0  0  0  0  0
   38.5660   32.5480   49.5880 C   0  0  0  0  0  0  0  0  0  0  0  0
   38.8970   33.1290   48.3460 C   0  0  0  0  0  0  0  0  0  0  0  0
   38.7870   32.3640   47.2150 N   0  0  0  0  0  0  0  0  0  0  0  0
   38.3670   31.0640   47.2750 C   0  0  0  0  0  0  0  0  0  0  0  0
   38.0490   30.5090   48.4710 N   0  0  0  0  0  0  0  0  0  0  0  0
   38.6230   33.0770   50.5310 H   0  0  0  0  0  0  0  0  0  0  0  0
   39.2230   34.1490   48.3300 H   0  0  0  0  0  0  0  0  0  0  0  0
   38.3040   30.5210   46.3430 H   0  0  0  0  0  0  0  0  0  0  0  0
   34.3250   27.9460   49.4000 O   0  0  0  0  0  0  0  0  0  0  0  0
   33.8920   27.2120   47.0590 C   0  0  0  0  0  3  0  0  0  0  0  0
   33.5430   27.6110   48.3240 C   0  0  0  0  0  0  0  0  0  0  0  0
   32.1830   27.7140   48.6410 C   0  0  0  0  0  0  0  0  0  0  0  0
   31.7650   28.0190   49.6090 H   0  0  0  0  0  0  0  0  0  0  0  0
   31.2000   27.4190   47.6910 C   0  0  0  0  0  0  0  0  0  0  0  0
   29.8550   27.4180   47.6750 N   0  0  0  0  0  0  0  0  0  0  0  0
   29.4370   27.0320   46.4410 C   0  0  0  0  0  0  0  0  0  0  0  0
   28.3820   26.9470   46.1620 H   0  0  0  0  0  0  0  0  0  0  0  0
   30.5300   26.7850   45.6650 N   0  0  0  0  0  0  0  0  0  0  0  0
   31.6060   27.0220   46.4310 C   0  0  0  0  0  0  0  0  0  0  0  0
   32.9490   26.9170   46.1090 C   0  0  0  0  0  3  0  0  0  0  0  0
   29.2850   27.6770   48.4940 H   0  0  0  0  0  0  0  0  0  0  0  0
  2  1  2  6  0  0  0
  2  3  1  0  0  0  0
  2  5  1  0  0  0  0
  3  4  1  0  0  0  0
  6  9  1  0  0  0  0
  6  8  1  0  0  0  0
  6  5  1  0  0  0  0
  7  6  1  0  0  0  0
  9 11  1  0  0  0  0
  9 10  1  0  0  0  0
 12  9  1  0  0  0  0
 13 12  1  0  0  0  0
 13 18  1  0  0  0  0
 14 13  2  0  0  0  0
 15 16  2  0  0  0  0
 15 14  1  0  0  0  0
 16 17  1  0  0  0  0
 17 12  2  0  0  0  0
 19 14  1  0  0  0  0
 20 16  1  0  0  0  0
 21  2  1  0  0  0  0
 22 23  1  0  0  0  0
 23 24  2  0  0  0  0
 23 21  1  0  0  0  0
 24 25  1  0  0  0  0
 26 24  1  0  0  0  0
 27 26  1  0  0  0  0
 27 33  1  0  0  0  0
 28 27  1  0  0  0  0
 29 28  1  0  0  0  0
 30 31  1  0  0  0  0
 30 28  2  0  0  0  0
 31 26  2  0  0  0  0
 32 31  1  0  0  0  0
 32 22  2  0  0  0  0
M  END
>  <minimizedAffinity>
-5.5404563

>  <minimizedRMSD>
1.97318327

$$$$
