
 OpenBabel03272502183D

 36 39  0  0  1  0  0  0  0  0999 V2000
   37.1720   30.4830   49.2130 C   0  0  0  0  0  0  0  0  0  0  0  0
   37.3820   31.6200   50.0160 C   0  0  0  0  0  0  0  0  0  0  0  0
   38.2240   32.6150   49.5010 C   0  0  0  0  0  0  0  0  0  0  0  0
   38.7790   32.4200   48.2650 N   0  0  0  0  0  0  0  0  0  0  0  0
   38.5450   31.3170   47.5390 C   0  0  0  0  0  0  0  0  0  0  0  0
   37.7490   30.3600   48.0110 N   0  0  0  0  0  0  0  0  0  0  0  0
   36.9660   31.8020   50.9820 H   0  0  0  0  0  0  0  0  0  0  0  0
   38.4310   33.5110   50.0590 H   0  0  0  0  0  0  0  0  0  0  0  0
   40.1360   32.0760   45.8110 C   0  0  0  0  0  3  0  0  0  0  0  0
   39.1690   31.1730   46.2290 C   0  0  0  0  0  0  0  0  0  0  0  0
   38.8490   30.1630   45.3470 C   0  0  0  0  0  0  0  0  0  0  0  0
   38.0800   29.4630   45.7060 H   0  0  0  0  0  0  0  0  0  0  0  0
   39.4540   30.0380   44.0960 C   0  0  0  0  0  0  0  0  0  0  0  0
   39.2670   29.1190   43.1130 N   0  0  0  0  0  0  0  0  0  0  0  0
   40.1300   29.4960   42.1260 C   0  0  0  0  0  0  0  0  0  0  0  0
   40.2690   29.0050   41.1770 H   0  0  0  0  0  0  0  0  0  0  0  0
   40.8210   30.5980   42.4810 N   0  0  0  0  0  0  0  0  0  0  0  0
   40.4120   30.9600   43.7240 C   0  0  0  0  0  0  0  0  0  0  0  0
   40.7500   31.9790   44.5850 C   0  0  0  0  0  3  0  0  0  0  0  0
   38.6170   28.3180   43.1130 H   0  0  0  0  0  0  0  0  0  0  0  0
   36.0870   29.3070   49.9920 S   0  0  0  0  0  0  0  0  0  0  0  0
   33.7140   28.2730   49.2270 N   0  0  0  0  0  0  0  0  0  0  0  0
   34.3550   29.5510   49.4480 C   0  0  2  0  0  0  0  0  0  0  0  0
   34.3560   30.3170   48.1550 C   0  0  0  0  0  0  0  0  0  0  0  0
   33.4130   29.7800   47.2520 O   0  0  0  0  0  0  0  0  0  0  0  0
   33.9580   28.5350   46.8740 C   0  0  0  0  0  0  0  0  0  0  0  0
   34.3130   27.6730   48.0520 C   0  0  2  0  0  0  0  0  0  0  0  0
   32.6960   28.3900   49.1660 H   0  0  0  0  0  0  0  0  0  0  0  0
   33.7760   30.0800   50.2590 H   0  0  0  0  0  0  0  0  0  0  0  0
   35.3490   30.3450   47.6590 H   0  0  0  0  0  0  0  0  0  0  0  0
   33.9980   31.3460   48.3690 H   0  0  0  0  0  0  0  0  0  0  0  0
   33.1230   28.0380   46.3160 H   0  0  0  0  0  0  0  0  0  0  0  0
   34.7860   28.6350   46.1480 H   0  0  0  0  0  0  0  0  0  0  0  0
   35.3950   27.6200   48.2310 H   0  0  0  0  0  0  0  0  0  0  0  0
   33.7490   26.3880   47.9150 O   0  0  0  0  0  0  0  0  0  0  0  0
   33.2230   26.3640   47.0920 H   0  0  0  0  0  0  0  0  0  0  0  0
  1 21  1  0  0  0  0
  1  2  1  0  0  0  0
  2  7  1  0  0  0  0
  3  2  2  0  0  0  0
  3  8  1  0  0  0  0
  4  3  1  0  0  0  0
  5  6  1  0  0  0  0
  5  4  2  0  0  0  0
  6  1  2  0  0  0  0
  9 10  1  0  0  0  0
 10  5  1  0  0  0  0
 11 12  1  0  0  0  0
 11 10  2  0  0  0  0
 13 11  1  0  0  0  0
 14 13  1  0  0  0  0
 15 17  2  0  0  0  0
 15 14  1  0  0  0  0
 16 15  1  0  0  0  0
 17 18  1  0  0  0  0
 18 13  2  0  0  0  0
 18 19  1  0  0  0  0
 19  9  2  0  0  0  0
 20 14  1  0  0  0  0
 22 23  1  0  0  0  0
 23 21  1  0  0  0  0
 23 29  1  1  0  0  0
 24 31  1  0  0  0  0
 24 23  1  0  0  0  0
 25 24  1  0  0  0  0
 26 25  1  0  0  0  0
 26 27  1  0  0  0  0
 27 34  1  1  0  0  0
 27 22  1  0  0  0  0
 28 22  1  0  0  0  0
 30 24  1  0  0  0  0
 32 26  1  0  0  0  0
 33 26  1  0  0  0  0
 35 27  1  0  0  0  0
 36 35  1  0  0  0  0
M  END
>  <minimizedAffinity>
-6.37560797

>  <minimizedRMSD>
0.973123372

$$$$
