
 OpenBabel03272507523D

 35 38  0  0  0  0  0  0  0  0999 V2000
   37.0750   31.3670   48.1320 N   0  0  0  0  0  0  0  0  0  0  0  0
   37.6950   32.1690   48.9900 C   0  0  0  0  0  0  0  0  0  0  0  0
   38.7710   32.9450   48.5540 C   0  0  0  0  0  0  0  0  0  0  0  0
   39.0930   32.7980   47.2340 C   0  0  0  0  0  0  0  0  0  0  0  0
   40.0760   33.5190   46.8740 O   0  0  0  0  0  0  0  0  0  0  0  0
   38.4990   32.0100   46.3480 N   0  0  0  0  0  0  0  0  0  0  0  0
   37.4640   31.2800   46.8230 C   0  0  0  0  0  0  0  0  0  0  0  0
   36.8830   30.5190   45.9840 O   0  0  0  0  0  0  0  0  0  0  0  0
   37.2990   32.1500   49.9920 H   0  0  0  0  0  0  0  0  0  0  0  0
   39.2440   33.5740   49.2660 H   0  0  0  0  0  0  0  0  0  0  0  0
   38.5700   32.7090   43.9080 C   0  0  0  0  0  0  0  0  0  0  0  0
   38.9020   31.9170   44.9800 C   0  0  0  0  0  0  0  0  0  0  0  0
   39.7590   30.8280   44.8060 C   0  0  0  0  0  0  0  0  0  0  0  0
   40.0960   30.1290   45.5700 H   0  0  0  0  0  0  0  0  0  0  0  0
   40.2850   30.5330   43.5540 C   0  0  0  0  0  0  0  0  0  0  0  0
   41.1190   29.5810   43.0550 N   0  0  0  0  0  0  0  0  0  0  0  0
   41.2850   29.7900   41.7290 C   0  0  0  0  0  0  0  0  0  0  0  0
   41.9160   29.1400   41.1340 H   0  0  0  0  0  0  0  0  0  0  0  0
   40.5500   30.8860   41.3800 N   0  0  0  0  0  0  0  0  0  0  0  0
   39.9440   31.3360   42.4870 C   0  0  0  0  0  0  0  0  0  0  0  0
   39.0960   32.4090   42.6680 C   0  0  0  0  0  0  0  0  0  0  0  0
   41.5470   28.8130   43.6520 H   0  0  0  0  0  0  0  0  0  0  0  0
   35.8520   30.1720   49.8610 C   0  0  0  0  0  0  0  0  0  0  0  0
   35.9650   30.5340   48.5030 C   0  0  0  0  0  0  0  0  0  0  0  0
   35.0050   30.0690   47.5890 C   0  0  0  0  0  0  0  0  0  0  0  0
   34.0120   29.2890   48.0720 N   0  0  0  0  0  0  0  0  0  0  0  0
   33.9040   28.9480   49.3460 C   0  0  0  0  0  0  0  0  0  0  0  0
   34.8180   29.3870   50.2320 N   0  0  0  0  0  0  0  0  0  0  0  0
   35.1210   30.3630   46.5590 H   0  0  0  0  0  0  0  0  0  0  0  0
   33.1140   28.3250   49.7400 H   0  0  0  0  0  0  0  0  0  0  0  0
   37.6460   29.8770   51.7340 C   0  0  0  0  0  0  0  0  0  0  0  0
   37.7850   28.6390   51.6570 O   0  0  0  0  0  0  0  0  0  0  0  0
   36.7560   30.5960   50.8570 N   0  0  0  0  0  0  0  0  0  0  0  0
   38.2320   30.3670   52.4940 H   0  0  0  0  0  0  0  0  0  0  0  0
   36.8380   31.6400   51.0350 H   0  0  0  0  0  0  0  0  0  0  0  0
  1 24  1  0  0  0  0
  1  2  1  0  0  0  0
  2  9  1  0  0  0  0
  3  2  2  0  0  0  0
  3 10  1  0  0  0  0
  4  3  1  0  0  0  0
  5  4  2  0  0  0  0
  6  7  1  0  0  0  0
  6  4  1  0  0  0  0
  7  1  1  0  0  0  0
  8  7  2  0  0  0  0
 11 12  1  0  0  0  0
 12  6  1  0  0  0  0
 13 12  2  0  0  0  0
 13 14  1  0  0  0  0
 15 13  1  0  0  0  0
 16 15  1  0  0  0  0
 16 22  1  0  0  0  0
 17 16  1  0  0  0  0
 18 17  1  0  0  0  0
 19 17  2  0  0  0  0
 19 20  1  0  0  0  0
 20 21  1  0  0  0  0
 20 15  2  0  0  0  0
 21 11  2  0  0  0  0
 23 28  1  0  0  0  0
 23 33  1  0  0  0  0
 24 23  2  0  0  0  0
 25 26  2  0  0  0  0
 25 24  1  0  0  0  0
 26 27  1  0  0  0  0
 27 30  1  0  0  0  0
 27 28  2  0  0  0  0
 29 25  1  0  0  0  0
 31 34  1  0  0  0  0
 32 31  2  0  0  0  0
 33 35  1  0  0  0  0
 33 31  1  0  0  0  0
M  END
>  <minimizedAffinity>
-7.01369381

>  <minimizedRMSD>
2.46318936

$$$$
