
 OpenBabel03272508193D

 34 37  0  0  0  0  0  0  0  0999 V2000
   34.8340   28.6810   48.4760 C   0  0  0  0  0  0  0  0  0  0  0  0
   34.4880   27.7050   48.9710 H   0  0  0  0  0  0  0  0  0  0  0  0
   35.6360   28.3200   47.7910 H   0  0  0  0  0  0  0  0  0  0  0  0
   32.5700   28.3220   47.4600 C   0  0  0  0  0  0  0  0  0  0  0  0
   33.7190   29.1020   47.6520 C   0  0  0  0  0  0  0  0  0  0  0  0
   33.7400   30.2770   46.9500 C   0  0  0  0  0  0  0  0  0  0  0  0
   32.7100   30.6410   46.1360 N   0  0  0  0  0  0  0  0  0  0  0  0
   31.6140   29.8580   45.9750 C   0  0  0  0  0  0  0  0  0  0  0  0
   31.5430   28.7080   46.6310 N   0  0  0  0  0  0  0  0  0  0  0  0
   34.4900   31.0000   46.9170 H   0  0  0  0  0  0  0  0  0  0  0  0
   30.7850   30.1240   45.3340 H   0  0  0  0  0  0  0  0  0  0  0  0
   32.4660   27.0400   48.2780 C   0  0  0  0  0  0  0  0  0  0  0  0
   31.4760   26.0630   48.0100 C   0  0  0  0  0  0  0  0  0  0  0  0
   32.8200   25.8340   47.3420 C   0  0  0  0  0  0  0  0  0  0  0  0
   33.1950   26.9570   49.1200 H   0  0  0  0  0  0  0  0  0  0  0  0
   30.6160   26.2080   47.3250 H   0  0  0  0  0  0  0  0  0  0  0  0
   31.1920   25.3640   48.8450 H   0  0  0  0  0  0  0  0  0  0  0  0
   33.4460   25.0340   47.7200 H   0  0  0  0  0  0  0  0  0  0  0  0
   32.8840   26.0020   46.2740 H   0  0  0  0  0  0  0  0  0  0  0  0
   35.3010   29.5200   49.5770 C   0  0  0  0  0  0  0  0  0  0  0  0
   34.3910   30.0670   49.9730 H   0  0  0  0  0  0  0  0  0  0  0  0
   35.5870   28.9180   50.5050 H   0  0  0  0  0  0  0  0  0  0  0  0
   37.1060   30.1260   48.1580 C   0  0  0  0  0  0  0  0  0  0  0  0
   36.3500   30.5180   49.2860 C   0  0  0  0  0  0  0  0  0  0  0  0
   36.7860   31.7260   49.7740 C   0  0  0  0  0  0  0  0  0  0  0  0
   36.2190   32.0470   50.6070 H   0  0  0  0  0  0  0  0  0  0  0  0
   37.8170   32.4550   49.2410 C   0  0  0  0  0  0  0  0  0  0  0  0
   38.2640   33.6370   49.7000 N   0  0  0  0  0  0  0  0  0  0  0  0
   39.2770   33.9930   48.8890 C   0  0  0  0  0  0  0  0  0  0  0  0
   39.9130   34.8660   48.8960 H   0  0  0  0  0  0  0  0  0  0  0  0
   39.4160   33.0240   47.9670 N   0  0  0  0  0  0  0  0  0  0  0  0
   38.5290   32.0360   48.1400 C   0  0  0  0  0  0  0  0  0  0  0  0
   38.1540   30.8360   47.5890 C   0  0  0  0  0  0  0  0  0  0  0  0
   37.9420   34.2130   50.5040 H   0  0  0  0  0  0  0  0  0  0  0  0
  1  2  1  0  0  0  0
  1 20  1  0  0  0  0
  3  1  1  0  0  0  0
  4  5  1  0  0  0  0
  4 12  1  0  0  0  0
  5  1  1  0  0  0  0
  6  5  2  0  0  0  0
  7  6  1  0  0  0  0
  8  7  2  0  0  0  0
  8  9  1  0  0  0  0
  9  4  2  0  0  0  0
 10  6  1  0  0  0  0
 11  8  1  0  0  0  0
 12 15  1  0  0  0  0
 13 12  1  0  0  0  0
 13 17  1  0  0  0  0
 14 18  1  0  0  0  0
 14 13  1  0  0  0  0
 14 12  1  0  0  0  0
 16 13  1  0  0  0  0
 19 14  1  0  0  0  0
 20 21  1  0  0  0  0
 20 22  1  0  0  0  0
 23 24  1  0  0  0  0
 24 20  1  0  0  0  0
 24 25  2  0  0  0  0
 25 26  1  0  0  0  0
 27 28  1  0  0  0  0
 27 25  1  0  0  0  0
 28 34  1  0  0  0  0
 29 30  1  0  0  0  0
 29 28  1  0  0  0  0
 31 32  1  0  0  0  0
 31 29  2  0  0  0  0
 32 27  2  0  0  0  0
 33 32  1  0  0  0  0
 33 23  2  0  0  0  0
M  END
>  <minimizedAffinity>
-5.6231575

>  <minimizedRMSD>
5.72266626

$$$$
