
 OpenBabel03262521093D

 27 29  0  0  0  0  0  0  0  0999 V2000
   35.6180   30.1660   46.4320 O   0  0  0  0  0  0  0  0  0  0  0  0
   34.3770   29.8640   47.2520 P   0  0  1  0  0  0  0  0  0  0  0  0
   34.2030   28.1750   47.4470 O   0  0  0  0  0  0  0  0  0  0  0  0
   33.4580   28.0120   48.0560 H   0  0  0  0  0  0  0  0  0  0  0  0
   34.4740   30.5000   48.8380 O   0  0  0  0  0  0  0  0  0  0  0  0
   35.6300   30.4370   49.5980 C   0  0  0  0  0  0  0  0  0  0  0  0
   35.8880   29.4770   50.5900 C   0  0  0  0  0  0  0  0  0  0  0  0
   37.0910   29.5360   51.2720 C   0  0  0  0  0  0  0  0  0  0  0  0
   37.9790   30.5310   50.9500 N   0  0  0  0  0  0  0  0  0  0  0  0
   37.6920   31.4510   49.9750 C   0  0  0  0  0  0  0  0  0  0  0  0
   36.5240   31.3970   49.3090 N   0  0  0  0  0  0  0  0  0  0  0  0
   35.1280   28.7570   50.7520 H   0  0  0  0  0  0  0  0  0  0  0  0
   37.2920   28.8080   52.0280 H   0  0  0  0  0  0  0  0  0  0  0  0
   38.4180   32.2290   49.7410 H   0  0  0  0  0  0  0  0  0  0  0  0
   33.0660   30.5210   46.4300 O   0  0  0  0  0  0  0  0  0  0  0  0
   31.2810   28.8760   46.7180 C   0  0  0  0  0  3  0  0  0  0  0  0
   31.9250   29.8770   46.0220 C   0  0  0  0  0  0  0  0  0  0  0  0
   31.4370   30.3270   44.7900 C   0  0  0  0  0  0  0  0  0  0  0  0
   31.8720   31.0980   44.1830 H   0  0  0  0  0  0  0  0  0  0  0  0
   30.2820   29.7330   44.2930 C   0  0  0  0  0  0  0  0  0  0  0  0
   29.5540   29.9080   43.1780 N   0  0  0  0  0  0  0  0  0  0  0  0
   28.4990   29.0610   43.1660 C   0  0  0  0  0  0  0  0  0  0  0  0
   27.7040   28.9170   42.4390 H   0  0  0  0  0  0  0  0  0  0  0  0
   28.5590   28.3240   44.3100 N   0  0  0  0  0  0  0  0  0  0  0  0
   29.6550   28.7330   45.0070 C   0  0  0  0  0  0  0  0  0  0  0  0
   30.1190   28.2670   46.2320 C   0  0  0  0  0  3  0  0  0  0  0  0
   29.7440   30.5980   42.4000 H   0  0  0  0  0  0  0  0  0  0  0  0
  2  1  2  6  0  0  0
  2  3  1  0  0  0  0
  2  5  1  0  0  0  0
  3  4  1  0  0  0  0
  5  6  1  0  0  0  0
  6  7  1  0  0  0  0
  7 12  1  0  0  0  0
  7  8  2  0  0  0  0
  8 13  1  0  0  0  0
  9  8  1  0  0  0  0
 10  9  2  0  0  0  0
 11  6  2  0  0  0  0
 11 10  1  0  0  0  0
 14 10  1  0  0  0  0
 15  2  1  0  0  0  0
 17 15  1  0  0  0  0
 17 16  2  0  0  0  0
 18 17  1  0  0  0  0
 19 18  1  0  0  0  0
 20 18  2  0  0  0  0
 20 25  1  0  0  0  0
 21 20  1  0  0  0  0
 22 21  1  0  0  0  0
 22 24  2  0  0  0  0
 23 22  1  0  0  0  0
 24 25  1  0  0  0  0
 25 26  2  0  0  0  0
 26 16  1  0  0  0  0
 27 21  1  0  0  0  0
M  END
>  <minimizedAffinity>
-4.03324699

>  <minimizedRMSD>
1.11921883

$$$$
