
 OpenBabel03272502593D

 37 40  0  0  1  0  0  0  0  0999 V2000
   35.8700   29.6770   48.8670 N   0  0  0  0  0  0  0  0  0  0  0  0
   36.6760   28.8530   49.7430 C   0  0  0  0  0  0  0  0  0  0  0  0
   37.1640   29.4470   50.9830 C   0  0  0  0  0  0  0  0  0  0  0  0
   37.3310   30.9120   51.0520 C   0  0  0  0  0  0  0  0  0  0  0  0
   36.5150   31.6710   50.0500 C   0  0  0  0  0  0  0  0  0  0  0  0
   36.5490   30.9540   48.6940 C   0  0  1  0  0  0  0  0  0  0  0  0
   36.0740   27.9350   49.9420 H   0  0  0  0  0  0  0  0  0  0  0  0
   37.5380   28.5080   49.1050 H   0  0  0  0  0  0  0  0  0  0  0  0
   36.4820   29.1300   51.8190 H   0  0  0  0  0  0  0  0  0  0  0  0
   38.1530   28.9740   51.2450 H   0  0  0  0  0  0  0  0  0  0  0  0
   37.0390   31.3020   52.0620 H   0  0  0  0  0  0  0  0  0  0  0  0
   38.4000   31.2030   50.9480 H   0  0  0  0  0  0  0  0  0  0  0  0
   36.8430   32.7140   49.9740 H   0  0  0  0  0  0  0  0  0  0  0  0
   35.4510   31.6410   50.3670 H   0  0  0  0  0  0  0  0  0  0  0  0
   36.0620   31.5890   47.9500 H   0  0  0  0  0  0  0  0  0  0  0  0
   34.6330   29.2910   48.2840 C   0  0  0  0  0  0  0  0  0  0  0  0
   34.1130   29.8300   47.1110 C   0  0  0  0  0  0  0  0  0  0  0  0
   32.8950   29.3750   46.6380 C   0  0  0  0  0  0  0  0  0  0  0  0
   32.2620   28.4090   47.3610 N   0  0  0  0  0  0  0  0  0  0  0  0
   32.7890   27.9100   48.4870 C   0  0  0  0  0  0  0  0  0  0  0  0
   33.9700   28.3550   48.9410 N   0  0  0  0  0  0  0  0  0  0  0  0
   34.6860   30.5920   46.6050 H   0  0  0  0  0  0  0  0  0  0  0  0
   32.5130   29.8120   45.7200 H   0  0  0  0  0  0  0  0  0  0  0  0
   32.2280   27.1300   49.0250 H   0  0  0  0  0  0  0  0  0  0  0  0
   37.9040   30.7720   48.4270 O   0  0  0  0  0  0  0  0  0  0  0  0
   39.1000   32.3620   47.3110 C   0  0  0  0  0  3  0  0  0  0  0  0
   38.5000   31.0980   47.2450 C   0  0  0  0  0  0  0  0  0  0  0  0
   38.6090   30.4270   46.0480 C   0  0  0  0  0  0  0  0  0  0  0  0
   38.1290   29.4660   46.0580 H   0  0  0  0  0  0  0  0  0  0  0  0
   39.2600   30.9470   44.9720 C   0  0  0  0  0  0  0  0  0  0  0  0
   39.4680   30.4500   43.7390 N   0  0  0  0  0  0  0  0  0  0  0  0
   40.1730   31.3560   43.0390 C   0  0  0  0  0  0  0  0  0  0  0  0
   40.4610   31.1730   42.0110 H   0  0  0  0  0  0  0  0  0  0  0  0
   40.4100   32.4210   43.8280 N   0  0  0  0  0  0  0  0  0  0  0  0
   39.8500   32.1830   45.0320 C   0  0  0  0  0  0  0  0  0  0  0  0
   39.7710   32.9090   46.2230 C   0  0  0  0  0  3  0  0  0  0  0  0
   39.1330   29.5200   43.4000 H   0  0  0  0  0  0  0  0  0  0  0  0
  1  2  1  0  0  0  0
  2  7  1  0  0  0  0
  2  3  1  0  0  0  0
  3  4  1  0  0  0  0
  3 10  1  0  0  0  0
  3  9  1  0  0  0  0
  4 11  1  0  0  0  0
  5 14  1  0  0  0  0
  5  4  1  0  0  0  0
  6 15  1  6  0  0  0
  6  1  1  0  0  0  0
  6  5  1  0  0  0  0
  8  2  1  0  0  0  0
 12  4  1  0  0  0  0
 13  5  1  0  0  0  0
 16  1  1  0  0  0  0
 16 21  1  0  0  0  0
 17 16  2  0  0  0  0
 18 17  1  0  0  0  0
 18 19  2  0  0  0  0
 19 20  1  0  0  0  0
 20 21  2  0  0  0  0
 20 24  1  0  0  0  0
 22 17  1  0  0  0  0
 23 18  1  0  0  0  0
 25  6  1  0  0  0  0
 27 26  1  0  0  0  0
 27 25  1  0  0  0  0
 28 29  1  0  0  0  0
 28 27  2  0  0  0  0
 30 35  2  0  0  0  0
 30 28  1  0  0  0  0
 31 30  1  0  0  0  0
 32 31  1  0  0  0  0
 32 34  2  0  0  0  0
 33 32  1  0  0  0  0
 34 35  1  0  0  0  0
 35 36  1  0  0  0  0
 36 26  2  0  0  0  0
 37 31  1  0  0  0  0
M  END
>  <minimizedAffinity>
-6.30871153

>  <minimizedRMSD>
0.947720051

$$$$
