
 OpenBabel03272503053D

 35 38  0  0  0  0  0  0  0  0999 V2000
   38.4440   30.4250   47.3340 F   0  0  0  0  0  0  0  0  0  0  0  0
   38.7310   31.6650   47.8270 C   0  0  0  0  0  0  0  0  0  0  0  0
   38.1700   32.0630   49.0090 C   0  0  0  0  0  0  0  0  0  0  0  0
   38.5020   33.3180   49.4430 C   0  0  0  0  0  0  0  0  0  0  0  0
   39.3450   34.1570   48.7590 C   0  0  0  0  0  0  0  0  0  0  0  0
   39.8930   33.7210   47.5660 C   0  0  0  0  0  0  0  0  0  0  0  0
   39.5830   32.4610   47.0960 C   0  0  0  0  0  0  0  0  0  0  0  0
   38.0520   33.6410   50.3940 H   0  0  0  0  0  0  0  0  0  0  0  0
   39.5450   35.1350   49.1890 H   0  0  0  0  0  0  0  0  0  0  0  0
   40.5550   34.3820   47.0300 H   0  0  0  0  0  0  0  0  0  0  0  0
   36.7740   29.5750   51.4910 C   0  0  0  0  0  0  0  0  0  0  0  0
   37.6590   30.4600   50.8420 C   0  0  0  0  0  0  0  0  0  0  0  0
   37.2790   31.1390   49.7050 C   0  0  0  0  0  0  0  0  0  0  0  0
   36.0150   30.9120   49.2430 N   0  0  0  0  0  0  0  0  0  0  0  0
   35.1720   30.0660   49.8630 C   0  0  0  0  0  0  0  0  0  0  0  0
   35.5470   29.4140   50.9620 N   0  0  0  0  0  0  0  0  0  0  0  0
   37.1340   29.0670   52.3880 H   0  0  0  0  0  0  0  0  0  0  0  0
   38.6640   30.6640   51.1780 H   0  0  0  0  0  0  0  0  0  0  0  0
   34.1910   29.9520   49.4210 H   0  0  0  0  0  0  0  0  0  0  0  0
   39.2760   32.1570   44.7370 C   0  0  0  0  0  0  0  0  0  0  0  0
   38.1640   32.7080   44.9870 O   0  0  0  0  0  0  0  0  0  0  0  0
   40.1320   31.9770   45.8640 N   0  0  0  0  0  0  0  0  0  0  0  0
   41.0430   31.5290   45.7100 H   0  0  0  0  0  0  0  0  0  0  0  0
   40.4160   30.6760   43.2350 C   0  0  0  0  0  3  0  0  0  0  0  0
   39.5860   31.7680   43.3820 C   0  0  0  0  0  0  0  0  0  0  0  0
   39.0700   32.4660   42.3100 C   0  0  0  0  0  0  0  0  0  0  0  0
   38.4190   33.3230   42.4240 H   0  0  0  0  0  0  0  0  0  0  0  0
   39.3910   32.0610   41.0270 C   0  0  0  0  0  0  0  0  0  0  0  0
   39.0480   32.5320   39.8140 N   0  0  0  0  0  0  0  0  0  0  0  0
   39.6470   31.7550   38.9080 C   0  0  0  0  0  0  0  0  0  0  0  0
   39.5290   31.9270   37.8440 H   0  0  0  0  0  0  0  0  0  0  0  0
   40.3590   30.8050   39.5310 N   0  0  0  0  0  0  0  0  0  0  0  0
   40.2210   30.9680   40.8780 C   0  0  0  0  0  0  0  0  0  0  0  0
   40.7460   30.2580   41.9430 C   0  0  0  0  0  3  0  0  0  0  0  0
   38.4240   33.3570   39.6700 H   0  0  0  0  0  0  0  0  0  0  0  0
  1  2  1  0  0  0  0
  2  3  1  0  0  0  0
  3  4  2  0  0  0  0
  3 13  1  0  0  0  0
  4  8  1  0  0  0  0
  5  9  1  0  0  0  0
  5  4  1  0  0  0  0
  6  5  2  0  0  0  0
  7  6  1  0  0  0  0
  7  2  2  0  0  0  0
 10  6  1  0  0  0  0
 11 17  1  0  0  0  0
 12 18  1  0  0  0  0
 12 11  2  0  0  0  0
 13 12  1  0  0  0  0
 14 13  2  0  0  0  0
 14 15  1  0  0  0  0
 15 16  2  0  0  0  0
 16 11  1  0  0  0  0
 19 15  1  0  0  0  0
 20 21  2  0  0  0  0
 20 22  1  0  0  0  0
 22  7  1  0  0  0  0
 23 22  1  0  0  0  0
 24 25  1  0  0  0  0
 25 20  1  0  0  0  0
 26 27  1  0  0  0  0
 26 25  2  0  0  0  0
 28 26  1  0  0  0  0
 29 28  1  0  0  0  0
 30 32  2  0  0  0  0
 30 29  1  0  0  0  0
 31 30  1  0  0  0  0
 32 33  1  0  0  0  0
 33 28  2  0  0  0  0
 33 34  1  0  0  0  0
 34 24  2  0  0  0  0
 35 29  1  0  0  0  0
M  END
>  <minimizedAffinity>
-7.01124334

>  <minimizedRMSD>
0.163570762

$$$$
