
 OpenBabel03272504243D

 42 45  0  0  1  0  0  0  0  0999 V2000
   35.6890   28.4270   32.5750 C   0  0  2  0  0  0  0  0  0  0  0  0
   36.5860   27.2040   32.4730 C   0  0  1  0  0  0  0  0  0  0  0  0
   36.3780   26.9080   30.9770 C   0  0  0  0  0  0  0  0  0  0  0  0
   36.6250   28.1600   30.4310 O   0  0  0  0  0  0  0  0  0  0  0  0
   36.0270   29.0900   31.2470 C   0  0  0  0  0  0  0  0  0  0  0  0
   34.6430   28.0620   32.5900 H   0  0  0  0  0  0  0  0  0  0  0  0
   36.2710   26.3680   33.0960 H   0  0  0  0  0  0  0  0  0  0  0  0
   35.3080   26.6690   30.8490 H   0  0  0  0  0  0  0  0  0  0  0  0
   37.0660   26.1480   30.6090 H   0  0  0  0  0  0  0  0  0  0  0  0
   35.1370   29.5010   30.7470 H   0  0  0  0  0  0  0  0  0  0  0  0
   36.7370   29.9320   31.4800 H   0  0  0  0  0  0  0  0  0  0  0  0
   37.8750   27.6340   32.6880 O   0  0  0  0  0  0  0  0  0  0  0  0
   40.0840   27.0200   33.9220 O   0  0  0  0  0  0  0  0  0  0  0  0
   38.5950   26.8720   34.0090 P   0  0  1  0  0  0  0  0  0  0  0  0
   38.0720   27.6080   35.4690 O   0  0  0  0  0  0  0  0  0  0  0  0
   38.5580   28.4520   35.6150 H   0  0  0  0  0  0  0  0  0  0  0  0
   38.1570   25.2270   34.0320 O   0  0  0  0  0  0  0  0  0  0  0  0
   39.2370   24.5260   34.5310 C   0  0  0  0  0  0  0  0  0  0  0  0
   40.1070   25.2360   34.4860 H   0  0  0  0  0  0  0  0  0  0  0  0
   39.5060   23.6840   33.8710 H   0  0  0  0  0  0  0  0  0  0  0  0
   39.0660   24.1150   35.9410 C   0  0  0  0  0  0  0  0  0  0  0  0
   39.9870   23.2270   36.4430 C   0  0  0  0  0  0  0  0  0  0  0  0
   39.8810   22.7990   37.7680 C   0  0  0  0  0  0  0  0  0  0  0  0
   38.8440   23.3000   38.4980 N   0  0  0  0  0  0  0  0  0  0  0  0
   37.9510   24.1710   37.9830 C   0  0  0  0  0  0  0  0  0  0  0  0
   38.0580   24.5820   36.7010 N   0  0  0  0  0  0  0  0  0  0  0  0
   40.8290   22.7810   35.9510 H   0  0  0  0  0  0  0  0  0  0  0  0
   40.5560   22.1040   38.2530 H   0  0  0  0  0  0  0  0  0  0  0  0
   37.1330   24.5540   38.5900 H   0  0  0  0  0  0  0  0  0  0  0  0
   36.0780   29.1470   33.6730 O   0  0  0  0  0  0  0  0  0  0  0  0
   33.9570   29.6890   34.4280 C   0  0  0  0  0  3  0  0  0  0  0  0
   35.3250   29.9220   34.5230 C   0  0  0  0  0  0  0  0  0  0  0  0
   35.7590   30.8760   35.4320 C   0  0  0  0  0  0  0  0  0  0  0  0
   36.8370   30.9970   35.4430 H   0  0  0  0  0  0  0  0  0  0  0  0
   34.8480   31.5650   36.2110 C   0  0  0  0  0  0  0  0  0  0  0  0
   35.0770   32.5180   37.1370 N   0  0  0  0  0  0  0  0  0  0  0  0
   33.8590   32.8540   37.5980 C   0  0  0  0  0  0  0  0  0  0  0  0
   33.7470   33.6220   38.3750 H   0  0  0  0  0  0  0  0  0  0  0  0
   32.9100   32.1320   36.9730 N   0  0  0  0  0  0  0  0  0  0  0  0
   33.5010   31.2970   36.0790 C   0  0  0  0  0  0  0  0  0  0  0  0
   33.0250   30.3600   35.1930 C   0  0  0  0  0  3  0  0  0  0  0  0
   35.9960   32.9070   37.4330 H   0  0  0  0  0  0  0  0  0  0  0  0
  1  6  1  1  0  0  0
  1 30  1  0  0  0  0
  2  1  1  0  0  0  0
  2 12  1  0  0  0  0
  2  7  1  1  0  0  0
  3  2  1  0  0  0  0
  4  3  1  0  0  0  0
  4  5  1  0  0  0  0
  5 11  1  0  0  0  0
  5  1  1  0  0  0  0
  8  3  1  0  0  0  0
  9  3  1  0  0  0  0
 10  5  1  0  0  0  0
 12 14  1  0  0  0  0
 14 13  2  6  0  0  0
 14 17  1  0  0  0  0
 14 15  1  0  0  0  0
 15 16  1  0  0  0  0
 17 18  1  0  0  0  0
 18 21  1  0  0  0  0
 19 18  1  0  0  0  0
 20 18  1  0  0  0  0
 21 22  2  0  0  0  0
 21 26  1  0  0  0  0
 22 23  1  0  0  0  0
 23 28  1  0  0  0  0
 23 24  2  0  0  0  0
 25 24  1  0  0  0  0
 25 29  1  0  0  0  0
 26 25  2  0  0  0  0
 27 22  1  0  0  0  0
 30 32  1  0  0  0  0
 31 32  2  0  0  0  0
 31 41  1  0  0  0  0
 32 33  1  0  0  0  0
 33 34  1  0  0  0  0
 33 35  2  0  0  0  0
 35 36  1  0  0  0  0
 36 42  1  0  0  0  0
 36 37  1  0  0  0  0
 37 38  1  0  0  0  0
 39 37  2  0  0  0  0
 40 35  1  0  0  0  0
 40 39  1  0  0  0  0
 41 40  2  0  0  0  0
M  END
>  <minimizedAffinity>
-5.8156743

$$$$

 OpenBabel03272504243D

 42 45  0  0  1  0  0  0  0  0999 V2000
   37.9450   22.8440   36.3590 C   0  0  2  0  0  0  0  0  0  0  0  0
   37.7690   24.3320   36.6100 C   0  0  1  0  0  0  0  0  0  0  0  0
   38.0120   24.3250   38.1290 C   0  0  0  0  0  0  0  0  0  0  0  0
   39.2000   23.6110   38.1970 O   0  0  0  0  0  0  0  0  0  0  0  0
   39.1070   22.5710   37.3040 C   0  0  0  0  0  0  0  0  0  0  0  0
   37.0170   22.3440   36.7030 H   0  0  0  0  0  0  0  0  0  0  0  0
   36.7790   24.7120   36.3630 H   0  0  0  0  0  0  0  0  0  0  0  0
   37.2050   23.7150   38.5740 H   0  0  0  0  0  0  0  0  0  0  0  0
   38.1040   25.3310   38.5370 H   0  0  0  0  0  0  0  0  0  0  0  0
   38.9850   21.6240   37.8520 H   0  0  0  0  0  0  0  0  0  0  0  0
   40.0320   22.5080   36.6660 H   0  0  0  0  0  0  0  0  0  0  0  0
   38.8100   24.9710   35.9750 O   0  0  0  0  0  0  0  0  0  0  0  0
   36.8680   26.4760   35.1150 O   0  0  0  0  0  0  0  0  0  0  0  0
   38.3520   26.4590   35.3270 P   0  0  1  0  0  0  0  0  0  0  0  0
   38.7490   27.7230   36.4180 O   0  0  0  0  0  0  0  0  0  0  0  0
   38.0830   27.7660   37.1430 H   0  0  0  0  0  0  0  0  0  0  0  0
   39.1700   26.7210   33.8570 O   0  0  0  0  0  0  0  0  0  0  0  0
   38.4850   26.0230   32.8820 C   0  0  0  0  0  0  0  0  0  0  0  0
   37.5830   25.5910   33.3940 H   0  0  0  0  0  0  0  0  0  0  0  0
   39.0680   25.1570   32.5260 H   0  0  0  0  0  0  0  0  0  0  0  0
   38.0050   26.8820   31.7770 C   0  0  0  0  0  0  0  0  0  0  0  0
   38.8720   27.0870   30.7300 C   0  0  0  0  0  0  0  0  0  0  0  0
   38.4790   27.8880   29.6570 C   0  0  0  0  0  0  0  0  0  0  0  0
   37.2290   28.4300   29.7150 N   0  0  0  0  0  0  0  0  0  0  0  0
   36.3950   28.2140   30.7540 C   0  0  0  0  0  0  0  0  0  0  0  0
   36.7800   27.4390   31.7900 N   0  0  0  0  0  0  0  0  0  0  0  0
   39.8660   26.7070   30.5960 H   0  0  0  0  0  0  0  0  0  0  0  0
   39.0890   28.1080   28.7890 H   0  0  0  0  0  0  0  0  0  0  0  0
   35.4020   28.6610   30.7730 H   0  0  0  0  0  0  0  0  0  0  0  0
   38.2500   22.6710   35.0340 O   0  0  0  0  0  0  0  0  0  0  0  0
   36.4660   21.2770   34.5460 C   0  0  0  0  0  3  0  0  0  0  0  0
   37.6210   21.9010   34.0850 C   0  0  0  0  0  0  0  0  0  0  0  0
   37.9940   21.6820   32.7660 C   0  0  0  0  0  0  0  0  0  0  0  0
   38.9040   22.2030   32.4880 H   0  0  0  0  0  0  0  0  0  0  0  0
   37.2320   20.8680   31.9500 C   0  0  0  0  0  0  0  0  0  0  0  0
   37.4330   20.5400   30.6580 N   0  0  0  0  0  0  0  0  0  0  0  0
   36.4080   19.7280   30.3410 C   0  0  0  0  0  0  0  0  0  0  0  0
   36.3200   19.3050   29.3330 H   0  0  0  0  0  0  0  0  0  0  0  0
   35.6030   19.5610   31.4080 N   0  0  0  0  0  0  0  0  0  0  0  0
   36.0940   20.2720   32.4550 C   0  0  0  0  0  0  0  0  0  0  0  0
   35.6860   20.4590   33.7540 C   0  0  0  0  0  3  0  0  0  0  0  0
   38.2100   20.8490   30.0380 H   0  0  0  0  0  0  0  0  0  0  0  0
  1  2  1  0  0  0  0
  1  6  1  1  0  0  0
  1  5  1  0  0  0  0
  2  7  1  6  0  0  0
  2  3  1  0  0  0  0
  3  4  1  0  0  0  0
  3  9  1  0  0  0  0
  3  8  1  0  0  0  0
  5 10  1  0  0  0  0
  5  4  1  0  0  0  0
 11  5  1  0  0  0  0
 12  2  1  0  0  0  0
 14 13  2  6  0  0  0
 14 12  1  0  0  0  0
 14 15  1  0  0  0  0
 15 16  1  0  0  0  0
 17 14  1  0  0  0  0
 18 19  1  0  0  0  0
 18 17  1  0  0  0  0
 20 18  1  0  0  0  0
 21 26  1  0  0  0  0
 21 18  1  0  0  0  0
 22 21  2  0  0  0  0
 23 24  2  0  0  0  0
 23 22  1  0  0  0  0
 24 25  1  0  0  0  0
 25 29  1  0  0  0  0
 25 26  2  0  0  0  0
 27 22  1  0  0  0  0
 28 23  1  0  0  0  0
 30  1  1  0  0  0  0
 32 31  1  0  0  0  0
 32 30  1  0  0  0  0
 33 32  2  0  0  0  0
 34 33  1  0  0  0  0
 35 40  2  0  0  0  0
 35 33  1  0  0  0  0
 36 35  1  0  0  0  0
 37 36  1  0  0  0  0
 37 39  2  0  0  0  0
 38 37  1  0  0  0  0
 39 40  1  0  0  0  0
 40 41  1  0  0  0  0
 41 31  2  0  0  0  0
 42 36  1  0  0  0  0
M  END
>  <minimizedAffinity>
-5.44812298

$$$$

 OpenBabel03272504243D

 42 45  0  0  1  0  0  0  0  0999 V2000
   36.4740   24.9690   31.0500 C   0  0  2  0  0  0  0  0  0  0  0  0
   37.4860   25.9850   31.5540 C   0  0  1  0  0  0  0  0  0  0  0  0
   36.9220   27.2250   30.8380 C   0  0  0  0  0  0  0  0  0  0  0  0
   35.5840   27.1440   31.1990 O   0  0  0  0  0  0  0  0  0  0  0  0
   35.2150   25.8220   31.1180 C   0  0  0  0  0  0  0  0  0  0  0  0
   36.7460   24.7320   30.0030 H   0  0  0  0  0  0  0  0  0  0  0  0
   38.5120   25.7790   31.2530 H   0  0  0  0  0  0  0  0  0  0  0  0
   37.0110   27.0310   29.7540 H   0  0  0  0  0  0  0  0  0  0  0  0
   37.3930   28.1470   31.1790 H   0  0  0  0  0  0  0  0  0  0  0  0
   34.5640   25.6750   30.2430 H   0  0  0  0  0  0  0  0  0  0  0  0
   34.6610   25.5050   32.0450 H   0  0  0  0  0  0  0  0  0  0  0  0
   37.2930   26.1030   32.9110 O   0  0  0  0  0  0  0  0  0  0  0  0
   39.6330   27.2430   32.8690 O   0  0  0  0  0  0  0  0  0  0  0  0
   38.7270   26.4260   33.7390 P   0  0  1  0  0  0  0  0  0  0  0  0
   38.3950   27.3290   35.1600 O   0  0  0  0  0  0  0  0  0  0  0  0
   38.2440   28.2750   34.9320 H   0  0  0  0  0  0  0  0  0  0  0  0
   39.4780   24.9620   34.1780 O   0  0  0  0  0  0  0  0  0  0  0  0
   38.4930   24.1330   34.6740 C   0  0  0  0  0  0  0  0  0  0  0  0
   38.6270   23.1500   34.1450 H   0  0  0  0  0  0  0  0  0  0  0  0
   37.4890   24.4900   34.3890 H   0  0  0  0  0  0  0  0  0  0  0  0
   38.6180   23.8810   36.1260 C   0  0  0  0  0  0  0  0  0  0  0  0
   39.6730   23.0990   36.5310 C   0  0  0  0  0  0  0  0  0  0  0  0
   39.8460   22.8240   37.8890 C   0  0  0  0  0  0  0  0  0  0  0  0
   38.9350   23.3600   38.7490 N   0  0  0  0  0  0  0  0  0  0  0  0
   37.9050   24.1250   38.3280 C   0  0  0  0  0  0  0  0  0  0  0  0
   37.7420   24.3880   37.0140 N   0  0  0  0  0  0  0  0  0  0  0  0
   40.4350   22.6370   35.9350 H   0  0  0  0  0  0  0  0  0  0  0  0
   40.6450   22.2220   38.3040 H   0  0  0  0  0  0  0  0  0  0  0  0
   37.1920   24.5390   39.0380 H   0  0  0  0  0  0  0  0  0  0  0  0
   36.4760   23.9060   31.9140 O   0  0  0  0  0  0  0  0  0  0  0  0
   35.3310   21.9050   32.1320 C   0  0  0  0  0  3  0  0  0  0  0  0
   36.4580   22.5590   31.6440 C   0  0  0  0  0  0  0  0  0  0  0  0
   37.4020   21.8030   30.9630 C   0  0  0  0  0  0  0  0  0  0  0  0
   38.2470   22.3870   30.6160 H   0  0  0  0  0  0  0  0  0  0  0  0
   37.2140   20.4450   30.7840 C   0  0  0  0  0  0  0  0  0  0  0  0
   38.0110   19.5570   30.1580 N   0  0  0  0  0  0  0  0  0  0  0  0
   37.3710   18.3780   30.2660 C   0  0  0  0  0  0  0  0  0  0  0  0
   37.8030   17.4660   29.8370 H   0  0  0  0  0  0  0  0  0  0  0  0
   36.2160   18.5380   30.9400 N   0  0  0  0  0  0  0  0  0  0  0  0
   36.0790   19.8440   31.2880 C   0  0  0  0  0  0  0  0  0  0  0  0
   35.1170   20.5510   31.9690 C   0  0  0  0  0  3  0  0  0  0  0  0
   38.9230   19.7420   29.6900 H   0  0  0  0  0  0  0  0  0  0  0  0
  1  6  1  6  0  0  0
  1  5  1  0  0  0  0
  1  2  1  0  0  0  0
  1 30  1  0  0  0  0
  2  7  1  6  0  0  0
  2 12  1  0  0  0  0
  3  9  1  0  0  0  0
  3  4  1  0  0  0  0
  3  2  1  0  0  0  0
  5  4  1  0  0  0  0
  5 11  1  0  0  0  0
  8  3  1  0  0  0  0
 10  5  1  0  0  0  0
 12 14  1  0  0  0  0
 14 13  2  6  0  0  0
 14 17  1  0  0  0  0
 14 15  1  0  0  0  0
 16 15  1  0  0  0  0
 17 18  1  0  0  0  0
 18 21  1  0  0  0  0
 19 18  1  0  0  0  0
 20 18  1  0  0  0  0
 21 22  2  0  0  0  0
 21 26  1  0  0  0  0
 22 23  1  0  0  0  0
 23 28  1  0  0  0  0
 23 24  2  0  0  0  0
 25 24  1  0  0  0  0
 25 29  1  0  0  0  0
 26 25  2  0  0  0  0
 27 22  1  0  0  0  0
 32 30  1  0  0  0  0
 32 31  2  0  0  0  0
 33 32  1  0  0  0  0
 34 33  1  0  0  0  0
 35 33  2  0  0  0  0
 35 40  1  0  0  0  0
 36 37  1  0  0  0  0
 36 35  1  0  0  0  0
 37 39  2  0  0  0  0
 38 37  1  0  0  0  0
 39 40  1  0  0  0  0
 40 41  2  0  0  0  0
 41 31  1  0  0  0  0
 42 36  1  0  0  0  0
M  END
>  <minimizedAffinity>
-5.41451263

$$$$

 OpenBabel03272504243D

 42 45  0  0  1  0  0  0  0  0999 V2000
   36.7210   21.3200   32.8450 C   0  0  2  0  0  0  0  0  0  0  0  0
   36.4030   22.0220   31.5360 C   0  0  1  0  0  0  0  0  0  0  0  0
   35.5120   20.9300   30.9170 C   0  0  0  0  0  0  0  0  0  0  0  0
   34.6300   20.6950   31.9620 O   0  0  0  0  0  0  0  0  0  0  0  0
   35.3620   20.6950   33.1260 C   0  0  0  0  0  0  0  0  0  0  0  0
   37.4840   20.5470   32.6230 H   0  0  0  0  0  0  0  0  0  0  0  0
   37.2750   22.2270   30.9160 H   0  0  0  0  0  0  0  0  0  0  0  0
   36.1520   20.0390   30.7830 H   0  0  0  0  0  0  0  0  0  0  0  0
   35.0090   21.2720   30.0130 H   0  0  0  0  0  0  0  0  0  0  0  0
   35.4460   19.6660   33.5080 H   0  0  0  0  0  0  0  0  0  0  0  0
   34.8680   21.3370   33.9070 H   0  0  0  0  0  0  0  0  0  0  0  0
   35.6400   23.1240   31.8470 O   0  0  0  0  0  0  0  0  0  0  0  0
   37.5580   24.2630   30.5050 O   0  0  0  0  0  0  0  0  0  0  0  0
   36.3680   24.5660   31.3640 P   0  0  1  0  0  0  0  0  0  0  0  0
   35.2670   25.5000   30.4360 O   0  0  0  0  0  0  0  0  0  0  0  0
   35.2150   25.1480   29.5170 H   0  0  0  0  0  0  0  0  0  0  0  0
   36.8320   25.4630   32.7360 O   0  0  0  0  0  0  0  0  0  0  0  0
   37.4920   26.5870   32.2810 C   0  0  0  0  0  0  0  0  0  0  0  0
   37.4850   26.5110   31.1600 H   0  0  0  0  0  0  0  0  0  0  0  0
   38.5560   26.5710   32.5740 H   0  0  0  0  0  0  0  0  0  0  0  0
   36.8170   27.8500   32.6510 C   0  0  0  0  0  0  0  0  0  0  0  0
   36.6570   28.7820   31.6530 C   0  0  0  0  0  0  0  0  0  0  0  0
   36.0270   29.9950   31.9370 C   0  0  0  0  0  0  0  0  0  0  0  0
   35.6000   30.1850   33.2180 N   0  0  0  0  0  0  0  0  0  0  0  0
   35.7690   29.2540   34.1820 C   0  0  0  0  0  0  0  0  0  0  0  0
   36.3790   28.0830   33.9020 N   0  0  0  0  0  0  0  0  0  0  0  0
   36.9560   28.7240   30.6250 H   0  0  0  0  0  0  0  0  0  0  0  0
   35.8550   30.7880   31.2200 H   0  0  0  0  0  0  0  0  0  0  0  0
   35.4180   29.4340   35.1960 H   0  0  0  0  0  0  0  0  0  0  0  0
   37.0960   22.2730   33.7550 O   0  0  0  0  0  0  0  0  0  0  0  0
   39.3020   22.9780   33.7580 C   0  0  0  0  0  3  0  0  0  0  0  0
   38.2640   22.3870   34.4710 C   0  0  0  0  0  0  0  0  0  0  0  0
   38.5160   21.9940   35.7780 C   0  0  0  0  0  0  0  0  0  0  0  0
   37.6570   21.5420   36.2620 H   0  0  0  0  0  0  0  0  0  0  0  0
   39.7640   22.1900   36.3390 C   0  0  0  0  0  0  0  0  0  0  0  0
   40.1930   21.8770   37.5780 N   0  0  0  0  0  0  0  0  0  0  0  0
   41.4780   22.2770   37.6130 C   0  0  0  0  0  0  0  0  0  0  0  0
   42.0810   22.1410   38.5190 H   0  0  0  0  0  0  0  0  0  0  0  0
   41.8270   22.8180   36.4300 N   0  0  0  0  0  0  0  0  0  0  0  0
   40.7610   22.7810   35.5890 C   0  0  0  0  0  0  0  0  0  0  0  0
   40.5580   23.1860   34.2920 C   0  0  0  0  0  3  0  0  0  0  0  0
   39.6500   21.4260   38.3430 H   0  0  0  0  0  0  0  0  0  0  0  0
  1  6  1  6  0  0  0
  1  5  1  0  0  0  0
  1 30  1  0  0  0  0
  2  7  1  6  0  0  0
  2 12  1  0  0  0  0
  2  1  1  0  0  0  0
  3  2  1  0  0  0  0
  3  4  1  0  0  0  0
  4  5  1  0  0  0  0
  5 10  1  0  0  0  0
  5 11  1  0  0  0  0
  8  3  1  0  0  0  0
  9  3  1  0  0  0  0
 14 13  2  6  0  0  0
 14 12  1  0  0  0  0
 14 17  1  0  0  0  0
 15 14  1  0  0  0  0
 16 15  1  0  0  0  0
 18 20  1  0  0  0  0
 18 21  1  0  0  0  0
 18 17  1  0  0  0  0
 19 18  1  0  0  0  0
 21 26  1  0  0  0  0
 22 23  1  0  0  0  0
 22 21  2  0  0  0  0
 23 24  2  0  0  0  0
 24 25  1  0  0  0  0
 25 29  1  0  0  0  0
 26 25  2  0  0  0  0
 27 22  1  0  0  0  0
 28 23  1  0  0  0  0
 30 32  1  0  0  0  0
 31 41  2  0  0  0  0
 31 32  1  0  0  0  0
 32 33  2  0  0  0  0
 33 34  1  0  0  0  0
 33 35  1  0  0  0  0
 35 36  1  0  0  0  0
 36 37  1  0  0  0  0
 36 42  1  0  0  0  0
 37 38  1  0  0  0  0
 39 37  2  0  0  0  0
 40 35  2  0  0  0  0
 40 39  1  0  0  0  0
 41 40  1  0  0  0  0
M  END
>  <minimizedAffinity>
-5.37101936

$$$$

 OpenBabel03272504243D

 42 45  0  0  1  0  0  0  0  0999 V2000
   37.4510   22.1390   32.3070 C   0  0  2  0  0  0  0  0  0  0  0  0
   36.5530   22.8670   31.3210 C   0  0  1  0  0  0  0  0  0  0  0  0
   35.5360   21.7370   31.0810 C   0  0  0  0  0  0  0  0  0  0  0  0
   35.2190   21.3950   32.3880 O   0  0  0  0  0  0  0  0  0  0  0  0
   36.3880   21.4040   33.1110 C   0  0  0  0  0  0  0  0  0  0  0  0
   38.0740   21.4350   31.7210 H   0  0  0  0  0  0  0  0  0  0  0  0
   37.0520   23.1610   30.3980 H   0  0  0  0  0  0  0  0  0  0  0  0
   36.0940   20.9030   30.6200 H   0  0  0  0  0  0  0  0  0  0  0  0
   34.6690   22.0770   30.5150 H   0  0  0  0  0  0  0  0  0  0  0  0
   36.6830   20.3700   33.3460 H   0  0  0  0  0  0  0  0  0  0  0  0
   36.2580   21.9750   34.0720 H   0  0  0  0  0  0  0  0  0  0  0  0
   35.9530   23.8960   32.0090 O   0  0  0  0  0  0  0  0  0  0  0  0
   37.4600   25.4140   30.5260 O   0  0  0  0  0  0  0  0  0  0  0  0
   36.1400   25.3820   31.2360 P   0  0  1  0  0  0  0  0  0  0  0  0
   34.9020   25.5990   30.0680 O   0  0  0  0  0  0  0  0  0  0  0  0
   35.1090   25.0820   29.2550 H   0  0  0  0  0  0  0  0  0  0  0  0
   36.0470   26.6410   32.3800 O   0  0  0  0  0  0  0  0  0  0  0  0
   37.2480   27.3190   32.3360 C   0  0  0  0  0  0  0  0  0  0  0  0
   36.9800   28.4050   32.2260 H   0  0  0  0  0  0  0  0  0  0  0  0
   37.8200   27.0600   31.4290 H   0  0  0  0  0  0  0  0  0  0  0  0
   38.0450   27.1770   33.5740 C   0  0  0  0  0  0  0  0  0  0  0  0
   39.3380   26.7330   33.4310 C   0  0  0  0  0  0  0  0  0  0  0  0
   40.1420   26.5780   34.5620 C   0  0  0  0  0  0  0  0  0  0  0  0
   39.5810   26.8830   35.7660 N   0  0  0  0  0  0  0  0  0  0  0  0
   38.3080   27.3170   35.8820 C   0  0  0  0  0  0  0  0  0  0  0  0
   37.5340   27.4660   34.7850 N   0  0  0  0  0  0  0  0  0  0  0  0
   39.8630   26.4700   32.5340 H   0  0  0  0  0  0  0  0  0  0  0  0
   41.1700   26.2360   34.5510 H   0  0  0  0  0  0  0  0  0  0  0  0
   37.8860   27.5530   36.8570 H   0  0  0  0  0  0  0  0  0  0  0  0
   38.1420   23.0800   33.0240 O   0  0  0  0  0  0  0  0  0  0  0  0
   39.6910   22.3630   34.5890 C   0  0  0  0  0  3  0  0  0  0  0  0
   38.5180   23.0700   34.3460 C   0  0  0  0  0  0  0  0  0  0  0  0
   37.8830   23.6640   35.4280 C   0  0  0  0  0  0  0  0  0  0  0  0
   36.9770   24.1930   35.1540 H   0  0  0  0  0  0  0  0  0  0  0  0
   38.4120   23.5470   36.7000 C   0  0  0  0  0  0  0  0  0  0  0  0
   37.9420   24.0470   37.8610 N   0  0  0  0  0  0  0  0  0  0  0  0
   38.8250   23.6480   38.7940 C   0  0  0  0  0  0  0  0  0  0  0  0
   38.6860   23.9190   39.8480 H   0  0  0  0  0  0  0  0  0  0  0  0
   39.8060   22.9230   38.2240 N   0  0  0  0  0  0  0  0  0  0  0  0
   39.5790   22.8350   36.8880 C   0  0  0  0  0  0  0  0  0  0  0  0
   40.2430   22.2300   35.8470 C   0  0  0  0  0  3  0  0  0  0  0  0
   37.0850   24.6200   38.0040 H   0  0  0  0  0  0  0  0  0  0  0  0
  1  6  1  6  0  0  0
  1 30  1  0  0  0  0
  1  5  1  0  0  0  0
  2  7  1  6  0  0  0
  2 12  1  0  0  0  0
  2  1  1  0  0  0  0
  3  2  1  0  0  0  0
  3  4  1  0  0  0  0
  4  5  1  0  0  0  0
  5 10  1  0  0  0  0
  5 11  1  0  0  0  0
  8  3  1  0  0  0  0
  9  3  1  0  0  0  0
 14 13  2  6  0  0  0
 14 12  1  0  0  0  0
 14 17  1  0  0  0  0
 15 14  1  0  0  0  0
 16 15  1  0  0  0  0
 18 17  1  0  0  0  0
 18 21  1  0  0  0  0
 19 18  1  0  0  0  0
 20 18  1  0  0  0  0
 21 26  1  0  0  0  0
 22 21  2  0  0  0  0
 22 23  1  0  0  0  0
 23 24  2  0  0  0  0
 24 25  1  0  0  0  0
 25 29  1  0  0  0  0
 26 25  2  0  0  0  0
 27 22  1  0  0  0  0
 28 23  1  0  0  0  0
 30 32  1  0  0  0  0
 31 41  1  0  0  0  0
 32 31  2  0  0  0  0
 32 33  1  0  0  0  0
 33 35  2  0  0  0  0
 34 33  1  0  0  0  0
 35 40  1  0  0  0  0
 35 36  1  0  0  0  0
 36 42  1  0  0  0  0
 36 37  1  0  0  0  0
 37 38  1  0  0  0  0
 39 37  2  0  0  0  0
 40 39  1  0  0  0  0
 41 40  2  0  0  0  0
M  END
>  <minimizedAffinity>
-5.34291363

$$$$

 OpenBabel03272504243D

 42 45  0  0  1  0  0  0  0  0999 V2000
   38.2860   26.7380   33.5960 C   0  0  2  0  0  0  0  0  0  0  0  0
   39.5660   26.6100   34.4040 C   0  0  1  0  0  0  0  0  0  0  0  0
   39.0280   27.1340   35.7470 C   0  0  0  0  0  0  0  0  0  0  0  0
   37.8850   26.3600   35.8850 O   0  0  0  0  0  0  0  0  0  0  0  0
   37.2840   26.2880   34.6510 C   0  0  0  0  0  0  0  0  0  0  0  0
   38.1610   27.8120   33.3520 H   0  0  0  0  0  0  0  0  0  0  0  0
   40.3890   27.2210   34.0350 H   0  0  0  0  0  0  0  0  0  0  0  0
   38.7290   28.1840   35.5780 H   0  0  0  0  0  0  0  0  0  0  0  0
   39.7360   26.9850   36.5610 H   0  0  0  0  0  0  0  0  0  0  0  0
   36.3710   26.9030   34.6500 H   0  0  0  0  0  0  0  0  0  0  0  0
   37.0110   25.2250   34.4020 H   0  0  0  0  0  0  0  0  0  0  0  0
   39.8430   25.2660   34.5060 O   0  0  0  0  0  0  0  0  0  0  0  0
   42.0060   24.4640   33.3000 O   0  0  0  0  0  0  0  0  0  0  0  0
   41.4970   24.9570   34.6210 P   0  0  1  0  0  0  0  0  0  0  0  0
   42.3400   26.4000   35.0110 O   0  0  0  0  0  0  0  0  0  0  0  0
   42.4390   26.9610   34.2080 H   0  0  0  0  0  0  0  0  0  0  0  0
   41.7820   23.8030   35.8410 O   0  0  0  0  0  0  0  0  0  0  0  0
   40.8630   22.7880   35.6620 C   0  0  0  0  0  0  0  0  0  0  0  0
   41.3930   21.8430   35.9610 H   0  0  0  0  0  0  0  0  0  0  0  0
   40.6100   22.6630   34.5960 H   0  0  0  0  0  0  0  0  0  0  0  0
   39.6670   22.9240   36.5210 C   0  0  0  0  0  0  0  0  0  0  0  0
   39.8880   23.1640   37.8570 C   0  0  0  0  0  0  0  0  0  0  0  0
   38.8010   23.3020   38.7210 C   0  0  0  0  0  0  0  0  0  0  0  0
   37.5570   23.1870   38.1740 N   0  0  0  0  0  0  0  0  0  0  0  0
   37.3650   22.9510   36.8580 C   0  0  0  0  0  0  0  0  0  0  0  0
   38.4200   22.8180   36.0260 N   0  0  0  0  0  0  0  0  0  0  0  0
   40.8200   23.2690   38.3760 H   0  0  0  0  0  0  0  0  0  0  0  0
   38.8720   23.4920   39.7850 H   0  0  0  0  0  0  0  0  0  0  0  0
   36.3600   22.8630   36.4490 H   0  0  0  0  0  0  0  0  0  0  0  0
   38.3780   25.8960   32.5200 O   0  0  0  0  0  0  0  0  0  0  0  0
   36.4500   25.0700   31.5380 C   0  0  0  0  0  3  0  0  0  0  0  0
   37.6330   24.7830   32.2130 C   0  0  0  0  0  0  0  0  0  0  0  0
   37.9150   23.4530   32.4890 C   0  0  0  0  0  0  0  0  0  0  0  0
   38.8520   23.3160   33.0170 H   0  0  0  0  0  0  0  0  0  0  0  0
   37.0390   22.4560   32.1010 C   0  0  0  0  0  0  0  0  0  0  0  0
   37.1400   21.1240   32.2790 N   0  0  0  0  0  0  0  0  0  0  0  0
   36.0310   20.6120   31.7160 C   0  0  0  0  0  0  0  0  0  0  0  0
   35.8510   19.5300   31.7170 H   0  0  0  0  0  0  0  0  0  0  0  0
   35.2700   21.6010   31.2080 N   0  0  0  0  0  0  0  0  0  0  0  0
   35.8790   22.7940   31.4330 C   0  0  0  0  0  0  0  0  0  0  0  0
   35.5570   24.0970   31.1380 C   0  0  0  0  0  3  0  0  0  0  0  0
   37.9100   20.6040   32.7480 H   0  0  0  0  0  0  0  0  0  0  0  0
  1  6  1  6  0  0  0
  1  2  1  0  0  0  0
  1  5  1  0  0  0  0
  2  7  1  6  0  0  0
  2 12  1  0  0  0  0
  2  3  1  0  0  0  0
  3  4  1  0  0  0  0
  3  9  1  0  0  0  0
  5  4  1  0  0  0  0
  8  3  1  0  0  0  0
 10  5  1  0  0  0  0
 11  5  1  0  0  0  0
 12 14  1  0  0  0  0
 14 13  2  6  0  0  0
 14 15  1  0  0  0  0
 14 17  1  0  0  0  0
 16 15  1  0  0  0  0
 18 17  1  0  0  0  0
 18 19  1  0  0  0  0
 18 21  1  0  0  0  0
 20 18  1  0  0  0  0
 21 22  1  0  0  0  0
 22 27  1  0  0  0  0
 22 23  2  0  0  0  0
 23 28  1  0  0  0  0
 24 23  1  0  0  0  0
 25 24  2  0  0  0  0
 26 21  2  0  0  0  0
 26 25  1  0  0  0  0
 29 25  1  0  0  0  0
 30  1  1  0  0  0  0
 31 32  1  0  0  0  0
 32 33  2  0  0  0  0
 32 30  1  0  0  0  0
 33 34  1  0  0  0  0
 35 36  1  0  0  0  0
 35 33  1  0  0  0  0
 36 42  1  0  0  0  0
 37 38  1  0  0  0  0
 37 36  1  0  0  0  0
 39 40  1  0  0  0  0
 39 37  2  0  0  0  0
 40 35  2  0  0  0  0
 41 40  1  0  0  0  0
 41 31  2  0  0  0  0
M  END
>  <minimizedAffinity>
-5.25844431

$$$$

 OpenBabel03272504243D

 42 45  0  0  1  0  0  0  0  0999 V2000
   38.0880   27.2500   34.2350 C   0  0  2  0  0  0  0  0  0  0  0  0
   38.6310   25.9490   33.6680 C   0  0  1  0  0  0  0  0  0  0  0  0
   39.7280   25.6970   34.7170 C   0  0  0  0  0  0  0  0  0  0  0  0
   39.0010   25.8460   35.8900 O   0  0  0  0  0  0  0  0  0  0  0  0
   38.1600   26.9190   35.7200 C   0  0  0  0  0  0  0  0  0  0  0  0
   38.8070   28.0480   33.9630 H   0  0  0  0  0  0  0  0  0  0  0  0
   39.0460   26.0390   32.6650 H   0  0  0  0  0  0  0  0  0  0  0  0
   40.4430   26.5350   34.6320 H   0  0  0  0  0  0  0  0  0  0  0  0
   40.1700   24.7060   34.6210 H   0  0  0  0  0  0  0  0  0  0  0  0
   38.5210   27.7690   36.3190 H   0  0  0  0  0  0  0  0  0  0  0  0
   37.1130   26.6610   36.0430 H   0  0  0  0  0  0  0  0  0  0  0  0
   37.6350   25.0080   33.8000 O   0  0  0  0  0  0  0  0  0  0  0  0
   36.5640   23.2110   32.2510 O   0  0  0  0  0  0  0  0  0  0  0  0
   37.8790   23.6700   32.8030 P   0  0  1  0  0  0  0  0  0  0  0  0
   38.8910   24.0950   31.4840 O   0  0  0  0  0  0  0  0  0  0  0  0
   38.3720   24.5830   30.8030 H   0  0  0  0  0  0  0  0  0  0  0  0
   38.6240   22.4210   33.6910 O   0  0  0  0  0  0  0  0  0  0  0  0
   37.7520   22.0640   34.6990 C   0  0  0  0  0  0  0  0  0  0  0  0
   37.7200   20.9400   34.6890 H   0  0  0  0  0  0  0  0  0  0  0  0
   36.7230   22.3920   34.4720 H   0  0  0  0  0  0  0  0  0  0  0  0
   38.2030   22.4890   36.0410 C   0  0  0  0  0  0  0  0  0  0  0  0
   39.5380   22.3270   36.3260 C   0  0  0  0  0  0  0  0  0  0  0  0
   40.0280   22.7090   37.5760 C   0  0  0  0  0  0  0  0  0  0  0  0
   39.1290   23.2310   38.4590 N   0  0  0  0  0  0  0  0  0  0  0  0
   37.8210   23.3800   38.1570 C   0  0  0  0  0  0  0  0  0  0  0  0
   37.3530   23.0090   36.9460 N   0  0  0  0  0  0  0  0  0  0  0  0
   40.3150   21.9300   35.7030 H   0  0  0  0  0  0  0  0  0  0  0  0
   41.0600   22.6220   37.8930 H   0  0  0  0  0  0  0  0  0  0  0  0
   37.1270   23.7990   38.8820 H   0  0  0  0  0  0  0  0  0  0  0  0
   36.8130   27.4190   33.7620 O   0  0  0  0  0  0  0  0  0  0  0  0
   35.7180   29.3510   34.4170 C   0  0  0  0  0  3  0  0  0  0  0  0
   36.1740   28.5670   33.3620 C   0  0  0  0  0  0  0  0  0  0  0  0
   35.9400   29.0190   32.0700 C   0  0  0  0  0  0  0  0  0  0  0  0
   36.3250   28.3510   31.3080 H   0  0  0  0  0  0  0  0  0  0  0  0
   35.2730   30.2110   31.8560 C   0  0  0  0  0  0  0  0  0  0  0  0
   34.9560   30.8040   30.6880 N   0  0  0  0  0  0  0  0  0  0  0  0
   34.3170   31.9360   31.0350 C   0  0  0  0  0  0  0  0  0  0  0  0
   33.9410   32.6250   30.2680 H   0  0  0  0  0  0  0  0  0  0  0  0
   34.2420   32.0340   32.3760 N   0  0  0  0  0  0  0  0  0  0  0  0
   34.8410   30.9520   32.9380 C   0  0  0  0  0  0  0  0  0  0  0  0
   35.0500   30.5450   34.2340 C   0  0  0  0  0  3  0  0  0  0  0  0
   35.1630   30.4630   29.7270 H   0  0  0  0  0  0  0  0  0  0  0  0
  1  6  1  6  0  0  0
  1  5  1  0  0  0  0
  2  7  1  6  0  0  0
  2 12  1  0  0  0  0
  2  1  1  0  0  0  0
  2  3  1  0  0  0  0
  3  4  1  0  0  0  0
  5  4  1  0  0  0  0
  5 11  1  0  0  0  0
  5 10  1  0  0  0  0
  8  3  1  0  0  0  0
  9  3  1  0  0  0  0
 14 13  2  6  0  0  0
 14 17  1  0  0  0  0
 14 12  1  0  0  0  0
 15 14  1  0  0  0  0
 16 15  1  0  0  0  0
 17 18  1  0  0  0  0
 18 21  1  0  0  0  0
 19 18  1  0  0  0  0
 20 18  1  0  0  0  0
 21 22  2  0  0  0  0
 21 26  1  0  0  0  0
 22 23  1  0  0  0  0
 23 28  1  0  0  0  0
 23 24  2  0  0  0  0
 25 24  1  0  0  0  0
 25 29  1  0  0  0  0
 26 25  2  0  0  0  0
 27 22  1  0  0  0  0
 30  1  1  0  0  0  0
 32 30  1  0  0  0  0
 32 31  2  0  0  0  0
 33 32  1  0  0  0  0
 34 33  1  0  0  0  0
 35 33  2  0  0  0  0
 35 40  1  0  0  0  0
 36 37  1  0  0  0  0
 36 35  1  0  0  0  0
 37 39  2  0  0  0  0
 38 37  1  0  0  0  0
 39 40  1  0  0  0  0
 40 41  2  0  0  0  0
 41 31  1  0  0  0  0
 42 36  1  0  0  0  0
M  END
>  <minimizedAffinity>
-5.25548029

$$$$

 OpenBabel03272504243D

 42 45  0  0  1  0  0  0  0  0999 V2000
   37.6050   28.3140   31.5380 C   0  0  2  0  0  0  0  0  0  0  0  0
   36.9210   29.6190   31.1670 C   0  0  1  0  0  0  0  0  0  0  0  0
   37.4720   29.7530   29.7370 C   0  0  0  0  0  0  0  0  0  0  0  0
   37.1790   28.4950   29.2300 O   0  0  0  0  0  0  0  0  0  0  0  0
   37.4650   27.5780   30.2130 C   0  0  0  0  0  0  0  0  0  0  0  0
   38.6650   28.5530   31.7580 H   0  0  0  0  0  0  0  0  0  0  0  0
   37.2080   30.4650   31.7900 H   0  0  0  0  0  0  0  0  0  0  0  0
   38.5680   29.8530   29.8300 H   0  0  0  0  0  0  0  0  0  0  0  0
   36.9840   30.5530   29.1810 H   0  0  0  0  0  0  0  0  0  0  0  0
   38.3770   27.0230   29.9450 H   0  0  0  0  0  0  0  0  0  0  0  0
   36.6160   26.8500   30.3380 H   0  0  0  0  0  0  0  0  0  0  0  0
   35.5690   29.3640   31.1240 O   0  0  0  0  0  0  0  0  0  0  0  0
   35.5630   31.7190   32.2330 O   0  0  0  0  0  0  0  0  0  0  0  0
   34.6610   30.5850   31.8500 P   0  0  1  0  0  0  0  0  0  0  0  0
   33.4920   31.1850   30.7460 O   0  0  0  0  0  0  0  0  0  0  0  0
   33.9170   31.8000   30.1040 H   0  0  0  0  0  0  0  0  0  0  0  0
   33.8600   29.9670   33.2200 O   0  0  0  0  0  0  0  0  0  0  0  0
   34.7540   30.0230   34.2710 C   0  0  0  0  0  0  0  0  0  0  0  0
   35.6790   30.5080   33.8580 H   0  0  0  0  0  0  0  0  0  0  0  0
   35.0640   29.0120   34.5850 H   0  0  0  0  0  0  0  0  0  0  0  0
   34.2780   30.8510   35.4000 C   0  0  0  0  0  0  0  0  0  0  0  0
   35.2050   31.6650   36.0050 C   0  0  0  0  0  0  0  0  0  0  0  0
   34.8180   32.4720   37.0770 C   0  0  0  0  0  0  0  0  0  0  0  0
   33.5140   32.3980   37.4680 N   0  0  0  0  0  0  0  0  0  0  0  0
   32.6210   31.5890   36.8580 C   0  0  0  0  0  0  0  0  0  0  0  0
   33.0000   30.8110   35.8210 N   0  0  0  0  0  0  0  0  0  0  0  0
   36.2440   31.7910   35.7720 H   0  0  0  0  0  0  0  0  0  0  0  0
   35.4740   33.1460   37.6160 H   0  0  0  0  0  0  0  0  0  0  0  0
   31.5860   31.5520   37.1920 H   0  0  0  0  0  0  0  0  0  0  0  0
   36.9040   27.7460   32.5690 O   0  0  0  0  0  0  0  0  0  0  0  0
   37.5650   27.5090   34.7750 C   0  0  0  0  0  3  0  0  0  0  0  0
   37.3350   26.8880   33.5520 C   0  0  0  0  0  0  0  0  0  0  0  0
   37.5590   25.5210   33.4670 C   0  0  0  0  0  0  0  0  0  0  0  0
   37.3570   25.1160   32.4810 H   0  0  0  0  0  0  0  0  0  0  0  0
   37.9970   24.8130   34.5710 C   0  0  0  0  0  0  0  0  0  0  0  0
   38.2670   23.4970   34.6790 N   0  0  0  0  0  0  0  0  0  0  0  0
   38.6540   23.3260   35.9560 C   0  0  0  0  0  0  0  0  0  0  0  0
   38.9380   22.3330   36.3260 H   0  0  0  0  0  0  0  0  0  0  0  0
   38.6240   24.5010   36.6120 N   0  0  0  0  0  0  0  0  0  0  0  0
   38.2100   25.4770   35.7620 C   0  0  0  0  0  0  0  0  0  0  0  0
   38.0010   26.8290   35.8940 C   0  0  0  0  0  3  0  0  0  0  0  0
   38.1900   22.7710   33.9370 H   0  0  0  0  0  0  0  0  0  0  0  0
  1  6  1  1  0  0  0
  1 30  1  0  0  0  0
  2  1  1  0  0  0  0
  2  7  1  1  0  0  0
  3  8  1  0  0  0  0
  3  2  1  0  0  0  0
  4  3  1  0  0  0  0
  4  5  1  0  0  0  0
  5 11  1  0  0  0  0
  5  1  1  0  0  0  0
  9  3  1  0  0  0  0
 10  5  1  0  0  0  0
 12  2  1  0  0  0  0
 12 14  1  0  0  0  0
 14 13  2  1  0  0  0
 14 17  1  0  0  0  0
 15 14  1  0  0  0  0
 16 15  1  0  0  0  0
 17 18  1  0  0  0  0
 18 20  1  0  0  0  0
 18 21  1  0  0  0  0
 19 18  1  0  0  0  0
 21 26  2  0  0  0  0
 21 22  1  0  0  0  0
 22 23  2  0  0  0  0
 23 24  1  0  0  0  0
 23 28  1  0  0  0  0
 25 29  1  0  0  0  0
 25 24  2  0  0  0  0
 26 25  1  0  0  0  0
 27 22  1  0  0  0  0
 30 32  1  0  0  0  0
 31 41  1  0  0  0  0
 32 31  2  0  0  0  0
 33 32  1  0  0  0  0
 33 35  2  0  0  0  0
 34 33  1  0  0  0  0
 35 36  1  0  0  0  0
 35 40  1  0  0  0  0
 36 37  1  0  0  0  0
 37 38  1  0  0  0  0
 37 39  2  0  0  0  0
 40 41  2  0  0  0  0
 40 39  1  0  0  0  0
 42 36  1  0  0  0  0
M  END
>  <minimizedAffinity>
-5.23267412

$$$$

 OpenBabel03272504243D

 42 45  0  0  1  0  0  0  0  0999 V2000
   36.7350   26.0630   31.5770 C   0  0  2  0  0  0  0  0  0  0  0  0
   37.6280   26.8890   32.4870 C   0  0  1  0  0  0  0  0  0  0  0  0
   37.3330   28.2720   31.8820 C   0  0  0  0  0  0  0  0  0  0  0  0
   35.9460   28.2610   31.8770 O   0  0  0  0  0  0  0  0  0  0  0  0
   35.5460   27.0080   31.4760 C   0  0  0  0  0  0  0  0  0  0  0  0
   37.2590   25.9680   30.6050 H   0  0  0  0  0  0  0  0  0  0  0  0
   38.6860   26.6380   32.4210 H   0  0  0  0  0  0  0  0  0  0  0  0
   37.6930   28.2430   30.8380 H   0  0  0  0  0  0  0  0  0  0  0  0
   37.7430   29.0820   32.4850 H   0  0  0  0  0  0  0  0  0  0  0  0
   35.1400   27.0610   30.4540 H   0  0  0  0  0  0  0  0  0  0  0  0
   34.7530   26.6030   32.1640 H   0  0  0  0  0  0  0  0  0  0  0  0
   37.0920   26.8100   33.7520 O   0  0  0  0  0  0  0  0  0  0  0  0
   39.6330   26.7420   34.3130 O   0  0  0  0  0  0  0  0  0  0  0  0
   38.2760   26.6560   34.9430 P   0  0  1  0  0  0  0  0  0  0  0  0
   38.1360   27.9340   36.0810 O   0  0  0  0  0  0  0  0  0  0  0  0
   38.5290   28.7590   35.7130 H   0  0  0  0  0  0  0  0  0  0  0  0
   38.0840   25.1710   35.7550 O   0  0  0  0  0  0  0  0  0  0  0  0
   38.6570   24.1980   34.9600 C   0  0  0  0  0  0  0  0  0  0  0  0
   39.2370   24.7520   34.1730 H   0  0  0  0  0  0  0  0  0  0  0  0
   37.8880   23.6250   34.4150 H   0  0  0  0  0  0  0  0  0  0  0  0
   39.6060   23.3300   35.6910 C   0  0  0  0  0  0  0  0  0  0  0  0
   40.5560   22.6810   34.9390 C   0  0  0  0  0  0  0  0  0  0  0  0
   41.4810   21.8470   35.5690 C   0  0  0  0  0  0  0  0  0  0  0  0
   41.3810   21.7250   36.9240 N   0  0  0  0  0  0  0  0  0  0  0  0
   40.4390   22.3730   37.6410 C   0  0  0  0  0  0  0  0  0  0  0  0
   39.5460   23.1790   37.0270 N   0  0  0  0  0  0  0  0  0  0  0  0
   40.7120   22.7130   33.8790 H   0  0  0  0  0  0  0  0  0  0  0  0
   42.2650   21.2950   35.0650 H   0  0  0  0  0  0  0  0  0  0  0  0
   40.3830   22.2560   38.7220 H   0  0  0  0  0  0  0  0  0  0  0  0
   36.4570   24.8830   32.2140 O   0  0  0  0  0  0  0  0  0  0  0  0
   37.8900   23.3730   31.1990 C   0  0  0  0  0  3  0  0  0  0  0  0
   36.6460   23.5910   31.7840 C   0  0  0  0  0  0  0  0  0  0  0  0
   35.7700   22.5170   31.8650 C   0  0  0  0  0  0  0  0  0  0  0  0
   34.8250   22.7720   32.3320 H   0  0  0  0  0  0  0  0  0  0  0  0
   36.1360   21.2780   31.3750 C   0  0  0  0  0  0  0  0  0  0  0  0
   35.4280   20.1310   31.3630 N   0  0  0  0  0  0  0  0  0  0  0  0
   36.2370   19.2280   30.7780 C   0  0  0  0  0  0  0  0  0  0  0  0
   35.9080   18.1910   30.6370 H   0  0  0  0  0  0  0  0  0  0  0  0
   37.4060   19.8050   30.4400 N   0  0  0  0  0  0  0  0  0  0  0  0
   37.3810   21.1130   30.8030 C   0  0  0  0  0  0  0  0  0  0  0  0
   38.2820   22.1470   30.7020 C   0  0  0  0  0  3  0  0  0  0  0  0
   34.4660   19.9750   31.7290 H   0  0  0  0  0  0  0  0  0  0  0  0
  1  6  1  6  0  0  0
  1 30  1  0  0  0  0
  1  2  1  0  0  0  0
  2  7  1  6  0  0  0
  2 12  1  0  0  0  0
  3  9  1  0  0  0  0
  3  2  1  0  0  0  0
  4  3  1  0  0  0  0
  5  1  1  0  0  0  0
  5  4  1  0  0  0  0
  5 11  1  0  0  0  0
  8  3  1  0  0  0  0
 10  5  1  0  0  0  0
 12 14  1  0  0  0  0
 14 13  2  6  0  0  0
 14 17  1  0  0  0  0
 14 15  1  0  0  0  0
 16 15  1  0  0  0  0
 18 21  1  0  0  0  0
 18 17  1  0  0  0  0
 19 18  1  0  0  0  0
 20 18  1  0  0  0  0
 21 26  1  0  0  0  0
 22 23  1  0  0  0  0
 22 21  2  0  0  0  0
 23 24  2  0  0  0  0
 24 25  1  0  0  0  0
 25 29  1  0  0  0  0
 26 25  2  0  0  0  0
 27 22  1  0  0  0  0
 28 23  1  0  0  0  0
 31 32  1  0  0  0  0
 32 33  2  0  0  0  0
 32 30  1  0  0  0  0
 33 34  1  0  0  0  0
 35 33  1  0  0  0  0
 36 35  1  0  0  0  0
 36 42  1  0  0  0  0
 37 36  1  0  0  0  0
 38 37  1  0  0  0  0
 39 37  2  0  0  0  0
 39 40  1  0  0  0  0
 40 35  2  0  0  0  0
 41 40  1  0  0  0  0
 41 31  2  0  0  0  0
M  END
>  <minimizedAffinity>
-5.18220615

$$$$
