
 OpenBabel03272506393D

 40 43  0  0  1  0  0  0  0  0999 V2000
   34.8280   28.2930   49.7430 O   0  0  0  0  0  0  0  0  0  0  0  0
   34.5580   28.8780   48.6780 C   0  0  0  0  0  0  0  0  0  0  0  0
   35.2730   30.0690   48.2630 C   0  0  2  0  0  0  0  0  0  0  0  0
   34.7100   30.2610   46.8200 C   0  0  0  0  0  0  0  0  0  0  0  0
   33.3610   29.6220   46.8900 C   0  0  0  0  0  0  0  0  0  0  0  0
   33.5410   28.4670   47.7570 N   0  0  0  0  0  0  0  0  0  0  0  0
   35.0470   31.0150   48.7520 H   0  0  0  0  0  0  0  0  0  0  0  0
   35.3670   29.6880   46.1480 H   0  0  0  0  0  0  0  0  0  0  0  0
   34.6710   31.3400   46.5730 H   0  0  0  0  0  0  0  0  0  0  0  0
   32.5990   30.2490   47.3580 H   0  0  0  0  0  0  0  0  0  0  0  0
   33.0110   29.2510   45.9040 H   0  0  0  0  0  0  0  0  0  0  0  0
   32.8300   27.2030   47.6760 C   0  0  0  0  0  0  0  0  0  0  0  0
   31.8180   27.3770   47.2730 H   0  0  0  0  0  0  0  0  0  0  0  0
   32.6970   26.8410   48.7180 H   0  0  0  0  0  0  0  0  0  0  0  0
   33.8240   24.9960   47.4460 C   0  0  0  0  0  3  0  0  0  0  0  0
   33.5370   26.2160   46.8300 C   0  0  0  0  0  0  0  0  0  0  0  0
   33.9010   26.4590   45.5210 C   0  0  0  0  0  0  0  0  0  0  0  0
   33.6700   27.4030   45.0720 H   0  0  0  0  0  0  0  0  0  0  0  0
   34.5590   25.4680   44.8200 C   0  0  0  0  0  0  0  0  0  0  0  0
   35.0380   25.3870   43.5590 N   0  0  0  0  0  0  0  0  0  0  0  0
   35.5950   24.1650   43.4150 C   0  0  0  0  0  0  0  0  0  0  0  0
   36.0810   23.7280   42.5510 H   0  0  0  0  0  0  0  0  0  0  0  0
   35.4690   23.4760   44.5740 N   0  0  0  0  0  0  0  0  0  0  0  0
   34.8310   24.2580   45.4630 C   0  0  0  0  0  0  0  0  0  0  0  0
   34.4750   23.9990   46.7690 C   0  0  0  0  0  3  0  0  0  0  0  0
   34.9900   26.1310   42.8280 H   0  0  0  0  0  0  0  0  0  0  0  0
   36.6830   29.8720   48.1030 O   0  0  0  0  0  0  0  0  0  0  0  0
   37.4990   30.9980   48.1910 C   0  0  0  0  0  0  0  0  0  0  0  0
   37.6400   31.5580   49.4480 C   0  0  0  0  0  0  0  0  0  0  0  0
   38.4480   32.6830   49.5720 C   0  0  0  0  0  0  0  0  0  0  0  0
   39.0570   33.1810   48.4700 N   0  0  0  0  0  0  0  0  0  0  0  0
   38.9090   32.6210   47.2480 C   0  0  0  0  0  0  0  0  0  0  0  0
   38.1380   31.5490   47.1360 N   0  0  0  0  0  0  0  0  0  0  0  0
   40.4440   32.2420   45.4850 C   0  0  0  0  0  0  0  0  0  0  0  0
   40.6920   31.0480   45.8200 O   0  0  0  0  0  0  0  0  0  0  0  0
   39.5620   33.1700   46.1100 N   0  0  0  0  0  0  0  0  0  0  0  0
   37.1390   31.1340   50.3020 H   0  0  0  0  0  0  0  0  0  0  0  0
   38.5540   33.1110   50.5410 H   0  0  0  0  0  0  0  0  0  0  0  0
   41.0150   32.5190   44.6010 H   0  0  0  0  0  0  0  0  0  0  0  0
   39.4270   34.1380   45.7540 H   0  0  0  0  0  0  0  0  0  0  0  0
  2  1  2  0  0  0  0
  3  2  1  0  0  0  0
  3  7  1  1  0  0  0
  4  5  1  0  0  0  0
  4  3  1  0  0  0  0
  5 10  1  0  0  0  0
  5  6  1  0  0  0  0
  6  2  1  0  0  0  0
  8  4  1  0  0  0  0
  9  4  1  0  0  0  0
 11  5  1  0  0  0  0
 12  6  1  0  0  0  0
 12 14  1  0  0  0  0
 13 12  1  0  0  0  0
 16 15  1  0  0  0  0
 16 12  1  0  0  0  0
 17 16  2  0  0  0  0
 18 17  1  0  0  0  0
 19 24  2  0  0  0  0
 19 17  1  0  0  0  0
 20 19  1  0  0  0  0
 21 20  1  0  0  0  0
 21 23  2  0  0  0  0
 22 21  1  0  0  0  0
 23 24  1  0  0  0  0
 24 25  1  0  0  0  0
 25 15  2  0  0  0  0
 26 20  1  0  0  0  0
 27 28  1  0  0  0  0
 27  3  1  0  0  0  0
 28 29  1  0  0  0  0
 29 30  2  0  0  0  0
 29 37  1  0  0  0  0
 30 38  1  0  0  0  0
 31 30  1  0  0  0  0
 32 31  2  0  0  0  0
 33 32  1  0  0  0  0
 33 28  2  0  0  0  0
 34 35  2  0  0  0  0
 34 36  1  0  0  0  0
 36 32  1  0  0  0  0
 39 34  1  0  0  0  0
 40 36  1  0  0  0  0
M  END
>  <minimizedAffinity>
-5.76830769

>  <minimizedRMSD>
1.15545976

$$$$
