
 OpenBabel03272506383D

 40 43  0  0  1  0  0  0  0  0999 V2000
   34.4910   29.5180   50.0780 O   0  0  0  0  0  0  0  0  0  0  0  0
   34.3140   29.5560   48.8460 C   0  0  0  0  0  0  0  0  0  0  0  0
   35.1330   30.3900   47.9870 C   0  0  2  0  0  0  0  0  0  0  0  0
   34.6540   29.9180   46.5790 C   0  0  0  0  0  0  0  0  0  0  0  0
   33.2600   29.4410   46.8320 C   0  0  0  0  0  0  0  0  0  0  0  0
   33.3150   28.8100   48.1420 N   0  0  0  0  0  0  0  0  0  0  0  0
   34.9530   31.4630   47.9700 H   0  0  0  0  0  0  0  0  0  0  0  0
   35.2980   29.0710   46.2950 H   0  0  0  0  0  0  0  0  0  0  0  0
   34.7050   30.7610   45.8630 H   0  0  0  0  0  0  0  0  0  0  0  0
   32.5240   30.2450   46.9020 H   0  0  0  0  0  0  0  0  0  0  0  0
   32.9310   28.6720   46.1020 H   0  0  0  0  0  0  0  0  0  0  0  0
   32.5180   27.6830   48.5960 C   0  0  0  0  0  0  0  0  0  0  0  0
   31.4520   27.9650   48.5980 H   0  0  0  0  0  0  0  0  0  0  0  0
   32.7970   27.4970   49.6550 H   0  0  0  0  0  0  0  0  0  0  0  0
   31.5400   25.8370   47.3530 C   0  0  0  0  0  3  0  0  0  0  0  0
   32.7120   26.4850   47.7500 C   0  0  0  0  0  0  0  0  0  0  0  0
   33.9510   26.0170   47.3660 C   0  0  0  0  0  0  0  0  0  0  0  0
   34.8350   26.5320   47.6830 H   0  0  0  0  0  0  0  0  0  0  0  0
   34.0210   24.8870   46.5730 C   0  0  0  0  0  0  0  0  0  0  0  0
   35.0470   24.1920   46.0390 N   0  0  0  0  0  0  0  0  0  0  0  0
   34.5200   23.1610   45.3440 C   0  0  0  0  0  0  0  0  0  0  0  0
   35.0190   22.3850   44.7790 H   0  0  0  0  0  0  0  0  0  0  0  0
   33.1690   23.2030   45.4370 N   0  0  0  0  0  0  0  0  0  0  0  0
   32.8300   24.2620   46.1930 C   0  0  0  0  0  0  0  0  0  0  0  0
   31.5850   24.7150   46.5680 C   0  0  0  0  0  3  0  0  0  0  0  0
   36.0640   24.4080   46.1430 H   0  0  0  0  0  0  0  0  0  0  0  0
   36.5300   30.0810   48.0410 O   0  0  0  0  0  0  0  0  0  0  0  0
   37.4160   31.1490   48.1620 C   0  0  0  0  0  0  0  0  0  0  0  0
   37.5820   31.6690   49.4330 C   0  0  0  0  0  0  0  0  0  0  0  0
   38.4590   32.7370   49.5890 C   0  0  0  0  0  0  0  0  0  0  0  0
   39.1080   33.2200   48.5040 N   0  0  0  0  0  0  0  0  0  0  0  0
   38.9340   32.7000   47.2680 C   0  0  0  0  0  0  0  0  0  0  0  0
   38.0970   31.6830   47.1250 N   0  0  0  0  0  0  0  0  0  0  0  0
   40.4570   32.2660   45.5070 C   0  0  0  0  0  0  0  0  0  0  0  0
   40.6250   31.0500   45.8150 O   0  0  0  0  0  0  0  0  0  0  0  0
   39.6310   33.2330   46.1470 N   0  0  0  0  0  0  0  0  0  0  0  0
   37.0480   31.2580   50.2730 H   0  0  0  0  0  0  0  0  0  0  0  0
   38.5840   33.1340   50.5690 H   0  0  0  0  0  0  0  0  0  0  0  0
   41.0510   32.5270   44.6330 H   0  0  0  0  0  0  0  0  0  0  0  0
   39.5610   34.2160   45.8140 H   0  0  0  0  0  0  0  0  0  0  0  0
  2  1  2  0  0  0  0
  3  7  1  1  0  0  0
  3 27  1  0  0  0  0
  3  2  1  0  0  0  0
  4  5  1  0  0  0  0
  4  3  1  0  0  0  0
  5 10  1  0  0  0  0
  5  6  1  0  0  0  0
  6 12  1  0  0  0  0
  6  2  1  0  0  0  0
  8  4  1  0  0  0  0
  9  4  1  0  0  0  0
 11  5  1  0  0  0  0
 12 13  1  0  0  0  0
 12 14  1  0  0  0  0
 15 16  1  0  0  0  0
 16 12  1  0  0  0  0
 17 18  1  0  0  0  0
 17 16  2  0  0  0  0
 19 17  1  0  0  0  0
 20 26  1  0  0  0  0
 20 19  1  0  0  0  0
 21 23  2  0  0  0  0
 21 20  1  0  0  0  0
 22 21  1  0  0  0  0
 23 24  1  0  0  0  0
 24 25  1  0  0  0  0
 24 19  2  0  0  0  0
 25 15  2  0  0  0  0
 27 28  1  0  0  0  0
 28 29  1  0  0  0  0
 29 30  2  0  0  0  0
 29 37  1  0  0  0  0
 30 38  1  0  0  0  0
 31 30  1  0  0  0  0
 32 31  2  0  0  0  0
 33 32  1  0  0  0  0
 33 28  2  0  0  0  0
 34 35  2  0  0  0  0
 34 36  1  0  0  0  0
 36 32  1  0  0  0  0
 39 34  1  0  0  0  0
 40 36  1  0  0  0  0
M  END
>  <minimizedAffinity>
-5.89633369

>  <minimizedRMSD>
1.83124566

$$$$
