
 OpenBabel03272509253D

 27 29  0  0  0  0  0  0  0  0999 V2000
   37.9820   31.4320   47.3710 C   0  0  0  0  0  0  0  0  0  0  0  0
   37.8160   32.3860   47.8750 H   0  0  0  0  0  0  0  0  0  0  0  0
   38.9400   30.9310   47.6220 H   0  0  0  0  0  0  0  0  0  0  0  0
   37.0780   31.0210   45.0950 C   0  0  0  0  0  3  0  0  0  0  0  0
   38.0010   31.6960   45.8950 C   0  0  0  0  0  0  0  0  0  0  0  0
   38.8550   32.5540   45.2310 C   0  0  0  0  0  0  0  0  0  0  0  0
   39.5680   33.0750   45.8510 H   0  0  0  0  0  0  0  0  0  0  0  0
   38.7600   32.6980   43.8730 C   0  0  0  0  0  0  0  0  0  0  0  0
   39.4700   33.4640   43.0090 N   0  0  0  0  0  0  0  0  0  0  0  0
   38.9960   33.2600   41.7470 C   0  0  0  0  0  0  0  0  0  0  0  0
   39.3390   33.7150   40.8220 H   0  0  0  0  0  0  0  0  0  0  0  0
   37.9870   32.3650   41.8140 N   0  0  0  0  0  0  0  0  0  0  0  0
   37.8370   32.0180   43.1080 C   0  0  0  0  0  0  0  0  0  0  0  0
   36.9630   31.1480   43.7250 C   0  0  0  0  0  3  0  0  0  0  0  0
   40.2600   34.1150   43.2520 H   0  0  0  0  0  0  0  0  0  0  0  0
   36.7990   30.5160   47.6560 C   0  0  0  0  0  0  0  0  0  0  0  0
   36.9520   29.5460   47.1060 H   0  0  0  0  0  0  0  0  0  0  0  0
   35.8740   31.0170   47.3590 H   0  0  0  0  0  0  0  0  0  0  0  0
   37.5920   30.1870   51.3610 C   0  0  0  0  0  0  0  0  0  0  0  0
   37.7230   30.5160   50.0120 C   0  0  0  0  0  0  0  0  0  0  0  0
   36.7280   30.1980   49.1040 C   0  0  0  0  0  0  0  0  0  0  0  0
   35.6370   29.5590   49.5990 N   0  0  0  0  0  0  0  0  0  0  0  0
   35.5150   29.2430   50.9100 C   0  0  0  0  0  0  0  0  0  0  0  0
   36.4930   29.5590   51.7860 N   0  0  0  0  0  0  0  0  0  0  0  0
   38.4200   30.4720   52.0120 H   0  0  0  0  0  0  0  0  0  0  0  0
   38.6130   31.0230   49.6710 H   0  0  0  0  0  0  0  0  0  0  0  0
   34.6140   28.7330   51.2340 H   0  0  0  0  0  0  0  0  0  0  0  0
  1  3  1  0  0  0  0
  1 16  1  0  0  0  0
  1  2  1  0  0  0  0
  4  5  1  0  0  0  0
  5  1  1  0  0  0  0
  6  7  1  0  0  0  0
  6  5  2  0  0  0  0
  8  6  1  0  0  0  0
  9 15  1  0  0  0  0
  9  8  1  0  0  0  0
 10 12  2  0  0  0  0
 10  9  1  0  0  0  0
 11 10  1  0  0  0  0
 12 13  1  0  0  0  0
 13 14  1  0  0  0  0
 13  8  2  0  0  0  0
 14  4  2  0  0  0  0
 16 21  1  0  0  0  0
 17 16  1  0  0  0  0
 18 16  1  0  0  0  0
 19 24  1  0  0  0  0
 19 25  1  0  0  0  0
 20 19  2  0  0  0  0
 21 22  2  0  0  0  0
 21 20  1  0  0  0  0
 22 23  1  0  0  0  0
 23 27  1  0  0  0  0
 23 24  2  0  0  0  0
 26 20  1  0  0  0  0
M  END
>  <minimizedAffinity>
-4.66084146

>  <minimizedRMSD>
2.70729327

$$$$
