
 OpenBabel03272507203D

 33 36  0  0  1  0  0  0  0  0999 V2000
   37.6530   31.3630   49.4580 C   0  0  0  0  0  0  0  0  0  0  0  0
   38.3170   32.5560   49.6960 C   0  0  0  0  0  0  0  0  0  0  0  0
   38.9220   33.1200   48.5510 C   0  0  0  0  0  0  0  0  0  0  0  0
   38.8340   32.5070   47.3360 N   0  0  0  0  0  0  0  0  0  0  0  0
   38.1680   31.3370   47.1570 C   0  0  0  0  0  0  0  0  0  0  0  0
   37.5680   30.7600   48.2470 N   0  0  0  0  0  0  0  0  0  0  0  0
   38.3690   33.0120   50.6660 H   0  0  0  0  0  0  0  0  0  0  0  0
   39.4640   34.0510   48.6480 H   0  0  0  0  0  0  0  0  0  0  0  0
   39.2590   30.2870   45.2560 C   0  0  0  0  0  3  0  0  0  0  0  0
   38.0800   30.6930   45.8490 C   0  0  0  0  0  0  0  0  0  0  0  0
   36.8780   30.4810   45.2030 C   0  0  0  0  0  0  0  0  0  0  0  0
   35.9720   30.8110   45.6940 H   0  0  0  0  0  0  0  0  0  0  0  0
   36.7930   29.8730   43.9660 C   0  0  0  0  0  0  0  0  0  0  0  0
   35.7840   29.5530   43.1370 N   0  0  0  0  0  0  0  0  0  0  0  0
   36.3450   28.9660   42.0670 C   0  0  0  0  0  0  0  0  0  0  0  0
   35.6760   28.6320   41.2710 H   0  0  0  0  0  0  0  0  0  0  0  0
   37.6860   28.9140   42.2120 N   0  0  0  0  0  0  0  0  0  0  0  0
   37.9960   29.4760   43.3950 C   0  0  0  0  0  0  0  0  0  0  0  0
   39.2120   29.6740   44.0180 C   0  0  0  0  0  3  0  0  0  0  0  0
   34.7880   29.7700   43.3860 H   0  0  0  0  0  0  0  0  0  0  0  0
   36.9760   30.7470   50.6440 C   0  0  1  0  0  0  0  0  0  0  0  0
   36.1290   29.5610   50.5220 C   0  0  2  0  0  0  0  0  0  0  0  0
   37.5410   29.3560   50.9840 C   0  0  0  0  0  0  0  0  0  0  0  0
   36.9280   31.4600   51.5000 H   0  0  0  0  0  0  0  0  0  0  0  0
   35.2610   29.5750   51.2440 H   0  0  0  0  0  0  0  0  0  0  0  0
   38.2230   28.8700   50.2530 H   0  0  0  0  0  0  0  0  0  0  0  0
   37.7690   29.2230   52.0470 H   0  0  0  0  0  0  0  0  0  0  0  0
   35.7700   29.1670   49.2410 O   0  0  0  0  0  0  0  0  0  0  0  0
   34.5520   28.8730   48.7290 C   0  0  0  0  0  0  0  0  0  0  0  0
   34.4060   28.4230   47.5710 O   0  0  0  0  0  0  0  0  0  0  0  0
   33.5900   29.1620   49.6980 N   0  0  0  0  0  0  0  0  0  0  0  0
   33.4520   28.1910   50.1050 H   0  0  0  0  0  0  0  0  0  0  0  0
   33.3600   30.1980   49.6770 H   0  0  0  0  0  0  0  0  0  0  0  0
  1  2  1  0  0  0  0
  1 21  1  0  0  0  0
  2  7  1  0  0  0  0
  3  8  1  0  0  0  0
  3  2  2  0  0  0  0
  4  3  1  0  0  0  0
  5  4  2  0  0  0  0
  5  6  1  0  0  0  0
  6  1  2  0  0  0  0
  9 10  1  0  0  0  0
 10  5  1  0  0  0  0
 11 12  1  0  0  0  0
 11 10  2  0  0  0  0
 13 11  1  0  0  0  0
 14 20  1  0  0  0  0
 14 13  1  0  0  0  0
 15 17  2  0  0  0  0
 15 14  1  0  0  0  0
 16 15  1  0  0  0  0
 17 18  1  0  0  0  0
 18 13  2  0  0  0  0
 18 19  1  0  0  0  0
 19  9  2  0  0  0  0
 21 23  1  0  0  0  0
 21 24  1  1  0  0  0
 22 21  1  0  0  0  0
 22 23  1  0  0  0  0
 22 25  1  1  0  0  0
 23 27  1  0  0  0  0
 26 23  1  0  0  0  0
 28 22  1  0  0  0  0
 29 28  1  0  0  0  0
 29 31  1  0  0  0  0
 30 29  2  0  0  0  0
 31 32  1  0  0  0  0
 33 31  1  0  0  0  0
M  END
>  <minimizedAffinity>
-5.91214657

>  <minimizedRMSD>
1.48773491

$$$$
