
 OpenBabel03272503023D

 31 34  0  0  0  0  0  0  0  0999 V2000
   38.0470   30.7140   47.0780 F   0  0  0  0  0  0  0  0  0  0  0  0
   38.5720   31.8330   47.6120 C   0  0  0  0  0  0  0  0  0  0  0  0
   38.3510   32.1310   48.9160 C   0  0  0  0  0  0  0  0  0  0  0  0
   38.9100   33.2880   49.4160 C   0  0  0  0  0  0  0  0  0  0  0  0
   39.6750   34.1290   48.6180 C   0  0  0  0  0  0  0  0  0  0  0  0
   39.8860   33.8030   47.2930 C   0  0  0  0  0  0  0  0  0  0  0  0
   39.3270   32.6450   46.7920 C   0  0  0  0  0  0  0  0  0  0  0  0
   38.7290   33.5220   50.4620 H   0  0  0  0  0  0  0  0  0  0  0  0
   40.0790   35.0180   49.0870 H   0  0  0  0  0  0  0  0  0  0  0  0
   40.4870   34.4840   46.7100 H   0  0  0  0  0  0  0  0  0  0  0  0
   39.1030   33.1310   44.3710 C   0  0  0  0  0  0  0  0  0  0  0  0
   39.5620   32.3200   45.3880 C   0  0  0  0  0  0  0  0  0  0  0  0
   40.2750   31.1470   45.1640 C   0  0  0  0  0  0  0  0  0  0  0  0
   40.6420   30.5020   45.9440 H   0  0  0  0  0  0  0  0  0  0  0  0
   40.5240   30.7950   43.8540 C   0  0  0  0  0  0  0  0  0  0  0  0
   41.1580   29.7740   43.2050 N   0  0  0  0  0  0  0  0  0  0  0  0
   41.0720   29.9780   41.8900 C   0  0  0  0  0  0  0  0  0  0  0  0
   41.5160   29.2720   41.1790 H   0  0  0  0  0  0  0  0  0  0  0  0
   40.3860   31.1280   41.6270 N   0  0  0  0  0  0  0  0  0  0  0  0
   40.0620   31.6100   42.8420 C   0  0  0  0  0  0  0  0  0  0  0  0
   39.3520   32.7780   43.0400 C   0  0  0  0  0  0  0  0  0  0  0  0
   41.6260   28.9730   43.7040 H   0  0  0  0  0  0  0  0  0  0  0  0
   37.2370   29.6620   51.5700 C   0  0  0  0  0  0  0  0  0  0  0  0
   38.0240   30.5380   50.8230 C   0  0  0  0  0  0  0  0  0  0  0  0
   37.5380   31.2110   49.7070 C   0  0  0  0  0  0  0  0  0  0  0  0
   36.2350   30.9650   49.3760 N   0  0  0  0  0  0  0  0  0  0  0  0
   35.4890   30.1110   50.1150 C   0  0  0  0  0  0  0  0  0  0  0  0
   35.9700   29.4730   51.1850 N   0  0  0  0  0  0  0  0  0  0  0  0
   37.8100   29.2510   52.3900 H   0  0  0  0  0  0  0  0  0  0  0  0
   39.0660   30.7780   51.0310 H   0  0  0  0  0  0  0  0  0  0  0  0
   34.4580   29.8930   49.8840 H   0  0  0  0  0  0  0  0  0  0  0  0
  1  2  1  0  0  0  0
  2  3  1  0  0  0  0
  3  4  2  0  0  0  0
  3 25  1  0  0  0  0
  4  8  1  0  0  0  0
  5  9  1  0  0  0  0
  5  4  1  0  0  0  0
  6  5  2  0  0  0  0
  7  6  1  0  0  0  0
  7  2  2  0  0  0  0
 10  6  1  0  0  0  0
 11 12  1  0  0  0  0
 12  7  1  0  0  0  0
 13 12  2  0  0  0  0
 13 14  1  0  0  0  0
 15 13  1  0  0  0  0
 16 22  1  0  0  0  0
 16 15  1  0  0  0  0
 17 16  1  0  0  0  0
 18 17  1  0  0  0  0
 19 17  2  0  0  0  0
 19 20  1  0  0  0  0
 20 21  1  0  0  0  0
 20 15  2  0  0  0  0
 21 11  2  0  0  0  0
 23 29  1  0  0  0  0
 24 30  1  0  0  0  0
 24 23  2  0  0  0  0
 25 24  1  0  0  0  0
 26 25  2  0  0  0  0
 26 27  1  0  0  0  0
 27 28  2  0  0  0  0
 28 23  1  0  0  0  0
 31 27  1  0  0  0  0
M  END
>  <minimizedAffinity>
-7.62730455

>  <minimizedRMSD>
0.753192544

$$$$
