
 OpenBabel03272504513D

 45 49  0  0  1  0  0  0  0  0999 V2000
   38.4640   24.3000   35.8360 N   0  0  0  0  0  0  0  0  0  0  0  0
   38.1990   24.7330   37.1940 C   0  0  0  0  0  0  0  0  0  0  0  0
   38.5280   23.7070   38.2300 C   0  0  0  0  0  0  0  0  0  0  0  0
   39.7470   22.9030   37.8170 C   0  0  0  0  0  0  0  0  0  0  0  0
   39.3600   22.1300   36.5950 C   0  0  0  0  0  0  0  0  0  0  0  0
   38.9320   23.0070   35.4590 C   0  0  1  0  0  0  0  0  0  0  0  0
   38.8060   25.6590   37.3800 H   0  0  0  0  0  0  0  0  0  0  0  0
   37.1150   24.9610   37.2700 H   0  0  0  0  0  0  0  0  0  0  0  0
   37.6820   23.0890   38.5590 H   0  0  0  0  0  0  0  0  0  0  0  0
   38.8460   24.2670   39.1540 H   0  0  0  0  0  0  0  0  0  0  0  0
   40.5380   23.6340   37.5660 H   0  0  0  0  0  0  0  0  0  0  0  0
   40.0070   22.2630   38.6560 H   0  0  0  0  0  0  0  0  0  0  0  0
   38.5260   21.4270   36.8310 H   0  0  0  0  0  0  0  0  0  0  0  0
   40.2020   21.4710   36.2800 H   0  0  0  0  0  0  0  0  0  0  0  0
   39.8210   23.1340   34.8060 H   0  0  0  0  0  0  0  0  0  0  0  0
   36.9950   21.6830   35.5130 C   0  0  0  0  0  3  0  0  0  0  0  0
   37.9270   22.2420   34.6580 C   0  0  0  0  0  0  0  0  0  0  0  0
   37.8150   22.0300   33.3010 C   0  0  0  0  0  0  0  0  0  0  0  0
   38.6140   22.5280   32.7660 H   0  0  0  0  0  0  0  0  0  0  0  0
   36.7760   21.2630   32.8210 C   0  0  0  0  0  0  0  0  0  0  0  0
   36.5270   20.9640   31.5450 N   0  0  0  0  0  0  0  0  0  0  0  0
   35.4210   20.2000   31.5420 C   0  0  0  0  0  0  0  0  0  0  0  0
   34.9570   19.7910   30.6520 H   0  0  0  0  0  0  0  0  0  0  0  0
   35.0200   20.0510   32.8180 N   0  0  0  0  0  0  0  0  0  0  0  0
   35.8450   20.7040   33.6690 C   0  0  0  0  0  0  0  0  0  0  0  0
   35.9370   20.9040   35.0310 C   0  0  0  0  0  3  0  0  0  0  0  0
   37.0680   21.2530   30.6850 H   0  0  0  0  0  0  0  0  0  0  0  0
   37.1510   26.1350   34.8930 C   0  0  0  0  0  0  0  0  0  0  0  0
   38.2290   25.2610   34.8140 C   0  0  0  0  0  0  0  0  0  0  0  0
   39.0540   25.3710   33.7050 C   0  0  0  0  0  0  0  0  0  0  0  0
   38.7740   26.3140   32.7610 N   0  0  0  0  0  0  0  0  0  0  0  0
   37.7290   27.1400   32.8650 C   0  0  0  0  0  0  0  0  0  0  0  0
   36.9190   27.0430   33.9390 N   0  0  0  0  0  0  0  0  0  0  0  0
   36.4640   26.1080   35.7290 H   0  0  0  0  0  0  0  0  0  0  0  0
   39.9140   24.7350   33.5700 H   0  0  0  0  0  0  0  0  0  0  0  0
   37.4530   28.1310   31.8500 C   0  0  0  0  0  0  0  0  0  0  0  0
   36.4580   29.0460   32.0020 C   0  0  0  0  0  0  0  0  0  0  0  0
   36.1470   30.0110   31.0770 C   0  0  0  0  0  0  0  0  0  0  0  0
   36.9420   29.9850   29.9470 C   0  0  0  0  0  0  0  0  0  0  0  0
   37.9950   29.0640   29.7200 C   0  0  0  0  0  0  0  0  0  0  0  0
   38.2050   28.1510   30.7190 N   0  0  0  0  0  0  0  0  0  0  0  0
   35.8830   28.9940   32.9220 H   0  0  0  0  0  0  0  0  0  0  0  0
   35.3760   30.7350   31.1720 H   0  0  0  0  0  0  0  0  0  0  0  0
   36.7930   30.7020   29.1400 H   0  0  0  0  0  0  0  0  0  0  0  0
   38.5690   29.1000   28.8270 H   0  0  0  0  0  0  0  0  0  0  0  0
  1  2  1  0  0  0  0
  2  8  1  0  0  0  0
  2  7  1  0  0  0  0
  2  3  1  0  0  0  0
  3  9  1  0  0  0  0
  3 10  1  0  0  0  0
  4  3  1  0  0  0  0
  4 12  1  0  0  0  0
  5 13  1  0  0  0  0
  5  4  1  0  0  0  0
  6 15  1  6  0  0  0
  6  1  1  0  0  0  0
  6  5  1  0  0  0  0
 11  4  1  0  0  0  0
 14  5  1  0  0  0  0
 17  6  1  0  0  0  0
 17 16  2  0  0  0  0
 18 17  1  0  0  0  0
 19 18  1  0  0  0  0
 20 18  2  0  0  0  0
 20 25  1  0  0  0  0
 21 20  1  0  0  0  0
 22 21  1  0  0  0  0
 22 24  2  0  0  0  0
 23 22  1  0  0  0  0
 24 25  1  0  0  0  0
 25 26  2  0  0  0  0
 26 16  1  0  0  0  0
 27 21  1  0  0  0  0
 28 34  1  0  0  0  0
 29 28  1  0  0  0  0
 29  1  1  0  0  0  0
 30 29  2  0  0  0  0
 31 32  2  0  0  0  0
 31 30  1  0  0  0  0
 32 33  1  0  0  0  0
 33 28  2  0  0  0  0
 35 30  1  0  0  0  0
 36 37  1  0  0  0  0
 36 32  1  0  0  0  0
 37 42  1  0  0  0  0
 38 43  1  0  0  0  0
 38 37  2  0  0  0  0
 39 38  1  0  0  0  0
 40 39  2  0  0  0  0
 40 41  1  0  0  0  0
 41 36  2  0  0  0  0
 44 39  1  0  0  0  0
 45 40  1  0  0  0  0
M  END
>  <minimizedAffinity>
-6.35788774

$$$$

 OpenBabel03272504513D

 45 49  0  0  1  0  0  0  0  0999 V2000
   37.2000   28.1550   31.7630 N   0  0  0  0  0  0  0  0  0  0  0  0
   37.4160   27.6370   30.4270 C   0  0  0  0  0  0  0  0  0  0  0  0
   37.1600   28.6340   29.3440 C   0  0  0  0  0  0  0  0  0  0  0  0
   37.5670   30.0260   29.7920 C   0  0  0  0  0  0  0  0  0  0  0  0
   36.6490   30.4040   30.9130 C   0  0  0  0  0  0  0  0  0  0  0  0
   36.7260   29.4620   32.0750 C   0  0  1  0  0  0  0  0  0  0  0  0
   38.4810   27.2870   30.3660 H   0  0  0  0  0  0  0  0  0  0  0  0
   36.7200   26.7840   30.2790 H   0  0  0  0  0  0  0  0  0  0  0  0
   36.1570   28.5900   28.8980 H   0  0  0  0  0  0  0  0  0  0  0  0
   37.8580   28.3840   28.4970 H   0  0  0  0  0  0  0  0  0  0  0  0
   38.6050   29.9470   30.1650 H   0  0  0  0  0  0  0  0  0  0  0  0
   37.4710   30.6800   28.9300 H   0  0  0  0  0  0  0  0  0  0  0  0
   35.5930   30.4350   30.5530 H   0  0  0  0  0  0  0  0  0  0  0  0
   36.8640   31.4470   31.2440 H   0  0  0  0  0  0  0  0  0  0  0  0
   37.4230   29.9230   32.8070 H   0  0  0  0  0  0  0  0  0  0  0  0
   35.4670   30.0500   33.9660 C   0  0  0  0  0  3  0  0  0  0  0  0
   35.3800   29.4460   32.7260 C   0  0  0  0  0  0  0  0  0  0  0  0
   34.1680   28.9490   32.2980 C   0  0  0  0  0  0  0  0  0  0  0  0
   34.2580   28.5090   31.3130 H   0  0  0  0  0  0  0  0  0  0  0  0
   33.0650   29.0630   33.1160 C   0  0  0  0  0  0  0  0  0  0  0  0
   31.8280   28.6370   32.8530 N   0  0  0  0  0  0  0  0  0  0  0  0
   31.0800   28.9570   33.9240 C   0  0  0  0  0  0  0  0  0  0  0  0
   30.0220   28.7440   34.0210 H   0  0  0  0  0  0  0  0  0  0  0  0
   31.8800   29.5710   34.8160 N   0  0  0  0  0  0  0  0  0  0  0  0
   33.1480   29.6630   34.3540 C   0  0  0  0  0  0  0  0  0  0  0  0
   34.3510   30.1690   34.8020 C   0  0  0  0  0  3  0  0  0  0  0  0
   31.4730   28.1450   31.9890 H   0  0  0  0  0  0  0  0  0  0  0  0
   38.2680   27.6830   33.9130 C   0  0  0  0  0  0  0  0  0  0  0  0
   37.4930   27.2660   32.8360 C   0  0  0  0  0  0  0  0  0  0  0  0
   37.0270   25.9610   32.8570 C   0  0  0  0  0  0  0  0  0  0  0  0
   37.3440   25.1610   33.9150 N   0  0  0  0  0  0  0  0  0  0  0  0
   38.0920   25.5900   34.9360 C   0  0  0  0  0  0  0  0  0  0  0  0
   38.5510   26.8580   34.9270 N   0  0  0  0  0  0  0  0  0  0  0  0
   38.6670   28.6870   33.9650 H   0  0  0  0  0  0  0  0  0  0  0  0
   36.4170   25.5620   32.0640 H   0  0  0  0  0  0  0  0  0  0  0  0
   38.4140   24.7220   36.0460 C   0  0  0  0  0  0  0  0  0  0  0  0
   37.8630   24.9070   37.2760 C   0  0  0  0  0  0  0  0  0  0  0  0
   38.1280   24.1190   38.3670 C   0  0  0  0  0  0  0  0  0  0  0  0
   39.0210   23.0930   38.1190 C   0  0  0  0  0  0  0  0  0  0  0  0
   39.6320   22.8400   36.8660 C   0  0  0  0  0  0  0  0  0  0  0  0
   39.2860   23.6980   35.8570 N   0  0  0  0  0  0  0  0  0  0  0  0
   37.1720   25.7370   37.3820 H   0  0  0  0  0  0  0  0  0  0  0  0
   37.7120   24.2420   39.3370 H   0  0  0  0  0  0  0  0  0  0  0  0
   39.3100   22.3990   38.9070 H   0  0  0  0  0  0  0  0  0  0  0  0
   40.3110   22.0330   36.7430 H   0  0  0  0  0  0  0  0  0  0  0  0
  1  6  1  0  0  0  0
  1 29  1  0  0  0  0
  2  1  1  0  0  0  0
  3  4  1  0  0  0  0
  3  2  1  0  0  0  0
  4 11  1  0  0  0  0
  4  5  1  0  0  0  0
  5 14  1  0  0  0  0
  5  6  1  0  0  0  0
  6 17  1  0  0  0  0
  6 15  1  1  0  0  0
  7  2  1  0  0  0  0
  8  2  1  0  0  0  0
  9  3  1  0  0  0  0
 10  3  1  0  0  0  0
 12  4  1  0  0  0  0
 13  5  1  0  0  0  0
 16 26  1  0  0  0  0
 17 16  2  0  0  0  0
 18 17  1  0  0  0  0
 18 20  2  0  0  0  0
 19 18  1  0  0  0  0
 20 25  1  0  0  0  0
 21 20  1  0  0  0  0
 21 22  1  0  0  0  0
 22 23  1  0  0  0  0
 22 24  2  0  0  0  0
 25 26  2  0  0  0  0
 25 24  1  0  0  0  0
 27 21  1  0  0  0  0
 28 34  1  0  0  0  0
 28 33  1  0  0  0  0
 29 30  1  0  0  0  0
 29 28  2  0  0  0  0
 30 31  2  0  0  0  0
 31 32  1  0  0  0  0
 32 36  1  0  0  0  0
 33 32  2  0  0  0  0
 35 30  1  0  0  0  0
 36 37  1  0  0  0  0
 37 42  1  0  0  0  0
 37 38  2  0  0  0  0
 38 43  1  0  0  0  0
 39 38  1  0  0  0  0
 39 44  1  0  0  0  0
 40 39  2  0  0  0  0
 41 36  2  0  0  0  0
 41 40  1  0  0  0  0
 45 40  1  0  0  0  0
M  END
>  <minimizedAffinity>
-6.07738209

$$$$

 OpenBabel03272504513D

 45 49  0  0  1  0  0  0  0  0999 V2000
   38.6970   24.1900   35.6470 N   0  0  0  0  0  0  0  0  0  0  0  0
   38.2660   24.5430   36.9850 C   0  0  0  0  0  0  0  0  0  0  0  0
   38.6000   23.5160   38.0180 C   0  0  0  0  0  0  0  0  0  0  0  0
   39.9260   22.8500   37.7000 C   0  0  0  0  0  0  0  0  0  0  0  0
   39.7320   22.0900   36.4240 C   0  0  0  0  0  0  0  0  0  0  0  0
   39.3250   22.9650   35.2790 C   0  0  1  0  0  0  0  0  0  0  0  0
   38.7580   25.5160   37.2550 H   0  0  0  0  0  0  0  0  0  0  0  0
   37.1620   24.6620   36.9640 H   0  0  0  0  0  0  0  0  0  0  0  0
   37.7930   22.8060   38.2460 H   0  0  0  0  0  0  0  0  0  0  0  0
   38.7730   24.0680   38.9840 H   0  0  0  0  0  0  0  0  0  0  0  0
   40.6600   23.6630   37.5470 H   0  0  0  0  0  0  0  0  0  0  0  0
   40.1700   22.2060   38.5410 H   0  0  0  0  0  0  0  0  0  0  0  0
   38.9550   21.3010   36.5600 H   0  0  0  0  0  0  0  0  0  0  0  0
   40.6620   21.5290   36.1730 H   0  0  0  0  0  0  0  0  0  0  0  0
   40.2540   23.2010   34.7180 H   0  0  0  0  0  0  0  0  0  0  0  0
   39.2500   21.7050   33.3000 C   0  0  0  0  0  3  0  0  0  0  0  0
   38.4800   22.1360   34.3640 C   0  0  0  0  0  0  0  0  0  0  0  0
   37.1510   21.7790   34.4280 C   0  0  0  0  0  0  0  0  0  0  0  0
   36.6830   22.1910   35.3140 H   0  0  0  0  0  0  0  0  0  0  0  0
   36.6130   20.9990   33.4280 C   0  0  0  0  0  0  0  0  0  0  0  0
   35.3530   20.5690   33.3400 N   0  0  0  0  0  0  0  0  0  0  0  0
   35.2760   19.8450   32.2100 C   0  0  0  0  0  0  0  0  0  0  0  0
   34.3770   19.3550   31.8530 H   0  0  0  0  0  0  0  0  0  0  0  0
   36.4920   19.8490   31.6350 N   0  0  0  0  0  0  0  0  0  0  0  0
   37.3760   20.5670   32.3650 C   0  0  0  0  0  0  0  0  0  0  0  0
   38.7100   20.9120   32.2820 C   0  0  0  0  0  3  0  0  0  0  0  0
   34.5520   20.7430   34.0060 H   0  0  0  0  0  0  0  0  0  0  0  0
   37.2700   25.8750   34.5960 C   0  0  0  0  0  0  0  0  0  0  0  0
   38.4630   25.1630   34.6350 C   0  0  0  0  0  0  0  0  0  0  0  0
   39.4010   25.4420   33.6540 C   0  0  0  0  0  0  0  0  0  0  0  0
   39.1140   26.3860   32.7120 N   0  0  0  0  0  0  0  0  0  0  0  0
   37.9570   27.0550   32.7000 C   0  0  0  0  0  0  0  0  0  0  0  0
   37.0370   26.7920   33.6500 N   0  0  0  0  0  0  0  0  0  0  0  0
   36.4910   25.7100   35.3290 H   0  0  0  0  0  0  0  0  0  0  0  0
   40.3530   24.9390   33.6160 H   0  0  0  0  0  0  0  0  0  0  0  0
   37.6770   28.0510   31.6910 C   0  0  0  0  0  0  0  0  0  0  0  0
   36.6040   28.8810   31.7900 C   0  0  0  0  0  0  0  0  0  0  0  0
   36.2850   29.8450   30.8680 C   0  0  0  0  0  0  0  0  0  0  0  0
   37.1590   29.9140   29.7990 C   0  0  0  0  0  0  0  0  0  0  0  0
   38.2960   29.0850   29.6300 C   0  0  0  0  0  0  0  0  0  0  0  0
   38.5050   28.1620   30.6200 N   0  0  0  0  0  0  0  0  0  0  0  0
   35.9700   28.7570   32.6630 H   0  0  0  0  0  0  0  0  0  0  0  0
   35.4540   30.5040   30.9220 H   0  0  0  0  0  0  0  0  0  0  0  0
   37.0110   30.6400   29.0010 H   0  0  0  0  0  0  0  0  0  0  0  0
   38.9270   29.1910   28.7830 H   0  0  0  0  0  0  0  0  0  0  0  0
  1  2  1  0  0  0  0
  2  7  1  0  0  0  0
  2  3  1  0  0  0  0
  3  9  1  0  0  0  0
  3 10  1  0  0  0  0
  4  3  1  0  0  0  0
  4 12  1  0  0  0  0
  5 13  1  0  0  0  0
  5  4  1  0  0  0  0
  6 15  1  6  0  0  0
  6  1  1  0  0  0  0
  6  5  1  0  0  0  0
  8  2  1  0  0  0  0
 11  4  1  0  0  0  0
 14  5  1  0  0  0  0
 16 17  1  0  0  0  0
 17 18  2  0  0  0  0
 17  6  1  0  0  0  0
 18 19  1  0  0  0  0
 20 18  1  0  0  0  0
 21 20  1  0  0  0  0
 21 27  1  0  0  0  0
 22 21  1  0  0  0  0
 23 22  1  0  0  0  0
 24 22  2  0  0  0  0
 24 25  1  0  0  0  0
 25 20  2  0  0  0  0
 26 25  1  0  0  0  0
 26 16  2  0  0  0  0
 28 29  1  0  0  0  0
 28 34  1  0  0  0  0
 29  1  1  0  0  0  0
 30 29  2  0  0  0  0
 31 30  1  0  0  0  0
 32 31  2  0  0  0  0
 32 33  1  0  0  0  0
 33 28  2  0  0  0  0
 35 30  1  0  0  0  0
 36 37  1  0  0  0  0
 36 32  1  0  0  0  0
 37 42  1  0  0  0  0
 38 43  1  0  0  0  0
 38 37  2  0  0  0  0
 39 38  1  0  0  0  0
 40 39  2  0  0  0  0
 40 41  1  0  0  0  0
 41 36  2  0  0  0  0
 44 39  1  0  0  0  0
 45 40  1  0  0  0  0
M  END
>  <minimizedAffinity>
-6.03049755

$$$$

 OpenBabel03272504513D

 45 49  0  0  1  0  0  0  0  0999 V2000
   36.4210   28.9340   32.6590 N   0  0  0  0  0  0  0  0  0  0  0  0
   36.7520   28.7080   31.2660 C   0  0  0  0  0  0  0  0  0  0  0  0
   36.3120   29.8080   30.3540 C   0  0  0  0  0  0  0  0  0  0  0  0
   36.4240   31.1530   31.0480 C   0  0  0  0  0  0  0  0  0  0  0  0
   35.4350   31.1420   32.1720 C   0  0  0  0  0  0  0  0  0  0  0  0
   35.6880   30.0480   33.1620 C   0  0  1  0  0  0  0  0  0  0  0  0
   37.8670   28.5910   31.1960 H   0  0  0  0  0  0  0  0  0  0  0  0
   36.2450   27.7740   30.9450 H   0  0  0  0  0  0  0  0  0  0  0  0
   35.3440   29.6450   29.8620 H   0  0  0  0  0  0  0  0  0  0  0  0
   37.0560   29.8510   29.5100 H   0  0  0  0  0  0  0  0  0  0  0  0
   37.4520   31.2170   31.4500 H   0  0  0  0  0  0  0  0  0  0  0  0
   36.2070   31.9150   30.3030 H   0  0  0  0  0  0  0  0  0  0  0  0
   34.3990   31.0260   31.7740 H   0  0  0  0  0  0  0  0  0  0  0  0
   35.4310   32.1340   32.6830 H   0  0  0  0  0  0  0  0  0  0  0  0
   36.2680   30.5020   33.9930 H   0  0  0  0  0  0  0  0  0  0  0  0
   33.5130   29.2900   32.7140 C   0  0  0  0  0  3  0  0  0  0  0  0
   34.3650   29.6540   33.7390 C   0  0  0  0  0  0  0  0  0  0  0  0
   33.9150   29.6140   35.0400 C   0  0  0  0  0  0  0  0  0  0  0  0
   34.6930   29.9260   35.7270 H   0  0  0  0  0  0  0  0  0  0  0  0
   32.6230   29.2110   35.2960 C   0  0  0  0  0  0  0  0  0  0  0  0
   32.0360   29.1170   36.4910 N   0  0  0  0  0  0  0  0  0  0  0  0
   30.7820   28.6880   36.2670 C   0  0  0  0  0  0  0  0  0  0  0  0
   30.0450   28.5090   37.0410 H   0  0  0  0  0  0  0  0  0  0  0  0
   30.6330   28.5280   34.9380 N   0  0  0  0  0  0  0  0  0  0  0  0
   31.7700   28.8470   34.2770 C   0  0  0  0  0  0  0  0  0  0  0  0
   32.1990   28.8790   32.9660 C   0  0  0  0  0  3  0  0  0  0  0  0
   32.4450   29.3290   37.4410 H   0  0  0  0  0  0  0  0  0  0  0  0
   36.9340   26.6080   33.2140 C   0  0  0  0  0  0  0  0  0  0  0  0
   36.8750   27.9480   33.5790 C   0  0  0  0  0  0  0  0  0  0  0  0
   37.2740   28.2740   34.8660 C   0  0  0  0  0  0  0  0  0  0  0  0
   37.6990   27.2810   35.6990 N   0  0  0  0  0  0  0  0  0  0  0  0
   37.7450   26.0010   35.3200 C   0  0  0  0  0  0  0  0  0  0  0  0
   37.3590   25.6710   34.0700 N   0  0  0  0  0  0  0  0  0  0  0  0
   36.6380   26.2790   32.2270 H   0  0  0  0  0  0  0  0  0  0  0  0
   37.2630   29.2890   35.2260 H   0  0  0  0  0  0  0  0  0  0  0  0
   38.1990   24.9670   36.2220 C   0  0  0  0  0  0  0  0  0  0  0  0
   39.0480   23.9870   35.8100 C   0  0  0  0  0  0  0  0  0  0  0  0
   39.5150   22.9810   36.6170 C   0  0  0  0  0  0  0  0  0  0  0  0
   39.0460   23.0350   37.9160 C   0  0  0  0  0  0  0  0  0  0  0  0
   38.1620   24.0240   38.4150 C   0  0  0  0  0  0  0  0  0  0  0  0
   37.7690   24.9740   37.5110 N   0  0  0  0  0  0  0  0  0  0  0  0
   39.3670   24.0210   34.7730 H   0  0  0  0  0  0  0  0  0  0  0  0
   40.1770   22.2050   36.3200 H   0  0  0  0  0  0  0  0  0  0  0  0
   39.3460   22.2900   38.6520 H   0  0  0  0  0  0  0  0  0  0  0  0
   37.8390   24.0080   39.4270 H   0  0  0  0  0  0  0  0  0  0  0  0
  1  6  1  0  0  0  0
  1 29  1  0  0  0  0
  2  1  1  0  0  0  0
  3  4  1  0  0  0  0
  3  2  1  0  0  0  0
  4 11  1  0  0  0  0
  4  5  1  0  0  0  0
  5 14  1  0  0  0  0
  5  6  1  0  0  0  0
  6 17  1  0  0  0  0
  6 15  1  1  0  0  0
  7  2  1  0  0  0  0
  8  2  1  0  0  0  0
  9  3  1  0  0  0  0
 10  3  1  0  0  0  0
 12  4  1  0  0  0  0
 13  5  1  0  0  0  0
 16 26  2  0  0  0  0
 16 17  1  0  0  0  0
 17 18  2  0  0  0  0
 18 20  1  0  0  0  0
 18 19  1  0  0  0  0
 20 21  1  0  0  0  0
 21 27  1  0  0  0  0
 22 21  1  0  0  0  0
 22 23  1  0  0  0  0
 24 22  2  0  0  0  0
 25 24  1  0  0  0  0
 25 20  2  0  0  0  0
 26 25  1  0  0  0  0
 28 29  2  0  0  0  0
 28 33  1  0  0  0  0
 29 30  1  0  0  0  0
 30 35  1  0  0  0  0
 30 31  2  0  0  0  0
 32 31  1  0  0  0  0
 32 36  1  0  0  0  0
 33 32  2  0  0  0  0
 34 28  1  0  0  0  0
 36 41  1  0  0  0  0
 37 36  2  0  0  0  0
 37 38  1  0  0  0  0
 38 39  2  0  0  0  0
 39 40  1  0  0  0  0
 39 44  1  0  0  0  0
 40 45  1  0  0  0  0
 41 40  2  0  0  0  0
 42 37  1  0  0  0  0
 43 38  1  0  0  0  0
M  END
>  <minimizedAffinity>
-5.95089006

$$$$

 OpenBabel03272504513D

 45 49  0  0  1  0  0  0  0  0999 V2000
   36.1390   27.8730   31.8940 N   0  0  0  0  0  0  0  0  0  0  0  0
   35.9190   28.4590   33.2010 C   0  0  0  0  0  0  0  0  0  0  0  0
   35.8660   29.9530   33.1920 C   0  0  0  0  0  0  0  0  0  0  0  0
   35.2200   30.4570   31.9150 C   0  0  0  0  0  0  0  0  0  0  0  0
   36.1340   30.0800   30.7910 C   0  0  0  0  0  0  0  0  0  0  0  0
   36.3570   28.6020   30.6890 C   0  0  1  0  0  0  0  0  0  0  0  0
   34.9480   28.0550   33.5960 H   0  0  0  0  0  0  0  0  0  0  0  0
   36.7610   28.1500   33.8560 H   0  0  0  0  0  0  0  0  0  0  0  0
   36.8130   30.4530   33.4350 H   0  0  0  0  0  0  0  0  0  0  0  0
   35.1640   30.2600   34.0170 H   0  0  0  0  0  0  0  0  0  0  0  0
   34.2580   29.9210   31.8140 H   0  0  0  0  0  0  0  0  0  0  0  0
   35.1020   31.5330   32.0200 H   0  0  0  0  0  0  0  0  0  0  0  0
   37.1250   30.5780   30.9160 H   0  0  0  0  0  0  0  0  0  0  0  0
   35.7370   30.4800   29.8290 H   0  0  0  0  0  0  0  0  0  0  0  0
   35.6470   28.2300   29.9210 H   0  0  0  0  0  0  0  0  0  0  0  0
   37.7120   28.6560   28.7740 C   0  0  0  0  0  3  0  0  0  0  0  0
   37.7290   28.3960   30.1310 C   0  0  0  0  0  0  0  0  0  0  0  0
   38.9070   28.0080   30.7320 C   0  0  0  0  0  0  0  0  0  0  0  0
   38.7620   27.8410   31.7930 H   0  0  0  0  0  0  0  0  0  0  0  0
   40.0470   27.8870   29.9680 C   0  0  0  0  0  0  0  0  0  0  0  0
   41.2590   27.5240   30.3930 N   0  0  0  0  0  0  0  0  0  0  0  0
   42.0610   27.5410   29.3140 C   0  0  0  0  0  0  0  0  0  0  0  0
   43.1160   27.2940   29.3270 H   0  0  0  0  0  0  0  0  0  0  0  0
   41.3180   27.9150   28.2550 N   0  0  0  0  0  0  0  0  0  0  0  0
   40.0340   28.1450   28.6150 C   0  0  0  0  0  0  0  0  0  0  0  0
   38.8670   28.5360   27.9920 C   0  0  0  0  0  3  0  0  0  0  0  0
   41.5620   27.2690   31.3710 H   0  0  0  0  0  0  0  0  0  0  0  0
   35.2710   25.7800   30.9730 C   0  0  0  0  0  0  0  0  0  0  0  0
   36.1320   26.4510   31.8340 C   0  0  0  0  0  0  0  0  0  0  0  0
   36.9720   25.6790   32.6210 C   0  0  0  0  0  0  0  0  0  0  0  0
   36.9150   24.3210   32.5160 N   0  0  0  0  0  0  0  0  0  0  0  0
   36.0760   23.7030   31.6790 C   0  0  0  0  0  0  0  0  0  0  0  0
   35.2550   24.4440   30.9070 N   0  0  0  0  0  0  0  0  0  0  0  0
   34.5870   26.3160   30.3290 H   0  0  0  0  0  0  0  0  0  0  0  0
   37.6720   26.1210   33.3110 H   0  0  0  0  0  0  0  0  0  0  0  0
   36.0360   22.2620   31.5860 C   0  0  0  0  0  0  0  0  0  0  0  0
   35.0500   21.5390   32.1830 C   0  0  0  0  0  0  0  0  0  0  0  0
   34.9560   20.1710   32.1320 C   0  0  0  0  0  0  0  0  0  0  0  0
   35.9650   19.5630   31.4080 C   0  0  0  0  0  0  0  0  0  0  0  0
   37.0200   20.2500   30.7590 C   0  0  0  0  0  0  0  0  0  0  0  0
   37.0020   21.6130   30.8850 N   0  0  0  0  0  0  0  0  0  0  0  0
   34.2990   22.0980   32.7320 H   0  0  0  0  0  0  0  0  0  0  0  0
   34.1990   19.5840   32.5900 H   0  0  0  0  0  0  0  0  0  0  0  0
   35.9980   18.4800   31.2940 H   0  0  0  0  0  0  0  0  0  0  0  0
   37.7650   19.7210   30.2170 H   0  0  0  0  0  0  0  0  0  0  0  0
  1  2  1  0  0  0  0
  2  7  1  0  0  0  0
  2  8  1  0  0  0  0
  3  2  1  0  0  0  0
  3  9  1  0  0  0  0
  3 10  1  0  0  0  0
  4 12  1  0  0  0  0
  4  3  1  0  0  0  0
  5 13  1  0  0  0  0
  5  4  1  0  0  0  0
  6 15  1  6  0  0  0
  6  5  1  0  0  0  0
  6  1  1  0  0  0  0
 11  4  1  0  0  0  0
 14  5  1  0  0  0  0
 16 17  1  0  0  0  0
 17  6  1  0  0  0  0
 17 18  2  0  0  0  0
 18 19  1  0  0  0  0
 20 21  1  0  0  0  0
 20 18  1  0  0  0  0
 21 27  1  0  0  0  0
 22 23  1  0  0  0  0
 22 21  1  0  0  0  0
 24 25  1  0  0  0  0
 24 22  2  0  0  0  0
 25 20  2  0  0  0  0
 26 25  1  0  0  0  0
 26 16  2  0  0  0  0
 28 29  1  0  0  0  0
 29  1  1  0  0  0  0
 29 30  2  0  0  0  0
 30 35  1  0  0  0  0
 31 30  1  0  0  0  0
 32 31  2  0  0  0  0
 33 28  2  0  0  0  0
 33 32  1  0  0  0  0
 34 28  1  0  0  0  0
 36 32  1  0  0  0  0
 36 37  1  0  0  0  0
 37 42  1  0  0  0  0
 38 37  2  0  0  0  0
 38 43  1  0  0  0  0
 39 38  1  0  0  0  0
 40 41  1  0  0  0  0
 40 39  2  0  0  0  0
 41 36  2  0  0  0  0
 44 39  1  0  0  0  0
 45 40  1  0  0  0  0
M  END
>  <minimizedAffinity>
-5.94244909

$$$$

 OpenBabel03272504513D

 45 49  0  0  1  0  0  0  0  0999 V2000
   38.4470   24.2120   35.2080 N   0  0  0  0  0  0  0  0  0  0  0  0
   38.0480   24.8840   36.4280 C   0  0  0  0  0  0  0  0  0  0  0  0
   38.1780   24.0400   37.6540 C   0  0  0  0  0  0  0  0  0  0  0  0
   39.3820   23.1230   37.5450 C   0  0  0  0  0  0  0  0  0  0  0  0
   39.0970   22.1680   36.4270 C   0  0  0  0  0  0  0  0  0  0  0  0
   38.8710   22.8540   35.1150 C   0  0  1  0  0  0  0  0  0  0  0  0
   38.6880   25.8000   36.5370 H   0  0  0  0  0  0  0  0  0  0  0  0
   36.9800   25.1710   36.3210 H   0  0  0  0  0  0  0  0  0  0  0  0
   37.2580   23.5260   37.9660 H   0  0  0  0  0  0  0  0  0  0  0  0
   38.4160   24.7360   38.5060 H   0  0  0  0  0  0  0  0  0  0  0  0
   40.2440   23.7620   37.2830 H   0  0  0  0  0  0  0  0  0  0  0  0
   39.4930   22.6250   38.5050 H   0  0  0  0  0  0  0  0  0  0  0  0
   38.1950   21.5540   36.6640 H   0  0  0  0  0  0  0  0  0  0  0  0
   39.9260   21.4270   36.3400 H   0  0  0  0  0  0  0  0  0  0  0  0
   39.8400   22.8250   34.5750 H   0  0  0  0  0  0  0  0  0  0  0  0
   36.8800   21.6120   35.1420 C   0  0  0  0  0  3  0  0  0  0  0  0
   37.9230   22.0080   34.3270 C   0  0  0  0  0  0  0  0  0  0  0  0
   37.9480   21.5970   33.0120 C   0  0  0  0  0  0  0  0  0  0  0  0
   38.8220   21.9850   32.5030 H   0  0  0  0  0  0  0  0  0  0  0  0
   36.9310   20.7990   32.5340 C   0  0  0  0  0  0  0  0  0  0  0  0
   36.8070   20.3190   31.2950 N   0  0  0  0  0  0  0  0  0  0  0  0
   35.6730   19.5970   31.2790 C   0  0  0  0  0  0  0  0  0  0  0  0
   35.2890   19.0730   30.4110 H   0  0  0  0  0  0  0  0  0  0  0  0
   35.1310   19.6540   32.5100 N   0  0  0  0  0  0  0  0  0  0  0  0
   35.8900   20.4020   33.3440 C   0  0  0  0  0  0  0  0  0  0  0  0
   35.8440   20.8020   34.6640 C   0  0  0  0  0  3  0  0  0  0  0  0
   37.4500   20.4590   30.4690 H   0  0  0  0  0  0  0  0  0  0  0  0
   39.5080   25.0610   33.1750 C   0  0  0  0  0  0  0  0  0  0  0  0
   38.4050   24.9920   34.0180 C   0  0  0  0  0  0  0  0  0  0  0  0
   37.2780   25.7090   33.6500 C   0  0  0  0  0  0  0  0  0  0  0  0
   37.3040   26.4370   32.4970 N   0  0  0  0  0  0  0  0  0  0  0  0
   38.3800   26.4850   31.7050 C   0  0  0  0  0  0  0  0  0  0  0  0
   39.4820   25.7900   32.0530 N   0  0  0  0  0  0  0  0  0  0  0  0
   40.4230   24.5280   33.3980 H   0  0  0  0  0  0  0  0  0  0  0  0
   36.3800   25.7050   34.2460 H   0  0  0  0  0  0  0  0  0  0  0  0
   38.3810   27.2640   30.4890 C   0  0  0  0  0  0  0  0  0  0  0  0
   39.3370   27.0920   29.5360 C   0  0  0  0  0  0  0  0  0  0  0  0
   39.3930   27.7990   28.3610 C   0  0  0  0  0  0  0  0  0  0  0  0
   38.3790   28.7260   28.2110 C   0  0  0  0  0  0  0  0  0  0  0  0
   37.3510   28.9580   29.1590 C   0  0  0  0  0  0  0  0  0  0  0  0
   37.4060   28.1880   30.2900 N   0  0  0  0  0  0  0  0  0  0  0  0
   40.0970   26.3420   29.7360 H   0  0  0  0  0  0  0  0  0  0  0  0
   40.1290   27.6840   27.6030 H   0  0  0  0  0  0  0  0  0  0  0  0
   38.3160   29.3480   27.3200 H   0  0  0  0  0  0  0  0  0  0  0  0
   36.5990   29.6870   28.9810 H   0  0  0  0  0  0  0  0  0  0  0  0
  1  2  1  0  0  0  0
  2  7  1  0  0  0  0
  2  3  1  0  0  0  0
  3  9  1  0  0  0  0
  3 10  1  0  0  0  0
  4  3  1  0  0  0  0
  4 12  1  0  0  0  0
  5 13  1  0  0  0  0
  5  4  1  0  0  0  0
  6 15  1  6  0  0  0
  6  1  1  0  0  0  0
  6  5  1  0  0  0  0
  8  2  1  0  0  0  0
 11  4  1  0  0  0  0
 14  5  1  0  0  0  0
 17  6  1  0  0  0  0
 17 16  2  0  0  0  0
 18 17  1  0  0  0  0
 19 18  1  0  0  0  0
 20 18  2  0  0  0  0
 20 25  1  0  0  0  0
 21 20  1  0  0  0  0
 22 21  1  0  0  0  0
 22 24  2  0  0  0  0
 23 22  1  0  0  0  0
 24 25  1  0  0  0  0
 25 26  2  0  0  0  0
 26 16  1  0  0  0  0
 27 21  1  0  0  0  0
 28 34  1  0  0  0  0
 28 29  1  0  0  0  0
 29  1  1  0  0  0  0
 30 29  2  0  0  0  0
 30 35  1  0  0  0  0
 31 30  1  0  0  0  0
 32 33  1  0  0  0  0
 32 31  2  0  0  0  0
 33 28  2  0  0  0  0
 36 32  1  0  0  0  0
 37 42  1  0  0  0  0
 37 36  2  0  0  0  0
 38 37  1  0  0  0  0
 39 38  2  0  0  0  0
 39 40  1  0  0  0  0
 40 41  2  0  0  0  0
 41 36  1  0  0  0  0
 43 38  1  0  0  0  0
 44 39  1  0  0  0  0
 45 40  1  0  0  0  0
M  END
>  <minimizedAffinity>
-5.90146446

$$$$

 OpenBabel03272504513D

 45 49  0  0  1  0  0  0  0  0999 V2000
   37.8600   22.8840   31.6300 N   0  0  0  0  0  0  0  0  0  0  0  0
   38.5510   22.6660   30.3750 C   0  0  0  0  0  0  0  0  0  0  0  0
   38.9000   21.2350   30.1190 C   0  0  0  0  0  0  0  0  0  0  0  0
   37.8230   20.3170   30.6670 C   0  0  0  0  0  0  0  0  0  0  0  0
   37.8390   20.4740   32.1560 C   0  0  0  0  0  0  0  0  0  0  0  0
   37.5700   21.8800   32.5980 C   0  0  1  0  0  0  0  0  0  0  0  0
   37.8870   23.0400   29.5510 H   0  0  0  0  0  0  0  0  0  0  0  0
   39.4960   23.2480   30.4050 H   0  0  0  0  0  0  0  0  0  0  0  0
   39.9180   20.9440   30.4100 H   0  0  0  0  0  0  0  0  0  0  0  0
   38.8710   21.0860   29.0030 H   0  0  0  0  0  0  0  0  0  0  0  0
   36.8610   20.6790   30.2600 H   0  0  0  0  0  0  0  0  0  0  0  0
   38.0710   19.3070   30.3470 H   0  0  0  0  0  0  0  0  0  0  0  0
   38.8270   20.1580   32.5670 H   0  0  0  0  0  0  0  0  0  0  0  0
   37.1050   19.7750   32.6190 H   0  0  0  0  0  0  0  0  0  0  0  0
   36.4880   21.9300   32.8430 H   0  0  0  0  0  0  0  0  0  0  0  0
   39.6540   21.8870   33.6760 C   0  0  0  0  0  3  0  0  0  0  0  0
   38.3030   22.0900   33.8840 C   0  0  0  0  0  0  0  0  0  0  0  0
   37.8550   22.4250   35.1430 C   0  0  0  0  0  0  0  0  0  0  0  0
   36.7790   22.5510   35.1480 H   0  0  0  0  0  0  0  0  0  0  0  0
   38.7620   22.5510   36.1720 C   0  0  0  0  0  0  0  0  0  0  0  0
   38.4940   22.8670   37.4410 N   0  0  0  0  0  0  0  0  0  0  0  0
   39.6720   22.8750   38.0880 C   0  0  0  0  0  0  0  0  0  0  0  0
   39.7940   23.0980   39.1420 H   0  0  0  0  0  0  0  0  0  0  0  0
   40.6330   22.5650   37.1980 N   0  0  0  0  0  0  0  0  0  0  0  0
   40.1100   22.3480   35.9690 C   0  0  0  0  0  0  0  0  0  0  0  0
   40.5810   22.0130   34.7170 C   0  0  0  0  0  3  0  0  0  0  0  0
   37.5570   23.0750   37.8810 H   0  0  0  0  0  0  0  0  0  0  0  0
   38.3360   25.1490   32.4200 C   0  0  0  0  0  0  0  0  0  0  0  0
   37.4460   24.2200   31.8940 C   0  0  0  0  0  0  0  0  0  0  0  0
   36.1530   24.6520   31.6420 C   0  0  0  0  0  0  0  0  0  0  0  0
   35.8210   25.9460   31.9180 N   0  0  0  0  0  0  0  0  0  0  0  0
   36.6990   26.8160   32.4250 C   0  0  0  0  0  0  0  0  0  0  0  0
   37.9600   26.4080   32.6730 N   0  0  0  0  0  0  0  0  0  0  0  0
   39.3610   24.8840   32.6430 H   0  0  0  0  0  0  0  0  0  0  0  0
   35.4030   23.9960   31.2300 H   0  0  0  0  0  0  0  0  0  0  0  0
   36.3220   28.1820   32.7080 C   0  0  0  0  0  0  0  0  0  0  0  0
   36.0310   28.5910   33.9730 C   0  0  0  0  0  0  0  0  0  0  0  0
   35.6680   29.8710   34.3060 C   0  0  0  0  0  0  0  0  0  0  0  0
   35.6170   30.7410   33.2330 C   0  0  0  0  0  0  0  0  0  0  0  0
   35.9070   30.3870   31.8920 C   0  0  0  0  0  0  0  0  0  0  0  0
   36.2570   29.0790   31.6900 N   0  0  0  0  0  0  0  0  0  0  0  0
   36.0970   27.8410   34.7560 H   0  0  0  0  0  0  0  0  0  0  0  0
   35.4360   30.2150   35.2840 H   0  0  0  0  0  0  0  0  0  0  0  0
   35.3420   31.7860   33.3710 H   0  0  0  0  0  0  0  0  0  0  0  0
   35.8490   31.1060   31.1130 H   0  0  0  0  0  0  0  0  0  0  0  0
  1 29  1  0  0  0  0
  1  6  1  0  0  0  0
  2  8  1  0  0  0  0
  2  1  1  0  0  0  0
  3  2  1  0  0  0  0
  3  9  1  0  0  0  0
  3  4  1  0  0  0  0
  4  5  1  0  0  0  0
  5 13  1  0  0  0  0
  5  6  1  0  0  0  0
  5 14  1  0  0  0  0
  6 15  1  1  0  0  0
  6 17  1  0  0  0  0
  7  2  1  0  0  0  0
 10  3  1  0  0  0  0
 11  4  1  0  0  0  0
 12  4  1  0  0  0  0
 16 17  2  0  0  0  0
 16 26  1  0  0  0  0
 17 18  1  0  0  0  0
 18 19  1  0  0  0  0
 18 20  2  0  0  0  0
 20 21  1  0  0  0  0
 21 27  1  0  0  0  0
 21 22  1  0  0  0  0
 22 23  1  0  0  0  0
 24 22  2  0  0  0  0
 25 20  1  0  0  0  0
 25 24  1  0  0  0  0
 26 25  2  0  0  0  0
 28 34  1  0  0  0  0
 28 33  1  0  0  0  0
 29 28  2  0  0  0  0
 30 29  1  0  0  0  0
 30 31  2  0  0  0  0
 31 32  1  0  0  0  0
 32 33  2  0  0  0  0
 32 36  1  0  0  0  0
 35 30  1  0  0  0  0
 36 37  1  0  0  0  0
 37 38  2  0  0  0  0
 37 42  1  0  0  0  0
 38 43  1  0  0  0  0
 39 44  1  0  0  0  0
 39 38  1  0  0  0  0
 40 39  2  0  0  0  0
 41 40  1  0  0  0  0
 41 36  2  0  0  0  0
 45 40  1  0  0  0  0
M  END
>  <minimizedAffinity>
-5.76712132

$$$$

 OpenBabel03272504513D

 45 49  0  0  1  0  0  0  0  0999 V2000
   36.7950   26.8280   31.8260 N   0  0  0  0  0  0  0  0  0  0  0  0
   36.0680   25.5840   31.6740 C   0  0  0  0  0  0  0  0  0  0  0  0
   36.7590   24.5820   30.8060 C   0  0  0  0  0  0  0  0  0  0  0  0
   38.2640   24.6710   30.9830 C   0  0  0  0  0  0  0  0  0  0  0  0
   38.6810   26.0120   30.4610 C   0  0  0  0  0  0  0  0  0  0  0  0
   38.0250   27.1490   31.1820 C   0  0  1  0  0  0  0  0  0  0  0  0
   35.9190   25.1490   32.6980 H   0  0  0  0  0  0  0  0  0  0  0  0
   35.0870   25.8210   31.2090 H   0  0  0  0  0  0  0  0  0  0  0  0
   36.4380   24.5760   29.7560 H   0  0  0  0  0  0  0  0  0  0  0  0
   36.4780   23.5640   31.1950 H   0  0  0  0  0  0  0  0  0  0  0  0
   38.4590   24.6120   32.0690 H   0  0  0  0  0  0  0  0  0  0  0  0
   38.7000   23.8470   30.4240 H   0  0  0  0  0  0  0  0  0  0  0  0
   38.4390   26.0950   29.3750 H   0  0  0  0  0  0  0  0  0  0  0  0
   39.7900   26.1090   30.5110 H   0  0  0  0  0  0  0  0  0  0  0  0
   38.7470   27.4900   31.9540 H   0  0  0  0  0  0  0  0  0  0  0  0
   38.6500   28.0010   29.0870 C   0  0  0  0  0  3  0  0  0  0  0  0
   37.8880   28.2740   30.2070 C   0  0  0  0  0  0  0  0  0  0  0  0
   37.1720   29.4500   30.2690 C   0  0  0  0  0  0  0  0  0  0  0  0
   36.6280   29.5210   31.2030 H   0  0  0  0  0  0  0  0  0  0  0  0
   37.2300   30.3320   29.2120 C   0  0  0  0  0  0  0  0  0  0  0  0
   36.6010   31.5050   29.1150 N   0  0  0  0  0  0  0  0  0  0  0  0
   36.9440   32.0230   27.9220 C   0  0  0  0  0  0  0  0  0  0  0  0
   36.5950   32.9760   27.5420 H   0  0  0  0  0  0  0  0  0  0  0  0
   37.7730   31.1520   27.3180 N   0  0  0  0  0  0  0  0  0  0  0  0
   37.9890   30.0640   28.0940 C   0  0  0  0  0  0  0  0  0  0  0  0
   38.7130   28.8930   28.0100 C   0  0  0  0  0  3  0  0  0  0  0  0
   35.9570   31.9650   29.8140 H   0  0  0  0  0  0  0  0  0  0  0  0
   36.8160   28.1130   33.9070 C   0  0  0  0  0  0  0  0  0  0  0  0
   36.2130   27.7930   32.6950 C   0  0  0  0  0  0  0  0  0  0  0  0
   35.0340   28.4500   32.3800 C   0  0  0  0  0  0  0  0  0  0  0  0
   34.5290   29.3630   33.2570 N   0  0  0  0  0  0  0  0  0  0  0  0
   35.1310   29.6510   34.4150 C   0  0  0  0  0  0  0  0  0  0  0  0
   36.2790   29.0180   34.7340 N   0  0  0  0  0  0  0  0  0  0  0  0
   37.7370   27.6410   34.2200 H   0  0  0  0  0  0  0  0  0  0  0  0
   34.5070   28.2630   31.4590 H   0  0  0  0  0  0  0  0  0  0  0  0
   34.5750   30.6230   35.3280 C   0  0  0  0  0  0  0  0  0  0  0  0
   33.2340   30.7230   35.5300 C   0  0  0  0  0  0  0  0  0  0  0  0
   32.6460   31.6230   36.3820 C   0  0  0  0  0  0  0  0  0  0  0  0
   33.5410   32.4460   37.0400 C   0  0  0  0  0  0  0  0  0  0  0  0
   34.9490   32.3980   36.8800 C   0  0  0  0  0  0  0  0  0  0  0  0
   35.4110   31.4560   36.0020 N   0  0  0  0  0  0  0  0  0  0  0  0
   32.6030   30.0370   34.9720 H   0  0  0  0  0  0  0  0  0  0  0  0
   31.6020   31.7220   36.5560 H   0  0  0  0  0  0  0  0  0  0  0  0
   33.1950   33.2020   37.7430 H   0  0  0  0  0  0  0  0  0  0  0  0
   35.5810   33.0610   37.4180 H   0  0  0  0  0  0  0  0  0  0  0  0
  1 29  1  0  0  0  0
  2  1  1  0  0  0  0
  2  7  1  0  0  0  0
  3  4  1  0  0  0  0
  3 10  1  0  0  0  0
  3  2  1  0  0  0  0
  4 11  1  0  0  0  0
  5 14  1  0  0  0  0
  5  4  1  0  0  0  0
  5  6  1  0  0  0  0
  6  1  1  0  0  0  0
  6 15  1  1  0  0  0
  8  2  1  0  0  0  0
  9  3  1  0  0  0  0
 12  4  1  0  0  0  0
 13  5  1  0  0  0  0
 16 17  1  0  0  0  0
 17 18  2  0  0  0  0
 17  6  1  0  0  0  0
 18 19  1  0  0  0  0
 20 18  1  0  0  0  0
 21 20  1  0  0  0  0
 21 27  1  0  0  0  0
 22 21  1  0  0  0  0
 23 22  1  0  0  0  0
 24 22  2  0  0  0  0
 24 25  1  0  0  0  0
 25 20  2  0  0  0  0
 26 25  1  0  0  0  0
 26 16  2  0  0  0  0
 28 34  1  0  0  0  0
 28 33  1  0  0  0  0
 29 28  2  0  0  0  0
 30 29  1  0  0  0  0
 30 31  2  0  0  0  0
 31 32  1  0  0  0  0
 32 33  2  0  0  0  0
 32 36  1  0  0  0  0
 35 30  1  0  0  0  0
 36 37  2  0  0  0  0
 36 41  1  0  0  0  0
 37 38  1  0  0  0  0
 38 43  1  0  0  0  0
 38 39  2  0  0  0  0
 39 44  1  0  0  0  0
 40 39  1  0  0  0  0
 40 45  1  0  0  0  0
 41 40  2  0  0  0  0
 42 37  1  0  0  0  0
M  END
>  <minimizedAffinity>
-5.74662209

$$$$

 OpenBabel03272504513D

 45 49  0  0  1  0  0  0  0  0999 V2000
   35.8560   28.4210   32.2590 N   0  0  0  0  0  0  0  0  0  0  0  0
   35.9970   28.8180   33.6460 C   0  0  0  0  0  0  0  0  0  0  0  0
   35.7300   30.2690   33.8890 C   0  0  0  0  0  0  0  0  0  0  0  0
   34.6330   30.7710   32.9680 C   0  0  0  0  0  0  0  0  0  0  0  0
   35.1700   30.6880   31.5720 C   0  0  0  0  0  0  0  0  0  0  0  0
   35.5570   29.2970   31.1760 C   0  0  1  0  0  0  0  0  0  0  0  0
   35.2800   28.2020   34.2520 H   0  0  0  0  0  0  0  0  0  0  0  0
   37.0430   28.6070   33.9530 H   0  0  0  0  0  0  0  0  0  0  0  0
   36.6210   30.9100   33.9040 H   0  0  0  0  0  0  0  0  0  0  0  0
   35.3020   30.3530   34.9270 H   0  0  0  0  0  0  0  0  0  0  0  0
   33.7800   30.0780   33.0850 H   0  0  0  0  0  0  0  0  0  0  0  0
   34.4020   31.7890   33.2710 H   0  0  0  0  0  0  0  0  0  0  0  0
   36.0640   31.3480   31.4630 H   0  0  0  0  0  0  0  0  0  0  0  0
   34.4250   31.1030   30.8550 H   0  0  0  0  0  0  0  0  0  0  0  0
   34.6950   28.8790   30.6150 H   0  0  0  0  0  0  0  0  0  0  0  0
   37.2150   30.6830   30.2620 C   0  0  0  0  0  3  0  0  0  0  0  0
   36.6830   29.4090   30.1980 C   0  0  0  0  0  0  0  0  0  0  0  0
   37.2140   28.4960   29.3130 C   0  0  0  0  0  0  0  0  0  0  0  0
   36.6940   27.5480   29.3790 H   0  0  0  0  0  0  0  0  0  0  0  0
   38.2660   28.8710   28.5070 C   0  0  0  0  0  0  0  0  0  0  0  0
   38.8900   28.1130   27.6030 N   0  0  0  0  0  0  0  0  0  0  0  0
   39.8470   28.8820   27.0560 C   0  0  0  0  0  0  0  0  0  0  0  0
   40.5330   28.5550   26.2830 H   0  0  0  0  0  0  0  0  0  0  0  0
   39.7850   30.0930   27.6410 N   0  0  0  0  0  0  0  0  0  0  0  0
   38.8000   30.1400   28.5670 C   0  0  0  0  0  0  0  0  0  0  0  0
   38.2850   31.0700   29.4460 C   0  0  0  0  0  3  0  0  0  0  0  0
   38.6970   27.1070   27.3440 H   0  0  0  0  0  0  0  0  0  0  0  0
   37.1690   26.3640   32.4250 C   0  0  0  0  0  0  0  0  0  0  0  0
   36.0350   27.0360   31.9820 C   0  0  0  0  0  0  0  0  0  0  0  0
   35.1010   26.3030   31.2670 C   0  0  0  0  0  0  0  0  0  0  0  0
   35.3340   24.9800   31.0360 N   0  0  0  0  0  0  0  0  0  0  0  0
   36.4340   24.3600   31.4740 C   0  0  0  0  0  0  0  0  0  0  0  0
   37.3500   25.0630   32.1710 N   0  0  0  0  0  0  0  0  0  0  0  0
   37.9410   26.8710   32.9890 H   0  0  0  0  0  0  0  0  0  0  0  0
   34.1940   26.7480   30.8930 H   0  0  0  0  0  0  0  0  0  0  0  0
   36.6570   22.9560   31.2150 C   0  0  0  0  0  0  0  0  0  0  0  0
   35.6670   22.0370   31.3810 C   0  0  0  0  0  0  0  0  0  0  0  0
   35.8160   20.6920   31.1520 C   0  0  0  0  0  0  0  0  0  0  0  0
   37.0800   20.3280   30.7290 C   0  0  0  0  0  0  0  0  0  0  0  0
   38.1570   21.2290   30.5340 C   0  0  0  0  0  0  0  0  0  0  0  0
   37.8810   22.5440   30.7960 N   0  0  0  0  0  0  0  0  0  0  0  0
   34.7050   22.4110   31.7170 H   0  0  0  0  0  0  0  0  0  0  0  0
   35.0600   19.9550   31.2750 H   0  0  0  0  0  0  0  0  0  0  0  0
   37.3210   19.2880   30.5140 H   0  0  0  0  0  0  0  0  0  0  0  0
   39.1060   20.8820   30.2060 H   0  0  0  0  0  0  0  0  0  0  0  0
  1  2  1  0  0  0  0
  2  3  1  0  0  0  0
  2  8  1  0  0  0  0
  2  7  1  0  0  0  0
  3  9  1  0  0  0  0
  3 10  1  0  0  0  0
  4 11  1  0  0  0  0
  4 12  1  0  0  0  0
  4  3  1  0  0  0  0
  5  4  1  0  0  0  0
  6 15  1  6  0  0  0
  6  5  1  0  0  0  0
  6  1  1  0  0  0  0
 13  5  1  0  0  0  0
 14  5  1  0  0  0  0
 17 16  1  0  0  0  0
 17  6  1  0  0  0  0
 18 19  1  0  0  0  0
 18 17  2  0  0  0  0
 20 25  2  0  0  0  0
 20 18  1  0  0  0  0
 21 20  1  0  0  0  0
 22 21  1  0  0  0  0
 22 24  2  0  0  0  0
 23 22  1  0  0  0  0
 24 25  1  0  0  0  0
 25 26  1  0  0  0  0
 26 16  2  0  0  0  0
 27 21  1  0  0  0  0
 28 34  1  0  0  0  0
 29  1  1  0  0  0  0
 29 28  2  0  0  0  0
 30 29  1  0  0  0  0
 31 30  2  0  0  0  0
 31 32  1  0  0  0  0
 32 33  2  0  0  0  0
 33 28  1  0  0  0  0
 35 30  1  0  0  0  0
 36 37  1  0  0  0  0
 36 32  1  0  0  0  0
 37 42  1  0  0  0  0
 38 43  1  0  0  0  0
 38 37  2  0  0  0  0
 39 38  1  0  0  0  0
 40 39  2  0  0  0  0
 40 41  1  0  0  0  0
 41 36  2  0  0  0  0
 44 39  1  0  0  0  0
 45 40  1  0  0  0  0
M  END
>  <minimizedAffinity>
-5.68431425

$$$$
