
 OpenBabel03272509213D

 49 54  0  0  0  0  0  0  0  0999 V2000
   40.1050   31.0210   44.0990 C   0  0  0  0  0  0  0  0  0  0  0  0
   39.5280   31.8580   45.0430 C   0  0  0  0  0  0  0  0  0  0  0  0
   38.4570   32.6450   44.6560 C   0  0  0  0  0  0  0  0  0  0  0  0
   37.9560   32.6110   43.3510 C   0  0  0  0  0  0  0  0  0  0  0  0
   36.9610   33.2340   42.6900 N   0  0  0  0  0  0  0  0  0  0  0  0
   36.9150   32.8160   41.4130 C   0  0  0  0  0  0  0  0  0  0  0  0
   37.9130   31.8980   41.2590 N   0  0  0  0  0  0  0  0  0  0  0  0
   38.5570   31.7660   42.4460 C   0  0  0  0  0  0  0  0  0  0  0  0
   39.6190   30.9800   42.8130 C   0  0  0  0  0  0  0  0  0  0  0  0
   40.9300   30.4500   44.4950 H   0  0  0  0  0  0  0  0  0  0  0  0
   37.9050   33.3470   45.2820 H   0  0  0  0  0  0  0  0  0  0  0  0
   36.3170   33.9410   43.1080 H   0  0  0  0  0  0  0  0  0  0  0  0
   36.2190   33.1470   40.6610 H   0  0  0  0  0  0  0  0  0  0  0  0
   40.1170   28.7250   41.8170 C   0  0  0  0  0  3  0  0  0  0  0  0
   40.2750   30.0750   41.8720 C   0  0  0  0  0  0  0  0  0  0  0  0
   41.1240   30.6890   40.9740 C   0  0  0  0  0  0  0  0  0  0  0  0
   41.3040   31.7730   40.9550 H   0  0  0  0  0  0  0  0  0  0  0  0
   41.7960   29.9200   40.0390 C   0  0  0  0  0  0  0  0  0  0  0  0
   42.6650   30.2440   39.0640 N   0  0  0  0  0  0  0  0  0  0  0  0
   43.0410   29.1060   38.4150 C   0  0  0  0  0  0  0  0  0  0  0  0
   43.7200   28.9640   37.5820 H   0  0  0  0  0  0  0  0  0  0  0  0
   42.4050   28.0360   38.9760 N   0  0  0  0  0  0  0  0  0  0  0  0
   41.6450   28.5340   39.9690 C   0  0  0  0  0  0  0  0  0  0  0  0
   40.7790   27.9370   40.8900 C   0  0  0  0  0  3  0  0  0  0  0  0
   43.0210   31.2040   38.8150 H   0  0  0  0  0  0  0  0  0  0  0  0
   39.8450   32.0540   46.3550 O   0  0  0  0  0  0  0  0  0  0  0  0
   37.9990   31.2420   47.6980 C   0  0  0  0  0  0  0  0  0  0  0  0
   37.1050   31.2890   48.7540 C   0  0  0  0  0  0  0  0  0  0  0  0
   37.2680   32.3940   49.5950 C   0  0  0  0  0  0  0  0  0  0  0  0
   38.2560   33.3590   49.3690 C   0  0  0  0  0  0  0  0  0  0  0  0
   39.1180   33.2170   48.2590 C   0  0  0  0  0  0  0  0  0  0  0  0
   38.9680   32.1210   47.4130 C   0  0  0  0  0  0  0  0  0  0  0  0
   36.5900   32.4770   50.4410 H   0  0  0  0  0  0  0  0  0  0  0  0
   38.3550   34.1990   50.0370 H   0  0  0  0  0  0  0  0  0  0  0  0
   39.8740   33.9650   48.0950 H   0  0  0  0  0  0  0  0  0  0  0  0
   34.9210   30.3260   48.2530 C   0  0  0  0  0  0  0  0  0  0  0  0
   36.0980   30.3110   48.9910 C   0  0  0  0  0  0  0  0  0  0  0  0
   36.2380   29.3040   49.9610 C   0  0  0  0  0  0  0  0  0  0  0  0
   35.2310   28.4090   50.1260 N   0  0  0  0  0  0  0  0  0  0  0  0
   34.0970   28.4670   49.3770 C   0  0  0  0  0  0  0  0  0  0  0  0
   33.9520   29.4200   48.4510 N   0  0  0  0  0  0  0  0  0  0  0  0
   34.7140   31.0560   47.4850 H   0  0  0  0  0  0  0  0  0  0  0  0
   33.4220   27.6620   49.6670 H   0  0  0  0  0  0  0  0  0  0  0  0
   37.4760   29.2370   50.7840 C   0  0  0  0  0  0  0  0  0  0  0  0
   38.2780   28.6810   50.2580 H   0  0  0  0  0  0  0  0  0  0  0  0
   37.2580   28.7180   51.7410 H   0  0  0  0  0  0  0  0  0  0  0  0
   37.7600   30.2640   51.0520 H   0  0  0  0  0  0  0  0  0  0  0  0
   37.9140   30.1730   46.8020 O   0  0  0  0  0  0  0  0  0  0  0  0
   38.7000   29.5670   46.7400 H   0  0  0  0  0  0  0  0  0  0  0  0
  1 10  1  0  0  0  0
  1  2  1  0  0  0  0
  2 26  1  0  0  0  0
  3  2  2  0  0  0  0
  3 11  1  0  0  0  0
  4  3  1  0  0  0  0
  5 12  1  0  0  0  0
  5  4  1  0  0  0  0
  6  5  1  0  0  0  0
  7  6  2  0  0  0  0
  7  8  1  0  0  0  0
  8  9  1  0  0  0  0
  8  4  2  0  0  0  0
  9  1  2  0  0  0  0
 13  6  1  0  0  0  0
 14 15  1  0  0  0  0
 15  9  1  0  0  0  0
 16 15  2  0  0  0  0
 17 16  1  0  0  0  0
 18 16  1  0  0  0  0
 19 18  1  0  0  0  0
 20 22  2  0  0  0  0
 20 19  1  0  0  0  0
 21 20  1  0  0  0  0
 22 23  1  0  0  0  0
 23 18  2  0  0  0  0
 23 24  1  0  0  0  0
 24 14  2  0  0  0  0
 25 19  1  0  0  0  0
 26 32  1  0  0  0  0
 27 28  1  0  0  0  0
 28 37  1  0  0  0  0
 28 29  2  0  0  0  0
 29 33  1  0  0  0  0
 30 29  1  0  0  0  0
 30 34  1  0  0  0  0
 31 30  2  0  0  0  0
 32 27  2  0  0  0  0
 32 31  1  0  0  0  0
 35 31  1  0  0  0  0
 36 41  2  0  0  0  0
 36 37  1  0  0  0  0
 37 38  2  0  0  0  0
 38 39  1  0  0  0  0
 38 44  1  0  0  0  0
 40 43  1  0  0  0  0
 40 39  2  0  0  0  0
 41 40  1  0  0  0  0
 42 36  1  0  0  0  0
 44 47  1  0  0  0  0
 44 46  1  0  0  0  0
 45 44  1  0  0  0  0
 48 27  1  0  0  0  0
 49 48  1  0  0  0  0
M  END
>  <minimizedAffinity>
-7.8823452

>  <minimizedRMSD>
0.601739347

$$$$
