
 OpenBabel03272507203D

 33 36  0  0  1  0  0  0  0  0999 V2000
   37.3250   31.2320   49.4600 C   0  0  0  0  0  0  0  0  0  0  0  0
   38.3220   32.1920   49.5240 C   0  0  0  0  0  0  0  0  0  0  0  0
   38.8020   32.6130   48.2640 C   0  0  0  0  0  0  0  0  0  0  0  0
   38.2970   32.0910   47.1090 N   0  0  0  0  0  0  0  0  0  0  0  0
   37.3170   31.1510   47.1030 C   0  0  0  0  0  0  0  0  0  0  0  0
   36.8270   30.7180   48.3090 N   0  0  0  0  0  0  0  0  0  0  0  0
   38.6980   32.5820   50.4500 H   0  0  0  0  0  0  0  0  0  0  0  0
   39.5830   33.3600   48.2220 H   0  0  0  0  0  0  0  0  0  0  0  0
   35.5170   30.0570   45.8920 C   0  0  0  0  0  3  0  0  0  0  0  0
   36.7850   30.6010   45.8580 C   0  0  0  0  0  0  0  0  0  0  0  0
   37.4970   30.6100   44.6750 C   0  0  0  0  0  0  0  0  0  0  0  0
   38.4890   31.0430   44.6810 H   0  0  0  0  0  0  0  0  0  0  0  0
   36.9950   30.0900   43.4990 C   0  0  0  0  0  0  0  0  0  0  0  0
   37.4610   29.9720   42.2420 N   0  0  0  0  0  0  0  0  0  0  0  0
   36.4900   29.3690   41.5350 C   0  0  0  0  0  0  0  0  0  0  0  0
   36.6850   29.1830   40.4770 H   0  0  0  0  0  0  0  0  0  0  0  0
   35.4280   29.1080   42.3260 N   0  0  0  0  0  0  0  0  0  0  0  0
   35.7170   29.5490   43.5650 C   0  0  0  0  0  0  0  0  0  0  0  0
   34.9830   29.5280   44.7330 C   0  0  0  0  0  3  0  0  0  0  0  0
   38.4160   30.3230   41.9830 H   0  0  0  0  0  0  0  0  0  0  0  0
   36.7720   30.7790   50.7760 C   0  0  1  0  0  0  0  0  0  0  0  0
   36.0450   29.5180   50.9170 C   0  0  2  0  0  0  0  0  0  0  0  0
   37.4910   29.5290   51.3150 C   0  0  0  0  0  0  0  0  0  0  0  0
   36.6920   31.6260   51.4970 H   0  0  0  0  0  0  0  0  0  0  0  0
   35.2150   29.5810   51.6810 H   0  0  0  0  0  0  0  0  0  0  0  0
   38.1820   28.9850   50.6360 H   0  0  0  0  0  0  0  0  0  0  0  0
   37.7820   29.6090   52.3680 H   0  0  0  0  0  0  0  0  0  0  0  0
   35.6670   28.8690   49.7500 O   0  0  0  0  0  0  0  0  0  0  0  0
   34.4460   28.4490   49.3430 C   0  0  0  0  0  0  0  0  0  0  0  0
   34.2980   27.4800   48.5650 O   0  0  0  0  0  0  0  0  0  0  0  0
   33.4840   29.2700   49.9320 N   0  0  0  0  0  0  0  0  0  0  0  0
   33.2160   28.6610   50.7600 H   0  0  0  0  0  0  0  0  0  0  0  0
   33.3770   30.1620   49.3660 H   0  0  0  0  0  0  0  0  0  0  0  0
  1  2  1  0  0  0  0
  1 21  1  0  0  0  0
  2  7  1  0  0  0  0
  3  2  2  0  0  0  0
  4  3  1  0  0  0  0
  5  4  2  0  0  0  0
  5  6  1  0  0  0  0
  6  1  2  0  0  0  0
  8  3  1  0  0  0  0
 10  9  1  0  0  0  0
 10  5  1  0  0  0  0
 11 12  1  0  0  0  0
 11 10  2  0  0  0  0
 13 18  2  0  0  0  0
 13 11  1  0  0  0  0
 14 13  1  0  0  0  0
 15 14  1  0  0  0  0
 15 17  2  0  0  0  0
 16 15  1  0  0  0  0
 17 18  1  0  0  0  0
 18 19  1  0  0  0  0
 19  9  2  0  0  0  0
 20 14  1  0  0  0  0
 21 22  1  0  0  0  0
 21 23  1  0  0  0  0
 21 24  1  1  0  0  0
 22 23  1  0  0  0  0
 22 25  1  1  0  0  0
 23 27  1  0  0  0  0
 26 23  1  0  0  0  0
 28 22  1  0  0  0  0
 29 28  1  0  0  0  0
 29 31  1  0  0  0  0
 30 29  2  0  0  0  0
 31 32  1  0  0  0  0
 33 31  1  0  0  0  0
M  END
>  <minimizedAffinity>
-5.68094826

>  <minimizedRMSD>
0.124838427

$$$$
