
 OpenBabel03272507203D

 33 36  0  0  1  0  0  0  0  0999 V2000
   37.3300   31.2210   49.5300 C   0  0  0  0  0  0  0  0  0  0  0  0
   38.3290   32.1780   49.6140 C   0  0  0  0  0  0  0  0  0  0  0  0
   38.8120   32.6220   48.3630 C   0  0  0  0  0  0  0  0  0  0  0  0
   38.3090   32.1210   47.1980 N   0  0  0  0  0  0  0  0  0  0  0  0
   37.3280   31.1830   47.1720 C   0  0  0  0  0  0  0  0  0  0  0  0
   36.8350   30.7280   48.3690 N   0  0  0  0  0  0  0  0  0  0  0  0
   38.7030   32.5510   50.5480 H   0  0  0  0  0  0  0  0  0  0  0  0
   39.5940   33.3680   48.3360 H   0  0  0  0  0  0  0  0  0  0  0  0
   35.5530   30.0640   45.9490 C   0  0  0  0  0  3  0  0  0  0  0  0
   36.7980   30.6560   45.9160 C   0  0  0  0  0  0  0  0  0  0  0  0
   37.4930   30.7320   44.7250 C   0  0  0  0  0  0  0  0  0  0  0  0
   38.4680   31.2020   44.7320 H   0  0  0  0  0  0  0  0  0  0  0  0
   36.9920   30.2350   43.5380 C   0  0  0  0  0  0  0  0  0  0  0  0
   37.4440   30.1780   42.2720 N   0  0  0  0  0  0  0  0  0  0  0  0
   36.4850   29.5630   41.5570 C   0  0  0  0  0  0  0  0  0  0  0  0
   36.6710   29.4210   40.4910 H   0  0  0  0  0  0  0  0  0  0  0  0
   35.4450   29.2350   42.3540 N   0  0  0  0  0  0  0  0  0  0  0  0
   35.7360   29.6440   43.6020 C   0  0  0  0  0  0  0  0  0  0  0  0
   35.0210   29.5560   44.7790 C   0  0  0  0  0  3  0  0  0  0  0  0
   38.3810   30.5720   42.0110 H   0  0  0  0  0  0  0  0  0  0  0  0
   36.7740   30.7440   50.8360 C   0  0  1  0  0  0  0  0  0  0  0  0
   36.0440   29.4820   50.9530 C   0  0  2  0  0  0  0  0  0  0  0  0
   37.4890   29.4820   51.3530 C   0  0  0  0  0  0  0  0  0  0  0  0
   36.6950   31.5770   51.5740 H   0  0  0  0  0  0  0  0  0  0  0  0
   35.2120   29.5330   51.7150 H   0  0  0  0  0  0  0  0  0  0  0  0
   38.1800   28.9480   50.6650 H   0  0  0  0  0  0  0  0  0  0  0  0
   37.7780   29.5410   52.4070 H   0  0  0  0  0  0  0  0  0  0  0  0
   35.6660   28.8570   49.7730 O   0  0  0  0  0  0  0  0  0  0  0  0
   34.4440   28.4510   49.3530 C   0  0  0  0  0  0  0  0  0  0  0  0
   34.2930   27.4860   48.5720 O   0  0  0  0  0  0  0  0  0  0  0  0
   33.4850   29.2800   49.9380 N   0  0  0  0  0  0  0  0  0  0  0  0
   33.2040   28.6720   50.7620 H   0  0  0  0  0  0  0  0  0  0  0  0
   33.3920   30.1740   49.3730 H   0  0  0  0  0  0  0  0  0  0  0  0
  1  2  1  0  0  0  0
  1 21  1  0  0  0  0
  2  7  1  0  0  0  0
  3  2  2  0  0  0  0
  4  3  1  0  0  0  0
  5  4  2  0  0  0  0
  5  6  1  0  0  0  0
  6  1  2  0  0  0  0
  8  3  1  0  0  0  0
 10  9  1  0  0  0  0
 10  5  1  0  0  0  0
 11 12  1  0  0  0  0
 11 10  2  0  0  0  0
 13 18  2  0  0  0  0
 13 11  1  0  0  0  0
 14 13  1  0  0  0  0
 15 14  1  0  0  0  0
 15 17  2  0  0  0  0
 16 15  1  0  0  0  0
 17 18  1  0  0  0  0
 18 19  1  0  0  0  0
 19  9  2  0  0  0  0
 20 14  1  0  0  0  0
 21 22  1  0  0  0  0
 21 23  1  0  0  0  0
 21 24  1  1  0  0  0
 22 23  1  0  0  0  0
 22 25  1  1  0  0  0
 23 27  1  0  0  0  0
 26 23  1  0  0  0  0
 28 22  1  0  0  0  0
 29 28  1  0  0  0  0
 29 31  1  0  0  0  0
 30 29  2  0  0  0  0
 31 32  1  0  0  0  0
 33 31  1  0  0  0  0
M  END
>  <minimizedAffinity>
-5.67450094

>  <minimizedRMSD>
0.276987612

$$$$
