
 OpenBabel03272504033D

 44 48  0  0  0  0  0  0  0  0999 V2000
   34.2140   28.7170   48.6070 C   0  0  0  0  0  0  0  0  0  0  0  0
   35.0200   27.9490   48.6990 H   0  0  0  0  0  0  0  0  0  0  0  0
   33.2800   28.1390   48.8170 H   0  0  0  0  0  0  0  0  0  0  0  0
   34.0820   29.2610   47.2830 C   0  0  0  0  0  0  0  0  0  0  0  0
   32.8300   29.4080   46.7340 C   0  0  0  0  0  0  0  0  0  0  0  0
   32.6920   29.9450   45.4300 C   0  0  0  0  0  0  0  0  0  0  0  0
   33.8610   30.2880   44.7890 N   0  0  0  0  0  0  0  0  0  0  0  0
   35.0640   30.1190   45.3830 C   0  0  0  0  0  0  0  0  0  0  0  0
   35.1840   29.6090   46.6220 N   0  0  0  0  0  0  0  0  0  0  0  0
   31.9450   29.1240   47.2760 H   0  0  0  0  0  0  0  0  0  0  0  0
   31.7440   30.0760   44.9660 H   0  0  0  0  0  0  0  0  0  0  0  0
   36.2080   31.3870   43.6000 C   0  0  0  0  0  0  0  0  0  0  0  0
   36.2720   30.5020   44.6570 C   0  0  0  0  0  0  0  0  0  0  0  0
   37.5180   30.0350   44.9510 C   0  0  0  0  0  0  0  0  0  0  0  0
   37.6510   29.3390   45.7640 H   0  0  0  0  0  0  0  0  0  0  0  0
   38.6410   30.4150   44.2450 C   0  0  0  0  0  0  0  0  0  0  0  0
   39.9590   30.1560   44.2720 N   0  0  0  0  0  0  0  0  0  0  0  0
   40.6130   30.8330   43.3100 C   0  0  0  0  0  0  0  0  0  0  0  0
   41.6800   30.8010   43.1160 H   0  0  0  0  0  0  0  0  0  0  0  0
   39.7150   31.5630   42.6230 N   0  0  0  0  0  0  0  0  0  0  0  0
   38.5030   31.3140   43.1880 C   0  0  0  0  0  0  0  0  0  0  0  0
   37.2630   31.8310   42.8320 C   0  0  0  0  0  0  0  0  0  0  0  0
   40.4010   29.5060   44.9630 H   0  0  0  0  0  0  0  0  0  0  0  0
   34.3890   29.6490   49.7450 C   0  0  0  0  0  0  0  0  0  0  0  0
   34.0510   29.2210   50.6840 H   0  0  0  0  0  0  0  0  0  0  0  0
   33.6970   30.5230   49.5540 H   0  0  0  0  0  0  0  0  0  0  0  0
   35.7370   30.2400   49.8240 C   0  0  0  0  0  0  0  0  0  0  0  0
   36.6310   29.9010   50.8470 C   0  0  0  0  0  0  0  0  0  0  0  0
   37.7880   30.6120   50.6440 C   0  0  0  0  0  0  0  0  0  0  0  0
   37.5920   31.3450   49.5440 N   0  0  0  0  0  0  0  0  0  0  0  0
   36.3770   31.1080   49.0800 N   0  0  0  0  0  0  0  0  0  0  0  0
   36.5400   29.2190   51.6970 H   0  0  0  0  0  0  0  0  0  0  0  0
   38.7160   30.6370   51.2080 H   0  0  0  0  0  0  0  0  0  0  0  0
   38.4360   32.2660   48.8610 C   0  0  0  0  0  0  0  0  0  0  0  0
   38.8100   33.3890   49.5740 C   0  0  0  0  0  0  0  0  0  0  0  0
   39.6310   34.3860   49.0530 C   0  0  0  0  0  0  0  0  0  0  0  0
   40.0760   34.2050   47.7480 C   0  0  0  0  0  0  0  0  0  0  0  0
   39.7080   33.0890   47.0310 C   0  0  0  0  0  0  0  0  0  0  0  0
   38.8900   32.1040   47.5650 C   0  0  0  0  0  0  0  0  0  0  0  0
   38.4700   33.5420   50.5930 H   0  0  0  0  0  0  0  0  0  0  0  0
   39.8870   35.2430   49.6650 H   0  0  0  0  0  0  0  0  0  0  0  0
   40.7120   34.9940   47.3690 H   0  0  0  0  0  0  0  0  0  0  0  0
   40.0780   32.9860   46.0150 H   0  0  0  0  0  0  0  0  0  0  0  0
   38.5880   31.2270   47.0320 H   0  0  0  0  0  0  0  0  0  0  0  0
  1  2  1  0  0  0  0
  1  3  1  0  0  0  0
  1 24  1  0  0  0  0
  4  1  1  0  0  0  0
  5 10  1  0  0  0  0
  5  4  1  0  0  0  0
  6  5  2  0  0  0  0
  7  8  2  0  0  0  0
  7  6  1  0  0  0  0
  8  9  1  0  0  0  0
  9  4  2  0  0  0  0
 11  6  1  0  0  0  0
 12 13  1  0  0  0  0
 13 14  2  0  0  0  0
 13  8  1  0  0  0  0
 14 15  1  0  0  0  0
 16 17  1  0  0  0  0
 16 14  1  0  0  0  0
 17 23  1  0  0  0  0
 18 17  1  0  0  0  0
 19 18  1  0  0  0  0
 20 21  1  0  0  0  0
 20 18  2  0  0  0  0
 21 16  2  0  0  0  0
 22 21  1  0  0  0  0
 22 12  2  0  0  0  0
 24 27  1  0  0  0  0
 24 25  1  0  0  0  0
 26 24  1  0  0  0  0
 27 28  1  0  0  0  0
 28 32  1  0  0  0  0
 29 28  2  0  0  0  0
 29 33  1  0  0  0  0
 30 29  1  0  0  0  0
 31 30  1  0  0  0  0
 31 27  2  0  0  0  0
 34 30  1  0  0  0  0
 34 35  1  0  0  0  0
 35 40  1  0  0  0  0
 36 35  2  0  0  0  0
 36 41  1  0  0  0  0
 37 36  1  0  0  0  0
 38 39  1  0  0  0  0
 38 37  2  0  0  0  0
 39 34  2  0  0  0  0
 42 37  1  0  0  0  0
 43 38  1  0  0  0  0
 44 39  1  0  0  0  0
M  END
>  <minimizedAffinity>
-6.70512295

>  <minimizedRMSD>
1.66084385

$$$$
