
 OpenBabel03272508063D

 38 42  0  0  0  0  0  0  0  0999 V2000
   38.9110   30.8920   45.7720 C   0  0  0  0  0  0  0  0  0  0  0  0
   40.1010   31.5310   46.0230 C   0  0  0  0  0  0  0  0  0  0  0  0
   40.9390   31.4740   44.9090 C   0  0  0  0  0  0  0  0  0  0  0  0
   40.2030   30.7890   44.0200 N   0  0  0  0  0  0  0  0  0  0  0  0
   39.0240   30.4460   44.5120 N   0  0  0  0  0  0  0  0  0  0  0  0
   40.3800   32.0250   46.9550 H   0  0  0  0  0  0  0  0  0  0  0  0
   41.9340   31.8610   44.7430 H   0  0  0  0  0  0  0  0  0  0  0  0
   37.7960   30.7460   46.6870 C   0  0  0  0  0  0  0  0  0  0  0  0
   38.0190   30.9690   48.0680 C   0  0  0  0  0  0  0  0  0  0  0  0
   36.9310   30.8230   48.9260 C   0  0  0  0  0  0  0  0  0  0  0  0
   35.7260   30.4780   48.3940 N   0  0  0  0  0  0  0  0  0  0  0  0
   35.5350   30.2690   47.0660 C   0  0  0  0  0  0  0  0  0  0  0  0
   36.5810   30.4080   46.2240 N   0  0  0  0  0  0  0  0  0  0  0  0
   38.9950   31.2410   48.4400 H   0  0  0  0  0  0  0  0  0  0  0  0
   34.5460   29.9990   46.7200 H   0  0  0  0  0  0  0  0  0  0  0  0
   37.1300   31.0500   50.3820 C   0  0  0  0  0  0  0  0  0  0  0  0
   36.6180   32.3010   50.6380 F   0  0  0  0  0  0  0  0  0  0  0  0
   36.4680   30.1200   51.1650 F   0  0  0  0  0  0  0  0  0  0  0  0
   38.4850   31.0740   50.7130 F   0  0  0  0  0  0  0  0  0  0  0  0
   40.5630   30.4160   42.6460 C   0  0  0  0  0  0  0  0  0  0  0  0
   40.1990   31.1980   41.5380 C   0  0  0  0  0  0  0  0  0  0  0  0
   40.5530   30.8100   40.3040 C   0  0  0  0  0  0  0  0  0  0  0  0
   41.2940   29.6020   40.1430 C   0  0  0  0  0  0  0  0  0  0  0  0
   41.4680   29.0320   41.8940 S   0  0  0  0  0  0  0  0  0  0  0  0
   39.6310   32.1250   41.6600 H   0  0  0  0  0  0  0  0  0  0  0  0
   40.3460   31.3040   39.3670 H   0  0  0  0  0  0  0  0  0  0  0  0
   40.9760   28.2040   38.2070 C   0  0  0  0  0  3  0  0  0  0  0  0
   41.8030   28.9420   38.9990 C   0  0  0  0  0  0  0  0  0  0  0  0
   43.1490   29.0820   38.7370 C   0  0  0  0  0  0  0  0  0  0  0  0
   43.8350   29.6510   39.3310 H   0  0  0  0  0  0  0  0  0  0  0  0
   43.6760   28.4400   37.6120 C   0  0  0  0  0  0  0  0  0  0  0  0
   44.9090   28.3610   37.0660 N   0  0  0  0  0  0  0  0  0  0  0  0
   44.8720   27.5980   35.9600 C   0  0  0  0  0  0  0  0  0  0  0  0
   45.6880   27.3310   35.2850 H   0  0  0  0  0  0  0  0  0  0  0  0
   43.5880   27.1820   35.7980 N   0  0  0  0  0  0  0  0  0  0  0  0
   42.8400   27.6910   36.8060 C   0  0  0  0  0  0  0  0  0  0  0  0
   41.5050   27.5680   37.0900 C   0  0  0  0  0  3  0  0  0  0  0  0
   45.7620   28.8220   37.4450 H   0  0  0  0  0  0  0  0  0  0  0  0
  1  2  1  0  0  0  0
  1  8  1  0  0  0  0
  2  6  1  0  0  0  0
  3  2  2  0  0  0  0
  4  5  1  0  0  0  0
  4  3  1  0  0  0  0
  5  1  2  0  0  0  0
  7  3  1  0  0  0  0
  8  9  1  0  0  0  0
  9 14  1  0  0  0  0
  9 10  2  0  0  0  0
 10 16  1  0  0  0  0
 11 10  1  0  0  0  0
 12 11  2  0  0  0  0
 13  8  2  0  0  0  0
 13 12  1  0  0  0  0
 15 12  1  0  0  0  0
 16 17  1  0  0  0  0
 16 19  1  0  0  0  0
 16 18  1  0  0  0  0
 20  4  1  0  0  0  0
 21 25  1  0  0  0  0
 21 20  2  0  0  0  0
 22 21  1  0  0  0  0
 23 22  2  0  0  0  0
 23 24  1  0  0  0  0
 24 20  1  0  0  0  0
 26 22  1  0  0  0  0
 27 28  1  0  0  0  0
 28 23  1  0  0  0  0
 29 28  2  0  0  0  0
 29 30  1  0  0  0  0
 31 29  1  0  0  0  0
 32 38  1  0  0  0  0
 32 31  1  0  0  0  0
 33 32  1  0  0  0  0
 34 33  1  0  0  0  0
 35 33  2  0  0  0  0
 35 36  1  0  0  0  0
 36 37  1  0  0  0  0
 36 31  2  0  0  0  0
 37 27  2  0  0  0  0
M  END
>  <minimizedAffinity>
-6.46125507

>  <minimizedRMSD>
0.0450223796

$$$$
