
 OpenBabel03272507473D

 49 54  0  0  1  0  0  0  0  0999 V2000
   33.1090   28.6460   46.6840 N   0  0  0  0  0  0  0  0  0  0  0  0
   33.6190   28.0570   47.8740 C   0  0  0  0  0  0  0  0  0  0  0  0
   34.7560   28.7420   48.5270 C   0  0  0  0  0  0  0  0  0  0  0  0
   35.7480   29.3690   47.6580 C   0  0  1  0  0  0  0  0  0  0  0  0
   35.1390   29.9160   46.3560 C   0  0  0  0  0  0  0  0  0  0  0  0
   34.2270   28.8250   45.7810 C   0  0  0  0  0  0  0  0  0  0  0  0
   32.7680   27.9340   48.5820 H   0  0  0  0  0  0  0  0  0  0  0  0
   33.9060   26.9920   47.6280 H   0  0  0  0  0  0  0  0  0  0  0  0
   34.2280   29.5850   49.0870 H   0  0  0  0  0  0  0  0  0  0  0  0
   35.1970   28.0950   49.3020 H   0  0  0  0  0  0  0  0  0  0  0  0
   36.4980   28.6180   47.3000 H   0  0  0  0  0  0  0  0  0  0  0  0
   35.9290   30.0840   45.6020 H   0  0  0  0  0  0  0  0  0  0  0  0
   34.4860   30.7700   46.5520 H   0  0  0  0  0  0  0  0  0  0  0  0
   34.8240   27.8960   45.6310 H   0  0  0  0  0  0  0  0  0  0  0  0
   33.8490   29.1020   44.7910 H   0  0  0  0  0  0  0  0  0  0  0  0
   36.1130   30.9160   49.5280 C   0  0  0  0  0  0  0  0  0  0  0  0
   36.4750   30.5180   48.2540 C   0  0  0  0  0  0  0  0  0  0  0  0
   37.4400   31.1440   47.5110 C   0  0  0  0  0  0  0  0  0  0  0  0
   38.0860   32.2410   48.0750 C   0  0  0  0  0  0  0  0  0  0  0  0
   37.7230   32.6350   49.3390 C   0  0  0  0  0  0  0  0  0  0  0  0
   36.7440   32.0000   50.0980 C   0  0  0  0  0  0  0  0  0  0  0  0
   38.4800   33.7530   49.7340 O   0  0  0  0  0  0  0  0  0  0  0  0
   39.5590   33.7960   48.8040 C   0  0  0  0  0  0  0  0  0  0  0  0
   39.0900   33.1220   47.6620 O   0  0  0  0  0  0  0  0  0  0  0  0
   35.3850   30.4990   50.2110 H   0  0  0  0  0  0  0  0  0  0  0  0
   37.7010   30.8160   46.5310 H   0  0  0  0  0  0  0  0  0  0  0  0
   36.5100   32.3730   51.0980 H   0  0  0  0  0  0  0  0  0  0  0  0
   39.7860   34.8440   48.4930 H   0  0  0  0  0  0  0  0  0  0  0  0
   40.4450   33.2910   49.2470 H   0  0  0  0  0  0  0  0  0  0  0  0
   31.7550   29.0030   46.3880 C   0  0  0  0  0  0  0  0  0  0  0  0
   31.2960   29.5620   45.2010 C   0  0  0  0  0  0  0  0  0  0  0  0
   29.9460   29.8220   45.1010 C   0  0  0  0  0  0  0  0  0  0  0  0
   29.1360   29.5250   46.1530 N   0  0  0  0  0  0  0  0  0  0  0  0
   29.6020   28.9850   47.2930 C   0  0  0  0  0  0  0  0  0  0  0  0
   30.9160   28.7330   47.3890 N   0  0  0  0  0  0  0  0  0  0  0  0
   32.0430   29.7440   44.4550 H   0  0  0  0  0  0  0  0  0  0  0  0
   29.6120   30.2540   44.1730 H   0  0  0  0  0  0  0  0  0  0  0  0
   27.4140   29.2110   48.3810 C   0  0  0  0  0  3  0  0  0  0  0  0
   28.6910   28.6820   48.3990 C   0  0  0  0  0  0  0  0  0  0  0  0
   29.1140   27.8760   49.4460 C   0  0  0  0  0  0  0  0  0  0  0  0
   30.1200   27.4700   49.4420 H   0  0  0  0  0  0  0  0  0  0  0  0
   28.2440   27.5990   50.4810 C   0  0  0  0  0  0  0  0  0  0  0  0
   28.4640   26.8460   51.5750 N   0  0  0  0  0  0  0  0  0  0  0  0
   27.2810   26.9130   52.2530 C   0  0  0  0  0  0  0  0  0  0  0  0
   26.9970   26.4620   53.1840 H   0  0  0  0  0  0  0  0  0  0  0  0
   26.4010   27.6680   51.5970 N   0  0  0  0  0  0  0  0  0  0  0  0
   26.9650   28.1150   50.4850 C   0  0  0  0  0  0  0  0  0  0  0  0
   26.5420   28.9270   49.4290 C   0  0  0  0  0  3  0  0  0  0  0  0
   29.2920   26.3060   51.9120 H   0  0  0  0  0  0  0  0  0  0  0  0
  1  2  1  0  0  0  0
  2  3  1  0  0  0  0
  2  7  1  0  0  0  0
  3  9  1  0  0  0  0
  3 10  1  0  0  0  0
  4 11  1  6  0  0  0
  4 17  1  0  0  0  0
  4  3  1  0  0  0  0
  5 13  1  0  0  0  0
  5  4  1  0  0  0  0
  6  5  1  0  0  0  0
  6  1  1  0  0  0  0
  8  2  1  0  0  0  0
 12  5  1  0  0  0  0
 14  6  1  0  0  0  0
 15  6  1  0  0  0  0
 16 21  1  0  0  0  0
 16 25  1  0  0  0  0
 17 16  2  0  0  0  0
 18 19  2  0  0  0  0
 18 17  1  0  0  0  0
 19 20  1  0  0  0  0
 20 22  1  0  0  0  0
 20 21  2  0  0  0  0
 21 27  1  0  0  0  0
 23 29  1  0  0  0  0
 23 22  1  0  0  0  0
 24 19  1  0  0  0  0
 24 23  1  0  0  0  0
 26 18  1  0  0  0  0
 28 23  1  0  0  0  0
 30  1  1  0  0  0  0
 30 35  1  0  0  0  0
 31 30  2  0  0  0  0
 32 31  1  0  0  0  0
 32 33  2  0  0  0  0
 33 34  1  0  0  0  0
 34 35  2  0  0  0  0
 34 39  1  0  0  0  0
 36 31  1  0  0  0  0
 37 32  1  0  0  0  0
 38 39  2  0  0  0  0
 38 48  1  0  0  0  0
 39 40  1  0  0  0  0
 40 42  2  0  0  0  0
 41 40  1  0  0  0  0
 42 47  1  0  0  0  0
 42 43  1  0  0  0  0
 43 49  1  0  0  0  0
 43 44  1  0  0  0  0
 44 45  1  0  0  0  0
 46 44  2  0  0  0  0
 47 46  1  0  0  0  0
 48 47  2  0  0  0  0
M  END
>  <minimizedAffinity>
-7.80944538

>  <minimizedRMSD>
1.11590803

$$$$
