
 OpenBabel03272501243D

 43 47  0  0  0  0  0  0  0  0999 V2000
   36.7010   27.2840   34.8820 Cl  0  0  0  0  0  0  0  0  0  0  0  0
   36.6690   27.9810   33.2850 C   0  0  0  0  0  0  0  0  0  0  0  0
   37.4050   27.2930   32.3230 C   0  0  0  0  0  0  0  0  0  0  0  0
   37.3930   27.8320   31.0440 C   0  0  0  0  0  0  0  0  0  0  0  0
   36.7090   28.9780   30.6980 C   0  0  0  0  0  0  0  0  0  0  0  0
   35.9860   29.6420   31.6730 C   0  0  0  0  0  0  0  0  0  0  0  0
   35.9800   29.1230   32.9660 C   0  0  0  0  0  0  0  0  0  0  0  0
   37.9400   27.3620   30.2310 H   0  0  0  0  0  0  0  0  0  0  0  0
   36.7260   29.3640   29.6910 H   0  0  0  0  0  0  0  0  0  0  0  0
   35.4620   30.5290   31.3870 H   0  0  0  0  0  0  0  0  0  0  0  0
   33.8650   29.5060   34.1160 C   0  0  0  0  0  3  0  0  0  0  0  0
   35.2240   29.8100   34.0060 C   0  0  0  0  0  0  0  0  0  0  0  0
   35.7300   30.7360   34.8940 C   0  0  0  0  0  0  0  0  0  0  0  0
   36.7760   30.9710   34.8100 H   0  0  0  0  0  0  0  0  0  0  0  0
   34.9640   31.3480   35.8520 C   0  0  0  0  0  0  0  0  0  0  0  0
   35.2940   32.2600   36.7850 N   0  0  0  0  0  0  0  0  0  0  0  0
   34.1730   32.5400   37.4830 C   0  0  0  0  0  0  0  0  0  0  0  0
   34.2010   33.2560   38.2930 H   0  0  0  0  0  0  0  0  0  0  0  0
   33.1580   31.8000   36.9800 N   0  0  0  0  0  0  0  0  0  0  0  0
   33.6110   31.0400   35.9560 C   0  0  0  0  0  0  0  0  0  0  0  0
   33.0830   30.1150   35.0770 C   0  0  0  0  0  3  0  0  0  0  0  0
   36.2470   32.6580   36.9180 H   0  0  0  0  0  0  0  0  0  0  0  0
   38.1370   26.1510   32.4860 O   0  0  0  0  0  0  0  0  0  0  0  0
   39.5760   24.9710   34.0310 C   0  0  0  0  0  0  0  0  0  0  0  0
   40.7150   24.8110   34.8150 C   0  0  0  0  0  0  0  0  0  0  0  0
   41.6150   25.8620   34.7660 C   0  0  0  0  0  0  0  0  0  0  0  0
   41.3680   26.9850   33.9780 C   0  0  0  0  0  0  0  0  0  0  0  0
   40.2110   27.0800   33.2200 C   0  0  0  0  0  0  0  0  0  0  0  0
   39.3010   26.0510   33.2510 C   0  0  0  0  0  0  0  0  0  0  0  0
   42.5040   25.7440   35.3720 H   0  0  0  0  0  0  0  0  0  0  0  0
   42.1240   27.7580   33.9990 H   0  0  0  0  0  0  0  0  0  0  0  0
   40.0490   27.9660   32.6200 H   0  0  0  0  0  0  0  0  0  0  0  0
   41.9960   22.7670   35.3080 C   0  0  0  0  0  0  0  0  0  0  0  0
   40.9530   23.6460   35.6210 C   0  0  0  0  0  0  0  0  0  0  0  0
   40.1610   23.3440   36.7410 C   0  0  0  0  0  0  0  0  0  0  0  0
   40.4500   22.2170   37.4580 N   0  0  0  0  0  0  0  0  0  0  0  0
   41.4750   21.3950   37.1120 C   0  0  0  0  0  0  0  0  0  0  0  0
   42.2450   21.6740   36.0360 N   0  0  0  0  0  0  0  0  0  0  0  0
   42.6300   22.9610   34.4570 H   0  0  0  0  0  0  0  0  0  0  0  0
   39.3700   24.0140   36.9750 H   0  0  0  0  0  0  0  0  0  0  0  0
   41.7260   20.5050   37.6540 H   0  0  0  0  0  0  0  0  0  0  0  0
   38.6000   23.9450   34.0200 O   0  0  0  0  0  0  0  0  0  0  0  0
   38.6430   23.1890   33.3630 H   0  0  0  0  0  0  0  0  0  0  0  0
  2  1  1  0  0  0  0
  3 23  1  0  0  0  0
  3  2  2  0  0  0  0
  4  3  1  0  0  0  0
  5  4  2  0  0  0  0
  5  6  1  0  0  0  0
  6  7  2  0  0  0  0
  7  2  1  0  0  0  0
  7 12  1  0  0  0  0
  8  4  1  0  0  0  0
  9  5  1  0  0  0  0
 10  6  1  0  0  0  0
 11 21  1  0  0  0  0
 12 11  2  0  0  0  0
 12 13  1  0  0  0  0
 13 15  2  0  0  0  0
 14 13  1  0  0  0  0
 15 20  1  0  0  0  0
 15 16  1  0  0  0  0
 16 22  1  0  0  0  0
 16 17  1  0  0  0  0
 17 18  1  0  0  0  0
 19 17  2  0  0  0  0
 20 19  1  0  0  0  0
 21 20  2  0  0  0  0
 23 29  1  0  0  0  0
 24 25  1  0  0  0  0
 25 34  1  0  0  0  0
 26 25  2  0  0  0  0
 26 30  1  0  0  0  0
 27 31  1  0  0  0  0
 27 26  1  0  0  0  0
 28 29  1  0  0  0  0
 28 27  2  0  0  0  0
 29 24  2  0  0  0  0
 32 28  1  0  0  0  0
 33 34  2  0  0  0  0
 33 38  1  0  0  0  0
 34 35  1  0  0  0  0
 35 40  1  0  0  0  0
 35 36  2  0  0  0  0
 37 36  1  0  0  0  0
 37 41  1  0  0  0  0
 38 37  2  0  0  0  0
 39 33  1  0  0  0  0
 42 24  1  0  0  0  0
 43 42  1  0  0  0  0
M  END
>  <minimizedAffinity>
-6.81789017

$$$$

 OpenBabel03272501243D

 43 47  0  0  0  0  0  0  0  0999 V2000
   36.7010   27.3820   34.8980 Cl  0  0  0  0  0  0  0  0  0  0  0  0
   36.6470   28.1380   33.3300 C   0  0  0  0  0  0  0  0  0  0  0  0
   37.3610   27.4800   32.3300 C   0  0  0  0  0  0  0  0  0  0  0  0
   37.3310   28.0660   31.0720 C   0  0  0  0  0  0  0  0  0  0  0  0
   36.6490   29.2280   30.7800 C   0  0  0  0  0  0  0  0  0  0  0  0
   35.9480   29.8600   31.7910 C   0  0  0  0  0  0  0  0  0  0  0  0
   35.9600   29.2950   33.0640 C   0  0  0  0  0  0  0  0  0  0  0  0
   37.8610   27.6230   30.2320 H   0  0  0  0  0  0  0  0  0  0  0  0
   36.6510   29.6510   29.7870 H   0  0  0  0  0  0  0  0  0  0  0  0
   35.4240   30.7600   31.5470 H   0  0  0  0  0  0  0  0  0  0  0  0
   35.9290   30.8570   34.9360 C   0  0  0  0  0  3  0  0  0  0  0  0
   35.2260   29.9470   34.1410 C   0  0  0  0  0  0  0  0  0  0  0  0
   33.8960   29.7480   34.4480 C   0  0  0  0  0  0  0  0  0  0  0  0
   33.3540   29.0480   33.8370 H   0  0  0  0  0  0  0  0  0  0  0  0
   33.2630   30.3950   35.4780 C   0  0  0  0  0  0  0  0  0  0  0  0
   31.9890   30.3180   35.9070 N   0  0  0  0  0  0  0  0  0  0  0  0
   31.8710   31.1590   36.9560 C   0  0  0  0  0  0  0  0  0  0  0  0
   30.9230   31.2620   37.4660 H   0  0  0  0  0  0  0  0  0  0  0  0
   33.0690   31.7510   37.1690 N   0  0  0  0  0  0  0  0  0  0  0  0
   33.9680   31.3000   36.2650 C   0  0  0  0  0  0  0  0  0  0  0  0
   35.3010   31.5150   35.9750 C   0  0  0  0  0  3  0  0  0  0  0  0
   31.2550   29.7130   35.4860 H   0  0  0  0  0  0  0  0  0  0  0  0
   38.0880   26.3300   32.4390 O   0  0  0  0  0  0  0  0  0  0  0  0
   39.4890   25.1000   33.9790 C   0  0  0  0  0  0  0  0  0  0  0  0
   40.6260   24.8990   34.7590 C   0  0  0  0  0  0  0  0  0  0  0  0
   41.5630   25.9150   34.7040 C   0  0  0  0  0  0  0  0  0  0  0  0
   41.3550   27.0460   33.9150 C   0  0  0  0  0  0  0  0  0  0  0  0
   40.1980   27.1820   33.1620 C   0  0  0  0  0  0  0  0  0  0  0  0
   39.2520   26.1870   33.1990 C   0  0  0  0  0  0  0  0  0  0  0  0
   42.4500   25.7670   35.3070 H   0  0  0  0  0  0  0  0  0  0  0  0
   42.1390   27.7910   33.9320 H   0  0  0  0  0  0  0  0  0  0  0  0
   40.0670   28.0730   32.5600 H   0  0  0  0  0  0  0  0  0  0  0  0
   41.8130   22.7960   35.2350 C   0  0  0  0  0  0  0  0  0  0  0  0
   40.8240   23.7270   35.5660 C   0  0  0  0  0  0  0  0  0  0  0  0
   40.0440   23.4720   36.7070 C   0  0  0  0  0  0  0  0  0  0  0  0
   40.2930   22.3350   37.4240 N   0  0  0  0  0  0  0  0  0  0  0  0
   41.2670   21.4600   37.0590 C   0  0  0  0  0  0  0  0  0  0  0  0
   42.0250   21.6950   35.9630 N   0  0  0  0  0  0  0  0  0  0  0  0
   42.4360   22.9530   34.3680 H   0  0  0  0  0  0  0  0  0  0  0  0
   39.2940   24.1820   36.9550 H   0  0  0  0  0  0  0  0  0  0  0  0
   41.4860   20.5620   37.6000 H   0  0  0  0  0  0  0  0  0  0  0  0
   38.4770   24.1100   33.9750 O   0  0  0  0  0  0  0  0  0  0  0  0
   38.4880   23.3520   33.3190 H   0  0  0  0  0  0  0  0  0  0  0  0
  2  1  1  0  0  0  0
  3 23  1  0  0  0  0
  3  2  2  0  0  0  0
  4  3  1  0  0  0  0
  5  4  2  0  0  0  0
  5  6  1  0  0  0  0
  6  7  2  0  0  0  0
  7  2  1  0  0  0  0
  7 12  1  0  0  0  0
  8  4  1  0  0  0  0
  9  5  1  0  0  0  0
 10  6  1  0  0  0  0
 11 21  1  0  0  0  0
 12 13  1  0  0  0  0
 12 11  2  0  0  0  0
 13 15  2  0  0  0  0
 14 13  1  0  0  0  0
 15 16  1  0  0  0  0
 15 20  1  0  0  0  0
 16 17  1  0  0  0  0
 17 19  2  0  0  0  0
 17 18  1  0  0  0  0
 20 19  1  0  0  0  0
 21 20  2  0  0  0  0
 22 16  1  0  0  0  0
 23 29  1  0  0  0  0
 24 25  1  0  0  0  0
 25 34  1  0  0  0  0
 26 25  2  0  0  0  0
 26 30  1  0  0  0  0
 27 31  1  0  0  0  0
 27 26  1  0  0  0  0
 28 29  1  0  0  0  0
 28 27  2  0  0  0  0
 29 24  2  0  0  0  0
 32 28  1  0  0  0  0
 33 34  2  0  0  0  0
 33 38  1  0  0  0  0
 34 35  1  0  0  0  0
 35 40  1  0  0  0  0
 35 36  2  0  0  0  0
 37 36  1  0  0  0  0
 37 41  1  0  0  0  0
 38 37  2  0  0  0  0
 39 33  1  0  0  0  0
 42 24  1  0  0  0  0
 43 42  1  0  0  0  0
M  END
>  <minimizedAffinity>
-6.67747402

$$$$

 OpenBabel03272501243D

 43 47  0  0  0  0  0  0  0  0999 V2000
   37.3480   27.6420   35.3510 Cl  0  0  0  0  0  0  0  0  0  0  0  0
   36.9050   27.8150   33.6750 C   0  0  0  0  0  0  0  0  0  0  0  0
   37.5780   26.9710   32.7940 C   0  0  0  0  0  0  0  0  0  0  0  0
   37.2400   27.0930   31.4540 C   0  0  0  0  0  0  0  0  0  0  0  0
   36.2990   27.9800   30.9740 C   0  0  0  0  0  0  0  0  0  0  0  0
   35.6460   28.8060   31.8710 C   0  0  0  0  0  0  0  0  0  0  0  0
   35.9650   28.7060   33.2230 C   0  0  0  0  0  0  0  0  0  0  0  0
   37.7150   26.4750   30.6950 H   0  0  0  0  0  0  0  0  0  0  0  0
   36.0650   28.0430   29.9230 H   0  0  0  0  0  0  0  0  0  0  0  0
   34.9190   29.4880   31.4820 H   0  0  0  0  0  0  0  0  0  0  0  0
   33.9170   29.3600   34.3730 C   0  0  0  0  0  3  0  0  0  0  0  0
   35.2850   29.5680   34.1820 C   0  0  0  0  0  0  0  0  0  0  0  0
   35.8730   30.5750   34.9200 C   0  0  0  0  0  0  0  0  0  0  0  0
   36.9260   30.7360   34.7730 H   0  0  0  0  0  0  0  0  0  0  0  0
   35.1760   31.3530   35.8080 C   0  0  0  0  0  0  0  0  0  0  0  0
   35.5890   32.3620   36.5970 N   0  0  0  0  0  0  0  0  0  0  0  0
   34.5110   32.7960   37.2840 C   0  0  0  0  0  0  0  0  0  0  0  0
   34.6080   33.6130   37.9870 H   0  0  0  0  0  0  0  0  0  0  0  0
   33.4400   32.0550   36.9170 N   0  0  0  0  0  0  0  0  0  0  0  0
   33.8140   31.1400   35.9940 C   0  0  0  0  0  0  0  0  0  0  0  0
   33.2060   30.1370   35.2660 C   0  0  0  0  0  3  0  0  0  0  0  0
   36.5660   32.7180   36.6470 H   0  0  0  0  0  0  0  0  0  0  0  0
   38.5310   26.0400   33.0900 O   0  0  0  0  0  0  0  0  0  0  0  0
   37.7770   23.7420   33.0450 C   0  0  0  0  0  0  0  0  0  0  0  0
   37.5090   22.4950   33.6050 C   0  0  0  0  0  0  0  0  0  0  0  0
   37.8010   22.3820   34.9530 C   0  0  0  0  0  0  0  0  0  0  0  0
   38.3240   23.4570   35.6700 C   0  0  0  0  0  0  0  0  0  0  0  0
   38.5670   24.6730   35.0490 C   0  0  0  0  0  0  0  0  0  0  0  0
   38.2860   24.8120   33.7110 C   0  0  0  0  0  0  0  0  0  0  0  0
   37.5960   21.4160   35.3960 H   0  0  0  0  0  0  0  0  0  0  0  0
   38.5230   23.2810   36.7180 H   0  0  0  0  0  0  0  0  0  0  0  0
   38.9730   25.4890   35.6340 H   0  0  0  0  0  0  0  0  0  0  0  0
   35.5870   21.2200   32.7460 C   0  0  0  0  0  0  0  0  0  0  0  0
   36.9700   21.3980   32.8510 C   0  0  0  0  0  0  0  0  0  0  0  0
   37.7980   20.4710   32.1960 C   0  0  0  0  0  0  0  0  0  0  0  0
   37.2100   19.4530   31.4970 N   0  0  0  0  0  0  0  0  0  0  0  0
   35.8590   19.3250   31.4260 C   0  0  0  0  0  0  0  0  0  0  0  0
   35.0510   20.2100   32.0520 N   0  0  0  0  0  0  0  0  0  0  0  0
   34.9140   21.9100   33.2330 H   0  0  0  0  0  0  0  0  0  0  0  0
   38.8480   20.6100   32.2780 H   0  0  0  0  0  0  0  0  0  0  0  0
   35.3700   18.5390   30.8870 H   0  0  0  0  0  0  0  0  0  0  0  0
   37.5080   23.9490   31.6700 O   0  0  0  0  0  0  0  0  0  0  0  0
   38.1990   23.7630   30.9670 H   0  0  0  0  0  0  0  0  0  0  0  0
  2  1  1  0  0  0  0
  3 23  1  0  0  0  0
  3  2  2  0  0  0  0
  4  3  1  0  0  0  0
  5  4  2  0  0  0  0
  5  6  1  0  0  0  0
  6  7  2  0  0  0  0
  7  2  1  0  0  0  0
  7 12  1  0  0  0  0
  8  4  1  0  0  0  0
  9  5  1  0  0  0  0
 10  6  1  0  0  0  0
 11 21  1  0  0  0  0
 12 11  2  0  0  0  0
 12 13  1  0  0  0  0
 13 15  2  0  0  0  0
 14 13  1  0  0  0  0
 15 20  1  0  0  0  0
 15 16  1  0  0  0  0
 16 22  1  0  0  0  0
 16 17  1  0  0  0  0
 17 18  1  0  0  0  0
 19 17  2  0  0  0  0
 20 19  1  0  0  0  0
 21 20  2  0  0  0  0
 23 29  1  0  0  0  0
 24 25  2  0  0  0  0
 24 29  1  0  0  0  0
 25 26  1  0  0  0  0
 26 30  1  0  0  0  0
 26 27  2  0  0  0  0
 27 31  1  0  0  0  0
 28 32  1  0  0  0  0
 28 27  1  0  0  0  0
 29 28  2  0  0  0  0
 33 34  1  0  0  0  0
 33 39  1  0  0  0  0
 34 25  1  0  0  0  0
 35 40  1  0  0  0  0
 35 34  2  0  0  0  0
 36 35  1  0  0  0  0
 37 36  2  0  0  0  0
 37 38  1  0  0  0  0
 38 33  2  0  0  0  0
 41 37  1  0  0  0  0
 42 24  1  0  0  0  0
 43 42  1  0  0  0  0
M  END
>  <minimizedAffinity>
-6.59777069

$$$$

 OpenBabel03272501243D

 43 47  0  0  0  0  0  0  0  0999 V2000
   37.1130   27.7440   34.8480 Cl  0  0  0  0  0  0  0  0  0  0  0  0
   36.8110   28.2850   33.2190 C   0  0  0  0  0  0  0  0  0  0  0  0
   37.5920   27.6760   32.2380 C   0  0  0  0  0  0  0  0  0  0  0  0
   37.3670   28.0930   30.9340 C   0  0  0  0  0  0  0  0  0  0  0  0
   36.4370   29.0480   30.5800 C   0  0  0  0  0  0  0  0  0  0  0  0
   35.6750   29.6350   31.5730 C   0  0  0  0  0  0  0  0  0  0  0  0
   35.8790   29.2370   32.8920 C   0  0  0  0  0  0  0  0  0  0  0  0
   37.9310   27.6740   30.1040 H   0  0  0  0  0  0  0  0  0  0  0  0
   36.2940   29.3430   29.5520 H   0  0  0  0  0  0  0  0  0  0  0  0
   34.9590   30.3740   31.2810 H   0  0  0  0  0  0  0  0  0  0  0  0
   33.7760   29.3840   34.1160 C   0  0  0  0  0  3  0  0  0  0  0  0
   35.0850   29.8450   33.9520 C   0  0  0  0  0  0  0  0  0  0  0  0
   35.5100   30.8380   34.8110 C   0  0  0  0  0  0  0  0  0  0  0  0
   36.5170   31.1930   34.6840 H   0  0  0  0  0  0  0  0  0  0  0  0
   34.7110   31.3700   35.7900 C   0  0  0  0  0  0  0  0  0  0  0  0
   34.9630   32.3290   36.6990 N   0  0  0  0  0  0  0  0  0  0  0  0
   33.8430   32.4850   37.4350 C   0  0  0  0  0  0  0  0  0  0  0  0
   33.8160   33.2130   38.2350 H   0  0  0  0  0  0  0  0  0  0  0  0
   32.9050   31.6230   36.9790 N   0  0  0  0  0  0  0  0  0  0  0  0
   33.4090   30.9060   35.9480 C   0  0  0  0  0  0  0  0  0  0  0  0
   32.9630   29.9120   35.1000 C   0  0  0  0  0  3  0  0  0  0  0  0
   35.8670   32.8380   36.7920 H   0  0  0  0  0  0  0  0  0  0  0  0
   38.5530   26.7210   32.4060 O   0  0  0  0  0  0  0  0  0  0  0  0
   38.9880   24.8350   33.8570 C   0  0  0  0  0  0  0  0  0  0  0  0
   38.7960   23.5370   34.3230 C   0  0  0  0  0  0  0  0  0  0  0  0
   37.8290   22.8090   33.6520 C   0  0  0  0  0  0  0  0  0  0  0  0
   37.1160   23.3640   32.5910 C   0  0  0  0  0  0  0  0  0  0  0  0
   37.3580   24.6660   32.1770 C   0  0  0  0  0  0  0  0  0  0  0  0
   38.3130   25.4100   32.8270 C   0  0  0  0  0  0  0  0  0  0  0  0
   37.6740   21.7980   34.0080 H   0  0  0  0  0  0  0  0  0  0  0  0
   36.3800   22.7240   32.1240 H   0  0  0  0  0  0  0  0  0  0  0  0
   36.7870   25.0670   31.3500 H   0  0  0  0  0  0  0  0  0  0  0  0
   40.6900   22.2210   35.1830 C   0  0  0  0  0  0  0  0  0  0  0  0
   39.5400   22.9810   35.4180 C   0  0  0  0  0  0  0  0  0  0  0  0
   39.1500   23.1750   36.7540 C   0  0  0  0  0  0  0  0  0  0  0  0
   39.9100   22.6140   37.7420 N   0  0  0  0  0  0  0  0  0  0  0  0
   41.0200   21.8820   37.4600 C   0  0  0  0  0  0  0  0  0  0  0  0
   41.4060   21.6880   36.1790 N   0  0  0  0  0  0  0  0  0  0  0  0
   41.0270   22.0470   34.1720 H   0  0  0  0  0  0  0  0  0  0  0  0
   38.2760   23.7530   36.9290 H   0  0  0  0  0  0  0  0  0  0  0  0
   41.6350   21.4310   38.2120 H   0  0  0  0  0  0  0  0  0  0  0  0
   39.9580   25.6540   34.4850 O   0  0  0  0  0  0  0  0  0  0  0  0
   39.7260   26.2350   35.2680 H   0  0  0  0  0  0  0  0  0  0  0  0
  2  1  1  0  0  0  0
  3 23  1  0  0  0  0
  3  2  2  0  0  0  0
  4  3  1  0  0  0  0
  5  4  2  0  0  0  0
  5  6  1  0  0  0  0
  6  7  2  0  0  0  0
  7  2  1  0  0  0  0
  7 12  1  0  0  0  0
  8  4  1  0  0  0  0
  9  5  1  0  0  0  0
 10  6  1  0  0  0  0
 11 21  1  0  0  0  0
 12 11  2  0  0  0  0
 12 13  1  0  0  0  0
 13 15  2  0  0  0  0
 14 13  1  0  0  0  0
 15 20  1  0  0  0  0
 15 16  1  0  0  0  0
 16 22  1  0  0  0  0
 16 17  1  0  0  0  0
 17 18  1  0  0  0  0
 19 17  2  0  0  0  0
 20 19  1  0  0  0  0
 21 20  2  0  0  0  0
 23 29  1  0  0  0  0
 24 25  1  0  0  0  0
 24 42  1  0  0  0  0
 25 34  1  0  0  0  0
 26 30  1  0  0  0  0
 26 25  2  0  0  0  0
 27 26  1  0  0  0  0
 28 27  2  0  0  0  0
 28 29  1  0  0  0  0
 29 24  2  0  0  0  0
 31 27  1  0  0  0  0
 32 28  1  0  0  0  0
 33 34  2  0  0  0  0
 33 38  1  0  0  0  0
 34 35  1  0  0  0  0
 35 40  1  0  0  0  0
 35 36  2  0  0  0  0
 37 36  1  0  0  0  0
 37 41  1  0  0  0  0
 38 37  2  0  0  0  0
 39 33  1  0  0  0  0
 42 43  1  0  0  0  0
M  END
>  <minimizedAffinity>
-6.57437754

$$$$

 OpenBabel03272501243D

 43 47  0  0  0  0  0  0  0  0999 V2000
   38.2240   23.6080   34.4010 Cl  0  0  0  0  0  0  0  0  0  0  0  0
   39.3630   24.9200   34.2770 C   0  0  0  0  0  0  0  0  0  0  0  0
   38.9170   26.0280   33.5580 C   0  0  0  0  0  0  0  0  0  0  0  0
   39.8100   27.0840   33.4470 C   0  0  0  0  0  0  0  0  0  0  0  0
   41.0740   27.0850   33.9990 C   0  0  0  0  0  0  0  0  0  0  0  0
   41.4910   25.9740   34.7080 C   0  0  0  0  0  0  0  0  0  0  0  0
   40.6160   24.8980   34.8360 C   0  0  0  0  0  0  0  0  0  0  0  0
   39.5470   27.9880   32.9030 H   0  0  0  0  0  0  0  0  0  0  0  0
   41.7370   27.9290   33.8890 H   0  0  0  0  0  0  0  0  0  0  0  0
   42.4740   25.9920   35.1300 H   0  0  0  0  0  0  0  0  0  0  0  0
   40.3560   23.4280   36.7640 C   0  0  0  0  0  3  0  0  0  0  0  0
   41.0400   23.7180   35.5800 C   0  0  0  0  0  0  0  0  0  0  0  0
   42.0580   22.8600   35.2210 C   0  0  0  0  0  0  0  0  0  0  0  0
   42.5850   23.0830   34.3100 H   0  0  0  0  0  0  0  0  0  0  0  0
   42.4080   21.7640   35.9670 C   0  0  0  0  0  0  0  0  0  0  0  0
   43.3620   20.8370   35.7640 N   0  0  0  0  0  0  0  0  0  0  0  0
   43.2960   19.9660   36.7930 C   0  0  0  0  0  0  0  0  0  0  0  0
   43.9780   19.1270   36.8400 H   0  0  0  0  0  0  0  0  0  0  0  0
   42.3040   20.3580   37.6250 N   0  0  0  0  0  0  0  0  0  0  0  0
   41.7230   21.4810   37.1440 C   0  0  0  0  0  0  0  0  0  0  0  0
   40.6990   22.3270   37.5220 C   0  0  0  0  0  3  0  0  0  0  0  0
   44.0140   20.8210   34.9530 H   0  0  0  0  0  0  0  0  0  0  0  0
   37.7070   26.1970   32.9470 O   0  0  0  0  0  0  0  0  0  0  0  0
   36.4770   28.1540   33.6590 C   0  0  0  0  0  0  0  0  0  0  0  0
   35.8590   29.3880   33.4700 C   0  0  0  0  0  0  0  0  0  0  0  0
   35.9130   29.8800   32.1780 C   0  0  0  0  0  0  0  0  0  0  0  0
   36.5480   29.1680   31.1610 C   0  0  0  0  0  0  0  0  0  0  0  0
   37.1440   27.9430   31.4190 C   0  0  0  0  0  0  0  0  0  0  0  0
   37.1050   27.4320   32.6930 C   0  0  0  0  0  0  0  0  0  0  0  0
   35.4340   30.8390   32.0230 H   0  0  0  0  0  0  0  0  0  0  0  0
   36.5420   29.6270   30.1820 H   0  0  0  0  0  0  0  0  0  0  0  0
   37.6290   27.4150   30.6070 H   0  0  0  0  0  0  0  0  0  0  0  0
   35.9390   30.9720   35.3520 C   0  0  0  0  0  0  0  0  0  0  0  0
   35.2090   30.1070   34.5290 C   0  0  0  0  0  0  0  0  0  0  0  0
   33.8320   29.9760   34.7800 C   0  0  0  0  0  0  0  0  0  0  0  0
   33.2870   30.6950   35.8070 N   0  0  0  0  0  0  0  0  0  0  0  0
   34.0410   31.5220   36.5790 C   0  0  0  0  0  0  0  0  0  0  0  0
   35.3660   31.6570   36.3480 N   0  0  0  0  0  0  0  0  0  0  0  0
   36.9980   31.1030   35.1940 H   0  0  0  0  0  0  0  0  0  0  0  0
   33.2820   29.3190   34.1530 H   0  0  0  0  0  0  0  0  0  0  0  0
   33.6420   32.0970   37.3890 H   0  0  0  0  0  0  0  0  0  0  0  0
   36.4710   27.5740   34.9500 O   0  0  0  0  0  0  0  0  0  0  0  0
   37.2010   27.7610   35.6120 H   0  0  0  0  0  0  0  0  0  0  0  0
  2  1  1  0  0  0  0
  2  7  1  0  0  0  0
  3  2  2  0  0  0  0
  4  3  1  0  0  0  0
  4  5  2  0  0  0  0
  5  6  1  0  0  0  0
  6  7  2  0  0  0  0
  6 10  1  0  0  0  0
  7 12  1  0  0  0  0
  8  4  1  0  0  0  0
  9  5  1  0  0  0  0
 11 21  1  0  0  0  0
 12 11  2  0  0  0  0
 13 12  1  0  0  0  0
 13 15  2  0  0  0  0
 14 13  1  0  0  0  0
 15 20  1  0  0  0  0
 16 15  1  0  0  0  0
 16 17  1  0  0  0  0
 17 18  1  0  0  0  0
 17 19  2  0  0  0  0
 20 21  2  0  0  0  0
 20 19  1  0  0  0  0
 22 16  1  0  0  0  0
 23  3  1  0  0  0  0
 24 42  1  0  0  0  0
 25 24  1  0  0  0  0
 25 34  1  0  0  0  0
 26 25  2  0  0  0  0
 27 28  2  0  0  0  0
 27 26  1  0  0  0  0
 28 29  1  0  0  0  0
 29 23  1  0  0  0  0
 29 24  2  0  0  0  0
 30 26  1  0  0  0  0
 31 27  1  0  0  0  0
 32 28  1  0  0  0  0
 33 38  1  0  0  0  0
 34 35  1  0  0  0  0
 34 33  2  0  0  0  0
 35 36  2  0  0  0  0
 36 37  1  0  0  0  0
 37 41  1  0  0  0  0
 38 37  2  0  0  0  0
 39 33  1  0  0  0  0
 40 35  1  0  0  0  0
 42 43  1  0  0  0  0
M  END
>  <minimizedAffinity>
-6.53361368

$$$$

 OpenBabel03272501243D

 43 47  0  0  0  0  0  0  0  0999 V2000
   37.3370   27.6900   35.2960 Cl  0  0  0  0  0  0  0  0  0  0  0  0
   36.8870   27.9620   33.6350 C   0  0  0  0  0  0  0  0  0  0  0  0
   37.5530   27.1690   32.7020 C   0  0  0  0  0  0  0  0  0  0  0  0
   37.2090   27.3710   31.3730 C   0  0  0  0  0  0  0  0  0  0  0  0
   36.2690   28.2870   30.9510 C   0  0  0  0  0  0  0  0  0  0  0  0
   35.6220   29.0600   31.8980 C   0  0  0  0  0  0  0  0  0  0  0  0
   35.9480   28.8810   33.2400 C   0  0  0  0  0  0  0  0  0  0  0  0
   37.6790   26.7970   30.5780 H   0  0  0  0  0  0  0  0  0  0  0  0
   36.0300   28.4120   29.9060 H   0  0  0  0  0  0  0  0  0  0  0  0
   34.8960   29.7660   31.5530 H   0  0  0  0  0  0  0  0  0  0  0  0
   36.0310   30.6730   34.8910 C   0  0  0  0  0  3  0  0  0  0  0  0
   35.2750   29.6870   34.2510 C   0  0  0  0  0  0  0  0  0  0  0  0
   33.9550   29.5650   34.6350 C   0  0  0  0  0  0  0  0  0  0  0  0
   33.3730   28.8070   34.1420 H   0  0  0  0  0  0  0  0  0  0  0  0
   33.3810   30.3580   35.5950 C   0  0  0  0  0  0  0  0  0  0  0  0
   32.1260   30.3720   36.0810 N   0  0  0  0  0  0  0  0  0  0  0  0
   32.0720   31.3450   37.0150 C   0  0  0  0  0  0  0  0  0  0  0  0
   31.1490   31.5390   37.5450 H   0  0  0  0  0  0  0  0  0  0  0  0
   33.2910   31.9270   37.1010 N   0  0  0  0  0  0  0  0  0  0  0  0
   34.1400   31.3370   36.2280 C   0  0  0  0  0  0  0  0  0  0  0  0
   35.4630   31.4770   35.8590 C   0  0  0  0  0  3  0  0  0  0  0  0
   31.3610   29.7370   35.7730 H   0  0  0  0  0  0  0  0  0  0  0  0
   38.5050   26.2200   32.9390 O   0  0  0  0  0  0  0  0  0  0  0  0
   37.7400   23.9270   32.8640 C   0  0  0  0  0  0  0  0  0  0  0  0
   37.4790   22.6700   33.4050 C   0  0  0  0  0  0  0  0  0  0  0  0
   37.8010   22.5280   34.7430 C   0  0  0  0  0  0  0  0  0  0  0  0
   38.3440   23.5870   35.4700 C   0  0  0  0  0  0  0  0  0  0  0  0
   38.5780   24.8140   34.8680 C   0  0  0  0  0  0  0  0  0  0  0  0
   38.2680   24.9810   33.5400 C   0  0  0  0  0  0  0  0  0  0  0  0
   37.6010   21.5540   35.1710 H   0  0  0  0  0  0  0  0  0  0  0  0
   38.5640   23.3880   36.5100 H   0  0  0  0  0  0  0  0  0  0  0  0
   39.0010   25.6160   35.4610 H   0  0  0  0  0  0  0  0  0  0  0  0
   37.7520   20.6750   31.9890 C   0  0  0  0  0  0  0  0  0  0  0  0
   36.9190   21.5900   32.6410 C   0  0  0  0  0  0  0  0  0  0  0  0
   35.5310   21.4110   32.5180 C   0  0  0  0  0  0  0  0  0  0  0  0
   35.0740   20.3590   31.7740 N   0  0  0  0  0  0  0  0  0  0  0  0
   35.9260   19.4970   31.1590 C   0  0  0  0  0  0  0  0  0  0  0  0
   37.2640   19.6590   31.2690 N   0  0  0  0  0  0  0  0  0  0  0  0
   38.8240   20.7750   32.0570 H   0  0  0  0  0  0  0  0  0  0  0  0
   34.9020   22.1080   33.0150 H   0  0  0  0  0  0  0  0  0  0  0  0
   35.5980   18.6640   30.5700 H   0  0  0  0  0  0  0  0  0  0  0  0
   37.4420   24.1620   31.5000 O   0  0  0  0  0  0  0  0  0  0  0  0
   38.1170   23.9870   30.7790 H   0  0  0  0  0  0  0  0  0  0  0  0
  2  1  1  0  0  0  0
  3 23  1  0  0  0  0
  3  2  2  0  0  0  0
  4  3  1  0  0  0  0
  5  4  2  0  0  0  0
  5  6  1  0  0  0  0
  6  7  2  0  0  0  0
  7  2  1  0  0  0  0
  7 12  1  0  0  0  0
  8  4  1  0  0  0  0
  9  5  1  0  0  0  0
 10  6  1  0  0  0  0
 11 21  1  0  0  0  0
 12 13  1  0  0  0  0
 12 11  2  0  0  0  0
 13 15  2  0  0  0  0
 14 13  1  0  0  0  0
 15 16  1  0  0  0  0
 15 20  1  0  0  0  0
 16 17  1  0  0  0  0
 17 19  2  0  0  0  0
 17 18  1  0  0  0  0
 20 19  1  0  0  0  0
 21 20  2  0  0  0  0
 22 16  1  0  0  0  0
 23 29  1  0  0  0  0
 24 25  2  0  0  0  0
 24 29  1  0  0  0  0
 25 26  1  0  0  0  0
 26 30  1  0  0  0  0
 26 27  2  0  0  0  0
 27 31  1  0  0  0  0
 28 32  1  0  0  0  0
 28 27  1  0  0  0  0
 29 28  2  0  0  0  0
 33 39  1  0  0  0  0
 33 34  1  0  0  0  0
 34 25  1  0  0  0  0
 35 34  2  0  0  0  0
 35 40  1  0  0  0  0
 36 35  1  0  0  0  0
 37 38  1  0  0  0  0
 37 36  2  0  0  0  0
 38 33  2  0  0  0  0
 41 37  1  0  0  0  0
 42 24  1  0  0  0  0
 43 42  1  0  0  0  0
M  END
>  <minimizedAffinity>
-6.43885756

$$$$

 OpenBabel03272501243D

 43 47  0  0  0  0  0  0  0  0999 V2000
   39.1220   27.0390   34.6660 Cl  0  0  0  0  0  0  0  0  0  0  0  0
   38.1170   26.0970   33.5990 C   0  0  0  0  0  0  0  0  0  0  0  0
   37.4470   26.8260   32.6180 C   0  0  0  0  0  0  0  0  0  0  0  0
   36.6410   26.0940   31.7580 C   0  0  0  0  0  0  0  0  0  0  0  0
   36.4810   24.7260   31.8280 C   0  0  0  0  0  0  0  0  0  0  0  0
   37.1590   24.0270   32.8100 C   0  0  0  0  0  0  0  0  0  0  0  0
   37.9750   24.7350   33.6890 C   0  0  0  0  0  0  0  0  0  0  0  0
   36.0800   26.5800   30.9630 H   0  0  0  0  0  0  0  0  0  0  0  0
   35.8440   24.1950   31.1380 H   0  0  0  0  0  0  0  0  0  0  0  0
   37.0240   22.9670   32.8510 H   0  0  0  0  0  0  0  0  0  0  0  0
   38.1280   23.9930   36.0060 C   0  0  0  0  0  3  0  0  0  0  0  0
   38.6970   24.0140   34.7300 C   0  0  0  0  0  0  0  0  0  0  0  0
   39.8940   23.3480   34.5690 C   0  0  0  0  0  0  0  0  0  0  0  0
   40.3320   23.3640   33.5870 H   0  0  0  0  0  0  0  0  0  0  0  0
   40.5230   22.6870   35.5920 C   0  0  0  0  0  0  0  0  0  0  0  0
   41.6780   21.9960   35.6070 N   0  0  0  0  0  0  0  0  0  0  0  0
   41.8530   21.5390   36.8650 C   0  0  0  0  0  0  0  0  0  0  0  0
   42.7260   20.9500   37.1130 H   0  0  0  0  0  0  0  0  0  0  0  0
   40.8070   21.9470   37.6200 N   0  0  0  0  0  0  0  0  0  0  0  0
   39.9510   22.6700   36.8610 C   0  0  0  0  0  0  0  0  0  0  0  0
   38.7520   23.3300   37.0440 C   0  0  0  0  0  3  0  0  0  0  0  0
   42.3000   21.8580   34.7840 H   0  0  0  0  0  0  0  0  0  0  0  0
   37.4870   28.1740   32.4040 O   0  0  0  0  0  0  0  0  0  0  0  0
   35.6960   29.3040   33.5710 C   0  0  0  0  0  0  0  0  0  0  0  0
   34.5840   30.1380   33.6630 C   0  0  0  0  0  0  0  0  0  0  0  0
   34.1750   30.7050   32.4680 C   0  0  0  0  0  0  0  0  0  0  0  0
   34.8490   30.4390   31.2770 C   0  0  0  0  0  0  0  0  0  0  0  0
   35.9500   29.5970   31.2570 C   0  0  0  0  0  0  0  0  0  0  0  0
   36.3770   29.0220   32.4290 C   0  0  0  0  0  0  0  0  0  0  0  0
   33.3120   31.3550   32.5310 H   0  0  0  0  0  0  0  0  0  0  0  0
   34.4610   30.9240   30.3910 H   0  0  0  0  0  0  0  0  0  0  0  0
   36.4510   29.4110   30.3150 H   0  0  0  0  0  0  0  0  0  0  0  0
   34.3410   31.4210   35.7490 C   0  0  0  0  0  0  0  0  0  0  0  0
   33.9020   30.4000   34.8990 C   0  0  0  0  0  0  0  0  0  0  0  0
   32.7810   29.6540   35.3010 C   0  0  0  0  0  0  0  0  0  0  0  0
   32.1860   29.9640   36.4920 N   0  0  0  0  0  0  0  0  0  0  0  0
   32.6530   30.9670   37.2830 C   0  0  0  0  0  0  0  0  0  0  0  0
   33.7300   31.6920   36.9080 N   0  0  0  0  0  0  0  0  0  0  0  0
   35.1980   32.0190   35.4790 H   0  0  0  0  0  0  0  0  0  0  0  0
   32.4510   28.8810   34.6530 H   0  0  0  0  0  0  0  0  0  0  0  0
   32.2080   31.2330   38.2200 H   0  0  0  0  0  0  0  0  0  0  0  0
   36.1840   28.6800   34.7450 O   0  0  0  0  0  0  0  0  0  0  0  0
   36.8740   29.1210   35.3240 H   0  0  0  0  0  0  0  0  0  0  0  0
  2  7  1  0  0  0  0
  2  1  1  0  0  0  0
  3  2  2  0  0  0  0
  4  5  2  0  0  0  0
  4  3  1  0  0  0  0
  5  6  1  0  0  0  0
  6 10  1  0  0  0  0
  6  7  2  0  0  0  0
  7 12  1  0  0  0  0
  8  4  1  0  0  0  0
  9  5  1  0  0  0  0
 11 21  1  0  0  0  0
 12 11  2  0  0  0  0
 13 12  1  0  0  0  0
 13 15  2  0  0  0  0
 14 13  1  0  0  0  0
 15 16  1  0  0  0  0
 15 20  1  0  0  0  0
 16 17  1  0  0  0  0
 17 18  1  0  0  0  0
 17 19  2  0  0  0  0
 20 21  2  0  0  0  0
 20 19  1  0  0  0  0
 22 16  1  0  0  0  0
 23 29  1  0  0  0  0
 23  3  1  0  0  0  0
 24 25  1  0  0  0  0
 24 42  1  0  0  0  0
 25 34  1  0  0  0  0
 26 30  1  0  0  0  0
 26 25  2  0  0  0  0
 27 26  1  0  0  0  0
 28 27  2  0  0  0  0
 28 29  1  0  0  0  0
 29 24  2  0  0  0  0
 31 27  1  0  0  0  0
 32 28  1  0  0  0  0
 33 38  1  0  0  0  0
 34 35  1  0  0  0  0
 34 33  2  0  0  0  0
 35 36  2  0  0  0  0
 36 37  1  0  0  0  0
 37 41  1  0  0  0  0
 38 37  2  0  0  0  0
 39 33  1  0  0  0  0
 40 35  1  0  0  0  0
 42 43  1  0  0  0  0
M  END
>  <minimizedAffinity>
-6.43358374

$$$$

 OpenBabel03272501243D

 43 47  0  0  0  0  0  0  0  0999 V2000
   37.1320   27.6580   34.5980 Cl  0  0  0  0  0  0  0  0  0  0  0  0
   36.8680   28.3160   33.0060 C   0  0  0  0  0  0  0  0  0  0  0  0
   37.6330   27.7410   31.9930 C   0  0  0  0  0  0  0  0  0  0  0  0
   37.4380   28.2510   30.7170 C   0  0  0  0  0  0  0  0  0  0  0  0
   36.5510   29.2640   30.4200 C   0  0  0  0  0  0  0  0  0  0  0  0
   35.8040   29.8160   31.4450 C   0  0  0  0  0  0  0  0  0  0  0  0
   35.9790   29.3240   32.7360 C   0  0  0  0  0  0  0  0  0  0  0  0
   37.9920   27.8640   29.8660 H   0  0  0  0  0  0  0  0  0  0  0  0
   36.4290   29.6310   29.4130 H   0  0  0  0  0  0  0  0  0  0  0  0
   35.1200   30.6010   31.1970 H   0  0  0  0  0  0  0  0  0  0  0  0
   33.8610   29.5060   33.9310 C   0  0  0  0  0  3  0  0  0  0  0  0
   35.1990   29.8950   33.8280 C   0  0  0  0  0  0  0  0  0  0  0  0
   35.6650   30.7860   34.7720 C   0  0  0  0  0  0  0  0  0  0  0  0
   36.6950   31.0860   34.6940 H   0  0  0  0  0  0  0  0  0  0  0  0
   34.8780   31.2870   35.7780 C   0  0  0  0  0  0  0  0  0  0  0  0
   35.1690   32.1510   36.7670 N   0  0  0  0  0  0  0  0  0  0  0  0
   34.0440   32.3180   37.4930 C   0  0  0  0  0  0  0  0  0  0  0  0
   34.0440   32.9790   38.3500 H   0  0  0  0  0  0  0  0  0  0  0  0
   33.0660   31.5570   36.9510 N   0  0  0  0  0  0  0  0  0  0  0  0
   33.5470   30.8950   35.8740 C   0  0  0  0  0  0  0  0  0  0  0  0
   33.0600   30.0030   34.9390 C   0  0  0  0  0  3  0  0  0  0  0  0
   36.1000   32.5930   36.9180 H   0  0  0  0  0  0  0  0  0  0  0  0
   38.5520   26.7380   32.1050 O   0  0  0  0  0  0  0  0  0  0  0  0
   37.8790   24.4500   31.7020 C   0  0  0  0  0  0  0  0  0  0  0  0
   37.8460   23.2570   30.9840 C   0  0  0  0  0  0  0  0  0  0  0  0
   38.5810   23.2570   29.8110 C   0  0  0  0  0  0  0  0  0  0  0  0
   39.2920   24.3860   29.4060 C   0  0  0  0  0  0  0  0  0  0  0  0
   39.2810   25.5430   30.1700 C   0  0  0  0  0  0  0  0  0  0  0  0
   38.5600   25.5700   31.3390 C   0  0  0  0  0  0  0  0  0  0  0  0
   38.5610   22.3330   29.2480 H   0  0  0  0  0  0  0  0  0  0  0  0
   39.8390   24.2970   28.4770 H   0  0  0  0  0  0  0  0  0  0  0  0
   39.8440   26.4020   29.8270 H   0  0  0  0  0  0  0  0  0  0  0  0
   35.7280   22.0230   31.2040 C   0  0  0  0  0  0  0  0  0  0  0  0
   37.1080   22.1040   31.4170 C   0  0  0  0  0  0  0  0  0  0  0  0
   37.7330   21.0230   32.0630 C   0  0  0  0  0  0  0  0  0  0  0  0
   36.9620   19.9600   32.4450 N   0  0  0  0  0  0  0  0  0  0  0  0
   35.6230   19.9310   32.2140 C   0  0  0  0  0  0  0  0  0  0  0  0
   35.0100   20.9640   31.5940 N   0  0  0  0  0  0  0  0  0  0  0  0
   35.2090   22.8300   30.7110 H   0  0  0  0  0  0  0  0  0  0  0  0
   38.7800   21.0880   32.2220 H   0  0  0  0  0  0  0  0  0  0  0  0
   34.9940   19.1120   32.5020 H   0  0  0  0  0  0  0  0  0  0  0  0
   37.1550   24.5420   32.9150 O   0  0  0  0  0  0  0  0  0  0  0  0
   36.2000   24.8460   32.9340 H   0  0  0  0  0  0  0  0  0  0  0  0
  2  1  1  0  0  0  0
  3 23  1  0  0  0  0
  3  2  2  0  0  0  0
  4  3  1  0  0  0  0
  5  4  2  0  0  0  0
  5  6  1  0  0  0  0
  6  7  2  0  0  0  0
  7  2  1  0  0  0  0
  7 12  1  0  0  0  0
  8  4  1  0  0  0  0
  9  5  1  0  0  0  0
 10  6  1  0  0  0  0
 11 21  1  0  0  0  0
 12 11  2  0  0  0  0
 12 13  1  0  0  0  0
 13 15  2  0  0  0  0
 14 13  1  0  0  0  0
 15 20  1  0  0  0  0
 15 16  1  0  0  0  0
 16 22  1  0  0  0  0
 16 17  1  0  0  0  0
 17 18  1  0  0  0  0
 19 17  2  0  0  0  0
 20 19  1  0  0  0  0
 21 20  2  0  0  0  0
 24 42  1  0  0  0  0
 25 34  1  0  0  0  0
 25 24  2  0  0  0  0
 26 25  1  0  0  0  0
 27 26  2  0  0  0  0
 27 28  1  0  0  0  0
 28 29  2  0  0  0  0
 29 24  1  0  0  0  0
 29 23  1  0  0  0  0
 30 26  1  0  0  0  0
 31 27  1  0  0  0  0
 32 28  1  0  0  0  0
 33 34  2  0  0  0  0
 33 38  1  0  0  0  0
 34 35  1  0  0  0  0
 35 40  1  0  0  0  0
 35 36  2  0  0  0  0
 37 36  1  0  0  0  0
 37 41  1  0  0  0  0
 38 37  2  0  0  0  0
 39 33  1  0  0  0  0
 42 43  1  0  0  0  0
M  END
>  <minimizedAffinity>
-6.30964947

$$$$

 OpenBabel03272501243D

 43 47  0  0  0  0  0  0  0  0999 V2000
   36.5090   27.9390   34.0750 Cl  0  0  0  0  0  0  0  0  0  0  0  0
   36.8170   28.4290   32.4320 C   0  0  0  0  0  0  0  0  0  0  0  0
   37.9610   27.8830   31.8540 C   0  0  0  0  0  0  0  0  0  0  0  0
   38.2250   28.2610   30.5460 C   0  0  0  0  0  0  0  0  0  0  0  0
   37.4310   29.1220   29.8180 C   0  0  0  0  0  0  0  0  0  0  0  0
   36.3000   29.6490   30.4150 C   0  0  0  0  0  0  0  0  0  0  0  0
   36.0110   29.2880   31.7290 C   0  0  0  0  0  0  0  0  0  0  0  0
   39.0970   27.8850   30.0160 H   0  0  0  0  0  0  0  0  0  0  0  0
   37.6710   29.3900   28.8010 H   0  0  0  0  0  0  0  0  0  0  0  0
   35.6950   30.3160   29.8370 H   0  0  0  0  0  0  0  0  0  0  0  0
   34.9760   31.0170   33.1010 C   0  0  0  0  0  3  0  0  0  0  0  0
   34.8230   29.8340   32.3740 C   0  0  0  0  0  0  0  0  0  0  0  0
   33.5570   29.2870   32.3310 C   0  0  0  0  0  0  0  0  0  0  0  0
   33.4390   28.3760   31.7710 H   0  0  0  0  0  0  0  0  0  0  0  0
   32.4780   29.8520   32.9610 C   0  0  0  0  0  0  0  0  0  0  0  0
   31.1940   29.4540   33.0190 N   0  0  0  0  0  0  0  0  0  0  0  0
   30.5310   30.3610   33.7680 C   0  0  0  0  0  0  0  0  0  0  0  0
   29.4710   30.2430   33.9520 H   0  0  0  0  0  0  0  0  0  0  0  0
   31.4060   31.3120   34.1670 N   0  0  0  0  0  0  0  0  0  0  0  0
   32.6380   31.0300   33.6830 C   0  0  0  0  0  0  0  0  0  0  0  0
   33.8960   31.5950   33.7380 C   0  0  0  0  0  3  0  0  0  0  0  0
   30.8130   28.6010   32.5610 H   0  0  0  0  0  0  0  0  0  0  0  0
   38.8560   27.0210   32.4220 O   0  0  0  0  0  0  0  0  0  0  0  0
   38.7230   25.3780   34.1910 C   0  0  0  0  0  0  0  0  0  0  0  0
   38.4360   24.1220   34.7220 C   0  0  0  0  0  0  0  0  0  0  0  0
   37.9310   23.2040   33.8190 C   0  0  0  0  0  0  0  0  0  0  0  0
   37.7360   23.5420   32.4800 C   0  0  0  0  0  0  0  0  0  0  0  0
   38.0440   24.8120   32.0170 C   0  0  0  0  0  0  0  0  0  0  0  0
   38.5470   25.7430   32.8940 C   0  0  0  0  0  0  0  0  0  0  0  0
   37.7050   22.2260   34.2240 H   0  0  0  0  0  0  0  0  0  0  0  0
   37.3380   22.7630   31.8440 H   0  0  0  0  0  0  0  0  0  0  0  0
   37.8820   25.0420   30.9720 H   0  0  0  0  0  0  0  0  0  0  0  0
   37.6830   24.1250   37.0660 C   0  0  0  0  0  0  0  0  0  0  0  0
   38.6420   23.7920   36.1050 C   0  0  0  0  0  0  0  0  0  0  0  0
   39.8010   23.1270   36.5430 C   0  0  0  0  0  0  0  0  0  0  0  0
   39.9250   22.8470   37.8750 N   0  0  0  0  0  0  0  0  0  0  0  0
   38.9620   23.1940   38.7700 C   0  0  0  0  0  0  0  0  0  0  0  0
   37.8430   23.8330   38.3610 N   0  0  0  0  0  0  0  0  0  0  0  0
   36.7780   24.6350   36.7730 H   0  0  0  0  0  0  0  0  0  0  0  0
   40.5270   22.8750   35.8100 H   0  0  0  0  0  0  0  0  0  0  0  0
   39.0310   22.9870   39.8190 H   0  0  0  0  0  0  0  0  0  0  0  0
   39.2430   26.3810   35.0440 O   0  0  0  0  0  0  0  0  0  0  0  0
   38.6410   27.0060   35.5460 H   0  0  0  0  0  0  0  0  0  0  0  0
  2  1  1  0  0  0  0
  3 23  1  0  0  0  0
  3  2  1  0  0  0  0
  4  3  2  0  0  0  0
  5  6  2  0  0  0  0
  5  4  1  0  0  0  0
  6  7  1  0  0  0  0
  7 12  1  0  0  0  0
  7  2  2  0  0  0  0
  8  4  1  0  0  0  0
  9  5  1  0  0  0  0
 10  6  1  0  0  0  0
 11 21  1  0  0  0  0
 12 11  2  0  0  0  0
 13 12  1  0  0  0  0
 13 15  2  0  0  0  0
 14 13  1  0  0  0  0
 15 16  1  0  0  0  0
 15 20  1  0  0  0  0
 16 17  1  0  0  0  0
 17 18  1  0  0  0  0
 17 19  2  0  0  0  0
 20 21  2  0  0  0  0
 20 19  1  0  0  0  0
 22 16  1  0  0  0  0
 23 29  1  0  0  0  0
 24 25  1  0  0  0  0
 24 42  1  0  0  0  0
 25 34  1  0  0  0  0
 26 30  1  0  0  0  0
 26 25  2  0  0  0  0
 27 26  1  0  0  0  0
 28 27  2  0  0  0  0
 28 29  1  0  0  0  0
 29 24  2  0  0  0  0
 31 27  1  0  0  0  0
 32 28  1  0  0  0  0
 33 38  1  0  0  0  0
 34 35  1  0  0  0  0
 34 33  2  0  0  0  0
 35 36  2  0  0  0  0
 36 37  1  0  0  0  0
 37 41  1  0  0  0  0
 38 37  2  0  0  0  0
 39 33  1  0  0  0  0
 40 35  1  0  0  0  0
 42 43  1  0  0  0  0
M  END
>  <minimizedAffinity>
-6.26382494

$$$$
