
 OpenBabel03272501083D

 43 47  0  0  1  0  0  0  0  0999 V2000
   40.6050   32.0240   44.6180 Cl  0  0  0  0  0  0  0  0  0  0  0  0
   39.0810   31.1760   44.5010 C   0  0  0  0  0  0  0  0  0  0  0  0
   38.1710   31.5050   45.4970 C   0  0  0  0  0  0  0  0  0  0  0  0
   36.9590   30.8450   45.4120 C   0  0  0  0  0  0  0  0  0  0  0  0
   36.6830   29.9330   44.4110 C   0  0  0  0  0  0  0  0  0  0  0  0
   37.6220   29.6520   43.4570 C   0  0  0  0  0  0  0  0  0  0  0  0
   38.8360   30.2800   43.5010 C   0  0  0  0  0  0  0  0  0  0  0  0
   36.1310   30.9700   46.0940 H   0  0  0  0  0  0  0  0  0  0  0  0
   35.7460   29.4010   44.3180 H   0  0  0  0  0  0  0  0  0  0  0  0
   37.4270   28.9410   42.6670 H   0  0  0  0  0  0  0  0  0  0  0  0
   40.9540   29.1550   42.5490 C   0  0  0  0  0  3  0  0  0  0  0  0
   39.8820   30.0230   42.5140 C   0  0  0  0  0  0  0  0  0  0  0  0
   39.6920   30.8260   41.3850 C   0  0  0  0  0  0  0  0  0  0  0  0
   38.8970   31.5490   41.2230 H   0  0  0  0  0  0  0  0  0  0  0  0
   40.5540   30.7710   40.3030 C   0  0  0  0  0  0  0  0  0  0  0  0
   40.6660   31.3750   39.1050 N   0  0  0  0  0  0  0  0  0  0  0  0
   41.7530   30.9020   38.4380 C   0  0  0  0  0  0  0  0  0  0  0  0
   42.0830   31.2100   37.4530 H   0  0  0  0  0  0  0  0  0  0  0  0
   42.3370   29.9930   39.2120 N   0  0  0  0  0  0  0  0  0  0  0  0
   41.6260   29.8890   40.3610 C   0  0  0  0  0  0  0  0  0  0  0  0
   41.8080   29.1040   41.4720 C   0  0  0  0  0  3  0  0  0  0  0  0
   40.0050   32.1030   38.7510 H   0  0  0  0  0  0  0  0  0  0  0  0
   38.2240   32.3490   46.5490 O   0  0  0  0  0  0  0  0  0  0  0  0
   38.9440   32.4770   47.6870 C   0  0  2  0  0  0  0  0  0  0  0  0
   38.0410   32.7670   48.9300 C   0  0  2  0  0  0  0  0  0  0  0  0
   38.9720   33.4870   49.7820 C   0  0  0  0  0  0  0  0  0  0  0  0
   39.7980   34.2600   48.9750 O   0  0  0  0  0  0  0  0  0  0  0  0
   39.6310   33.8730   47.6820 C   0  0  0  0  0  0  0  0  0  0  0  0
   39.6860   31.7330   47.9600 H   0  0  0  0  0  0  0  0  0  0  0  0
   37.2240   33.4610   48.5720 H   0  0  0  0  0  0  0  0  0  0  0  0
   38.4010   34.1950   50.4400 H   0  0  0  0  0  0  0  0  0  0  0  0
   39.6090   32.9110   50.4480 H   0  0  0  0  0  0  0  0  0  0  0  0
   39.0330   34.5870   47.0950 H   0  0  0  0  0  0  0  0  0  0  0  0
   40.6050   33.7410   47.1710 H   0  0  0  0  0  0  0  0  0  0  0  0
   37.3730   29.6290   50.8930 C   0  0  0  0  0  0  0  0  0  0  0  0
   38.0430   30.8010   50.4480 C   0  0  0  0  0  0  0  0  0  0  0  0
   37.4070   31.5770   49.4330 C   0  0  0  0  0  0  0  0  0  0  0  0
   36.1910   31.1620   48.9380 N   0  0  0  0  0  0  0  0  0  0  0  0
   35.6040   30.0500   49.3930 C   0  0  0  0  0  0  0  0  0  0  0  0
   36.1710   29.2800   50.3580 N   0  0  0  0  0  0  0  0  0  0  0  0
   37.8760   29.0640   51.6600 H   0  0  0  0  0  0  0  0  0  0  0  0
   38.9970   31.0810   50.8710 H   0  0  0  0  0  0  0  0  0  0  0  0
   34.6490   29.7470   48.9870 H   0  0  0  0  0  0  0  0  0  0  0  0
  2  1  1  0  0  0  0
  2  3  1  0  0  0  0
  3 23  1  0  0  0  0
  4  3  2  0  0  0  0
  4  8  1  0  0  0  0
  5  4  1  0  0  0  0
  6  7  1  0  0  0  0
  6  5  2  0  0  0  0
  7  2  2  0  0  0  0
  9  5  1  0  0  0  0
 10  6  1  0  0  0  0
 12 11  1  0  0  0  0
 12  7  1  0  0  0  0
 13 12  2  0  0  0  0
 14 13  1  0  0  0  0
 15 20  2  0  0  0  0
 15 13  1  0  0  0  0
 16 15  1  0  0  0  0
 17 16  1  0  0  0  0
 17 19  2  0  0  0  0
 18 17  1  0  0  0  0
 19 20  1  0  0  0  0
 20 21  1  0  0  0  0
 21 11  2  0  0  0  0
 22 16  1  0  0  0  0
 23 24  1  0  0  0  0
 24 29  1  1  0  0  0
 24 25  1  0  0  0  0
 25 30  1  6  0  0  0
 25 37  1  0  0  0  0
 25 26  1  0  0  0  0
 26 31  1  0  0  0  0
 26 32  1  0  0  0  0
 27 26  1  0  0  0  0
 28 24  1  0  0  0  0
 28 27  1  0  0  0  0
 33 28  1  0  0  0  0
 34 28  1  0  0  0  0
 35 41  1  0  0  0  0
 36 42  1  0  0  0  0
 36 35  1  0  0  0  0
 37 36  2  0  0  0  0
 38 39  2  0  0  0  0
 38 37  1  0  0  0  0
 39 40  1  0  0  0  0
 40 35  2  0  0  0  0
 43 39  1  0  0  0  0
M  END
>  <minimizedAffinity>
-6.54501152

>  <minimizedRMSD>
1.13244867

$$$$
