
 OpenBabel03272510033D

 24 26  0  0  0  0  0  0  0  0999 V2000
   39.5160   22.5300   35.2060 C   0  0  0  0  0  0  0  0  0  0  0  0
   39.0500   23.5120   34.3290 C   0  0  0  0  0  0  0  0  0  0  0  0
   38.3210   24.5630   34.8630 C   0  0  0  0  0  0  0  0  0  0  0  0
   38.0990   24.5860   36.1980 N   0  0  0  0  0  0  0  0  0  0  0  0
   38.5660   23.6150   37.0200 C   0  0  0  0  0  0  0  0  0  0  0  0
   39.2730   22.5920   36.5130 N   0  0  0  0  0  0  0  0  0  0  0  0
   40.0810   21.7270   34.7440 H   0  0  0  0  0  0  0  0  0  0  0  0
   39.2390   23.4680   33.2860 H   0  0  0  0  0  0  0  0  0  0  0  0
   37.2860   26.7480   34.7210 C   0  0  0  0  0  3  0  0  0  0  0  0
   37.7830   25.6460   34.0550 C   0  0  0  0  0  0  0  0  0  0  0  0
   37.7440   25.6330   32.6950 C   0  0  0  0  0  0  0  0  0  0  0  0
   38.1170   24.8010   32.1500 H   0  0  0  0  0  0  0  0  0  0  0  0
   37.2310   26.6660   31.9300 C   0  0  0  0  0  0  0  0  0  0  0  0
   37.1020   26.8430   30.5890 N   0  0  0  0  0  0  0  0  0  0  0  0
   36.5270   28.0500   30.4160 C   0  0  0  0  0  0  0  0  0  0  0  0
   36.3340   28.3850   29.4070 H   0  0  0  0  0  0  0  0  0  0  0  0
   36.2990   28.6190   31.6250 N   0  0  0  0  0  0  0  0  0  0  0  0
   36.7240   27.7860   32.5920 C   0  0  0  0  0  0  0  0  0  0  0  0
   36.7600   27.8100   33.9830 C   0  0  0  0  0  3  0  0  0  0  0  0
   37.4120   26.1330   29.8610 H   0  0  0  0  0  0  0  0  0  0  0  0
   38.2600   23.7470   38.4650 C   0  0  0  0  0  0  0  0  0  0  0  0
   37.3130   22.8140   38.8820 F   0  0  0  0  0  0  0  0  0  0  0  0
   39.3810   23.5150   39.2490 F   0  0  0  0  0  0  0  0  0  0  0  0
   37.7850   24.9820   38.8210 F   0  0  0  0  0  0  0  0  0  0  0  0
  1  6  1  0  0  0  0
  2  3  1  0  0  0  0
  2  1  2  0  0  0  0
  3  4  2  0  0  0  0
  4  5  1  0  0  0  0
  5 21  1  0  0  0  0
  6  5  2  0  0  0  0
  7  1  1  0  0  0  0
  8  2  1  0  0  0  0
 10  9  1  0  0  0  0
 10  3  1  0  0  0  0
 11 10  2  0  0  0  0
 12 11  1  0  0  0  0
 13 18  2  0  0  0  0
 13 11  1  0  0  0  0
 14 13  1  0  0  0  0
 15 14  1  0  0  0  0
 15 17  2  0  0  0  0
 16 15  1  0  0  0  0
 17 18  1  0  0  0  0
 18 19  1  0  0  0  0
 19  9  2  0  0  0  0
 20 14  1  0  0  0  0
 21 24  1  0  0  0  0
 21 22  1  0  0  0  0
 21 23  1  0  0  0  0
M  END
>  <minimizedAffinity>
-5.73091269

$$$$

 OpenBabel03272510033D

 24 26  0  0  0  0  0  0  0  0999 V2000
   39.5320   22.9320   35.1910 C   0  0  0  0  0  0  0  0  0  0  0  0
   38.9800   23.9290   34.3840 C   0  0  0  0  0  0  0  0  0  0  0  0
   38.1850   24.8890   34.9930 C   0  0  0  0  0  0  0  0  0  0  0  0
   37.9870   24.8120   36.3290 N   0  0  0  0  0  0  0  0  0  0  0  0
   38.5380   23.8300   37.0830 C   0  0  0  0  0  0  0  0  0  0  0  0
   39.3090   22.8960   36.5030 N   0  0  0  0  0  0  0  0  0  0  0  0
   40.1460   22.2040   34.6720 H   0  0  0  0  0  0  0  0  0  0  0  0
   39.1520   23.9640   33.3380 H   0  0  0  0  0  0  0  0  0  0  0  0
   37.4590   25.8480   32.8920 C   0  0  0  0  0  3  0  0  0  0  0  0
   37.5540   25.9760   34.2620 C   0  0  0  0  0  0  0  0  0  0  0  0
   37.0570   27.0990   34.8490 C   0  0  0  0  0  0  0  0  0  0  0  0
   37.1130   27.2310   35.9010 H   0  0  0  0  0  0  0  0  0  0  0  0
   36.4570   28.1320   34.1490 C   0  0  0  0  0  0  0  0  0  0  0  0
   35.9100   29.3120   34.5390 N   0  0  0  0  0  0  0  0  0  0  0  0
   35.4740   29.9200   33.4170 C   0  0  0  0  0  0  0  0  0  0  0  0
   34.9990   30.8870   33.5110 H   0  0  0  0  0  0  0  0  0  0  0  0
   35.7430   29.1370   32.3440 N   0  0  0  0  0  0  0  0  0  0  0  0
   36.3560   28.0140   32.7610 C   0  0  0  0  0  0  0  0  0  0  0  0
   36.8610   26.8690   32.1510 C   0  0  0  0  0  3  0  0  0  0  0  0
   35.8600   29.6430   35.5480 H   0  0  0  0  0  0  0  0  0  0  0  0
   38.2490   23.8500   38.5370 C   0  0  0  0  0  0  0  0  0  0  0  0
   37.3250   22.8700   38.8950 F   0  0  0  0  0  0  0  0  0  0  0  0
   39.3850   23.5830   39.2870 F   0  0  0  0  0  0  0  0  0  0  0  0
   37.7560   25.0460   38.9880 F   0  0  0  0  0  0  0  0  0  0  0  0
  1  6  1  0  0  0  0
  2  3  1  0  0  0  0
  2  1  2  0  0  0  0
  3  4  2  0  0  0  0
  4  5  1  0  0  0  0
  5 21  1  0  0  0  0
  6  5  2  0  0  0  0
  7  1  1  0  0  0  0
  8  2  1  0  0  0  0
  9 10  1  0  0  0  0
 10 11  2  0  0  0  0
 10  3  1  0  0  0  0
 11 12  1  0  0  0  0
 13 14  1  0  0  0  0
 13 11  1  0  0  0  0
 14 20  1  0  0  0  0
 15 16  1  0  0  0  0
 15 14  1  0  0  0  0
 17 18  1  0  0  0  0
 17 15  2  0  0  0  0
 18 13  2  0  0  0  0
 19 18  1  0  0  0  0
 19  9  2  0  0  0  0
 21 22  1  0  0  0  0
 21 24  1  0  0  0  0
 21 23  1  0  0  0  0
M  END
>  <minimizedAffinity>
-5.63630295

$$$$

 OpenBabel03272510033D

 24 26  0  0  0  0  0  0  0  0999 V2000
   38.3690   23.6510   38.5550 C   0  0  0  0  0  0  0  0  0  0  0  0
   37.8340   24.4870   37.5730 C   0  0  0  0  0  0  0  0  0  0  0  0
   38.4790   24.5410   36.3460 C   0  0  0  0  0  0  0  0  0  0  0  0
   39.5870   23.7860   36.1640 N   0  0  0  0  0  0  0  0  0  0  0  0
   40.0800   22.9860   37.1400 C   0  0  0  0  0  0  0  0  0  0  0  0
   39.4630   22.9260   38.3310 N   0  0  0  0  0  0  0  0  0  0  0  0
   37.8320   23.6400   39.4980 H   0  0  0  0  0  0  0  0  0  0  0  0
   36.9630   25.0680   37.7440 H   0  0  0  0  0  0  0  0  0  0  0  0
   37.7220   26.6890   35.5250 C   0  0  0  0  0  3  0  0  0  0  0  0
   38.0190   25.3710   35.2450 C   0  0  0  0  0  0  0  0  0  0  0  0
   37.8690   24.9250   33.9670 C   0  0  0  0  0  0  0  0  0  0  0  0
   38.0890   23.9170   33.7160 H   0  0  0  0  0  0  0  0  0  0  0  0
   37.4320   25.7200   32.9220 C   0  0  0  0  0  0  0  0  0  0  0  0
   37.2190   25.4720   31.6030 N   0  0  0  0  0  0  0  0  0  0  0  0
   36.7910   26.6290   31.0600 C   0  0  0  0  0  0  0  0  0  0  0  0
   36.5620   26.6450   30.0040 H   0  0  0  0  0  0  0  0  0  0  0  0
   36.7350   27.5850   32.0200 N   0  0  0  0  0  0  0  0  0  0  0  0
   37.1270   27.0550   33.1930 C   0  0  0  0  0  0  0  0  0  0  0  0
   37.2780   27.5220   34.4960 C   0  0  0  0  0  3  0  0  0  0  0  0
   37.3770   24.5280   31.1410 H   0  0  0  0  0  0  0  0  0  0  0  0
   41.3000   22.2050   36.8230 C   0  0  0  0  0  0  0  0  0  0  0  0
   41.2150   21.5930   35.5750 F   0  0  0  0  0  0  0  0  0  0  0  0
   42.4250   23.0150   36.7640 F   0  0  0  0  0  0  0  0  0  0  0  0
   41.5780   21.2180   37.7320 F   0  0  0  0  0  0  0  0  0  0  0  0
  1  7  1  0  0  0  0
  2  8  1  0  0  0  0
  2  1  2  0  0  0  0
  3  2  1  0  0  0  0
  4  3  2  0  0  0  0
  4  5  1  0  0  0  0
  5  6  2  0  0  0  0
  6  1  1  0  0  0  0
 10  9  1  0  0  0  0
 10  3  1  0  0  0  0
 11 10  2  0  0  0  0
 12 11  1  0  0  0  0
 13 18  2  0  0  0  0
 13 11  1  0  0  0  0
 14 13  1  0  0  0  0
 15 14  1  0  0  0  0
 15 17  2  0  0  0  0
 16 15  1  0  0  0  0
 17 18  1  0  0  0  0
 18 19  1  0  0  0  0
 19  9  2  0  0  0  0
 20 14  1  0  0  0  0
 21  5  1  0  0  0  0
 21 24  1  0  0  0  0
 22 21  1  0  0  0  0
 23 21  1  0  0  0  0
M  END
>  <minimizedAffinity>
-5.31122637

$$$$

 OpenBabel03272510033D

 24 26  0  0  0  0  0  0  0  0999 V2000
   39.2500   24.7890   34.8580 C   0  0  0  0  0  0  0  0  0  0  0  0
   38.6890   23.8080   34.0370 C   0  0  0  0  0  0  0  0  0  0  0  0
   37.9600   22.7960   34.6440 C   0  0  0  0  0  0  0  0  0  0  0  0
   37.8290   22.8100   35.9910 N   0  0  0  0  0  0  0  0  0  0  0  0
   38.3880   23.7780   36.7570 C   0  0  0  0  0  0  0  0  0  0  0  0
   39.0950   24.7620   36.1800 N   0  0  0  0  0  0  0  0  0  0  0  0
   39.8110   25.5600   34.3400 H   0  0  0  0  0  0  0  0  0  0  0  0
   38.8090   23.8220   32.9830 H   0  0  0  0  0  0  0  0  0  0  0  0
   36.2180   21.1240   34.4630 C   0  0  0  0  0  3  0  0  0  0  0  0
   37.3280   21.7190   33.8990 C   0  0  0  0  0  0  0  0  0  0  0  0
   37.7650   21.2720   32.6900 C   0  0  0  0  0  0  0  0  0  0  0  0
   38.6160   21.7060   32.2270 H   0  0  0  0  0  0  0  0  0  0  0  0
   37.1600   20.2460   31.9840 C   0  0  0  0  0  0  0  0  0  0  0  0
   37.4350   19.6630   30.7890 N   0  0  0  0  0  0  0  0  0  0  0  0
   36.5020   18.7070   30.6050 C   0  0  0  0  0  0  0  0  0  0  0  0
   36.5440   18.1180   29.7000 H   0  0  0  0  0  0  0  0  0  0  0  0
   35.6570   18.6910   31.6660 N   0  0  0  0  0  0  0  0  0  0  0  0
   36.0360   19.6350   32.5450 C   0  0  0  0  0  0  0  0  0  0  0  0
   35.5810   20.0860   33.7810 C   0  0  0  0  0  3  0  0  0  0  0  0
   38.2440   19.9460   30.1590 H   0  0  0  0  0  0  0  0  0  0  0  0
   38.1760   23.6880   38.2220 C   0  0  0  0  0  0  0  0  0  0  0  0
   39.3550   23.3820   38.8980 F   0  0  0  0  0  0  0  0  0  0  0  0
   37.7450   24.8950   38.7510 F   0  0  0  0  0  0  0  0  0  0  0  0
   37.2510   22.7470   38.5910 F   0  0  0  0  0  0  0  0  0  0  0  0
  1  6  1  0  0  0  0
  2  3  1  0  0  0  0
  2  1  2  0  0  0  0
  3  4  2  0  0  0  0
  4  5  1  0  0  0  0
  5 21  1  0  0  0  0
  6  5  2  0  0  0  0
  7  1  1  0  0  0  0
  8  2  1  0  0  0  0
 10  9  1  0  0  0  0
 10  3  1  0  0  0  0
 11 10  2  0  0  0  0
 12 11  1  0  0  0  0
 13 18  2  0  0  0  0
 13 11  1  0  0  0  0
 14 13  1  0  0  0  0
 15 14  1  0  0  0  0
 15 17  2  0  0  0  0
 16 15  1  0  0  0  0
 17 18  1  0  0  0  0
 18 19  1  0  0  0  0
 19  9  2  0  0  0  0
 20 14  1  0  0  0  0
 21 24  1  0  0  0  0
 21 23  1  0  0  0  0
 21 22  1  0  0  0  0
M  END
>  <minimizedAffinity>
-5.21848774

$$$$

 OpenBabel03272510033D

 24 26  0  0  0  0  0  0  0  0999 V2000
   36.9270   27.8820   34.4610 C   0  0  0  0  0  0  0  0  0  0  0  0
   37.6280   27.0130   35.3000 C   0  0  0  0  0  0  0  0  0  0  0  0
   37.8920   25.7340   34.8320 C   0  0  0  0  0  0  0  0  0  0  0  0
   37.4610   25.3950   33.5950 N   0  0  0  0  0  0  0  0  0  0  0  0
   36.7820   26.2640   32.8080 C   0  0  0  0  0  0  0  0  0  0  0  0
   36.5210   27.5040   33.2510 N   0  0  0  0  0  0  0  0  0  0  0  0
   36.7420   28.8710   34.8680 H   0  0  0  0  0  0  0  0  0  0  0  0
   37.9540   27.3060   36.2660 H   0  0  0  0  0  0  0  0  0  0  0  0
   38.1050   24.4130   36.8500 C   0  0  0  0  0  3  0  0  0  0  0  0
   38.6130   24.7390   35.6100 C   0  0  0  0  0  0  0  0  0  0  0  0
   39.7480   24.1180   35.1840 C   0  0  0  0  0  0  0  0  0  0  0  0
   40.1660   24.3440   34.2350 H   0  0  0  0  0  0  0  0  0  0  0  0
   40.4300   23.1710   35.9280 C   0  0  0  0  0  0  0  0  0  0  0  0
   41.5570   22.4500   35.6890 N   0  0  0  0  0  0  0  0  0  0  0  0
   41.7530   21.6760   36.7760 C   0  0  0  0  0  0  0  0  0  0  0  0
   42.6100   21.0170   36.7870 H   0  0  0  0  0  0  0  0  0  0  0  0
   40.7690   21.9070   37.6790 N   0  0  0  0  0  0  0  0  0  0  0  0
   39.9270   22.8330   37.1860 C   0  0  0  0  0  0  0  0  0  0  0  0
   38.7660   23.4620   37.6290 C   0  0  0  0  0  3  0  0  0  0  0  0
   42.1330   22.5210   34.7990 H   0  0  0  0  0  0  0  0  0  0  0  0
   36.3610   25.7790   31.4710 C   0  0  0  0  0  0  0  0  0  0  0  0
   37.3910   25.1090   30.8140 F   0  0  0  0  0  0  0  0  0  0  0  0
   35.3210   24.8650   31.5630 F   0  0  0  0  0  0  0  0  0  0  0  0
   35.9330   26.7730   30.6310 F   0  0  0  0  0  0  0  0  0  0  0  0
  1  7  1  0  0  0  0
  1  2  1  0  0  0  0
  2  8  1  0  0  0  0
  3  2  2  0  0  0  0
  3 10  1  0  0  0  0
  4  3  1  0  0  0  0
  5  6  1  0  0  0  0
  5  4  2  0  0  0  0
  6  1  2  0  0  0  0
  9 19  1  0  0  0  0
 10  9  2  0  0  0  0
 11 10  1  0  0  0  0
 11 13  2  0  0  0  0
 12 11  1  0  0  0  0
 13 18  1  0  0  0  0
 14 13  1  0  0  0  0
 14 15  1  0  0  0  0
 15 16  1  0  0  0  0
 15 17  2  0  0  0  0
 18 19  2  0  0  0  0
 18 17  1  0  0  0  0
 20 14  1  0  0  0  0
 21 23  1  0  0  0  0
 21  5  1  0  0  0  0
 22 21  1  0  0  0  0
 24 21  1  0  0  0  0
M  END
>  <minimizedAffinity>
-5.21186209

$$$$

 OpenBabel03272510033D

 24 26  0  0  0  0  0  0  0  0999 V2000
   37.1050   27.6080   32.3990 C   0  0  0  0  0  0  0  0  0  0  0  0
   36.2060   28.5830   32.8370 C   0  0  0  0  0  0  0  0  0  0  0  0
   36.1970   28.8970   34.1870 C   0  0  0  0  0  0  0  0  0  0  0  0
   37.0540   28.2470   35.0080 N   0  0  0  0  0  0  0  0  0  0  0  0
   37.9130   27.3050   34.5510 C   0  0  0  0  0  0  0  0  0  0  0  0
   37.9300   26.9940   33.2440 N   0  0  0  0  0  0  0  0  0  0  0  0
   37.0770   27.3950   31.3360 H   0  0  0  0  0  0  0  0  0  0  0  0
   35.5450   29.0770   32.1690 H   0  0  0  0  0  0  0  0  0  0  0  0
   34.0370   29.9890   34.2390 C   0  0  0  0  0  3  0  0  0  0  0  0
   35.3090   29.8940   34.7640 C   0  0  0  0  0  0  0  0  0  0  0  0
   35.6600   30.7270   35.7820 C   0  0  0  0  0  0  0  0  0  0  0  0
   36.6310   30.6810   36.2090 H   0  0  0  0  0  0  0  0  0  0  0  0
   34.8120   31.6740   36.3280 C   0  0  0  0  0  0  0  0  0  0  0  0
   34.9660   32.5830   37.3250 N   0  0  0  0  0  0  0  0  0  0  0  0
   33.7960   33.2450   37.4250 C   0  0  0  0  0  0  0  0  0  0  0  0
   33.7090   34.0220   38.1710 H   0  0  0  0  0  0  0  0  0  0  0  0
   32.9230   32.7610   36.5070 N   0  0  0  0  0  0  0  0  0  0  0  0
   33.5210   31.7820   35.8050 C   0  0  0  0  0  0  0  0  0  0  0  0
   33.1520   30.9330   34.7640 C   0  0  0  0  0  3  0  0  0  0  0  0
   35.8600   32.7060   37.8880 H   0  0  0  0  0  0  0  0  0  0  0  0
   38.8040   26.6610   35.5450 C   0  0  0  0  0  0  0  0  0  0  0  0
   40.1170   27.1160   35.4370 F   0  0  0  0  0  0  0  0  0  0  0  0
   38.4160   26.9510   36.8450 F   0  0  0  0  0  0  0  0  0  0  0  0
   38.8490   25.2950   35.4470 F   0  0  0  0  0  0  0  0  0  0  0  0
  1  2  2  0  0  0  0
  1  6  1  0  0  0  0
  2  3  1  0  0  0  0
  3 10  1  0  0  0  0
  3  4  2  0  0  0  0
  5  4  1  0  0  0  0
  5 21  1  0  0  0  0
  6  5  2  0  0  0  0
  7  1  1  0  0  0  0
  8  2  1  0  0  0  0
  9 10  2  0  0  0  0
  9 19  1  0  0  0  0
 10 11  1  0  0  0  0
 11 12  1  0  0  0  0
 11 13  2  0  0  0  0
 13 14  1  0  0  0  0
 14 15  1  0  0  0  0
 14 20  1  0  0  0  0
 15 16  1  0  0  0  0
 17 15  2  0  0  0  0
 18 13  1  0  0  0  0
 18 17  1  0  0  0  0
 19 18  2  0  0  0  0
 21 23  1  0  0  0  0
 22 21  1  0  0  0  0
 24 21  1  0  0  0  0
M  END
>  <minimizedAffinity>
-5.18348312

$$$$

 OpenBabel03272510033D

 24 26  0  0  0  0  0  0  0  0999 V2000
   37.1800   27.5800   33.0010 C   0  0  0  0  0  0  0  0  0  0  0  0
   38.1430   26.9730   33.8100 C   0  0  0  0  0  0  0  0  0  0  0  0
   38.2840   25.5970   33.7280 C   0  0  0  0  0  0  0  0  0  0  0  0
   37.4870   24.9140   32.8740 N   0  0  0  0  0  0  0  0  0  0  0  0
   36.5610   25.5340   32.1030 C   0  0  0  0  0  0  0  0  0  0  0  0
   36.4170   26.8670   32.1750 N   0  0  0  0  0  0  0  0  0  0  0  0
   37.1050   28.6580   33.0980 H   0  0  0  0  0  0  0  0  0  0  0  0
   38.7540   27.5350   34.4710 H   0  0  0  0  0  0  0  0  0  0  0  0
   40.5740   25.2260   34.4210 C   0  0  0  0  0  3  0  0  0  0  0  0
   39.2500   24.8500   34.5180 C   0  0  0  0  0  0  0  0  0  0  0  0
   38.9240   23.8140   35.3390 C   0  0  0  0  0  0  0  0  0  0  0  0
   37.9150   23.4990   35.4380 H   0  0  0  0  0  0  0  0  0  0  0  0
   39.8470   23.1070   36.0890 C   0  0  0  0  0  0  0  0  0  0  0  0
   39.7280   22.0630   36.9500 N   0  0  0  0  0  0  0  0  0  0  0  0
   40.9720   21.7860   37.3900 C   0  0  0  0  0  0  0  0  0  0  0  0
   41.0970   20.9760   38.0940 H   0  0  0  0  0  0  0  0  0  0  0  0
   41.8550   22.6400   36.8160 N   0  0  0  0  0  0  0  0  0  0  0  0
   41.1900   23.4770   35.9990 C   0  0  0  0  0  0  0  0  0  0  0  0
   41.5350   24.5360   35.1630 C   0  0  0  0  0  3  0  0  0  0  0  0
   38.8060   21.5930   37.1950 H   0  0  0  0  0  0  0  0  0  0  0  0
   35.7460   24.6810   31.2060 C   0  0  0  0  0  0  0  0  0  0  0  0
   34.9450   25.4400   30.3550 F   0  0  0  0  0  0  0  0  0  0  0  0
   36.5420   23.9060   30.3740 F   0  0  0  0  0  0  0  0  0  0  0  0
   34.9140   23.8160   31.8670 F   0  0  0  0  0  0  0  0  0  0  0  0
  1  7  1  0  0  0  0
  1  2  1  0  0  0  0
  2  8  1  0  0  0  0
  3  2  2  0  0  0  0
  3 10  1  0  0  0  0
  4  3  1  0  0  0  0
  5  6  1  0  0  0  0
  5  4  2  0  0  0  0
  6  1  2  0  0  0  0
  9 10  2  0  0  0  0
  9 19  1  0  0  0  0
 10 11  1  0  0  0  0
 11 12  1  0  0  0  0
 11 13  2  0  0  0  0
 13 14  1  0  0  0  0
 14 20  1  0  0  0  0
 14 15  1  0  0  0  0
 15 16  1  0  0  0  0
 17 15  2  0  0  0  0
 18 13  1  0  0  0  0
 18 17  1  0  0  0  0
 19 18  2  0  0  0  0
 21 24  1  0  0  0  0
 21  5  1  0  0  0  0
 22 21  1  0  0  0  0
 23 21  1  0  0  0  0
M  END
>  <minimizedAffinity>
-5.16183853

$$$$

 OpenBabel03272510033D

 24 26  0  0  0  0  0  0  0  0999 V2000
   36.0350   23.5640   31.1910 C   0  0  0  0  0  0  0  0  0  0  0  0
   37.1010   23.7990   32.0620 C   0  0  0  0  0  0  0  0  0  0  0  0
   37.4510   22.7870   32.9430 C   0  0  0  0  0  0  0  0  0  0  0  0
   36.7480   21.6320   32.9150 N   0  0  0  0  0  0  0  0  0  0  0  0
   35.7180   21.4380   32.0570 C   0  0  0  0  0  0  0  0  0  0  0  0
   35.3700   22.4100   31.1990 N   0  0  0  0  0  0  0  0  0  0  0  0
   35.7960   24.3820   30.5190 H   0  0  0  0  0  0  0  0  0  0  0  0
   37.6340   24.7160   32.0610 H   0  0  0  0  0  0  0  0  0  0  0  0
   39.5110   23.8560   33.6350 C   0  0  0  0  0  3  0  0  0  0  0  0
   38.5420   22.9100   33.8970 C   0  0  0  0  0  0  0  0  0  0  0  0
   38.6560   22.1530   35.0230 C   0  0  0  0  0  0  0  0  0  0  0  0
   37.9290   21.4150   35.2560 H   0  0  0  0  0  0  0  0  0  0  0  0
   39.6960   22.2740   35.9290 C   0  0  0  0  0  0  0  0  0  0  0  0
   39.9880   21.6270   37.0870 N   0  0  0  0  0  0  0  0  0  0  0  0
   41.1350   22.1650   37.5480 C   0  0  0  0  0  0  0  0  0  0  0  0
   41.5430   21.7840   38.4720 H   0  0  0  0  0  0  0  0  0  0  0  0
   41.5550   23.1310   36.6940 N   0  0  0  0  0  0  0  0  0  0  0  0
   40.6840   23.2270   35.6730 C   0  0  0  0  0  0  0  0  0  0  0  0
   40.5750   24.0070   34.5250 C   0  0  0  0  0  3  0  0  0  0  0  0
   39.3910   20.8520   37.5050 H   0  0  0  0  0  0  0  0  0  0  0  0
   35.0220   20.1300   32.1190 C   0  0  0  0  0  0  0  0  0  0  0  0
   33.6490   20.2630   31.9250 F   0  0  0  0  0  0  0  0  0  0  0  0
   35.4580   19.2700   31.1210 F   0  0  0  0  0  0  0  0  0  0  0  0
   35.1920   19.4670   33.3070 F   0  0  0  0  0  0  0  0  0  0  0  0
  1  6  2  0  0  0  0
  1  2  1  0  0  0  0
  2  3  2  0  0  0  0
  3 10  1  0  0  0  0
  4  3  1  0  0  0  0
  5 21  1  0  0  0  0
  5  4  2  0  0  0  0
  6  5  1  0  0  0  0
  7  1  1  0  0  0  0
  8  2  1  0  0  0  0
  9 10  2  0  0  0  0
  9 19  1  0  0  0  0
 10 11  1  0  0  0  0
 11 12  1  0  0  0  0
 11 13  2  0  0  0  0
 13 14  1  0  0  0  0
 14 20  1  0  0  0  0
 14 15  1  0  0  0  0
 15 16  1  0  0  0  0
 17 15  2  0  0  0  0
 18 13  1  0  0  0  0
 18 17  1  0  0  0  0
 19 18  2  0  0  0  0
 21 24  1  0  0  0  0
 22 21  1  0  0  0  0
 23 21  1  0  0  0  0
M  END
>  <minimizedAffinity>
-5.08323717

$$$$

 OpenBabel03272510033D

 24 26  0  0  0  0  0  0  0  0999 V2000
   36.9420   28.2250   31.8170 C   0  0  0  0  0  0  0  0  0  0  0  0
   37.4890   27.1260   32.4830 C   0  0  0  0  0  0  0  0  0  0  0  0
   37.3170   27.0490   33.8560 C   0  0  0  0  0  0  0  0  0  0  0  0
   36.6310   28.0360   34.4790 N   0  0  0  0  0  0  0  0  0  0  0  0
   36.1140   29.0890   33.8030 C   0  0  0  0  0  0  0  0  0  0  0  0
   36.2750   29.1730   32.4720 N   0  0  0  0  0  0  0  0  0  0  0  0
   37.1010   28.2430   30.7440 H   0  0  0  0  0  0  0  0  0  0  0  0
   38.0230   26.3670   31.9680 H   0  0  0  0  0  0  0  0  0  0  0  0
   38.6130   25.0100   34.0210 C   0  0  0  0  0  3  0  0  0  0  0  0
   37.8390   25.9560   34.6610 C   0  0  0  0  0  0  0  0  0  0  0  0
   37.6100   25.8170   35.9960 C   0  0  0  0  0  0  0  0  0  0  0  0
   37.0190   26.5260   36.5210 H   0  0  0  0  0  0  0  0  0  0  0  0
   38.1090   24.7750   36.7580 C   0  0  0  0  0  0  0  0  0  0  0  0
   37.9970   24.4620   38.0750 N   0  0  0  0  0  0  0  0  0  0  0  0
   38.6980   23.3240   38.2580 C   0  0  0  0  0  0  0  0  0  0  0  0
   38.7350   22.9010   39.2520 H   0  0  0  0  0  0  0  0  0  0  0  0
   39.2380   22.9320   37.0780 N   0  0  0  0  0  0  0  0  0  0  0  0
   38.8920   23.8110   36.1210 C   0  0  0  0  0  0  0  0  0  0  0  0
   39.1340   23.9440   34.7560 C   0  0  0  0  0  3  0  0  0  0  0  0
   37.4500   25.0380   38.7810 H   0  0  0  0  0  0  0  0  0  0  0  0
   35.3820   30.1080   34.5930 C   0  0  0  0  0  0  0  0  0  0  0  0
   36.1260   30.5500   35.6850 F   0  0  0  0  0  0  0  0  0  0  0  0
   35.1140   31.2430   33.8410 F   0  0  0  0  0  0  0  0  0  0  0  0
   34.1790   29.6710   35.0820 F   0  0  0  0  0  0  0  0  0  0  0  0
  1  6  2  0  0  0  0
  1  2  1  0  0  0  0
  2  3  2  0  0  0  0
  3  4  1  0  0  0  0
  3 10  1  0  0  0  0
  5  4  2  0  0  0  0
  5 21  1  0  0  0  0
  6  5  1  0  0  0  0
  7  1  1  0  0  0  0
  8  2  1  0  0  0  0
  9 10  2  0  0  0  0
  9 19  1  0  0  0  0
 10 11  1  0  0  0  0
 11 12  1  0  0  0  0
 11 13  2  0  0  0  0
 13 14  1  0  0  0  0
 14 15  1  0  0  0  0
 14 20  1  0  0  0  0
 15 16  1  0  0  0  0
 17 15  2  0  0  0  0
 18 13  1  0  0  0  0
 18 17  1  0  0  0  0
 19 18  2  0  0  0  0
 21 24  1  0  0  0  0
 21 22  1  0  0  0  0
 23 21  1  0  0  0  0
M  END
>  <minimizedAffinity>
-5.05764103

$$$$
