
 OpenBabel03262521033D

 21 23  0  0  0  0  0  0  0  0999 V2000
   37.8670   31.6060   48.4990 C   0  0  0  0  0  0  0  0  0  0  0  0
   37.0590   30.9510   47.5990 C   0  0  0  0  0  0  0  0  0  0  0  0
   37.3370   31.1540   46.2650 C   0  0  0  0  0  0  0  0  0  0  0  0
   36.7210   30.6520   45.5310 H   0  0  0  0  0  0  0  0  0  0  0  0
   38.3860   31.9830   45.8780 C   0  0  0  0  0  0  0  0  0  0  0  0
   38.8750   32.3570   44.6800 N   0  0  0  0  0  0  0  0  0  0  0  0
   39.9160   33.1870   44.8650 C   0  0  0  0  0  0  0  0  0  0  0  0
   40.5560   33.6900   44.1600 H   0  0  0  0  0  0  0  0  0  0  0  0
   40.1070   33.3560   46.2040 N   0  0  0  0  0  0  0  0  0  0  0  0
   39.1670   32.6170   46.8200 C   0  0  0  0  0  0  0  0  0  0  0  0
   38.9070   32.4290   48.1410 C   0  0  0  0  0  0  0  0  0  0  0  0
   38.5190   32.0620   43.7460 H   0  0  0  0  0  0  0  0  0  0  0  0
   36.3120   29.3750   49.2630 C   0  0  0  0  0  0  0  0  0  0  0  0
   35.9800   30.1080   48.0950 C   0  0  0  0  0  0  0  0  0  0  0  0
   34.7000   29.9480   47.5710 C   0  0  0  0  0  0  0  0  0  0  0  0
   33.8520   29.1020   48.2090 N   0  0  0  0  0  0  0  0  0  0  0  0
   34.1880   28.4110   49.3240 C   0  0  0  0  0  0  0  0  0  0  0  0
   35.4220   28.5570   49.8390 N   0  0  0  0  0  0  0  0  0  0  0  0
   37.2690   29.4030   49.7780 H   0  0  0  0  0  0  0  0  0  0  0  0
   34.5140   30.5200   46.7000 H   0  0  0  0  0  0  0  0  0  0  0  0
   33.4830   27.7470   49.8010 H   0  0  0  0  0  0  0  0  0  0  0  0
  2 14  1  0  0  0  0
  2  1  2  0  0  0  0
  3  2  1  0  0  0  0
  4  3  1  0  0  0  0
  5  3  2  0  0  0  0
  5 10  1  0  0  0  0
  6  7  1  0  0  0  0
  6  5  1  0  0  0  0
  7  9  2  0  0  0  0
  8  7  1  0  0  0  0
  9 10  1  0  0  0  0
 10 11  2  0  0  0  0
 11  1  1  0  0  0  0
 12  6  1  0  0  0  0
 13 19  1  0  0  0  0
 13 18  1  0  0  0  0
 14 13  2  0  0  0  0
 15 14  1  0  0  0  0
 15 16  2  0  0  0  0
 16 17  1  0  0  0  0
 17 21  1  0  0  0  0
 17 18  2  0  0  0  0
 20 15  1  0  0  0  0
M  END
>  <minimizedAffinity>
-5.36159897

>  <minimizedRMSD>
4.4237504

$$$$
