
 OpenBabel03272507193D

 33 36  0  0  1  0  0  0  0  0999 V2000
   37.3870   31.3400   49.4580 C   0  0  0  0  0  0  0  0  0  0  0  0
   38.2970   32.3790   49.5700 C   0  0  0  0  0  0  0  0  0  0  0  0
   38.8110   32.8360   48.3360 C   0  0  0  0  0  0  0  0  0  0  0  0
   38.4150   32.2710   47.1590 N   0  0  0  0  0  0  0  0  0  0  0  0
   37.5170   31.2540   47.1040 C   0  0  0  0  0  0  0  0  0  0  0  0
   36.9980   30.7840   48.2840 N   0  0  0  0  0  0  0  0  0  0  0  0
   38.5880   32.8000   50.5130 H   0  0  0  0  0  0  0  0  0  0  0  0
   39.5290   33.6440   48.3320 H   0  0  0  0  0  0  0  0  0  0  0  0
   35.7960   30.2250   45.7320 C   0  0  0  0  0  3  0  0  0  0  0  0
   37.1020   30.6600   45.8360 C   0  0  0  0  0  0  0  0  0  0  0  0
   37.9590   30.5230   44.7610 C   0  0  0  0  0  0  0  0  0  0  0  0
   38.9770   30.8730   44.8740 H   0  0  0  0  0  0  0  0  0  0  0  0
   37.5680   29.9610   43.5620 C   0  0  0  0  0  0  0  0  0  0  0  0
   38.1800   29.7130   42.3900 N   0  0  0  0  0  0  0  0  0  0  0  0
   37.2570   29.1410   41.5970 C   0  0  0  0  0  0  0  0  0  0  0  0
   37.5680   28.8630   40.5890 H   0  0  0  0  0  0  0  0  0  0  0  0
   36.0820   29.0270   42.2530 N   0  0  0  0  0  0  0  0  0  0  0  0
   36.2470   29.5330   43.4890 C   0  0  0  0  0  0  0  0  0  0  0  0
   35.3700   29.6580   44.5470 C   0  0  0  0  0  3  0  0  0  0  0  0
   39.1870   29.9640   42.2410 H   0  0  0  0  0  0  0  0  0  0  0  0
   36.8010   30.8460   50.7440 C   0  0  1  0  0  0  0  0  0  0  0  0
   36.0670   29.5840   50.8260 C   0  0  2  0  0  0  0  0  0  0  0  0
   37.5020   29.5760   51.2590 C   0  0  0  0  0  0  0  0  0  0  0  0
   36.7050   31.6690   51.4910 H   0  0  0  0  0  0  0  0  0  0  0  0
   35.2180   29.6240   51.5700 H   0  0  0  0  0  0  0  0  0  0  0  0
   38.2090   29.0520   50.5790 H   0  0  0  0  0  0  0  0  0  0  0  0
   37.7680   29.6210   52.3200 H   0  0  0  0  0  0  0  0  0  0  0  0
   35.7160   28.9750   49.6290 O   0  0  0  0  0  0  0  0  0  0  0  0
   34.5140   28.5220   49.2010 C   0  0  0  0  0  0  0  0  0  0  0  0
   34.4080   27.5950   48.3670 O   0  0  0  0  0  0  0  0  0  0  0  0
   33.5170   29.2580   49.8430 N   0  0  0  0  0  0  0  0  0  0  0  0
   33.2840   28.5880   50.6340 H   0  0  0  0  0  0  0  0  0  0  0  0
   33.3630   30.1750   49.3310 H   0  0  0  0  0  0  0  0  0  0  0  0
  1  2  1  0  0  0  0
  1 21  1  0  0  0  0
  2  7  1  0  0  0  0
  3  2  2  0  0  0  0
  4  3  1  0  0  0  0
  5  4  2  0  0  0  0
  5  6  1  0  0  0  0
  6  1  2  0  0  0  0
  8  3  1  0  0  0  0
  9 10  1  0  0  0  0
 10  5  1  0  0  0  0
 11 12  1  0  0  0  0
 11 10  2  0  0  0  0
 13 11  1  0  0  0  0
 14 13  1  0  0  0  0
 15 17  2  0  0  0  0
 15 14  1  0  0  0  0
 16 15  1  0  0  0  0
 17 18  1  0  0  0  0
 18 13  2  0  0  0  0
 18 19  1  0  0  0  0
 19  9  2  0  0  0  0
 20 14  1  0  0  0  0
 21 22  1  0  0  0  0
 21 23  1  0  0  0  0
 21 24  1  1  0  0  0
 22 23  1  0  0  0  0
 22 25  1  1  0  0  0
 23 27  1  0  0  0  0
 26 23  1  0  0  0  0
 28 22  1  0  0  0  0
 29 28  1  0  0  0  0
 29 31  1  0  0  0  0
 30 29  2  0  0  0  0
 31 32  1  0  0  0  0
 33 31  1  0  0  0  0
M  END
>  <minimizedAffinity>
-5.74061918

>  <minimizedRMSD>
0.363366544

$$$$
