
 OpenBabel03272510013D

 24 26  0  0  0  0  0  0  0  0999 V2000
   38.2290   31.6640   50.1760 C   0  0  0  0  0  0  0  0  0  0  0  0
   38.7710   31.9560   48.9220 C   0  0  0  0  0  0  0  0  0  0  0  0
   38.1300   31.4430   47.8040 C   0  0  0  0  0  0  0  0  0  0  0  0
   37.0200   30.6900   47.9840 N   0  0  0  0  0  0  0  0  0  0  0  0
   36.5220   30.4250   49.2150 C   0  0  0  0  0  0  0  0  0  0  0  0
   37.1350   30.9180   50.3040 N   0  0  0  0  0  0  0  0  0  0  0  0
   38.7630   32.0860   51.0210 H   0  0  0  0  0  0  0  0  0  0  0  0
   39.6430   32.5490   48.8110 H   0  0  0  0  0  0  0  0  0  0  0  0
   39.9040   31.3470   46.1600 C   0  0  0  0  0  3  0  0  0  0  0  0
   38.5950   31.6760   46.4470 C   0  0  0  0  0  0  0  0  0  0  0  0
   37.8200   32.1950   45.4550 C   0  0  0  0  0  0  0  0  0  0  0  0
   36.8080   32.4580   45.6410 H   0  0  0  0  0  0  0  0  0  0  0  0
   38.2680   32.4150   44.1640 C   0  0  0  0  0  0  0  0  0  0  0  0
   37.6640   32.9130   43.0530 N   0  0  0  0  0  0  0  0  0  0  0  0
   38.5930   32.8960   42.0750 C   0  0  0  0  0  0  0  0  0  0  0  0
   38.3100   33.2570   41.0970 H   0  0  0  0  0  0  0  0  0  0  0  0
   39.7550   32.3970   42.5630 N   0  0  0  0  0  0  0  0  0  0  0  0
   39.5910   32.0860   43.8610 C   0  0  0  0  0  0  0  0  0  0  0  0
   40.3920   31.5550   44.8690 C   0  0  0  0  0  3  0  0  0  0  0  0
   36.6530   33.2380   43.0180 H   0  0  0  0  0  0  0  0  0  0  0  0
   35.3000   29.5890   49.2860 C   0  0  0  0  0  0  0  0  0  0  0  0
   34.9450   29.2990   50.6020 F   0  0  0  0  0  0  0  0  0  0  0  0
   34.2020   30.2380   48.7400 F   0  0  0  0  0  0  0  0  0  0  0  0
   35.4090   28.3900   48.6320 F   0  0  0  0  0  0  0  0  0  0  0  0
  1  6  1  0  0  0  0
  1  7  1  0  0  0  0
  2  1  2  0  0  0  0
  3  4  2  0  0  0  0
  3  2  1  0  0  0  0
  4  5  1  0  0  0  0
  5 21  1  0  0  0  0
  5  6  2  0  0  0  0
  8  2  1  0  0  0  0
  9 10  1  0  0  0  0
 10  3  1  0  0  0  0
 11 12  1  0  0  0  0
 11 10  2  0  0  0  0
 13 11  1  0  0  0  0
 14 13  1  0  0  0  0
 15 17  2  0  0  0  0
 15 14  1  0  0  0  0
 16 15  1  0  0  0  0
 17 18  1  0  0  0  0
 18 13  2  0  0  0  0
 18 19  1  0  0  0  0
 19  9  2  0  0  0  0
 20 14  1  0  0  0  0
 21 22  1  0  0  0  0
 23 21  1  0  0  0  0
 24 21  1  0  0  0  0
M  END
>  <minimizedAffinity>
-5.82194662

>  <minimizedRMSD>
1.87244618

$$$$
