
 OpenBabel03272502563D

 45 49  0  0  0  0  0  0  0  0999 V2000
   36.9210   30.8250   49.3010 C   0  0  0  0  0  0  0  0  0  0  0  0
   37.0220   30.5310   50.6640 C   0  0  0  0  0  0  0  0  0  0  0  0
   36.1480   29.6440   51.2650 C   0  0  0  0  0  0  0  0  0  0  0  0
   35.1870   29.0780   50.4460 C   0  0  0  0  0  0  0  0  0  0  0  0
   35.0710   29.3570   49.0900 C   0  0  0  0  0  0  0  0  0  0  0  0
   35.9620   30.2390   48.5650 N   0  0  0  0  0  0  0  0  0  0  0  0
   34.0580   28.7230   48.3580 N   0  0  0  0  0  0  0  0  0  0  0  0
   32.9930   28.0680   49.0690 C   0  0  0  0  0  0  0  0  0  0  0  0
   32.1150   27.3840   48.0500 C   0  0  0  0  0  0  0  0  0  0  0  0
   31.5830   28.4000   47.0560 C   0  0  0  0  0  0  0  0  0  0  0  0
   32.6880   29.2020   46.4440 C   0  0  0  0  0  0  0  0  0  0  0  0
   34.0170   28.6860   46.9120 C   0  0  0  0  0  0  0  0  0  0  0  0
   37.8050   31.0230   51.2190 H   0  0  0  0  0  0  0  0  0  0  0  0
   36.2450   29.4340   52.3110 H   0  0  0  0  0  0  0  0  0  0  0  0
   34.5300   28.3890   50.9800 H   0  0  0  0  0  0  0  0  0  0  0  0
   32.3700   28.8550   49.5460 H   0  0  0  0  0  0  0  0  0  0  0  0
   33.3280   27.2780   49.7710 H   0  0  0  0  0  0  0  0  0  0  0  0
   31.2260   26.9800   48.6140 H   0  0  0  0  0  0  0  0  0  0  0  0
   32.6250   26.5350   47.5530 H   0  0  0  0  0  0  0  0  0  0  0  0
   31.0490   27.7950   46.2770 H   0  0  0  0  0  0  0  0  0  0  0  0
   30.8030   29.0130   47.5310 H   0  0  0  0  0  0  0  0  0  0  0  0
   32.6500   29.0790   45.3370 H   0  0  0  0  0  0  0  0  0  0  0  0
   32.6110   30.2900   46.6350 H   0  0  0  0  0  0  0  0  0  0  0  0
   34.1010   27.6150   46.5930 H   0  0  0  0  0  0  0  0  0  0  0  0
   34.8740   29.2070   46.4680 H   0  0  0  0  0  0  0  0  0  0  0  0
   39.2250   33.6250   48.8690 C   0  0  0  0  0  0  0  0  0  0  0  0
   39.6190   33.5000   47.5190 C   0  0  0  0  0  0  0  0  0  0  0  0
   39.0840   32.4590   46.7950 C   0  0  0  0  0  0  0  0  0  0  0  0
   38.2120   31.6210   47.4250 N   0  0  0  0  0  0  0  0  0  0  0  0
   37.8520   31.7590   48.7080 C   0  0  0  0  0  0  0  0  0  0  0  0
   38.3610   32.7600   49.4170 N   0  0  0  0  0  0  0  0  0  0  0  0
   39.6210   34.4330   49.4810 H   0  0  0  0  0  0  0  0  0  0  0  0
   40.3010   34.1840   47.0860 H   0  0  0  0  0  0  0  0  0  0  0  0
   39.1930   33.1350   44.3970 C   0  0  0  0  0  0  0  0  0  0  0  0
   39.4110   32.2230   45.3960 C   0  0  0  0  0  0  0  0  0  0  0  0
   39.9760   31.0250   45.0100 C   0  0  0  0  0  0  0  0  0  0  0  0
   40.1760   30.2520   45.7660 H   0  0  0  0  0  0  0  0  0  0  0  0
   40.3210   30.7050   43.7130 C   0  0  0  0  0  0  0  0  0  0  0  0
   40.8760   29.5900   43.1690 N   0  0  0  0  0  0  0  0  0  0  0  0
   40.9760   29.8650   41.8550 C   0  0  0  0  0  0  0  0  0  0  0  0
   41.3990   29.1230   41.1670 H   0  0  0  0  0  0  0  0  0  0  0  0
   40.5120   31.0880   41.5620 N   0  0  0  0  0  0  0  0  0  0  0  0
   40.0910   31.6460   42.7110 C   0  0  0  0  0  0  0  0  0  0  0  0
   39.5350   32.8290   43.0860 C   0  0  0  0  0  0  0  0  0  0  0  0
   41.1450   28.7460   43.6920 H   0  0  0  0  0  0  0  0  0  0  0  0
  1  2  1  0  0  0  0
  2 13  1  0  0  0  0
  2  3  2  0  0  0  0
  3 14  1  0  0  0  0
  4 15  1  0  0  0  0
  4  3  1  0  0  0  0
  5  4  2  0  0  0  0
  6  5  1  0  0  0  0
  6  1  2  0  0  0  0
  7  8  1  0  0  0  0
  7  5  1  0  0  0  0
  8 16  1  0  0  0  0
  8 17  1  0  0  0  0
  9 18  1  0  0  0  0
  9  8  1  0  0  0  0
 10 21  1  0  0  0  0
 10  9  1  0  0  0  0
 11 23  1  0  0  0  0
 11 12  1  0  0  0  0
 11 10  1  0  0  0  0
 12  7  1  0  0  0  0
 19  9  1  0  0  0  0
 20 10  1  0  0  0  0
 22 11  1  0  0  0  0
 24 12  1  0  0  0  0
 25 12  1  0  0  0  0
 26 31  1  0  0  0  0
 26 32  1  0  0  0  0
 27 26  2  0  0  0  0
 28 29  2  0  0  0  0
 28 27  1  0  0  0  0
 29 30  1  0  0  0  0
 30  1  1  0  0  0  0
 30 31  2  0  0  0  0
 33 27  1  0  0  0  0
 34 35  1  0  0  0  0
 35 28  1  0  0  0  0
 36 35  2  0  0  0  0
 36 37  1  0  0  0  0
 38 36  1  0  0  0  0
 39 45  1  0  0  0  0
 39 38  1  0  0  0  0
 40 39  1  0  0  0  0
 41 40  1  0  0  0  0
 42 40  2  0  0  0  0
 42 43  1  0  0  0  0
 43 44  1  0  0  0  0
 43 38  2  0  0  0  0
 44 34  2  0  0  0  0
M  END
>  <minimizedAffinity>
-7.98018408

>  <minimizedRMSD>
1.80771935

$$$$
