
 OpenBabel03272509213D

 49 54  0  0  0  0  0  0  0  0999 V2000
   39.8410   30.8420   44.3310 C   0  0  0  0  0  0  0  0  0  0  0  0
   39.3220   31.6590   45.3230 C   0  0  0  0  0  0  0  0  0  0  0  0
   38.2010   32.4180   45.0290 C   0  0  0  0  0  0  0  0  0  0  0  0
   37.5960   32.3740   43.7700 C   0  0  0  0  0  0  0  0  0  0  0  0
   36.5330   32.9710   43.1950 N   0  0  0  0  0  0  0  0  0  0  0  0
   36.3940   32.5560   41.9240 C   0  0  0  0  0  0  0  0  0  0  0  0
   37.4000   31.6660   41.6840 N   0  0  0  0  0  0  0  0  0  0  0  0
   38.1430   31.5480   42.8140 C   0  0  0  0  0  0  0  0  0  0  0  0
   39.2530   30.7910   43.0890 C   0  0  0  0  0  0  0  0  0  0  0  0
   40.7110   30.2920   44.6550 H   0  0  0  0  0  0  0  0  0  0  0  0
   37.6830   33.1030   45.7010 H   0  0  0  0  0  0  0  0  0  0  0  0
   35.9070   33.6590   43.6680 H   0  0  0  0  0  0  0  0  0  0  0  0
   35.6300   32.8700   41.2330 H   0  0  0  0  0  0  0  0  0  0  0  0
   39.4330   28.6530   41.7780 C   0  0  0  0  0  3  0  0  0  0  0  0
   39.8540   29.9070   42.0920 C   0  0  0  0  0  0  0  0  0  0  0  0
   40.9470   30.4350   41.4340 C   0  0  0  0  0  0  0  0  0  0  0  0
   41.3450   31.4390   41.6330 H   0  0  0  0  0  0  0  0  0  0  0  0
   41.5880   29.6770   40.4700 C   0  0  0  0  0  0  0  0  0  0  0  0
   42.6540   29.9300   39.6870 N   0  0  0  0  0  0  0  0  0  0  0  0
   42.8880   28.8450   38.8980 C   0  0  0  0  0  0  0  0  0  0  0  0
   43.6510   28.6740   38.1470 H   0  0  0  0  0  0  0  0  0  0  0  0
   41.9630   27.8780   39.1730 N   0  0  0  0  0  0  0  0  0  0  0  0
   41.1690   28.3880   40.1350 C   0  0  0  0  0  0  0  0  0  0  0  0
   40.0600   27.8780   40.8150 C   0  0  0  0  0  3  0  0  0  0  0  0
   43.2350   30.8090   39.6610 H   0  0  0  0  0  0  0  0  0  0  0  0
   39.7400   31.8610   46.6050 O   0  0  0  0  0  0  0  0  0  0  0  0
   37.9940   31.3620   48.2100 C   0  0  0  0  0  0  0  0  0  0  0  0
   37.1860   31.6280   49.3020 C   0  0  0  0  0  0  0  0  0  0  0  0
   37.4270   32.8660   49.9070 C   0  0  0  0  0  0  0  0  0  0  0  0
   38.4070   33.7450   49.4310 C   0  0  0  0  0  0  0  0  0  0  0  0
   39.1780   33.3770   48.3060 C   0  0  0  0  0  0  0  0  0  0  0  0
   38.9480   32.1470   47.6950 C   0  0  0  0  0  0  0  0  0  0  0  0
   36.8190   33.1230   50.7690 H   0  0  0  0  0  0  0  0  0  0  0  0
   38.5670   34.6910   49.9210 H   0  0  0  0  0  0  0  0  0  0  0  0
   39.9280   34.0600   47.9490 H   0  0  0  0  0  0  0  0  0  0  0  0
   34.9590   30.6450   49.1520 C   0  0  0  0  0  0  0  0  0  0  0  0
   36.1880   30.7390   49.7910 C   0  0  0  0  0  0  0  0  0  0  0  0
   36.3890   29.9290   50.9220 C   0  0  0  0  0  0  0  0  0  0  0  0
   35.3870   29.1070   51.3260 N   0  0  0  0  0  0  0  0  0  0  0  0
   34.2000   29.0530   50.6630 C   0  0  0  0  0  0  0  0  0  0  0  0
   33.9970   29.8180   49.5870 N   0  0  0  0  0  0  0  0  0  0  0  0
   34.7030   31.2230   48.2760 H   0  0  0  0  0  0  0  0  0  0  0  0
   33.5400   28.3340   51.1480 H   0  0  0  0  0  0  0  0  0  0  0  0
   37.6860   29.9850   51.6510 C   0  0  0  0  0  0  0  0  0  0  0  0
   38.4380   29.3200   51.1840 H   0  0  0  0  0  0  0  0  0  0  0  0
   37.5340   29.6610   52.7020 H   0  0  0  0  0  0  0  0  0  0  0  0
   38.0010   31.0370   51.6980 H   0  0  0  0  0  0  0  0  0  0  0  0
   37.8270   30.1480   47.5390 O   0  0  0  0  0  0  0  0  0  0  0  0
   38.5980   29.5200   47.5330 H   0  0  0  0  0  0  0  0  0  0  0  0
  1 10  1  0  0  0  0
  1  2  1  0  0  0  0
  2 26  1  0  0  0  0
  3  2  2  0  0  0  0
  3 11  1  0  0  0  0
  4  3  1  0  0  0  0
  5 12  1  0  0  0  0
  5  4  1  0  0  0  0
  6  5  1  0  0  0  0
  7  6  2  0  0  0  0
  7  8  1  0  0  0  0
  8  9  1  0  0  0  0
  8  4  2  0  0  0  0
  9  1  2  0  0  0  0
 13  6  1  0  0  0  0
 14 15  1  0  0  0  0
 15  9  1  0  0  0  0
 16 17  1  0  0  0  0
 16 15  2  0  0  0  0
 18 16  1  0  0  0  0
 19 18  1  0  0  0  0
 20 22  2  0  0  0  0
 20 19  1  0  0  0  0
 21 20  1  0  0  0  0
 22 23  1  0  0  0  0
 23 18  2  0  0  0  0
 23 24  1  0  0  0  0
 24 14  2  0  0  0  0
 25 19  1  0  0  0  0
 26 32  1  0  0  0  0
 27 28  1  0  0  0  0
 28 37  1  0  0  0  0
 28 29  2  0  0  0  0
 29 33  1  0  0  0  0
 30 29  1  0  0  0  0
 30 34  1  0  0  0  0
 31 30  2  0  0  0  0
 32 27  2  0  0  0  0
 32 31  1  0  0  0  0
 35 31  1  0  0  0  0
 36 41  2  0  0  0  0
 36 37  1  0  0  0  0
 37 38  2  0  0  0  0
 38 39  1  0  0  0  0
 38 44  1  0  0  0  0
 40 43  1  0  0  0  0
 40 39  2  0  0  0  0
 41 40  1  0  0  0  0
 42 36  1  0  0  0  0
 44 47  1  0  0  0  0
 44 46  1  0  0  0  0
 45 44  1  0  0  0  0
 48 27  1  0  0  0  0
 49 48  1  0  0  0  0
M  END
>  <minimizedAffinity>
-7.89368773

>  <minimizedRMSD>
1.46422637

$$$$
