
 OpenBabel03272508503D

 43 48  0  0  0  0  0  0  0  0999 V2000
   36.7030   26.5280   32.7300 C   0  0  0  0  0  0  0  0  0  0  0  0
   36.3090   25.6080   31.9920 O   0  0  0  0  0  0  0  0  0  0  0  0
   36.3110   29.6960   30.9800 C   0  0  0  0  0  0  0  0  0  0  0  0
   35.7720   30.5310   31.9540 C   0  0  0  0  0  0  0  0  0  0  0  0
   35.5380   30.0270   33.2070 C   0  0  0  0  0  0  0  0  0  0  0  0
   35.8400   28.7410   33.4470 N   0  0  0  0  0  0  0  0  0  0  0  0
   36.3690   27.9280   32.4830 C   0  0  0  0  0  0  0  0  0  0  0  0
   36.5950   28.4270   31.2630 N   0  0  0  0  0  0  0  0  0  0  0  0
   36.4960   30.0960   29.9870 H   0  0  0  0  0  0  0  0  0  0  0  0
   35.5390   31.5490   31.7440 H   0  0  0  0  0  0  0  0  0  0  0  0
   35.7990   31.0740   35.3860 C   0  0  0  0  0  3  0  0  0  0  0  0
   34.9780   30.8010   34.3110 C   0  0  0  0  0  0  0  0  0  0  0  0
   33.6820   31.2720   34.3370 C   0  0  0  0  0  0  0  0  0  0  0  0
   33.0290   31.0650   33.5030 H   0  0  0  0  0  0  0  0  0  0  0  0
   33.2360   31.9950   35.4230 C   0  0  0  0  0  0  0  0  0  0  0  0
   32.0360   32.5500   35.6750 N   0  0  0  0  0  0  0  0  0  0  0  0
   32.0480   33.1680   36.8660 C   0  0  0  0  0  0  0  0  0  0  0  0
   31.3630   33.7310   37.4850 H   0  0  0  0  0  0  0  0  0  0  0  0
   33.2760   33.0030   37.3770 N   0  0  0  0  0  0  0  0  0  0  0  0
   34.0380   32.2810   36.5110 C   0  0  0  0  0  0  0  0  0  0  0  0
   35.3500   31.8090   36.4910 C   0  0  0  0  0  3  0  0  0  0  0  0
   31.1570   32.5650   35.1120 H   0  0  0  0  0  0  0  0  0  0  0  0
   37.5310   26.1750   33.8880 C   0  0  0  0  0  0  0  0  0  0  0  0
   37.4380   26.7950   35.1230 C   0  0  0  0  0  0  0  0  0  0  0  0
   38.4020   26.1320   35.8780 C   0  0  0  0  0  0  0  0  0  0  0  0
   39.0120   25.1790   35.1050 C   0  0  0  0  0  0  0  0  0  0  0  0
   38.4590   25.2340   33.9060 O   0  0  0  0  0  0  0  0  0  0  0  0
   36.8030   27.5840   35.4470 H   0  0  0  0  0  0  0  0  0  0  0  0
   38.6420   26.3300   36.9230 H   0  0  0  0  0  0  0  0  0  0  0  0
   41.3170   24.3730   34.9070 C   0  0  0  0  0  0  0  0  0  0  0  0
   40.0740   24.2600   35.5000 C   0  0  0  0  0  0  0  0  0  0  0  0
   39.8130   23.3020   36.4550 C   0  0  0  0  0  0  0  0  0  0  0  0
   40.8080   22.4090   36.8560 C   0  0  0  0  0  0  0  0  0  0  0  0
   40.8640   21.3950   37.7340 N   0  0  0  0  0  0  0  0  0  0  0  0
   42.1050   20.9040   37.6790 N   0  0  0  0  0  0  0  0  0  0  0  0
   42.8320   21.6030   36.7700 C   0  0  0  0  0  0  0  0  0  0  0  0
   42.0240   22.5740   36.2270 C   0  0  0  0  0  0  0  0  0  0  0  0
   42.3510   23.5020   35.2730 C   0  0  0  0  0  0  0  0  0  0  0  0
   41.4950   25.1290   34.1650 H   0  0  0  0  0  0  0  0  0  0  0  0
   38.8270   23.2230   36.9150 H   0  0  0  0  0  0  0  0  0  0  0  0
   40.0580   21.0780   38.3360 H   0  0  0  0  0  0  0  0  0  0  0  0
   43.8670   21.3500   36.5850 H   0  0  0  0  0  0  0  0  0  0  0  0
   43.3370   23.5480   34.8410 H   0  0  0  0  0  0  0  0  0  0  0  0
  1 23  1  0  0  0  0
  2  1  2  0  0  0  0
  3  8  2  0  0  0  0
  3  4  1  0  0  0  0
  4  5  2  0  0  0  0
  5  6  1  0  0  0  0
  5 12  1  0  0  0  0
  7  1  1  0  0  0  0
  7  6  2  0  0  0  0
  8  7  1  0  0  0  0
  9  3  1  0  0  0  0
 10  4  1  0  0  0  0
 11 21  1  0  0  0  0
 12 13  1  0  0  0  0
 12 11  2  0  0  0  0
 13 15  2  0  0  0  0
 14 13  1  0  0  0  0
 15 16  1  0  0  0  0
 15 20  1  0  0  0  0
 16 17  1  0  0  0  0
 17 19  2  0  0  0  0
 17 18  1  0  0  0  0
 20 19  1  0  0  0  0
 21 20  2  0  0  0  0
 22 16  1  0  0  0  0
 23 27  1  0  0  0  0
 23 24  2  0  0  0  0
 24 28  1  0  0  0  0
 24 25  1  0  0  0  0
 25 29  1  0  0  0  0
 26 31  1  0  0  0  0
 26 25  2  0  0  0  0
 27 26  1  0  0  0  0
 30 38  2  0  0  0  0
 30 31  1  0  0  0  0
 31 32  2  0  0  0  0
 32 33  1  0  0  0  0
 32 40  1  0  0  0  0
 33 34  1  0  0  0  0
 34 41  1  0  0  0  0
 35 34  1  0  0  0  0
 36 35  2  0  0  0  0
 37 36  1  0  0  0  0
 37 33  2  0  0  0  0
 38 37  1  0  0  0  0
 39 30  1  0  0  0  0
 42 36  1  0  0  0  0
 43 38  1  0  0  0  0
M  END
>  <minimizedAffinity>
-7.27652121

$$$$

 OpenBabel03272508503D

 43 48  0  0  0  0  0  0  0  0999 V2000
   35.4610   25.6580   31.0960 C   0  0  0  0  0  0  0  0  0  0  0  0
   34.5220   25.3040   30.3610 O   0  0  0  0  0  0  0  0  0  0  0  0
   37.0110   28.9130   30.5940 C   0  0  0  0  0  0  0  0  0  0  0  0
   36.4920   29.6760   31.6360 C   0  0  0  0  0  0  0  0  0  0  0  0
   35.6140   29.0930   32.5130 C   0  0  0  0  0  0  0  0  0  0  0  0
   35.2890   27.8030   32.3310 N   0  0  0  0  0  0  0  0  0  0  0  0
   35.8050   27.0620   31.3050 C   0  0  0  0  0  0  0  0  0  0  0  0
   36.6600   27.6380   30.4540 N   0  0  0  0  0  0  0  0  0  0  0  0
   37.7060   29.3760   29.9000 H   0  0  0  0  0  0  0  0  0  0  0  0
   36.7620   30.6980   31.7630 H   0  0  0  0  0  0  0  0  0  0  0  0
   33.6410   29.6500   33.8200 C   0  0  0  0  0  3  0  0  0  0  0  0
   35.0030   29.7860   33.6430 C   0  0  0  0  0  0  0  0  0  0  0  0
   35.7080   30.5640   34.5380 C   0  0  0  0  0  0  0  0  0  0  0  0
   36.7730   30.6790   34.4110 H   0  0  0  0  0  0  0  0  0  0  0  0
   35.0470   31.1830   35.5780 C   0  0  0  0  0  0  0  0  0  0  0  0
   35.5090   31.9780   36.5610 N   0  0  0  0  0  0  0  0  0  0  0  0
   34.5030   32.3600   37.3640 C   0  0  0  0  0  0  0  0  0  0  0  0
   34.3680   32.9680   38.2470 H   0  0  0  0  0  0  0  0  0  0  0  0
   33.3860   31.7980   36.8810 N   0  0  0  0  0  0  0  0  0  0  0  0
   33.6850   31.0620   35.7760 C   0  0  0  0  0  0  0  0  0  0  0  0
   32.9660   30.2770   34.8750 C   0  0  0  0  0  3  0  0  0  0  0  0
   36.4740   32.3150   36.7730 H   0  0  0  0  0  0  0  0  0  0  0  0
   36.2380   24.6150   31.7720 C   0  0  0  0  0  0  0  0  0  0  0  0
   36.0300   23.2570   31.5940 C   0  0  0  0  0  0  0  0  0  0  0  0
   36.9880   22.6830   32.4250 C   0  0  0  0  0  0  0  0  0  0  0  0
   37.7070   23.6720   33.0450 C   0  0  0  0  0  0  0  0  0  0  0  0
   37.2240   24.8290   32.6260 O   0  0  0  0  0  0  0  0  0  0  0  0
   35.3240   22.7470   30.9840 H   0  0  0  0  0  0  0  0  0  0  0  0
   37.1520   21.6150   32.5670 H   0  0  0  0  0  0  0  0  0  0  0  0
   39.9540   24.2560   33.8250 C   0  0  0  0  0  0  0  0  0  0  0  0
   38.8030   23.5120   33.9940 C   0  0  0  0  0  0  0  0  0  0  0  0
   38.6650   22.6210   35.0370 C   0  0  0  0  0  0  0  0  0  0  0  0
   39.6950   22.4440   35.9610 C   0  0  0  0  0  0  0  0  0  0  0  0
   39.8600   21.6770   37.0510 N   0  0  0  0  0  0  0  0  0  0  0  0
   41.0770   21.9470   37.5330 N   0  0  0  0  0  0  0  0  0  0  0  0
   41.6800   22.8800   36.7520 C   0  0  0  0  0  0  0  0  0  0  0  0
   40.8160   23.2160   35.7370 C   0  0  0  0  0  0  0  0  0  0  0  0
   41.0180   24.1180   34.7250 C   0  0  0  0  0  0  0  0  0  0  0  0
   40.0370   24.9440   33.0030 H   0  0  0  0  0  0  0  0  0  0  0  0
   37.7510   22.0380   35.1580 H   0  0  0  0  0  0  0  0  0  0  0  0
   39.1400   21.0030   37.4230 H   0  0  0  0  0  0  0  0  0  0  0  0
   42.6770   23.2280   36.9850 H   0  0  0  0  0  0  0  0  0  0  0  0
   41.9370   24.6740   34.6370 H   0  0  0  0  0  0  0  0  0  0  0  0
  1  7  1  0  0  0  0
  1 23  1  0  0  0  0
  2  1  2  0  0  0  0
  3  4  1  0  0  0  0
  4 10  1  0  0  0  0
  4  5  2  0  0  0  0
  5 12  1  0  0  0  0
  6  5  1  0  0  0  0
  7  6  2  0  0  0  0
  8  3  2  0  0  0  0
  8  7  1  0  0  0  0
  9  3  1  0  0  0  0
 11 21  1  0  0  0  0
 12 11  2  0  0  0  0
 12 13  1  0  0  0  0
 13 15  2  0  0  0  0
 14 13  1  0  0  0  0
 15 20  1  0  0  0  0
 15 16  1  0  0  0  0
 16 22  1  0  0  0  0
 16 17  1  0  0  0  0
 17 18  1  0  0  0  0
 19 17  2  0  0  0  0
 20 19  1  0  0  0  0
 21 20  2  0  0  0  0
 23 27  1  0  0  0  0
 24 23  2  0  0  0  0
 24 25  1  0  0  0  0
 25 29  1  0  0  0  0
 25 26  2  0  0  0  0
 26 31  1  0  0  0  0
 27 26  1  0  0  0  0
 28 24  1  0  0  0  0
 30 31  2  0  0  0  0
 30 38  1  0  0  0  0
 31 32  1  0  0  0  0
 32 40  1  0  0  0  0
 32 33  2  0  0  0  0
 33 34  1  0  0  0  0
 34 41  1  0  0  0  0
 34 35  1  0  0  0  0
 36 42  1  0  0  0  0
 36 35  2  0  0  0  0
 37 33  1  0  0  0  0
 37 36  1  0  0  0  0
 38 37  2  0  0  0  0
 39 30  1  0  0  0  0
 43 38  1  0  0  0  0
M  END
>  <minimizedAffinity>
-7.27173185

$$$$

 OpenBabel03272508503D

 43 48  0  0  0  0  0  0  0  0999 V2000
   36.9650   27.4520   30.9830 C   0  0  0  0  0  0  0  0  0  0  0  0
   36.5970   28.1980   30.0590 O   0  0  0  0  0  0  0  0  0  0  0  0
   39.5060   25.0610   29.9470 C   0  0  0  0  0  0  0  0  0  0  0  0
   38.9320   23.8320   30.2600 C   0  0  0  0  0  0  0  0  0  0  0  0
   37.6830   23.8070   30.8230 C   0  0  0  0  0  0  0  0  0  0  0  0
   37.0590   24.9740   31.0520 N   0  0  0  0  0  0  0  0  0  0  0  0
   37.6320   26.1760   30.7410 C   0  0  0  0  0  0  0  0  0  0  0  0
   38.8510   26.1920   30.1910 N   0  0  0  0  0  0  0  0  0  0  0  0
   40.4960   25.0790   29.5000 H   0  0  0  0  0  0  0  0  0  0  0  0
   39.4430   22.9170   30.0710 H   0  0  0  0  0  0  0  0  0  0  0  0
   35.7400   22.7150   31.7960 C   0  0  0  0  0  3  0  0  0  0  0  0
   36.9750   22.5850   31.1950 C   0  0  0  0  0  0  0  0  0  0  0  0
   37.4720   21.3160   30.9800 C   0  0  0  0  0  0  0  0  0  0  0  0
   38.4360   21.2000   30.5120 H   0  0  0  0  0  0  0  0  0  0  0  0
   36.7350   20.2160   31.3650 C   0  0  0  0  0  0  0  0  0  0  0  0
   37.0020   18.9010   31.2630 N   0  0  0  0  0  0  0  0  0  0  0  0
   35.9920   18.1780   31.7730 C   0  0  0  0  0  0  0  0  0  0  0  0
   35.7450   17.1360   31.9170 H   0  0  0  0  0  0  0  0  0  0  0  0
   35.0700   19.0500   32.2040 N   0  0  0  0  0  0  0  0  0  0  0  0
   35.4960   20.3210   31.9680 C   0  0  0  0  0  0  0  0  0  0  0  0
   34.9880   21.6000   32.1880 C   0  0  0  0  0  3  0  0  0  0  0  0
   37.8290   18.3990   30.8700 H   0  0  0  0  0  0  0  0  0  0  0  0
   36.7140   27.8870   32.3610 C   0  0  0  0  0  0  0  0  0  0  0  0
   37.4050   27.4080   33.4610 C   0  0  0  0  0  0  0  0  0  0  0  0
   36.8240   28.1010   34.5200 C   0  0  0  0  0  0  0  0  0  0  0  0
   35.8480   28.9360   34.0390 C   0  0  0  0  0  0  0  0  0  0  0  0
   35.8100   28.7790   32.7280 O   0  0  0  0  0  0  0  0  0  0  0  0
   38.1870   26.6900   33.5190 H   0  0  0  0  0  0  0  0  0  0  0  0
   37.0960   28.0050   35.5710 H   0  0  0  0  0  0  0  0  0  0  0  0
   33.6240   29.7350   34.6820 C   0  0  0  0  0  0  0  0  0  0  0  0
   34.9960   29.8390   34.8050 C   0  0  0  0  0  0  0  0  0  0  0  0
   35.5790   30.7750   35.6310 C   0  0  0  0  0  0  0  0  0  0  0  0
   34.7920   31.6530   36.3760 C   0  0  0  0  0  0  0  0  0  0  0  0
   35.0520   32.6450   37.2430 N   0  0  0  0  0  0  0  0  0  0  0  0
   33.8720   33.1320   37.6390 N   0  0  0  0  0  0  0  0  0  0  0  0
   32.8700   32.4510   37.0250 C   0  0  0  0  0  0  0  0  0  0  0  0
   33.4310   31.4980   36.2100 C   0  0  0  0  0  0  0  0  0  0  0  0
   32.7880   30.5920   35.4080 C   0  0  0  0  0  0  0  0  0  0  0  0
   33.1940   28.9970   34.0310 H   0  0  0  0  0  0  0  0  0  0  0  0
   36.6640   30.8470   35.7180 H   0  0  0  0  0  0  0  0  0  0  0  0
   36.0190   32.9510   37.5310 H   0  0  0  0  0  0  0  0  0  0  0  0
   31.8370   32.7040   37.2210 H   0  0  0  0  0  0  0  0  0  0  0  0
   31.7120   30.5520   35.3480 H   0  0  0  0  0  0  0  0  0  0  0  0
  1 23  1  0  0  0  0
  2  1  2  0  0  0  0
  3  8  2  0  0  0  0
  3  4  1  0  0  0  0
  4  5  2  0  0  0  0
  5  6  1  0  0  0  0
  5 12  1  0  0  0  0
  7  1  1  0  0  0  0
  7  6  2  0  0  0  0
  8  7  1  0  0  0  0
  9  3  1  0  0  0  0
 10  4  1  0  0  0  0
 11 21  1  0  0  0  0
 12 11  2  0  0  0  0
 13 12  1  0  0  0  0
 13 15  2  0  0  0  0
 14 13  1  0  0  0  0
 15 20  1  0  0  0  0
 16 15  1  0  0  0  0
 16 17  1  0  0  0  0
 17 18  1  0  0  0  0
 17 19  2  0  0  0  0
 20 21  2  0  0  0  0
 20 19  1  0  0  0  0
 22 16  1  0  0  0  0
 23 27  1  0  0  0  0
 23 24  2  0  0  0  0
 24 28  1  0  0  0  0
 24 25  1  0  0  0  0
 25 29  1  0  0  0  0
 26 25  2  0  0  0  0
 26 31  1  0  0  0  0
 27 26  1  0  0  0  0
 30 31  2  0  0  0  0
 30 38  1  0  0  0  0
 31 32  1  0  0  0  0
 32 40  1  0  0  0  0
 32 33  2  0  0  0  0
 33 34  1  0  0  0  0
 34 41  1  0  0  0  0
 34 35  1  0  0  0  0
 36 42  1  0  0  0  0
 36 35  2  0  0  0  0
 37 33  1  0  0  0  0
 37 36  1  0  0  0  0
 38 37  2  0  0  0  0
 39 30  1  0  0  0  0
 43 38  1  0  0  0  0
M  END
>  <minimizedAffinity>
-7.10279751

$$$$

 OpenBabel03272508503D

 43 48  0  0  0  0  0  0  0  0999 V2000
   37.5980   26.8780   32.4900 C   0  0  0  0  0  0  0  0  0  0  0  0
   37.7840   28.0100   32.0110 O   0  0  0  0  0  0  0  0  0  0  0  0
   34.6340   25.6300   30.7850 C   0  0  0  0  0  0  0  0  0  0  0  0
   34.7820   24.2490   30.8630 C   0  0  0  0  0  0  0  0  0  0  0  0
   35.8850   23.7320   31.4910 C   0  0  0  0  0  0  0  0  0  0  0  0
   36.7840   24.5840   32.0110 N   0  0  0  0  0  0  0  0  0  0  0  0
   36.6290   25.9400   31.9300 C   0  0  0  0  0  0  0  0  0  0  0  0
   35.5500   26.4360   31.3150 N   0  0  0  0  0  0  0  0  0  0  0  0
   33.7590   26.0380   30.2870 H   0  0  0  0  0  0  0  0  0  0  0  0
   34.0580   23.5880   30.4440 H   0  0  0  0  0  0  0  0  0  0  0  0
   35.1280   21.5010   32.0950 C   0  0  0  0  0  3  0  0  0  0  0  0
   36.1530   22.3050   31.6370 C   0  0  0  0  0  0  0  0  0  0  0  0
   37.3670   21.7180   31.3450 C   0  0  0  0  0  0  0  0  0  0  0  0
   38.1770   22.3350   30.9860 H   0  0  0  0  0  0  0  0  0  0  0  0
   37.5320   20.3600   31.5120 C   0  0  0  0  0  0  0  0  0  0  0  0
   38.6020   19.5730   31.2980 N   0  0  0  0  0  0  0  0  0  0  0  0
   38.3110   18.2970   31.5980 C   0  0  0  0  0  0  0  0  0  0  0  0
   38.8100   17.3380   31.5950 H   0  0  0  0  0  0  0  0  0  0  0  0
   37.0360   18.2760   32.0090 N   0  0  0  0  0  0  0  0  0  0  0  0
   36.5210   19.5350   31.9690 C   0  0  0  0  0  0  0  0  0  0  0  0
   35.2910   20.1210   32.2660 C   0  0  0  0  0  3  0  0  0  0  0  0
   39.5620   19.8000   30.9560 H   0  0  0  0  0  0  0  0  0  0  0  0
   38.3890   26.4870   33.6610 C   0  0  0  0  0  0  0  0  0  0  0  0
   38.4430   27.2160   34.8370 C   0  0  0  0  0  0  0  0  0  0  0  0
   39.3030   26.4620   35.6320 C   0  0  0  0  0  0  0  0  0  0  0  0
   39.7160   25.3550   34.9370 C   0  0  0  0  0  0  0  0  0  0  0  0
   39.1430   25.4040   33.7470 O   0  0  0  0  0  0  0  0  0  0  0  0
   37.9630   28.1270   35.1000 H   0  0  0  0  0  0  0  0  0  0  0  0
   39.6060   26.7040   36.6510 H   0  0  0  0  0  0  0  0  0  0  0  0
   41.8750   24.2040   34.8330 C   0  0  0  0  0  0  0  0  0  0  0  0
   40.6170   24.3040   35.3950 C   0  0  0  0  0  0  0  0  0  0  0  0
   40.1930   23.4350   36.3770 C   0  0  0  0  0  0  0  0  0  0  0  0
   41.0310   22.4190   36.8360 C   0  0  0  0  0  0  0  0  0  0  0  0
   40.9130   21.4440   37.7520 N   0  0  0  0  0  0  0  0  0  0  0  0
   42.0660   20.7690   37.7500 N   0  0  0  0  0  0  0  0  0  0  0  0
   42.9110   21.3140   36.8370 C   0  0  0  0  0  0  0  0  0  0  0  0
   42.2720   22.3730   36.2360 C   0  0  0  0  0  0  0  0  0  0  0  0
   42.7570   23.2030   35.2590 C   0  0  0  0  0  0  0  0  0  0  0  0
   42.1820   24.8940   34.0690 H   0  0  0  0  0  0  0  0  0  0  0  0
   39.1960   23.5250   36.8110 H   0  0  0  0  0  0  0  0  0  0  0  0
   40.0550   21.2770   38.3420 H   0  0  0  0  0  0  0  0  0  0  0  0
   43.8990   20.9010   36.6900 H   0  0  0  0  0  0  0  0  0  0  0  0
   43.7470   23.0810   34.8530 H   0  0  0  0  0  0  0  0  0  0  0  0
  1 23  1  0  0  0  0
  2  1  2  0  0  0  0
  3  4  2  0  0  0  0
  3  8  1  0  0  0  0
  4  5  1  0  0  0  0
  5 12  1  0  0  0  0
  5  6  2  0  0  0  0
  7  6  1  0  0  0  0
  7  1  1  0  0  0  0
  8  7  2  0  0  0  0
  9  3  1  0  0  0  0
 10  4  1  0  0  0  0
 11 21  1  0  0  0  0
 12 11  2  0  0  0  0
 13 15  2  0  0  0  0
 13 12  1  0  0  0  0
 14 13  1  0  0  0  0
 15 20  1  0  0  0  0
 16 15  1  0  0  0  0
 16 17  1  0  0  0  0
 17 19  2  0  0  0  0
 18 17  1  0  0  0  0
 20 19  1  0  0  0  0
 20 21  2  0  0  0  0
 22 16  1  0  0  0  0
 23 27  1  0  0  0  0
 23 24  2  0  0  0  0
 24 28  1  0  0  0  0
 24 25  1  0  0  0  0
 25 29  1  0  0  0  0
 26 31  1  0  0  0  0
 26 25  2  0  0  0  0
 27 26  1  0  0  0  0
 30 38  2  0  0  0  0
 30 31  1  0  0  0  0
 31 32  2  0  0  0  0
 32 40  1  0  0  0  0
 32 33  1  0  0  0  0
 33 34  1  0  0  0  0
 34 41  1  0  0  0  0
 35 34  1  0  0  0  0
 36 35  2  0  0  0  0
 37 33  2  0  0  0  0
 37 36  1  0  0  0  0
 38 37  1  0  0  0  0
 39 30  1  0  0  0  0
 42 36  1  0  0  0  0
 43 38  1  0  0  0  0
M  END
>  <minimizedAffinity>
-6.90147972

$$$$

 OpenBabel03272508503D

 43 48  0  0  0  0  0  0  0  0999 V2000
   38.9880   26.2030   34.6860 C   0  0  0  0  0  0  0  0  0  0  0  0
   40.1660   26.6020   34.6860 O   0  0  0  0  0  0  0  0  0  0  0  0
   38.4230   23.3490   36.8730 C   0  0  0  0  0  0  0  0  0  0  0  0
   37.9430   22.3740   36.0040 C   0  0  0  0  0  0  0  0  0  0  0  0
   37.8070   22.6770   34.6740 C   0  0  0  0  0  0  0  0  0  0  0  0
   38.1450   23.9090   34.2600 N   0  0  0  0  0  0  0  0  0  0  0  0
   38.6160   24.8600   35.1220 C   0  0  0  0  0  0  0  0  0  0  0  0
   38.7460   24.5570   36.4180 N   0  0  0  0  0  0  0  0  0  0  0  0
   38.5300   23.1070   37.9260 H   0  0  0  0  0  0  0  0  0  0  0  0
   37.6800   21.4020   36.3510 H   0  0  0  0  0  0  0  0  0  0  0  0
   36.1910   21.0030   33.9680 C   0  0  0  0  0  3  0  0  0  0  0  0
   37.3160   21.7430   33.6650 C   0  0  0  0  0  0  0  0  0  0  0  0
   37.9110   21.5600   32.4340 C   0  0  0  0  0  0  0  0  0  0  0  0
   38.7910   22.1320   32.1850 H   0  0  0  0  0  0  0  0  0  0  0  0
   37.3780   20.6550   31.5420 C   0  0  0  0  0  0  0  0  0  0  0  0
   37.7730   20.3080   30.3030 N   0  0  0  0  0  0  0  0  0  0  0  0
   36.9510   19.3760   29.7950 C   0  0  0  0  0  0  0  0  0  0  0  0
   36.8510   18.8060   28.8810 H   0  0  0  0  0  0  0  0  0  0  0  0
   36.0200   19.1290   30.7260 N   0  0  0  0  0  0  0  0  0  0  0  0
   36.2530   19.9030   31.8220 C   0  0  0  0  0  0  0  0  0  0  0  0
   35.6460   20.0820   33.0640 C   0  0  0  0  0  3  0  0  0  0  0  0
   38.5750   20.6380   29.7220 H   0  0  0  0  0  0  0  0  0  0  0  0
   37.9470   27.1300   34.2290 C   0  0  0  0  0  0  0  0  0  0  0  0
   37.5670   27.2740   32.9050 C   0  0  0  0  0  0  0  0  0  0  0  0
   36.5710   28.2440   32.9700 C   0  0  0  0  0  0  0  0  0  0  0  0
   36.3950   28.6310   34.2740 C   0  0  0  0  0  0  0  0  0  0  0  0
   37.2450   27.9350   35.0070 O   0  0  0  0  0  0  0  0  0  0  0  0
   37.9260   26.7840   32.0320 H   0  0  0  0  0  0  0  0  0  0  0  0
   36.0100   28.6420   32.1240 H   0  0  0  0  0  0  0  0  0  0  0  0
   34.1580   29.6280   34.3100 C   0  0  0  0  0  0  0  0  0  0  0  0
   35.4540   29.6210   34.7870 C   0  0  0  0  0  0  0  0  0  0  0  0
   35.8810   30.5260   35.7350 C   0  0  0  0  0  0  0  0  0  0  0  0
   35.0060   31.4850   36.2460 C   0  0  0  0  0  0  0  0  0  0  0  0
   35.1170   32.4730   37.1480 N   0  0  0  0  0  0  0  0  0  0  0  0
   33.9210   33.0660   37.2200 N   0  0  0  0  0  0  0  0  0  0  0  0
   33.0580   32.4560   36.3680 C   0  0  0  0  0  0  0  0  0  0  0  0
   33.7280   31.4390   35.7300 C   0  0  0  0  0  0  0  0  0  0  0  0
   33.2390   30.5700   34.7900 C   0  0  0  0  0  0  0  0  0  0  0  0
   33.8500   28.9120   33.5710 H   0  0  0  0  0  0  0  0  0  0  0  0
   36.9080   30.5100   36.1020 H   0  0  0  0  0  0  0  0  0  0  0  0
   35.9980   32.7050   37.6790 H   0  0  0  0  0  0  0  0  0  0  0  0
   32.0360   32.7990   36.2860 H   0  0  0  0  0  0  0  0  0  0  0  0
   32.2170   30.6180   34.4510 H   0  0  0  0  0  0  0  0  0  0  0  0
  1  2  2  0  0  0  0
  1  7  1  0  0  0  0
  3  9  1  0  0  0  0
  4 10  1  0  0  0  0
  4  3  2  0  0  0  0
  5  4  1  0  0  0  0
  6  5  2  0  0  0  0
  6  7  1  0  0  0  0
  7  8  2  0  0  0  0
  8  3  1  0  0  0  0
 12 11  1  0  0  0  0
 12  5  1  0  0  0  0
 13 12  2  0  0  0  0
 14 13  1  0  0  0  0
 15 20  2  0  0  0  0
 15 13  1  0  0  0  0
 16 15  1  0  0  0  0
 17 16  1  0  0  0  0
 17 19  2  0  0  0  0
 18 17  1  0  0  0  0
 19 20  1  0  0  0  0
 20 21  1  0  0  0  0
 21 11  2  0  0  0  0
 22 16  1  0  0  0  0
 23  1  1  0  0  0  0
 23 27  1  0  0  0  0
 24 25  1  0  0  0  0
 24 23  2  0  0  0  0
 25 26  2  0  0  0  0
 26 31  1  0  0  0  0
 26 27  1  0  0  0  0
 28 24  1  0  0  0  0
 29 25  1  0  0  0  0
 30 31  2  0  0  0  0
 30 38  1  0  0  0  0
 31 32  1  0  0  0  0
 32 40  1  0  0  0  0
 32 33  2  0  0  0  0
 33 34  1  0  0  0  0
 34 35  1  0  0  0  0
 34 41  1  0  0  0  0
 36 35  2  0  0  0  0
 37 33  1  0  0  0  0
 37 36  1  0  0  0  0
 38 37  2  0  0  0  0
 39 30  1  0  0  0  0
 42 36  1  0  0  0  0
 43 38  1  0  0  0  0
M  END
>  <minimizedAffinity>
-6.89104509

$$$$

 OpenBabel03272508503D

 43 48  0  0  0  0  0  0  0  0999 V2000
   38.7220   26.3010   34.7730 C   0  0  0  0  0  0  0  0  0  0  0  0
   39.7430   26.7720   35.3050 O   0  0  0  0  0  0  0  0  0  0  0  0
   36.9120   27.6970   31.9400 C   0  0  0  0  0  0  0  0  0  0  0  0
   36.0640   28.6270   32.5330 C   0  0  0  0  0  0  0  0  0  0  0  0
   36.1000   28.7870   33.8930 C   0  0  0  0  0  0  0  0  0  0  0  0
   36.9560   28.0350   34.6040 N   0  0  0  0  0  0  0  0  0  0  0  0
   37.7850   27.1240   34.0120 C   0  0  0  0  0  0  0  0  0  0  0  0
   37.7450   26.9750   32.6840 N   0  0  0  0  0  0  0  0  0  0  0  0
   36.8830   27.5710   30.8610 H   0  0  0  0  0  0  0  0  0  0  0  0
   35.3910   29.2140   31.9510 H   0  0  0  0  0  0  0  0  0  0  0  0
   33.9030   29.7080   34.3870 C   0  0  0  0  0  3  0  0  0  0  0  0
   35.2620   29.7280   34.6310 C   0  0  0  0  0  0  0  0  0  0  0  0
   35.7500   30.6300   35.5530 C   0  0  0  0  0  0  0  0  0  0  0  0
   36.8100   30.6570   35.7530 H   0  0  0  0  0  0  0  0  0  0  0  0
   34.8850   31.4840   36.2040 C   0  0  0  0  0  0  0  0  0  0  0  0
   35.1190   32.4340   37.1280 N   0  0  0  0  0  0  0  0  0  0  0  0
   33.9700   33.0270   37.4890 C   0  0  0  0  0  0  0  0  0  0  0  0
   33.6480   33.8080   38.1630 H   0  0  0  0  0  0  0  0  0  0  0  0
   32.9930   32.4420   36.7830 N   0  0  0  0  0  0  0  0  0  0  0  0
   33.5220   31.4820   35.9760 C   0  0  0  0  0  0  0  0  0  0  0  0
   33.0210   30.5720   35.0460 C   0  0  0  0  0  3  0  0  0  0  0  0
   36.0080   32.7520   37.5720 H   0  0  0  0  0  0  0  0  0  0  0  0
   38.4660   24.8650   34.9240 C   0  0  0  0  0  0  0  0  0  0  0  0
   38.7510   24.1460   36.0720 C   0  0  0  0  0  0  0  0  0  0  0  0
   38.3410   22.8570   35.7420 C   0  0  0  0  0  0  0  0  0  0  0  0
   37.8450   22.8480   34.4640 C   0  0  0  0  0  0  0  0  0  0  0  0
   37.9370   24.0820   34.0000 O   0  0  0  0  0  0  0  0  0  0  0  0
   39.1770   24.4650   36.9930 H   0  0  0  0  0  0  0  0  0  0  0  0
   38.3990   21.9820   36.3910 H   0  0  0  0  0  0  0  0  0  0  0  0
   36.1430   21.1120   34.1640 C   0  0  0  0  0  0  0  0  0  0  0  0
   37.3100   21.7090   33.7260 C   0  0  0  0  0  0  0  0  0  0  0  0
   37.9800   21.2550   32.6110 C   0  0  0  0  0  0  0  0  0  0  0  0
   37.4940   20.1680   31.8840 C   0  0  0  0  0  0  0  0  0  0  0  0
   37.9060   19.5090   30.7890 N   0  0  0  0  0  0  0  0  0  0  0  0
   37.0150   18.5380   30.5640 N   0  0  0  0  0  0  0  0  0  0  0  0
   36.0450   18.5820   31.5130 C   0  0  0  0  0  0  0  0  0  0  0  0
   36.3270   19.6170   32.3720 C   0  0  0  0  0  0  0  0  0  0  0  0
   35.6120   20.0180   33.4700 C   0  0  0  0  0  0  0  0  0  0  0  0
   35.6400   21.4850   35.0360 H   0  0  0  0  0  0  0  0  0  0  0  0
   38.9010   21.7350   32.2770 H   0  0  0  0  0  0  0  0  0  0  0  0
   38.7730   19.7450   30.2380 H   0  0  0  0  0  0  0  0  0  0  0  0
   35.2310   17.8700   31.4970 H   0  0  0  0  0  0  0  0  0  0  0  0
   34.7060   19.5170   33.7700 H   0  0  0  0  0  0  0  0  0  0  0  0
  1 23  1  0  0  0  0
  1  2  2  0  0  0  0
  3  4  2  0  0  0  0
  3  8  1  0  0  0  0
  4  5  1  0  0  0  0
  5  6  2  0  0  0  0
  5 12  1  0  0  0  0
  7  6  1  0  0  0  0
  7  1  1  0  0  0  0
  8  7  2  0  0  0  0
  9  3  1  0  0  0  0
 10  4  1  0  0  0  0
 11 12  2  0  0  0  0
 11 21  1  0  0  0  0
 12 13  1  0  0  0  0
 13 14  1  0  0  0  0
 13 15  2  0  0  0  0
 15 16  1  0  0  0  0
 16 17  1  0  0  0  0
 16 22  1  0  0  0  0
 17 18  1  0  0  0  0
 19 17  2  0  0  0  0
 20 15  1  0  0  0  0
 20 19  1  0  0  0  0
 21 20  2  0  0  0  0
 23 24  2  0  0  0  0
 24 28  1  0  0  0  0
 25 24  1  0  0  0  0
 25 29  1  0  0  0  0
 26 25  2  0  0  0  0
 27 26  1  0  0  0  0
 27 23  1  0  0  0  0
 30 39  1  0  0  0  0
 31 30  1  0  0  0  0
 31 26  1  0  0  0  0
 32 31  2  0  0  0  0
 33 37  2  0  0  0  0
 33 32  1  0  0  0  0
 34 33  1  0  0  0  0
 35 34  1  0  0  0  0
 35 36  2  0  0  0  0
 36 37  1  0  0  0  0
 37 38  1  0  0  0  0
 38 43  1  0  0  0  0
 38 30  2  0  0  0  0
 40 32  1  0  0  0  0
 41 34  1  0  0  0  0
 42 36  1  0  0  0  0
M  END
>  <minimizedAffinity>
-6.87700701

$$$$

 OpenBabel03272508503D

 43 48  0  0  0  0  0  0  0  0999 V2000
   38.1690   27.7140   30.5260 C   0  0  0  0  0  0  0  0  0  0  0  0
   38.9480   28.0210   29.6050 O   0  0  0  0  0  0  0  0  0  0  0  0
   38.1450   24.0860   30.8190 C   0  0  0  0  0  0  0  0  0  0  0  0
   38.1380   23.8790   32.1950 C   0  0  0  0  0  0  0  0  0  0  0  0
   38.1420   24.9660   33.0300 C   0  0  0  0  0  0  0  0  0  0  0  0
   38.1530   26.1930   32.4850 N   0  0  0  0  0  0  0  0  0  0  0  0
   38.1590   26.3860   31.1320 C   0  0  0  0  0  0  0  0  0  0  0  0
   38.1540   25.3210   30.3230 N   0  0  0  0  0  0  0  0  0  0  0  0
   38.1410   23.2240   30.1580 H   0  0  0  0  0  0  0  0  0  0  0  0
   38.1300   22.8980   32.6080 H   0  0  0  0  0  0  0  0  0  0  0  0
   38.0860   26.0600   35.2020 C   0  0  0  0  0  3  0  0  0  0  0  0
   38.1360   24.8800   34.4880 C   0  0  0  0  0  0  0  0  0  0  0  0
   38.1780   23.6910   35.1860 C   0  0  0  0  0  0  0  0  0  0  0  0
   38.2180   22.7610   34.6400 H   0  0  0  0  0  0  0  0  0  0  0  0
   38.1690   23.7030   36.5650 C   0  0  0  0  0  0  0  0  0  0  0  0
   38.2030   22.6910   37.4510 N   0  0  0  0  0  0  0  0  0  0  0  0
   38.1760   23.1690   38.7060 C   0  0  0  0  0  0  0  0  0  0  0  0
   38.1850   22.7780   39.7130 H   0  0  0  0  0  0  0  0  0  0  0  0
   38.1240   24.5050   38.6120 N   0  0  0  0  0  0  0  0  0  0  0  0
   38.1190   24.8720   37.3010 C   0  0  0  0  0  0  0  0  0  0  0  0
   38.0760   26.0780   36.6020 C   0  0  0  0  0  3  0  0  0  0  0  0
   38.2440   21.6580   37.3100 H   0  0  0  0  0  0  0  0  0  0  0  0
   37.2360   28.7370   31.0090 C   0  0  0  0  0  0  0  0  0  0  0  0
   36.8080   29.8130   30.2500 C   0  0  0  0  0  0  0  0  0  0  0  0
   35.9530   30.4860   31.1180 C   0  0  0  0  0  0  0  0  0  0  0  0
   35.8990   29.8200   32.3160 C   0  0  0  0  0  0  0  0  0  0  0  0
   36.6890   28.7660   32.2120 O   0  0  0  0  0  0  0  0  0  0  0  0
   37.0520   30.0880   29.2520 H   0  0  0  0  0  0  0  0  0  0  0  0
   35.4040   31.4010   30.8930 H   0  0  0  0  0  0  0  0  0  0  0  0
   33.8350   29.7060   33.6290 C   0  0  0  0  0  0  0  0  0  0  0  0
   35.1260   30.1800   33.4990 C   0  0  0  0  0  0  0  0  0  0  0  0
   35.7020   30.9840   34.4590 C   0  0  0  0  0  0  0  0  0  0  0  0
   34.9890   31.3460   35.6020 C   0  0  0  0  0  0  0  0  0  0  0  0
   35.2620   32.0930   36.6840 N   0  0  0  0  0  0  0  0  0  0  0  0
   34.1690   32.0750   37.4530 N   0  0  0  0  0  0  0  0  0  0  0  0
   33.2080   31.3200   36.8600 C   0  0  0  0  0  0  0  0  0  0  0  0
   33.7070   30.8410   35.6720 C   0  0  0  0  0  0  0  0  0  0  0  0
   33.0760   30.0390   34.7580 C   0  0  0  0  0  0  0  0  0  0  0  0
   33.4100   29.0810   32.8660 H   0  0  0  0  0  0  0  0  0  0  0  0
   36.7220   31.3520   34.3430 H   0  0  0  0  0  0  0  0  0  0  0  0
   36.1790   32.5840   36.8570 H   0  0  0  0  0  0  0  0  0  0  0  0
   32.2460   31.1870   37.3360 H   0  0  0  0  0  0  0  0  0  0  0  0
   32.0650   29.6970   34.9070 H   0  0  0  0  0  0  0  0  0  0  0  0
  1 23  1  0  0  0  0
  1  7  1  0  0  0  0
  2  1  2  0  0  0  0
  3  4  1  0  0  0  0
  4 10  1  0  0  0  0
  4  5  2  0  0  0  0
  5 12  1  0  0  0  0
  6  5  1  0  0  0  0
  7  6  2  0  0  0  0
  8  3  2  0  0  0  0
  8  7  1  0  0  0  0
  9  3  1  0  0  0  0
 11 21  1  0  0  0  0
 12 13  1  0  0  0  0
 12 11  2  0  0  0  0
 13 15  2  0  0  0  0
 14 13  1  0  0  0  0
 15 20  1  0  0  0  0
 15 16  1  0  0  0  0
 16 17  1  0  0  0  0
 17 18  1  0  0  0  0
 19 17  2  0  0  0  0
 20 19  1  0  0  0  0
 21 20  2  0  0  0  0
 22 16  1  0  0  0  0
 23 27  1  0  0  0  0
 24 23  2  0  0  0  0
 24 25  1  0  0  0  0
 25 26  2  0  0  0  0
 26 31  1  0  0  0  0
 27 26  1  0  0  0  0
 28 24  1  0  0  0  0
 29 25  1  0  0  0  0
 30 38  1  0  0  0  0
 31 30  2  0  0  0  0
 31 32  1  0  0  0  0
 32 33  2  0  0  0  0
 33 37  1  0  0  0  0
 33 34  1  0  0  0  0
 34 41  1  0  0  0  0
 34 35  1  0  0  0  0
 36 42  1  0  0  0  0
 36 35  2  0  0  0  0
 37 36  1  0  0  0  0
 38 43  1  0  0  0  0
 38 37  2  0  0  0  0
 39 30  1  0  0  0  0
 40 32  1  0  0  0  0
M  END
>  <minimizedAffinity>
-6.8677845

$$$$

 OpenBabel03272508503D

 43 48  0  0  0  0  0  0  0  0999 V2000
   36.4070   26.9210   32.0050 C   0  0  0  0  0  0  0  0  0  0  0  0
   36.2740   27.8810   31.2250 O   0  0  0  0  0  0  0  0  0  0  0  0
   37.3070   28.2740   35.2620 C   0  0  0  0  0  0  0  0  0  0  0  0
   38.2400   27.3590   35.7380 C   0  0  0  0  0  0  0  0  0  0  0  0
   38.5700   26.2790   34.9600 C   0  0  0  0  0  0  0  0  0  0  0  0
   37.9760   26.1470   33.7630 N   0  0  0  0  0  0  0  0  0  0  0  0
   37.0590   27.0520   33.3040 C   0  0  0  0  0  0  0  0  0  0  0  0
   36.7440   28.1020   34.0690 N   0  0  0  0  0  0  0  0  0  0  0  0
   37.0470   29.1290   35.8790 H   0  0  0  0  0  0  0  0  0  0  0  0
   38.7010   27.4810   36.6910 H   0  0  0  0  0  0  0  0  0  0  0  0
   40.8370   25.3990   34.9190 C   0  0  0  0  0  3  0  0  0  0  0  0
   39.5330   25.2520   35.3470 C   0  0  0  0  0  0  0  0  0  0  0  0
   39.2130   24.1510   36.1140 C   0  0  0  0  0  0  0  0  0  0  0  0
   38.1970   24.0240   36.4550 H   0  0  0  0  0  0  0  0  0  0  0  0
   40.1870   23.2290   36.4320 C   0  0  0  0  0  0  0  0  0  0  0  0
   40.1200   22.0950   37.1530 N   0  0  0  0  0  0  0  0  0  0  0  0
   41.3240   21.5040   37.2070 C   0  0  0  0  0  0  0  0  0  0  0  0
   41.7650   20.6180   37.6430 H   0  0  0  0  0  0  0  0  0  0  0  0
   42.1680   22.2770   36.5100 N   0  0  0  0  0  0  0  0  0  0  0  0
   41.4990   23.3540   36.0150 C   0  0  0  0  0  0  0  0  0  0  0  0
   41.8300   24.4660   35.2410 C   0  0  0  0  0  3  0  0  0  0  0  0
   39.3180   21.6410   37.6420 H   0  0  0  0  0  0  0  0  0  0  0  0
   35.8800   25.6170   31.5870 C   0  0  0  0  0  0  0  0  0  0  0  0
   34.7880   25.4560   30.7520 C   0  0  0  0  0  0  0  0  0  0  0  0
   34.6760   24.0720   30.6490 C   0  0  0  0  0  0  0  0  0  0  0  0
   35.6620   23.4770   31.3930 C   0  0  0  0  0  0  0  0  0  0  0  0
   36.3720   24.4440   31.9470 O   0  0  0  0  0  0  0  0  0  0  0  0
   34.1660   26.1840   30.2890 H   0  0  0  0  0  0  0  0  0  0  0  0
   33.9250   23.5330   30.0700 H   0  0  0  0  0  0  0  0  0  0  0  0
   34.9220   21.2580   32.1190 C   0  0  0  0  0  0  0  0  0  0  0  0
   35.9080   22.0490   31.5620 C   0  0  0  0  0  0  0  0  0  0  0  0
   37.1170   21.5240   31.1630 C   0  0  0  0  0  0  0  0  0  0  0  0
   37.3840   20.1620   31.3110 C   0  0  0  0  0  0  0  0  0  0  0  0
   38.4320   19.3730   31.0280 N   0  0  0  0  0  0  0  0  0  0  0  0
   38.0960   18.1340   31.4010 N   0  0  0  0  0  0  0  0  0  0  0  0
   36.8400   18.1400   31.9180 C   0  0  0  0  0  0  0  0  0  0  0  0
   36.3600   19.4270   31.8720 C   0  0  0  0  0  0  0  0  0  0  0  0
   35.1380   19.8840   32.2890 C   0  0  0  0  0  0  0  0  0  0  0  0
   33.9880   21.6920   32.4220 H   0  0  0  0  0  0  0  0  0  0  0  0
   37.8880   22.1600   30.7250 H   0  0  0  0  0  0  0  0  0  0  0  0
   39.3330   19.7050   30.5930 H   0  0  0  0  0  0  0  0  0  0  0  0
   36.3910   17.2240   32.2760 H   0  0  0  0  0  0  0  0  0  0  0  0
   34.4020   19.2240   32.7190 H   0  0  0  0  0  0  0  0  0  0  0  0
  1  7  1  0  0  0  0
  2  1  2  0  0  0  0
  3  4  1  0  0  0  0
  3  9  1  0  0  0  0
  4 10  1  0  0  0  0
  5 12  1  0  0  0  0
  5  4  2  0  0  0  0
  6  5  1  0  0  0  0
  7  6  2  0  0  0  0
  7  8  1  0  0  0  0
  8  3  2  0  0  0  0
 11 21  2  0  0  0  0
 11 12  1  0  0  0  0
 12 13  2  0  0  0  0
 13 15  1  0  0  0  0
 13 14  1  0  0  0  0
 15 16  1  0  0  0  0
 16 17  1  0  0  0  0
 16 22  1  0  0  0  0
 17 18  1  0  0  0  0
 19 17  2  0  0  0  0
 20 15  2  0  0  0  0
 20 19  1  0  0  0  0
 21 20  1  0  0  0  0
 23 27  1  0  0  0  0
 23  1  1  0  0  0  0
 24 23  2  0  0  0  0
 25 24  1  0  0  0  0
 25 26  2  0  0  0  0
 26 31  1  0  0  0  0
 26 27  1  0  0  0  0
 28 24  1  0  0  0  0
 29 25  1  0  0  0  0
 30 38  1  0  0  0  0
 30 39  1  0  0  0  0
 31 30  2  0  0  0  0
 32 33  2  0  0  0  0
 32 31  1  0  0  0  0
 33 37  1  0  0  0  0
 34 33  1  0  0  0  0
 34 35  1  0  0  0  0
 35 36  2  0  0  0  0
 36 42  1  0  0  0  0
 37 36  1  0  0  0  0
 37 38  2  0  0  0  0
 38 43  1  0  0  0  0
 40 32  1  0  0  0  0
 41 34  1  0  0  0  0
M  END
>  <minimizedAffinity>
-6.83140564

$$$$

 OpenBabel03272508503D

 43 48  0  0  0  0  0  0  0  0999 V2000
   36.9840   28.6690   30.2580 C   0  0  0  0  0  0  0  0  0  0  0  0
   37.2990   28.5280   29.0640 O   0  0  0  0  0  0  0  0  0  0  0  0
   37.0810   32.2780   30.7180 C   0  0  0  0  0  0  0  0  0  0  0  0
   36.4420   32.4590   31.9400 C   0  0  0  0  0  0  0  0  0  0  0  0
   35.9740   31.3620   32.6150 C   0  0  0  0  0  0  0  0  0  0  0  0
   36.1530   30.1490   32.0670 N   0  0  0  0  0  0  0  0  0  0  0  0
   36.7820   29.9810   30.8650 C   0  0  0  0  0  0  0  0  0  0  0  0
   37.2360   31.0570   30.2130 N   0  0  0  0  0  0  0  0  0  0  0  0
   37.4510   33.1490   30.1840 H   0  0  0  0  0  0  0  0  0  0  0  0
   36.3100   33.4300   32.3590 H   0  0  0  0  0  0  0  0  0  0  0  0
   35.9250   32.0700   34.9410 C   0  0  0  0  0  3  0  0  0  0  0  0
   35.2890   31.4210   33.9030 C   0  0  0  0  0  0  0  0  0  0  0  0
   34.0460   30.8680   34.1360 C   0  0  0  0  0  0  0  0  0  0  0  0
   33.5380   30.3580   33.3330 H   0  0  0  0  0  0  0  0  0  0  0  0
   33.4730   30.9720   35.3860 C   0  0  0  0  0  0  0  0  0  0  0  0
   32.2920   30.5210   35.8490 N   0  0  0  0  0  0  0  0  0  0  0  0
   32.1410   30.8520   37.1410 C   0  0  0  0  0  0  0  0  0  0  0  0
   31.4030   30.7250   37.9210 H   0  0  0  0  0  0  0  0  0  0  0  0
   33.2440   31.5230   37.5020 N   0  0  0  0  0  0  0  0  0  0  0  0
   34.0900   31.6160   36.4410 C   0  0  0  0  0  0  0  0  0  0  0  0
   35.3460   32.1780   36.2120 C   0  0  0  0  0  3  0  0  0  0  0  0
   31.5300   29.9870   35.3770 H   0  0  0  0  0  0  0  0  0  0  0  0
   36.8100   27.4610   31.0720 C   0  0  0  0  0  0  0  0  0  0  0  0
   35.8730   26.4770   30.8050 C   0  0  0  0  0  0  0  0  0  0  0  0
   36.0860   25.5580   31.8280 C   0  0  0  0  0  0  0  0  0  0  0  0
   37.1000   26.0020   32.6380 C   0  0  0  0  0  0  0  0  0  0  0  0
   37.5140   27.1570   32.1490 O   0  0  0  0  0  0  0  0  0  0  0  0
   35.1540   26.4090   30.0240 H   0  0  0  0  0  0  0  0  0  0  0  0
   35.5400   24.6250   31.9740 H   0  0  0  0  0  0  0  0  0  0  0  0
   37.6580   26.0300   35.0230 C   0  0  0  0  0  0  0  0  0  0  0  0
   37.6430   25.3460   33.8220 C   0  0  0  0  0  0  0  0  0  0  0  0
   38.1280   24.0600   33.7170 C   0  0  0  0  0  0  0  0  0  0  0  0
   38.6530   23.4050   34.8310 C   0  0  0  0  0  0  0  0  0  0  0  0
   39.1860   22.1910   35.0440 N   0  0  0  0  0  0  0  0  0  0  0  0
   39.5170   22.1360   36.3370 N   0  0  0  0  0  0  0  0  0  0  0  0
   39.1950   23.3090   36.9400 C   0  0  0  0  0  0  0  0  0  0  0  0
   38.6400   24.1410   35.9970 C   0  0  0  0  0  0  0  0  0  0  0  0
   38.1740   25.4180   36.1720 C   0  0  0  0  0  0  0  0  0  0  0  0
   37.2750   27.0310   35.0790 H   0  0  0  0  0  0  0  0  0  0  0  0
   38.1100   23.5320   32.7620 H   0  0  0  0  0  0  0  0  0  0  0  0
   39.3030   21.4500   34.3040 H   0  0  0  0  0  0  0  0  0  0  0  0
   39.3890   23.4540   37.9940 H   0  0  0  0  0  0  0  0  0  0  0  0
   38.2100   25.9080   37.1310 H   0  0  0  0  0  0  0  0  0  0  0  0
  1  7  1  0  0  0  0
  1 23  1  0  0  0  0
  2  1  2  0  0  0  0
  3  4  1  0  0  0  0
  4 10  1  0  0  0  0
  4  5  2  0  0  0  0
  5 12  1  0  0  0  0
  6  5  1  0  0  0  0
  7  6  2  0  0  0  0
  8  3  2  0  0  0  0
  8  7  1  0  0  0  0
  9  3  1  0  0  0  0
 11 21  1  0  0  0  0
 12 13  1  0  0  0  0
 12 11  2  0  0  0  0
 13 15  2  0  0  0  0
 14 13  1  0  0  0  0
 15 16  1  0  0  0  0
 15 20  1  0  0  0  0
 16 17  1  0  0  0  0
 17 19  2  0  0  0  0
 17 18  1  0  0  0  0
 20 19  1  0  0  0  0
 21 20  2  0  0  0  0
 22 16  1  0  0  0  0
 23 27  1  0  0  0  0
 24 23  2  0  0  0  0
 24 25  1  0  0  0  0
 25 29  1  0  0  0  0
 25 26  2  0  0  0  0
 26 31  1  0  0  0  0
 27 26  1  0  0  0  0
 28 24  1  0  0  0  0
 30 39  1  0  0  0  0
 30 38  1  0  0  0  0
 31 30  2  0  0  0  0
 32 31  1  0  0  0  0
 32 33  2  0  0  0  0
 33 34  1  0  0  0  0
 33 37  1  0  0  0  0
 34 35  1  0  0  0  0
 35 36  2  0  0  0  0
 36 42  1  0  0  0  0
 37 38  2  0  0  0  0
 37 36  1  0  0  0  0
 38 43  1  0  0  0  0
 40 32  1  0  0  0  0
 41 34  1  0  0  0  0
M  END
>  <minimizedAffinity>
-6.79361725

$$$$
