
 OpenBabel03272501083D

 43 47  0  0  1  0  0  0  0  0999 V2000
   40.5980   32.0210   44.6250 Cl  0  0  0  0  0  0  0  0  0  0  0  0
   39.0740   31.1720   44.5060 C   0  0  0  0  0  0  0  0  0  0  0  0
   38.1630   31.4990   45.5020 C   0  0  0  0  0  0  0  0  0  0  0  0
   36.9520   30.8380   45.4150 C   0  0  0  0  0  0  0  0  0  0  0  0
   36.6780   29.9260   44.4130 C   0  0  0  0  0  0  0  0  0  0  0  0
   37.6180   29.6470   43.4590 C   0  0  0  0  0  0  0  0  0  0  0  0
   38.8300   30.2770   43.5050 C   0  0  0  0  0  0  0  0  0  0  0  0
   36.1240   30.9610   46.0970 H   0  0  0  0  0  0  0  0  0  0  0  0
   35.7410   29.3940   44.3190 H   0  0  0  0  0  0  0  0  0  0  0  0
   37.4230   28.9380   42.6690 H   0  0  0  0  0  0  0  0  0  0  0  0
   40.9500   29.1550   42.5540 C   0  0  0  0  0  3  0  0  0  0  0  0
   39.8770   30.0220   42.5180 C   0  0  0  0  0  0  0  0  0  0  0  0
   39.6870   30.8260   41.3900 C   0  0  0  0  0  0  0  0  0  0  0  0
   38.8920   31.5470   41.2280 H   0  0  0  0  0  0  0  0  0  0  0  0
   40.5500   30.7710   40.3090 C   0  0  0  0  0  0  0  0  0  0  0  0
   40.6620   31.3770   39.1110 N   0  0  0  0  0  0  0  0  0  0  0  0
   41.7500   30.9050   38.4440 C   0  0  0  0  0  0  0  0  0  0  0  0
   42.0810   31.2150   37.4590 H   0  0  0  0  0  0  0  0  0  0  0  0
   42.3350   29.9960   39.2180 N   0  0  0  0  0  0  0  0  0  0  0  0
   41.6240   29.8910   40.3660 C   0  0  0  0  0  0  0  0  0  0  0  0
   41.8060   29.1040   41.4760 C   0  0  0  0  0  3  0  0  0  0  0  0
   40.0010   32.1040   38.7560 H   0  0  0  0  0  0  0  0  0  0  0  0
   38.2150   32.3420   46.5550 O   0  0  0  0  0  0  0  0  0  0  0  0
   38.9340   32.4680   47.6940 C   0  0  2  0  0  0  0  0  0  0  0  0
   38.0280   32.7550   48.9370 C   0  0  2  0  0  0  0  0  0  0  0  0
   38.9570   33.4740   49.7910 C   0  0  0  0  0  0  0  0  0  0  0  0
   39.7830   34.2490   48.9870 O   0  0  0  0  0  0  0  0  0  0  0  0
   39.6190   33.8650   47.6930 C   0  0  0  0  0  0  0  0  0  0  0  0
   39.6760   31.7250   47.9660 H   0  0  0  0  0  0  0  0  0  0  0  0
   37.2110   33.4480   48.5790 H   0  0  0  0  0  0  0  0  0  0  0  0
   38.3850   34.1800   50.4500 H   0  0  0  0  0  0  0  0  0  0  0  0
   39.5940   32.8970   50.4570 H   0  0  0  0  0  0  0  0  0  0  0  0
   39.0200   34.5790   47.1070 H   0  0  0  0  0  0  0  0  0  0  0  0
   40.5940   33.7360   47.1830 H   0  0  0  0  0  0  0  0  0  0  0  0
   37.3620   29.6110   50.8910 C   0  0  0  0  0  0  0  0  0  0  0  0
   38.0310   30.7850   50.4490 C   0  0  0  0  0  0  0  0  0  0  0  0
   37.3950   31.5630   49.4360 C   0  0  0  0  0  0  0  0  0  0  0  0
   36.1800   31.1480   48.9390 N   0  0  0  0  0  0  0  0  0  0  0  0
   35.5930   30.0350   49.3910 C   0  0  0  0  0  0  0  0  0  0  0  0
   36.1610   29.2620   50.3550 N   0  0  0  0  0  0  0  0  0  0  0  0
   37.8650   29.0440   51.6560 H   0  0  0  0  0  0  0  0  0  0  0  0
   38.9850   31.0640   50.8730 H   0  0  0  0  0  0  0  0  0  0  0  0
   34.6380   29.7320   48.9840 H   0  0  0  0  0  0  0  0  0  0  0  0
  2  1  1  0  0  0  0
  2  3  1  0  0  0  0
  3 23  1  0  0  0  0
  4  3  2  0  0  0  0
  4  8  1  0  0  0  0
  5  4  1  0  0  0  0
  6  7  1  0  0  0  0
  6  5  2  0  0  0  0
  7  2  2  0  0  0  0
  9  5  1  0  0  0  0
 10  6  1  0  0  0  0
 12 11  1  0  0  0  0
 12  7  1  0  0  0  0
 13 12  2  0  0  0  0
 14 13  1  0  0  0  0
 15 20  2  0  0  0  0
 15 13  1  0  0  0  0
 16 15  1  0  0  0  0
 17 16  1  0  0  0  0
 17 19  2  0  0  0  0
 18 17  1  0  0  0  0
 19 20  1  0  0  0  0
 20 21  1  0  0  0  0
 21 11  2  0  0  0  0
 22 16  1  0  0  0  0
 23 24  1  0  0  0  0
 24 29  1  1  0  0  0
 24 25  1  0  0  0  0
 25 30  1  6  0  0  0
 25 37  1  0  0  0  0
 25 26  1  0  0  0  0
 26 31  1  0  0  0  0
 26 32  1  0  0  0  0
 27 26  1  0  0  0  0
 28 24  1  0  0  0  0
 28 27  1  0  0  0  0
 33 28  1  0  0  0  0
 34 28  1  0  0  0  0
 35 41  1  0  0  0  0
 36 42  1  0  0  0  0
 36 35  1  0  0  0  0
 37 36  2  0  0  0  0
 38 39  2  0  0  0  0
 38 37  1  0  0  0  0
 39 40  1  0  0  0  0
 40 35  2  0  0  0  0
 43 39  1  0  0  0  0
M  END
>  <minimizedAffinity>
-6.54050589

>  <minimizedRMSD>
1.37177026

$$$$
