
 OpenBabel03272507193D

 33 36  0  0  1  0  0  0  0  0999 V2000
   37.6480   31.3700   49.4600 C   0  0  0  0  0  0  0  0  0  0  0  0
   38.3040   32.5670   49.7010 C   0  0  0  0  0  0  0  0  0  0  0  0
   38.9190   33.1300   48.5600 C   0  0  0  0  0  0  0  0  0  0  0  0
   38.8470   32.5120   47.3460 N   0  0  0  0  0  0  0  0  0  0  0  0
   38.1890   31.3390   47.1640 C   0  0  0  0  0  0  0  0  0  0  0  0
   37.5800   30.7620   48.2500 N   0  0  0  0  0  0  0  0  0  0  0  0
   38.3420   33.0260   50.6700 H   0  0  0  0  0  0  0  0  0  0  0  0
   39.4540   34.0640   48.6600 H   0  0  0  0  0  0  0  0  0  0  0  0
   36.8730   30.5430   45.2830 C   0  0  0  0  0  3  0  0  0  0  0  0
   38.1190   30.6890   45.8570 C   0  0  0  0  0  0  0  0  0  0  0  0
   39.2400   30.2270   45.1940 C   0  0  0  0  0  0  0  0  0  0  0  0
   40.2020   30.3570   45.6710 H   0  0  0  0  0  0  0  0  0  0  0  0
   39.1740   29.6130   43.9600 C   0  0  0  0  0  0  0  0  0  0  0  0
   40.0820   29.0860   43.1170 N   0  0  0  0  0  0  0  0  0  0  0  0
   39.3910   28.6320   42.0560 C   0  0  0  0  0  0  0  0  0  0  0  0
   39.9620   28.1620   41.2530 H   0  0  0  0  0  0  0  0  0  0  0  0
   38.0720   28.8660   42.2230 N   0  0  0  0  0  0  0  0  0  0  0  0
   37.9060   29.4810   43.4080 C   0  0  0  0  0  0  0  0  0  0  0  0
   36.7710   29.9330   44.0480 C   0  0  0  0  0  3  0  0  0  0  0  0
   41.1030   29.0860   43.3510 H   0  0  0  0  0  0  0  0  0  0  0  0
   36.9610   30.7550   50.6390 C   0  0  1  0  0  0  0  0  0  0  0  0
   36.1170   29.5670   50.5120 C   0  0  2  0  0  0  0  0  0  0  0  0
   37.5250   29.3650   50.9870 C   0  0  0  0  0  0  0  0  0  0  0  0
   36.9030   31.4680   51.4950 H   0  0  0  0  0  0  0  0  0  0  0  0
   35.2420   29.5800   51.2250 H   0  0  0  0  0  0  0  0  0  0  0  0
   38.2140   28.8790   50.2630 H   0  0  0  0  0  0  0  0  0  0  0  0
   37.7430   29.2330   52.0520 H   0  0  0  0  0  0  0  0  0  0  0  0
   35.7710   29.1700   49.2280 O   0  0  0  0  0  0  0  0  0  0  0  0
   34.5500   29.0000   48.6670 C   0  0  0  0  0  0  0  0  0  0  0  0
   34.4030   28.7590   47.4490 O   0  0  0  0  0  0  0  0  0  0  0  0
   33.5880   29.1430   49.6680 N   0  0  0  0  0  0  0  0  0  0  0  0
   33.4220   28.1200   49.9020 H   0  0  0  0  0  0  0  0  0  0  0  0
   33.3830   30.1730   49.8240 H   0  0  0  0  0  0  0  0  0  0  0  0
  1  2  1  0  0  0  0
  1 21  1  0  0  0  0
  2  7  1  0  0  0  0
  3  8  1  0  0  0  0
  3  2  2  0  0  0  0
  4  3  1  0  0  0  0
  5  4  2  0  0  0  0
  5  6  1  0  0  0  0
  6  1  2  0  0  0  0
  9 10  1  0  0  0  0
 10  5  1  0  0  0  0
 11 12  1  0  0  0  0
 11 10  2  0  0  0  0
 13 11  1  0  0  0  0
 14 20  1  0  0  0  0
 14 13  1  0  0  0  0
 15 17  2  0  0  0  0
 15 14  1  0  0  0  0
 16 15  1  0  0  0  0
 17 18  1  0  0  0  0
 18 13  2  0  0  0  0
 18 19  1  0  0  0  0
 19  9  2  0  0  0  0
 21 23  1  0  0  0  0
 21 24  1  1  0  0  0
 22 21  1  0  0  0  0
 22 23  1  0  0  0  0
 22 25  1  1  0  0  0
 23 27  1  0  0  0  0
 26 23  1  0  0  0  0
 28 22  1  0  0  0  0
 29 28  1  0  0  0  0
 29 31  1  0  0  0  0
 30 29  2  0  0  0  0
 31 33  1  0  0  0  0
 31 32  1  0  0  0  0
M  END
>  <minimizedAffinity>
-6.24163914

>  <minimizedRMSD>
1.91475284

$$$$
