
 OpenBabel03272507203D

 33 36  0  0  1  0  0  0  0  0999 V2000
   37.3040   31.7620   49.1270 C   0  0  0  0  0  0  0  0  0  0  0  0
   37.9520   32.7900   49.7940 C   0  0  0  0  0  0  0  0  0  0  0  0
   38.9250   33.4610   49.0200 C   0  0  0  0  0  0  0  0  0  0  0  0
   39.1710   33.0930   47.7290 N   0  0  0  0  0  0  0  0  0  0  0  0
   38.5050   32.0780   47.1210 C   0  0  0  0  0  0  0  0  0  0  0  0
   37.5540   31.4030   47.8440 N   0  0  0  0  0  0  0  0  0  0  0  0
   37.7340   33.0520   50.8120 H   0  0  0  0  0  0  0  0  0  0  0  0
   39.4790   34.2760   49.4640 H   0  0  0  0  0  0  0  0  0  0  0  0
   38.9440   30.3530   45.4670 C   0  0  0  0  0  3  0  0  0  0  0  0
   38.7790   31.6960   45.7380 C   0  0  0  0  0  0  0  0  0  0  0  0
   38.8750   32.6200   44.7160 C   0  0  0  0  0  0  0  0  0  0  0  0
   38.7400   33.6660   44.9600 H   0  0  0  0  0  0  0  0  0  0  0  0
   39.1330   32.2600   43.4080 C   0  0  0  0  0  0  0  0  0  0  0  0
   39.2740   32.9340   42.2530 N   0  0  0  0  0  0  0  0  0  0  0  0
   39.5180   32.0120   41.3050 C   0  0  0  0  0  0  0  0  0  0  0  0
   39.6640   32.3700   40.2850 H   0  0  0  0  0  0  0  0  0  0  0  0
   39.5340   30.7760   41.8490 N   0  0  0  0  0  0  0  0  0  0  0  0
   39.2950   30.9010   43.1670 C   0  0  0  0  0  0  0  0  0  0  0  0
   39.2040   29.9570   44.1690 C   0  0  0  0  0  3  0  0  0  0  0  0
   39.1870   33.9800   42.2200 H   0  0  0  0  0  0  0  0  0  0  0  0
   36.2480   31.0430   49.9070 C   0  0  1  0  0  0  0  0  0  0  0  0
   35.4770   29.9400   49.3340 C   0  0  2  0  0  0  0  0  0  0  0  0
   36.6360   29.5860   50.2170 C   0  0  0  0  0  0  0  0  0  0  0  0
   35.9150   31.6400   50.7880 H   0  0  0  0  0  0  0  0  0  0  0  0
   34.4120   29.9160   49.7080 H   0  0  0  0  0  0  0  0  0  0  0  0
   37.5220   29.1560   49.7010 H   0  0  0  0  0  0  0  0  0  0  0  0
   36.4780   29.3010   51.2620 H   0  0  0  0  0  0  0  0  0  0  0  0
   35.5810   29.7380   47.9650 O   0  0  0  0  0  0  0  0  0  0  0  0
   34.6590   29.9050   46.9870 C   0  0  0  0  0  0  0  0  0  0  0  0
   34.9040   29.6490   45.7870 O   0  0  0  0  0  0  0  0  0  0  0  0
   33.4850   30.3830   47.5710 N   0  0  0  0  0  0  0  0  0  0  0  0
   32.9510   29.4700   47.6680 H   0  0  0  0  0  0  0  0  0  0  0  0
   33.5520   31.4350   47.7010 H   0  0  0  0  0  0  0  0  0  0  0  0
  1  2  1  0  0  0  0
  1 21  1  0  0  0  0
  2  7  1  0  0  0  0
  3  8  1  0  0  0  0
  3  2  2  0  0  0  0
  4  3  1  0  0  0  0
  5  4  2  0  0  0  0
  5  6  1  0  0  0  0
  6  1  2  0  0  0  0
  9 10  1  0  0  0  0
 10  5  1  0  0  0  0
 11 12  1  0  0  0  0
 11 10  2  0  0  0  0
 13 11  1  0  0  0  0
 14 13  1  0  0  0  0
 15 17  2  0  0  0  0
 15 14  1  0  0  0  0
 16 15  1  0  0  0  0
 17 18  1  0  0  0  0
 18 13  2  0  0  0  0
 18 19  1  0  0  0  0
 19  9  2  0  0  0  0
 20 14  1  0  0  0  0
 21 23  1  0  0  0  0
 21 24  1  1  0  0  0
 22 25  1  1  0  0  0
 22 21  1  0  0  0  0
 22 23  1  0  0  0  0
 23 27  1  0  0  0  0
 26 23  1  0  0  0  0
 28 22  1  0  0  0  0
 29 31  1  0  0  0  0
 29 28  1  0  0  0  0
 30 29  2  0  0  0  0
 31 32  1  0  0  0  0
 31 33  1  0  0  0  0
M  END
>  <minimizedAffinity>
-6.04456711

>  <minimizedRMSD>
2.68472219

$$$$
