
 OpenBabel03262521373D

 31 34  0  0  0  0  0  0  0  0999 V2000
   33.9710   30.0170   47.6400 F   0  0  0  0  0  0  0  0  0  0  0  0
   34.0450   29.4530   46.3820 C   0  0  0  0  0  0  0  0  0  0  0  0
   33.0150   28.6900   45.8700 C   0  0  0  0  0  0  0  0  0  0  0  0
   33.1470   28.1470   44.5960 C   0  0  0  0  0  0  0  0  0  0  0  0
   34.3000   28.3670   43.8390 C   0  0  0  0  0  0  0  0  0  0  0  0
   35.2920   29.1410   44.4130 C   0  0  0  0  0  0  0  0  0  0  0  0
   35.1980   29.6890   45.6590 C   0  0  0  0  0  0  0  0  0  0  0  0
   32.3540   27.5580   44.1970 H   0  0  0  0  0  0  0  0  0  0  0  0
   34.3870   27.9360   42.8470 H   0  0  0  0  0  0  0  0  0  0  0  0
   36.2060   29.3360   43.8570 H   0  0  0  0  0  0  0  0  0  0  0  0
   36.4830   30.4250   47.5750 C   0  0  0  0  0  0  0  0  0  0  0  0
   36.2910   30.4940   46.1920 C   0  0  0  0  0  0  0  0  0  0  0  0
   37.0650   31.2650   45.3500 C   0  0  0  0  0  0  0  0  0  0  0  0
   36.8850   31.2920   44.2890 H   0  0  0  0  0  0  0  0  0  0  0  0
   38.0870   32.0070   45.9220 C   0  0  0  0  0  0  0  0  0  0  0  0
   39.0040   32.8430   45.3940 N   0  0  0  0  0  0  0  0  0  0  0  0
   39.7940   33.3260   46.3850 C   0  0  0  0  0  0  0  0  0  0  0  0
   40.6410   34.0260   46.3340 H   0  0  0  0  0  0  0  0  0  0  0  0
   39.3540   32.7740   47.5520 N   0  0  0  0  0  0  0  0  0  0  0  0
   38.3110   31.9630   47.3010 C   0  0  0  0  0  0  0  0  0  0  0  0
   37.5180   31.1760   48.1440 C   0  0  0  0  0  0  0  0  0  0  0  0
   39.1330   33.1120   44.3990 H   0  0  0  0  0  0  0  0  0  0  0  0
   32.0650   27.6390   47.7910 C   0  0  0  0  0  0  0  0  0  0  0  0
   31.8670   28.5110   46.7060 C   0  0  0  0  0  0  0  0  0  0  0  0
   30.6130   29.0880   46.5640 C   0  0  0  0  0  0  0  0  0  0  0  0
   29.6410   28.7840   47.4790 N   0  0  0  0  0  0  0  0  0  0  0  0
   29.8660   27.9480   48.5030 C   0  0  0  0  0  0  0  0  0  0  0  0
   31.0690   27.3780   48.6600 N   0  0  0  0  0  0  0  0  0  0  0  0
   32.9900   27.1350   48.0020 H   0  0  0  0  0  0  0  0  0  0  0  0
   30.5200   29.7360   45.7310 H   0  0  0  0  0  0  0  0  0  0  0  0
   29.0620   27.7420   49.1970 H   0  0  0  0  0  0  0  0  0  0  0  0
  2  1  1  0  0  0  0
  3  2  1  0  0  0  0
  3 24  1  0  0  0  0
  4  3  2  0  0  0  0
  5  6  2  0  0  0  0
  5  4  1  0  0  0  0
  6  7  1  0  0  0  0
  7 12  1  0  0  0  0
  7  2  2  0  0  0  0
  8  4  1  0  0  0  0
  9  5  1  0  0  0  0
 10  6  1  0  0  0  0
 11 21  1  0  0  0  0
 12 11  2  0  0  0  0
 13 15  2  0  0  0  0
 13 12  1  0  0  0  0
 14 13  1  0  0  0  0
 15 20  1  0  0  0  0
 16 15  1  0  0  0  0
 16 17  1  0  0  0  0
 17 19  2  0  0  0  0
 18 17  1  0  0  0  0
 20 19  1  0  0  0  0
 20 21  2  0  0  0  0
 22 16  1  0  0  0  0
 23 29  1  0  0  0  0
 23 28  1  0  0  0  0
 24 23  2  0  0  0  0
 25 24  1  0  0  0  0
 25 26  2  0  0  0  0
 26 27  1  0  0  0  0
 27 28  2  0  0  0  0
 27 31  1  0  0  0  0
 30 25  1  0  0  0  0
M  END
>  <minimizedAffinity>
-5.02208185

>  <minimizedRMSD>
5.8191247

$$$$
