
 OpenBabel03262523163D

 42 46  0  0  0  0  0  0  0  0999 V2000
   37.2110   30.1370   50.2210 C   0  0  0  0  0  0  0  0  0  0  0  0
   37.9580   30.8750   49.3030 C   0  0  0  0  0  0  0  0  0  0  0  0
   37.5000   30.9390   48.0040 C   0  0  0  0  0  0  0  0  0  0  0  0
   36.3570   30.2850   47.6990 N   0  0  0  0  0  0  0  0  0  0  0  0
   35.6440   29.5770   48.5860 C   0  0  0  0  0  0  0  0  0  0  0  0
   36.0950   29.5150   49.8650 N   0  0  0  0  0  0  0  0  0  0  0  0
   38.8470   31.3640   49.6060 H   0  0  0  0  0  0  0  0  0  0  0  0
   39.2570   32.4690   47.3230 C   0  0  0  0  0  0  0  0  0  0  0  0
   38.1930   31.6750   46.9590 C   0  0  0  0  0  0  0  0  0  0  0  0
   37.8360   31.6150   45.6340 C   0  0  0  0  0  0  0  0  0  0  0  0
   37.0150   31.0090   45.3120 H   0  0  0  0  0  0  0  0  0  0  0  0
   38.5610   32.3580   44.7020 C   0  0  0  0  0  0  0  0  0  0  0  0
   38.3600   32.4270   43.3610 N   0  0  0  0  0  0  0  0  0  0  0  0
   39.3130   33.2700   42.9240 C   0  0  0  0  0  0  0  0  0  0  0  0
   39.5270   33.6100   41.9340 H   0  0  0  0  0  0  0  0  0  0  0  0
   40.0850   33.7190   43.9290 N   0  0  0  0  0  0  0  0  0  0  0  0
   39.6250   33.1520   45.0740 C   0  0  0  0  0  0  0  0  0  0  0  0
   39.9930   33.2170   46.4170 C   0  0  0  0  0  0  0  0  0  0  0  0
   37.6630   31.9720   42.7450 H   0  0  0  0  0  0  0  0  0  0  0  0
   34.4170   28.8930   48.1820 C   0  0  0  0  0  0  0  0  0  0  0  0
   34.1350   27.6570   48.7320 C   0  0  0  0  0  0  0  0  0  0  0  0
   32.9630   27.0990   48.2790 C   0  0  0  0  0  0  0  0  0  0  0  0
   32.1450   27.7130   47.3640 C   0  0  0  0  0  0  0  0  0  0  0  0
   32.5020   28.9370   46.8730 C   0  0  0  0  0  0  0  0  0  0  0  0
   33.6420   29.5190   47.2900 N   0  0  0  0  0  0  0  0  0  0  0  0
   34.8130   27.2150   49.4500 H   0  0  0  0  0  0  0  0  0  0  0  0
   32.6950   26.1140   48.6870 H   0  0  0  0  0  0  0  0  0  0  0  0
   31.2560   27.1710   47.0830 H   0  0  0  0  0  0  0  0  0  0  0  0
   29.5210   28.9360   47.3960 Cl  0  0  0  0  0  0  0  0  0  0  0  0
   30.3110   29.6950   46.0490 C   0  0  0  0  0  0  0  0  0  0  0  0
   31.6700   29.6340   45.9060 C   0  0  0  0  0  0  0  0  0  0  0  0
   32.1550   30.2880   44.7830 C   0  0  0  0  0  0  0  0  0  0  0  0
   31.3880   30.9490   43.8690 C   0  0  0  0  0  0  0  0  0  0  0  0
   30.0230   30.9870   44.0490 C   0  0  0  0  0  0  0  0  0  0  0  0
   29.0110   31.8250   42.8990 Cl  0  0  0  0  0  0  0  0  0  0  0  0
   29.4980   30.3560   45.1440 C   0  0  0  0  0  0  0  0  0  0  0  0
   33.2340   30.2760   44.6100 H   0  0  0  0  0  0  0  0  0  0  0  0
   31.7940   31.4500   43.0020 H   0  0  0  0  0  0  0  0  0  0  0  0
   28.4190   30.3930   45.2760 H   0  0  0  0  0  0  0  0  0  0  0  0
   37.6060   30.0080   51.6050 N   0  0  0  0  0  0  0  0  0  0  0  0
   37.9310   29.0280   51.7970 H   0  0  0  0  0  0  0  0  0  0  0  0
   37.5520   30.8170   52.2770 H   0  0  0  0  0  0  0  0  0  0  0  0
  1 40  1  0  0  0  0
  2  7  1  0  0  0  0
  2  1  2  0  0  0  0
  3  2  1  0  0  0  0
  4  3  2  0  0  0  0
  4  5  1  0  0  0  0
  5  6  2  0  0  0  0
  6  1  1  0  0  0  0
  9  8  1  0  0  0  0
  9  3  1  0  0  0  0
 10  9  2  0  0  0  0
 11 10  1  0  0  0  0
 12 17  2  0  0  0  0
 12 10  1  0  0  0  0
 13 12  1  0  0  0  0
 14 13  1  0  0  0  0
 14 16  2  0  0  0  0
 15 14  1  0  0  0  0
 16 17  1  0  0  0  0
 17 18  1  0  0  0  0
 18  8  2  0  0  0  0
 19 13  1  0  0  0  0
 20  5  1  0  0  0  0
 20 21  1  0  0  0  0
 21 26  1  0  0  0  0
 22 27  1  0  0  0  0
 22 21  2  0  0  0  0
 23 22  1  0  0  0  0
 24 25  1  0  0  0  0
 24 23  2  0  0  0  0
 25 20  2  0  0  0  0
 28 23  1  0  0  0  0
 30 29  1  0  0  0  0
 31 30  1  0  0  0  0
 31 24  1  0  0  0  0
 32 31  2  0  0  0  0
 33 34  2  0  0  0  0
 33 32  1  0  0  0  0
 34 36  1  0  0  0  0
 35 34  1  0  0  0  0
 36 39  1  0  0  0  0
 36 30  2  0  0  0  0
 37 32  1  0  0  0  0
 38 33  1  0  0  0  0
 40 41  1  0  0  0  0
 40 42  1  0  0  0  0
M  END
>  <minimizedAffinity>
-7.42294025

>  <minimizedRMSD>
1.25722456

$$$$
