
 OpenBabel03262521203D

 32 34  0  0  0  0  0  0  0  0999 V2000
   36.7210   27.9190   34.4680 C   0  0  0  0  0  0  0  0  0  0  0  0
   36.4560   27.6560   33.1240 C   0  0  0  0  0  0  0  0  0  0  0  0
   36.8560   26.4260   32.5740 C   0  0  0  0  0  0  0  0  0  0  0  0
   37.4990   25.5450   33.4280 N   0  0  0  0  0  0  0  0  0  0  0  0
   37.7290   25.8520   34.7230 C   0  0  0  0  0  0  0  0  0  0  0  0
   37.3480   27.0060   35.2190 N   0  0  0  0  0  0  0  0  0  0  0  0
   35.9590   28.3070   32.4170 H   0  0  0  0  0  0  0  0  0  0  0  0
   36.6800   26.1610   31.5410 H   0  0  0  0  0  0  0  0  0  0  0  0
   37.9270   24.5780   36.8220 C   0  0  0  0  0  3  0  0  0  0  0  0
   38.4120   24.8730   35.5630 C   0  0  0  0  0  0  0  0  0  0  0  0
   39.5600   24.2150   35.1310 C   0  0  0  0  0  0  0  0  0  0  0  0
   39.9770   24.4130   34.1550 H   0  0  0  0  0  0  0  0  0  0  0  0
   40.1690   23.2960   35.9660 C   0  0  0  0  0  0  0  0  0  0  0  0
   41.2680   22.5520   35.7640 N   0  0  0  0  0  0  0  0  0  0  0  0
   41.4440   21.8220   36.8740 C   0  0  0  0  0  0  0  0  0  0  0  0
   42.2610   21.1080   37.0230 H   0  0  0  0  0  0  0  0  0  0  0  0
   40.4510   22.1310   37.7360 N   0  0  0  0  0  0  0  0  0  0  0  0
   39.6350   23.0520   37.1960 C   0  0  0  0  0  0  0  0  0  0  0  0
   38.5030   23.6660   37.6930 C   0  0  0  0  0  3  0  0  0  0  0  0
   41.8990   22.5180   34.9090 H   0  0  0  0  0  0  0  0  0  0  0  0
   36.2620   29.1650   34.8370 O   0  0  0  0  0  0  0  0  0  0  0  0
   35.2950   29.7350   34.0200 C   0  0  0  0  0  0  0  0  0  0  0  0
   34.2800   29.2880   34.1090 H   0  0  0  0  0  0  0  0  0  0  0  0
   35.6040   29.5200   32.9610 H   0  0  0  0  0  0  0  0  0  0  0  0
   35.4170   31.0130   34.4150 C   0  0  0  0  0  0  0  0  0  0  0  0
   34.4640   31.6220   34.3510 H   0  0  0  0  0  0  0  0  0  0  0  0
   36.0560   31.5970   33.6890 H   0  0  0  0  0  0  0  0  0  0  0  0
   35.9610   31.2870   35.7780 C   0  0  0  0  0  0  0  0  0  0  0  0
   36.3350   30.3810   36.3090 H   0  0  0  0  0  0  0  0  0  0  0  0
   36.8680   31.9450   35.6510 H   0  0  0  0  0  0  0  0  0  0  0  0
   34.7970   32.1960   36.8110 S   0  0  0  0  0  0  0  0  0  0  0  0
   33.6360   31.4140   36.9700 H   0  0  0  0  0  0  0  0  0  0  0  0
  1 21  1  0  0  0  0
  1  6  1  0  0  0  0
  2  1  2  0  0  0  0
  3  2  1  0  0  0  0
  3  4  2  0  0  0  0
  4  5  1  0  0  0  0
  5  6  2  0  0  0  0
  5 10  1  0  0  0  0
  7  2  1  0  0  0  0
  8  3  1  0  0  0  0
  9 19  1  0  0  0  0
 10  9  2  0  0  0  0
 11 10  1  0  0  0  0
 11 13  2  0  0  0  0
 12 11  1  0  0  0  0
 13 18  1  0  0  0  0
 14 13  1  0  0  0  0
 14 15  1  0  0  0  0
 15 16  1  0  0  0  0
 15 17  2  0  0  0  0
 18 19  2  0  0  0  0
 18 17  1  0  0  0  0
 20 14  1  0  0  0  0
 22 23  1  0  0  0  0
 22 25  1  0  0  0  0
 22 21  1  0  0  0  0
 24 22  1  0  0  0  0
 25 28  1  0  0  0  0
 26 25  1  0  0  0  0
 27 25  1  0  0  0  0
 28 29  1  0  0  0  0
 28 31  1  0  0  0  0
 30 28  1  0  0  0  0
 31 32  1  0  0  0  0
M  END
>  <minimizedAffinity>
-4.95001268

$$$$

 OpenBabel03262521203D

 32 34  0  0  0  0  0  0  0  0999 V2000
   37.3210   27.1050   33.8500 C   0  0  0  0  0  0  0  0  0  0  0  0
   37.5950   27.3050   32.4970 C   0  0  0  0  0  0  0  0  0  0  0  0
   37.0270   28.4090   31.8380 C   0  0  0  0  0  0  0  0  0  0  0  0
   36.2180   29.2370   32.6000 N   0  0  0  0  0  0  0  0  0  0  0  0
   35.9870   28.9950   33.9090 C   0  0  0  0  0  0  0  0  0  0  0  0
   36.5260   27.9590   34.5070 N   0  0  0  0  0  0  0  0  0  0  0  0
   38.2170   26.6910   31.8600 H   0  0  0  0  0  0  0  0  0  0  0  0
   37.2000   28.6200   30.7930 H   0  0  0  0  0  0  0  0  0  0  0  0
   33.7630   29.9240   34.4160 C   0  0  0  0  0  3  0  0  0  0  0  0
   35.1240   29.9110   34.6470 C   0  0  0  0  0  0  0  0  0  0  0  0
   35.6360   30.7920   35.5960 C   0  0  0  0  0  0  0  0  0  0  0  0
   36.6940   30.8190   35.8120 H   0  0  0  0  0  0  0  0  0  0  0  0
   34.7750   31.6400   36.2690 C   0  0  0  0  0  0  0  0  0  0  0  0
   35.0400   32.5590   37.2100 N   0  0  0  0  0  0  0  0  0  0  0  0
   33.8660   33.1140   37.5420 C   0  0  0  0  0  0  0  0  0  0  0  0
   33.7440   33.9050   38.2910 H   0  0  0  0  0  0  0  0  0  0  0  0
   32.9040   32.5270   36.7990 N   0  0  0  0  0  0  0  0  0  0  0  0
   33.4410   31.5980   35.9900 C   0  0  0  0  0  0  0  0  0  0  0  0
   32.8610   30.7550   35.0640 C   0  0  0  0  0  3  0  0  0  0  0  0
   35.9780   32.8220   37.6350 H   0  0  0  0  0  0  0  0  0  0  0  0
   37.9560   25.9820   34.3320 O   0  0  0  0  0  0  0  0  0  0  0  0
   37.8690   25.7610   35.7000 C   0  0  0  0  0  0  0  0  0  0  0  0
   36.8380   25.6170   36.0900 H   0  0  0  0  0  0  0  0  0  0  0  0
   38.2280   26.7020   36.1980 H   0  0  0  0  0  0  0  0  0  0  0  0
   38.6910   24.7030   35.7920 C   0  0  0  0  0  0  0  0  0  0  0  0
   39.7120   24.9320   36.2260 H   0  0  0  0  0  0  0  0  0  0  0  0
   39.0050   24.3480   34.7660 H   0  0  0  0  0  0  0  0  0  0  0  0
   38.2170   23.4970   36.5340 C   0  0  0  0  0  0  0  0  0  0  0  0
   37.2810   23.0510   36.1260 H   0  0  0  0  0  0  0  0  0  0  0  0
   39.0010   22.6970   36.4080 H   0  0  0  0  0  0  0  0  0  0  0  0
   38.0600   23.7990   38.3040 S   0  0  0  0  0  0  0  0  0  0  0  0
   37.1060   24.8170   38.5010 H   0  0  0  0  0  0  0  0  0  0  0  0
  1 21  1  0  0  0  0
  1  6  1  0  0  0  0
  2  1  2  0  0  0  0
  3  2  1  0  0  0  0
  3  4  2  0  0  0  0
  4  5  1  0  0  0  0
  5  6  2  0  0  0  0
  5 10  1  0  0  0  0
  7  2  1  0  0  0  0
  8  3  1  0  0  0  0
  9 10  2  0  0  0  0
  9 19  1  0  0  0  0
 10 11  1  0  0  0  0
 11 12  1  0  0  0  0
 11 13  2  0  0  0  0
 13 14  1  0  0  0  0
 14 15  1  0  0  0  0
 14 20  1  0  0  0  0
 15 16  1  0  0  0  0
 17 15  2  0  0  0  0
 18 13  1  0  0  0  0
 18 17  1  0  0  0  0
 19 18  2  0  0  0  0
 21 22  1  0  0  0  0
 22 25  1  0  0  0  0
 22 23  1  0  0  0  0
 22 24  1  0  0  0  0
 25 26  1  0  0  0  0
 25 28  1  0  0  0  0
 27 25  1  0  0  0  0
 28 31  1  0  0  0  0
 29 28  1  0  0  0  0
 30 28  1  0  0  0  0
 31 32  1  0  0  0  0
M  END
>  <minimizedAffinity>
-4.75741577

$$$$

 OpenBabel03262521203D

 32 34  0  0  0  0  0  0  0  0999 V2000
   36.5050   28.3140   33.0170 C   0  0  0  0  0  0  0  0  0  0  0  0
   37.1110   28.3960   31.7630 C   0  0  0  0  0  0  0  0  0  0  0  0
   38.1600   27.5150   31.4490 C   0  0  0  0  0  0  0  0  0  0  0  0
   38.5230   26.6080   32.4310 N   0  0  0  0  0  0  0  0  0  0  0  0
   37.9010   26.5720   33.6300 C   0  0  0  0  0  0  0  0  0  0  0  0
   36.9230   27.4040   33.9060 N   0  0  0  0  0  0  0  0  0  0  0  0
   36.8660   29.0830   30.9640 H   0  0  0  0  0  0  0  0  0  0  0  0
   38.6700   27.5270   30.4960 H   0  0  0  0  0  0  0  0  0  0  0  0
   39.3010   24.6570   34.2890 C   0  0  0  0  0  3  0  0  0  0  0  0
   38.3380   25.5890   34.6160 C   0  0  0  0  0  0  0  0  0  0  0  0
   37.8040   25.5580   35.9010 C   0  0  0  0  0  0  0  0  0  0  0  0
   37.0480   26.2670   36.2040 H   0  0  0  0  0  0  0  0  0  0  0  0
   38.2530   24.6060   36.7990 C   0  0  0  0  0  0  0  0  0  0  0  0
   37.8880   24.3900   38.0720 N   0  0  0  0  0  0  0  0  0  0  0  0
   38.6150   23.3510   38.5060 C   0  0  0  0  0  0  0  0  0  0  0  0
   38.5500   22.9260   39.5140 H   0  0  0  0  0  0  0  0  0  0  0  0
   39.4110   22.9490   37.4920 N   0  0  0  0  0  0  0  0  0  0  0  0
   39.2090   23.7160   36.4070 C   0  0  0  0  0  0  0  0  0  0  0  0
   39.7820   23.6840   35.1530 C   0  0  0  0  0  3  0  0  0  0  0  0
   37.1710   24.9150   38.6550 H   0  0  0  0  0  0  0  0  0  0  0  0
   35.5020   29.2480   33.1540 O   0  0  0  0  0  0  0  0  0  0  0  0
   34.9610   29.3920   34.4240 C   0  0  0  0  0  0  0  0  0  0  0  0
   35.4450   28.7780   35.2160 H   0  0  0  0  0  0  0  0  0  0  0  0
   33.9090   29.0010   34.3700 H   0  0  0  0  0  0  0  0  0  0  0  0
   35.0810   30.7240   34.5510 C   0  0  0  0  0  0  0  0  0  0  0  0
   34.0990   31.2880   34.5860 H   0  0  0  0  0  0  0  0  0  0  0  0
   35.5190   31.1780   33.6130 H   0  0  0  0  0  0  0  0  0  0  0  0
   35.8770   31.2600   35.6950 C   0  0  0  0  0  0  0  0  0  0  0  0
   36.4180   30.4800   36.2790 H   0  0  0  0  0  0  0  0  0  0  0  0
   36.6870   31.9150   35.2630 H   0  0  0  0  0  0  0  0  0  0  0  0
   34.8910   32.3030   36.7870 S   0  0  0  0  0  0  0  0  0  0  0  0
   33.8490   31.5240   37.3260 H   0  0  0  0  0  0  0  0  0  0  0  0
  1 21  1  0  0  0  0
  1  6  1  0  0  0  0
  2  1  2  0  0  0  0
  3  2  1  0  0  0  0
  3  4  2  0  0  0  0
  4  5  1  0  0  0  0
  5  6  2  0  0  0  0
  5 10  1  0  0  0  0
  7  2  1  0  0  0  0
  8  3  1  0  0  0  0
  9 10  2  0  0  0  0
  9 19  1  0  0  0  0
 10 11  1  0  0  0  0
 11 12  1  0  0  0  0
 11 13  2  0  0  0  0
 13 14  1  0  0  0  0
 14 15  1  0  0  0  0
 14 20  1  0  0  0  0
 15 16  1  0  0  0  0
 17 15  2  0  0  0  0
 18 13  1  0  0  0  0
 18 17  1  0  0  0  0
 19 18  2  0  0  0  0
 21 22  1  0  0  0  0
 22 25  1  0  0  0  0
 22 23  1  0  0  0  0
 24 22  1  0  0  0  0
 25 26  1  0  0  0  0
 25 28  1  0  0  0  0
 27 25  1  0  0  0  0
 28 29  1  0  0  0  0
 28 31  1  0  0  0  0
 30 28  1  0  0  0  0
 31 32  1  0  0  0  0
M  END
>  <minimizedAffinity>
-4.73859882

$$$$

 OpenBabel03262521203D

 32 34  0  0  0  0  0  0  0  0999 V2000
   39.5290   22.8590   36.6600 C   0  0  0  0  0  0  0  0  0  0  0  0
   39.1610   23.0240   37.9960 C   0  0  0  0  0  0  0  0  0  0  0  0
   38.3050   24.0810   38.3460 C   0  0  0  0  0  0  0  0  0  0  0  0
   37.8790   24.9020   37.3150 N   0  0  0  0  0  0  0  0  0  0  0  0
   38.2670   24.6960   36.0370 C   0  0  0  0  0  0  0  0  0  0  0  0
   39.0670   23.7020   35.7280 N   0  0  0  0  0  0  0  0  0  0  0  0
   39.4650   22.4130   38.8360 H   0  0  0  0  0  0  0  0  0  0  0  0
   37.9830   24.2630   39.3620 H   0  0  0  0  0  0  0  0  0  0  0  0
   37.4320   26.8990   35.3210 C   0  0  0  0  0  3  0  0  0  0  0  0
   37.7770   25.6010   35.0030 C   0  0  0  0  0  0  0  0  0  0  0  0
   37.6430   25.1930   33.6790 C   0  0  0  0  0  0  0  0  0  0  0  0
   37.9010   24.1870   33.3810 H   0  0  0  0  0  0  0  0  0  0  0  0
   37.1750   26.0910   32.7360 C   0  0  0  0  0  0  0  0  0  0  0  0
   36.9670   25.9210   31.4210 N   0  0  0  0  0  0  0  0  0  0  0  0
   36.5080   27.0900   30.9540 C   0  0  0  0  0  0  0  0  0  0  0  0
   36.2410   27.2790   29.9080 H   0  0  0  0  0  0  0  0  0  0  0  0
   36.4410   27.9540   31.9900 N   0  0  0  0  0  0  0  0  0  0  0  0
   36.8530   27.3580   33.1220 C   0  0  0  0  0  0  0  0  0  0  0  0
   36.9580   27.8340   34.4120 C   0  0  0  0  0  3  0  0  0  0  0  0
   37.1240   25.0510   30.8310 H   0  0  0  0  0  0  0  0  0  0  0  0
   40.3680   21.7790   36.4980 O   0  0  0  0  0  0  0  0  0  0  0  0
   41.4600   21.7100   37.3530 C   0  0  0  0  0  0  0  0  0  0  0  0
   41.5310   20.7770   37.9540 H   0  0  0  0  0  0  0  0  0  0  0  0
   41.3220   22.5240   38.1150 H   0  0  0  0  0  0  0  0  0  0  0  0
   42.4390   21.9120   36.4550 C   0  0  0  0  0  0  0  0  0  0  0  0
   42.1090   21.8560   35.3730 H   0  0  0  0  0  0  0  0  0  0  0  0
   43.1760   21.0560   36.4660 H   0  0  0  0  0  0  0  0  0  0  0  0
   43.2430   23.1670   36.5510 C   0  0  0  0  0  0  0  0  0  0  0  0
   43.2390   23.6350   37.5630 H   0  0  0  0  0  0  0  0  0  0  0  0
   44.3190   22.8910   36.3610 H   0  0  0  0  0  0  0  0  0  0  0  0
   42.7840   24.3720   35.2910 S   0  0  0  0  0  0  0  0  0  0  0  0
   41.4320   24.7220   35.4790 H   0  0  0  0  0  0  0  0  0  0  0  0
  1  2  1  0  0  0  0
  2  3  2  0  0  0  0
  2  7  1  0  0  0  0
  3  8  1  0  0  0  0
  4  3  1  0  0  0  0
  5  4  2  0  0  0  0
  6  5  1  0  0  0  0
  6  1  2  0  0  0  0
 10  9  1  0  0  0  0
 10  5  1  0  0  0  0
 11 10  2  0  0  0  0
 12 11  1  0  0  0  0
 13 18  2  0  0  0  0
 13 11  1  0  0  0  0
 14 13  1  0  0  0  0
 15 14  1  0  0  0  0
 15 17  2  0  0  0  0
 16 15  1  0  0  0  0
 17 18  1  0  0  0  0
 18 19  1  0  0  0  0
 19  9  2  0  0  0  0
 20 14  1  0  0  0  0
 21  1  1  0  0  0  0
 21 22  1  0  0  0  0
 22 23  1  0  0  0  0
 22 24  1  0  0  0  0
 25 27  1  0  0  0  0
 25 28  1  0  0  0  0
 25 22  1  0  0  0  0
 26 25  1  0  0  0  0
 28 29  1  0  0  0  0
 30 28  1  0  0  0  0
 31 32  1  0  0  0  0
 31 28  1  0  0  0  0
M  END
>  <minimizedAffinity>
-4.73321104

$$$$

 OpenBabel03262521203D

 32 34  0  0  0  0  0  0  0  0999 V2000
   37.1110   26.0560   33.1440 C   0  0  0  0  0  0  0  0  0  0  0  0
   36.8550   27.3120   33.6940 C   0  0  0  0  0  0  0  0  0  0  0  0
   37.3260   27.6040   34.9860 C   0  0  0  0  0  0  0  0  0  0  0  0
   38.0270   26.5990   35.6320 N   0  0  0  0  0  0  0  0  0  0  0  0
   38.2470   25.4000   35.0510 C   0  0  0  0  0  0  0  0  0  0  0  0
   37.7990   25.1450   33.8430 N   0  0  0  0  0  0  0  0  0  0  0  0
   36.3150   28.1280   33.2330 H   0  0  0  0  0  0  0  0  0  0  0  0
   37.1610   28.5570   35.4680 H   0  0  0  0  0  0  0  0  0  0  0  0
   38.5830   24.0070   37.0540 C   0  0  0  0  0  3  0  0  0  0  0  0
   38.9940   24.3890   35.7930 C   0  0  0  0  0  0  0  0  0  0  0  0
   40.1300   23.7850   35.2620 C   0  0  0  0  0  0  0  0  0  0  0  0
   40.4900   24.0510   34.2790 H   0  0  0  0  0  0  0  0  0  0  0  0
   40.8020   22.8330   36.0060 C   0  0  0  0  0  0  0  0  0  0  0  0
   41.9040   22.1290   35.7020 N   0  0  0  0  0  0  0  0  0  0  0  0
   42.1530   21.3380   36.7550 C   0  0  0  0  0  0  0  0  0  0  0  0
   42.9930   20.6360   36.8180 H   0  0  0  0  0  0  0  0  0  0  0  0
   41.2020   21.5720   37.6850 N   0  0  0  0  0  0  0  0  0  0  0  0
   40.3390   22.5030   37.2450 C   0  0  0  0  0  0  0  0  0  0  0  0
   39.2230   23.0590   37.8370 C   0  0  0  0  0  3  0  0  0  0  0  0
   42.4890   22.1620   34.8160 H   0  0  0  0  0  0  0  0  0  0  0  0
   36.5800   25.9430   31.8780 O   0  0  0  0  0  0  0  0  0  0  0  0
   36.9290   24.8060   31.1610 C   0  0  0  0  0  0  0  0  0  0  0  0
   37.7780   24.2240   31.5830 H   0  0  0  0  0  0  0  0  0  0  0  0
   37.3000   25.1600   30.1620 H   0  0  0  0  0  0  0  0  0  0  0  0
   35.7350   24.1910   31.1540 C   0  0  0  0  0  0  0  0  0  0  0  0
   35.1670   24.2690   30.1770 H   0  0  0  0  0  0  0  0  0  0  0  0
   35.0050   24.7240   31.8310 H   0  0  0  0  0  0  0  0  0  0  0  0
   35.6780   22.7440   31.5200 C   0  0  0  0  0  0  0  0  0  0  0  0
   35.1650   22.5400   32.4880 H   0  0  0  0  0  0  0  0  0  0  0  0
   35.0490   22.2260   30.7410 H   0  0  0  0  0  0  0  0  0  0  0  0
   37.3020   21.9640   31.4830 S   0  0  0  0  0  0  0  0  0  0  0  0
   38.1280   22.6060   32.4260 H   0  0  0  0  0  0  0  0  0  0  0  0
  1  2  2  0  0  0  0
  1  6  1  0  0  0  0
  2  3  1  0  0  0  0
  3  8  1  0  0  0  0
  3  4  2  0  0  0  0
  5  4  1  0  0  0  0
  5 10  1  0  0  0  0
  6  5  2  0  0  0  0
  7  2  1  0  0  0  0
  9 19  1  0  0  0  0
 10  9  2  0  0  0  0
 11 10  1  0  0  0  0
 11 13  2  0  0  0  0
 12 11  1  0  0  0  0
 13 18  1  0  0  0  0
 14 13  1  0  0  0  0
 14 15  1  0  0  0  0
 15 16  1  0  0  0  0
 15 17  2  0  0  0  0
 18 17  1  0  0  0  0
 18 19  2  0  0  0  0
 20 14  1  0  0  0  0
 21  1  1  0  0  0  0
 22 23  1  0  0  0  0
 22 21  1  0  0  0  0
 24 22  1  0  0  0  0
 25 22  1  0  0  0  0
 25 28  1  0  0  0  0
 25 27  1  0  0  0  0
 26 25  1  0  0  0  0
 28 29  1  0  0  0  0
 30 28  1  0  0  0  0
 31 28  1  0  0  0  0
 31 32  1  0  0  0  0
M  END
>  <minimizedAffinity>
-4.71101189

$$$$

 OpenBabel03262521203D

 32 34  0  0  0  0  0  0  0  0999 V2000
   36.9670   25.9640   32.6550 C   0  0  0  0  0  0  0  0  0  0  0  0
   36.0580   26.6520   31.8500 C   0  0  0  0  0  0  0  0  0  0  0  0
   35.2510   25.9300   30.9550 C   0  0  0  0  0  0  0  0  0  0  0  0
   35.4210   24.5550   30.9370 N   0  0  0  0  0  0  0  0  0  0  0  0
   36.3160   23.9400   31.7400 C   0  0  0  0  0  0  0  0  0  0  0  0
   37.0620   24.6310   32.5700 N   0  0  0  0  0  0  0  0  0  0  0  0
   35.8870   27.7200   31.8260 H   0  0  0  0  0  0  0  0  0  0  0  0
   34.5290   26.4030   30.3050 H   0  0  0  0  0  0  0  0  0  0  0  0
   37.4940   21.9130   30.9860 C   0  0  0  0  0  3  0  0  0  0  0  0
   36.4400   22.4880   31.6660 C   0  0  0  0  0  0  0  0  0  0  0  0
   35.5110   21.6440   32.2700 C   0  0  0  0  0  0  0  0  0  0  0  0
   34.6690   22.0470   32.8130 H   0  0  0  0  0  0  0  0  0  0  0  0
   35.6740   20.2740   32.1710 C   0  0  0  0  0  0  0  0  0  0  0  0
   34.9150   19.2840   32.6650 N   0  0  0  0  0  0  0  0  0  0  0  0
   35.4980   18.1360   32.2940 C   0  0  0  0  0  0  0  0  0  0  0  0
   35.1180   17.1380   32.5430 H   0  0  0  0  0  0  0  0  0  0  0  0
   36.6020   18.4430   31.5780 N   0  0  0  0  0  0  0  0  0  0  0  0
   36.7400   19.7760   31.4840 C   0  0  0  0  0  0  0  0  0  0  0  0
   37.6990   20.5470   30.8590 C   0  0  0  0  0  3  0  0  0  0  0  0
   34.0250   19.3540   33.2410 H   0  0  0  0  0  0  0  0  0  0  0  0
   37.6710   26.8240   33.4680 O   0  0  0  0  0  0  0  0  0  0  0  0
   36.9780   27.3680   34.5410 C   0  0  0  0  0  0  0  0  0  0  0  0
   36.0790   26.7950   34.8610 H   0  0  0  0  0  0  0  0  0  0  0  0
   36.5720   28.3550   34.1920 H   0  0  0  0  0  0  0  0  0  0  0  0
   37.9850   27.4320   35.4280 C   0  0  0  0  0  0  0  0  0  0  0  0
   37.6690   27.6770   36.4870 H   0  0  0  0  0  0  0  0  0  0  0  0
   38.6430   28.3280   35.2220 H   0  0  0  0  0  0  0  0  0  0  0  0
   38.8950   26.2550   35.5560 C   0  0  0  0  0  0  0  0  0  0  0  0
   39.3140   25.8950   34.5880 H   0  0  0  0  0  0  0  0  0  0  0  0
   39.7910   26.5890   36.1550 H   0  0  0  0  0  0  0  0  0  0  0  0
   38.1360   24.8980   36.4660 S   0  0  0  0  0  0  0  0  0  0  0  0
   36.9930   24.4720   35.7620 H   0  0  0  0  0  0  0  0  0  0  0  0
  1 21  1  0  0  0  0
  2  1  2  0  0  0  0
  3  2  1  0  0  0  0
  4  3  2  0  0  0  0
  4  5  1  0  0  0  0
  5  6  2  0  0  0  0
  6  1  1  0  0  0  0
  7  2  1  0  0  0  0
  8  3  1  0  0  0  0
  9 10  1  0  0  0  0
 10  5  1  0  0  0  0
 10 11  2  0  0  0  0
 11 12  1  0  0  0  0
 13 11  1  0  0  0  0
 13 14  1  0  0  0  0
 14 20  1  0  0  0  0
 15 16  1  0  0  0  0
 15 14  1  0  0  0  0
 17 15  2  0  0  0  0
 18 17  1  0  0  0  0
 18 13  2  0  0  0  0
 19  9  2  0  0  0  0
 19 18  1  0  0  0  0
 21 22  1  0  0  0  0
 22 23  1  0  0  0  0
 22 25  1  0  0  0  0
 24 22  1  0  0  0  0
 25 28  1  0  0  0  0
 25 26  1  0  0  0  0
 27 25  1  0  0  0  0
 28 30  1  0  0  0  0
 28 31  1  0  0  0  0
 29 28  1  0  0  0  0
 32 31  1  0  0  0  0
M  END
>  <minimizedAffinity>
-4.6147604

$$$$

 OpenBabel03262521203D

 32 34  0  0  0  0  0  0  0  0999 V2000
   37.1600   25.8630   33.1810 C   0  0  0  0  0  0  0  0  0  0  0  0
   36.5370   25.3900   32.0260 C   0  0  0  0  0  0  0  0  0  0  0  0
   35.7030   26.2520   31.2930 C   0  0  0  0  0  0  0  0  0  0  0  0
   35.5580   27.5390   31.7840 N   0  0  0  0  0  0  0  0  0  0  0  0
   36.1860   27.9450   32.9090 C   0  0  0  0  0  0  0  0  0  0  0  0
   36.9610   27.1250   33.5800 N   0  0  0  0  0  0  0  0  0  0  0  0
   36.6170   24.3980   31.6010 H   0  0  0  0  0  0  0  0  0  0  0  0
   35.1920   25.9470   30.3910 H   0  0  0  0  0  0  0  0  0  0  0  0
   35.8310   30.3390   32.4520 C   0  0  0  0  0  3  0  0  0  0  0  0
   35.9860   29.3160   33.3660 C   0  0  0  0  0  0  0  0  0  0  0  0
   35.9470   29.6360   34.7200 C   0  0  0  0  0  0  0  0  0  0  0  0
   36.0630   28.8710   35.4730 H   0  0  0  0  0  0  0  0  0  0  0  0
   35.7540   30.9520   35.1010 C   0  0  0  0  0  0  0  0  0  0  0  0
   35.6820   31.4860   36.3300 N   0  0  0  0  0  0  0  0  0  0  0  0
   35.4860   32.8010   36.1640 C   0  0  0  0  0  0  0  0  0  0  0  0
   35.3840   33.5210   36.9830 H   0  0  0  0  0  0  0  0  0  0  0  0
   35.4420   33.0490   34.8370 N   0  0  0  0  0  0  0  0  0  0  0  0
   35.6070   31.9100   34.1430 C   0  0  0  0  0  0  0  0  0  0  0  0
   35.6360   31.6710   32.7850 C   0  0  0  0  0  3  0  0  0  0  0  0
   35.7580   30.9980   37.2720 H   0  0  0  0  0  0  0  0  0  0  0  0
   37.9360   24.8890   33.7700 O   0  0  0  0  0  0  0  0  0  0  0  0
   38.3060   25.1080   35.0900 C   0  0  0  0  0  0  0  0  0  0  0  0
   37.7240   25.8960   35.6180 H   0  0  0  0  0  0  0  0  0  0  0  0
   39.3570   25.5050   35.0650 H   0  0  0  0  0  0  0  0  0  0  0  0
   38.1660   23.8560   35.5550 C   0  0  0  0  0  0  0  0  0  0  0  0
   38.3050   23.0430   34.7780 H   0  0  0  0  0  0  0  0  0  0  0  0
   37.0930   23.6520   35.8410 H   0  0  0  0  0  0  0  0  0  0  0  0
   39.0050   23.4310   36.7150 C   0  0  0  0  0  0  0  0  0  0  0  0
   39.3760   22.3820   36.6490 H   0  0  0  0  0  0  0  0  0  0  0  0
   39.9350   24.0690   36.7080 H   0  0  0  0  0  0  0  0  0  0  0  0
   38.1870   23.7190   38.2950 S   0  0  0  0  0  0  0  0  0  0  0  0
   37.0020   22.9570   38.3300 H   0  0  0  0  0  0  0  0  0  0  0  0
  1  6  1  0  0  0  0
  1 21  1  0  0  0  0
  2  1  2  0  0  0  0
  3  4  2  0  0  0  0
  3  2  1  0  0  0  0
  4  5  1  0  0  0  0
  5 10  1  0  0  0  0
  5  6  2  0  0  0  0
  7  2  1  0  0  0  0
  8  3  1  0  0  0  0
  9 19  2  0  0  0  0
  9 10  1  0  0  0  0
 10 11  2  0  0  0  0
 11 13  1  0  0  0  0
 11 12  1  0  0  0  0
 13 14  1  0  0  0  0
 14 20  1  0  0  0  0
 15 14  1  0  0  0  0
 15 16  1  0  0  0  0
 17 15  2  0  0  0  0
 18 17  1  0  0  0  0
 18 13  2  0  0  0  0
 19 18  1  0  0  0  0
 21 22  1  0  0  0  0
 22 25  1  0  0  0  0
 22 23  1  0  0  0  0
 24 22  1  0  0  0  0
 25 27  1  0  0  0  0
 25 28  1  0  0  0  0
 26 25  1  0  0  0  0
 28 31  1  0  0  0  0
 29 28  1  0  0  0  0
 30 28  1  0  0  0  0
 31 32  1  0  0  0  0
M  END
>  <minimizedAffinity>
-4.55781889

$$$$

 OpenBabel03262521203D

 32 34  0  0  0  0  0  0  0  0999 V2000
   37.4120   27.4040   33.8420 C   0  0  0  0  0  0  0  0  0  0  0  0
   37.2290   27.3750   32.4590 C   0  0  0  0  0  0  0  0  0  0  0  0
   36.3380   28.2850   31.8650 C   0  0  0  0  0  0  0  0  0  0  0  0
   35.6910   29.1650   32.7180 N   0  0  0  0  0  0  0  0  0  0  0  0
   35.9070   29.1490   34.0510 C   0  0  0  0  0  0  0  0  0  0  0  0
   36.7430   28.2920   34.5880 N   0  0  0  0  0  0  0  0  0  0  0  0
   37.7080   26.7100   31.7520 H   0  0  0  0  0  0  0  0  0  0  0  0
   36.1520   28.3130   30.8010 H   0  0  0  0  0  0  0  0  0  0  0  0
   35.8850   31.0230   35.6500 C   0  0  0  0  0  3  0  0  0  0  0  0
   35.1890   30.1070   34.8870 C   0  0  0  0  0  0  0  0  0  0  0  0
   33.7990   30.1290   34.9430 C   0  0  0  0  0  0  0  0  0  0  0  0
   33.2110   29.4320   34.3640 H   0  0  0  0  0  0  0  0  0  0  0  0
   33.1670   31.0570   35.7510 C   0  0  0  0  0  0  0  0  0  0  0  0
   31.8570   31.2590   35.9590 N   0  0  0  0  0  0  0  0  0  0  0  0
   31.7610   32.2760   36.8280 C   0  0  0  0  0  0  0  0  0  0  0  0
   30.8170   32.6850   37.2020 H   0  0  0  0  0  0  0  0  0  0  0  0
   33.0140   32.6770   37.1360 N   0  0  0  0  0  0  0  0  0  0  0  0
   33.9180   31.9330   36.4770 C   0  0  0  0  0  0  0  0  0  0  0  0
   35.2970   31.9710   36.4740 C   0  0  0  0  0  3  0  0  0  0  0  0
   31.0290   30.7410   35.5390 H   0  0  0  0  0  0  0  0  0  0  0  0
   38.3160   26.4490   34.2510 O   0  0  0  0  0  0  0  0  0  0  0  0
   37.7840   25.2820   34.7850 C   0  0  0  0  0  0  0  0  0  0  0  0
   37.9280   24.3710   34.1630 H   0  0  0  0  0  0  0  0  0  0  0  0
   36.6700   25.4250   34.8180 H   0  0  0  0  0  0  0  0  0  0  0  0
   38.4090   25.2940   35.9730 C   0  0  0  0  0  0  0  0  0  0  0  0
   37.9030   25.9230   36.7680 H   0  0  0  0  0  0  0  0  0  0  0  0
   39.3930   25.8450   35.9030 H   0  0  0  0  0  0  0  0  0  0  0  0
   38.6970   23.9880   36.6380 C   0  0  0  0  0  0  0  0  0  0  0  0
   38.3930   23.0970   36.0420 H   0  0  0  0  0  0  0  0  0  0  0  0
   39.8170   23.9040   36.7370 H   0  0  0  0  0  0  0  0  0  0  0  0
   38.0170   23.9030   38.3050 S   0  0  0  0  0  0  0  0  0  0  0  0
   36.6170   24.0340   38.2240 H   0  0  0  0  0  0  0  0  0  0  0  0
  1 21  1  0  0  0  0
  1  6  1  0  0  0  0
  2  1  2  0  0  0  0
  3  2  1  0  0  0  0
  3  4  2  0  0  0  0
  4  5  1  0  0  0  0
  5  6  2  0  0  0  0
  5 10  1  0  0  0  0
  7  2  1  0  0  0  0
  8  3  1  0  0  0  0
  9 19  1  0  0  0  0
 10 11  1  0  0  0  0
 10  9  2  0  0  0  0
 11 13  2  0  0  0  0
 12 11  1  0  0  0  0
 13 14  1  0  0  0  0
 13 18  1  0  0  0  0
 14 15  1  0  0  0  0
 15 17  2  0  0  0  0
 15 16  1  0  0  0  0
 18 17  1  0  0  0  0
 19 18  2  0  0  0  0
 20 14  1  0  0  0  0
 21 22  1  0  0  0  0
 22 24  1  0  0  0  0
 22 25  1  0  0  0  0
 23 22  1  0  0  0  0
 25 28  1  0  0  0  0
 25 26  1  0  0  0  0
 27 25  1  0  0  0  0
 28 30  1  0  0  0  0
 28 31  1  0  0  0  0
 29 28  1  0  0  0  0
 32 31  1  0  0  0  0
M  END
>  <minimizedAffinity>
-4.55474234

$$$$

 OpenBabel03262521203D

 32 34  0  0  0  0  0  0  0  0999 V2000
   36.1470   27.5100   31.5360 C   0  0  0  0  0  0  0  0  0  0  0  0
   36.6040   28.2590   30.4520 C   0  0  0  0  0  0  0  0  0  0  0  0
   36.5720   29.6620   30.5260 C   0  0  0  0  0  0  0  0  0  0  0  0
   36.0780   30.2110   31.6980 N   0  0  0  0  0  0  0  0  0  0  0  0
   35.6490   29.4360   32.7190 C   0  0  0  0  0  0  0  0  0  0  0  0
   35.6860   28.1270   32.6320 N   0  0  0  0  0  0  0  0  0  0  0  0
   36.9980   27.8820   29.5180 H   0  0  0  0  0  0  0  0  0  0  0  0
   36.9110   30.2990   29.7210 H   0  0  0  0  0  0  0  0  0  0  0  0
   35.9380   30.9630   34.6290 C   0  0  0  0  0  3  0  0  0  0  0  0
   35.1410   30.0840   33.9230 C   0  0  0  0  0  0  0  0  0  0  0  0
   33.8540   29.8420   34.3960 C   0  0  0  0  0  0  0  0  0  0  0  0
   33.1930   29.1620   33.8780 H   0  0  0  0  0  0  0  0  0  0  0  0
   33.4200   30.4820   35.5420 C   0  0  0  0  0  0  0  0  0  0  0  0
   32.2380   30.4030   36.1730 N   0  0  0  0  0  0  0  0  0  0  0  0
   32.3170   31.2160   37.2350 C   0  0  0  0  0  0  0  0  0  0  0  0
   31.5080   31.3740   37.9570 H   0  0  0  0  0  0  0  0  0  0  0  0
   33.5450   31.7780   37.2370 N   0  0  0  0  0  0  0  0  0  0  0  0
   34.2610   31.3390   36.1890 C   0  0  0  0  0  0  0  0  0  0  0  0
   35.5480   31.6280   35.7830 C   0  0  0  0  0  3  0  0  0  0  0  0
   31.3850   29.8250   35.9130 H   0  0  0  0  0  0  0  0  0  0  0  0
   36.2500   26.1580   31.2940 O   0  0  0  0  0  0  0  0  0  0  0  0
   35.0840   25.5080   30.9110 C   0  0  0  0  0  0  0  0  0  0  0  0
   34.7800   25.6700   29.8530 H   0  0  0  0  0  0  0  0  0  0  0  0
   34.2530   25.9610   31.5150 H   0  0  0  0  0  0  0  0  0  0  0  0
   35.4280   24.2520   31.2420 C   0  0  0  0  0  0  0  0  0  0  0  0
   34.8100   23.4440   30.7450 H   0  0  0  0  0  0  0  0  0  0  0  0
   35.1730   24.0390   32.3220 H   0  0  0  0  0  0  0  0  0  0  0  0
   36.8470   23.8300   31.0480 C   0  0  0  0  0  0  0  0  0  0  0  0
   37.1120   23.5940   29.9920 H   0  0  0  0  0  0  0  0  0  0  0  0
   37.4990   24.7080   31.3230 H   0  0  0  0  0  0  0  0  0  0  0  0
   37.3140   22.4730   32.1400 S   0  0  0  0  0  0  0  0  0  0  0  0
   36.4990   21.3620   31.8450 H   0  0  0  0  0  0  0  0  0  0  0  0
  1  6  1  0  0  0  0
  2  3  1  0  0  0  0
  2  1  2  0  0  0  0
  3  4  2  0  0  0  0
  4  5  1  0  0  0  0
  5 10  1  0  0  0  0
  6  5  2  0  0  0  0
  7  2  1  0  0  0  0
  8  3  1  0  0  0  0
  9 19  1  0  0  0  0
 10 11  1  0  0  0  0
 10  9  2  0  0  0  0
 11 13  2  0  0  0  0
 12 11  1  0  0  0  0
 13 14  1  0  0  0  0
 13 18  1  0  0  0  0
 14 15  1  0  0  0  0
 15 17  2  0  0  0  0
 15 16  1  0  0  0  0
 18 17  1  0  0  0  0
 19 18  2  0  0  0  0
 20 14  1  0  0  0  0
 21  1  1  0  0  0  0
 22 25  1  0  0  0  0
 22 21  1  0  0  0  0
 22 24  1  0  0  0  0
 23 22  1  0  0  0  0
 25 27  1  0  0  0  0
 26 25  1  0  0  0  0
 28 25  1  0  0  0  0
 28 30  1  0  0  0  0
 28 31  1  0  0  0  0
 29 28  1  0  0  0  0
 32 31  1  0  0  0  0
M  END
>  <minimizedAffinity>
-4.52011728

$$$$
