
 OpenBabel03262520073D

 21 23  0  0  0  0  0  0  0  0999 V2000
   34.6140   28.1410   48.9200 C   0  0  0  0  0  0  0  0  0  0  0  0
   34.9730   29.4450   48.6010 C   0  0  0  0  0  0  0  0  0  0  0  0
   34.2270   30.1890   47.7090 C   0  0  0  0  0  0  0  0  0  0  0  0
   34.4770   31.2070   47.4370 H   0  0  0  0  0  0  0  0  0  0  0  0
   33.1010   29.6460   47.1160 C   0  0  0  0  0  0  0  0  0  0  0  0
   32.2040   30.1280   46.2300 N   0  0  0  0  0  0  0  0  0  0  0  0
   31.3290   29.1010   46.0410 C   0  0  0  0  0  0  0  0  0  0  0  0
   30.4580   29.1310   45.3780 H   0  0  0  0  0  0  0  0  0  0  0  0
   31.6750   28.0350   46.7790 N   0  0  0  0  0  0  0  0  0  0  0  0
   32.7830   28.3470   47.4630 C   0  0  0  0  0  0  0  0  0  0  0  0
   33.4920   27.5690   48.3420 C   0  0  0  0  0  0  0  0  0  0  0  0
   32.1770   31.0720   45.7850 H   0  0  0  0  0  0  0  0  0  0  0  0
   37.5200   30.3670   51.0900 C   0  0  0  0  0  0  0  0  0  0  0  0
   38.4160   31.1670   50.3330 C   0  0  0  0  0  0  0  0  0  0  0  0
   38.1060   31.3650   48.9670 C   0  0  0  0  0  0  0  0  0  0  0  0
   36.9850   30.7840   48.4700 N   0  0  0  0  0  0  0  0  0  0  0  0
   36.1580   30.0320   49.2190 C   0  0  0  0  0  0  0  0  0  0  0  0
   36.4260   29.8260   50.5150 N   0  0  0  0  0  0  0  0  0  0  0  0
   37.8220   30.2610   52.1230 H   0  0  0  0  0  0  0  0  0  0  0  0
   39.2920   31.6090   50.7590 H   0  0  0  0  0  0  0  0  0  0  0  0
   38.8000   31.9710   48.4290 H   0  0  0  0  0  0  0  0  0  0  0  0
  2  1  1  0  0  0  0
  2 17  1  0  0  0  0
  3  2  2  0  0  0  0
  4  3  1  0  0  0  0
  5 10  2  0  0  0  0
  5  3  1  0  0  0  0
  6  5  1  0  0  0  0
  7  6  1  0  0  0  0
  7  9  2  0  0  0  0
  8  7  1  0  0  0  0
  9 10  1  0  0  0  0
 10 11  1  0  0  0  0
 11  1  2  0  0  0  0
 12  6  1  0  0  0  0
 13 19  1  0  0  0  0
 14 20  1  0  0  0  0
 14 13  2  0  0  0  0
 15 14  1  0  0  0  0
 16 15  2  0  0  0  0
 16 17  1  0  0  0  0
 17 18  2  0  0  0  0
 18 13  1  0  0  0  0
 21 15  1  0  0  0  0
M  END
>  <minimizedAffinity>
-4.88713646

>  <minimizedRMSD>
2.26387811

$$$$
