
 OpenBabel03272509053D

 36 39  0  0  0  0  0  0  0  0999 V2000
   37.3280   30.3030   51.4510 C   0  0  0  0  0  0  0  0  0  0  0  0
   38.0710   30.9200   50.4240 C   0  0  0  0  0  0  0  0  0  0  0  0
   37.7390   30.6440   49.0830 C   0  0  0  0  0  0  0  0  0  0  0  0
   36.6970   29.7800   48.8960 N   0  0  0  0  0  0  0  0  0  0  0  0
   36.0180   29.2150   49.8870 C   0  0  0  0  0  0  0  0  0  0  0  0
   36.3230   29.4680   51.1700 N   0  0  0  0  0  0  0  0  0  0  0  0
   37.6080   30.5360   52.4550 H   0  0  0  0  0  0  0  0  0  0  0  0
   38.8650   31.5800   50.6420 H   0  0  0  0  0  0  0  0  0  0  0  0
   38.8870   32.5310   47.9220 C   0  0  0  0  0  3  0  0  0  0  0  0
   38.4460   31.2320   47.9550 C   0  0  0  0  0  0  0  0  0  0  0  0
   38.6850   30.4310   46.8600 C   0  0  0  0  0  0  0  0  0  0  0  0
   38.3820   29.4020   46.7820 H   0  0  0  0  0  0  0  0  0  0  0  0
   39.3620   30.9860   45.7730 C   0  0  0  0  0  0  0  0  0  0  0  0
   39.7430   30.4890   44.5810 N   0  0  0  0  0  0  0  0  0  0  0  0
   40.3830   31.4440   43.8620 C   0  0  0  0  0  0  0  0  0  0  0  0
   40.8240   31.4160   42.8750 H   0  0  0  0  0  0  0  0  0  0  0  0
   40.4150   32.5600   44.5940 N   0  0  0  0  0  0  0  0  0  0  0  0
   39.7990   32.3080   45.7630 C   0  0  0  0  0  0  0  0  0  0  0  0
   39.5490   33.1060   46.8840 C   0  0  0  0  0  3  0  0  0  0  0  0
   39.5820   29.5180   44.2340 H   0  0  0  0  0  0  0  0  0  0  0  0
   34.9600   28.3250   49.4880 C   0  0  0  0  0  3  0  0  0  0  0  0
   34.2400   28.5940   48.4570 C   0  0  0  0  0  3  0  0  0  0  0  0
   33.1310   27.8390   47.8650 C   0  0  0  0  0  0  0  0  0  0  0  0
   32.5320   27.4170   48.7000 H   0  0  0  0  0  0  0  0  0  0  0  0
   32.4440   28.4790   47.2740 H   0  0  0  0  0  0  0  0  0  0  0  0
   33.5810   26.7250   46.9710 C   0  0  0  0  0  0  0  0  0  0  0  0
   33.7670   25.4110   47.3630 C   0  0  0  0  0  0  0  0  0  0  0  0
   34.1840   24.4720   46.4290 C   0  0  0  0  0  0  0  0  0  0  0  0
   34.4200   24.8350   45.0920 C   0  0  0  0  0  0  0  0  0  0  0  0
   34.2340   26.1350   44.7110 C   0  0  0  0  0  0  0  0  0  0  0  0
   33.8200   27.0620   45.6420 C   0  0  0  0  0  0  0  0  0  0  0  0
   33.5740   25.1820   48.3980 H   0  0  0  0  0  0  0  0  0  0  0  0
   34.3090   23.4610   46.8130 H   0  0  0  0  0  0  0  0  0  0  0  0
   34.7450   24.0510   44.4110 H   0  0  0  0  0  0  0  0  0  0  0  0
   34.4310   26.3550   43.6720 H   0  0  0  0  0  0  0  0  0  0  0  0
   33.6820   28.0810   45.3050 H   0  0  0  0  0  0  0  0  0  0  0  0
  1  7  1  0  0  0  0
  2  8  1  0  0  0  0
  2  1  2  0  0  0  0
  3  2  1  0  0  0  0
  4  3  2  0  0  0  0
  4  5  1  0  0  0  0
  5  6  2  0  0  0  0
  6  1  1  0  0  0  0
  9 10  1  0  0  0  0
 10  3  1  0  0  0  0
 11 10  2  0  0  0  0
 12 11  1  0  0  0  0
 13 11  1  0  0  0  0
 14 13  1  0  0  0  0
 15 14  1  0  0  0  0
 15 17  2  0  0  0  0
 16 15  1  0  0  0  0
 17 18  1  0  0  0  0
 18 13  2  0  0  0  0
 18 19  1  0  0  0  0
 19  9  2  0  0  0  0
 20 14  1  0  0  0  0
 21  5  1  0  0  0  0
 22 21  2  0  0  0  0
 23 22  1  0  0  0  0
 23 24  1  0  0  0  0
 25 23  1  0  0  0  0
 26 27  1  0  0  0  0
 26 23  1  0  0  0  0
 27 32  1  0  0  0  0
 28 33  1  0  0  0  0
 28 27  2  0  0  0  0
 29 28  1  0  0  0  0
 30 29  2  0  0  0  0
 30 31  1  0  0  0  0
 31 26  2  0  0  0  0
 34 29  1  0  0  0  0
 35 30  1  0  0  0  0
 36 31  1  0  0  0  0
M  END
>  <minimizedAffinity>
-6.89623213

>  <minimizedRMSD>
0.619025826

$$$$
