
 OpenBabel03272505013D

 31 34  0  0  0  0  0  0  0  0999 V2000
   37.6110   30.1580   47.0350 Cl  0  0  0  0  0  0  0  0  0  0  0  0
   38.2230   31.5900   47.8110 C   0  0  0  0  0  0  0  0  0  0  0  0
   37.8630   31.8370   49.1090 C   0  0  0  0  0  0  0  0  0  0  0  0
   38.3860   33.0050   49.6860 C   0  0  0  0  0  0  0  0  0  0  0  0
   39.2140   33.8320   48.9450 C   0  0  0  0  0  0  0  0  0  0  0  0
   39.5520   33.5510   47.6500 C   0  0  0  0  0  0  0  0  0  0  0  0
   39.0400   32.4020   47.0810 C   0  0  0  0  0  0  0  0  0  0  0  0
   38.0990   33.2040   50.7190 H   0  0  0  0  0  0  0  0  0  0  0  0
   39.5670   34.7040   49.4680 H   0  0  0  0  0  0  0  0  0  0  0  0
   40.1990   34.2240   47.1190 H   0  0  0  0  0  0  0  0  0  0  0  0
   40.4890   31.3610   45.2870 C   0  0  0  0  0  3  0  0  0  0  0  0
   39.4280   32.1440   45.6970 C   0  0  0  0  0  0  0  0  0  0  0  0
   38.6660   32.7350   44.7240 C   0  0  0  0  0  0  0  0  0  0  0  0
   37.8190   33.3630   44.9760 H   0  0  0  0  0  0  0  0  0  0  0  0
   38.8920   32.5980   43.3690 C   0  0  0  0  0  0  0  0  0  0  0  0
   38.3000   33.0670   42.2410 N   0  0  0  0  0  0  0  0  0  0  0  0
   38.9750   32.5870   41.1580 C   0  0  0  0  0  0  0  0  0  0  0  0
   38.6630   32.8430   40.1500 H   0  0  0  0  0  0  0  0  0  0  0  0
   39.9840   31.8230   41.6140 N   0  0  0  0  0  0  0  0  0  0  0  0
   39.9690   31.8020   42.9650 C   0  0  0  0  0  0  0  0  0  0  0  0
   40.7410   31.2030   43.9400 C   0  0  0  0  0  3  0  0  0  0  0  0
   37.4530   33.6980   42.2770 H   0  0  0  0  0  0  0  0  0  0  0  0
   37.4570   30.3090   51.0420 C   0  0  0  0  0  0  0  0  0  0  0  0
   36.9920   30.9780   49.8990 C   0  0  0  0  0  0  0  0  0  0  0  0
   35.6540   30.7860   49.5450 C   0  0  0  0  0  0  0  0  0  0  0  0
   34.8900   29.9730   50.3180 N   0  0  0  0  0  0  0  0  0  0  0  0
   35.3660   29.3490   51.4040 C   0  0  0  0  0  0  0  0  0  0  0  0
   36.6560   29.5150   51.7700 N   0  0  0  0  0  0  0  0  0  0  0  0
   38.4870   30.4270   51.3550 H   0  0  0  0  0  0  0  0  0  0  0  0
   35.2830   31.3020   48.6590 H   0  0  0  0  0  0  0  0  0  0  0  0
   34.6070   28.7530   51.8800 H   0  0  0  0  0  0  0  0  0  0  0  0
  1  2  1  0  0  0  0
  2  3  1  0  0  0  0
  3  4  2  0  0  0  0
  3 24  1  0  0  0  0
  4  8  1  0  0  0  0
  5  9  1  0  0  0  0
  5  4  1  0  0  0  0
  6  5  2  0  0  0  0
  7  6  1  0  0  0  0
  7  2  2  0  0  0  0
 10  6  1  0  0  0  0
 11 12  1  0  0  0  0
 12  7  1  0  0  0  0
 13 14  1  0  0  0  0
 13 12  2  0  0  0  0
 15 13  1  0  0  0  0
 16 22  1  0  0  0  0
 16 15  1  0  0  0  0
 17 19  2  0  0  0  0
 17 16  1  0  0  0  0
 18 17  1  0  0  0  0
 19 20  1  0  0  0  0
 20 15  2  0  0  0  0
 20 21  1  0  0  0  0
 21 11  2  0  0  0  0
 23 29  1  0  0  0  0
 23 28  1  0  0  0  0
 24 23  2  0  0  0  0
 25 24  1  0  0  0  0
 25 26  2  0  0  0  0
 26 27  1  0  0  0  0
 27 28  2  0  0  0  0
 27 31  1  0  0  0  0
 30 25  1  0  0  0  0
M  END
>  <minimizedAffinity>
-6.90959644

>  <minimizedRMSD>
1.96101785

$$$$
