
 OpenBabel03272510233D

 34 38  0  0  0  0  0  0  0  0999 V2000
   36.3510   30.0120   47.1540 C   0  0  0  0  0  0  0  0  0  0  0  0
   37.0620   30.6600   48.1490 C   0  0  0  0  0  0  0  0  0  0  0  0
   37.9290   31.6830   47.8200 C   0  0  0  0  0  0  0  0  0  0  0  0
   38.0550   32.0230   46.4830 C   0  0  0  0  0  0  0  0  0  0  0  0
   38.8350   32.9850   45.9190 N   0  0  0  0  0  0  0  0  0  0  0  0
   38.6250   32.9470   44.5960 C   0  0  0  0  0  0  0  0  0  0  0  0
   37.7370   31.9940   44.3000 N   0  0  0  0  0  0  0  0  0  0  0  0
   37.3610   31.4000   45.4590 C   0  0  0  0  0  0  0  0  0  0  0  0
   36.4990   30.3770   45.8160 C   0  0  0  0  0  0  0  0  0  0  0  0
   35.6530   29.2030   47.3240 H   0  0  0  0  0  0  0  0  0  0  0  0
   38.4840   32.1880   48.5970 H   0  0  0  0  0  0  0  0  0  0  0  0
   39.4820   33.6310   46.4390 H   0  0  0  0  0  0  0  0  0  0  0  0
   35.9400   29.8710   45.0190 H   0  0  0  0  0  0  0  0  0  0  0  0
   39.1030   33.5730   42.2240 C   0  0  0  0  0  3  0  0  0  0  0  0
   39.2600   33.8120   43.5840 C   0  0  0  0  0  0  0  0  0  0  0  0
   40.0320   34.8860   44.0110 C   0  0  0  0  0  0  0  0  0  0  0  0
   40.1640   35.0830   45.0600 H   0  0  0  0  0  0  0  0  0  0  0  0
   40.6300   35.7010   43.0750 C   0  0  0  0  0  0  0  0  0  0  0  0
   41.4280   36.8050   43.1370 N   0  0  0  0  0  0  0  0  0  0  0  0
   41.7330   37.2100   41.8760 C   0  0  0  0  0  0  0  0  0  0  0  0
   42.3460   38.0540   41.5740 H   0  0  0  0  0  0  0  0  0  0  0  0
   41.1420   36.3790   40.9870 N   0  0  0  0  0  0  0  0  0  0  0  0
   40.4690   35.4580   41.7110 C   0  0  0  0  0  0  0  0  0  0  0  0
   39.7070   34.3970   41.2730 C   0  0  0  0  0  3  0  0  0  0  0  0
   41.7460   37.2570   44.0240 H   0  0  0  0  0  0  0  0  0  0  0  0
   37.4330   29.9260   51.8170 C   0  0  0  0  0  0  0  0  0  0  0  0
   37.7450   30.4000   50.5440 C   0  0  0  0  0  0  0  0  0  0  0  0
   36.8420   30.2100   49.5120 C   0  0  0  0  0  0  0  0  0  0  0  0
   35.6770   29.5580   49.7930 N   0  0  0  0  0  0  0  0  0  0  0  0
   35.3950   29.1030   51.0500 C   0  0  0  0  0  0  0  0  0  0  0  0
   36.2620   29.2860   52.0430 N   0  0  0  0  0  0  0  0  0  0  0  0
   38.1260   30.0670   52.6310 H   0  0  0  0  0  0  0  0  0  0  0  0
   38.6590   30.9050   50.3490 H   0  0  0  0  0  0  0  0  0  0  0  0
   34.4350   28.6090   51.1140 H   0  0  0  0  0  0  0  0  0  0  0  0
  1 10  1  0  0  0  0
  1  2  1  0  0  0  0
  2 28  1  0  0  0  0
  3  2  2  0  0  0  0
  3 11  1  0  0  0  0
  4  3  1  0  0  0  0
  5 12  1  0  0  0  0
  5  4  1  0  0  0  0
  6  5  1  0  0  0  0
  7  6  2  0  0  0  0
  7  8  1  0  0  0  0
  8  9  1  0  0  0  0
  8  4  2  0  0  0  0
  9  1  2  0  0  0  0
 13  9  1  0  0  0  0
 14 15  1  0  0  0  0
 15 16  2  0  0  0  0
 15  6  1  0  0  0  0
 16 17  1  0  0  0  0
 18 19  1  0  0  0  0
 18 16  1  0  0  0  0
 19 25  1  0  0  0  0
 20 19  1  0  0  0  0
 21 20  1  0  0  0  0
 22 23  1  0  0  0  0
 22 20  2  0  0  0  0
 23 18  2  0  0  0  0
 24 23  1  0  0  0  0
 24 14  2  0  0  0  0
 26 31  1  0  0  0  0
 26 32  1  0  0  0  0
 27 26  2  0  0  0  0
 28 29  2  0  0  0  0
 28 27  1  0  0  0  0
 29 30  1  0  0  0  0
 30 34  1  0  0  0  0
 30 31  2  0  0  0  0
 33 27  1  0  0  0  0
M  END
>  <minimizedAffinity>
2.48646474

>  <minimizedRMSD>
1.61055851

$$$$
