
 OpenBabel03272509213D

 49 54  0  0  0  0  0  0  0  0999 V2000
   39.8910   30.8040   44.2890 C   0  0  0  0  0  0  0  0  0  0  0  0
   39.3940   31.6640   45.2570 C   0  0  0  0  0  0  0  0  0  0  0  0
   38.3230   32.4770   44.9250 C   0  0  0  0  0  0  0  0  0  0  0  0
   37.7450   32.4470   43.6530 C   0  0  0  0  0  0  0  0  0  0  0  0
   36.7310   33.0920   43.0450 N   0  0  0  0  0  0  0  0  0  0  0  0
   36.5980   32.6640   41.7770 C   0  0  0  0  0  0  0  0  0  0  0  0
   37.5600   31.7180   41.5740 N   0  0  0  0  0  0  0  0  0  0  0  0
   38.2690   31.5780   42.7220 C   0  0  0  0  0  0  0  0  0  0  0  0
   39.3290   30.7650   43.0340 C   0  0  0  0  0  0  0  0  0  0  0  0
   40.7220   30.2130   44.6420 H   0  0  0  0  0  0  0  0  0  0  0  0
   37.8280   33.2000   45.5760 H   0  0  0  0  0  0  0  0  0  0  0  0
   36.1320   33.8190   43.4930 H   0  0  0  0  0  0  0  0  0  0  0  0
   35.8690   33.0090   41.0640 H   0  0  0  0  0  0  0  0  0  0  0  0
   40.9610   30.0850   41.2470 C   0  0  0  0  0  3  0  0  0  0  0  0
   39.9030   29.8350   42.0650 C   0  0  0  0  0  0  0  0  0  0  0  0
   39.2860   28.6020   42.0080 C   0  0  0  0  0  0  0  0  0  0  0  0
   38.4280   28.3260   42.6360 H   0  0  0  0  0  0  0  0  0  0  0  0
   39.7550   27.6490   41.1220 C   0  0  0  0  0  0  0  0  0  0  0  0
   39.3550   26.3910   40.8570 N   0  0  0  0  0  0  0  0  0  0  0  0
   40.1570   25.8690   39.8870 C   0  0  0  0  0  0  0  0  0  0  0  0
   40.1460   24.8920   39.4170 H   0  0  0  0  0  0  0  0  0  0  0  0
   41.0850   26.8010   39.5200 N   0  0  0  0  0  0  0  0  0  0  0  0
   40.8390   27.8880   40.2740 C   0  0  0  0  0  0  0  0  0  0  0  0
   41.4460   29.1450   40.3520 C   0  0  0  0  0  3  0  0  0  0  0  0
   38.5610   25.8630   41.3060 H   0  0  0  0  0  0  0  0  0  0  0  0
   39.7930   31.8620   46.5460 O   0  0  0  0  0  0  0  0  0  0  0  0
   38.0270   31.3520   48.1250 C   0  0  0  0  0  0  0  0  0  0  0  0
   37.2030   31.6110   49.2060 C   0  0  0  0  0  0  0  0  0  0  0  0
   37.4290   32.8490   49.8160 C   0  0  0  0  0  0  0  0  0  0  0  0
   38.4110   33.7350   49.3560 C   0  0  0  0  0  0  0  0  0  0  0  0
   39.1990   33.3720   48.2410 C   0  0  0  0  0  0  0  0  0  0  0  0
   38.9850   32.1420   47.6240 C   0  0  0  0  0  0  0  0  0  0  0  0
   36.8080   33.1020   50.6710 H   0  0  0  0  0  0  0  0  0  0  0  0
   38.5600   34.6810   49.8490 H   0  0  0  0  0  0  0  0  0  0  0  0
   39.9510   34.0600   47.8960 H   0  0  0  0  0  0  0  0  0  0  0  0
   35.0020   30.5820   48.9960 C   0  0  0  0  0  0  0  0  0  0  0  0
   36.2030   30.7160   49.6800 C   0  0  0  0  0  0  0  0  0  0  0  0
   36.3740   29.9400   50.8400 C   0  0  0  0  0  0  0  0  0  0  0  0
   35.3720   29.1100   51.2260 N   0  0  0  0  0  0  0  0  0  0  0  0
   34.2140   29.0150   50.5190 C   0  0  0  0  0  0  0  0  0  0  0  0
   34.0390   29.7470   49.4160 N   0  0  0  0  0  0  0  0  0  0  0  0
   34.7700   31.1300   48.0950 H   0  0  0  0  0  0  0  0  0  0  0  0
   33.5490   28.2960   50.9980 H   0  0  0  0  0  0  0  0  0  0  0  0
   37.6400   30.0420   51.6170 C   0  0  0  0  0  0  0  0  0  0  0  0
   38.4220   29.3790   51.1980 H   0  0  0  0  0  0  0  0  0  0  0  0
   37.4530   29.7420   52.6700 H   0  0  0  0  0  0  0  0  0  0  0  0
   37.9340   31.1000   51.6480 H   0  0  0  0  0  0  0  0  0  0  0  0
   37.8760   30.1380   47.4500 O   0  0  0  0  0  0  0  0  0  0  0  0
   38.6500   29.5140   47.4540 H   0  0  0  0  0  0  0  0  0  0  0  0
  1 10  1  0  0  0  0
  1  2  1  0  0  0  0
  2 26  1  0  0  0  0
  3  2  2  0  0  0  0
  3 11  1  0  0  0  0
  4  3  1  0  0  0  0
  5 12  1  0  0  0  0
  5  4  1  0  0  0  0
  6  5  1  0  0  0  0
  7  6  2  0  0  0  0
  7  8  1  0  0  0  0
  8  9  1  0  0  0  0
  8  4  2  0  0  0  0
  9  1  2  0  0  0  0
 13  6  1  0  0  0  0
 14 15  1  0  0  0  0
 15  9  1  0  0  0  0
 16 15  2  0  0  0  0
 16 17  1  0  0  0  0
 18 16  1  0  0  0  0
 19 18  1  0  0  0  0
 19 25  1  0  0  0  0
 20 19  1  0  0  0  0
 21 20  1  0  0  0  0
 22 20  2  0  0  0  0
 22 23  1  0  0  0  0
 23 24  1  0  0  0  0
 23 18  2  0  0  0  0
 24 14  2  0  0  0  0
 26 32  1  0  0  0  0
 27 28  1  0  0  0  0
 28 37  1  0  0  0  0
 28 29  2  0  0  0  0
 29 33  1  0  0  0  0
 30 29  1  0  0  0  0
 30 34  1  0  0  0  0
 31 30  2  0  0  0  0
 32 27  2  0  0  0  0
 32 31  1  0  0  0  0
 35 31  1  0  0  0  0
 36 41  2  0  0  0  0
 36 37  1  0  0  0  0
 37 38  2  0  0  0  0
 38 39  1  0  0  0  0
 38 44  1  0  0  0  0
 40 43  1  0  0  0  0
 40 39  2  0  0  0  0
 41 40  1  0  0  0  0
 42 36  1  0  0  0  0
 44 47  1  0  0  0  0
 44 46  1  0  0  0  0
 45 44  1  0  0  0  0
 48 49  1  0  0  0  0
 48 27  1  0  0  0  0
M  END
>  <minimizedAffinity>
-7.73247194

>  <minimizedRMSD>
1.30370414

$$$$
