
 OpenBabel03272507193D

 33 36  0  0  1  0  0  0  0  0999 V2000
   37.5550   31.4670   49.4560 C   0  0  0  0  0  0  0  0  0  0  0  0
   38.2810   32.6260   49.6820 C   0  0  0  0  0  0  0  0  0  0  0  0
   38.9430   33.1270   48.5390 C   0  0  0  0  0  0  0  0  0  0  0  0
   38.8470   32.4910   47.3370 N   0  0  0  0  0  0  0  0  0  0  0  0
   38.1210   31.3560   47.1680 C   0  0  0  0  0  0  0  0  0  0  0  0
   37.4640   30.8400   48.2570 N   0  0  0  0  0  0  0  0  0  0  0  0
   38.3350   33.1010   50.6430 H   0  0  0  0  0  0  0  0  0  0  0  0
   39.5330   34.0280   48.6280 H   0  0  0  0  0  0  0  0  0  0  0  0
   39.2010   30.2550   45.2910 C   0  0  0  0  0  3  0  0  0  0  0  0
   38.0270   30.6860   45.8740 C   0  0  0  0  0  0  0  0  0  0  0  0
   36.8230   30.4750   45.2300 C   0  0  0  0  0  0  0  0  0  0  0  0
   35.9200   30.8240   45.7130 H   0  0  0  0  0  0  0  0  0  0  0  0
   36.7330   29.8420   44.0070 C   0  0  0  0  0  0  0  0  0  0  0  0
   35.7200   29.5150   43.1830 N   0  0  0  0  0  0  0  0  0  0  0  0
   36.2770   28.9000   42.1260 C   0  0  0  0  0  0  0  0  0  0  0  0
   35.6060   28.5560   41.3370 H   0  0  0  0  0  0  0  0  0  0  0  0
   37.6180   28.8370   42.2740 N   0  0  0  0  0  0  0  0  0  0  0  0
   37.9320   29.4190   43.4460 C   0  0  0  0  0  0  0  0  0  0  0  0
   39.1480   29.6170   44.0670 C   0  0  0  0  0  3  0  0  0  0  0  0
   34.7260   29.7480   43.4270 H   0  0  0  0  0  0  0  0  0  0  0  0
   36.8180   30.9180   50.6380 C   0  0  1  0  0  0  0  0  0  0  0  0
   36.0920   29.6500   50.5780 C   0  0  2  0  0  0  0  0  0  0  0  0
   37.4620   29.6330   51.1870 C   0  0  0  0  0  0  0  0  0  0  0  0
   36.6220   31.7100   51.3990 H   0  0  0  0  0  0  0  0  0  0  0  0
   35.1570   29.6570   51.2110 H   0  0  0  0  0  0  0  0  0  0  0  0
   38.2540   29.1400   50.5810 H   0  0  0  0  0  0  0  0  0  0  0  0
   37.5930   29.6360   52.2740 H   0  0  0  0  0  0  0  0  0  0  0  0
   35.8990   29.0880   49.3240 O   0  0  0  0  0  0  0  0  0  0  0  0
   34.7540   28.8440   48.6450 C   0  0  0  0  0  0  0  0  0  0  0  0
   34.3160   27.6850   48.4690 O   0  0  0  0  0  0  0  0  0  0  0  0
   34.2260   30.0660   48.2270 N   0  0  0  0  0  0  0  0  0  0  0  0
   33.5180   30.2280   49.0020 H   0  0  0  0  0  0  0  0  0  0  0  0
   34.7030   30.3750   47.3300 H   0  0  0  0  0  0  0  0  0  0  0  0
  1  2  1  0  0  0  0
  1 21  1  0  0  0  0
  2  7  1  0  0  0  0
  3  8  1  0  0  0  0
  3  2  2  0  0  0  0
  4  3  1  0  0  0  0
  5  4  2  0  0  0  0
  5  6  1  0  0  0  0
  6  1  2  0  0  0  0
  9 10  1  0  0  0  0
 10  5  1  0  0  0  0
 11 12  1  0  0  0  0
 11 10  2  0  0  0  0
 13 11  1  0  0  0  0
 14 20  1  0  0  0  0
 14 13  1  0  0  0  0
 15 17  2  0  0  0  0
 15 14  1  0  0  0  0
 16 15  1  0  0  0  0
 17 18  1  0  0  0  0
 18 13  2  0  0  0  0
 18 19  1  0  0  0  0
 19  9  2  0  0  0  0
 21 23  1  0  0  0  0
 21 24  1  1  0  0  0
 22 21  1  0  0  0  0
 22 23  1  0  0  0  0
 22 25  1  1  0  0  0
 23 27  1  0  0  0  0
 26 23  1  0  0  0  0
 28 22  1  0  0  0  0
 29 28  1  0  0  0  0
 30 29  2  0  0  0  0
 31 29  1  0  0  0  0
 31 32  1  0  0  0  0
 33 31  1  0  0  0  0
M  END
>  <minimizedAffinity>
-5.94341755

>  <minimizedRMSD>
1.36631882

$$$$
