
 OpenBabel03272505333D

 43 47  0  0  0  0  0  0  0  0999 V2000
   38.2560   23.7610   34.2810 N   0  0  0  0  0  0  0  0  0  0  0  0
   38.0510   25.0710   33.9770 C   0  0  0  0  0  0  0  0  0  0  0  0
   37.2620   25.4600   32.8980 C   0  0  0  0  0  0  0  0  0  0  0  0
   36.6840   24.4500   32.1370 C   0  0  0  0  0  0  0  0  0  0  0  0
   35.9630   24.7550   31.1530 O   0  0  0  0  0  0  0  0  0  0  0  0
   36.8930   23.1300   32.4460 N   0  0  0  0  0  0  0  0  0  0  0  0
   37.6640   22.8880   33.4960 C   0  0  0  0  0  0  0  0  0  0  0  0
   37.8310   21.6720   33.7480 O   0  0  0  0  0  0  0  0  0  0  0  0
   38.5100   25.8470   34.5820 H   0  0  0  0  0  0  0  0  0  0  0  0
   39.3500   23.0160   37.7560 C   0  0  0  0  0  0  0  0  0  0  0  0
   38.5510   23.3920   36.6660 C   0  0  0  0  0  0  0  0  0  0  0  0
   39.0520   23.3850   35.3670 C   0  0  0  0  0  0  0  0  0  0  0  0
   40.3320   23.0020   35.1970 N   0  0  0  0  0  0  0  0  0  0  0  0
   41.1280   22.6320   36.2390 C   0  0  0  0  0  0  0  0  0  0  0  0
   40.6190   22.6450   37.5140 N   0  0  0  0  0  0  0  0  0  0  0  0
   38.9270   23.0350   38.7370 H   0  0  0  0  0  0  0  0  0  0  0  0
   37.5380   23.6860   36.8810 H   0  0  0  0  0  0  0  0  0  0  0  0
   42.1520   22.3320   36.0460 H   0  0  0  0  0  0  0  0  0  0  0  0
   37.0140   26.8460   32.5340 C   0  0  0  0  0  0  0  0  0  0  0  0
   37.5120   27.4400   31.4100 C   0  0  0  0  0  0  0  0  0  0  0  0
   37.2910   28.7480   31.0460 C   0  0  0  0  0  0  0  0  0  0  0  0
   36.4950   29.5310   31.8850 C   0  0  0  0  0  0  0  0  0  0  0  0
   36.0030   28.9050   33.0150 C   0  0  0  0  0  0  0  0  0  0  0  0
   36.2660   27.6240   33.2990 N   0  0  0  0  0  0  0  0  0  0  0  0
   38.1380   26.8670   30.7260 H   0  0  0  0  0  0  0  0  0  0  0  0
   37.6990   29.1970   30.1460 H   0  0  0  0  0  0  0  0  0  0  0  0
   36.3210   30.5380   31.6110 H   0  0  0  0  0  0  0  0  0  0  0  0
   33.7990   29.6160   33.9890 C   0  0  0  0  0  3  0  0  0  0  0  0
   35.1640   29.6590   33.9430 C   0  0  0  0  0  0  0  0  0  0  0  0
   35.7270   30.5090   34.8810 C   0  0  0  0  0  0  0  0  0  0  0  0
   36.8060   30.6180   34.9300 H   0  0  0  0  0  0  0  0  0  0  0  0
   35.0250   31.2640   35.7990 C   0  0  0  0  0  0  0  0  0  0  0  0
   35.3970   32.1250   36.7640 N   0  0  0  0  0  0  0  0  0  0  0  0
   34.2550   32.5660   37.3520 C   0  0  0  0  0  0  0  0  0  0  0  0
   34.1860   33.2840   38.1840 H   0  0  0  0  0  0  0  0  0  0  0  0
   33.1800   31.9770   36.7510 N   0  0  0  0  0  0  0  0  0  0  0  0
   33.6510   31.1710   35.7890 C   0  0  0  0  0  0  0  0  0  0  0  0
   33.0340   30.3420   34.8790 C   0  0  0  0  0  3  0  0  0  0  0  0
   36.3880   32.3980   37.0080 H   0  0  0  0  0  0  0  0  0  0  0  0
   36.2860   22.1000   31.6450 C   0  0  0  0  0  0  0  0  0  0  0  0
   35.4010   22.6220   30.7600 F   0  0  0  0  0  0  0  0  0  0  0  0
   35.5600   21.1750   32.3950 F   0  0  0  0  0  0  0  0  0  0  0  0
   37.2880   21.4400   30.9320 F   0  0  0  0  0  0  0  0  0  0  0  0
  1 12  1  0  0  0  0
  2  1  1  0  0  0  0
  2  9  1  0  0  0  0
  3  2  2  0  0  0  0
  4  6  1  0  0  0  0
  4  3  1  0  0  0  0
  5  4  2  0  0  0  0
  6  7  1  0  0  0  0
  7  8  2  0  0  0  0
  7  1  1  0  0  0  0
 10 16  1  0  0  0  0
 11 17  1  0  0  0  0
 11 10  2  0  0  0  0
 12 11  1  0  0  0  0
 13 12  2  0  0  0  0
 13 14  1  0  0  0  0
 14 15  2  0  0  0  0
 15 10  1  0  0  0  0
 18 14  1  0  0  0  0
 19  3  1  0  0  0  0
 19 24  1  0  0  0  0
 20 19  2  0  0  0  0
 21 20  1  0  0  0  0
 21 22  2  0  0  0  0
 22 23  1  0  0  0  0
 23 24  2  0  0  0  0
 23 29  1  0  0  0  0
 25 20  1  0  0  0  0
 26 21  1  0  0  0  0
 27 22  1  0  0  0  0
 28 38  1  0  0  0  0
 29 28  2  0  0  0  0
 29 30  1  0  0  0  0
 30 31  1  0  0  0  0
 30 32  2  0  0  0  0
 32 33  1  0  0  0  0
 33 39  1  0  0  0  0
 33 34  1  0  0  0  0
 34 35  1  0  0  0  0
 36 34  2  0  0  0  0
 37 32  1  0  0  0  0
 37 36  1  0  0  0  0
 38 37  2  0  0  0  0
 40 42  1  0  0  0  0
 40  6  1  0  0  0  0
 41 40  1  0  0  0  0
 43 40  1  0  0  0  0
M  END
>  <minimizedAffinity>
-7.52006483

$$$$

 OpenBabel03272505333D

 43 47  0  0  0  0  0  0  0  0999 V2000
   37.2410   23.0970   32.8810 N   0  0  0  0  0  0  0  0  0  0  0  0
   36.9280   24.3460   32.4430 C   0  0  0  0  0  0  0  0  0  0  0  0
   37.4200   25.4880   33.0690 C   0  0  0  0  0  0  0  0  0  0  0  0
   38.2520   25.3020   34.1670 C   0  0  0  0  0  0  0  0  0  0  0  0
   38.7210   26.3050   34.7640 O   0  0  0  0  0  0  0  0  0  0  0  0
   38.5650   24.0400   34.6060 N   0  0  0  0  0  0  0  0  0  0  0  0
   38.0340   23.0340   33.9270 C   0  0  0  0  0  0  0  0  0  0  0  0
   38.3420   21.8980   34.3570 O   0  0  0  0  0  0  0  0  0  0  0  0
   36.2770   24.4740   31.5840 H   0  0  0  0  0  0  0  0  0  0  0  0
   34.9950   20.2820   31.9510 C   0  0  0  0  0  0  0  0  0  0  0  0
   35.5000   21.4250   32.5890 C   0  0  0  0  0  0  0  0  0  0  0  0
   36.7380   21.9590   32.2430 C   0  0  0  0  0  0  0  0  0  0  0  0
   37.4320   21.3370   31.2710 N   0  0  0  0  0  0  0  0  0  0  0  0
   36.9640   20.2260   30.6350 C   0  0  0  0  0  0  0  0  0  0  0  0
   35.7410   19.7130   30.9890 N   0  0  0  0  0  0  0  0  0  0  0  0
   34.0410   19.9050   32.2460 H   0  0  0  0  0  0  0  0  0  0  0  0
   34.8880   21.8670   33.3570 H   0  0  0  0  0  0  0  0  0  0  0  0
   37.5640   19.7650   29.8590 H   0  0  0  0  0  0  0  0  0  0  0  0
   37.1160   26.8430   32.6390 C   0  0  0  0  0  0  0  0  0  0  0  0
   37.5820   27.4000   31.4820 C   0  0  0  0  0  0  0  0  0  0  0  0
   37.3080   28.6780   31.0550 C   0  0  0  0  0  0  0  0  0  0  0  0
   36.4890   29.4720   31.8640 C   0  0  0  0  0  0  0  0  0  0  0  0
   36.0320   28.8840   33.0280 C   0  0  0  0  0  0  0  0  0  0  0  0
   36.3460   27.6300   33.3720 N   0  0  0  0  0  0  0  0  0  0  0  0
   38.2230   26.8170   30.8210 H   0  0  0  0  0  0  0  0  0  0  0  0
   37.6910   29.0970   30.1300 H   0  0  0  0  0  0  0  0  0  0  0  0
   36.2750   30.4570   31.5410 H   0  0  0  0  0  0  0  0  0  0  0  0
   33.8060   29.6430   33.9130 C   0  0  0  0  0  3  0  0  0  0  0  0
   35.1720   29.6510   33.9260 C   0  0  0  0  0  0  0  0  0  0  0  0
   35.7150   30.4790   34.8950 C   0  0  0  0  0  0  0  0  0  0  0  0
   36.7930   30.5600   34.9920 H   0  0  0  0  0  0  0  0  0  0  0  0
   34.9930   31.2440   35.7900 C   0  0  0  0  0  0  0  0  0  0  0  0
   35.3450   32.0870   36.7780 N   0  0  0  0  0  0  0  0  0  0  0  0
   34.1900   32.5510   37.3210 C   0  0  0  0  0  0  0  0  0  0  0  0
   34.1030   33.2640   38.1560 H   0  0  0  0  0  0  0  0  0  0  0  0
   33.1280   31.9950   36.6680 N   0  0  0  0  0  0  0  0  0  0  0  0
   33.6190   31.1860   35.7200 C   0  0  0  0  0  0  0  0  0  0  0  0
   33.0220   30.3800   34.7760 C   0  0  0  0  0  3  0  0  0  0  0  0
   36.3310   32.3330   37.0670 H   0  0  0  0  0  0  0  0  0  0  0  0
   39.4270   23.8700   35.7450 C   0  0  0  0  0  0  0  0  0  0  0  0
   40.6240   24.4800   35.5530 F   0  0  0  0  0  0  0  0  0  0  0  0
   39.7300   22.5340   36.0120 F   0  0  0  0  0  0  0  0  0  0  0  0
   38.8130   24.4410   36.8610 F   0  0  0  0  0  0  0  0  0  0  0  0
  1  7  1  0  0  0  0
  2  1  1  0  0  0  0
  2  3  2  0  0  0  0
  3  4  1  0  0  0  0
  4  6  1  0  0  0  0
  4  5  2  0  0  0  0
  6 40  1  0  0  0  0
  7  8  2  0  0  0  0
  7  6  1  0  0  0  0
  9  2  1  0  0  0  0
 10 16  1  0  0  0  0
 10 11  1  0  0  0  0
 11 17  1  0  0  0  0
 12 11  2  0  0  0  0
 12  1  1  0  0  0  0
 13 12  1  0  0  0  0
 14 15  1  0  0  0  0
 14 13  2  0  0  0  0
 15 10  2  0  0  0  0
 18 14  1  0  0  0  0
 19  3  1  0  0  0  0
 19 24  1  0  0  0  0
 20 19  2  0  0  0  0
 21 20  1  0  0  0  0
 21 22  2  0  0  0  0
 22 23  1  0  0  0  0
 23 24  2  0  0  0  0
 23 29  1  0  0  0  0
 25 20  1  0  0  0  0
 26 21  1  0  0  0  0
 27 22  1  0  0  0  0
 28 29  2  0  0  0  0
 28 38  1  0  0  0  0
 29 30  1  0  0  0  0
 30 31  1  0  0  0  0
 30 32  2  0  0  0  0
 32 33  1  0  0  0  0
 33 39  1  0  0  0  0
 33 34  1  0  0  0  0
 34 35  1  0  0  0  0
 36 34  2  0  0  0  0
 37 32  1  0  0  0  0
 37 36  1  0  0  0  0
 38 37  2  0  0  0  0
 40 42  1  0  0  0  0
 40 43  1  0  0  0  0
 41 40  1  0  0  0  0
M  END
>  <minimizedAffinity>
-7.23366976

$$$$

 OpenBabel03272505333D

 43 47  0  0  0  0  0  0  0  0999 V2000
   38.3850   24.3780   33.7450 N   0  0  0  0  0  0  0  0  0  0  0  0
   38.1230   25.6990   33.5540 C   0  0  0  0  0  0  0  0  0  0  0  0
   37.1240   26.1310   32.6860 C   0  0  0  0  0  0  0  0  0  0  0  0
   36.3960   25.1520   32.0180 C   0  0  0  0  0  0  0  0  0  0  0  0
   35.4830   25.4950   31.2240 O   0  0  0  0  0  0  0  0  0  0  0  0
   36.6650   23.8210   32.2120 N   0  0  0  0  0  0  0  0  0  0  0  0
   37.6400   23.5370   33.0630 C   0  0  0  0  0  0  0  0  0  0  0  0
   37.8560   22.3120   33.2160 O   0  0  0  0  0  0  0  0  0  0  0  0
   38.7000   26.4500   34.0840 H   0  0  0  0  0  0  0  0  0  0  0  0
   41.7480   23.6000   35.1320 C   0  0  0  0  0  0  0  0  0  0  0  0
   40.7360   24.0220   34.2560 C   0  0  0  0  0  0  0  0  0  0  0  0
   39.3930   23.9580   34.6190 C   0  0  0  0  0  0  0  0  0  0  0  0
   39.1030   23.4780   35.8430 N   0  0  0  0  0  0  0  0  0  0  0  0
   40.0670   23.0620   36.7120 C   0  0  0  0  0  0  0  0  0  0  0  0
   41.3860   23.1320   36.3390 N   0  0  0  0  0  0  0  0  0  0  0  0
   42.7650   23.6660   34.8140 H   0  0  0  0  0  0  0  0  0  0  0  0
   41.0450   24.3940   33.2950 H   0  0  0  0  0  0  0  0  0  0  0  0
   39.7780   22.6840   37.6850 H   0  0  0  0  0  0  0  0  0  0  0  0
   36.8050   27.5290   32.4490 C   0  0  0  0  0  0  0  0  0  0  0  0
   37.0770   28.1870   31.2830 C   0  0  0  0  0  0  0  0  0  0  0  0
   36.7850   29.5080   31.0360 C   0  0  0  0  0  0  0  0  0  0  0  0
   36.1620   30.2370   32.0530 C   0  0  0  0  0  0  0  0  0  0  0  0
   35.8980   29.5470   33.2210 C   0  0  0  0  0  0  0  0  0  0  0  0
   36.2150   28.2580   33.3820 N   0  0  0  0  0  0  0  0  0  0  0  0
   37.5620   27.6570   30.4640 H   0  0  0  0  0  0  0  0  0  0  0  0
   37.0120   30.0080   30.1000 H   0  0  0  0  0  0  0  0  0  0  0  0
   35.9350   31.2540   31.8690 H   0  0  0  0  0  0  0  0  0  0  0  0
   35.8910   30.9580   35.3010 C   0  0  0  0  0  3  0  0  0  0  0  0
   35.2490   30.2420   34.3300 C   0  0  0  0  0  0  0  0  0  0  0  0
   33.8710   30.2170   34.4750 C   0  0  0  0  0  0  0  0  0  0  0  0
   33.2630   29.6770   33.7570 H   0  0  0  0  0  0  0  0  0  0  0  0
   33.1610   30.8380   35.4840 C   0  0  0  0  0  0  0  0  0  0  0  0
   31.8500   30.9200   35.7750 N   0  0  0  0  0  0  0  0  0  0  0  0
   31.7500   31.6740   36.9000 C   0  0  0  0  0  0  0  0  0  0  0  0
   30.8180   31.9450   37.4220 H   0  0  0  0  0  0  0  0  0  0  0  0
   32.9970   32.0570   37.3020 N   0  0  0  0  0  0  0  0  0  0  0  0
   33.8740   31.5420   36.4280 C   0  0  0  0  0  0  0  0  0  0  0  0
   35.2470   31.6030   36.3370 C   0  0  0  0  0  3  0  0  0  0  0  0
   31.0610   30.4800   35.2290 H   0  0  0  0  0  0  0  0  0  0  0  0
   35.9010   22.8240   31.5100 C   0  0  0  0  0  0  0  0  0  0  0  0
   35.0500   22.1760   32.3450 F   0  0  0  0  0  0  0  0  0  0  0  0
   36.6900   21.8270   30.9370 F   0  0  0  0  0  0  0  0  0  0  0  0
   35.1510   23.4540   30.5150 F   0  0  0  0  0  0  0  0  0  0  0  0
  1 12  1  0  0  0  0
  2  1  1  0  0  0  0
  2  9  1  0  0  0  0
  3  2  2  0  0  0  0
  4  6  1  0  0  0  0
  4  3  1  0  0  0  0
  5  4  2  0  0  0  0
  6  7  1  0  0  0  0
  7  8  2  0  0  0  0
  7  1  1  0  0  0  0
 10 15  1  0  0  0  0
 11 12  1  0  0  0  0
 11 10  2  0  0  0  0
 12 13  2  0  0  0  0
 13 14  1  0  0  0  0
 14 18  1  0  0  0  0
 15 14  2  0  0  0  0
 16 10  1  0  0  0  0
 17 11  1  0  0  0  0
 19  3  1  0  0  0  0
 19 24  1  0  0  0  0
 20 19  2  0  0  0  0
 21 20  1  0  0  0  0
 21 22  2  0  0  0  0
 22 23  1  0  0  0  0
 23 24  2  0  0  0  0
 23 29  1  0  0  0  0
 25 20  1  0  0  0  0
 26 21  1  0  0  0  0
 27 22  1  0  0  0  0
 28 38  1  0  0  0  0
 29 30  1  0  0  0  0
 29 28  2  0  0  0  0
 30 32  2  0  0  0  0
 31 30  1  0  0  0  0
 32 33  1  0  0  0  0
 32 37  1  0  0  0  0
 33 34  1  0  0  0  0
 34 36  2  0  0  0  0
 34 35  1  0  0  0  0
 37 36  1  0  0  0  0
 38 37  2  0  0  0  0
 39 33  1  0  0  0  0
 40  6  1  0  0  0  0
 40 41  1  0  0  0  0
 42 40  1  0  0  0  0
 43 40  1  0  0  0  0
M  END
>  <minimizedAffinity>
-7.21158695

$$$$

 OpenBabel03272505333D

 43 47  0  0  0  0  0  0  0  0999 V2000
   37.2820   23.3510   32.8840 N   0  0  0  0  0  0  0  0  0  0  0  0
   36.9360   24.6060   32.4890 C   0  0  0  0  0  0  0  0  0  0  0  0
   37.3250   25.7340   33.2060 C   0  0  0  0  0  0  0  0  0  0  0  0
   38.0890   25.5290   34.3490 C   0  0  0  0  0  0  0  0  0  0  0  0
   38.4640   26.5190   35.0280 O   0  0  0  0  0  0  0  0  0  0  0  0
   38.4360   24.2610   34.7450 N   0  0  0  0  0  0  0  0  0  0  0  0
   38.0050   23.2690   33.9790 C   0  0  0  0  0  0  0  0  0  0  0  0
   38.3410   22.1270   34.3710 O   0  0  0  0  0  0  0  0  0  0  0  0
   36.3390   24.7490   31.5940 H   0  0  0  0  0  0  0  0  0  0  0  0
   37.3090   20.5350   30.4540 C   0  0  0  0  0  0  0  0  0  0  0  0
   37.7100   21.6630   31.1870 C   0  0  0  0  0  0  0  0  0  0  0  0
   36.8830   22.2260   32.1550 C   0  0  0  0  0  0  0  0  0  0  0  0
   35.6850   21.6470   32.3620 N   0  0  0  0  0  0  0  0  0  0  0  0
   35.2730   20.5510   31.6640 C   0  0  0  0  0  0  0  0  0  0  0  0
   36.1000   20.0090   30.7130 N   0  0  0  0  0  0  0  0  0  0  0  0
   37.9740   20.1340   29.7210 H   0  0  0  0  0  0  0  0  0  0  0  0
   38.6810   22.0700   30.9650 H   0  0  0  0  0  0  0  0  0  0  0  0
   34.2990   20.1250   31.8710 H   0  0  0  0  0  0  0  0  0  0  0  0
   36.9810   27.0950   32.8250 C   0  0  0  0  0  0  0  0  0  0  0  0
   37.2750   27.6450   31.6100 C   0  0  0  0  0  0  0  0  0  0  0  0
   36.9610   28.9280   31.2280 C   0  0  0  0  0  0  0  0  0  0  0  0
   36.2870   29.7340   32.1500 C   0  0  0  0  0  0  0  0  0  0  0  0
   36.0020   29.1530   33.3710 C   0  0  0  0  0  0  0  0  0  0  0  0
   36.3440   27.8930   33.6650 N   0  0  0  0  0  0  0  0  0  0  0  0
   37.7990   27.0520   30.8600 H   0  0  0  0  0  0  0  0  0  0  0  0
   37.2060   29.3420   30.2550 H   0  0  0  0  0  0  0  0  0  0  0  0
   36.0420   30.7230   31.8620 H   0  0  0  0  0  0  0  0  0  0  0  0
   35.8740   30.8670   35.2050 C   0  0  0  0  0  3  0  0  0  0  0  0
   35.3010   29.9330   34.3880 C   0  0  0  0  0  0  0  0  0  0  0  0
   33.9420   29.7660   34.5990 C   0  0  0  0  0  0  0  0  0  0  0  0
   33.3870   29.0480   34.0030 H   0  0  0  0  0  0  0  0  0  0  0  0
   33.1870   30.4500   35.5320 C   0  0  0  0  0  0  0  0  0  0  0  0
   31.8850   30.4190   35.8690 N   0  0  0  0  0  0  0  0  0  0  0  0
   31.7210   31.3260   36.8660 C   0  0  0  0  0  0  0  0  0  0  0  0
   30.7770   31.5630   37.3820 H   0  0  0  0  0  0  0  0  0  0  0  0
   32.9200   31.9160   37.1440 N   0  0  0  0  0  0  0  0  0  0  0  0
   33.8310   31.3770   36.3210 C   0  0  0  0  0  0  0  0  0  0  0  0
   35.1820   31.5870   36.1560 C   0  0  0  0  0  3  0  0  0  0  0  0
   31.1430   29.8050   35.4350 H   0  0  0  0  0  0  0  0  0  0  0  0
   39.2260   24.0700   35.9310 C   0  0  0  0  0  0  0  0  0  0  0  0
   39.3130   22.7570   36.2600 F   0  0  0  0  0  0  0  0  0  0  0  0
   38.6940   24.7010   37.0560 F   0  0  0  0  0  0  0  0  0  0  0  0
   40.5150   24.5520   35.6920 F   0  0  0  0  0  0  0  0  0  0  0  0
  1  7  1  0  0  0  0
  2  1  1  0  0  0  0
  2  3  2  0  0  0  0
  3  4  1  0  0  0  0
  4  6  1  0  0  0  0
  4  5  2  0  0  0  0
  6 40  1  0  0  0  0
  7  8  2  0  0  0  0
  7  6  1  0  0  0  0
  9  2  1  0  0  0  0
 10 15  2  0  0  0  0
 10 11  1  0  0  0  0
 11 12  2  0  0  0  0
 12 13  1  0  0  0  0
 12  1  1  0  0  0  0
 14 18  1  0  0  0  0
 14 13  2  0  0  0  0
 15 14  1  0  0  0  0
 16 10  1  0  0  0  0
 17 11  1  0  0  0  0
 19  3  1  0  0  0  0
 19 24  1  0  0  0  0
 20 19  2  0  0  0  0
 21 20  1  0  0  0  0
 21 22  2  0  0  0  0
 22 23  1  0  0  0  0
 23 24  2  0  0  0  0
 23 29  1  0  0  0  0
 25 20  1  0  0  0  0
 26 21  1  0  0  0  0
 27 22  1  0  0  0  0
 28 38  1  0  0  0  0
 29 30  1  0  0  0  0
 29 28  2  0  0  0  0
 30 32  2  0  0  0  0
 31 30  1  0  0  0  0
 32 33  1  0  0  0  0
 32 37  1  0  0  0  0
 33 34  1  0  0  0  0
 34 36  2  0  0  0  0
 34 35  1  0  0  0  0
 37 36  1  0  0  0  0
 38 37  2  0  0  0  0
 39 33  1  0  0  0  0
 40 41  1  0  0  0  0
 40 42  1  0  0  0  0
 43 40  1  0  0  0  0
M  END
>  <minimizedAffinity>
-7.20829487

$$$$

 OpenBabel03272505333D

 43 47  0  0  0  0  0  0  0  0999 V2000
   35.4200   30.1910   33.5870 N   0  0  0  0  0  0  0  0  0  0  0  0
   35.6690   28.8540   33.5600 C   0  0  0  0  0  0  0  0  0  0  0  0
   36.2340   28.2340   32.4480 C   0  0  0  0  0  0  0  0  0  0  0  0
   36.5370   29.0420   31.3570 C   0  0  0  0  0  0  0  0  0  0  0  0
   37.0490   28.5260   30.3300 O   0  0  0  0  0  0  0  0  0  0  0  0
   36.2840   30.3900   31.3880 N   0  0  0  0  0  0  0  0  0  0  0  0
   35.7440   30.8600   32.5030 C   0  0  0  0  0  0  0  0  0  0  0  0
   35.5280   32.0940   32.4950 O   0  0  0  0  0  0  0  0  0  0  0  0
   35.4260   28.2370   34.4200 H   0  0  0  0  0  0  0  0  0  0  0  0
   35.0750   31.9770   36.8310 C   0  0  0  0  0  0  0  0  0  0  0  0
   35.6450   31.3680   35.7020 C   0  0  0  0  0  0  0  0  0  0  0  0
   34.8510   30.7990   34.7110 C   0  0  0  0  0  0  0  0  0  0  0  0
   33.5160   30.8550   34.8750 N   0  0  0  0  0  0  0  0  0  0  0  0
   32.9380   31.4410   35.9610 C   0  0  0  0  0  0  0  0  0  0  0  0
   33.7350   31.9980   36.9300 N   0  0  0  0  0  0  0  0  0  0  0  0
   35.7200   32.4030   37.5680 H   0  0  0  0  0  0  0  0  0  0  0  0
   36.7200   31.3610   35.6410 H   0  0  0  0  0  0  0  0  0  0  0  0
   31.8570   31.4590   36.0430 H   0  0  0  0  0  0  0  0  0  0  0  0
   36.5190   26.8110   32.3700 C   0  0  0  0  0  0  0  0  0  0  0  0
   35.8690   25.9460   31.5370 C   0  0  0  0  0  0  0  0  0  0  0  0
   36.1210   24.5970   31.4470 C   0  0  0  0  0  0  0  0  0  0  0  0
   37.1200   24.0670   32.2680 C   0  0  0  0  0  0  0  0  0  0  0  0
   37.7630   24.9640   33.1000 C   0  0  0  0  0  0  0  0  0  0  0  0
   37.4560   26.2660   33.1280 N   0  0  0  0  0  0  0  0  0  0  0  0
   35.0820   26.3160   30.8800 H   0  0  0  0  0  0  0  0  0  0  0  0
   35.5890   23.9310   30.7770 H   0  0  0  0  0  0  0  0  0  0  0  0
   37.3190   23.0290   32.2040 H   0  0  0  0  0  0  0  0  0  0  0  0
   40.1490   24.7720   33.8660 C   0  0  0  0  0  3  0  0  0  0  0  0
   38.8190   24.4840   33.9890 C   0  0  0  0  0  0  0  0  0  0  0  0
   38.5230   23.6650   35.0670 C   0  0  0  0  0  0  0  0  0  0  0  0
   37.4950   23.3740   35.2560 H   0  0  0  0  0  0  0  0  0  0  0  0
   39.4430   23.1590   35.9630 C   0  0  0  0  0  0  0  0  0  0  0  0
   39.3390   22.3660   37.0450 N   0  0  0  0  0  0  0  0  0  0  0  0
   40.5970   22.2060   37.5310 C   0  0  0  0  0  0  0  0  0  0  0  0
   40.8840   21.6140   38.4150 H   0  0  0  0  0  0  0  0  0  0  0  0
   41.4760   22.8990   36.7500 N   0  0  0  0  0  0  0  0  0  0  0  0
   40.7670   23.4910   35.7780 C   0  0  0  0  0  0  0  0  0  0  0  0
   41.1220   24.3020   34.7240 C   0  0  0  0  0  3  0  0  0  0  0  0
   38.4470   21.9530   37.4320 H   0  0  0  0  0  0  0  0  0  0  0  0
   36.6050   31.2070   30.2490 C   0  0  0  0  0  0  0  0  0  0  0  0
   35.5940   32.0630   29.9550 F   0  0  0  0  0  0  0  0  0  0  0  0
   36.8180   30.4700   29.0840 F   0  0  0  0  0  0  0  0  0  0  0  0
   37.7460   31.9560   30.5430 F   0  0  0  0  0  0  0  0  0  0  0  0
  1 12  1  0  0  0  0
  2  1  1  0  0  0  0
  2  9  1  0  0  0  0
  3  2  2  0  0  0  0
  4  6  1  0  0  0  0
  4  3  1  0  0  0  0
  5  4  2  0  0  0  0
  6  7  1  0  0  0  0
  7  1  1  0  0  0  0
  8  7  2  0  0  0  0
 10 15  1  0  0  0  0
 10 16  1  0  0  0  0
 11 10  2  0  0  0  0
 12 13  2  0  0  0  0
 12 11  1  0  0  0  0
 13 14  1  0  0  0  0
 14 18  1  0  0  0  0
 14 15  2  0  0  0  0
 17 11  1  0  0  0  0
 19  3  1  0  0  0  0
 19 24  1  0  0  0  0
 20 19  2  0  0  0  0
 21 20  1  0  0  0  0
 21 22  2  0  0  0  0
 22 23  1  0  0  0  0
 23 24  2  0  0  0  0
 23 29  1  0  0  0  0
 25 20  1  0  0  0  0
 26 21  1  0  0  0  0
 27 22  1  0  0  0  0
 28 29  2  0  0  0  0
 28 38  1  0  0  0  0
 29 30  1  0  0  0  0
 30 31  1  0  0  0  0
 30 32  2  0  0  0  0
 32 33  1  0  0  0  0
 33 39  1  0  0  0  0
 33 34  1  0  0  0  0
 34 35  1  0  0  0  0
 36 34  2  0  0  0  0
 37 32  1  0  0  0  0
 37 36  1  0  0  0  0
 38 37  2  0  0  0  0
 40 43  1  0  0  0  0
 40  6  1  0  0  0  0
 41 40  1  0  0  0  0
 42 40  1  0  0  0  0
M  END
>  <minimizedAffinity>
-6.98543882

$$$$

 OpenBabel03272505333D

 43 47  0  0  0  0  0  0  0  0999 V2000
   38.2770   23.5790   34.2910 N   0  0  0  0  0  0  0  0  0  0  0  0
   38.1690   24.8650   33.8620 C   0  0  0  0  0  0  0  0  0  0  0  0
   37.3920   25.2090   32.7590 C   0  0  0  0  0  0  0  0  0  0  0  0
   36.7240   24.1790   32.1070 C   0  0  0  0  0  0  0  0  0  0  0  0
   36.0100   24.4420   31.1050 O   0  0  0  0  0  0  0  0  0  0  0  0
   36.8360   22.8820   32.5410 N   0  0  0  0  0  0  0  0  0  0  0  0
   37.6050   22.6830   33.6020 C   0  0  0  0  0  0  0  0  0  0  0  0
   37.6820   21.4880   33.9700 O   0  0  0  0  0  0  0  0  0  0  0  0
   38.6980   25.6580   34.3820 H   0  0  0  0  0  0  0  0  0  0  0  0
   41.1730   22.5080   36.3640 C   0  0  0  0  0  0  0  0  0  0  0  0
   40.3840   22.8410   35.2520 C   0  0  0  0  0  0  0  0  0  0  0  0
   39.0620   23.2480   35.3990 C   0  0  0  0  0  0  0  0  0  0  0  0
   38.5670   23.3110   36.6510 N   0  0  0  0  0  0  0  0  0  0  0  0
   39.3110   22.9930   37.7470 C   0  0  0  0  0  0  0  0  0  0  0  0
   40.6140   22.5940   37.5840 N   0  0  0  0  0  0  0  0  0  0  0  0
   42.1830   22.2010   36.2070 H   0  0  0  0  0  0  0  0  0  0  0  0
   40.8490   22.7670   34.2840 H   0  0  0  0  0  0  0  0  0  0  0  0
   38.8640   23.0610   38.7310 H   0  0  0  0  0  0  0  0  0  0  0  0
   37.2450   26.5680   32.2630 C   0  0  0  0  0  0  0  0  0  0  0  0
   38.0300   27.1140   31.2870 C   0  0  0  0  0  0  0  0  0  0  0  0
   37.9090   28.3950   30.8030 C   0  0  0  0  0  0  0  0  0  0  0  0
   36.9080   29.2040   31.3470 C   0  0  0  0  0  0  0  0  0  0  0  0
   36.1290   28.6270   32.3310 C   0  0  0  0  0  0  0  0  0  0  0  0
   36.3110   27.3690   32.7480 N   0  0  0  0  0  0  0  0  0  0  0  0
   38.8230   26.5190   30.8350 H   0  0  0  0  0  0  0  0  0  0  0  0
   38.5470   28.8050   30.0260 H   0  0  0  0  0  0  0  0  0  0  0  0
   36.8100   30.1920   30.9780 H   0  0  0  0  0  0  0  0  0  0  0  0
   35.2100   30.2440   34.0220 C   0  0  0  0  0  3  0  0  0  0  0  0
   35.0610   29.4110   32.9490 C   0  0  0  0  0  0  0  0  0  0  0  0
   33.7660   29.3550   32.4610 C   0  0  0  0  0  0  0  0  0  0  0  0
   33.5370   28.7230   31.6090 H   0  0  0  0  0  0  0  0  0  0  0  0
   32.6880   30.0530   32.9710 C   0  0  0  0  0  0  0  0  0  0  0  0
   31.3880   30.1200   32.6320 N   0  0  0  0  0  0  0  0  0  0  0  0
   30.8050   30.9820   33.5050 C   0  0  0  0  0  0  0  0  0  0  0  0
   29.7430   31.2750   33.5190 H   0  0  0  0  0  0  0  0  0  0  0  0
   31.7440   31.4470   34.3790 N   0  0  0  0  0  0  0  0  0  0  0  0
   32.9120   30.8740   34.0540 C   0  0  0  0  0  0  0  0  0  0  0  0
   34.1790   30.9710   34.5820 C   0  0  0  0  0  3  0  0  0  0  0  0
   30.9220   29.5990   31.8410 H   0  0  0  0  0  0  0  0  0  0  0  0
   36.1360   21.8310   31.8520 C   0  0  0  0  0  0  0  0  0  0  0  0
   36.9960   20.8960   31.3770 F   0  0  0  0  0  0  0  0  0  0  0  0
   35.4230   22.2800   30.7400 F   0  0  0  0  0  0  0  0  0  0  0  0
   35.2620   21.2140   32.7490 F   0  0  0  0  0  0  0  0  0  0  0  0
  1 12  1  0  0  0  0
  2  1  1  0  0  0  0
  2  9  1  0  0  0  0
  3  2  2  0  0  0  0
  4  6  1  0  0  0  0
  4  3  1  0  0  0  0
  5  4  2  0  0  0  0
  6  7  1  0  0  0  0
  7  8  2  0  0  0  0
  7  1  1  0  0  0  0
 10 15  1  0  0  0  0
 11 12  1  0  0  0  0
 11 10  2  0  0  0  0
 12 13  2  0  0  0  0
 13 14  1  0  0  0  0
 14 18  1  0  0  0  0
 15 14  2  0  0  0  0
 16 10  1  0  0  0  0
 17 11  1  0  0  0  0
 19 24  1  0  0  0  0
 19  3  1  0  0  0  0
 20 19  2  0  0  0  0
 21 20  1  0  0  0  0
 21 22  2  0  0  0  0
 22 23  1  0  0  0  0
 23 24  2  0  0  0  0
 23 29  1  0  0  0  0
 25 20  1  0  0  0  0
 26 21  1  0  0  0  0
 27 22  1  0  0  0  0
 28 38  1  0  0  0  0
 29 28  2  0  0  0  0
 30 29  1  0  0  0  0
 30 32  2  0  0  0  0
 31 30  1  0  0  0  0
 32 37  1  0  0  0  0
 33 32  1  0  0  0  0
 33 34  1  0  0  0  0
 34 35  1  0  0  0  0
 34 36  2  0  0  0  0
 37 36  1  0  0  0  0
 37 38  2  0  0  0  0
 39 33  1  0  0  0  0
 40  6  1  0  0  0  0
 40 43  1  0  0  0  0
 41 40  1  0  0  0  0
 42 40  1  0  0  0  0
M  END
>  <minimizedAffinity>
-6.96781826

$$$$

 OpenBabel03272505333D

 43 47  0  0  0  0  0  0  0  0999 V2000
   35.9280   29.3180   33.9070 N   0  0  0  0  0  0  0  0  0  0  0  0
   36.4870   28.1420   34.2990 C   0  0  0  0  0  0  0  0  0  0  0  0
   37.2120   27.3440   33.4180 C   0  0  0  0  0  0  0  0  0  0  0  0
   37.3460   27.8000   32.1120 C   0  0  0  0  0  0  0  0  0  0  0  0
   37.9930   27.1120   31.2810 O   0  0  0  0  0  0  0  0  0  0  0  0
   36.7800   28.9860   31.7190 N   0  0  0  0  0  0  0  0  0  0  0  0
   36.1140   29.6550   32.6500 C   0  0  0  0  0  0  0  0  0  0  0  0
   35.6130   30.7330   32.2560 O   0  0  0  0  0  0  0  0  0  0  0  0
   36.3730   27.8000   35.3230 H   0  0  0  0  0  0  0  0  0  0  0  0
   35.1040   31.8370   36.5160 C   0  0  0  0  0  0  0  0  0  0  0  0
   35.8330   31.0440   35.6170 C   0  0  0  0  0  0  0  0  0  0  0  0
   35.2010   30.1090   34.8020 C   0  0  0  0  0  0  0  0  0  0  0  0
   33.8640   29.9940   34.9110 N   0  0  0  0  0  0  0  0  0  0  0  0
   33.1330   30.7520   35.7760 C   0  0  0  0  0  0  0  0  0  0  0  0
   33.7720   31.6700   36.5720 N   0  0  0  0  0  0  0  0  0  0  0  0
   35.6280   32.5430   37.1220 H   0  0  0  0  0  0  0  0  0  0  0  0
   36.8990   31.1930   35.5870 H   0  0  0  0  0  0  0  0  0  0  0  0
   32.0590   30.6190   35.8230 H   0  0  0  0  0  0  0  0  0  0  0  0
   37.8280   26.0800   33.7890 C   0  0  0  0  0  0  0  0  0  0  0  0
   38.8410   25.9620   34.6980 C   0  0  0  0  0  0  0  0  0  0  0  0
   39.4390   24.7790   35.0640 C   0  0  0  0  0  0  0  0  0  0  0  0
   38.9780   23.6050   34.4630 C   0  0  0  0  0  0  0  0  0  0  0  0
   37.9530   23.7530   33.5470 C   0  0  0  0  0  0  0  0  0  0  0  0
   37.4250   24.9440   33.2460 N   0  0  0  0  0  0  0  0  0  0  0  0
   39.2310   26.8520   35.1920 H   0  0  0  0  0  0  0  0  0  0  0  0
   40.2430   24.7120   35.7900 H   0  0  0  0  0  0  0  0  0  0  0  0
   39.4340   22.6910   34.7390 H   0  0  0  0  0  0  0  0  0  0  0  0
   37.5470   22.2890   31.5440 C   0  0  0  0  0  3  0  0  0  0  0  0
   37.4180   22.5700   32.8750 C   0  0  0  0  0  0  0  0  0  0  0  0
   36.7100   21.6110   33.5820 C   0  0  0  0  0  0  0  0  0  0  0  0
   36.5490   21.7360   34.6480 H   0  0  0  0  0  0  0  0  0  0  0  0
   36.1650   20.4620   33.0440 C   0  0  0  0  0  0  0  0  0  0  0  0
   35.4620   19.4410   33.5680 N   0  0  0  0  0  0  0  0  0  0  0  0
   35.1940   18.5900   32.5440 C   0  0  0  0  0  0  0  0  0  0  0  0
   34.6340   17.6440   32.6130 H   0  0  0  0  0  0  0  0  0  0  0  0
   35.7320   19.0850   31.3910 N   0  0  0  0  0  0  0  0  0  0  0  0
   36.3330   20.2440   31.6950 C   0  0  0  0  0  0  0  0  0  0  0  0
   37.0290   21.1620   30.9410 C   0  0  0  0  0  3  0  0  0  0  0  0
   35.1780   19.3330   34.5790 H   0  0  0  0  0  0  0  0  0  0  0  0
   36.9300   29.4400   30.3630 C   0  0  0  0  0  0  0  0  0  0  0  0
   38.1970   29.8600   30.1210 F   0  0  0  0  0  0  0  0  0  0  0  0
   36.1130   30.5260   30.0510 F   0  0  0  0  0  0  0  0  0  0  0  0
   36.6440   28.3790   29.5020 F   0  0  0  0  0  0  0  0  0  0  0  0
  1  2  1  0  0  0  0
  1 12  1  0  0  0  0
  2  9  1  0  0  0  0
  3 19  1  0  0  0  0
  3  2  2  0  0  0  0
  4  3  1  0  0  0  0
  5  4  2  0  0  0  0
  6  4  1  0  0  0  0
  6  7  1  0  0  0  0
  7  1  1  0  0  0  0
  8  7  2  0  0  0  0
 10 15  1  0  0  0  0
 10 16  1  0  0  0  0
 11 10  2  0  0  0  0
 12 13  2  0  0  0  0
 12 11  1  0  0  0  0
 13 14  1  0  0  0  0
 14 18  1  0  0  0  0
 14 15  2  0  0  0  0
 17 11  1  0  0  0  0
 19 20  1  0  0  0  0
 20 21  2  0  0  0  0
 20 25  1  0  0  0  0
 21 26  1  0  0  0  0
 22 27  1  0  0  0  0
 22 21  1  0  0  0  0
 23 22  2  0  0  0  0
 24 23  1  0  0  0  0
 24 19  2  0  0  0  0
 28 29  1  0  0  0  0
 29 23  1  0  0  0  0
 29 30  2  0  0  0  0
 30 31  1  0  0  0  0
 32 33  1  0  0  0  0
 32 30  1  0  0  0  0
 33 39  1  0  0  0  0
 34 35  1  0  0  0  0
 34 33  1  0  0  0  0
 36 37  1  0  0  0  0
 36 34  2  0  0  0  0
 37 32  2  0  0  0  0
 38 28  2  0  0  0  0
 38 37  1  0  0  0  0
 40  6  1  0  0  0  0
 41 40  1  0  0  0  0
 42 40  1  0  0  0  0
 43 40  1  0  0  0  0
M  END
>  <minimizedAffinity>
-6.96493673

$$$$

 OpenBabel03272505333D

 43 47  0  0  0  0  0  0  0  0999 V2000
   36.8980   27.7860   33.5650 N   0  0  0  0  0  0  0  0  0  0  0  0
   37.1230   26.9150   34.5850 C   0  0  0  0  0  0  0  0  0  0  0  0
   38.1810   26.0100   34.5590 C   0  0  0  0  0  0  0  0  0  0  0  0
   39.0070   26.0320   33.4410 C   0  0  0  0  0  0  0  0  0  0  0  0
   39.9760   25.2320   33.3730 O   0  0  0  0  0  0  0  0  0  0  0  0
   38.7760   26.9110   32.4130 N   0  0  0  0  0  0  0  0  0  0  0  0
   37.7380   27.7210   32.5550 C   0  0  0  0  0  0  0  0  0  0  0  0
   37.5590   28.5100   31.5980 O   0  0  0  0  0  0  0  0  0  0  0  0
   36.4680   26.9120   35.4520 H   0  0  0  0  0  0  0  0  0  0  0  0
   34.7100   30.6110   34.5950 C   0  0  0  0  0  0  0  0  0  0  0  0
   35.7810   29.7060   34.5530 C   0  0  0  0  0  0  0  0  0  0  0  0
   35.8310   28.6880   33.6050 C   0  0  0  0  0  0  0  0  0  0  0  0
   34.8120   28.6060   32.7280 N   0  0  0  0  0  0  0  0  0  0  0  0
   33.7600   29.4730   32.7470 C   0  0  0  0  0  0  0  0  0  0  0  0
   33.7270   30.4710   33.6890 N   0  0  0  0  0  0  0  0  0  0  0  0
   34.7110   31.3780   35.3380 H   0  0  0  0  0  0  0  0  0  0  0  0
   36.5590   29.8350   35.2860 H   0  0  0  0  0  0  0  0  0  0  0  0
   32.9660   29.3610   32.0180 H   0  0  0  0  0  0  0  0  0  0  0  0
   38.4630   25.0610   35.6240 C   0  0  0  0  0  0  0  0  0  0  0  0
   37.6430   24.8510   36.6950 C   0  0  0  0  0  0  0  0  0  0  0  0
   37.8890   23.9600   37.7140 C   0  0  0  0  0  0  0  0  0  0  0  0
   39.0670   23.2100   37.6510 C   0  0  0  0  0  0  0  0  0  0  0  0
   39.8780   23.4430   36.5560 C   0  0  0  0  0  0  0  0  0  0  0  0
   39.5650   24.3300   35.6060 N   0  0  0  0  0  0  0  0  0  0  0  0
   36.7140   25.4140   36.7850 H   0  0  0  0  0  0  0  0  0  0  0  0
   37.2210   23.8110   38.5550 H   0  0  0  0  0  0  0  0  0  0  0  0
   39.2620   22.5220   38.4320 H   0  0  0  0  0  0  0  0  0  0  0  0
   42.2120   23.0950   35.6920 C   0  0  0  0  0  3  0  0  0  0  0  0
   41.1270   22.6970   36.4210 C   0  0  0  0  0  0  0  0  0  0  0  0
   41.2980   21.4770   37.0540 C   0  0  0  0  0  0  0  0  0  0  0  0
   40.4970   21.0670   37.6600 H   0  0  0  0  0  0  0  0  0  0  0  0
   42.4350   20.6950   36.9910 C   0  0  0  0  0  0  0  0  0  0  0  0
   42.7720   19.5090   37.5300 N   0  0  0  0  0  0  0  0  0  0  0  0
   44.0350   19.2380   37.1100 C   0  0  0  0  0  0  0  0  0  0  0  0
   44.6270   18.3430   37.3630 H   0  0  0  0  0  0  0  0  0  0  0  0
   44.4770   20.2550   36.3150 N   0  0  0  0  0  0  0  0  0  0  0  0
   43.4900   21.1600   36.2370 C   0  0  0  0  0  0  0  0  0  0  0  0
   43.3780   22.3670   35.5840 C   0  0  0  0  0  3  0  0  0  0  0  0
   42.1640   18.9130   38.1550 H   0  0  0  0  0  0  0  0  0  0  0  0
   39.6430   26.9160   31.2640 C   0  0  0  0  0  0  0  0  0  0  0  0
   40.9480   26.8790   31.6310 F   0  0  0  0  0  0  0  0  0  0  0  0
   39.5100   28.0610   30.4790 F   0  0  0  0  0  0  0  0  0  0  0  0
   39.3680   25.7860   30.4920 F   0  0  0  0  0  0  0  0  0  0  0  0
  1 12  1  0  0  0  0
  1  2  1  0  0  0  0
  2  9  1  0  0  0  0
  3  2  2  0  0  0  0
  3 19  1  0  0  0  0
  4  3  1  0  0  0  0
  5  4  2  0  0  0  0
  6  7  1  0  0  0  0
  6  4  1  0  0  0  0
  7  1  1  0  0  0  0
  8  7  2  0  0  0  0
 10 16  1  0  0  0  0
 11 10  1  0  0  0  0
 11 17  1  0  0  0  0
 12 11  2  0  0  0  0
 13 14  2  0  0  0  0
 13 12  1  0  0  0  0
 14 15  1  0  0  0  0
 15 10  2  0  0  0  0
 18 14  1  0  0  0  0
 19 20  1  0  0  0  0
 20 25  1  0  0  0  0
 20 21  2  0  0  0  0
 21 26  1  0  0  0  0
 22 21  1  0  0  0  0
 22 27  1  0  0  0  0
 23 22  2  0  0  0  0
 24 19  2  0  0  0  0
 24 23  1  0  0  0  0
 28 29  1  0  0  0  0
 29 23  1  0  0  0  0
 29 30  2  0  0  0  0
 30 31  1  0  0  0  0
 32 30  1  0  0  0  0
 32 33  1  0  0  0  0
 33 39  1  0  0  0  0
 34 35  1  0  0  0  0
 34 33  1  0  0  0  0
 36 34  2  0  0  0  0
 37 36  1  0  0  0  0
 37 32  2  0  0  0  0
 38 28  2  0  0  0  0
 38 37  1  0  0  0  0
 40 41  1  0  0  0  0
 40  6  1  0  0  0  0
 42 40  1  0  0  0  0
 43 40  1  0  0  0  0
M  END
>  <minimizedAffinity>
-6.94366264

$$$$

 OpenBabel03272505333D

 43 47  0  0  0  0  0  0  0  0999 V2000
   38.0640   23.5140   34.4060 N   0  0  0  0  0  0  0  0  0  0  0  0
   38.1620   24.7340   33.8130 C   0  0  0  0  0  0  0  0  0  0  0  0
   37.5570   25.0070   32.5890 C   0  0  0  0  0  0  0  0  0  0  0  0
   36.8400   23.9760   31.9920 C   0  0  0  0  0  0  0  0  0  0  0  0
   36.2760   24.1760   30.8860 O   0  0  0  0  0  0  0  0  0  0  0  0
   36.7440   22.7460   32.5920 N   0  0  0  0  0  0  0  0  0  0  0  0
   37.3650   22.6110   33.7550 C   0  0  0  0  0  0  0  0  0  0  0  0
   37.2550   21.4750   34.2740 O   0  0  0  0  0  0  0  0  0  0  0  0
   38.7260   25.5280   34.2930 H   0  0  0  0  0  0  0  0  0  0  0  0
   38.7130   23.3960   38.0660 C   0  0  0  0  0  0  0  0  0  0  0  0
   38.0960   23.6560   36.8330 C   0  0  0  0  0  0  0  0  0  0  0  0
   38.6790   23.2540   35.6350 C   0  0  0  0  0  0  0  0  0  0  0  0
   39.8580   22.6060   35.7040 N   0  0  0  0  0  0  0  0  0  0  0  0
   40.4770   22.3420   36.8890 C   0  0  0  0  0  0  0  0  0  0  0  0
   39.8890   22.7450   38.0610 N   0  0  0  0  0  0  0  0  0  0  0  0
   38.2310   23.7210   38.9620 H   0  0  0  0  0  0  0  0  0  0  0  0
   37.1550   24.1780   36.8570 H   0  0  0  0  0  0  0  0  0  0  0  0
   41.4260   21.8170   36.8880 H   0  0  0  0  0  0  0  0  0  0  0  0
   37.6320   26.2940   31.9170 C   0  0  0  0  0  0  0  0  0  0  0  0
   38.6750   26.6810   31.1250 C   0  0  0  0  0  0  0  0  0  0  0  0
   38.7680   27.8920   30.4800 C   0  0  0  0  0  0  0  0  0  0  0  0
   37.7160   28.7980   30.6420 C   0  0  0  0  0  0  0  0  0  0  0  0
   36.6730   28.3800   31.4470 C   0  0  0  0  0  0  0  0  0  0  0  0
   36.6600   27.1810   32.0410 N   0  0  0  0  0  0  0  0  0  0  0  0
   39.5170   26.0070   30.9710 H   0  0  0  0  0  0  0  0  0  0  0  0
   39.6100   28.1770   29.8560 H   0  0  0  0  0  0  0  0  0  0  0  0
   37.7820   29.7320   30.1480 H   0  0  0  0  0  0  0  0  0  0  0  0
   35.3690   30.4970   31.0850 C   0  0  0  0  0  3  0  0  0  0  0  0
   35.5370   29.2720   31.6650 C   0  0  0  0  0  0  0  0  0  0  0  0
   34.5060   28.9130   32.5190 C   0  0  0  0  0  0  0  0  0  0  0  0
   34.5400   27.9580   33.0340 H   0  0  0  0  0  0  0  0  0  0  0  0
   33.3920   29.6810   32.7940 C   0  0  0  0  0  0  0  0  0  0  0  0
   32.3140   29.4970   33.5790 N   0  0  0  0  0  0  0  0  0  0  0  0
   31.5430   30.6070   33.4440 C   0  0  0  0  0  0  0  0  0  0  0  0
   30.5810   30.7960   33.9460 H   0  0  0  0  0  0  0  0  0  0  0  0
   32.1440   31.4730   32.5780 N   0  0  0  0  0  0  0  0  0  0  0  0
   33.2880   30.9050   32.1720 C   0  0  0  0  0  0  0  0  0  0  0  0
   34.2820   31.3160   31.3130 C   0  0  0  0  0  3  0  0  0  0  0  0
   32.1170   28.6500   34.1780 H   0  0  0  0  0  0  0  0  0  0  0  0
   35.9990   21.6930   31.9570 C   0  0  0  0  0  0  0  0  0  0  0  0
   36.7550   20.5780   31.8010 F   0  0  0  0  0  0  0  0  0  0  0  0
   35.5580   22.0250   30.6750 F   0  0  0  0  0  0  0  0  0  0  0  0
   34.9020   21.3750   32.7590 F   0  0  0  0  0  0  0  0  0  0  0  0
  1 12  1  0  0  0  0
  2  9  1  0  0  0  0
  2  1  1  0  0  0  0
  3  2  2  0  0  0  0
  4  3  1  0  0  0  0
  4  6  1  0  0  0  0
  5  4  2  0  0  0  0
  6  7  1  0  0  0  0
  7  8  2  0  0  0  0
  7  1  1  0  0  0  0
 10 16  1  0  0  0  0
 11 17  1  0  0  0  0
 11 10  2  0  0  0  0
 12 13  2  0  0  0  0
 12 11  1  0  0  0  0
 13 14  1  0  0  0  0
 14 15  2  0  0  0  0
 15 10  1  0  0  0  0
 18 14  1  0  0  0  0
 19 24  1  0  0  0  0
 19  3  1  0  0  0  0
 20 19  2  0  0  0  0
 21 22  2  0  0  0  0
 21 20  1  0  0  0  0
 22 23  1  0  0  0  0
 23 29  1  0  0  0  0
 23 24  2  0  0  0  0
 25 20  1  0  0  0  0
 26 21  1  0  0  0  0
 27 22  1  0  0  0  0
 28 38  2  0  0  0  0
 28 29  1  0  0  0  0
 29 30  2  0  0  0  0
 30 32  1  0  0  0  0
 30 31  1  0  0  0  0
 32 33  1  0  0  0  0
 33 39  1  0  0  0  0
 34 33  1  0  0  0  0
 34 35  1  0  0  0  0
 36 34  2  0  0  0  0
 37 36  1  0  0  0  0
 37 32  2  0  0  0  0
 38 37  1  0  0  0  0
 40  6  1  0  0  0  0
 40 43  1  0  0  0  0
 41 40  1  0  0  0  0
 42 40  1  0  0  0  0
M  END
>  <minimizedAffinity>
-6.89930344

$$$$
