
 OpenBabel03272508483D

 43 48  0  0  0  0  0  0  0  0999 V2000
   34.2160   29.3410   49.8760 C   0  0  0  0  0  0  0  0  0  0  0  0
   33.6340   29.6720   50.9240 O   0  0  0  0  0  0  0  0  0  0  0  0
   31.7670   27.2200   48.2160 C   0  0  0  0  0  0  0  0  0  0  0  0
   32.2940   27.0690   46.9370 C   0  0  0  0  0  0  0  0  0  0  0  0
   33.4790   27.6850   46.6290 C   0  0  0  0  0  0  0  0  0  0  0  0
   34.0890   28.4130   47.5790 N   0  0  0  0  0  0  0  0  0  0  0  0
   33.5630   28.5540   48.8330 C   0  0  0  0  0  0  0  0  0  0  0  0
   32.4070   27.9500   49.1260 N   0  0  0  0  0  0  0  0  0  0  0  0
   30.8280   26.7310   48.4590 H   0  0  0  0  0  0  0  0  0  0  0  0
   31.7950   26.4880   46.1970 H   0  0  0  0  0  0  0  0  0  0  0  0
   34.6400   28.7680   44.7860 C   0  0  0  0  0  0  0  0  0  0  0  0
   34.1310   27.6030   45.3260 C   0  0  0  0  0  0  0  0  0  0  0  0
   34.2670   26.4330   44.6080 C   0  0  0  0  0  0  0  0  0  0  0  0
   33.8740   25.5150   45.0180 H   0  0  0  0  0  0  0  0  0  0  0  0
   34.8990   26.4480   43.3820 C   0  0  0  0  0  0  0  0  0  0  0  0
   35.1480   25.4530   42.5110 N   0  0  0  0  0  0  0  0  0  0  0  0
   35.7940   25.9260   41.4340 C   0  0  0  0  0  0  0  0  0  0  0  0
   36.1940   25.5430   40.5060 H   0  0  0  0  0  0  0  0  0  0  0  0
   35.9570   27.2420   41.6270 N   0  0  0  0  0  0  0  0  0  0  0  0
   35.4150   27.6010   42.8220 C   0  0  0  0  0  0  0  0  0  0  0  0
   35.2820   28.7880   43.5420 C   0  0  0  0  0  0  0  0  0  0  0  0
   34.9230   24.4350   42.5530 H   0  0  0  0  0  0  0  0  0  0  0  0
   35.6070   29.7680   49.6960 C   0  0  0  0  0  0  0  0  0  0  0  0
   36.5810   29.6630   50.6750 C   0  0  0  0  0  0  0  0  0  0  0  0
   37.7100   30.1840   50.0490 C   0  0  0  0  0  0  0  0  0  0  0  0
   37.3890   30.5680   48.7720 C   0  0  0  0  0  0  0  0  0  0  0  0
   36.1070   30.3000   48.5940 O   0  0  0  0  0  0  0  0  0  0  0  0
   36.5170   29.2840   51.6670 H   0  0  0  0  0  0  0  0  0  0  0  0
   38.7010   30.2780   50.4940 H   0  0  0  0  0  0  0  0  0  0  0  0
   38.7630   32.4350   47.9820 C   0  0  0  0  0  0  0  0  0  0  0  0
   38.2720   31.1610   47.7740 C   0  0  0  0  0  0  0  0  0  0  0  0
   38.5960   30.4360   46.6470 C   0  0  0  0  0  0  0  0  0  0  0  0
   39.4380   30.9750   45.6740 C   0  0  0  0  0  0  0  0  0  0  0  0
   39.9250   30.5340   44.5030 N   0  0  0  0  0  0  0  0  0  0  0  0
   40.6910   31.5120   44.0110 N   0  0  0  0  0  0  0  0  0  0  0  0
   40.6900   32.5670   44.8660 C   0  0  0  0  0  0  0  0  0  0  0  0
   39.8940   32.2490   45.9410 C   0  0  0  0  0  0  0  0  0  0  0  0
   39.6120   33.0230   47.0370 C   0  0  0  0  0  0  0  0  0  0  0  0
   38.4950   32.9790   48.8690 H   0  0  0  0  0  0  0  0  0  0  0  0
   38.2000   29.4310   46.4950 H   0  0  0  0  0  0  0  0  0  0  0  0
   39.7180   29.5890   44.0860 H   0  0  0  0  0  0  0  0  0  0  0  0
   41.2570   33.4580   44.6370 H   0  0  0  0  0  0  0  0  0  0  0  0
   40.0210   34.0130   47.1510 H   0  0  0  0  0  0  0  0  0  0  0  0
  1  2  2  0  0  0  0
  3  9  1  0  0  0  0
  3  8  1  0  0  0  0
  4  3  2  0  0  0  0
  5  4  1  0  0  0  0
  5  6  2  0  0  0  0
  6  7  1  0  0  0  0
  7  8  2  0  0  0  0
  7  1  1  0  0  0  0
 10  4  1  0  0  0  0
 11 12  1  0  0  0  0
 12  5  1  0  0  0  0
 13 14  1  0  0  0  0
 13 12  2  0  0  0  0
 15 13  1  0  0  0  0
 16 22  1  0  0  0  0
 16 15  1  0  0  0  0
 17 19  2  0  0  0  0
 17 16  1  0  0  0  0
 18 17  1  0  0  0  0
 19 20  1  0  0  0  0
 20 15  2  0  0  0  0
 20 21  1  0  0  0  0
 21 11  2  0  0  0  0
 23  1  1  0  0  0  0
 23 24  2  0  0  0  0
 24 28  1  0  0  0  0
 25 29  1  0  0  0  0
 25 24  1  0  0  0  0
 26 25  2  0  0  0  0
 27 26  1  0  0  0  0
 27 23  1  0  0  0  0
 30 39  1  0  0  0  0
 31 30  1  0  0  0  0
 31 26  1  0  0  0  0
 32 31  2  0  0  0  0
 33 37  2  0  0  0  0
 33 32  1  0  0  0  0
 34 33  1  0  0  0  0
 35 34  1  0  0  0  0
 35 36  2  0  0  0  0
 36 37  1  0  0  0  0
 37 38  1  0  0  0  0
 38 43  1  0  0  0  0
 38 30  2  0  0  0  0
 40 32  1  0  0  0  0
 41 34  1  0  0  0  0
 42 36  1  0  0  0  0
M  END
>  <minimizedAffinity>
-6.8202014

>  <minimizedRMSD>
2.00579381

$$$$
