
 OpenBabel03272508073D

 38 42  0  0  0  0  0  0  0  0999 V2000
   37.3030   26.7060   34.1820 C   0  0  0  0  0  0  0  0  0  0  0  0
   37.2500   27.0990   32.8670 C   0  0  0  0  0  0  0  0  0  0  0  0
   36.5670   28.3080   32.7380 C   0  0  0  0  0  0  0  0  0  0  0  0
   36.2310   28.5950   34.0060 N   0  0  0  0  0  0  0  0  0  0  0  0
   36.6540   27.6700   34.8510 N   0  0  0  0  0  0  0  0  0  0  0  0
   37.6760   26.5610   32.0180 H   0  0  0  0  0  0  0  0  0  0  0  0
   36.3340   28.9090   31.8700 H   0  0  0  0  0  0  0  0  0  0  0  0
   37.9300   25.5070   34.7040 C   0  0  0  0  0  0  0  0  0  0  0  0
   37.8400   25.2450   36.0940 C   0  0  0  0  0  0  0  0  0  0  0  0
   38.4510   24.0860   36.5690 C   0  0  0  0  0  0  0  0  0  0  0  0
   39.0930   23.2790   35.6800 N   0  0  0  0  0  0  0  0  0  0  0  0
   39.1670   23.5500   34.3520 C   0  0  0  0  0  0  0  0  0  0  0  0
   38.5790   24.6700   33.8790 N   0  0  0  0  0  0  0  0  0  0  0  0
   37.3180   25.9180   36.7570 H   0  0  0  0  0  0  0  0  0  0  0  0
   39.6950   22.8590   33.7090 H   0  0  0  0  0  0  0  0  0  0  0  0
   38.3750   23.7810   38.0220 C   0  0  0  0  0  0  0  0  0  0  0  0
   37.3330   22.8920   38.1630 F   0  0  0  0  0  0  0  0  0  0  0  0
   39.5330   23.2000   38.5090 F   0  0  0  0  0  0  0  0  0  0  0  0
   38.0630   24.9180   38.7660 F   0  0  0  0  0  0  0  0  0  0  0  0
   35.4920   29.7630   34.5020 C   0  0  0  0  0  0  0  0  0  0  0  0
   34.1730   30.0370   34.1090 C   0  0  0  0  0  0  0  0  0  0  0  0
   33.5460   31.1200   34.5920 C   0  0  0  0  0  0  0  0  0  0  0  0
   34.2380   31.9750   35.5000 C   0  0  0  0  0  0  0  0  0  0  0  0
   35.8780   31.1310   35.6340 S   0  0  0  0  0  0  0  0  0  0  0  0
   33.6410   29.3820   33.4130 H   0  0  0  0  0  0  0  0  0  0  0  0
   32.5420   31.4550   34.3810 H   0  0  0  0  0  0  0  0  0  0  0  0
   33.0870   34.0920   35.5320 C   0  0  0  0  0  3  0  0  0  0  0  0
   33.8570   33.1630   36.1670 C   0  0  0  0  0  0  0  0  0  0  0  0
   34.2960   33.3260   37.4630 C   0  0  0  0  0  0  0  0  0  0  0  0
   34.9010   32.6250   38.0000 H   0  0  0  0  0  0  0  0  0  0  0  0
   33.9330   34.4930   38.1450 C   0  0  0  0  0  0  0  0  0  0  0  0
   34.1760   34.9700   39.3830 N   0  0  0  0  0  0  0  0  0  0  0  0
   33.5810   36.1670   39.5390 C   0  0  0  0  0  0  0  0  0  0  0  0
   33.5780   36.8230   40.4120 H   0  0  0  0  0  0  0  0  0  0  0  0
   32.9460   36.4560   38.3720 N   0  0  0  0  0  0  0  0  0  0  0  0
   33.1530   35.4370   37.5040 C   0  0  0  0  0  0  0  0  0  0  0  0
   32.7300   35.2500   36.2150 C   0  0  0  0  0  3  0  0  0  0  0  0
   34.7390   34.4870   40.1140 H   0  0  0  0  0  0  0  0  0  0  0  0
  1  8  1  0  0  0  0
  1  5  2  0  0  0  0
  2  1  1  0  0  0  0
  3  2  2  0  0  0  0
  3  4  1  0  0  0  0
  4 20  1  0  0  0  0
  4  5  1  0  0  0  0
  6  2  1  0  0  0  0
  7  3  1  0  0  0  0
  8  9  1  0  0  0  0
  9 10  2  0  0  0  0
  9 14  1  0  0  0  0
 10 16  1  0  0  0  0
 11 10  1  0  0  0  0
 12 11  2  0  0  0  0
 13 12  1  0  0  0  0
 13  8  2  0  0  0  0
 15 12  1  0  0  0  0
 16 17  1  0  0  0  0
 16 18  1  0  0  0  0
 16 19  1  0  0  0  0
 20 24  1  0  0  0  0
 21 20  2  0  0  0  0
 21 22  1  0  0  0  0
 22 23  2  0  0  0  0
 23 24  1  0  0  0  0
 23 28  1  0  0  0  0
 25 21  1  0  0  0  0
 26 22  1  0  0  0  0
 27 28  2  0  0  0  0
 27 37  1  0  0  0  0
 28 29  1  0  0  0  0
 29 30  1  0  0  0  0
 29 31  2  0  0  0  0
 31 32  1  0  0  0  0
 32 33  1  0  0  0  0
 32 38  1  0  0  0  0
 33 34  1  0  0  0  0
 35 33  2  0  0  0  0
 36 31  1  0  0  0  0
 36 35  1  0  0  0  0
 37 36  2  0  0  0  0
M  END
>  <minimizedAffinity>
-6.9105711

$$$$

 OpenBabel03272508073D

 38 42  0  0  0  0  0  0  0  0999 V2000
   35.6140   29.4600   31.9100 C   0  0  0  0  0  0  0  0  0  0  0  0
   36.4180   29.4970   30.7960 C   0  0  0  0  0  0  0  0  0  0  0  0
   36.7080   28.2080   30.3510 C   0  0  0  0  0  0  0  0  0  0  0  0
   36.0520   27.4360   31.2320 N   0  0  0  0  0  0  0  0  0  0  0  0
   35.4150   28.1550   32.1420 N   0  0  0  0  0  0  0  0  0  0  0  0
   36.7950   30.3970   30.3060 H   0  0  0  0  0  0  0  0  0  0  0  0
   37.2990   27.8550   29.5180 H   0  0  0  0  0  0  0  0  0  0  0  0
   35.1060   30.5980   32.6500 C   0  0  0  0  0  0  0  0  0  0  0  0
   35.5680   30.8060   33.9740 C   0  0  0  0  0  0  0  0  0  0  0  0
   35.0650   31.9080   34.6640 C   0  0  0  0  0  0  0  0  0  0  0  0
   34.1670   32.7140   34.0330 N   0  0  0  0  0  0  0  0  0  0  0  0
   33.7390   32.4960   32.7630 C   0  0  0  0  0  0  0  0  0  0  0  0
   34.2180   31.4320   32.0850 N   0  0  0  0  0  0  0  0  0  0  0  0
   36.2810   30.1360   34.4290 H   0  0  0  0  0  0  0  0  0  0  0  0
   33.0240   33.1830   32.3320 H   0  0  0  0  0  0  0  0  0  0  0  0
   35.5280   32.1550   36.0550 C   0  0  0  0  0  0  0  0  0  0  0  0
   36.6630   31.3920   36.2110 F   0  0  0  0  0  0  0  0  0  0  0  0
   35.8400   33.4830   36.2880 F   0  0  0  0  0  0  0  0  0  0  0  0
   34.5920   31.7140   36.9900 F   0  0  0  0  0  0  0  0  0  0  0  0
   35.9820   25.9700   31.2720 C   0  0  0  0  0  0  0  0  0  0  0  0
   34.8370   25.2630   30.8700 C   0  0  0  0  0  0  0  0  0  0  0  0
   34.8270   23.9240   30.9290 C   0  0  0  0  0  0  0  0  0  0  0  0
   35.9870   23.2410   31.4020 C   0  0  0  0  0  0  0  0  0  0  0  0
   37.1280   24.6500   31.7700 S   0  0  0  0  0  0  0  0  0  0  0  0
   33.9470   25.7860   30.5070 H   0  0  0  0  0  0  0  0  0  0  0  0
   34.0270   23.2530   30.6560 H   0  0  0  0  0  0  0  0  0  0  0  0
   37.5680   21.4290   31.5510 C   0  0  0  0  0  3  0  0  0  0  0  0
   36.2780   21.8670   31.5770 C   0  0  0  0  0  0  0  0  0  0  0  0
   35.2110   21.0170   31.7700 C   0  0  0  0  0  0  0  0  0  0  0  0
   34.1830   21.3170   31.7970 H   0  0  0  0  0  0  0  0  0  0  0  0
   35.4710   19.6540   31.9460 C   0  0  0  0  0  0  0  0  0  0  0  0
   34.6960   18.5690   32.1530 N   0  0  0  0  0  0  0  0  0  0  0  0
   35.4640   17.4690   32.2570 C   0  0  0  0  0  0  0  0  0  0  0  0
   35.1600   16.4340   32.4240 H   0  0  0  0  0  0  0  0  0  0  0  0
   36.7560   17.8650   32.1120 N   0  0  0  0  0  0  0  0  0  0  0  0
   36.7780   19.2050   31.9200 C   0  0  0  0  0  0  0  0  0  0  0  0
   37.8210   20.0720   31.7260 C   0  0  0  0  0  3  0  0  0  0  0  0
   33.6570   18.5780   32.2230 H   0  0  0  0  0  0  0  0  0  0  0  0
  1  5  2  0  0  0  0
  1  8  1  0  0  0  0
  2  1  1  0  0  0  0
  3  2  2  0  0  0  0
  3  4  1  0  0  0  0
  4 20  1  0  0  0  0
  4  5  1  0  0  0  0
  6  2  1  0  0  0  0
  7  3  1  0  0  0  0
  8  9  1  0  0  0  0
  9 14  1  0  0  0  0
  9 10  2  0  0  0  0
 10 16  1  0  0  0  0
 11 10  1  0  0  0  0
 12 11  2  0  0  0  0
 13  8  2  0  0  0  0
 13 12  1  0  0  0  0
 15 12  1  0  0  0  0
 16 17  1  0  0  0  0
 16 18  1  0  0  0  0
 16 19  1  0  0  0  0
 20 24  1  0  0  0  0
 21 22  1  0  0  0  0
 21 20  2  0  0  0  0
 22 23  2  0  0  0  0
 23 28  1  0  0  0  0
 23 24  1  0  0  0  0
 25 21  1  0  0  0  0
 26 22  1  0  0  0  0
 27 28  2  0  0  0  0
 27 37  1  0  0  0  0
 28 29  1  0  0  0  0
 29 30  1  0  0  0  0
 29 31  2  0  0  0  0
 31 32  1  0  0  0  0
 32 38  1  0  0  0  0
 32 33  1  0  0  0  0
 33 34  1  0  0  0  0
 35 33  2  0  0  0  0
 36 31  1  0  0  0  0
 36 35  1  0  0  0  0
 37 36  2  0  0  0  0
M  END
>  <minimizedAffinity>
-6.85051966

$$$$

 OpenBabel03272508073D

 38 42  0  0  0  0  0  0  0  0999 V2000
   36.9040   27.3530   34.0450 C   0  0  0  0  0  0  0  0  0  0  0  0
   36.5660   27.8480   32.8080 C   0  0  0  0  0  0  0  0  0  0  0  0
   35.9040   29.0690   32.9270 C   0  0  0  0  0  0  0  0  0  0  0  0
   35.8710   29.2600   34.2560 N   0  0  0  0  0  0  0  0  0  0  0  0
   36.4480   28.2680   34.9120 N   0  0  0  0  0  0  0  0  0  0  0  0
   36.7740   27.3730   31.8480 H   0  0  0  0  0  0  0  0  0  0  0  0
   35.4980   29.7380   32.1810 H   0  0  0  0  0  0  0  0  0  0  0  0
   37.6000   26.1120   34.3210 C   0  0  0  0  0  0  0  0  0  0  0  0
   37.6130   25.6230   35.6510 C   0  0  0  0  0  0  0  0  0  0  0  0
   38.2890   24.4280   35.8890 C   0  0  0  0  0  0  0  0  0  0  0  0
   38.8920   23.8030   34.8410 N   0  0  0  0  0  0  0  0  0  0  0  0
   38.8660   24.2890   33.5730 C   0  0  0  0  0  0  0  0  0  0  0  0
   38.2150   25.4460   33.3290 N   0  0  0  0  0  0  0  0  0  0  0  0
   37.1200   26.1580   36.4480 H   0  0  0  0  0  0  0  0  0  0  0  0
   39.3680   23.7330   32.7940 H   0  0  0  0  0  0  0  0  0  0  0  0
   38.3230   23.8880   37.2740 C   0  0  0  0  0  0  0  0  0  0  0  0
   38.1170   24.9680   38.1010 F   0  0  0  0  0  0  0  0  0  0  0  0
   37.3360   22.9450   37.5060 F   0  0  0  0  0  0  0  0  0  0  0  0
   39.5740   23.3540   37.5820 F   0  0  0  0  0  0  0  0  0  0  0  0
   35.2950   30.3930   34.9910 C   0  0  0  0  0  0  0  0  0  0  0  0
   36.0860   31.2890   35.7270 C   0  0  0  0  0  0  0  0  0  0  0  0
   35.5070   32.3050   36.3820 C   0  0  0  0  0  0  0  0  0  0  0  0
   34.0910   32.4550   36.3170 C   0  0  0  0  0  0  0  0  0  0  0  0
   33.6110   31.0290   35.2420 S   0  0  0  0  0  0  0  0  0  0  0  0
   37.1740   31.1750   35.7770 H   0  0  0  0  0  0  0  0  0  0  0  0
   35.9840   33.0660   36.9820 H   0  0  0  0  0  0  0  0  0  0  0  0
   33.6900   34.4350   37.6310 C   0  0  0  0  0  3  0  0  0  0  0  0
   33.2060   33.4020   36.8860 C   0  0  0  0  0  0  0  0  0  0  0  0
   31.8600   33.2270   36.6500 C   0  0  0  0  0  0  0  0  0  0  0  0
   31.4350   32.4330   36.0720 H   0  0  0  0  0  0  0  0  0  0  0  0
   30.9630   34.1500   37.2000 C   0  0  0  0  0  0  0  0  0  0  0  0
   29.6210   34.2850   37.1750 N   0  0  0  0  0  0  0  0  0  0  0  0
   29.2560   35.3700   37.8830 C   0  0  0  0  0  0  0  0  0  0  0  0
   28.2540   35.7640   38.0650 H   0  0  0  0  0  0  0  0  0  0  0  0
   30.3930   35.9370   38.3670 N   0  0  0  0  0  0  0  0  0  0  0  0
   31.4510   35.1990   37.9570 C   0  0  0  0  0  0  0  0  0  0  0  0
   32.7950   35.3500   38.1760 C   0  0  0  0  0  3  0  0  0  0  0  0
   28.9620   33.6460   36.6830 H   0  0  0  0  0  0  0  0  0  0  0  0
  1  8  1  0  0  0  0
  1  5  2  0  0  0  0
  2  3  2  0  0  0  0
  2  1  1  0  0  0  0
  3  4  1  0  0  0  0
  4  5  1  0  0  0  0
  4 20  1  0  0  0  0
  6  2  1  0  0  0  0
  7  3  1  0  0  0  0
  8  9  1  0  0  0  0
  9 10  2  0  0  0  0
  9 14  1  0  0  0  0
 10 16  1  0  0  0  0
 11 10  1  0  0  0  0
 12 11  2  0  0  0  0
 13 12  1  0  0  0  0
 13  8  2  0  0  0  0
 15 12  1  0  0  0  0
 16 18  1  0  0  0  0
 16 19  1  0  0  0  0
 16 17  1  0  0  0  0
 20 24  1  0  0  0  0
 20 21  2  0  0  0  0
 21 25  1  0  0  0  0
 21 22  1  0  0  0  0
 22 26  1  0  0  0  0
 23 22  2  0  0  0  0
 23 28  1  0  0  0  0
 24 23  1  0  0  0  0
 27 37  1  0  0  0  0
 28 27  2  0  0  0  0
 29 28  1  0  0  0  0
 29 31  2  0  0  0  0
 30 29  1  0  0  0  0
 31 36  1  0  0  0  0
 32 31  1  0  0  0  0
 32 33  1  0  0  0  0
 33 34  1  0  0  0  0
 33 35  2  0  0  0  0
 36 37  2  0  0  0  0
 36 35  1  0  0  0  0
 38 32  1  0  0  0  0
M  END
>  <minimizedAffinity>
-6.63248014

$$$$

 OpenBabel03272508073D

 38 42  0  0  0  0  0  0  0  0999 V2000
   37.4640   23.9170   31.2270 C   0  0  0  0  0  0  0  0  0  0  0  0
   38.2390   24.7140   30.4190 C   0  0  0  0  0  0  0  0  0  0  0  0
   38.1430   26.0520   30.8030 C   0  0  0  0  0  0  0  0  0  0  0  0
   37.2980   26.0010   31.8440 N   0  0  0  0  0  0  0  0  0  0  0  0
   36.8980   24.7650   32.0970 N   0  0  0  0  0  0  0  0  0  0  0  0
   38.8560   24.3760   29.5840 H   0  0  0  0  0  0  0  0  0  0  0  0
   38.6050   26.9450   30.4050 H   0  0  0  0  0  0  0  0  0  0  0  0
   37.3120   22.4790   31.1340 C   0  0  0  0  0  0  0  0  0  0  0  0
   36.2370   21.8660   31.8260 C   0  0  0  0  0  0  0  0  0  0  0  0
   36.1130   20.4820   31.7210 C   0  0  0  0  0  0  0  0  0  0  0  0
   37.0210   19.8030   30.9670 N   0  0  0  0  0  0  0  0  0  0  0  0
   38.0430   20.4120   30.3130 C   0  0  0  0  0  0  0  0  0  0  0  0
   38.1750   21.7520   30.4070 N   0  0  0  0  0  0  0  0  0  0  0  0
   35.5430   22.4500   32.4120 H   0  0  0  0  0  0  0  0  0  0  0  0
   38.7240   19.8030   29.7330 H   0  0  0  0  0  0  0  0  0  0  0  0
   34.9960   19.8060   32.4340 C   0  0  0  0  0  0  0  0  0  0  0  0
   35.1190   20.1750   33.7540 F   0  0  0  0  0  0  0  0  0  0  0  0
   33.7510   20.1940   31.9700 F   0  0  0  0  0  0  0  0  0  0  0  0
   35.1180   18.4180   32.3710 F   0  0  0  0  0  0  0  0  0  0  0  0
   36.8160   27.1140   32.6710 C   0  0  0  0  0  0  0  0  0  0  0  0
   37.1160   27.2170   34.0390 C   0  0  0  0  0  0  0  0  0  0  0  0
   36.6470   28.2540   34.7470 C   0  0  0  0  0  0  0  0  0  0  0  0
   35.8480   29.2370   34.0920 C   0  0  0  0  0  0  0  0  0  0  0  0
   35.7970   28.5860   32.3610 S   0  0  0  0  0  0  0  0  0  0  0  0
   37.7300   26.4640   34.5420 H   0  0  0  0  0  0  0  0  0  0  0  0
   36.7960   28.4630   35.7960 H   0  0  0  0  0  0  0  0  0  0  0  0
   34.4090   31.1360   33.7300 C   0  0  0  0  0  3  0  0  0  0  0  0
   35.2220   30.4190   34.5550 C   0  0  0  0  0  0  0  0  0  0  0  0
   35.4730   30.7950   35.8570 C   0  0  0  0  0  0  0  0  0  0  0  0
   36.1030   30.2640   36.5400 H   0  0  0  0  0  0  0  0  0  0  0  0
   34.8670   31.9590   36.3410 C   0  0  0  0  0  0  0  0  0  0  0  0
   34.8870   32.6060   37.5240 N   0  0  0  0  0  0  0  0  0  0  0  0
   34.1110   33.7050   37.4600 C   0  0  0  0  0  0  0  0  0  0  0  0
   33.9080   34.4460   38.2350 H   0  0  0  0  0  0  0  0  0  0  0  0
   33.5870   33.7550   36.2070 N   0  0  0  0  0  0  0  0  0  0  0  0
   34.0420   32.6900   35.5060 C   0  0  0  0  0  0  0  0  0  0  0  0
   33.8090   32.2930   34.2150 C   0  0  0  0  0  3  0  0  0  0  0  0
   35.4210   32.3040   38.3650 H   0  0  0  0  0  0  0  0  0  0  0  0
  1  5  2  0  0  0  0
  2  3  2  0  0  0  0
  2  1  1  0  0  0  0
  3  4  1  0  0  0  0
  4  5  1  0  0  0  0
  4 20  1  0  0  0  0
  6  2  1  0  0  0  0
  7  3  1  0  0  0  0
  8  1  1  0  0  0  0
  8  9  1  0  0  0  0
  9 14  1  0  0  0  0
 10  9  2  0  0  0  0
 10 16  1  0  0  0  0
 11 10  1  0  0  0  0
 12 13  1  0  0  0  0
 12 11  2  0  0  0  0
 13  8  2  0  0  0  0
 15 12  1  0  0  0  0
 16 17  1  0  0  0  0
 18 16  1  0  0  0  0
 19 16  1  0  0  0  0
 20 21  2  0  0  0  0
 21 25  1  0  0  0  0
 21 22  1  0  0  0  0
 22 26  1  0  0  0  0
 23 28  1  0  0  0  0
 23 22  2  0  0  0  0
 24 20  1  0  0  0  0
 24 23  1  0  0  0  0
 27 37  2  0  0  0  0
 27 28  1  0  0  0  0
 28 29  2  0  0  0  0
 29 31  1  0  0  0  0
 29 30  1  0  0  0  0
 31 32  1  0  0  0  0
 32 38  1  0  0  0  0
 33 32  1  0  0  0  0
 33 34  1  0  0  0  0
 35 33  2  0  0  0  0
 36 35  1  0  0  0  0
 36 31  2  0  0  0  0
 37 36  1  0  0  0  0
M  END
>  <minimizedAffinity>
-6.60750151

$$$$

 OpenBabel03272508073D

 38 42  0  0  0  0  0  0  0  0999 V2000
   34.9430   29.3460   33.5320 C   0  0  0  0  0  0  0  0  0  0  0  0
   35.1770   28.9070   32.2510 C   0  0  0  0  0  0  0  0  0  0  0  0
   36.2030   27.9630   32.2310 C   0  0  0  0  0  0  0  0  0  0  0  0
   36.5490   27.8730   33.5250 N   0  0  0  0  0  0  0  0  0  0  0  0
   35.8230   28.6740   34.2880 N   0  0  0  0  0  0  0  0  0  0  0  0
   34.6480   29.2330   31.3540 H   0  0  0  0  0  0  0  0  0  0  0  0
   36.6500   27.4090   31.4170 H   0  0  0  0  0  0  0  0  0  0  0  0
   33.9550   30.3230   33.9460 C   0  0  0  0  0  0  0  0  0  0  0  0
   33.8240   30.6100   35.3280 C   0  0  0  0  0  0  0  0  0  0  0  0
   32.8670   31.5530   35.6990 C   0  0  0  0  0  0  0  0  0  0  0  0
   32.1200   32.1390   34.7230 N   0  0  0  0  0  0  0  0  0  0  0  0
   32.2630   31.8480   33.4050 C   0  0  0  0  0  0  0  0  0  0  0  0
   33.1860   30.9360   33.0320 N   0  0  0  0  0  0  0  0  0  0  0  0
   34.4410   30.1170   36.0630 H   0  0  0  0  0  0  0  0  0  0  0  0
   31.6320   32.3580   32.6890 H   0  0  0  0  0  0  0  0  0  0  0  0
   32.7030   31.8780   37.1400 C   0  0  0  0  0  0  0  0  0  0  0  0
   31.5600   32.6410   37.2230 F   0  0  0  0  0  0  0  0  0  0  0  0
   32.5530   30.7520   37.9310 F   0  0  0  0  0  0  0  0  0  0  0  0
   33.7620   32.6530   37.6110 F   0  0  0  0  0  0  0  0  0  0  0  0
   37.5850   27.0240   34.1260 C   0  0  0  0  0  0  0  0  0  0  0  0
   38.3190   27.4230   35.2550 C   0  0  0  0  0  0  0  0  0  0  0  0
   39.2550   26.6080   35.7620 C   0  0  0  0  0  0  0  0  0  0  0  0
   39.4880   25.3470   35.1390 C   0  0  0  0  0  0  0  0  0  0  0  0
   38.2670   25.3820   33.7510 S   0  0  0  0  0  0  0  0  0  0  0  0
   38.1400   28.3900   35.7350 H   0  0  0  0  0  0  0  0  0  0  0  0
   39.8910   26.7780   36.6180 H   0  0  0  0  0  0  0  0  0  0  0  0
   41.5020   24.1080   34.6700 C   0  0  0  0  0  3  0  0  0  0  0  0
   40.3860   24.2920   35.4300 C   0  0  0  0  0  0  0  0  0  0  0  0
   40.0770   23.4810   36.5010 C   0  0  0  0  0  0  0  0  0  0  0  0
   39.2140   23.5870   37.1240 H   0  0  0  0  0  0  0  0  0  0  0  0
   40.9480   22.4300   36.8110 C   0  0  0  0  0  0  0  0  0  0  0  0
   40.9610   21.4700   37.7580 N   0  0  0  0  0  0  0  0  0  0  0  0
   42.0500   20.6930   37.6100 C   0  0  0  0  0  0  0  0  0  0  0  0
   42.3640   19.8320   38.2030 H   0  0  0  0  0  0  0  0  0  0  0  0
   42.7450   21.1730   36.5440 N   0  0  0  0  0  0  0  0  0  0  0  0
   42.0810   22.2400   36.0410 C   0  0  0  0  0  0  0  0  0  0  0  0
   42.3640   23.0630   34.9830 C   0  0  0  0  0  3  0  0  0  0  0  0
   40.2370   21.3440   38.4960 H   0  0  0  0  0  0  0  0  0  0  0  0
  1  8  1  0  0  0  0
  1  5  2  0  0  0  0
  2  1  1  0  0  0  0
  3  2  2  0  0  0  0
  3  4  1  0  0  0  0
  4 20  1  0  0  0  0
  4  5  1  0  0  0  0
  6  2  1  0  0  0  0
  7  3  1  0  0  0  0
  8  9  1  0  0  0  0
  9 10  2  0  0  0  0
  9 14  1  0  0  0  0
 10 16  1  0  0  0  0
 11 10  1  0  0  0  0
 12 11  2  0  0  0  0
 13 12  1  0  0  0  0
 13  8  2  0  0  0  0
 15 12  1  0  0  0  0
 16 17  1  0  0  0  0
 16 19  1  0  0  0  0
 16 18  1  0  0  0  0
 20 21  2  0  0  0  0
 21 25  1  0  0  0  0
 21 22  1  0  0  0  0
 22 26  1  0  0  0  0
 23 28  1  0  0  0  0
 23 22  2  0  0  0  0
 24 20  1  0  0  0  0
 24 23  1  0  0  0  0
 27 37  2  0  0  0  0
 27 28  1  0  0  0  0
 28 29  2  0  0  0  0
 29 31  1  0  0  0  0
 29 30  1  0  0  0  0
 31 32  1  0  0  0  0
 32 38  1  0  0  0  0
 33 32  1  0  0  0  0
 33 34  1  0  0  0  0
 35 33  2  0  0  0  0
 36 35  1  0  0  0  0
 36 31  2  0  0  0  0
 37 36  1  0  0  0  0
M  END
>  <minimizedAffinity>
-6.42200327

$$$$

 OpenBabel03272508073D

 38 42  0  0  0  0  0  0  0  0999 V2000
   35.6070   29.0550   33.6150 C   0  0  0  0  0  0  0  0  0  0  0  0
   36.0280   28.8310   32.3260 C   0  0  0  0  0  0  0  0  0  0  0  0
   37.0700   27.9060   32.2980 C   0  0  0  0  0  0  0  0  0  0  0  0
   37.2360   27.6080   33.5970 N   0  0  0  0  0  0  0  0  0  0  0  0
   36.3910   28.2710   34.3690 N   0  0  0  0  0  0  0  0  0  0  0  0
   35.6200   29.2990   31.4280 H   0  0  0  0  0  0  0  0  0  0  0  0
   37.6400   27.4950   31.4770 H   0  0  0  0  0  0  0  0  0  0  0  0
   34.5470   29.9480   34.0380 C   0  0  0  0  0  0  0  0  0  0  0  0
   34.6170   30.5190   35.3340 C   0  0  0  0  0  0  0  0  0  0  0  0
   33.5850   31.3740   35.7150 C   0  0  0  0  0  0  0  0  0  0  0  0
   32.5780   31.6110   34.8310 N   0  0  0  0  0  0  0  0  0  0  0  0
   32.5310   31.0540   33.5940 C   0  0  0  0  0  0  0  0  0  0  0  0
   33.5240   30.2230   33.2120 N   0  0  0  0  0  0  0  0  0  0  0  0
   35.4380   30.2970   35.9980 H   0  0  0  0  0  0  0  0  0  0  0  0
   31.6970   31.2930   32.9480 H   0  0  0  0  0  0  0  0  0  0  0  0
   33.6280   31.9890   37.0680 C   0  0  0  0  0  0  0  0  0  0  0  0
   33.0550   31.0680   37.9150 F   0  0  0  0  0  0  0  0  0  0  0  0
   34.9170   32.2570   37.4950 F   0  0  0  0  0  0  0  0  0  0  0  0
   32.8560   33.1500   37.1240 F   0  0  0  0  0  0  0  0  0  0  0  0
   38.2000   26.6750   34.1930 C   0  0  0  0  0  0  0  0  0  0  0  0
   39.5440   27.0210   34.4080 C   0  0  0  0  0  0  0  0  0  0  0  0
   40.3820   26.1290   34.9540 C   0  0  0  0  0  0  0  0  0  0  0  0
   39.8880   24.8380   35.3060 C   0  0  0  0  0  0  0  0  0  0  0  0
   38.1130   24.9660   34.8040 S   0  0  0  0  0  0  0  0  0  0  0  0
   39.9240   28.0120   34.1390 H   0  0  0  0  0  0  0  0  0  0  0  0
   41.4310   26.2530   35.1770 H   0  0  0  0  0  0  0  0  0  0  0  0
   39.9640   23.1060   36.9810 C   0  0  0  0  0  3  0  0  0  0  0  0
   40.5100   23.7060   35.8860 C   0  0  0  0  0  0  0  0  0  0  0  0
   41.6700   23.2540   35.2950 C   0  0  0  0  0  0  0  0  0  0  0  0
   42.1340   23.6920   34.4360 H   0  0  0  0  0  0  0  0  0  0  0  0
   42.3040   22.1360   35.8480 C   0  0  0  0  0  0  0  0  0  0  0  0
   43.4190   21.4420   35.5410 N   0  0  0  0  0  0  0  0  0  0  0  0
   43.5840   20.4290   36.4110 C   0  0  0  0  0  0  0  0  0  0  0  0
   44.3780   19.6810   36.4500 H   0  0  0  0  0  0  0  0  0  0  0  0
   42.5490   20.4820   37.2910 N   0  0  0  0  0  0  0  0  0  0  0  0
   41.7530   21.5250   36.9590 C   0  0  0  0  0  0  0  0  0  0  0  0
   40.5980   21.9960   37.5260 C   0  0  0  0  0  3  0  0  0  0  0  0
   44.0600   21.6550   34.7480 H   0  0  0  0  0  0  0  0  0  0  0  0
  1  8  1  0  0  0  0
  1  5  2  0  0  0  0
  2  1  1  0  0  0  0
  3  2  2  0  0  0  0
  3  4  1  0  0  0  0
  4 20  1  0  0  0  0
  4  5  1  0  0  0  0
  6  2  1  0  0  0  0
  7  3  1  0  0  0  0
  8  9  1  0  0  0  0
  9 10  2  0  0  0  0
  9 14  1  0  0  0  0
 10 16  1  0  0  0  0
 11 10  1  0  0  0  0
 12 11  2  0  0  0  0
 13 12  1  0  0  0  0
 13  8  2  0  0  0  0
 15 12  1  0  0  0  0
 16 19  1  0  0  0  0
 16 18  1  0  0  0  0
 16 17  1  0  0  0  0
 20 21  2  0  0  0  0
 20 24  1  0  0  0  0
 21 22  1  0  0  0  0
 22 26  1  0  0  0  0
 22 23  2  0  0  0  0
 23 28  1  0  0  0  0
 24 23  1  0  0  0  0
 25 21  1  0  0  0  0
 27 37  1  0  0  0  0
 28 27  2  0  0  0  0
 29 31  2  0  0  0  0
 29 28  1  0  0  0  0
 30 29  1  0  0  0  0
 31 36  1  0  0  0  0
 32 31  1  0  0  0  0
 32 33  1  0  0  0  0
 33 34  1  0  0  0  0
 33 35  2  0  0  0  0
 36 35  1  0  0  0  0
 36 37  2  0  0  0  0
 38 32  1  0  0  0  0
M  END
>  <minimizedAffinity>
-6.36348343

$$$$

 OpenBabel03272508073D

 38 42  0  0  0  0  0  0  0  0999 V2000
   35.6300   29.7180   33.5220 C   0  0  0  0  0  0  0  0  0  0  0  0
   36.0530   30.0880   32.2680 C   0  0  0  0  0  0  0  0  0  0  0  0
   36.3450   28.9670   31.4920 C   0  0  0  0  0  0  0  0  0  0  0  0
   36.0790   27.9510   32.3290 N   0  0  0  0  0  0  0  0  0  0  0  0
   35.6640   28.3780   33.5100 N   0  0  0  0  0  0  0  0  0  0  0  0
   36.1570   31.1110   31.9010 H   0  0  0  0  0  0  0  0  0  0  0  0
   36.6970   28.8730   30.4740 H   0  0  0  0  0  0  0  0  0  0  0  0
   35.2380   30.6040   34.6000 C   0  0  0  0  0  0  0  0  0  0  0  0
   33.9570   30.4370   35.1830 C   0  0  0  0  0  0  0  0  0  0  0  0
   33.6050   31.3010   36.2180 C   0  0  0  0  0  0  0  0  0  0  0  0
   34.5020   32.2480   36.6070 N   0  0  0  0  0  0  0  0  0  0  0  0
   35.7250   32.3910   36.0330 C   0  0  0  0  0  0  0  0  0  0  0  0
   36.0780   31.5600   35.0300 N   0  0  0  0  0  0  0  0  0  0  0  0
   33.2810   29.6690   34.8380 H   0  0  0  0  0  0  0  0  0  0  0  0
   36.3820   33.1670   36.3990 H   0  0  0  0  0  0  0  0  0  0  0  0
   32.2680   31.1530   36.8520 C   0  0  0  0  0  0  0  0  0  0  0  0
   32.4720   30.3840   37.9760 F   0  0  0  0  0  0  0  0  0  0  0  0
   31.7150   32.3650   37.2280 F   0  0  0  0  0  0  0  0  0  0  0  0
   31.3850   30.4620   36.0230 F   0  0  0  0  0  0  0  0  0  0  0  0
   36.1970   26.5110   32.0670 C   0  0  0  0  0  0  0  0  0  0  0  0
   35.3380   25.8380   31.1830 C   0  0  0  0  0  0  0  0  0  0  0  0
   35.4890   24.5200   30.9820 C   0  0  0  0  0  0  0  0  0  0  0  0
   36.5250   23.8270   31.6760 C   0  0  0  0  0  0  0  0  0  0  0  0
   37.2960   25.1910   32.6590 S   0  0  0  0  0  0  0  0  0  0  0  0
   34.5440   26.3690   30.6500 H   0  0  0  0  0  0  0  0  0  0  0  0
   34.9100   23.8760   30.3380 H   0  0  0  0  0  0  0  0  0  0  0  0
   38.1690   22.1220   32.1170 C   0  0  0  0  0  3  0  0  0  0  0  0
   36.9280   22.4710   31.6770 C   0  0  0  0  0  0  0  0  0  0  0  0
   36.0170   21.5430   31.2190 C   0  0  0  0  0  0  0  0  0  0  0  0
   35.0320   21.7710   30.8650 H   0  0  0  0  0  0  0  0  0  0  0  0
   36.3890   20.1950   31.2100 C   0  0  0  0  0  0  0  0  0  0  0  0
   35.7730   19.0530   30.8410 N   0  0  0  0  0  0  0  0  0  0  0  0
   36.5930   18.0040   31.0380 C   0  0  0  0  0  0  0  0  0  0  0  0
   36.4100   16.9450   30.8460 H   0  0  0  0  0  0  0  0  0  0  0  0
   37.7570   18.4920   31.5430 N   0  0  0  0  0  0  0  0  0  0  0  0
   37.6490   19.8370   31.6550 C   0  0  0  0  0  0  0  0  0  0  0  0
   38.5350   20.7800   32.1040 C   0  0  0  0  0  3  0  0  0  0  0  0
   34.8060   18.9880   30.4610 H   0  0  0  0  0  0  0  0  0  0  0  0
  1  8  1  0  0  0  0
  2  1  1  0  0  0  0
  3  2  2  0  0  0  0
  3  4  1  0  0  0  0
  4  5  1  0  0  0  0
  5  1  2  0  0  0  0
  6  2  1  0  0  0  0
  7  3  1  0  0  0  0
  8 13  2  0  0  0  0
  8  9  1  0  0  0  0
  9 10  2  0  0  0  0
 10 11  1  0  0  0  0
 10 16  1  0  0  0  0
 12 15  1  0  0  0  0
 12 11  2  0  0  0  0
 13 12  1  0  0  0  0
 14  9  1  0  0  0  0
 16 18  1  0  0  0  0
 16 17  1  0  0  0  0
 19 16  1  0  0  0  0
 20  4  1  0  0  0  0
 20 24  1  0  0  0  0
 21 20  2  0  0  0  0
 22 21  1  0  0  0  0
 22 23  2  0  0  0  0
 23 28  1  0  0  0  0
 23 24  1  0  0  0  0
 25 21  1  0  0  0  0
 26 22  1  0  0  0  0
 28 27  2  0  0  0  0
 29 28  1  0  0  0  0
 30 29  1  0  0  0  0
 31 29  2  0  0  0  0
 31 36  1  0  0  0  0
 32 33  1  0  0  0  0
 32 31  1  0  0  0  0
 33 35  2  0  0  0  0
 34 33  1  0  0  0  0
 35 36  1  0  0  0  0
 36 37  2  0  0  0  0
 37 27  1  0  0  0  0
 38 32  1  0  0  0  0
M  END
>  <minimizedAffinity>
-6.3147254

$$$$

 OpenBabel03272508073D

 38 42  0  0  0  0  0  0  0  0999 V2000
   36.4750   27.8680   33.1430 C   0  0  0  0  0  0  0  0  0  0  0  0
   36.2910   28.6560   32.0330 C   0  0  0  0  0  0  0  0  0  0  0  0
   35.7570   29.8950   32.3870 C   0  0  0  0  0  0  0  0  0  0  0  0
   35.6400   29.7960   33.7210 N   0  0  0  0  0  0  0  0  0  0  0  0
   36.0540   28.6220   34.1680 N   0  0  0  0  0  0  0  0  0  0  0  0
   36.5220   28.3790   31.0030 H   0  0  0  0  0  0  0  0  0  0  0  0
   35.4850   30.7540   31.7900 H   0  0  0  0  0  0  0  0  0  0  0  0
   37.0090   26.5200   33.1700 C   0  0  0  0  0  0  0  0  0  0  0  0
   36.5230   25.5790   32.2280 C   0  0  0  0  0  0  0  0  0  0  0  0
   37.0530   24.2920   32.2750 C   0  0  0  0  0  0  0  0  0  0  0  0
   37.9990   24.0120   33.2130 N   0  0  0  0  0  0  0  0  0  0  0  0
   38.4500   24.9300   34.1060 C   0  0  0  0  0  0  0  0  0  0  0  0
   37.9450   26.1810   34.0720 N   0  0  0  0  0  0  0  0  0  0  0  0
   35.7710   25.8520   31.5030 H   0  0  0  0  0  0  0  0  0  0  0  0
   39.2050   24.6310   34.8210 H   0  0  0  0  0  0  0  0  0  0  0  0
   36.5650   23.2800   31.3000 C   0  0  0  0  0  0  0  0  0  0  0  0
   37.5410   23.1910   30.3340 F   0  0  0  0  0  0  0  0  0  0  0  0
   36.3780   22.0330   31.8710 F   0  0  0  0  0  0  0  0  0  0  0  0
   35.3910   23.7000   30.6750 F   0  0  0  0  0  0  0  0  0  0  0  0
   35.1340   30.8040   34.6600 C   0  0  0  0  0  0  0  0  0  0  0  0
   35.9070   31.2910   35.7260 C   0  0  0  0  0  0  0  0  0  0  0  0
   35.3930   32.2110   36.5560 C   0  0  0  0  0  0  0  0  0  0  0  0
   34.0640   32.6770   36.3370 C   0  0  0  0  0  0  0  0  0  0  0  0
   33.5670   31.7070   34.8410 S   0  0  0  0  0  0  0  0  0  0  0  0
   36.9280   30.9340   35.8950 H   0  0  0  0  0  0  0  0  0  0  0  0
   35.8660   32.6720   37.4100 H   0  0  0  0  0  0  0  0  0  0  0  0
   33.8290   34.5250   37.8660 C   0  0  0  0  0  3  0  0  0  0  0  0
   33.2600   33.6190   37.0210 C   0  0  0  0  0  0  0  0  0  0  0  0
   31.9020   33.5730   36.7910 C   0  0  0  0  0  0  0  0  0  0  0  0
   31.4120   32.8810   36.1380 H   0  0  0  0  0  0  0  0  0  0  0  0
   31.0840   34.4940   37.4550 C   0  0  0  0  0  0  0  0  0  0  0  0
   29.7560   34.7320   37.4700 N   0  0  0  0  0  0  0  0  0  0  0  0
   29.4820   35.7570   38.2980 C   0  0  0  0  0  0  0  0  0  0  0  0
   28.5150   36.2020   38.5400 H   0  0  0  0  0  0  0  0  0  0  0  0
   30.6630   36.1790   38.8210 N   0  0  0  0  0  0  0  0  0  0  0  0
   31.6580   35.4140   38.3130 C   0  0  0  0  0  0  0  0  0  0  0  0
   33.0120   35.4380   38.5230 C   0  0  0  0  0  3  0  0  0  0  0  0
   29.0460   34.2030   36.9220 H   0  0  0  0  0  0  0  0  0  0  0  0
  1  8  1  0  0  0  0
  1  5  2  0  0  0  0
  2  3  2  0  0  0  0
  2  1  1  0  0  0  0
  3  4  1  0  0  0  0
  4  5  1  0  0  0  0
  4 20  1  0  0  0  0
  6  2  1  0  0  0  0
  7  3  1  0  0  0  0
  8 13  1  0  0  0  0
  9 10  1  0  0  0  0
  9  8  2  0  0  0  0
 10 11  2  0  0  0  0
 11 12  1  0  0  0  0
 12 15  1  0  0  0  0
 13 12  2  0  0  0  0
 14  9  1  0  0  0  0
 16 18  1  0  0  0  0
 16 10  1  0  0  0  0
 17 16  1  0  0  0  0
 19 16  1  0  0  0  0
 20 24  1  0  0  0  0
 20 21  2  0  0  0  0
 21 25  1  0  0  0  0
 21 22  1  0  0  0  0
 22 26  1  0  0  0  0
 23 22  2  0  0  0  0
 23 28  1  0  0  0  0
 24 23  1  0  0  0  0
 27 37  1  0  0  0  0
 28 27  2  0  0  0  0
 29 28  1  0  0  0  0
 29 31  2  0  0  0  0
 30 29  1  0  0  0  0
 31 32  1  0  0  0  0
 31 36  1  0  0  0  0
 32 33  1  0  0  0  0
 33 34  1  0  0  0  0
 33 35  2  0  0  0  0
 36 37  2  0  0  0  0
 36 35  1  0  0  0  0
 38 32  1  0  0  0  0
M  END
>  <minimizedAffinity>
-6.27188683

$$$$

 OpenBabel03272508073D

 38 42  0  0  0  0  0  0  0  0999 V2000
   41.7920   23.7300   35.6520 C   0  0  0  0  0  0  0  0  0  0  0  0
   40.8500   22.7470   35.8380 C   0  0  0  0  0  0  0  0  0  0  0  0
   39.5860   23.1940   35.4560 C   0  0  0  0  0  0  0  0  0  0  0  0
   39.8260   24.4500   35.0480 N   0  0  0  0  0  0  0  0  0  0  0  0
   41.1050   24.7700   35.1590 N   0  0  0  0  0  0  0  0  0  0  0  0
   41.0360   21.7460   36.2300 H   0  0  0  0  0  0  0  0  0  0  0  0
   38.6220   22.7040   35.4610 H   0  0  0  0  0  0  0  0  0  0  0  0
   43.2110   23.6350   35.9340 C   0  0  0  0  0  0  0  0  0  0  0  0
   43.7880   24.5690   36.8300 C   0  0  0  0  0  0  0  0  0  0  0  0
   45.1530   24.4560   37.0850 C   0  0  0  0  0  0  0  0  0  0  0  0
   45.8490   23.4630   36.4650 N   0  0  0  0  0  0  0  0  0  0  0  0
   45.2750   22.5780   35.6100 C   0  0  0  0  0  0  0  0  0  0  0  0
   43.9540   22.6780   35.3540 N   0  0  0  0  0  0  0  0  0  0  0  0
   43.1910   25.3390   37.2960 H   0  0  0  0  0  0  0  0  0  0  0  0
   45.8960   21.8170   35.1570 H   0  0  0  0  0  0  0  0  0  0  0  0
   45.7910   25.4200   38.0200 C   0  0  0  0  0  0  0  0  0  0  0  0
   46.5750   24.6620   38.8590 F   0  0  0  0  0  0  0  0  0  0  0  0
   46.5860   26.3490   37.3730 F   0  0  0  0  0  0  0  0  0  0  0  0
   44.8400   26.0710   38.8060 F   0  0  0  0  0  0  0  0  0  0  0  0
   38.8660   25.4290   34.5230 C   0  0  0  0  0  0  0  0  0  0  0  0
   38.0600   25.1630   33.4050 C   0  0  0  0  0  0  0  0  0  0  0  0
   37.2000   26.0950   32.9670 C   0  0  0  0  0  0  0  0  0  0  0  0
   37.1240   27.3440   33.6510 C   0  0  0  0  0  0  0  0  0  0  0  0
   38.3780   27.1160   34.9910 S   0  0  0  0  0  0  0  0  0  0  0  0
   38.1170   24.2050   32.8800 H   0  0  0  0  0  0  0  0  0  0  0  0
   36.5240   26.0320   32.1280 H   0  0  0  0  0  0  0  0  0  0  0  0
   35.8160   29.1840   34.4940 C   0  0  0  0  0  3  0  0  0  0  0  0
   36.3360   28.5000   33.4360 C   0  0  0  0  0  0  0  0  0  0  0  0
   36.1290   28.8870   32.1300 C   0  0  0  0  0  0  0  0  0  0  0  0
   36.5170   28.3820   31.2700 H   0  0  0  0  0  0  0  0  0  0  0  0
   35.3540   30.0270   31.8900 C   0  0  0  0  0  0  0  0  0  0  0  0
   34.9580   30.6760   30.7750 N   0  0  0  0  0  0  0  0  0  0  0  0
   34.2070   31.7420   31.1070 C   0  0  0  0  0  0  0  0  0  0  0  0
   33.7310   32.4750   30.4530 H   0  0  0  0  0  0  0  0  0  0  0  0
   34.1250   31.7710   32.4640 N   0  0  0  0  0  0  0  0  0  0  0  0
   34.8240   30.7230   32.9610 C   0  0  0  0  0  0  0  0  0  0  0  0
   35.0460   30.3160   34.2500 C   0  0  0  0  0  3  0  0  0  0  0  0
   35.1960   30.3960   29.8010 H   0  0  0  0  0  0  0  0  0  0  0  0
  1  2  1  0  0  0  0
  1  8  1  0  0  0  0
  2  6  1  0  0  0  0
  3  7  1  0  0  0  0
  3  2  2  0  0  0  0
  4  5  1  0  0  0  0
  4  3  1  0  0  0  0
  5  1  2  0  0  0  0
  8  9  1  0  0  0  0
  9 10  2  0  0  0  0
  9 14  1  0  0  0  0
 10 16  1  0  0  0  0
 11 10  1  0  0  0  0
 12 11  2  0  0  0  0
 13 12  1  0  0  0  0
 13  8  2  0  0  0  0
 15 12  1  0  0  0  0
 16 19  1  0  0  0  0
 16 17  1  0  0  0  0
 18 16  1  0  0  0  0
 20 24  1  0  0  0  0
 20  4  1  0  0  0  0
 21 20  2  0  0  0  0
 22 21  1  0  0  0  0
 22 23  2  0  0  0  0
 23 24  1  0  0  0  0
 25 21  1  0  0  0  0
 26 22  1  0  0  0  0
 28 23  1  0  0  0  0
 28 27  2  0  0  0  0
 29 28  1  0  0  0  0
 30 29  1  0  0  0  0
 31 29  2  0  0  0  0
 31 36  1  0  0  0  0
 32 33  1  0  0  0  0
 32 31  1  0  0  0  0
 33 35  2  0  0  0  0
 34 33  1  0  0  0  0
 35 36  1  0  0  0  0
 36 37  2  0  0  0  0
 37 27  1  0  0  0  0
 38 32  1  0  0  0  0
M  END
>  <minimizedAffinity>
-6.15892506

$$$$
