
 OpenBabel03272501373D

 39 43  0  0  1  0  0  0  0  0999 V2000
   37.1920   27.6630   34.9400 C   0  0  0  0  0  0  0  0  0  0  0  0
   36.9700   27.4210   33.6040 C   0  0  0  0  0  0  0  0  0  0  0  0
   37.3770   26.2290   32.9720 C   0  0  0  0  0  0  0  0  0  0  0  0
   37.9850   25.3520   33.7310 N   0  0  0  0  0  0  0  0  0  0  0  0
   38.2000   25.6040   35.0630 C   0  0  0  0  0  0  0  0  0  0  0  0
   37.8220   26.7220   35.6650 N   0  0  0  0  0  0  0  0  0  0  0  0
   36.8680   28.5890   35.3970 H   0  0  0  0  0  0  0  0  0  0  0  0
   36.4530   28.2000   33.0250 H   0  0  0  0  0  0  0  0  0  0  0  0
   38.4330   24.1450   37.0680 C   0  0  0  0  0  3  0  0  0  0  0  0
   38.8850   24.5710   35.8330 C   0  0  0  0  0  0  0  0  0  0  0  0
   40.0290   23.9680   35.3550 C   0  0  0  0  0  0  0  0  0  0  0  0
   40.3800   24.3060   34.3840 H   0  0  0  0  0  0  0  0  0  0  0  0
   40.7540   22.9880   35.9900 C   0  0  0  0  0  0  0  0  0  0  0  0
   41.8690   22.3020   35.6770 N   0  0  0  0  0  0  0  0  0  0  0  0
   42.1010   21.4660   36.7040 C   0  0  0  0  0  0  0  0  0  0  0  0
   42.9360   20.7810   36.7380 H   0  0  0  0  0  0  0  0  0  0  0  0
   41.1370   21.6370   37.6380 N   0  0  0  0  0  0  0  0  0  0  0  0
   40.2660   22.5880   37.2290 C   0  0  0  0  0  0  0  0  0  0  0  0
   39.1150   23.1530   37.7770 C   0  0  0  0  0  3  0  0  0  0  0  0
   42.4370   22.4180   34.7870 H   0  0  0  0  0  0  0  0  0  0  0  0
   37.1290   26.0800   31.5680 C   0  0  1  0  0  3  0  0  0  0  0  0
   37.1710   27.0520   30.7200 O   0  0  0  0  0  1  0  0  0  0  0  0
   36.8080   24.6980   31.0600 C   0  0  2  0  0  0  0  0  0  0  0  0
   35.2230   24.5970   30.9270 C   0  0  0  0  0  0  0  0  0  0  0  0
   36.0770   23.7720   31.8570 C   0  0  1  0  0  0  0  0  0  0  0  0
   37.2590   24.4580   30.0700 H   0  0  0  0  0  0  0  0  0  0  0  0
   34.6270   25.4120   31.3060 H   0  0  0  0  0  0  0  0  0  0  0  0
   34.8770   24.1070   29.9850 H   0  0  0  0  0  0  0  0  0  0  0  0
   35.8630   24.0380   32.9420 H   0  0  0  0  0  0  0  0  0  0  0  0
   36.0070   22.3230   31.6510 C   0  0  0  0  0  0  0  0  0  0  0  0
   34.9850   21.6300   32.2940 C   0  0  0  0  0  0  0  0  0  0  0  0
   34.9290   20.2750   32.1000 C   0  0  0  0  0  0  0  0  0  0  0  0
   35.8410   19.6000   31.3030 C   0  0  0  0  0  0  0  0  0  0  0  0
   36.8310   20.3230   30.6900 C   0  0  0  0  0  0  0  0  0  0  0  0
   36.8990   21.6550   30.8710 N   0  0  0  0  0  0  0  0  0  0  0  0
   34.2700   22.1490   32.9170 H   0  0  0  0  0  0  0  0  0  0  0  0
   34.1570   19.6840   32.5730 H   0  0  0  0  0  0  0  0  0  0  0  0
   35.8140   18.5270   31.1360 H   0  0  0  0  0  0  0  0  0  0  0  0
   37.6080   19.9160   30.0400 H   0  0  0  0  0  0  0  0  0  0  0  0
  1  7  1  0  0  0  0
  1  6  1  0  0  0  0
  2  1  2  0  0  0  0
  3  2  1  0  0  0  0
  3  4  2  0  0  0  0
  4  5  1  0  0  0  0
  5  6  2  0  0  0  0
  5 10  1  0  0  0  0
  8  2  1  0  0  0  0
  9 19  1  0  0  0  0
 10  9  2  0  0  0  0
 11 10  1  0  0  0  0
 11 13  2  0  0  0  0
 12 11  1  0  0  0  0
 13 18  1  0  0  0  0
 14 13  1  0  0  0  0
 14 15  1  0  0  0  0
 15 16  1  0  0  0  0
 15 17  2  0  0  0  0
 18 17  1  0  0  0  0
 18 19  2  0  0  0  0
 20 14  1  0  0  0  0
 21 22  1  6  0  0  0
 21  3  1  0  0  0  0
 23 26  1  6  0  0  0
 23 21  1  0  0  0  0
 23 25  1  0  0  0  0
 24 23  1  0  0  0  0
 24 27  1  0  0  0  0
 24 25  1  0  0  0  0
 25 29  1  1  0  0  0
 28 24  1  0  0  0  0
 30 25  1  0  0  0  0
 30 31  1  0  0  0  0
 31 36  1  0  0  0  0
 32 31  2  0  0  0  0
 32 37  1  0  0  0  0
 33 32  1  0  0  0  0
 34 35  1  0  0  0  0
 34 33  2  0  0  0  0
 35 30  2  0  0  0  0
 38 33  1  0  0  0  0
 39 34  1  0  0  0  0
M  END
>  <minimizedAffinity>
-6.62593031

$$$$

 OpenBabel03272501373D

 39 43  0  0  1  0  0  0  0  0999 V2000
   36.2670   29.3450   31.2190 C   0  0  0  0  0  0  0  0  0  0  0  0
   36.7980   28.1240   31.5660 C   0  0  0  0  0  0  0  0  0  0  0  0
   36.7870   27.6410   32.8900 C   0  0  0  0  0  0  0  0  0  0  0  0
   36.2390   28.4240   33.7840 N   0  0  0  0  0  0  0  0  0  0  0  0
   35.7110   29.6400   33.4260 C   0  0  0  0  0  0  0  0  0  0  0  0
   35.7170   30.1020   32.1850 N   0  0  0  0  0  0  0  0  0  0  0  0
   36.2910   29.6880   30.1920 H   0  0  0  0  0  0  0  0  0  0  0  0
   37.2430   27.5160   30.7640 H   0  0  0  0  0  0  0  0  0  0  0  0
   35.8840   31.0820   35.4500 C   0  0  0  0  0  3  0  0  0  0  0  0
   35.1200   30.4460   34.4880 C   0  0  0  0  0  0  0  0  0  0  0  0
   33.7540   30.6110   34.5810 C   0  0  0  0  0  0  0  0  0  0  0  0
   33.1570   30.1100   33.8230 H   0  0  0  0  0  0  0  0  0  0  0  0
   33.0890   31.3450   35.5340 C   0  0  0  0  0  0  0  0  0  0  0  0
   31.7900   31.6090   35.7700 N   0  0  0  0  0  0  0  0  0  0  0  0
   31.7550   32.3950   36.8600 C   0  0  0  0  0  0  0  0  0  0  0  0
   30.8390   32.7730   37.2930 H   0  0  0  0  0  0  0  0  0  0  0  0
   33.0190   32.6120   37.2890 N   0  0  0  0  0  0  0  0  0  0  0  0
   33.8930   31.9680   36.4820 C   0  0  0  0  0  0  0  0  0  0  0  0
   35.2820   31.8470   36.4530 C   0  0  0  0  0  3  0  0  0  0  0  0
   30.9720   31.2520   35.1930 H   0  0  0  0  0  0  0  0  0  0  0  0
   37.3920   26.3700   33.1590 C   0  0  1  0  0  3  0  0  0  0  0  0
   37.7180   25.5180   32.2470 O   0  0  0  0  0  1  0  0  0  0  0  0
   37.6680   26.0200   34.5990 C   0  0  2  0  0  0  0  0  0  0  0  0
   39.1450   26.5150   34.9330 C   0  0  0  0  0  0  0  0  0  0  0  0
   38.6800   25.0800   34.9460 C   0  0  1  0  0  0  0  0  0  0  0  0
   36.9670   26.4900   35.3270 H   0  0  0  0  0  0  0  0  0  0  0  0
   39.7530   26.8870   34.1230 H   0  0  0  0  0  0  0  0  0  0  0  0
   39.2400   27.0290   35.9190 H   0  0  0  0  0  0  0  0  0  0  0  0
   39.1800   24.4870   34.1150 H   0  0  0  0  0  0  0  0  0  0  0  0
   38.8120   24.3920   36.2330 C   0  0  0  0  0  0  0  0  0  0  0  0
   37.9390   24.7600   37.2530 C   0  0  0  0  0  0  0  0  0  0  0  0
   38.0720   24.1150   38.4540 C   0  0  0  0  0  0  0  0  0  0  0  0
   39.0290   23.1350   38.6690 C   0  0  0  0  0  0  0  0  0  0  0  0
   39.8670   22.8040   37.6370 C   0  0  0  0  0  0  0  0  0  0  0  0
   39.7490   23.4290   36.4510 N   0  0  0  0  0  0  0  0  0  0  0  0
   37.1910   25.5230   37.0930 H   0  0  0  0  0  0  0  0  0  0  0  0
   37.4220   24.3580   39.2830 H   0  0  0  0  0  0  0  0  0  0  0  0
   39.1510   22.6120   39.6140 H   0  0  0  0  0  0  0  0  0  0  0  0
   40.6600   22.0530   37.6740 H   0  0  0  0  0  0  0  0  0  0  0  0
  1  2  2  0  0  0  0
  1  6  1  0  0  0  0
  2  3  1  0  0  0  0
  3 21  1  0  0  0  0
  3  4  2  0  0  0  0
  5  4  1  0  0  0  0
  5 10  1  0  0  0  0
  6  5  2  0  0  0  0
  7  1  1  0  0  0  0
  8  2  1  0  0  0  0
  9 19  1  0  0  0  0
 10 11  1  0  0  0  0
 10  9  2  0  0  0  0
 11 13  2  0  0  0  0
 12 11  1  0  0  0  0
 13 14  1  0  0  0  0
 13 18  1  0  0  0  0
 14 15  1  0  0  0  0
 15 17  2  0  0  0  0
 15 16  1  0  0  0  0
 18 17  1  0  0  0  0
 19 18  2  0  0  0  0
 20 14  1  0  0  0  0
 21 22  1  6  0  0  0
 21 23  1  0  0  0  0
 23 24  1  0  0  0  0
 23 25  1  0  0  0  0
 23 26  1  1  0  0  0
 24 25  1  0  0  0  0
 24 28  1  0  0  0  0
 25 29  1  6  0  0  0
 25 30  1  0  0  0  0
 27 24  1  0  0  0  0
 30 35  2  0  0  0  0
 30 31  1  0  0  0  0
 31 32  2  0  0  0  0
 32 33  1  0  0  0  0
 32 37  1  0  0  0  0
 33 38  1  0  0  0  0
 34 39  1  0  0  0  0
 34 33  2  0  0  0  0
 35 34  1  0  0  0  0
 36 31  1  0  0  0  0
M  END
>  <minimizedAffinity>
-6.60069084

$$$$

 OpenBabel03272501373D

 39 43  0  0  1  0  0  0  0  0999 V2000
   36.9840   24.6470   31.5010 C   0  0  0  0  0  0  0  0  0  0  0  0
   36.7070   25.9940   31.5450 C   0  0  0  0  0  0  0  0  0  0  0  0
   36.9840   26.7890   32.6760 C   0  0  0  0  0  0  0  0  0  0  0  0
   37.5240   26.1720   33.6950 N   0  0  0  0  0  0  0  0  0  0  0  0
   37.7970   24.8270   33.6400 C   0  0  0  0  0  0  0  0  0  0  0  0
   37.5400   24.0730   32.5820 N   0  0  0  0  0  0  0  0  0  0  0  0
   36.7590   24.0640   30.6180 H   0  0  0  0  0  0  0  0  0  0  0  0
   36.2530   26.4490   30.6520 H   0  0  0  0  0  0  0  0  0  0  0  0
   37.9210   24.4520   36.0990 C   0  0  0  0  0  3  0  0  0  0  0  0
   38.4000   24.2220   34.8230 C   0  0  0  0  0  0  0  0  0  0  0  0
   39.4890   23.3840   34.7160 C   0  0  0  0  0  0  0  0  0  0  0  0
   39.8620   23.2060   33.7120 H   0  0  0  0  0  0  0  0  0  0  0  0
   40.1360   22.7600   35.7570 C   0  0  0  0  0  0  0  0  0  0  0  0
   41.1910   21.9280   35.8340 N   0  0  0  0  0  0  0  0  0  0  0  0
   41.3590   21.6480   37.1390 C   0  0  0  0  0  0  0  0  0  0  0  0
   42.1370   20.9980   37.5140 H   0  0  0  0  0  0  0  0  0  0  0  0
   40.4170   22.3040   37.8550 N   0  0  0  0  0  0  0  0  0  0  0  0
   39.6230   23.0170   37.0240 C   0  0  0  0  0  0  0  0  0  0  0  0
   38.5240   23.8550   37.2090 C   0  0  0  0  0  3  0  0  0  0  0  0
   41.7620   21.5750   35.0110 H   0  0  0  0  0  0  0  0  0  0  0  0
   36.6320   28.1780   32.6380 C   0  0  1  0  0  3  0  0  0  0  0  0
   37.0140   28.9950   31.7150 O   0  0  0  0  0  1  0  0  0  0  0  0
   35.7540   28.7050   33.7440 C   0  0  2  0  0  0  0  0  0  0  0  0
   34.3910   29.1900   33.0780 C   0  0  0  0  0  0  0  0  0  0  0  0
   35.3790   30.0780   33.7940 C   0  0  1  0  0  0  0  0  0  0  0  0
   35.5120   27.9560   34.5340 H   0  0  0  0  0  0  0  0  0  0  0  0
   34.3240   29.1990   32.0010 H   0  0  0  0  0  0  0  0  0  0  0  0
   33.4770   28.8870   33.6420 H   0  0  0  0  0  0  0  0  0  0  0  0
   35.8690   30.8030   33.0670 H   0  0  0  0  0  0  0  0  0  0  0  0
   34.8510   30.7850   34.9630 C   0  0  0  0  0  0  0  0  0  0  0  0
   33.5150   30.5760   35.2940 C   0  0  0  0  0  0  0  0  0  0  0  0
   33.0270   31.2440   36.3850 C   0  0  0  0  0  0  0  0  0  0  0  0
   33.8110   32.1000   37.1430 C   0  0  0  0  0  0  0  0  0  0  0  0
   35.1210   32.2770   36.7820 C   0  0  0  0  0  0  0  0  0  0  0  0
   35.6150   31.6270   35.7110 N   0  0  0  0  0  0  0  0  0  0  0  0
   32.8970   29.9100   34.7070 H   0  0  0  0  0  0  0  0  0  0  0  0
   31.9980   31.1210   36.6900 H   0  0  0  0  0  0  0  0  0  0  0  0
   33.4440   32.6400   38.0120 H   0  0  0  0  0  0  0  0  0  0  0  0
   35.8430   32.9200   37.2910 H   0  0  0  0  0  0  0  0  0  0  0  0
  1  2  2  0  0  0  0
  1  6  1  0  0  0  0
  2  3  1  0  0  0  0
  3  4  2  0  0  0  0
  5  4  1  0  0  0  0
  5 10  1  0  0  0  0
  6  5  2  0  0  0  0
  7  1  1  0  0  0  0
  8  2  1  0  0  0  0
  9 19  1  0  0  0  0
 10  9  2  0  0  0  0
 11 10  1  0  0  0  0
 11 13  2  0  0  0  0
 12 11  1  0  0  0  0
 13 14  1  0  0  0  0
 13 18  1  0  0  0  0
 14 15  1  0  0  0  0
 15 16  1  0  0  0  0
 15 17  2  0  0  0  0
 18 19  2  0  0  0  0
 18 17  1  0  0  0  0
 20 14  1  0  0  0  0
 21 22  1  6  0  0  0
 21  3  1  0  0  0  0
 21 23  1  0  0  0  0
 23 25  1  0  0  0  0
 23 26  1  1  0  0  0
 24 28  1  0  0  0  0
 24 23  1  0  0  0  0
 24 25  1  0  0  0  0
 25 29  1  6  0  0  0
 25 30  1  0  0  0  0
 27 24  1  0  0  0  0
 30 31  2  0  0  0  0
 30 35  1  0  0  0  0
 31 32  1  0  0  0  0
 32 37  1  0  0  0  0
 32 33  2  0  0  0  0
 33 38  1  0  0  0  0
 34 33  1  0  0  0  0
 34 39  1  0  0  0  0
 35 34  2  0  0  0  0
 36 31  1  0  0  0  0
M  END
>  <minimizedAffinity>
-6.18858814

$$$$

 OpenBabel03272501373D

 39 43  0  0  1  0  0  0  0  0999 V2000
   36.6190   25.2330   31.2320 C   0  0  0  0  0  0  0  0  0  0  0  0
   36.3470   26.5720   31.3930 C   0  0  0  0  0  0  0  0  0  0  0  0
   36.6730   27.2750   32.5710 C   0  0  0  0  0  0  0  0  0  0  0  0
   37.2560   26.5800   33.5150 N   0  0  0  0  0  0  0  0  0  0  0  0
   37.5230   25.2440   33.3410 C   0  0  0  0  0  0  0  0  0  0  0  0
   37.2190   24.5760   32.2390 N   0  0  0  0  0  0  0  0  0  0  0  0
   36.3550   24.7210   30.3150 H   0  0  0  0  0  0  0  0  0  0  0  0
   35.8560   27.0960   30.5600 H   0  0  0  0  0  0  0  0  0  0  0  0
   39.1970   23.6380   34.2490 C   0  0  0  0  0  3  0  0  0  0  0  0
   38.1750   24.5480   34.4460 C   0  0  0  0  0  0  0  0  0  0  0  0
   37.7940   24.7710   35.7510 C   0  0  0  0  0  0  0  0  0  0  0  0
   36.9900   25.4870   35.9020 H   0  0  0  0  0  0  0  0  0  0  0  0
   38.3340   24.1750   36.8660 C   0  0  0  0  0  0  0  0  0  0  0  0
   38.0900   24.2720   38.1860 N   0  0  0  0  0  0  0  0  0  0  0  0
   38.9490   23.4340   38.7940 C   0  0  0  0  0  0  0  0  0  0  0  0
   38.9900   23.2960   39.8650 H   0  0  0  0  0  0  0  0  0  0  0  0
   39.7130   22.8290   37.8550 N   0  0  0  0  0  0  0  0  0  0  0  0
   39.3590   23.2670   36.6250 C   0  0  0  0  0  0  0  0  0  0  0  0
   39.7980   22.9900   35.3310 C   0  0  0  0  0  3  0  0  0  0  0  0
   37.3570   24.8950   38.6360 H   0  0  0  0  0  0  0  0  0  0  0  0
   36.3230   28.6620   32.6590 C   0  0  1  0  0  3  0  0  0  0  0  0
   36.6490   29.5460   31.7770 O   0  0  0  0  0  1  0  0  0  0  0  0
   35.5160   29.1030   33.8530 C   0  0  2  0  0  0  0  0  0  0  0  0
   34.0420   29.4220   33.3380 C   0  0  0  0  0  0  0  0  0  0  0  0
   34.9940   30.4250   33.9400 C   0  0  1  0  0  0  0  0  0  0  0  0
   35.4470   28.3440   34.6660 H   0  0  0  0  0  0  0  0  0  0  0  0
   33.8590   29.4080   32.2750 H   0  0  0  0  0  0  0  0  0  0  0  0
   33.2350   29.0260   33.9990 H   0  0  0  0  0  0  0  0  0  0  0  0
   35.3170   31.1900   33.1620 H   0  0  0  0  0  0  0  0  0  0  0  0
   34.5190   31.0860   35.1580 C   0  0  0  0  0  0  0  0  0  0  0  0
   33.2290   30.7900   35.5890 C   0  0  0  0  0  0  0  0  0  0  0  0
   32.7900   31.4150   36.7260 C   0  0  0  0  0  0  0  0  0  0  0  0
   33.5780   32.3100   37.4340 C   0  0  0  0  0  0  0  0  0  0  0  0
   34.8410   32.5720   36.9730 C   0  0  0  0  0  0  0  0  0  0  0  0
   35.2870   31.9650   35.8570 N   0  0  0  0  0  0  0  0  0  0  0  0
   32.6080   30.0940   35.0430 H   0  0  0  0  0  0  0  0  0  0  0  0
   31.7970   31.2250   37.1090 H   0  0  0  0  0  0  0  0  0  0  0  0
   33.2490   32.8160   38.3370 H   0  0  0  0  0  0  0  0  0  0  0  0
   35.5610   33.2520   37.4340 H   0  0  0  0  0  0  0  0  0  0  0  0
  1  2  2  0  0  0  0
  1  6  1  0  0  0  0
  2  3  1  0  0  0  0
  3 21  1  0  0  0  0
  3  4  2  0  0  0  0
  5  4  1  0  0  0  0
  5 10  1  0  0  0  0
  6  5  2  0  0  0  0
  7  1  1  0  0  0  0
  8  2  1  0  0  0  0
  9 10  2  0  0  0  0
  9 19  1  0  0  0  0
 10 11  1  0  0  0  0
 11 12  1  0  0  0  0
 11 13  2  0  0  0  0
 13 14  1  0  0  0  0
 14 20  1  0  0  0  0
 14 15  1  0  0  0  0
 15 16  1  0  0  0  0
 17 15  2  0  0  0  0
 18 13  1  0  0  0  0
 18 17  1  0  0  0  0
 19 18  2  0  0  0  0
 21 22  1  6  0  0  0
 21 23  1  0  0  0  0
 23 25  1  0  0  0  0
 23 26  1  1  0  0  0
 24 23  1  0  0  0  0
 24 25  1  0  0  0  0
 24 28  1  0  0  0  0
 25 29  1  6  0  0  0
 25 30  1  0  0  0  0
 27 24  1  0  0  0  0
 30 31  2  0  0  0  0
 30 35  1  0  0  0  0
 31 32  1  0  0  0  0
 32 37  1  0  0  0  0
 32 33  2  0  0  0  0
 33 38  1  0  0  0  0
 34 39  1  0  0  0  0
 34 33  1  0  0  0  0
 35 34  2  0  0  0  0
 36 31  1  0  0  0  0
M  END
>  <minimizedAffinity>
-6.15905333

$$$$

 OpenBabel03272501373D

 39 43  0  0  1  0  0  0  0  0999 V2000
   35.2920   25.8040   30.8270 C   0  0  0  0  0  0  0  0  0  0  0  0
   36.1430   26.4220   31.7140 C   0  0  0  0  0  0  0  0  0  0  0  0
   36.9670   25.7010   32.6020 C   0  0  0  0  0  0  0  0  0  0  0  0
   36.8800   24.3960   32.5380 N   0  0  0  0  0  0  0  0  0  0  0  0
   36.0270   23.7910   31.6490 C   0  0  0  0  0  0  0  0  0  0  0  0
   35.2490   24.4600   30.8120 N   0  0  0  0  0  0  0  0  0  0  0  0
   34.6710   26.3860   30.1580 H   0  0  0  0  0  0  0  0  0  0  0  0
   36.1670   27.5220   31.7140 H   0  0  0  0  0  0  0  0  0  0  0  0
   35.0590   21.6100   32.3640 C   0  0  0  0  0  3  0  0  0  0  0  0
   35.9950   22.3320   31.6470 C   0  0  0  0  0  0  0  0  0  0  0  0
   36.9100   21.6010   30.9200 C   0  0  0  0  0  0  0  0  0  0  0  0
   37.6440   22.1720   30.3580 H   0  0  0  0  0  0  0  0  0  0  0  0
   36.9750   20.2300   30.8450 C   0  0  0  0  0  0  0  0  0  0  0  0
   37.7830   19.3680   30.1990 N   0  0  0  0  0  0  0  0  0  0  0  0
   37.3510   18.1340   30.5130 C   0  0  0  0  0  0  0  0  0  0  0  0
   37.8090   17.2290   30.1390 H   0  0  0  0  0  0  0  0  0  0  0  0
   36.2880   18.2370   31.3430 N   0  0  0  0  0  0  0  0  0  0  0  0
   36.0160   19.5410   31.5790 C   0  0  0  0  0  0  0  0  0  0  0  0
   35.0580   20.2130   32.3380 C   0  0  0  0  0  3  0  0  0  0  0  0
   38.5970   19.6360   29.5700 H   0  0  0  0  0  0  0  0  0  0  0  0
   37.7990   26.4330   33.5100 C   0  0  1  0  0  3  0  0  0  0  0  0
   38.1050   27.6790   33.3660 O   0  0  0  0  0  1  0  0  0  0  0  0
   38.3370   25.6980   34.7100 C   0  0  2  0  0  0  0  0  0  0  0  0
   39.6710   26.4420   35.1640 C   0  0  0  0  0  0  0  0  0  0  0  0
   39.5900   25.0230   34.6580 C   0  0  1  0  0  0  0  0  0  0  0  0
   37.6400   25.6650   35.5790 H   0  0  0  0  0  0  0  0  0  0  0  0
   40.0550   27.2280   34.5350 H   0  0  0  0  0  0  0  0  0  0  0  0
   39.7580   26.5840   36.2680 H   0  0  0  0  0  0  0  0  0  0  0  0
   40.1130   24.9240   33.6540 H   0  0  0  0  0  0  0  0  0  0  0  0
   40.0570   23.9970   35.5940 C   0  0  0  0  0  0  0  0  0  0  0  0
   39.2480   23.7100   36.6910 C   0  0  0  0  0  0  0  0  0  0  0  0
   39.6930   22.7540   37.5640 C   0  0  0  0  0  0  0  0  0  0  0  0
   40.8950   22.0860   37.3860 C   0  0  0  0  0  0  0  0  0  0  0  0
   41.6590   22.4000   36.2920 C   0  0  0  0  0  0  0  0  0  0  0  0
   41.2350   23.3390   35.4250 N   0  0  0  0  0  0  0  0  0  0  0  0
   38.3100   24.2270   36.8370 H   0  0  0  0  0  0  0  0  0  0  0  0
   39.1080   22.4880   38.4330 H   0  0  0  0  0  0  0  0  0  0  0  0
   41.2660   21.3240   38.0660 H   0  0  0  0  0  0  0  0  0  0  0  0
   42.6210   21.9510   36.0360 H   0  0  0  0  0  0  0  0  0  0  0  0
  1  2  1  0  0  0  0
  2  8  1  0  0  0  0
  2  3  2  0  0  0  0
  3 21  1  0  0  0  0
  4  3  1  0  0  0  0
  5  4  2  0  0  0  0
  6  1  2  0  0  0  0
  6  5  1  0  0  0  0
  7  1  1  0  0  0  0
 10  5  1  0  0  0  0
 10  9  2  0  0  0  0
 11 10  1  0  0  0  0
 12 11  1  0  0  0  0
 13 11  2  0  0  0  0
 13 18  1  0  0  0  0
 14 15  1  0  0  0  0
 14 13  1  0  0  0  0
 15 17  2  0  0  0  0
 16 15  1  0  0  0  0
 17 18  1  0  0  0  0
 18 19  2  0  0  0  0
 19  9  1  0  0  0  0
 20 14  1  0  0  0  0
 21 22  1  1  0  0  0
 21 23  1  0  0  0  0
 23 24  1  0  0  0  0
 23 26  1  1  0  0  0
 24 28  1  0  0  0  0
 25 29  1  6  0  0  0
 25 23  1  0  0  0  0
 25 24  1  0  0  0  0
 25 30  1  0  0  0  0
 27 24  1  0  0  0  0
 30 31  1  0  0  0  0
 31 36  1  0  0  0  0
 31 32  2  0  0  0  0
 32 37  1  0  0  0  0
 33 32  1  0  0  0  0
 33 38  1  0  0  0  0
 34 33  2  0  0  0  0
 35 30  2  0  0  0  0
 35 34  1  0  0  0  0
 39 34  1  0  0  0  0
M  END
>  <minimizedAffinity>
-6.05671406

$$$$

 OpenBabel03272501373D

 39 43  0  0  1  0  0  0  0  0999 V2000
   37.6140   29.0170   30.4370 C   0  0  0  0  0  0  0  0  0  0  0  0
   38.2510   27.9240   30.9790 C   0  0  0  0  0  0  0  0  0  0  0  0
   37.8250   27.3150   32.1770 C   0  0  0  0  0  0  0  0  0  0  0  0
   36.7790   27.8500   32.7550 N   0  0  0  0  0  0  0  0  0  0  0  0
   36.1510   28.9390   32.2040 C   0  0  0  0  0  0  0  0  0  0  0  0
   36.5440   29.5180   31.0800 N   0  0  0  0  0  0  0  0  0  0  0  0
   37.9660   29.4620   29.5160 H   0  0  0  0  0  0  0  0  0  0  0  0
   39.1240   27.5260   30.4410 H   0  0  0  0  0  0  0  0  0  0  0  0
   35.1120   30.3350   33.9870 C   0  0  0  0  0  3  0  0  0  0  0  0
   34.9920   29.4690   32.9160 C   0  0  0  0  0  0  0  0  0  0  0  0
   33.7100   29.1220   32.5460 C   0  0  0  0  0  0  0  0  0  0  0  0
   33.6200   28.4420   31.7040 H   0  0  0  0  0  0  0  0  0  0  0  0
   32.5500   29.5580   33.1410 C   0  0  0  0  0  0  0  0  0  0  0  0
   31.2430   29.3270   32.9150 N   0  0  0  0  0  0  0  0  0  0  0  0
   30.5680   30.0410   33.8330 C   0  0  0  0  0  0  0  0  0  0  0  0
   29.4890   30.0560   33.9020 H   0  0  0  0  0  0  0  0  0  0  0  0
   31.4520   30.7030   34.6150 N   0  0  0  0  0  0  0  0  0  0  0  0
   32.7140   30.4280   34.2130 C   0  0  0  0  0  0  0  0  0  0  0  0
   33.9800   30.8230   34.6450 C   0  0  0  0  0  3  0  0  0  0  0  0
   30.8480   28.7000   32.1550 H   0  0  0  0  0  0  0  0  0  0  0  0
   38.5710   26.2000   32.6800 C   0  0  1  0  0  3  0  0  0  0  0  0
   39.3140   25.4400   31.9490 O   0  0  0  0  0  1  0  0  0  0  0  0
   38.4820   25.9100   34.1570 C   0  0  2  0  0  0  0  0  0  0  0  0
   39.8270   26.4410   34.8260 C   0  0  0  0  0  0  0  0  0  0  0  0
   39.3810   25.0000   34.7830 C   0  0  1  0  0  0  0  0  0  0  0  0
   37.6190   26.3970   34.6680 H   0  0  0  0  0  0  0  0  0  0  0  0
   40.6150   26.7910   34.1790 H   0  0  0  0  0  0  0  0  0  0  0  0
   39.6700   26.9940   35.7830 H   0  0  0  0  0  0  0  0  0  0  0  0
   40.0750   24.3840   34.1270 H   0  0  0  0  0  0  0  0  0  0  0  0
   39.1930   24.3640   36.0890 C   0  0  0  0  0  0  0  0  0  0  0  0
   38.1230   24.7970   36.8680 C   0  0  0  0  0  0  0  0  0  0  0  0
   37.9570   24.2010   38.0900 C   0  0  0  0  0  0  0  0  0  0  0  0
   38.8050   23.2070   38.5530 C   0  0  0  0  0  0  0  0  0  0  0  0
   39.8450   22.8120   37.7530 C   0  0  0  0  0  0  0  0  0  0  0  0
   40.0220   23.3890   36.5500 N   0  0  0  0  0  0  0  0  0  0  0  0
   37.4580   25.5720   36.5140 H   0  0  0  0  0  0  0  0  0  0  0  0
   37.1440   24.4950   38.7390 H   0  0  0  0  0  0  0  0  0  0  0  0
   38.6900   22.7210   39.5190 H   0  0  0  0  0  0  0  0  0  0  0  0
   40.5820   22.0440   37.9980 H   0  0  0  0  0  0  0  0  0  0  0  0
  1  2  2  0  0  0  0
  1  6  1  0  0  0  0
  2  3  1  0  0  0  0
  3 21  1  0  0  0  0
  3  4  2  0  0  0  0
  5  4  1  0  0  0  0
  5 10  1  0  0  0  0
  6  5  2  0  0  0  0
  7  1  1  0  0  0  0
  8  2  1  0  0  0  0
  9 19  1  0  0  0  0
 10  9  2  0  0  0  0
 11 10  1  0  0  0  0
 11 13  2  0  0  0  0
 12 11  1  0  0  0  0
 13 18  1  0  0  0  0
 14 13  1  0  0  0  0
 14 15  1  0  0  0  0
 15 16  1  0  0  0  0
 15 17  2  0  0  0  0
 18 17  1  0  0  0  0
 18 19  2  0  0  0  0
 20 14  1  0  0  0  0
 21 22  1  1  0  0  0
 21 23  1  0  0  0  0
 23 26  1  1  0  0  0
 23 25  1  0  0  0  0
 23 24  1  0  0  0  0
 24 28  1  0  0  0  0
 25 29  1  6  0  0  0
 25 24  1  0  0  0  0
 25 30  1  0  0  0  0
 27 24  1  0  0  0  0
 30 35  2  0  0  0  0
 30 31  1  0  0  0  0
 31 32  2  0  0  0  0
 32 33  1  0  0  0  0
 32 37  1  0  0  0  0
 33 38  1  0  0  0  0
 34 39  1  0  0  0  0
 34 33  2  0  0  0  0
 35 34  1  0  0  0  0
 36 31  1  0  0  0  0
M  END
>  <minimizedAffinity>
-6.04972506

$$$$

 OpenBabel03272501373D

 39 43  0  0  1  0  0  0  0  0999 V2000
   37.9600   26.8550   35.0660 C   0  0  0  0  0  0  0  0  0  0  0  0
   37.5860   26.1300   33.9580 C   0  0  0  0  0  0  0  0  0  0  0  0
   36.6660   26.6170   33.0080 C   0  0  0  0  0  0  0  0  0  0  0  0
   36.1790   27.8110   33.2370 N   0  0  0  0  0  0  0  0  0  0  0  0
   36.5590   28.5250   34.3460 C   0  0  0  0  0  0  0  0  0  0  0  0
   37.4230   28.0750   35.2440 N   0  0  0  0  0  0  0  0  0  0  0  0
   38.6690   26.4530   35.7780 H   0  0  0  0  0  0  0  0  0  0  0  0
   38.0350   25.1340   33.8270 H   0  0  0  0  0  0  0  0  0  0  0  0
   35.5120   30.6030   33.4570 C   0  0  0  0  0  3  0  0  0  0  0  0
   35.9660   29.8460   34.5210 C   0  0  0  0  0  0  0  0  0  0  0  0
   35.8310   30.4050   35.7740 C   0  0  0  0  0  0  0  0  0  0  0  0
   36.1890   29.8080   36.6080 H   0  0  0  0  0  0  0  0  0  0  0  0
   35.2900   31.6370   36.0580 C   0  0  0  0  0  0  0  0  0  0  0  0
   35.0840   32.3250   37.1960 N   0  0  0  0  0  0  0  0  0  0  0  0
   34.5110   33.4880   36.8380 C   0  0  0  0  0  0  0  0  0  0  0  0
   34.2260   34.2550   37.5450 H   0  0  0  0  0  0  0  0  0  0  0  0
   34.3670   33.5130   35.4930 N   0  0  0  0  0  0  0  0  0  0  0  0
   34.8450   32.3650   34.9600 C   0  0  0  0  0  0  0  0  0  0  0  0
   34.9490   31.8650   33.6630 C   0  0  0  0  0  3  0  0  0  0  0  0
   35.3340   31.9930   38.1740 H   0  0  0  0  0  0  0  0  0  0  0  0
   36.3150   25.7770   31.9020 C   0  0  1  0  0  3  0  0  0  0  0  0
   35.7730   26.2060   30.8120 O   0  0  0  0  0  1  0  0  0  0  0  0
   36.6100   24.3040   32.0250 C   0  0  2  0  0  0  0  0  0  0  0  0
   37.4460   23.8780   30.7370 C   0  0  0  0  0  0  0  0  0  0  0  0
   36.0730   23.3670   31.0970 C   0  0  1  0  0  0  0  0  0  0  0  0
   37.1970   24.0280   32.9310 H   0  0  0  0  0  0  0  0  0  0  0  0
   37.5720   24.6030   29.9480 H   0  0  0  0  0  0  0  0  0  0  0  0
   38.3120   23.2100   30.9580 H   0  0  0  0  0  0  0  0  0  0  0  0
   35.2990   23.7270   30.3450 H   0  0  0  0  0  0  0  0  0  0  0  0
   35.9770   21.9180   31.2920 C   0  0  0  0  0  0  0  0  0  0  0  0
   35.0010   21.4500   32.1680 C   0  0  0  0  0  0  0  0  0  0  0  0
   34.9200   20.0950   32.3490 C   0  0  0  0  0  0  0  0  0  0  0  0
   35.7640   19.2070   31.7000 C   0  0  0  0  0  0  0  0  0  0  0  0
   36.7100   19.7110   30.8470 C   0  0  0  0  0  0  0  0  0  0  0  0
   36.8030   21.0410   30.6590 N   0  0  0  0  0  0  0  0  0  0  0  0
   34.3390   22.1360   32.6770 H   0  0  0  0  0  0  0  0  0  0  0  0
   34.1810   19.6730   33.0160 H   0  0  0  0  0  0  0  0  0  0  0  0
   35.7160   18.1290   31.8300 H   0  0  0  0  0  0  0  0  0  0  0  0
   37.4340   19.1240   30.2770 H   0  0  0  0  0  0  0  0  0  0  0  0
  1  6  1  0  0  0  0
  1  7  1  0  0  0  0
  2  1  2  0  0  0  0
  3  4  2  0  0  0  0
  3  2  1  0  0  0  0
  4  5  1  0  0  0  0
  5 10  1  0  0  0  0
  5  6  2  0  0  0  0
  8  2  1  0  0  0  0
  9 19  2  0  0  0  0
  9 10  1  0  0  0  0
 10 11  2  0  0  0  0
 11 13  1  0  0  0  0
 11 12  1  0  0  0  0
 13 14  1  0  0  0  0
 14 20  1  0  0  0  0
 15 14  1  0  0  0  0
 15 16  1  0  0  0  0
 17 15  2  0  0  0  0
 18 17  1  0  0  0  0
 18 13  2  0  0  0  0
 19 18  1  0  0  0  0
 21 22  1  6  0  0  0
 21 23  1  0  0  0  0
 21  3  1  0  0  0  0
 23 26  1  1  0  0  0
 24 28  1  0  0  0  0
 24 25  1  0  0  0  0
 24 23  1  0  0  0  0
 25 29  1  6  0  0  0
 25 30  1  0  0  0  0
 25 23  1  0  0  0  0
 27 24  1  0  0  0  0
 30 31  1  0  0  0  0
 31 32  2  0  0  0  0
 31 36  1  0  0  0  0
 32 37  1  0  0  0  0
 33 38  1  0  0  0  0
 33 32  1  0  0  0  0
 34 33  2  0  0  0  0
 35 34  1  0  0  0  0
 35 30  2  0  0  0  0
 39 34  1  0  0  0  0
M  END
>  <minimizedAffinity>
-6.00852823

$$$$

 OpenBabel03272501373D

 39 43  0  0  1  0  0  0  0  0999 V2000
   37.4980   22.8220   36.9220 C   0  0  0  0  0  0  0  0  0  0  0  0
   38.2980   23.8840   36.5680 C   0  0  0  0  0  0  0  0  0  0  0  0
   38.6900   24.1280   35.2350 C   0  0  0  0  0  0  0  0  0  0  0  0
   38.2470   23.2810   34.3410 N   0  0  0  0  0  0  0  0  0  0  0  0
   37.4480   22.2250   34.7060 C   0  0  0  0  0  0  0  0  0  0  0  0
   37.0770   21.9880   35.9550 N   0  0  0  0  0  0  0  0  0  0  0  0
   37.2160   22.6610   37.9540 H   0  0  0  0  0  0  0  0  0  0  0  0
   38.6340   24.5570   37.3700 H   0  0  0  0  0  0  0  0  0  0  0  0
   35.8540   20.5660   33.7510 C   0  0  0  0  0  3  0  0  0  0  0  0
   37.0010   21.3310   33.6430 C   0  0  0  0  0  0  0  0  0  0  0  0
   37.7130   21.2100   32.4690 C   0  0  0  0  0  0  0  0  0  0  0  0
   38.6130   21.8130   32.3880 H   0  0  0  0  0  0  0  0  0  0  0  0
   37.3870   20.4030   31.4040 C   0  0  0  0  0  0  0  0  0  0  0  0
   37.9550   20.1650   30.2070 N   0  0  0  0  0  0  0  0  0  0  0  0
   37.1700   19.2670   29.5860 C   0  0  0  0  0  0  0  0  0  0  0  0
   37.3730   18.8810   28.5970 H   0  0  0  0  0  0  0  0  0  0  0  0
   36.1300   18.9570   30.3950 N   0  0  0  0  0  0  0  0  0  0  0  0
   36.2280   19.6500   31.5530 C   0  0  0  0  0  0  0  0  0  0  0  0
   35.4560   19.7210   32.7120 C   0  0  0  0  0  3  0  0  0  0  0  0
   38.8490   20.6120   29.8460 H   0  0  0  0  0  0  0  0  0  0  0  0
   39.5490   25.2420   34.9680 C   0  0  1  0  0  3  0  0  0  0  0  0
   40.8160   25.2520   35.2150 O   0  0  0  0  0  1  0  0  0  0  0  0
   38.9290   26.4700   34.3530 C   0  0  2  0  0  0  0  0  0  0  0  0
   38.5230   27.4450   35.5450 C   0  0  0  0  0  0  0  0  0  0  0  0
   37.5620   26.7960   34.5820 C   0  0  1  0  0  0  0  0  0  0  0  0
   39.6010   27.0250   33.6580 H   0  0  0  0  0  0  0  0  0  0  0  0
   38.6170   27.0820   36.5560 H   0  0  0  0  0  0  0  0  0  0  0  0
   38.7810   28.5160   35.3630 H   0  0  0  0  0  0  0  0  0  0  0  0
   36.9040   26.0390   35.1180 H   0  0  0  0  0  0  0  0  0  0  0  0
   36.7510   27.7220   33.7870 C   0  0  0  0  0  0  0  0  0  0  0  0
   36.1340   28.7750   34.4560 C   0  0  0  0  0  0  0  0  0  0  0  0
   35.3750   29.6350   33.7070 C   0  0  0  0  0  0  0  0  0  0  0  0
   35.2110   29.4820   32.3390 C   0  0  0  0  0  0  0  0  0  0  0  0
   35.8370   28.4310   31.7210 C   0  0  0  0  0  0  0  0  0  0  0  0
   36.5870   27.5780   32.4440 N   0  0  0  0  0  0  0  0  0  0  0  0
   36.2560   28.9010   35.5230 H   0  0  0  0  0  0  0  0  0  0  0  0
   34.8720   30.4710   34.1720 H   0  0  0  0  0  0  0  0  0  0  0  0
   34.6140   30.1520   31.7270 H   0  0  0  0  0  0  0  0  0  0  0  0
   35.7910   28.1990   30.6550 H   0  0  0  0  0  0  0  0  0  0  0  0
  1  7  1  0  0  0  0
  2  1  1  0  0  0  0
  2  8  1  0  0  0  0
  3  2  2  0  0  0  0
  4  5  2  0  0  0  0
  4  3  1  0  0  0  0
  5  6  1  0  0  0  0
  6  1  2  0  0  0  0
 10  9  1  0  0  0  0
 10  5  1  0  0  0  0
 11 10  2  0  0  0  0
 12 11  1  0  0  0  0
 13 18  2  0  0  0  0
 13 11  1  0  0  0  0
 14 13  1  0  0  0  0
 15 14  1  0  0  0  0
 15 17  2  0  0  0  0
 16 15  1  0  0  0  0
 17 18  1  0  0  0  0
 18 19  1  0  0  0  0
 19  9  2  0  0  0  0
 20 14  1  0  0  0  0
 21 22  1  6  0  0  0
 21  3  1  0  0  0  0
 23 26  1  6  0  0  0
 23 25  1  0  0  0  0
 23 21  1  0  0  0  0
 23 24  1  0  0  0  0
 24 27  1  0  0  0  0
 25 29  1  1  0  0  0
 25 24  1  0  0  0  0
 28 24  1  0  0  0  0
 30 31  1  0  0  0  0
 30 25  1  0  0  0  0
 31 36  1  0  0  0  0
 32 37  1  0  0  0  0
 32 31  2  0  0  0  0
 33 32  1  0  0  0  0
 34 33  2  0  0  0  0
 34 35  1  0  0  0  0
 35 30  2  0  0  0  0
 38 33  1  0  0  0  0
 39 34  1  0  0  0  0
M  END
>  <minimizedAffinity>
-5.99243402

$$$$

 OpenBabel03272501373D

 39 43  0  0  1  0  0  0  0  0999 V2000
   36.3190   28.5340   31.3430 C   0  0  0  0  0  0  0  0  0  0  0  0
   37.1850   27.5720   31.8070 C   0  0  0  0  0  0  0  0  0  0  0  0
   37.4320   27.3720   33.1810 C   0  0  0  0  0  0  0  0  0  0  0  0
   36.7850   28.1590   34.0020 N   0  0  0  0  0  0  0  0  0  0  0  0
   35.9220   29.1150   33.5280 C   0  0  0  0  0  0  0  0  0  0  0  0
   35.6850   29.3110   32.2390 N   0  0  0  0  0  0  0  0  0  0  0  0
   36.1510   28.6630   30.2810 H   0  0  0  0  0  0  0  0  0  0  0  0
   37.6950   26.9440   31.0610 H   0  0  0  0  0  0  0  0  0  0  0  0
   35.9250   30.8270   35.3370 C   0  0  0  0  0  3  0  0  0  0  0  0
   35.2440   29.9480   34.5160 C   0  0  0  0  0  0  0  0  0  0  0  0
   33.8760   29.8930   34.6750 C   0  0  0  0  0  0  0  0  0  0  0  0
   33.3440   29.2010   34.0270 H   0  0  0  0  0  0  0  0  0  0  0  0
   33.1340   30.6280   35.5690 C   0  0  0  0  0  0  0  0  0  0  0  0
   31.8200   30.6990   35.8530 N   0  0  0  0  0  0  0  0  0  0  0  0
   31.6940   31.6090   36.8360 C   0  0  0  0  0  0  0  0  0  0  0  0
   30.7450   31.8830   37.2760 H   0  0  0  0  0  0  0  0  0  0  0  0
   32.9180   32.0910   37.1510 N   0  0  0  0  0  0  0  0  0  0  0  0
   33.8560   31.4990   36.3760 C   0  0  0  0  0  0  0  0  0  0  0  0
   35.2430   31.6090   36.2730 C   0  0  0  0  0  3  0  0  0  0  0  0
   31.0530   30.1360   35.3810 H   0  0  0  0  0  0  0  0  0  0  0  0
   38.3750   26.3640   33.5670 C   0  0  1  0  0  3  0  0  0  0  0  0
   39.6140   26.6000   33.8370 O   0  0  0  0  0  1  0  0  0  0  0  0
   37.8760   24.9460   33.6700 C   0  0  2  0  0  0  0  0  0  0  0  0
   39.0600   23.9910   33.1950 C   0  0  0  0  0  0  0  0  0  0  0  0
   37.7230   24.1340   32.5100 C   0  0  1  0  0  0  0  0  0  0  0  0
   37.5700   24.6410   34.6970 H   0  0  0  0  0  0  0  0  0  0  0  0
   39.9430   24.4440   32.7740 H   0  0  0  0  0  0  0  0  0  0  0  0
   39.2070   23.0930   33.8420 H   0  0  0  0  0  0  0  0  0  0  0  0
   37.8440   24.6170   31.4880 H   0  0  0  0  0  0  0  0  0  0  0  0
   36.9330   22.9030   32.4170 C   0  0  0  0  0  0  0  0  0  0  0  0
   36.1750   22.7110   31.2650 C   0  0  0  0  0  0  0  0  0  0  0  0
   35.4350   21.5600   31.1870 C   0  0  0  0  0  0  0  0  0  0  0  0
   35.4250   20.6140   32.2000 C   0  0  0  0  0  0  0  0  0  0  0  0
   36.1870   20.8440   33.3150 C   0  0  0  0  0  0  0  0  0  0  0  0
   36.9180   21.9700   33.4070 N   0  0  0  0  0  0  0  0  0  0  0  0
   36.1770   23.4440   30.4720 H   0  0  0  0  0  0  0  0  0  0  0  0
   34.8280   21.3560   30.3170 H   0  0  0  0  0  0  0  0  0  0  0  0
   34.8460   19.6950   32.1580 H   0  0  0  0  0  0  0  0  0  0  0  0
   36.2670   20.1830   34.1810 H   0  0  0  0  0  0  0  0  0  0  0  0
  1  2  2  0  0  0  0
  1  6  1  0  0  0  0
  2  3  1  0  0  0  0
  3 21  1  0  0  0  0
  3  4  2  0  0  0  0
  5  4  1  0  0  0  0
  5 10  1  0  0  0  0
  6  5  2  0  0  0  0
  7  1  1  0  0  0  0
  8  2  1  0  0  0  0
  9 19  1  0  0  0  0
 10 11  1  0  0  0  0
 10  9  2  0  0  0  0
 11 13  2  0  0  0  0
 12 11  1  0  0  0  0
 13 14  1  0  0  0  0
 13 18  1  0  0  0  0
 14 15  1  0  0  0  0
 15 17  2  0  0  0  0
 15 16  1  0  0  0  0
 18 17  1  0  0  0  0
 19 18  2  0  0  0  0
 20 14  1  0  0  0  0
 21 23  1  0  0  0  0
 21 22  1  1  0  0  0
 23 26  1  1  0  0  0
 24 23  1  0  0  0  0
 24 28  1  0  0  0  0
 25 29  1  6  0  0  0
 25 24  1  0  0  0  0
 25 23  1  0  0  0  0
 27 24  1  0  0  0  0
 30 25  1  0  0  0  0
 30 35  1  0  0  0  0
 31 30  2  0  0  0  0
 32 31  1  0  0  0  0
 32 33  2  0  0  0  0
 33 34  1  0  0  0  0
 34 35  2  0  0  0  0
 34 39  1  0  0  0  0
 36 31  1  0  0  0  0
 37 32  1  0  0  0  0
 38 33  1  0  0  0  0
M  END
>  <minimizedAffinity>
-5.84395409

$$$$
