
 OpenBabel03272509213D

 49 54  0  0  0  0  0  0  0  0999 V2000
   40.2030   31.2790   44.1620 C   0  0  0  0  0  0  0  0  0  0  0  0
   39.5210   31.9800   45.1460 C   0  0  0  0  0  0  0  0  0  0  0  0
   38.3480   32.6270   44.7970 C   0  0  0  0  0  0  0  0  0  0  0  0
   37.8470   32.5850   43.4920 C   0  0  0  0  0  0  0  0  0  0  0  0
   36.7700   33.0930   42.8610 N   0  0  0  0  0  0  0  0  0  0  0  0
   36.7740   32.7340   41.5660 C   0  0  0  0  0  0  0  0  0  0  0  0
   37.8900   31.9730   41.3680 N   0  0  0  0  0  0  0  0  0  0  0  0
   38.5540   31.8770   42.5470 C   0  0  0  0  0  0  0  0  0  0  0  0
   39.7190   31.2310   42.8760 C   0  0  0  0  0  0  0  0  0  0  0  0
   41.1030   30.8110   44.5300 H   0  0  0  0  0  0  0  0  0  0  0  0
   37.7070   33.2140   45.4560 H   0  0  0  0  0  0  0  0  0  0  0  0
   36.0360   33.6810   43.3130 H   0  0  0  0  0  0  0  0  0  0  0  0
   36.0340   32.9990   40.8310 H   0  0  0  0  0  0  0  0  0  0  0  0
   40.9980   29.2240   42.0640 C   0  0  0  0  0  3  0  0  0  0  0  0
   40.4890   30.4740   41.8920 C   0  0  0  0  0  0  0  0  0  0  0  0
   40.6960   31.1240   40.6920 C   0  0  0  0  0  0  0  0  0  0  0  0
   40.3180   32.1320   40.4790 H   0  0  0  0  0  0  0  0  0  0  0  0
   41.4140   30.4910   39.6920 C   0  0  0  0  0  0  0  0  0  0  0  0
   41.7610   30.8770   38.4510 N   0  0  0  0  0  0  0  0  0  0  0  0
   42.4760   29.8780   37.8630 C   0  0  0  0  0  0  0  0  0  0  0  0
   42.9210   29.8190   36.8770 H   0  0  0  0  0  0  0  0  0  0  0  0
   42.5920   28.8330   38.7350 N   0  0  0  0  0  0  0  0  0  0  0  0
   41.9430   29.2080   39.8530 C   0  0  0  0  0  0  0  0  0  0  0  0
   41.7190   28.5720   41.0770 C   0  0  0  0  0  3  0  0  0  0  0  0
   41.5370   31.7920   37.9780 H   0  0  0  0  0  0  0  0  0  0  0  0
   39.8160   32.1570   46.4650 O   0  0  0  0  0  0  0  0  0  0  0  0
   37.9710   31.2860   47.7730 C   0  0  0  0  0  0  0  0  0  0  0  0
   37.0630   31.3000   48.8170 C   0  0  0  0  0  0  0  0  0  0  0  0
   37.1880   32.3990   49.6720 C   0  0  0  0  0  0  0  0  0  0  0  0
   38.1560   33.3900   49.4710 C   0  0  0  0  0  0  0  0  0  0  0  0
   39.0360   33.2810   48.3720 C   0  0  0  0  0  0  0  0  0  0  0  0
   38.9230   32.1910   47.5120 C   0  0  0  0  0  0  0  0  0  0  0  0
   36.4970   32.4570   50.5090 H   0  0  0  0  0  0  0  0  0  0  0  0
   38.2260   34.2230   50.1490 H   0  0  0  0  0  0  0  0  0  0  0  0
   39.7770   34.0480   48.2260 H   0  0  0  0  0  0  0  0  0  0  0  0
   34.9000   30.3040   48.2890 C   0  0  0  0  0  0  0  0  0  0  0  0
   36.0750   30.2970   49.0280 C   0  0  0  0  0  0  0  0  0  0  0  0
   36.2340   29.2700   49.9750 C   0  0  0  0  0  0  0  0  0  0  0  0
   35.2450   28.3510   50.1160 N   0  0  0  0  0  0  0  0  0  0  0  0
   34.1120   28.4030   49.3660 C   0  0  0  0  0  0  0  0  0  0  0  0
   33.9500   29.3740   48.4630 N   0  0  0  0  0  0  0  0  0  0  0  0
   34.6790   31.0470   47.5370 H   0  0  0  0  0  0  0  0  0  0  0  0
   33.4540   27.5770   49.6360 H   0  0  0  0  0  0  0  0  0  0  0  0
   37.4720   29.2100   50.7990 C   0  0  0  0  0  0  0  0  0  0  0  0
   38.2860   28.6830   50.2620 H   0  0  0  0  0  0  0  0  0  0  0  0
   37.2630   28.6640   51.7430 H   0  0  0  0  0  0  0  0  0  0  0  0
   37.7340   30.2360   51.0910 H   0  0  0  0  0  0  0  0  0  0  0  0
   37.9240   30.2260   46.8640 O   0  0  0  0  0  0  0  0  0  0  0  0
   38.7250   29.6390   46.8060 H   0  0  0  0  0  0  0  0  0  0  0  0
  1 10  1  0  0  0  0
  1  2  1  0  0  0  0
  2 26  1  0  0  0  0
  3  2  2  0  0  0  0
  3 11  1  0  0  0  0
  4  3  1  0  0  0  0
  5 12  1  0  0  0  0
  5  4  1  0  0  0  0
  6  5  1  0  0  0  0
  7  6  2  0  0  0  0
  7  8  1  0  0  0  0
  8  9  1  0  0  0  0
  8  4  2  0  0  0  0
  9  1  2  0  0  0  0
 13  6  1  0  0  0  0
 15 14  1  0  0  0  0
 15  9  1  0  0  0  0
 16 15  2  0  0  0  0
 17 16  1  0  0  0  0
 18 23  2  0  0  0  0
 18 16  1  0  0  0  0
 19 18  1  0  0  0  0
 20 19  1  0  0  0  0
 20 22  2  0  0  0  0
 21 20  1  0  0  0  0
 22 23  1  0  0  0  0
 23 24  1  0  0  0  0
 24 14  2  0  0  0  0
 25 19  1  0  0  0  0
 26 32  1  0  0  0  0
 27 28  1  0  0  0  0
 28 37  1  0  0  0  0
 28 29  2  0  0  0  0
 29 33  1  0  0  0  0
 30 29  1  0  0  0  0
 30 34  1  0  0  0  0
 31 30  2  0  0  0  0
 32 27  2  0  0  0  0
 32 31  1  0  0  0  0
 35 31  1  0  0  0  0
 36 41  2  0  0  0  0
 36 37  1  0  0  0  0
 37 38  2  0  0  0  0
 38 39  1  0  0  0  0
 38 44  1  0  0  0  0
 40 43  1  0  0  0  0
 40 39  2  0  0  0  0
 41 40  1  0  0  0  0
 42 36  1  0  0  0  0
 44 47  1  0  0  0  0
 44 46  1  0  0  0  0
 45 44  1  0  0  0  0
 48 27  1  0  0  0  0
 49 48  1  0  0  0  0
M  END
>  <minimizedAffinity>
-8.05539894

>  <minimizedRMSD>
0.618166327

$$$$
