
 OpenBabel03272510233D

 34 38  0  0  0  0  0  0  0  0999 V2000
   36.3510   30.0110   47.1550 C   0  0  0  0  0  0  0  0  0  0  0  0
   37.0620   30.6600   48.1500 C   0  0  0  0  0  0  0  0  0  0  0  0
   37.9290   31.6820   47.8200 C   0  0  0  0  0  0  0  0  0  0  0  0
   38.0550   32.0230   46.4830 C   0  0  0  0  0  0  0  0  0  0  0  0
   38.8360   32.9840   45.9190 N   0  0  0  0  0  0  0  0  0  0  0  0
   38.6250   32.9460   44.5960 C   0  0  0  0  0  0  0  0  0  0  0  0
   37.7370   31.9940   44.3010 N   0  0  0  0  0  0  0  0  0  0  0  0
   37.3610   31.3990   45.4600 C   0  0  0  0  0  0  0  0  0  0  0  0
   36.4980   30.3770   45.8170 C   0  0  0  0  0  0  0  0  0  0  0  0
   35.6530   29.2030   47.3250 H   0  0  0  0  0  0  0  0  0  0  0  0
   38.4850   32.1880   48.5970 H   0  0  0  0  0  0  0  0  0  0  0  0
   39.4820   33.6300   46.4390 H   0  0  0  0  0  0  0  0  0  0  0  0
   35.9390   29.8710   45.0200 H   0  0  0  0  0  0  0  0  0  0  0  0
   39.1020   33.5730   42.2240 C   0  0  0  0  0  3  0  0  0  0  0  0
   39.2600   33.8110   43.5840 C   0  0  0  0  0  0  0  0  0  0  0  0
   40.0320   34.8850   44.0110 C   0  0  0  0  0  0  0  0  0  0  0  0
   40.1630   35.0830   45.0600 H   0  0  0  0  0  0  0  0  0  0  0  0
   40.6310   35.7000   43.0750 C   0  0  0  0  0  0  0  0  0  0  0  0
   41.4270   36.8060   43.1370 N   0  0  0  0  0  0  0  0  0  0  0  0
   41.7330   37.2100   41.8750 C   0  0  0  0  0  0  0  0  0  0  0  0
   42.3450   38.0530   41.5730 H   0  0  0  0  0  0  0  0  0  0  0  0
   41.1420   36.3790   40.9870 N   0  0  0  0  0  0  0  0  0  0  0  0
   40.4680   35.4570   41.7110 C   0  0  0  0  0  0  0  0  0  0  0  0
   39.7070   34.3960   41.2720 C   0  0  0  0  0  3  0  0  0  0  0  0
   41.7430   37.2570   44.0230 H   0  0  0  0  0  0  0  0  0  0  0  0
   37.4340   29.9260   51.8180 C   0  0  0  0  0  0  0  0  0  0  0  0
   37.7450   30.4000   50.5440 C   0  0  0  0  0  0  0  0  0  0  0  0
   36.8430   30.2100   49.5130 C   0  0  0  0  0  0  0  0  0  0  0  0
   35.6780   29.5580   49.7940 N   0  0  0  0  0  0  0  0  0  0  0  0
   35.3950   29.1030   51.0510 C   0  0  0  0  0  0  0  0  0  0  0  0
   36.2630   29.2860   52.0440 N   0  0  0  0  0  0  0  0  0  0  0  0
   38.1270   30.0670   52.6310 H   0  0  0  0  0  0  0  0  0  0  0  0
   38.6600   30.9050   50.3490 H   0  0  0  0  0  0  0  0  0  0  0  0
   34.4350   28.6090   51.1150 H   0  0  0  0  0  0  0  0  0  0  0  0
  1 10  1  0  0  0  0
  1  2  1  0  0  0  0
  2 28  1  0  0  0  0
  3  2  2  0  0  0  0
  3 11  1  0  0  0  0
  4  3  1  0  0  0  0
  5 12  1  0  0  0  0
  5  4  1  0  0  0  0
  6  5  1  0  0  0  0
  7  6  2  0  0  0  0
  7  8  1  0  0  0  0
  8  9  1  0  0  0  0
  8  4  2  0  0  0  0
  9  1  2  0  0  0  0
 13  9  1  0  0  0  0
 14 15  1  0  0  0  0
 15 16  2  0  0  0  0
 15  6  1  0  0  0  0
 16 17  1  0  0  0  0
 18 19  1  0  0  0  0
 18 16  1  0  0  0  0
 19 25  1  0  0  0  0
 20 19  1  0  0  0  0
 21 20  1  0  0  0  0
 22 23  1  0  0  0  0
 22 20  2  0  0  0  0
 23 18  2  0  0  0  0
 24 23  1  0  0  0  0
 24 14  2  0  0  0  0
 26 31  1  0  0  0  0
 26 32  1  0  0  0  0
 27 26  2  0  0  0  0
 28 29  2  0  0  0  0
 28 27  1  0  0  0  0
 29 30  1  0  0  0  0
 30 34  1  0  0  0  0
 30 31  2  0  0  0  0
 33 27  1  0  0  0  0
M  END
>  <minimizedAffinity>
2.48263717

>  <minimizedRMSD>
1.70654356

$$$$
