
 OpenBabel03272507203D

 33 36  0  0  1  0  0  0  0  0999 V2000
   37.6590   31.3670   49.4450 C   0  0  0  0  0  0  0  0  0  0  0  0
   38.3260   32.5580   49.6880 C   0  0  0  0  0  0  0  0  0  0  0  0
   38.9370   33.1230   48.5460 C   0  0  0  0  0  0  0  0  0  0  0  0
   38.8510   32.5130   47.3290 N   0  0  0  0  0  0  0  0  0  0  0  0
   38.1830   31.3460   47.1450 C   0  0  0  0  0  0  0  0  0  0  0  0
   37.5770   30.7670   48.2320 N   0  0  0  0  0  0  0  0  0  0  0  0
   38.3740   33.0100   50.6600 H   0  0  0  0  0  0  0  0  0  0  0  0
   39.4800   34.0520   48.6480 H   0  0  0  0  0  0  0  0  0  0  0  0
   39.2800   30.3090   45.2400 C   0  0  0  0  0  3  0  0  0  0  0  0
   38.0990   30.7050   45.8350 C   0  0  0  0  0  0  0  0  0  0  0  0
   36.8970   30.4860   45.1890 C   0  0  0  0  0  0  0  0  0  0  0  0
   35.9900   30.8080   45.6810 H   0  0  0  0  0  0  0  0  0  0  0  0
   36.8170   29.8800   43.9510 C   0  0  0  0  0  0  0  0  0  0  0  0
   35.8080   29.5550   43.1220 N   0  0  0  0  0  0  0  0  0  0  0  0
   36.3740   28.9750   42.0490 C   0  0  0  0  0  0  0  0  0  0  0  0
   35.7070   28.6380   41.2540 H   0  0  0  0  0  0  0  0  0  0  0  0
   37.7160   28.9330   42.1940 N   0  0  0  0  0  0  0  0  0  0  0  0
   38.0220   29.4940   43.3780 C   0  0  0  0  0  0  0  0  0  0  0  0
   39.2360   29.6990   44.0010 C   0  0  0  0  0  3  0  0  0  0  0  0
   34.8110   29.7640   43.3730 H   0  0  0  0  0  0  0  0  0  0  0  0
   36.9760   30.7500   50.6260 C   0  0  1  0  0  0  0  0  0  0  0  0
   36.1250   29.5680   50.4980 C   0  0  2  0  0  0  0  0  0  0  0  0
   37.5340   29.3560   50.9640 C   0  0  0  0  0  0  0  0  0  0  0  0
   36.9270   31.4600   51.4840 H   0  0  0  0  0  0  0  0  0  0  0  0
   35.2540   29.5820   51.2160 H   0  0  0  0  0  0  0  0  0  0  0  0
   38.2170   28.8700   50.2330 H   0  0  0  0  0  0  0  0  0  0  0  0
   37.7580   29.2180   52.0270 H   0  0  0  0  0  0  0  0  0  0  0  0
   35.7690   29.1780   49.2140 O   0  0  0  0  0  0  0  0  0  0  0  0
   34.5440   29.0040   48.6640 C   0  0  0  0  0  0  0  0  0  0  0  0
   34.3870   28.7600   47.4470 O   0  0  0  0  0  0  0  0  0  0  0  0
   33.5890   29.1470   49.6720 N   0  0  0  0  0  0  0  0  0  0  0  0
   33.4280   28.1240   49.9090 H   0  0  0  0  0  0  0  0  0  0  0  0
   33.3830   30.1770   49.8270 H   0  0  0  0  0  0  0  0  0  0  0  0
  1  2  1  0  0  0  0
  1 21  1  0  0  0  0
  2  7  1  0  0  0  0
  3  8  1  0  0  0  0
  3  2  2  0  0  0  0
  4  3  1  0  0  0  0
  5  4  2  0  0  0  0
  5  6  1  0  0  0  0
  6  1  2  0  0  0  0
  9 10  1  0  0  0  0
 10  5  1  0  0  0  0
 11 12  1  0  0  0  0
 11 10  2  0  0  0  0
 13 11  1  0  0  0  0
 14 20  1  0  0  0  0
 14 13  1  0  0  0  0
 15 17  2  0  0  0  0
 15 14  1  0  0  0  0
 16 15  1  0  0  0  0
 17 18  1  0  0  0  0
 18 13  2  0  0  0  0
 18 19  1  0  0  0  0
 19  9  2  0  0  0  0
 21 23  1  0  0  0  0
 21 24  1  1  0  0  0
 22 21  1  0  0  0  0
 22 23  1  0  0  0  0
 22 25  1  1  0  0  0
 23 27  1  0  0  0  0
 26 23  1  0  0  0  0
 28 22  1  0  0  0  0
 29 28  1  0  0  0  0
 29 31  1  0  0  0  0
 30 29  2  0  0  0  0
 31 33  1  0  0  0  0
 31 32  1  0  0  0  0
M  END
>  <minimizedAffinity>
-5.90427589

>  <minimizedRMSD>
1.38822997

$$$$
