
 OpenBabel03262521493D

 35 38  0  0  1  0  0  0  0  0999 V2000
   37.6380   30.1560   50.2750 C   0  0  0  0  0  0  0  0  0  0  0  0
   38.1900   31.4340   50.1660 C   0  0  0  0  0  0  0  0  0  0  0  0
   37.8770   32.1890   49.0100 C   0  0  0  0  0  0  0  0  0  0  0  0
   37.0600   31.6120   48.0900 N   0  0  0  0  0  0  0  0  0  0  0  0
   36.5490   30.3850   48.2280 C   0  0  0  0  0  0  0  0  0  0  0  0
   36.8440   29.6530   49.3330 N   0  0  0  0  0  0  0  0  0  0  0  0
   35.7220   29.8360   47.2430 N   0  0  0  0  0  0  0  0  0  0  0  0
   34.6610   28.8810   47.5590 C   0  0  0  0  0  0  0  0  0  0  0  0
   33.3700   29.3410   47.0130 C   0  0  0  0  0  0  0  0  0  0  0  0
   33.4050   30.3550   46.0590 N   0  0  0  0  0  0  0  0  0  0  0  0
   34.5580   30.6120   45.2900 C   0  0  0  0  0  0  0  0  0  0  0  0
   35.8670   30.1670   45.8500 C   0  0  1  0  0  0  0  0  0  0  0  0
   37.9170   29.6330   51.1810 H   0  0  0  0  0  0  0  0  0  0  0  0
   38.8340   31.9310   50.8560 H   0  0  0  0  0  0  0  0  0  0  0  0
   38.2330   33.1890   48.7940 H   0  0  0  0  0  0  0  0  0  0  0  0
   34.6770   28.6110   48.6320 H   0  0  0  0  0  0  0  0  0  0  0  0
   34.9760   27.9370   47.0270 H   0  0  0  0  0  0  0  0  0  0  0  0
   32.8170   28.4590   46.6000 H   0  0  0  0  0  0  0  0  0  0  0  0
   32.7320   29.6820   47.8800 H   0  0  0  0  0  0  0  0  0  0  0  0
   32.5620   30.3890   45.4710 H   0  0  0  0  0  0  0  0  0  0  0  0
   34.4060   30.2120   44.2680 H   0  0  0  0  0  0  0  0  0  0  0  0
   34.5970   31.7340   45.1480 H   0  0  0  0  0  0  0  0  0  0  0  0
   36.0160   29.1180   45.3820 H   0  0  0  0  0  0  0  0  0  0  0  0
   37.1750   32.1150   44.7800 C   0  0  0  0  0  0  0  0  0  0  0  0
   37.0450   30.9320   45.4770 C   0  0  0  0  0  0  0  0  0  0  0  0
   38.2600   30.3530   45.8780 C   0  0  0  0  0  0  0  0  0  0  0  0
   38.3040   29.4060   46.4410 H   0  0  0  0  0  0  0  0  0  0  0  0
   39.4600   30.9280   45.5930 C   0  0  0  0  0  0  0  0  0  0  0  0
   40.7440   30.5570   45.8750 N   0  0  0  0  0  0  0  0  0  0  0  0
   41.5880   31.4690   45.3750 C   0  0  0  0  0  0  0  0  0  0  0  0
   42.6610   31.4100   45.4600 H   0  0  0  0  0  0  0  0  0  0  0  0
   40.8670   32.4170   44.7780 N   0  0  0  0  0  0  0  0  0  0  0  0
   39.5650   32.1100   44.8970 C   0  0  0  0  0  0  0  0  0  0  0  0
   38.3880   32.7020   44.4900 C   0  0  0  0  0  0  0  0  0  0  0  0
   41.0510   29.6920   46.4040 H   0  0  0  0  0  0  0  0  0  0  0  0
  1 13  1  0  0  0  0
  2  1  1  0  0  0  0
  2 14  1  0  0  0  0
  3  2  2  0  0  0  0
  4  5  2  0  0  0  0
  4  3  1  0  0  0  0
  5  6  1  0  0  0  0
  6  1  2  0  0  0  0
  7  8  1  0  0  0  0
  7  5  1  0  0  0  0
  8 16  1  0  0  0  0
  9  8  1  0  0  0  0
  9 19  1  0  0  0  0
 10  9  1  0  0  0  0
 11 12  1  0  0  0  0
 11 10  1  0  0  0  0
 12 23  1  6  0  0  0
 12  7  1  0  0  0  0
 15  3  1  0  0  0  0
 17  8  1  0  0  0  0
 18  9  1  0  0  0  0
 20 10  1  0  0  0  0
 21 11  1  0  0  0  0
 22 11  1  0  0  0  0
 24 25  1  0  0  0  0
 25 12  1  0  0  0  0
 25 26  2  0  0  0  0
 26 27  1  0  0  0  0
 28 29  1  0  0  0  0
 28 26  1  0  0  0  0
 29 35  1  0  0  0  0
 30 31  1  0  0  0  0
 30 29  1  0  0  0  0
 32 33  1  0  0  0  0
 32 30  2  0  0  0  0
 33 28  2  0  0  0  0
 34 24  2  0  0  0  0
 34 33  1  0  0  0  0
M  END
>  <minimizedAffinity>
-5.42709208

>  <minimizedRMSD>
2.06649971

$$$$
