
 OpenBabel03262520173D

 21 23  0  0  0  0  0  0  0  0999 V2000
   37.0580   30.7120   46.7730 C   0  0  0  0  0  0  0  0  0  0  0  0
   37.6980   31.1390   47.9170 C   0  0  0  0  0  0  0  0  0  0  0  0
   38.7160   32.0640   47.8370 C   0  0  0  0  0  0  0  0  0  0  0  0
   39.2190   32.4040   48.7050 H   0  0  0  0  0  0  0  0  0  0  0  0
   39.0600   32.5380   46.5750 C   0  0  0  0  0  0  0  0  0  0  0  0
   40.0240   33.4490   46.2530 N   0  0  0  0  0  0  0  0  0  0  0  0
   39.9940   33.5960   44.9140 C   0  0  0  0  0  0  0  0  0  0  0  0
   40.6440   34.2570   44.3360 H   0  0  0  0  0  0  0  0  0  0  0  0
   39.0440   32.8110   44.3830 N   0  0  0  0  0  0  0  0  0  0  0  0
   38.4430   32.1380   45.3950 C   0  0  0  0  0  0  0  0  0  0  0  0
   37.4200   31.2020   45.5130 C   0  0  0  0  0  0  0  0  0  0  0  0
   40.6650   33.9420   46.8890 H   0  0  0  0  0  0  0  0  0  0  0  0
   37.3880   30.1590   51.5440 C   0  0  0  0  0  0  0  0  0  0  0  0
   37.9110   30.7530   50.3890 C   0  0  0  0  0  0  0  0  0  0  0  0
   37.2480   30.5680   49.1800 C   0  0  0  0  0  0  0  0  0  0  0  0
   36.1200   29.8160   49.1730 N   0  0  0  0  0  0  0  0  0  0  0  0
   35.6290   29.2470   50.3100 C   0  0  0  0  0  0  0  0  0  0  0  0
   36.2580   29.4180   51.4790 N   0  0  0  0  0  0  0  0  0  0  0  0
   37.8730   30.2760   52.5050 H   0  0  0  0  0  0  0  0  0  0  0  0
   38.7880   31.3330   50.4170 H   0  0  0  0  0  0  0  0  0  0  0  0
   34.7230   28.6570   50.2450 H   0  0  0  0  0  0  0  0  0  0  0  0
  1  2  1  0  0  0  0
  2 15  1  0  0  0  0
  3  2  2  0  0  0  0
  3  4  1  0  0  0  0
  5  3  1  0  0  0  0
  6  5  1  0  0  0  0
  6 12  1  0  0  0  0
  7  6  1  0  0  0  0
  8  7  1  0  0  0  0
  9  7  2  0  0  0  0
  9 10  1  0  0  0  0
 10 11  1  0  0  0  0
 10  5  2  0  0  0  0
 11  1  2  0  0  0  0
 13 19  1  0  0  0  0
 14 20  1  0  0  0  0
 14 13  2  0  0  0  0
 15 14  1  0  0  0  0
 16 15  2  0  0  0  0
 16 17  1  0  0  0  0
 17 18  2  0  0  0  0
 18 13  1  0  0  0  0
 21 17  1  0  0  0  0
M  END
>  <minimizedAffinity>
-5.97709084

>  <minimizedRMSD>
1.17999256

$$$$
