
 OpenBabel03272510023D

 24 26  0  0  0  0  0  0  0  0999 V2000
   38.2010   31.4640   50.3070 C   0  0  0  0  0  0  0  0  0  0  0  0
   38.5650   31.4950   48.9600 C   0  0  0  0  0  0  0  0  0  0  0  0
   37.7910   30.7740   48.0630 C   0  0  0  0  0  0  0  0  0  0  0  0
   36.7300   30.0800   48.5350 N   0  0  0  0  0  0  0  0  0  0  0  0
   36.4050   30.0710   49.8500 C   0  0  0  0  0  0  0  0  0  0  0  0
   37.1470   30.7660   50.7270 N   0  0  0  0  0  0  0  0  0  0  0  0
   38.8340   32.0420   50.9720 H   0  0  0  0  0  0  0  0  0  0  0  0
   39.4040   32.0470   48.6180 H   0  0  0  0  0  0  0  0  0  0  0  0
   36.9860   30.6740   45.7820 C   0  0  0  0  0  3  0  0  0  0  0  0
   38.0680   30.7270   46.6360 C   0  0  0  0  0  0  0  0  0  0  0  0
   39.3210   30.7330   46.1030 C   0  0  0  0  0  0  0  0  0  0  0  0
   40.1750   30.7730   46.7310 H   0  0  0  0  0  0  0  0  0  0  0  0
   39.5790   30.6880   44.7440 C   0  0  0  0  0  0  0  0  0  0  0  0
   40.7310   30.6860   44.0260 N   0  0  0  0  0  0  0  0  0  0  0  0
   40.3720   30.6310   42.7270 C   0  0  0  0  0  0  0  0  0  0  0  0
   41.1540   30.6190   41.9810 H   0  0  0  0  0  0  0  0  0  0  0  0
   39.0210   30.6010   42.6330 N   0  0  0  0  0  0  0  0  0  0  0  0
   38.4920   30.6350   43.8690 C   0  0  0  0  0  0  0  0  0  0  0  0
   37.2060   30.6290   44.4040 C   0  0  0  0  0  3  0  0  0  0  0  0
   41.7020   30.7210   44.4550 H   0  0  0  0  0  0  0  0  0  0  0  0
   35.2190   29.2750   50.2500 C   0  0  0  0  0  0  0  0  0  0  0  0
   35.2100   29.0090   51.6170 F   0  0  0  0  0  0  0  0  0  0  0  0
   34.0370   29.9550   49.9950 F   0  0  0  0  0  0  0  0  0  0  0  0
   35.1210   28.0680   49.6090 F   0  0  0  0  0  0  0  0  0  0  0  0
  1  6  1  0  0  0  0
  1  7  1  0  0  0  0
  2  1  2  0  0  0  0
  3  4  2  0  0  0  0
  3  2  1  0  0  0  0
  4  5  1  0  0  0  0
  5 21  1  0  0  0  0
  5  6  2  0  0  0  0
  8  2  1  0  0  0  0
  9 10  1  0  0  0  0
 10  3  1  0  0  0  0
 11 10  2  0  0  0  0
 11 12  1  0  0  0  0
 13 11  1  0  0  0  0
 14 20  1  0  0  0  0
 14 13  1  0  0  0  0
 15 14  1  0  0  0  0
 16 15  1  0  0  0  0
 17 15  2  0  0  0  0
 17 18  1  0  0  0  0
 18 19  1  0  0  0  0
 18 13  2  0  0  0  0
 19  9  2  0  0  0  0
 21 22  1  0  0  0  0
 23 21  1  0  0  0  0
 24 21  1  0  0  0  0
M  END
>  <minimizedAffinity>
-6.28925705

>  <minimizedRMSD>
1.54723942

$$$$
