
 OpenBabel03272509053D

 36 39  0  0  0  0  0  0  0  0999 V2000
   37.3040   30.2670   51.4380 C   0  0  0  0  0  0  0  0  0  0  0  0
   38.0530   30.8870   50.4180 C   0  0  0  0  0  0  0  0  0  0  0  0
   37.7190   30.6280   49.0740 C   0  0  0  0  0  0  0  0  0  0  0  0
   36.6690   29.7750   48.8770 N   0  0  0  0  0  0  0  0  0  0  0  0
   35.9830   29.2080   49.8620 C   0  0  0  0  0  0  0  0  0  0  0  0
   36.2900   29.4450   51.1480 N   0  0  0  0  0  0  0  0  0  0  0  0
   37.5850   30.4870   52.4450 H   0  0  0  0  0  0  0  0  0  0  0  0
   38.8540   31.5370   50.6430 H   0  0  0  0  0  0  0  0  0  0  0  0
   38.8760   32.5180   47.9280 C   0  0  0  0  0  3  0  0  0  0  0  0
   38.4330   31.2200   47.9520 C   0  0  0  0  0  0  0  0  0  0  0  0
   38.6750   30.4240   46.8540 C   0  0  0  0  0  0  0  0  0  0  0  0
   38.3710   29.3960   46.7690 H   0  0  0  0  0  0  0  0  0  0  0  0
   39.3580   30.9840   45.7730 C   0  0  0  0  0  0  0  0  0  0  0  0
   39.7440   30.4920   44.5790 N   0  0  0  0  0  0  0  0  0  0  0  0
   40.3890   31.4490   43.8680 C   0  0  0  0  0  0  0  0  0  0  0  0
   40.8350   31.4260   42.8840 H   0  0  0  0  0  0  0  0  0  0  0  0
   40.4190   32.5630   44.6080 N   0  0  0  0  0  0  0  0  0  0  0  0
   39.7980   32.3050   45.7710 C   0  0  0  0  0  0  0  0  0  0  0  0
   39.5440   33.0970   46.8960 C   0  0  0  0  0  3  0  0  0  0  0  0
   39.5840   29.5230   44.2280 H   0  0  0  0  0  0  0  0  0  0  0  0
   34.9170   28.3320   49.4540 C   0  0  0  0  0  3  0  0  0  0  0  0
   34.3040   28.5320   48.3410 C   0  0  0  0  0  3  0  0  0  0  0  0
   33.2100   27.7740   47.7240 C   0  0  0  0  0  0  0  0  0  0  0  0
   32.5870   27.3590   48.5460 H   0  0  0  0  0  0  0  0  0  0  0  0
   32.5420   28.4110   47.1100 H   0  0  0  0  0  0  0  0  0  0  0  0
   33.6830   26.6530   46.8520 C   0  0  0  0  0  0  0  0  0  0  0  0
   33.9010   25.3520   47.2700 C   0  0  0  0  0  0  0  0  0  0  0  0
   34.3370   24.4030   46.3540 C   0  0  0  0  0  0  0  0  0  0  0  0
   34.5600   24.7450   45.0090 C   0  0  0  0  0  0  0  0  0  0  0  0
   34.3430   26.0310   44.6020 C   0  0  0  0  0  0  0  0  0  0  0  0
   33.9100   26.9680   45.5150 C   0  0  0  0  0  0  0  0  0  0  0  0
   33.7160   25.1390   48.3100 H   0  0  0  0  0  0  0  0  0  0  0  0
   34.4860   23.4040   46.7580 H   0  0  0  0  0  0  0  0  0  0  0  0
   34.9010   23.9540   44.3430 H   0  0  0  0  0  0  0  0  0  0  0  0
   34.5310   26.2340   43.5580 H   0  0  0  0  0  0  0  0  0  0  0  0
   33.7480   27.9770   45.1580 H   0  0  0  0  0  0  0  0  0  0  0  0
  1  7  1  0  0  0  0
  2  8  1  0  0  0  0
  2  1  2  0  0  0  0
  3  2  1  0  0  0  0
  4  3  2  0  0  0  0
  4  5  1  0  0  0  0
  5  6  2  0  0  0  0
  6  1  1  0  0  0  0
  9 10  1  0  0  0  0
 10  3  1  0  0  0  0
 11 10  2  0  0  0  0
 12 11  1  0  0  0  0
 13 11  1  0  0  0  0
 14 13  1  0  0  0  0
 15 14  1  0  0  0  0
 15 17  2  0  0  0  0
 16 15  1  0  0  0  0
 17 18  1  0  0  0  0
 18 13  2  0  0  0  0
 18 19  1  0  0  0  0
 19  9  2  0  0  0  0
 20 14  1  0  0  0  0
 21  5  1  0  0  0  0
 22 21  2  0  0  0  0
 23 22  1  0  0  0  0
 23 24  1  0  0  0  0
 25 23  1  0  0  0  0
 26 27  1  0  0  0  0
 26 23  1  0  0  0  0
 27 32  1  0  0  0  0
 28 33  1  0  0  0  0
 28 27  2  0  0  0  0
 29 28  1  0  0  0  0
 30 29  2  0  0  0  0
 30 31  1  0  0  0  0
 31 26  2  0  0  0  0
 34 29  1  0  0  0  0
 35 30  1  0  0  0  0
 36 31  1  0  0  0  0
M  END
>  <minimizedAffinity>
-6.88240051

>  <minimizedRMSD>
0.768398643

$$$$
