
 OpenBabel03272505013D

 31 34  0  0  0  0  0  0  0  0999 V2000
   37.6100   30.1590   47.0340 Cl  0  0  0  0  0  0  0  0  0  0  0  0
   38.2230   31.5900   47.8110 C   0  0  0  0  0  0  0  0  0  0  0  0
   37.8620   31.8370   49.1090 C   0  0  0  0  0  0  0  0  0  0  0  0
   38.3860   33.0050   49.6860 C   0  0  0  0  0  0  0  0  0  0  0  0
   39.2150   33.8320   48.9450 C   0  0  0  0  0  0  0  0  0  0  0  0
   39.5520   33.5510   47.6510 C   0  0  0  0  0  0  0  0  0  0  0  0
   39.0390   32.4030   47.0810 C   0  0  0  0  0  0  0  0  0  0  0  0
   38.0990   33.2040   50.7200 H   0  0  0  0  0  0  0  0  0  0  0  0
   39.5680   34.7030   49.4690 H   0  0  0  0  0  0  0  0  0  0  0  0
   40.1990   34.2240   47.1190 H   0  0  0  0  0  0  0  0  0  0  0  0
   40.4880   31.3610   45.2870 C   0  0  0  0  0  3  0  0  0  0  0  0
   39.4270   32.1450   45.6970 C   0  0  0  0  0  0  0  0  0  0  0  0
   38.6660   32.7360   44.7230 C   0  0  0  0  0  0  0  0  0  0  0  0
   37.8180   33.3640   44.9750 H   0  0  0  0  0  0  0  0  0  0  0  0
   38.8910   32.5980   43.3690 C   0  0  0  0  0  0  0  0  0  0  0  0
   38.2980   33.0670   42.2400 N   0  0  0  0  0  0  0  0  0  0  0  0
   38.9740   32.5870   41.1580 C   0  0  0  0  0  0  0  0  0  0  0  0
   38.6640   32.8420   40.1500 H   0  0  0  0  0  0  0  0  0  0  0  0
   39.9840   31.8220   41.6130 N   0  0  0  0  0  0  0  0  0  0  0  0
   39.9690   31.8020   42.9650 C   0  0  0  0  0  0  0  0  0  0  0  0
   40.7400   31.2030   43.9390 C   0  0  0  0  0  3  0  0  0  0  0  0
   37.4520   33.6990   42.2770 H   0  0  0  0  0  0  0  0  0  0  0  0
   37.4570   30.3090   51.0420 C   0  0  0  0  0  0  0  0  0  0  0  0
   36.9920   30.9780   49.8990 C   0  0  0  0  0  0  0  0  0  0  0  0
   35.6540   30.7860   49.5440 C   0  0  0  0  0  0  0  0  0  0  0  0
   34.8900   29.9730   50.3180 N   0  0  0  0  0  0  0  0  0  0  0  0
   35.3660   29.3490   51.4040 C   0  0  0  0  0  0  0  0  0  0  0  0
   36.6560   29.5150   51.7710 N   0  0  0  0  0  0  0  0  0  0  0  0
   38.4870   30.4270   51.3550 H   0  0  0  0  0  0  0  0  0  0  0  0
   35.2830   31.3010   48.6580 H   0  0  0  0  0  0  0  0  0  0  0  0
   34.6080   28.7530   51.8800 H   0  0  0  0  0  0  0  0  0  0  0  0
  1  2  1  0  0  0  0
  2  3  1  0  0  0  0
  3  4  2  0  0  0  0
  3 24  1  0  0  0  0
  4  8  1  0  0  0  0
  5  9  1  0  0  0  0
  5  4  1  0  0  0  0
  6  5  2  0  0  0  0
  7  6  1  0  0  0  0
  7  2  2  0  0  0  0
 10  6  1  0  0  0  0
 11 12  1  0  0  0  0
 12  7  1  0  0  0  0
 13 14  1  0  0  0  0
 13 12  2  0  0  0  0
 15 13  1  0  0  0  0
 16 22  1  0  0  0  0
 16 15  1  0  0  0  0
 17 19  2  0  0  0  0
 17 16  1  0  0  0  0
 18 17  1  0  0  0  0
 19 20  1  0  0  0  0
 20 15  2  0  0  0  0
 20 21  1  0  0  0  0
 21 11  2  0  0  0  0
 23 29  1  0  0  0  0
 23 28  1  0  0  0  0
 24 23  2  0  0  0  0
 25 24  1  0  0  0  0
 25 26  2  0  0  0  0
 26 27  1  0  0  0  0
 27 28  2  0  0  0  0
 27 31  1  0  0  0  0
 30 25  1  0  0  0  0
M  END
>  <minimizedAffinity>
-6.9106102

>  <minimizedRMSD>
0.863968551

$$$$
