
 OpenBabel03272500313D

 31 34  0  0  0  0  0  0  0  0999 V2000
   38.1660   26.9770   33.3800 Cl  0  0  0  0  0  0  0  0  0  0  0  0
   37.2200   25.7430   32.5610 C   0  0  0  0  0  0  0  0  0  0  0  0
   36.2480   26.2040   31.7110 C   0  0  0  0  0  0  0  0  0  0  0  0
   35.4800   25.2350   31.0480 C   0  0  0  0  0  0  0  0  0  0  0  0
   35.7250   23.9040   31.2690 C   0  0  0  0  0  0  0  0  0  0  0  0
   36.7230   23.5320   32.1420 C   0  0  0  0  0  0  0  0  0  0  0  0
   37.5150   24.4340   32.8280 C   0  0  0  0  0  0  0  0  0  0  0  0
   34.7100   25.6030   30.3740 H   0  0  0  0  0  0  0  0  0  0  0  0
   35.1000   23.1990   30.7290 H   0  0  0  0  0  0  0  0  0  0  0  0
   36.8270   22.4570   32.2390 H   0  0  0  0  0  0  0  0  0  0  0  0
   39.8680   23.8600   33.3510 C   0  0  0  0  0  3  0  0  0  0  0  0
   38.5410   23.9670   33.7240 C   0  0  0  0  0  0  0  0  0  0  0  0
   38.2260   23.6020   35.0180 C   0  0  0  0  0  0  0  0  0  0  0  0
   37.2240   23.6430   35.4230 H   0  0  0  0  0  0  0  0  0  0  0  0
   39.1750   23.1450   35.9280 C   0  0  0  0  0  0  0  0  0  0  0  0
   39.1390   22.7350   37.2100 N   0  0  0  0  0  0  0  0  0  0  0  0
   40.3650   22.3910   37.6240 C   0  0  0  0  0  0  0  0  0  0  0  0
   40.6010   22.0270   38.6220 H   0  0  0  0  0  0  0  0  0  0  0  0
   41.2000   22.5850   36.5830 N   0  0  0  0  0  0  0  0  0  0  0  0
   40.4940   23.0500   35.5210 C   0  0  0  0  0  0  0  0  0  0  0  0
   40.8360   23.4090   34.2290 C   0  0  0  0  0  3  0  0  0  0  0  0
   38.2850   22.6940   37.7880 H   0  0  0  0  0  0  0  0  0  0  0  0
   36.4880   29.5380   30.2520 C   0  0  0  0  0  0  0  0  0  0  0  0
   35.6350   30.3130   31.0340 C   0  0  0  0  0  0  0  0  0  0  0  0
   34.9610   29.6700   32.0900 C   0  0  0  0  0  0  0  0  0  0  0  0
   35.1760   28.3330   32.2910 N   0  0  0  0  0  0  0  0  0  0  0  0
   36.0150   27.6310   31.5010 C   0  0  0  0  0  0  0  0  0  0  0  0
   36.6680   28.2340   30.4840 N   0  0  0  0  0  0  0  0  0  0  0  0
   36.9770   30.0810   29.4600 H   0  0  0  0  0  0  0  0  0  0  0  0
   35.4370   31.3690   30.9100 H   0  0  0  0  0  0  0  0  0  0  0  0
   34.2710   30.1430   32.7770 H   0  0  0  0  0  0  0  0  0  0  0  0
  2  7  1  0  0  0  0
  2  1  1  0  0  0  0
  3  2  2  0  0  0  0
  4  5  2  0  0  0  0
  4  3  1  0  0  0  0
  5  6  1  0  0  0  0
  6 10  1  0  0  0  0
  6  7  2  0  0  0  0
  7 12  1  0  0  0  0
  8  4  1  0  0  0  0
  9  5  1  0  0  0  0
 11 12  2  0  0  0  0
 11 21  1  0  0  0  0
 12 13  1  0  0  0  0
 13 14  1  0  0  0  0
 13 15  2  0  0  0  0
 15 16  1  0  0  0  0
 16 17  1  0  0  0  0
 16 22  1  0  0  0  0
 17 18  1  0  0  0  0
 19 17  2  0  0  0  0
 20 15  1  0  0  0  0
 20 19  1  0  0  0  0
 21 20  2  0  0  0  0
 23 28  2  0  0  0  0
 23 24  1  0  0  0  0
 24 25  2  0  0  0  0
 25 26  1  0  0  0  0
 25 31  1  0  0  0  0
 27  3  1  0  0  0  0
 27 26  2  0  0  0  0
 28 27  1  0  0  0  0
 29 23  1  0  0  0  0
 30 24  1  0  0  0  0
M  END
>  <minimizedAffinity>
-5.65743923

$$$$

 OpenBabel03272500313D

 31 34  0  0  0  0  0  0  0  0999 V2000
   36.7480   27.3220   34.8770 Cl  0  0  0  0  0  0  0  0  0  0  0  0
   36.6980   28.0220   33.2660 C   0  0  0  0  0  0  0  0  0  0  0  0
   37.4450   27.3770   32.3140 C   0  0  0  0  0  0  0  0  0  0  0  0
   37.4190   27.9200   31.0200 C   0  0  0  0  0  0  0  0  0  0  0  0
   36.6700   29.0410   30.7660 C   0  0  0  0  0  0  0  0  0  0  0  0
   35.9500   29.6220   31.7860 C   0  0  0  0  0  0  0  0  0  0  0  0
   35.9310   29.1400   33.0810 C   0  0  0  0  0  0  0  0  0  0  0  0
   38.0120   27.4080   30.2660 H   0  0  0  0  0  0  0  0  0  0  0  0
   36.6870   29.4170   29.7480 H   0  0  0  0  0  0  0  0  0  0  0  0
   35.3960   30.5000   31.4720 H   0  0  0  0  0  0  0  0  0  0  0  0
   33.8210   29.5080   34.3270 C   0  0  0  0  0  3  0  0  0  0  0  0
   35.1510   29.8030   34.0940 C   0  0  0  0  0  0  0  0  0  0  0  0
   35.7200   30.7810   34.8860 C   0  0  0  0  0  0  0  0  0  0  0  0
   36.7510   31.0960   34.7970 H   0  0  0  0  0  0  0  0  0  0  0  0
   35.0160   31.4550   35.8800 C   0  0  0  0  0  0  0  0  0  0  0  0
   35.3190   32.4200   36.7680 N   0  0  0  0  0  0  0  0  0  0  0  0
   34.2500   32.7190   37.5170 C   0  0  0  0  0  0  0  0  0  0  0  0
   34.2370   33.4670   38.3060 H   0  0  0  0  0  0  0  0  0  0  0  0
   33.2430   31.9250   37.0960 N   0  0  0  0  0  0  0  0  0  0  0  0
   33.6870   31.1340   36.0860 C   0  0  0  0  0  0  0  0  0  0  0  0
   33.0920   30.1580   35.3050 C   0  0  0  0  0  3  0  0  0  0  0  0
   36.2460   32.8660   36.8550 H   0  0  0  0  0  0  0  0  0  0  0  0
   38.3030   23.8650   32.7900 C   0  0  0  0  0  0  0  0  0  0  0  0
   39.6400   23.8920   33.1800 C   0  0  0  0  0  0  0  0  0  0  0  0
   40.2600   25.1530   33.2810 C   0  0  0  0  0  0  0  0  0  0  0  0
   39.5260   26.2720   32.9940 N   0  0  0  0  0  0  0  0  0  0  0  0
   38.2320   26.1860   32.6200 C   0  0  0  0  0  0  0  0  0  0  0  0
   37.6240   24.9840   32.5200 N   0  0  0  0  0  0  0  0  0  0  0  0
   37.8800   22.8760   32.7300 H   0  0  0  0  0  0  0  0  0  0  0  0
   40.2550   23.0340   33.4150 H   0  0  0  0  0  0  0  0  0  0  0  0
   41.2880   25.3270   33.5710 H   0  0  0  0  0  0  0  0  0  0  0  0
  2  1  1  0  0  0  0
  3 27  1  0  0  0  0
  3  2  2  0  0  0  0
  4  3  1  0  0  0  0
  5  4  2  0  0  0  0
  5  6  1  0  0  0  0
  6  7  2  0  0  0  0
  7  2  1  0  0  0  0
  7 12  1  0  0  0  0
  8  4  1  0  0  0  0
  9  5  1  0  0  0  0
 10  6  1  0  0  0  0
 11 21  1  0  0  0  0
 12 11  2  0  0  0  0
 12 13  1  0  0  0  0
 13 15  2  0  0  0  0
 14 13  1  0  0  0  0
 15 20  1  0  0  0  0
 15 16  1  0  0  0  0
 16 22  1  0  0  0  0
 16 17  1  0  0  0  0
 17 18  1  0  0  0  0
 19 17  2  0  0  0  0
 20 19  1  0  0  0  0
 21 20  2  0  0  0  0
 23 24  1  0  0  0  0
 24 25  2  0  0  0  0
 24 30  1  0  0  0  0
 25 31  1  0  0  0  0
 26 25  1  0  0  0  0
 27 26  2  0  0  0  0
 28 27  1  0  0  0  0
 28 23  2  0  0  0  0
 29 23  1  0  0  0  0
M  END
>  <minimizedAffinity>
-5.41834593

$$$$

 OpenBabel03272500313D

 31 34  0  0  0  0  0  0  0  0999 V2000
   36.6690   27.4660   34.9050 Cl  0  0  0  0  0  0  0  0  0  0  0  0
   36.5750   28.2130   33.3170 C   0  0  0  0  0  0  0  0  0  0  0  0
   37.1630   27.5130   32.2940 C   0  0  0  0  0  0  0  0  0  0  0  0
   37.1000   28.0920   31.0180 C   0  0  0  0  0  0  0  0  0  0  0  0
   36.4700   29.2990   30.8480 C   0  0  0  0  0  0  0  0  0  0  0  0
   35.9070   29.9310   31.9340 C   0  0  0  0  0  0  0  0  0  0  0  0
   35.9330   29.4170   33.2170 C   0  0  0  0  0  0  0  0  0  0  0  0
   37.5660   27.5370   30.2090 H   0  0  0  0  0  0  0  0  0  0  0  0
   36.4520   29.7000   29.8390 H   0  0  0  0  0  0  0  0  0  0  0  0
   35.4380   30.8760   31.6830 H   0  0  0  0  0  0  0  0  0  0  0  0
   36.0430   30.9320   35.1750 C   0  0  0  0  0  3  0  0  0  0  0  0
   35.3210   30.1380   34.3030 C   0  0  0  0  0  0  0  0  0  0  0  0
   33.9590   30.0590   34.5150 C   0  0  0  0  0  0  0  0  0  0  0  0
   33.2920   29.4710   33.8990 H   0  0  0  0  0  0  0  0  0  0  0  0
   33.3130   30.7340   35.5470 C   0  0  0  0  0  0  0  0  0  0  0  0
   32.0370   30.8280   35.9650 N   0  0  0  0  0  0  0  0  0  0  0  0
   31.9540   31.6300   37.0340 C   0  0  0  0  0  0  0  0  0  0  0  0
   31.0300   31.8670   37.5580 H   0  0  0  0  0  0  0  0  0  0  0  0
   33.2050   32.0560   37.3030 N   0  0  0  0  0  0  0  0  0  0  0  0
   34.0650   31.5190   36.4000 C   0  0  0  0  0  0  0  0  0  0  0  0
   35.4340   31.6150   36.2100 C   0  0  0  0  0  3  0  0  0  0  0  0
   31.2380   30.3470   35.5220 H   0  0  0  0  0  0  0  0  0  0  0  0
   39.8090   25.0870   32.9390 C   0  0  0  0  0  0  0  0  0  0  0  0
   39.1520   23.8590   32.9320 C   0  0  0  0  0  0  0  0  0  0  0  0
   37.7620   23.8690   32.7000 C   0  0  0  0  0  0  0  0  0  0  0  0
   37.1380   25.0690   32.4950 N   0  0  0  0  0  0  0  0  0  0  0  0
   37.8260   26.2300   32.5130 C   0  0  0  0  0  0  0  0  0  0  0  0
   39.1580   26.2360   32.7340 N   0  0  0  0  0  0  0  0  0  0  0  0
   40.8680   25.0210   33.1210 H   0  0  0  0  0  0  0  0  0  0  0  0
   39.6060   22.8910   33.0890 H   0  0  0  0  0  0  0  0  0  0  0  0
   37.1240   22.9950   32.6670 H   0  0  0  0  0  0  0  0  0  0  0  0
  2  1  1  0  0  0  0
  3 27  1  0  0  0  0
  3  2  2  0  0  0  0
  4  3  1  0  0  0  0
  5  4  2  0  0  0  0
  5  6  1  0  0  0  0
  6  7  2  0  0  0  0
  7  2  1  0  0  0  0
  7 12  1  0  0  0  0
  8  4  1  0  0  0  0
  9  5  1  0  0  0  0
 10  6  1  0  0  0  0
 11 21  1  0  0  0  0
 12 13  1  0  0  0  0
 12 11  2  0  0  0  0
 13 15  2  0  0  0  0
 14 13  1  0  0  0  0
 15 16  1  0  0  0  0
 15 20  1  0  0  0  0
 16 17  1  0  0  0  0
 17 19  2  0  0  0  0
 17 18  1  0  0  0  0
 20 19  1  0  0  0  0
 21 20  2  0  0  0  0
 22 16  1  0  0  0  0
 23 29  1  0  0  0  0
 24 23  1  0  0  0  0
 24 30  1  0  0  0  0
 25 24  2  0  0  0  0
 26 27  2  0  0  0  0
 26 25  1  0  0  0  0
 27 28  1  0  0  0  0
 28 23  2  0  0  0  0
 31 25  1  0  0  0  0
M  END
>  <minimizedAffinity>
-5.37379837

$$$$

 OpenBabel03272500313D

 31 34  0  0  0  0  0  0  0  0999 V2000
   39.0560   25.8010   34.6670 Cl  0  0  0  0  0  0  0  0  0  0  0  0
   38.3870   24.3930   33.8560 C   0  0  0  0  0  0  0  0  0  0  0  0
   38.1580   23.3000   34.6520 C   0  0  0  0  0  0  0  0  0  0  0  0
   37.6240   22.1640   34.0230 C   0  0  0  0  0  0  0  0  0  0  0  0
   37.3600   22.1920   32.6770 C   0  0  0  0  0  0  0  0  0  0  0  0
   37.6230   23.3350   31.9560 C   0  0  0  0  0  0  0  0  0  0  0  0
   38.1480   24.4870   32.5120 C   0  0  0  0  0  0  0  0  0  0  0  0
   37.4440   21.2990   34.6550 H   0  0  0  0  0  0  0  0  0  0  0  0
   36.9480   21.2850   32.2450 H   0  0  0  0  0  0  0  0  0  0  0  0
   37.3760   23.2430   30.9040 H   0  0  0  0  0  0  0  0  0  0  0  0
   39.6670   26.1200   31.4330 C   0  0  0  0  0  3  0  0  0  0  0  0
   38.3940   25.6440   31.6910 C   0  0  0  0  0  0  0  0  0  0  0  0
   37.3440   26.3340   31.1200 C   0  0  0  0  0  0  0  0  0  0  0  0
   36.3060   26.0560   31.2500 H   0  0  0  0  0  0  0  0  0  0  0  0
   37.5220   27.4580   30.3180 C   0  0  0  0  0  0  0  0  0  0  0  0
   36.6970   28.2920   29.6580 N   0  0  0  0  0  0  0  0  0  0  0  0
   37.4010   29.2370   29.0210 C   0  0  0  0  0  0  0  0  0  0  0  0
   36.9650   30.0300   28.4170 H   0  0  0  0  0  0  0  0  0  0  0  0
   38.7020   28.9990   29.2820 N   0  0  0  0  0  0  0  0  0  0  0  0
   38.8080   27.9070   30.0800 C   0  0  0  0  0  0  0  0  0  0  0  0
   39.8800   27.2330   30.6420 C   0  0  0  0  0  3  0  0  0  0  0  0
   35.6680   28.2110   29.6470 H   0  0  0  0  0  0  0  0  0  0  0  0
   37.7480   23.8540   38.2330 C   0  0  0  0  0  0  0  0  0  0  0  0
   38.9250   23.3600   38.7900 C   0  0  0  0  0  0  0  0  0  0  0  0
   39.8830   22.8230   37.9080 C   0  0  0  0  0  0  0  0  0  0  0  0
   39.6120   22.8140   36.5670 N   0  0  0  0  0  0  0  0  0  0  0  0
   38.4520   23.3070   36.0820 C   0  0  0  0  0  0  0  0  0  0  0  0
   37.5240   23.8250   36.9160 N   0  0  0  0  0  0  0  0  0  0  0  0
   37.0520   24.2520   38.9520 H   0  0  0  0  0  0  0  0  0  0  0  0
   39.1790   23.3480   39.8410 H   0  0  0  0  0  0  0  0  0  0  0  0
   40.8390   22.4050   38.1960 H   0  0  0  0  0  0  0  0  0  0  0  0
  2  3  1  0  0  0  0
  2  1  1  0  0  0  0
  3 27  1  0  0  0  0
  4  3  2  0  0  0  0
  4  8  1  0  0  0  0
  5  4  1  0  0  0  0
  6  7  1  0  0  0  0
  6  5  2  0  0  0  0
  7  2  2  0  0  0  0
  9  5  1  0  0  0  0
 10  6  1  0  0  0  0
 11 12  1  0  0  0  0
 12  7  1  0  0  0  0
 13 14  1  0  0  0  0
 13 12  2  0  0  0  0
 15 13  1  0  0  0  0
 16 15  1  0  0  0  0
 17 19  2  0  0  0  0
 17 16  1  0  0  0  0
 18 17  1  0  0  0  0
 19 20  1  0  0  0  0
 20 15  2  0  0  0  0
 20 21  1  0  0  0  0
 21 11  2  0  0  0  0
 22 16  1  0  0  0  0
 23 24  1  0  0  0  0
 23 29  1  0  0  0  0
 24 30  1  0  0  0  0
 25 31  1  0  0  0  0
 25 24  2  0  0  0  0
 26 25  1  0  0  0  0
 27 26  2  0  0  0  0
 27 28  1  0  0  0  0
 28 23  2  0  0  0  0
M  END
>  <minimizedAffinity>
-5.36800385

$$$$

 OpenBabel03272500313D

 31 34  0  0  0  0  0  0  0  0999 V2000
   38.2010   26.3010   35.0630 Cl  0  0  0  0  0  0  0  0  0  0  0  0
   37.8840   24.9200   34.0240 C   0  0  0  0  0  0  0  0  0  0  0  0
   38.0220   23.6890   34.6100 C   0  0  0  0  0  0  0  0  0  0  0  0
   37.7730   22.5730   33.7970 C   0  0  0  0  0  0  0  0  0  0  0  0
   37.4120   22.7520   32.4860 C   0  0  0  0  0  0  0  0  0  0  0  0
   37.2970   24.0270   31.9810 C   0  0  0  0  0  0  0  0  0  0  0  0
   37.5280   25.1690   32.7260 C   0  0  0  0  0  0  0  0  0  0  0  0
   37.8840   21.5970   34.2640 H   0  0  0  0  0  0  0  0  0  0  0  0
   37.2320   21.8530   31.9050 H   0  0  0  0  0  0  0  0  0  0  0  0
   37.0070   24.0490   30.9370 H   0  0  0  0  0  0  0  0  0  0  0  0
   38.3340   27.0080   31.2740 C   0  0  0  0  0  3  0  0  0  0  0  0
   37.3870   26.4710   32.1260 C   0  0  0  0  0  0  0  0  0  0  0  0
   36.2740   27.2450   32.3870 C   0  0  0  0  0  0  0  0  0  0  0  0
   35.4670   26.9310   33.0350 H   0  0  0  0  0  0  0  0  0  0  0  0
   36.0840   28.5090   31.8350 C   0  0  0  0  0  0  0  0  0  0  0  0
   35.1210   29.4450   31.9200 N   0  0  0  0  0  0  0  0  0  0  0  0
   35.4360   30.5090   31.1700 C   0  0  0  0  0  0  0  0  0  0  0  0
   34.8200   31.4000   31.0710 H   0  0  0  0  0  0  0  0  0  0  0  0
   36.6270   30.2440   30.5950 N   0  0  0  0  0  0  0  0  0  0  0  0
   37.0510   29.0150   30.9870 C   0  0  0  0  0  0  0  0  0  0  0  0
   38.1780   28.2590   30.7090 C   0  0  0  0  0  3  0  0  0  0  0  0
   34.2620   29.3530   32.4850 H   0  0  0  0  0  0  0  0  0  0  0  0
   37.7860   23.6680   38.2500 C   0  0  0  0  0  0  0  0  0  0  0  0
   39.0550   23.2740   38.6700 C   0  0  0  0  0  0  0  0  0  0  0  0
   40.0140   23.0090   37.6730 C   0  0  0  0  0  0  0  0  0  0  0  0
   39.6550   23.1510   36.3600 N   0  0  0  0  0  0  0  0  0  0  0  0
   38.4100   23.5360   36.0100 C   0  0  0  0  0  0  0  0  0  0  0  0
   37.4800   23.7930   36.9550 N   0  0  0  0  0  0  0  0  0  0  0  0
   37.0940   23.8570   39.0530 H   0  0  0  0  0  0  0  0  0  0  0  0
   39.3790   23.1500   39.6940 H   0  0  0  0  0  0  0  0  0  0  0  0
   41.0350   22.6960   37.8490 H   0  0  0  0  0  0  0  0  0  0  0  0
  2  3  1  0  0  0  0
  2  1  1  0  0  0  0
  3 27  1  0  0  0  0
  4  8  1  0  0  0  0
  4  3  2  0  0  0  0
  5  4  1  0  0  0  0
  6  5  2  0  0  0  0
  6  7  1  0  0  0  0
  7  2  2  0  0  0  0
  9  5  1  0  0  0  0
 10  6  1  0  0  0  0
 11 12  1  0  0  0  0
 12 13  2  0  0  0  0
 12  7  1  0  0  0  0
 13 14  1  0  0  0  0
 15 16  1  0  0  0  0
 15 13  1  0  0  0  0
 16 22  1  0  0  0  0
 17 16  1  0  0  0  0
 18 17  1  0  0  0  0
 19 20  1  0  0  0  0
 19 17  2  0  0  0  0
 20 15  2  0  0  0  0
 21 20  1  0  0  0  0
 21 11  2  0  0  0  0
 23 24  1  0  0  0  0
 23 29  1  0  0  0  0
 24 30  1  0  0  0  0
 25 31  1  0  0  0  0
 25 24  2  0  0  0  0
 26 25  1  0  0  0  0
 27 26  2  0  0  0  0
 27 28  1  0  0  0  0
 28 23  2  0  0  0  0
M  END
>  <minimizedAffinity>
-5.33608246

$$$$

 OpenBabel03272500313D

 31 34  0  0  0  0  0  0  0  0999 V2000
   39.2720   25.5230   34.4770 Cl  0  0  0  0  0  0  0  0  0  0  0  0
   38.2830   24.2790   33.7260 C   0  0  0  0  0  0  0  0  0  0  0  0
   38.4510   23.0090   34.2160 C   0  0  0  0  0  0  0  0  0  0  0  0
   37.6710   22.0010   33.6310 C   0  0  0  0  0  0  0  0  0  0  0  0
   36.7970   22.3150   32.6210 C   0  0  0  0  0  0  0  0  0  0  0  0
   36.6940   23.6200   32.1920 C   0  0  0  0  0  0  0  0  0  0  0  0
   37.4320   24.6610   32.7250 C   0  0  0  0  0  0  0  0  0  0  0  0
   37.8050   20.9950   34.0200 H   0  0  0  0  0  0  0  0  0  0  0  0
   36.2190   21.4950   32.2060 H   0  0  0  0  0  0  0  0  0  0  0  0
   35.9750   23.7520   31.3920 H   0  0  0  0  0  0  0  0  0  0  0  0
   36.7860   27.0360   33.0000 C   0  0  0  0  0  3  0  0  0  0  0  0
   37.2690   26.0000   32.2220 C   0  0  0  0  0  0  0  0  0  0  0  0
   37.5970   26.3030   30.9160 C   0  0  0  0  0  0  0  0  0  0  0  0
   37.9850   25.5770   30.2150 H   0  0  0  0  0  0  0  0  0  0  0  0
   37.4610   27.5790   30.3770 C   0  0  0  0  0  0  0  0  0  0  0  0
   37.7000   28.1300   29.1720 N   0  0  0  0  0  0  0  0  0  0  0  0
   37.3880   29.4320   29.1840 C   0  0  0  0  0  0  0  0  0  0  0  0
   37.4920   30.1000   28.3310 H   0  0  0  0  0  0  0  0  0  0  0  0
   36.9410   29.7170   30.4240 N   0  0  0  0  0  0  0  0  0  0  0  0
   36.9750   28.5920   31.1830 C   0  0  0  0  0  0  0  0  0  0  0  0
   36.6370   28.3150   32.4970 C   0  0  0  0  0  3  0  0  0  0  0  0
   38.0710   27.6170   28.3570 H   0  0  0  0  0  0  0  0  0  0  0  0
   41.4940   21.9190   35.9050 C   0  0  0  0  0  0  0  0  0  0  0  0
   41.2230   22.1210   37.2560 C   0  0  0  0  0  0  0  0  0  0  0  0
   39.9600   22.6460   37.5920 C   0  0  0  0  0  0  0  0  0  0  0  0
   39.0750   22.9270   36.5870 N   0  0  0  0  0  0  0  0  0  0  0  0
   39.3920   22.7110   35.2930 C   0  0  0  0  0  0  0  0  0  0  0  0
   40.5990   22.2080   34.9550 N   0  0  0  0  0  0  0  0  0  0  0  0
   42.4730   21.5160   35.7060 H   0  0  0  0  0  0  0  0  0  0  0  0
   41.8920   21.9130   38.0800 H   0  0  0  0  0  0  0  0  0  0  0  0
   39.6120   22.8550   38.5960 H   0  0  0  0  0  0  0  0  0  0  0  0
  2  3  1  0  0  0  0
  2  1  1  0  0  0  0
  3 27  1  0  0  0  0
  4  8  1  0  0  0  0
  4  3  2  0  0  0  0
  5  4  1  0  0  0  0
  6  5  2  0  0  0  0
  6  7  1  0  0  0  0
  7  2  2  0  0  0  0
  9  5  1  0  0  0  0
 10  6  1  0  0  0  0
 12  7  1  0  0  0  0
 12 11  2  0  0  0  0
 13 12  1  0  0  0  0
 14 13  1  0  0  0  0
 15 13  2  0  0  0  0
 15 20  1  0  0  0  0
 16 17  1  0  0  0  0
 16 15  1  0  0  0  0
 17 19  2  0  0  0  0
 18 17  1  0  0  0  0
 19 20  1  0  0  0  0
 20 21  2  0  0  0  0
 21 11  1  0  0  0  0
 22 16  1  0  0  0  0
 23 24  1  0  0  0  0
 24 25  2  0  0  0  0
 24 30  1  0  0  0  0
 25 31  1  0  0  0  0
 26 25  1  0  0  0  0
 27 26  2  0  0  0  0
 28 27  1  0  0  0  0
 28 23  2  0  0  0  0
 29 23  1  0  0  0  0
M  END
>  <minimizedAffinity>
-5.2249732

$$$$

 OpenBabel03272500313D

 31 34  0  0  0  0  0  0  0  0999 V2000
   36.0210   28.3160   34.4740 Cl  0  0  0  0  0  0  0  0  0  0  0  0
   35.8990   29.3180   33.0360 C   0  0  0  0  0  0  0  0  0  0  0  0
   35.3760   30.5710   33.2250 C   0  0  0  0  0  0  0  0  0  0  0  0
   35.2700   31.3870   32.0890 C   0  0  0  0  0  0  0  0  0  0  0  0
   35.6820   30.9130   30.8690 C   0  0  0  0  0  0  0  0  0  0  0  0
   36.1950   29.6390   30.7720 C   0  0  0  0  0  0  0  0  0  0  0  0
   36.3270   28.7840   31.8510 C   0  0  0  0  0  0  0  0  0  0  0  0
   34.8550   32.3800   32.2410 H   0  0  0  0  0  0  0  0  0  0  0  0
   35.5760   31.5880   30.0250 H   0  0  0  0  0  0  0  0  0  0  0  0
   36.4870   29.3710   29.7630 H   0  0  0  0  0  0  0  0  0  0  0  0
   38.2350   27.2150   31.6480 C   0  0  0  0  0  3  0  0  0  0  0  0
   36.8750   27.4640   31.6700 C   0  0  0  0  0  0  0  0  0  0  0  0
   36.0400   26.3760   31.5090 C   0  0  0  0  0  0  0  0  0  0  0  0
   34.9610   26.4460   31.5090 H   0  0  0  0  0  0  0  0  0  0  0  0
   36.5130   25.0790   31.3310 C   0  0  0  0  0  0  0  0  0  0  0  0
   35.9350   23.8750   31.1570 N   0  0  0  0  0  0  0  0  0  0  0  0
   36.8690   22.9230   31.0320 C   0  0  0  0  0  0  0  0  0  0  0  0
   36.6580   21.8670   30.8810 H   0  0  0  0  0  0  0  0  0  0  0  0
   38.0670   23.5340   31.1290 N   0  0  0  0  0  0  0  0  0  0  0  0
   37.8790   24.8660   31.3150 C   0  0  0  0  0  0  0  0  0  0  0  0
   38.7380   25.9400   31.4730 C   0  0  0  0  0  3  0  0  0  0  0  0
   34.9160   23.7130   31.1240 H   0  0  0  0  0  0  0  0  0  0  0  0
   33.2510   31.1620   36.1290 C   0  0  0  0  0  0  0  0  0  0  0  0
   34.0590   31.8920   36.9990 C   0  0  0  0  0  0  0  0  0  0  0  0
   35.3690   32.1860   36.5720 C   0  0  0  0  0  0  0  0  0  0  0  0
   35.7750   31.7460   35.3410 N   0  0  0  0  0  0  0  0  0  0  0  0
   34.9480   31.0420   34.5390 C   0  0  0  0  0  0  0  0  0  0  0  0
   33.6890   30.7520   34.9350 N   0  0  0  0  0  0  0  0  0  0  0  0
   32.2610   30.9660   36.5060 H   0  0  0  0  0  0  0  0  0  0  0  0
   33.7790   32.2570   37.9770 H   0  0  0  0  0  0  0  0  0  0  0  0
   36.1050   32.7410   37.1380 H   0  0  0  0  0  0  0  0  0  0  0  0
  2  3  1  0  0  0  0
  2  1  1  0  0  0  0
  3 27  1  0  0  0  0
  4  8  1  0  0  0  0
  4  3  2  0  0  0  0
  5  4  1  0  0  0  0
  6  5  2  0  0  0  0
  6  7  1  0  0  0  0
  7  2  2  0  0  0  0
  9  5  1  0  0  0  0
 10  6  1  0  0  0  0
 11 12  1  0  0  0  0
 12  7  1  0  0  0  0
 13 14  1  0  0  0  0
 13 12  2  0  0  0  0
 15 13  1  0  0  0  0
 16 15  1  0  0  0  0
 17 19  2  0  0  0  0
 17 16  1  0  0  0  0
 18 17  1  0  0  0  0
 19 20  1  0  0  0  0
 20 15  2  0  0  0  0
 20 21  1  0  0  0  0
 21 11  2  0  0  0  0
 22 16  1  0  0  0  0
 23 29  1  0  0  0  0
 23 24  1  0  0  0  0
 24 30  1  0  0  0  0
 25 24  2  0  0  0  0
 25 31  1  0  0  0  0
 26 25  1  0  0  0  0
 27 28  1  0  0  0  0
 27 26  2  0  0  0  0
 28 23  2  0  0  0  0
M  END
>  <minimizedAffinity>
-5.22320509

$$$$

 OpenBabel03272500313D

 31 34  0  0  0  0  0  0  0  0999 V2000
   38.4950   26.1870   33.7310 Cl  0  0  0  0  0  0  0  0  0  0  0  0
   37.6350   24.9240   32.8630 C   0  0  0  0  0  0  0  0  0  0  0  0
   36.9240   25.3340   31.7650 C   0  0  0  0  0  0  0  0  0  0  0  0
   36.2300   24.3400   31.0580 C   0  0  0  0  0  0  0  0  0  0  0  0
   36.2880   23.0370   31.4810 C   0  0  0  0  0  0  0  0  0  0  0  0
   37.0270   22.7160   32.5970 C   0  0  0  0  0  0  0  0  0  0  0  0
   37.7350   23.6440   33.3390 C   0  0  0  0  0  0  0  0  0  0  0  0
   35.6670   24.6670   30.1870 H   0  0  0  0  0  0  0  0  0  0  0  0
   35.7310   22.3110   30.8960 H   0  0  0  0  0  0  0  0  0  0  0  0
   37.0020   21.6600   32.8380 H   0  0  0  0  0  0  0  0  0  0  0  0
   38.0280   23.4080   35.7880 C   0  0  0  0  0  3  0  0  0  0  0  0
   38.4870   23.2320   34.4950 C   0  0  0  0  0  0  0  0  0  0  0  0
   39.7210   22.6300   34.3500 C   0  0  0  0  0  0  0  0  0  0  0  0
   40.1820   22.4390   33.3900 H   0  0  0  0  0  0  0  0  0  0  0  0
   40.4910   22.2100   35.4300 C   0  0  0  0  0  0  0  0  0  0  0  0
   41.6910   21.6150   35.5650 N   0  0  0  0  0  0  0  0  0  0  0  0
   41.9760   21.4260   36.8600 C   0  0  0  0  0  0  0  0  0  0  0  0
   42.8880   20.9640   37.2300 H   0  0  0  0  0  0  0  0  0  0  0  0
   40.9340   21.9120   37.5650 N   0  0  0  0  0  0  0  0  0  0  0  0
   40.0020   22.4030   36.7090 C   0  0  0  0  0  0  0  0  0  0  0  0
   38.7670   23.0040   36.8830 C   0  0  0  0  0  3  0  0  0  0  0  0
   42.3020   21.3450   34.7780 H   0  0  0  0  0  0  0  0  0  0  0  0
   35.8290   28.8020   31.4920 C   0  0  0  0  0  0  0  0  0  0  0  0
   36.7370   29.3750   30.6030 C   0  0  0  0  0  0  0  0  0  0  0  0
   37.7500   28.5440   30.0870 C   0  0  0  0  0  0  0  0  0  0  0  0
   37.7910   27.2340   30.4790 N   0  0  0  0  0  0  0  0  0  0  0  0
   36.8850   26.7320   31.3440 C   0  0  0  0  0  0  0  0  0  0  0  0
   35.9070   27.5160   31.8480 N   0  0  0  0  0  0  0  0  0  0  0  0
   35.0770   29.4820   31.8550 H   0  0  0  0  0  0  0  0  0  0  0  0
   36.7400   30.4030   30.2690 H   0  0  0  0  0  0  0  0  0  0  0  0
   38.5200   28.8510   29.3910 H   0  0  0  0  0  0  0  0  0  0  0  0
  2  7  1  0  0  0  0
  2  1  1  0  0  0  0
  3  2  2  0  0  0  0
  4  5  2  0  0  0  0
  4  3  1  0  0  0  0
  5  6  1  0  0  0  0
  6 10  1  0  0  0  0
  6  7  2  0  0  0  0
  7 12  1  0  0  0  0
  8  4  1  0  0  0  0
  9  5  1  0  0  0  0
 11 21  1  0  0  0  0
 12 11  2  0  0  0  0
 13 12  1  0  0  0  0
 13 15  2  0  0  0  0
 14 13  1  0  0  0  0
 15 16  1  0  0  0  0
 15 20  1  0  0  0  0
 16 17  1  0  0  0  0
 17 18  1  0  0  0  0
 17 19  2  0  0  0  0
 20 21  2  0  0  0  0
 20 19  1  0  0  0  0
 22 16  1  0  0  0  0
 23 28  1  0  0  0  0
 23 29  1  0  0  0  0
 24 23  2  0  0  0  0
 25 26  2  0  0  0  0
 25 24  1  0  0  0  0
 26 27  1  0  0  0  0
 27  3  1  0  0  0  0
 27 28  2  0  0  0  0
 30 24  1  0  0  0  0
 31 25  1  0  0  0  0
M  END
>  <minimizedAffinity>
-5.21349669

$$$$

 OpenBabel03272500313D

 31 34  0  0  0  0  0  0  0  0999 V2000
   36.7830   25.5870   32.1750 Cl  0  0  0  0  0  0  0  0  0  0  0  0
   37.4320   26.2040   33.6870 C   0  0  0  0  0  0  0  0  0  0  0  0
   38.1950   25.3240   34.4100 C   0  0  0  0  0  0  0  0  0  0  0  0
   38.7230   25.7970   35.6210 C   0  0  0  0  0  0  0  0  0  0  0  0
   38.4630   27.0830   36.0220 C   0  0  0  0  0  0  0  0  0  0  0  0
   37.6850   27.8970   35.2300 C   0  0  0  0  0  0  0  0  0  0  0  0
   37.1340   27.4950   34.0270 C   0  0  0  0  0  0  0  0  0  0  0  0
   39.3280   25.0980   36.1930 H   0  0  0  0  0  0  0  0  0  0  0  0
   38.8970   27.3940   36.9670 H   0  0  0  0  0  0  0  0  0  0  0  0
   37.5450   28.8890   35.6440 H   0  0  0  0  0  0  0  0  0  0  0  0
   36.7030   28.8520   31.9990 C   0  0  0  0  0  3  0  0  0  0  0  0
   36.3310   28.4060   33.2540 C   0  0  0  0  0  0  0  0  0  0  0  0
   35.1310   28.8770   33.7510 C   0  0  0  0  0  0  0  0  0  0  0  0
   34.7360   28.5990   34.7190 H   0  0  0  0  0  0  0  0  0  0  0  0
   34.3140   29.7570   33.0490 C   0  0  0  0  0  0  0  0  0  0  0  0
   33.1320   30.3530   33.2940 N   0  0  0  0  0  0  0  0  0  0  0  0
   32.7770   31.1280   32.2600 C   0  0  0  0  0  0  0  0  0  0  0  0
   31.8620   31.7150   32.2140 H   0  0  0  0  0  0  0  0  0  0  0  0
   33.7540   31.0230   31.3370 N   0  0  0  0  0  0  0  0  0  0  0  0
   34.7170   30.1830   31.7970 C   0  0  0  0  0  0  0  0  0  0  0  0
   35.9160   29.7270   31.2750 C   0  0  0  0  0  3  0  0  0  0  0  0
   32.5800   30.2290   34.1570 H   0  0  0  0  0  0  0  0  0  0  0  0
   39.8100   22.5180   32.7310 C   0  0  0  0  0  0  0  0  0  0  0  0
   39.0060   21.4250   33.0460 C   0  0  0  0  0  0  0  0  0  0  0  0
   37.8790   21.6630   33.8580 C   0  0  0  0  0  0  0  0  0  0  0  0
   37.6360   22.9380   34.2900 N   0  0  0  0  0  0  0  0  0  0  0  0
   38.4510   23.9610   33.9530 C   0  0  0  0  0  0  0  0  0  0  0  0
   39.5350   23.7480   33.1750 N   0  0  0  0  0  0  0  0  0  0  0  0
   40.6560   22.2790   32.1080 H   0  0  0  0  0  0  0  0  0  0  0  0
   39.1620   20.4040   32.7270 H   0  0  0  0  0  0  0  0  0  0  0  0
   37.1690   20.9140   34.1830 H   0  0  0  0  0  0  0  0  0  0  0  0
  1  2  1  0  0  0  0
  2  7  2  0  0  0  0
  2  3  1  0  0  0  0
  3  4  2  0  0  0  0
  4  5  1  0  0  0  0
  4  8  1  0  0  0  0
  5  9  1  0  0  0  0
  6 10  1  0  0  0  0
  6  5  2  0  0  0  0
  7  6  1  0  0  0  0
 11 12  1  0  0  0  0
 12 13  2  0  0  0  0
 12  7  1  0  0  0  0
 13 14  1  0  0  0  0
 15 16  1  0  0  0  0
 15 13  1  0  0  0  0
 16 22  1  0  0  0  0
 17 16  1  0  0  0  0
 18 17  1  0  0  0  0
 19 20  1  0  0  0  0
 19 17  2  0  0  0  0
 20 15  2  0  0  0  0
 21 20  1  0  0  0  0
 21 11  2  0  0  0  0
 23 24  2  0  0  0  0
 23 28  1  0  0  0  0
 24 25  1  0  0  0  0
 25 31  1  0  0  0  0
 25 26  2  0  0  0  0
 27 26  1  0  0  0  0
 27  3  1  0  0  0  0
 28 27  2  0  0  0  0
 29 23  1  0  0  0  0
 30 24  1  0  0  0  0
M  END
>  <minimizedAffinity>
-5.18006325

$$$$
