
 OpenBabel03272510233D

 34 38  0  0  0  0  0  0  0  0999 V2000
   33.8230   29.3320   43.2310 C   0  0  0  0  0  0  0  0  0  0  0  0
   33.7900   29.2610   44.6130 C   0  0  0  0  0  0  0  0  0  0  0  0
   34.7310   29.9430   45.3580 C   0  0  0  0  0  0  0  0  0  0  0  0
   35.6870   30.6810   44.6810 C   0  0  0  0  0  0  0  0  0  0  0  0
   36.7040   31.4280   45.1900 N   0  0  0  0  0  0  0  0  0  0  0  0
   37.3680   31.9600   44.1540 C   0  0  0  0  0  0  0  0  0  0  0  0
   36.8060   31.5770   43.0050 N   0  0  0  0  0  0  0  0  0  0  0  0
   35.7530   30.7770   43.3010 C   0  0  0  0  0  0  0  0  0  0  0  0
   34.7970   30.0850   42.5770 C   0  0  0  0  0  0  0  0  0  0  0  0
   33.1250   28.8310   42.5730 H   0  0  0  0  0  0  0  0  0  0  0  0
   34.7050   29.8860   46.4380 H   0  0  0  0  0  0  0  0  0  0  0  0
   36.9190   31.5540   46.2120 H   0  0  0  0  0  0  0  0  0  0  0  0
   34.8330   30.1490   41.4820 H   0  0  0  0  0  0  0  0  0  0  0  0
   39.4040   32.8140   45.3250 C   0  0  0  0  0  3  0  0  0  0  0  0
   38.5480   32.8420   44.2310 C   0  0  0  0  0  0  0  0  0  0  0  0
   38.7990   33.7160   43.1810 C   0  0  0  0  0  0  0  0  0  0  0  0
   38.1450   33.7510   42.3280 H   0  0  0  0  0  0  0  0  0  0  0  0
   39.8980   34.5460   43.2410 C   0  0  0  0  0  0  0  0  0  0  0  0
   40.4280   35.4950   42.4180 N   0  0  0  0  0  0  0  0  0  0  0  0
   41.5490   36.0110   42.9910 C   0  0  0  0  0  0  0  0  0  0  0  0
   42.2050   36.7820   42.6000 H   0  0  0  0  0  0  0  0  0  0  0  0
   41.7560   35.4070   44.1830 N   0  0  0  0  0  0  0  0  0  0  0  0
   40.7550   34.5140   44.3420 C   0  0  0  0  0  0  0  0  0  0  0  0
   40.5190   33.6520   45.3910 C   0  0  0  0  0  3  0  0  0  0  0  0
   40.0240   35.7710   41.4960 H   0  0  0  0  0  0  0  0  0  0  0  0
   30.6350   28.1060   46.3010 C   0  0  0  0  0  0  0  0  0  0  0  0
   31.5820   28.9750   45.7590 C   0  0  0  0  0  0  0  0  0  0  0  0
   32.7380   28.4530   45.2030 C   0  0  0  0  0  0  0  0  0  0  0  0
   32.8970   27.0990   45.2130 N   0  0  0  0  0  0  0  0  0  0  0  0
   31.9540   26.2680   45.7500 C   0  0  0  0  0  0  0  0  0  0  0  0
   30.8430   26.7690   46.2850 N   0  0  0  0  0  0  0  0  0  0  0  0
   29.7310   28.4980   46.7370 H   0  0  0  0  0  0  0  0  0  0  0  0
   31.4360   30.0270   45.7630 H   0  0  0  0  0  0  0  0  0  0  0  0
   32.2240   25.2230   45.6820 H   0  0  0  0  0  0  0  0  0  0  0  0
  1  2  1  0  0  0  0
  2 28  1  0  0  0  0
  2  3  2  0  0  0  0
  3 11  1  0  0  0  0
  4  5  1  0  0  0  0
  4  3  1  0  0  0  0
  5 12  1  0  0  0  0
  6 15  1  0  0  0  0
  6  5  1  0  0  0  0
  7  8  1  0  0  0  0
  7  6  2  0  0  0  0
  8  4  2  0  0  0  0
  9  1  2  0  0  0  0
  9  8  1  0  0  0  0
 10  1  1  0  0  0  0
 13  9  1  0  0  0  0
 14 24  1  0  0  0  0
 15 14  2  0  0  0  0
 16 18  2  0  0  0  0
 16 15  1  0  0  0  0
 17 16  1  0  0  0  0
 18 23  1  0  0  0  0
 19 20  1  0  0  0  0
 19 18  1  0  0  0  0
 20 22  2  0  0  0  0
 21 20  1  0  0  0  0
 22 23  1  0  0  0  0
 23 24  2  0  0  0  0
 25 19  1  0  0  0  0
 26 32  1  0  0  0  0
 27 33  1  0  0  0  0
 27 26  2  0  0  0  0
 28 29  2  0  0  0  0
 28 27  1  0  0  0  0
 29 30  1  0  0  0  0
 30 31  2  0  0  0  0
 31 26  1  0  0  0  0
 34 30  1  0  0  0  0
M  END
>  <minimizedAffinity>
4.10539389

>  <minimizedRMSD>
4.81989622

$$$$
