
 OpenBabel03272507213D

 33 36  0  0  1  0  0  0  0  0999 V2000
   39.3710   24.4760   34.6640 C   0  0  0  0  0  0  0  0  0  0  0  0
   40.6130   25.0060   34.9770 C   0  0  0  0  0  0  0  0  0  0  0  0
   40.7030   26.4060   34.8120 C   0  0  0  0  0  0  0  0  0  0  0  0
   39.6330   27.1320   34.3790 N   0  0  0  0  0  0  0  0  0  0  0  0
   38.4350   26.5630   34.0870 C   0  0  0  0  0  0  0  0  0  0  0  0
   38.3110   25.2040   34.2350 N   0  0  0  0  0  0  0  0  0  0  0  0
   41.4350   24.4040   35.3140 H   0  0  0  0  0  0  0  0  0  0  0  0
   41.6380   26.9010   35.0330 H   0  0  0  0  0  0  0  0  0  0  0  0
   36.9250   27.2260   32.3030 C   0  0  0  0  0  3  0  0  0  0  0  0
   37.2980   27.3540   33.6250 C   0  0  0  0  0  0  0  0  0  0  0  0
   36.6000   28.2090   34.4570 C   0  0  0  0  0  0  0  0  0  0  0  0
   36.9160   28.2880   35.4870 H   0  0  0  0  0  0  0  0  0  0  0  0
   35.5240   28.9580   34.0210 C   0  0  0  0  0  0  0  0  0  0  0  0
   34.6910   29.8410   34.6010 N   0  0  0  0  0  0  0  0  0  0  0  0
   33.8340   30.2360   33.6440 C   0  0  0  0  0  0  0  0  0  0  0  0
   33.0710   30.9630   33.9250 H   0  0  0  0  0  0  0  0  0  0  0  0
   34.1170   29.6150   32.4780 N   0  0  0  0  0  0  0  0  0  0  0  0
   35.1720   28.8060   32.6860 C   0  0  0  0  0  0  0  0  0  0  0  0
   35.8520   27.9590   31.8340 C   0  0  0  0  0  3  0  0  0  0  0  0
   34.7900   30.0960   35.6140 H   0  0  0  0  0  0  0  0  0  0  0  0
   39.2280   22.9970   34.8500 C   0  0  1  0  0  0  0  0  0  0  0  0
   38.3790   22.4260   35.8950 C   0  0  2  0  0  0  0  0  0  0  0  0
   37.8130   22.4960   34.5080 C   0  0  0  0  0  0  0  0  0  0  0  0
   40.0580   22.4420   34.3530 H   0  0  0  0  0  0  0  0  0  0  0  0
   38.8010   21.4690   36.3210 H   0  0  0  0  0  0  0  0  0  0  0  0
   37.0110   23.2490   34.3520 H   0  0  0  0  0  0  0  0  0  0  0  0
   37.8040   21.6120   33.8620 H   0  0  0  0  0  0  0  0  0  0  0  0
   37.9010   23.2930   36.8680 O   0  0  0  0  0  0  0  0  0  0  0  0
   38.4000   23.5930   38.0910 C   0  0  0  0  0  0  0  0  0  0  0  0
   37.9930   24.5710   38.7560 O   0  0  0  0  0  0  0  0  0  0  0  0
   39.3790   22.6500   38.4040 N   0  0  0  0  0  0  0  0  0  0  0  0
   38.8020   21.9880   39.0020 H   0  0  0  0  0  0  0  0  0  0  0  0
   40.2990   22.9240   37.9510 H   0  0  0  0  0  0  0  0  0  0  0  0
  1 21  1  0  0  0  0
  1  2  1  0  0  0  0
  2  7  1  0  0  0  0
  3  2  2  0  0  0  0
  3  8  1  0  0  0  0
  4  3  1  0  0  0  0
  5  6  1  0  0  0  0
  5  4  2  0  0  0  0
  6  1  2  0  0  0  0
  9 10  1  0  0  0  0
 10  5  1  0  0  0  0
 10 11  2  0  0  0  0
 11 12  1  0  0  0  0
 13 11  1  0  0  0  0
 13 14  1  0  0  0  0
 14 20  1  0  0  0  0
 15 16  1  0  0  0  0
 15 14  1  0  0  0  0
 17 18  1  0  0  0  0
 17 15  2  0  0  0  0
 18 13  2  0  0  0  0
 19  9  2  0  0  0  0
 19 18  1  0  0  0  0
 21 24  1  6  0  0  0
 21 22  1  0  0  0  0
 22 25  1  1  0  0  0
 22 28  1  0  0  0  0
 23 21  1  0  0  0  0
 23 22  1  0  0  0  0
 26 23  1  0  0  0  0
 27 23  1  0  0  0  0
 28 29  1  0  0  0  0
 29 31  1  0  0  0  0
 29 30  2  0  0  0  0
 31 32  1  0  0  0  0
 33 31  1  0  0  0  0
M  END
>  <minimizedAffinity>
-5.63595533

$$$$

 OpenBabel03272507213D

 33 36  0  0  1  0  0  0  0  0999 V2000
   38.0350   24.8490   35.2080 C   0  0  0  0  0  0  0  0  0  0  0  0
   38.2920   25.5560   36.3720 C   0  0  0  0  0  0  0  0  0  0  0  0
   38.3930   26.9530   36.1920 C   0  0  0  0  0  0  0  0  0  0  0  0
   38.2430   27.5140   34.9570 N   0  0  0  0  0  0  0  0  0  0  0  0
   37.9900   26.7750   33.8470 C   0  0  0  0  0  0  0  0  0  0  0  0
   37.8870   25.4140   33.9840 N   0  0  0  0  0  0  0  0  0  0  0  0
   38.4050   25.0820   37.3280 H   0  0  0  0  0  0  0  0  0  0  0  0
   38.5930   27.5800   37.0490 H   0  0  0  0  0  0  0  0  0  0  0  0
   36.7430   28.2170   32.3400 C   0  0  0  0  0  3  0  0  0  0  0  0
   37.8310   27.3900   32.5310 C   0  0  0  0  0  0  0  0  0  0  0  0
   38.7190   27.1720   31.4950 C   0  0  0  0  0  0  0  0  0  0  0  0
   39.5610   26.5190   31.6760 H   0  0  0  0  0  0  0  0  0  0  0  0
   38.5690   27.7530   30.2510 C   0  0  0  0  0  0  0  0  0  0  0  0
   39.2640   27.7130   29.1000 N   0  0  0  0  0  0  0  0  0  0  0  0
   38.6040   28.5010   28.2340 C   0  0  0  0  0  0  0  0  0  0  0  0
   39.0200   28.5980   27.2300 H   0  0  0  0  0  0  0  0  0  0  0  0
   37.5110   29.0330   28.8240 N   0  0  0  0  0  0  0  0  0  0  0  0
   37.4650   28.5800   30.0900 C   0  0  0  0  0  0  0  0  0  0  0  0
   36.5620   28.8160   31.1090 C   0  0  0  0  0  3  0  0  0  0  0  0
   40.1380   27.1390   29.0140 H   0  0  0  0  0  0  0  0  0  0  0  0
   37.8960   23.3660   35.3630 C   0  0  1  0  0  0  0  0  0  0  0  0
   38.8920   22.5650   36.0740 C   0  0  2  0  0  0  0  0  0  0  0  0
   37.6510   22.9490   36.8240 C   0  0  0  0  0  0  0  0  0  0  0  0
   37.1740   22.9460   34.6240 H   0  0  0  0  0  0  0  0  0  0  0  0
   39.0230   21.5380   35.6230 H   0  0  0  0  0  0  0  0  0  0  0  0
   37.7850   23.7140   37.6200 H   0  0  0  0  0  0  0  0  0  0  0  0
   36.8280   22.2380   36.9460 H   0  0  0  0  0  0  0  0  0  0  0  0
   40.0940   23.1820   36.3900 O   0  0  0  0  0  0  0  0  0  0  0  0
   41.1970   22.6830   36.9970 C   0  0  0  0  0  0  0  0  0  0  0  0
   42.3370   23.1630   36.8100 O   0  0  0  0  0  0  0  0  0  0  0  0
   40.8050   21.6110   37.8000 N   0  0  0  0  0  0  0  0  0  0  0  0
   40.7370   22.1080   38.7370 H   0  0  0  0  0  0  0  0  0  0  0  0
   40.7210   20.7330   37.2100 H   0  0  0  0  0  0  0  0  0  0  0  0
  1 21  1  0  0  0  0
  1  2  1  0  0  0  0
  2  7  1  0  0  0  0
  3  2  2  0  0  0  0
  3  8  1  0  0  0  0
  4  3  1  0  0  0  0
  5  6  1  0  0  0  0
  5  4  2  0  0  0  0
  6  1  2  0  0  0  0
  9 10  1  0  0  0  0
 10  5  1  0  0  0  0
 11 12  1  0  0  0  0
 11 10  2  0  0  0  0
 13 11  1  0  0  0  0
 14 13  1  0  0  0  0
 15 17  2  0  0  0  0
 15 14  1  0  0  0  0
 16 15  1  0  0  0  0
 17 18  1  0  0  0  0
 18 13  2  0  0  0  0
 18 19  1  0  0  0  0
 19  9  2  0  0  0  0
 20 14  1  0  0  0  0
 21 24  1  6  0  0  0
 21 22  1  0  0  0  0
 21 23  1  0  0  0  0
 22 25  1  6  0  0  0
 22 28  1  0  0  0  0
 22 23  1  0  0  0  0
 23 27  1  0  0  0  0
 23 26  1  0  0  0  0
 28 29  1  0  0  0  0
 29 31  1  0  0  0  0
 30 29  2  0  0  0  0
 31 32  1  0  0  0  0
 33 31  1  0  0  0  0
M  END
>  <minimizedAffinity>
-5.45652437

$$$$

 OpenBabel03272507213D

 33 36  0  0  1  0  0  0  0  0999 V2000
   34.6440   29.9060   33.0550 C   0  0  0  0  0  0  0  0  0  0  0  0
   35.0160   30.3140   31.7830 C   0  0  0  0  0  0  0  0  0  0  0  0
   36.1640   29.6630   31.2800 C   0  0  0  0  0  0  0  0  0  0  0  0
   36.8190   28.7220   32.0180 N   0  0  0  0  0  0  0  0  0  0  0  0
   36.4110   28.3570   33.2610 C   0  0  0  0  0  0  0  0  0  0  0  0
   35.2990   28.9690   33.7830 N   0  0  0  0  0  0  0  0  0  0  0  0
   34.4780   31.0590   31.2290 H   0  0  0  0  0  0  0  0  0  0  0  0
   36.5250   29.9230   30.2940 H   0  0  0  0  0  0  0  0  0  0  0  0
   37.6380   27.7270   35.2610 C   0  0  0  0  0  3  0  0  0  0  0  0
   37.1210   27.3460   34.0400 C   0  0  0  0  0  0  0  0  0  0  0  0
   37.2880   26.0480   33.5970 C   0  0  0  0  0  0  0  0  0  0  0  0
   36.8720   25.7800   32.6360 H   0  0  0  0  0  0  0  0  0  0  0  0
   37.9600   25.0910   34.3330 C   0  0  0  0  0  0  0  0  0  0  0  0
   38.2580   23.7930   34.1450 N   0  0  0  0  0  0  0  0  0  0  0  0
   38.9410   23.4020   35.2350 C   0  0  0  0  0  0  0  0  0  0  0  0
   39.2750   22.3640   35.2700 H   0  0  0  0  0  0  0  0  0  0  0  0
   39.0740   24.4320   36.0990 N   0  0  0  0  0  0  0  0  0  0  0  0
   38.4670   25.5050   35.5580 C   0  0  0  0  0  0  0  0  0  0  0  0
   38.3140   26.7950   36.0240 C   0  0  0  0  0  3  0  0  0  0  0  0
   37.9610   23.2880   33.2750 H   0  0  0  0  0  0  0  0  0  0  0  0
   33.4150   30.5550   33.6130 C   0  0  1  0  0  0  0  0  0  0  0  0
   33.3980   31.1680   34.9400 C   0  0  2  0  0  0  0  0  0  0  0  0
   33.5710   32.0790   33.7620 C   0  0  0  0  0  0  0  0  0  0  0  0
   32.4980   30.2250   33.0700 H   0  0  0  0  0  0  0  0  0  0  0  0
   32.4020   31.0470   35.4600 H   0  0  0  0  0  0  0  0  0  0  0  0
   34.5850   32.5190   33.6370 H   0  0  0  0  0  0  0  0  0  0  0  0
   32.7250   32.6480   33.3650 H   0  0  0  0  0  0  0  0  0  0  0  0
   34.4820   30.9160   35.7700 O   0  0  0  0  0  0  0  0  0  0  0  0
   35.3740   31.7720   36.3220 C   0  0  0  0  0  0  0  0  0  0  0  0
   36.4930   31.9920   35.8090 O   0  0  0  0  0  0  0  0  0  0  0  0
   34.8100   32.2990   37.4850 N   0  0  0  0  0  0  0  0  0  0  0  0
   34.4410   33.2180   37.1010 H   0  0  0  0  0  0  0  0  0  0  0  0
   34.9480   31.6200   38.2900 H   0  0  0  0  0  0  0  0  0  0  0  0
  1 21  1  0  0  0  0
  1  6  1  0  0  0  0
  2  1  2  0  0  0  0
  3  2  1  0  0  0  0
  3  4  2  0  0  0  0
  4  5  1  0  0  0  0
  5  6  2  0  0  0  0
  5 10  1  0  0  0  0
  7  2  1  0  0  0  0
  8  3  1  0  0  0  0
  9 19  1  0  0  0  0
 10  9  2  0  0  0  0
 11 10  1  0  0  0  0
 11 13  2  0  0  0  0
 12 11  1  0  0  0  0
 13 18  1  0  0  0  0
 14 13  1  0  0  0  0
 14 15  1  0  0  0  0
 15 16  1  0  0  0  0
 15 17  2  0  0  0  0
 18 19  2  0  0  0  0
 18 17  1  0  0  0  0
 20 14  1  0  0  0  0
 21 24  1  6  0  0  0
 21 23  1  0  0  0  0
 21 22  1  0  0  0  0
 22 25  1  1  0  0  0
 22 28  1  0  0  0  0
 23 22  1  0  0  0  0
 26 23  1  0  0  0  0
 27 23  1  0  0  0  0
 28 29  1  0  0  0  0
 29 31  1  0  0  0  0
 30 29  2  0  0  0  0
 31 33  1  0  0  0  0
 32 31  1  0  0  0  0
M  END
>  <minimizedAffinity>
-5.45279884

$$$$

 OpenBabel03272507213D

 33 36  0  0  1  0  0  0  0  0999 V2000
   37.3300   27.0680   33.8400 C   0  0  0  0  0  0  0  0  0  0  0  0
   37.6490   27.2260   32.5010 C   0  0  0  0  0  0  0  0  0  0  0  0
   37.0640   28.3610   31.8960 C   0  0  0  0  0  0  0  0  0  0  0  0
   36.2610   29.2010   32.6090 N   0  0  0  0  0  0  0  0  0  0  0  0
   35.9800   29.0010   33.9230 C   0  0  0  0  0  0  0  0  0  0  0  0
   36.5310   27.9080   34.5430 N   0  0  0  0  0  0  0  0  0  0  0  0
   38.2850   26.5450   31.9690 H   0  0  0  0  0  0  0  0  0  0  0  0
   37.2600   28.5590   30.8510 H   0  0  0  0  0  0  0  0  0  0  0  0
   33.7610   29.8460   34.4370 C   0  0  0  0  0  3  0  0  0  0  0  0
   35.1190   29.9100   34.6740 C   0  0  0  0  0  0  0  0  0  0  0  0
   35.6140   30.8140   35.5950 C   0  0  0  0  0  0  0  0  0  0  0  0
   36.6820   30.8410   35.7580 H   0  0  0  0  0  0  0  0  0  0  0  0
   34.8000   31.6740   36.3050 C   0  0  0  0  0  0  0  0  0  0  0  0
   35.0120   32.6240   37.2340 N   0  0  0  0  0  0  0  0  0  0  0  0
   33.8030   33.1210   37.5480 C   0  0  0  0  0  0  0  0  0  0  0  0
   33.7680   33.9140   38.2960 H   0  0  0  0  0  0  0  0  0  0  0  0
   32.8410   32.4980   36.8340 N   0  0  0  0  0  0  0  0  0  0  0  0
   33.4380   31.5850   36.0460 C   0  0  0  0  0  0  0  0  0  0  0  0
   32.9170   30.6910   35.1310 C   0  0  0  0  0  3  0  0  0  0  0  0
   35.9800   32.8480   37.5700 H   0  0  0  0  0  0  0  0  0  0  0  0
   37.9520   25.8900   34.5240 C   0  0  1  0  0  0  0  0  0  0  0  0
   39.3130   25.9330   35.0570 C   0  0  2  0  0  0  0  0  0  0  0  0
   38.1860   26.1380   36.0250 C   0  0  0  0  0  0  0  0  0  0  0  0
   37.4110   24.9460   34.2800 H   0  0  0  0  0  0  0  0  0  0  0  0
   39.8470   24.9420   34.9620 H   0  0  0  0  0  0  0  0  0  0  0  0
   38.0660   27.1730   36.4130 H   0  0  0  0  0  0  0  0  0  0  0  0
   37.8420   25.3200   36.6650 H   0  0  0  0  0  0  0  0  0  0  0  0
   40.1020   27.0160   34.6950 O   0  0  0  0  0  0  0  0  0  0  0  0
   41.3080   27.0490   34.0800 C   0  0  0  0  0  0  0  0  0  0  0  0
   41.4860   27.6390   32.9910 O   0  0  0  0  0  0  0  0  0  0  0  0
   42.2170   26.3390   34.8650 N   0  0  0  0  0  0  0  0  0  0  0  0
   42.6660   27.1470   35.3890 H   0  0  0  0  0  0  0  0  0  0  0  0
   42.1320   25.3000   34.6620 H   0  0  0  0  0  0  0  0  0  0  0  0
  1 21  1  0  0  0  0
  1  6  1  0  0  0  0
  2  1  2  0  0  0  0
  3  2  1  0  0  0  0
  3  4  2  0  0  0  0
  4  5  1  0  0  0  0
  5  6  2  0  0  0  0
  5 10  1  0  0  0  0
  7  2  1  0  0  0  0
  8  3  1  0  0  0  0
  9 10  2  0  0  0  0
  9 19  1  0  0  0  0
 10 11  1  0  0  0  0
 11 12  1  0  0  0  0
 11 13  2  0  0  0  0
 13 14  1  0  0  0  0
 14 15  1  0  0  0  0
 14 20  1  0  0  0  0
 15 16  1  0  0  0  0
 17 15  2  0  0  0  0
 18 13  1  0  0  0  0
 18 17  1  0  0  0  0
 19 18  2  0  0  0  0
 21 24  1  6  0  0  0
 21 22  1  0  0  0  0
 21 23  1  0  0  0  0
 22 25  1  1  0  0  0
 22 23  1  0  0  0  0
 23 26  1  0  0  0  0
 23 27  1  0  0  0  0
 28 22  1  0  0  0  0
 29 28  1  0  0  0  0
 29 31  1  0  0  0  0
 30 29  2  0  0  0  0
 31 32  1  0  0  0  0
 33 31  1  0  0  0  0
M  END
>  <minimizedAffinity>
-5.42579031

$$$$

 OpenBabel03272507213D

 33 36  0  0  1  0  0  0  0  0999 V2000
   37.0250   26.0210   32.6820 C   0  0  0  0  0  0  0  0  0  0  0  0
   36.6170   27.2750   33.1090 C   0  0  0  0  0  0  0  0  0  0  0  0
   36.9620   27.5710   34.4470 C   0  0  0  0  0  0  0  0  0  0  0  0
   37.6370   26.6680   35.2140 N   0  0  0  0  0  0  0  0  0  0  0  0
   38.0150   25.4510   34.7450 C   0  0  0  0  0  0  0  0  0  0  0  0
   37.6970   25.1290   33.4500 N   0  0  0  0  0  0  0  0  0  0  0  0
   36.0860   27.9620   32.4790 H   0  0  0  0  0  0  0  0  0  0  0  0
   36.6800   28.5280   34.8620 H   0  0  0  0  0  0  0  0  0  0  0  0
   38.2380   24.2350   36.8370 C   0  0  0  0  0  3  0  0  0  0  0  0
   38.7400   24.4950   35.5780 C   0  0  0  0  0  0  0  0  0  0  0  0
   39.8900   23.8580   35.1520 C   0  0  0  0  0  0  0  0  0  0  0  0
   40.2590   24.0830   34.1610 H   0  0  0  0  0  0  0  0  0  0  0  0
   40.5760   22.9540   35.9390 C   0  0  0  0  0  0  0  0  0  0  0  0
   41.6870   22.2130   35.7770 N   0  0  0  0  0  0  0  0  0  0  0  0
   41.8480   21.5200   36.9170 C   0  0  0  0  0  0  0  0  0  0  0  0
   42.7080   20.8520   36.9790 H   0  0  0  0  0  0  0  0  0  0  0  0
   40.8580   21.8150   37.7880 N   0  0  0  0  0  0  0  0  0  0  0  0
   40.0450   22.7120   37.2000 C   0  0  0  0  0  0  0  0  0  0  0  0
   38.8980   23.3350   37.6500 C   0  0  0  0  0  3  0  0  0  0  0  0
   42.2400   22.2520   34.8860 H   0  0  0  0  0  0  0  0  0  0  0  0
   36.7010   25.6810   31.2600 C   0  0  1  0  0  0  0  0  0  0  0  0
   35.9480   24.4790   30.9040 C   0  0  2  0  0  0  0  0  0  0  0  0
   35.1930   25.7730   30.9630 C   0  0  0  0  0  0  0  0  0  0  0  0
   37.3570   26.2360   30.5490 H   0  0  0  0  0  0  0  0  0  0  0  0
   36.2880   24.0300   29.9250 H   0  0  0  0  0  0  0  0  0  0  0  0
   34.4930   25.8840   31.8200 H   0  0  0  0  0  0  0  0  0  0  0  0
   34.9580   26.3270   30.0490 H   0  0  0  0  0  0  0  0  0  0  0  0
   35.7540   23.5330   31.9010 O   0  0  0  0  0  0  0  0  0  0  0  0
   36.1120   22.2270   31.9450 C   0  0  0  0  0  0  0  0  0  0  0  0
   35.5490   21.3570   31.2450 O   0  0  0  0  0  0  0  0  0  0  0  0
   37.1520   22.0920   32.8650 N   0  0  0  0  0  0  0  0  0  0  0  0
   37.9800   22.1080   32.1990 H   0  0  0  0  0  0  0  0  0  0  0  0
   36.7560   22.0260   33.8480 H   0  0  0  0  0  0  0  0  0  0  0  0
  1  2  2  0  0  0  0
  1  6  1  0  0  0  0
  2  3  1  0  0  0  0
  3  8  1  0  0  0  0
  3  4  2  0  0  0  0
  5  4  1  0  0  0  0
  5 10  1  0  0  0  0
  6  5  2  0  0  0  0
  7  2  1  0  0  0  0
  9 19  1  0  0  0  0
 10  9  2  0  0  0  0
 11 10  1  0  0  0  0
 11 13  2  0  0  0  0
 12 11  1  0  0  0  0
 13 18  1  0  0  0  0
 14 13  1  0  0  0  0
 14 15  1  0  0  0  0
 15 16  1  0  0  0  0
 15 17  2  0  0  0  0
 18 19  2  0  0  0  0
 18 17  1  0  0  0  0
 20 14  1  0  0  0  0
 21 24  1  6  0  0  0
 21  1  1  0  0  0  0
 22 25  1  6  0  0  0
 22 23  1  0  0  0  0
 22 21  1  0  0  0  0
 22 28  1  0  0  0  0
 23 21  1  0  0  0  0
 23 26  1  0  0  0  0
 27 23  1  0  0  0  0
 28 29  1  0  0  0  0
 29 31  1  0  0  0  0
 30 29  2  0  0  0  0
 31 33  1  0  0  0  0
 32 31  1  0  0  0  0
M  END
>  <minimizedAffinity>
-5.3387785

$$$$

 OpenBabel03272507213D

 33 36  0  0  1  0  0  0  0  0999 V2000
   37.4260   26.9800   33.7190 C   0  0  0  0  0  0  0  0  0  0  0  0
   36.7140   27.9180   32.9890 C   0  0  0  0  0  0  0  0  0  0  0  0
   36.0010   27.3810   31.8950 C   0  0  0  0  0  0  0  0  0  0  0  0
   36.0410   26.0460   31.6180 N   0  0  0  0  0  0  0  0  0  0  0  0
   36.7550   25.1670   32.3670 C   0  0  0  0  0  0  0  0  0  0  0  0
   37.4610   25.6540   33.4390 N   0  0  0  0  0  0  0  0  0  0  0  0
   36.7050   28.9630   33.2340 H   0  0  0  0  0  0  0  0  0  0  0  0
   35.4190   28.0440   31.2700 H   0  0  0  0  0  0  0  0  0  0  0  0
   35.6610   23.1840   31.4880 C   0  0  0  0  0  3  0  0  0  0  0  0
   36.7870   23.7400   32.0590 C   0  0  0  0  0  0  0  0  0  0  0  0
   37.8890   22.9470   32.3190 C   0  0  0  0  0  0  0  0  0  0  0  0
   38.7560   23.4120   32.7670 H   0  0  0  0  0  0  0  0  0  0  0  0
   37.9200   21.5970   32.0290 C   0  0  0  0  0  0  0  0  0  0  0  0
   38.8350   20.6210   32.1730 N   0  0  0  0  0  0  0  0  0  0  0  0
   38.2670   19.5000   31.6970 C   0  0  0  0  0  0  0  0  0  0  0  0
   38.8620   18.5860   31.7280 H   0  0  0  0  0  0  0  0  0  0  0  0
   37.0160   19.7580   31.2580 N   0  0  0  0  0  0  0  0  0  0  0  0
   36.7720   21.0670   31.4540 C   0  0  0  0  0  0  0  0  0  0  0  0
   35.6580   21.8360   31.1840 C   0  0  0  0  0  3  0  0  0  0  0  0
   39.7760   20.8170   32.5910 H   0  0  0  0  0  0  0  0  0  0  0  0
   38.1750   27.5070   34.9040 C   0  0  1  0  0  0  0  0  0  0  0  0
   38.3590   26.7160   36.1190 C   0  0  2  0  0  0  0  0  0  0  0  0
   39.4980   26.7570   35.1440 C   0  0  0  0  0  0  0  0  0  0  0  0
   38.2630   28.6190   34.8680 H   0  0  0  0  0  0  0  0  0  0  0  0
   38.3500   27.3500   37.0540 H   0  0  0  0  0  0  0  0  0  0  0  0
   39.6820   25.8190   34.5770 H   0  0  0  0  0  0  0  0  0  0  0  0
   40.3540   27.4180   35.3110 H   0  0  0  0  0  0  0  0  0  0  0  0
   37.6100   25.5540   36.2390 O   0  0  0  0  0  0  0  0  0  0  0  0
   37.9250   24.3680   36.8110 C   0  0  0  0  0  0  0  0  0  0  0  0
   38.0180   24.2280   38.0510 O   0  0  0  0  0  0  0  0  0  0  0  0
   38.1070   23.4290   35.7950 N   0  0  0  0  0  0  0  0  0  0  0  0
   37.1480   22.9710   35.8040 H   0  0  0  0  0  0  0  0  0  0  0  0
   39.0890   23.5110   35.4020 H   0  0  0  0  0  0  0  0  0  0  0  0
  1 21  1  0  0  0  0
  2  7  1  0  0  0  0
  2  1  2  0  0  0  0
  3  2  1  0  0  0  0
  4  3  2  0  0  0  0
  4  5  1  0  0  0  0
  5  6  2  0  0  0  0
  6  1  1  0  0  0  0
  8  3  1  0  0  0  0
  9 10  1  0  0  0  0
 10 11  2  0  0  0  0
 10  5  1  0  0  0  0
 11 12  1  0  0  0  0
 13 14  1  0  0  0  0
 13 11  1  0  0  0  0
 14 20  1  0  0  0  0
 15 16  1  0  0  0  0
 15 14  1  0  0  0  0
 17 18  1  0  0  0  0
 17 15  2  0  0  0  0
 18 13  2  0  0  0  0
 19 18  1  0  0  0  0
 19  9  2  0  0  0  0
 21 24  1  1  0  0  0
 21 23  1  0  0  0  0
 21 22  1  0  0  0  0
 22 28  1  0  0  0  0
 22 25  1  1  0  0  0
 23 27  1  0  0  0  0
 23 22  1  0  0  0  0
 26 23  1  0  0  0  0
 28 29  1  0  0  0  0
 29 30  2  0  0  0  0
 31 32  1  0  0  0  0
 31 29  1  0  0  0  0
 33 31  1  0  0  0  0
M  END
>  <minimizedAffinity>
-5.31878042

$$$$

 OpenBabel03272507213D

 33 36  0  0  1  0  0  0  0  0999 V2000
   40.0400   23.2450   36.3040 C   0  0  0  0  0  0  0  0  0  0  0  0
   39.5330   22.9970   37.5700 C   0  0  0  0  0  0  0  0  0  0  0  0
   38.3700   23.7350   37.8830 C   0  0  0  0  0  0  0  0  0  0  0  0
   37.8290   24.6070   36.9840 N   0  0  0  0  0  0  0  0  0  0  0  0
   38.3660   24.8120   35.7540 C   0  0  0  0  0  0  0  0  0  0  0  0
   39.4960   24.1120   35.4150 N   0  0  0  0  0  0  0  0  0  0  0  0
   39.9850   22.3040   38.2540 H   0  0  0  0  0  0  0  0  0  0  0  0
   37.9090   23.6040   38.8520 H   0  0  0  0  0  0  0  0  0  0  0  0
   37.4040   26.9910   35.2720 C   0  0  0  0  0  3  0  0  0  0  0  0
   37.7740   25.7480   34.8010 C   0  0  0  0  0  0  0  0  0  0  0  0
   37.5780   25.4310   33.4700 C   0  0  0  0  0  0  0  0  0  0  0  0
   37.8790   24.4490   33.1320 H   0  0  0  0  0  0  0  0  0  0  0  0
   37.0190   26.3150   32.5690 C   0  0  0  0  0  0  0  0  0  0  0  0
   36.7240   26.2660   31.2570 N   0  0  0  0  0  0  0  0  0  0  0  0
   36.1860   27.4580   30.9470 C   0  0  0  0  0  0  0  0  0  0  0  0
   35.8780   27.6130   29.9120 H   0  0  0  0  0  0  0  0  0  0  0  0
   36.1400   28.2500   32.0410 N   0  0  0  0  0  0  0  0  0  0  0  0
   36.6570   27.5580   33.0730 C   0  0  0  0  0  0  0  0  0  0  0  0
   36.8420   27.9000   34.3970 C   0  0  0  0  0  3  0  0  0  0  0  0
   36.9210   25.4070   30.6880 H   0  0  0  0  0  0  0  0  0  0  0  0
   41.2590   22.4610   35.9260 C   0  0  1  0  0  0  0  0  0  0  0  0
   42.3490   23.0510   35.1510 C   0  0  2  0  0  0  0  0  0  0  0  0
   42.5260   22.9670   36.6380 C   0  0  0  0  0  0  0  0  0  0  0  0
   41.0780   21.3630   36.0070 H   0  0  0  0  0  0  0  0  0  0  0  0
   42.8320   22.3100   34.4490 H   0  0  0  0  0  0  0  0  0  0  0  0
   42.4730   23.9330   37.1860 H   0  0  0  0  0  0  0  0  0  0  0  0
   43.1270   22.1690   37.0860 H   0  0  0  0  0  0  0  0  0  0  0  0
   42.1150   24.2870   34.5640 O   0  0  0  0  0  0  0  0  0  0  0  0
   42.6700   25.4940   34.8220 C   0  0  0  0  0  0  0  0  0  0  0  0
   43.9060   25.6480   34.9440 O   0  0  0  0  0  0  0  0  0  0  0  0
   41.6440   26.4360   34.9120 N   0  0  0  0  0  0  0  0  0  0  0  0
   41.6810   26.8320   33.9270 H   0  0  0  0  0  0  0  0  0  0  0  0
   41.2210   26.4130   35.8850 H   0  0  0  0  0  0  0  0  0  0  0  0
  1  2  1  0  0  0  0
  2  3  2  0  0  0  0
  2  7  1  0  0  0  0
  3  8  1  0  0  0  0
  4  3  1  0  0  0  0
  5  4  2  0  0  0  0
  6  5  1  0  0  0  0
  6  1  2  0  0  0  0
 10  9  1  0  0  0  0
 10  5  1  0  0  0  0
 11 10  2  0  0  0  0
 12 11  1  0  0  0  0
 13 18  2  0  0  0  0
 13 11  1  0  0  0  0
 14 13  1  0  0  0  0
 15 14  1  0  0  0  0
 15 17  2  0  0  0  0
 16 15  1  0  0  0  0
 17 18  1  0  0  0  0
 18 19  1  0  0  0  0
 19  9  2  0  0  0  0
 20 14  1  0  0  0  0
 21 24  1  6  0  0  0
 21  1  1  0  0  0  0
 21 23  1  0  0  0  0
 22 25  1  6  0  0  0
 22 21  1  0  0  0  0
 22 23  1  0  0  0  0
 23 27  1  0  0  0  0
 23 26  1  0  0  0  0
 28 29  1  0  0  0  0
 28 22  1  0  0  0  0
 29 31  1  0  0  0  0
 29 30  2  0  0  0  0
 31 33  1  0  0  0  0
 32 31  1  0  0  0  0
M  END
>  <minimizedAffinity>
-5.24915981

$$$$

 OpenBabel03272507213D

 33 36  0  0  1  0  0  0  0  0999 V2000
   37.2380   26.0290   33.5650 C   0  0  0  0  0  0  0  0  0  0  0  0
   37.0030   27.2520   34.1740 C   0  0  0  0  0  0  0  0  0  0  0  0
   37.8440   27.5210   35.2770 C   0  0  0  0  0  0  0  0  0  0  0  0
   38.7910   26.6230   35.6730 N   0  0  0  0  0  0  0  0  0  0  0  0
   38.9810   25.4370   35.0400 C   0  0  0  0  0  0  0  0  0  0  0  0
   38.1820   25.1420   33.9640 N   0  0  0  0  0  0  0  0  0  0  0  0
   36.2480   27.9360   33.8370 H   0  0  0  0  0  0  0  0  0  0  0  0
   37.7270   28.4540   35.8110 H   0  0  0  0  0  0  0  0  0  0  0  0
   41.2600   24.6040   34.9250 C   0  0  0  0  0  3  0  0  0  0  0  0
   40.0000   24.4860   35.4750 C   0  0  0  0  0  0  0  0  0  0  0  0
   39.7440   23.4910   36.4000 C   0  0  0  0  0  0  0  0  0  0  0  0
   38.7470   23.4250   36.8120 H   0  0  0  0  0  0  0  0  0  0  0  0
   40.7080   22.5910   36.8110 C   0  0  0  0  0  0  0  0  0  0  0  0
   40.7280   21.5570   37.6720 N   0  0  0  0  0  0  0  0  0  0  0  0
   41.9780   21.0640   37.6390 C   0  0  0  0  0  0  0  0  0  0  0  0
   42.1950   20.2080   38.2790 H   0  0  0  0  0  0  0  0  0  0  0  0
   42.7380   21.7720   36.7740 N   0  0  0  0  0  0  0  0  0  0  0  0
   41.9660   22.7370   36.2410 C   0  0  0  0  0  0  0  0  0  0  0  0
   42.2490   23.7210   35.3150 C   0  0  0  0  0  3  0  0  0  0  0  0
   39.8700   21.2810   38.2090 H   0  0  0  0  0  0  0  0  0  0  0  0
   36.3830   25.7190   32.3750 C   0  0  1  0  0  0  0  0  0  0  0  0
   36.8050   26.0430   31.0130 C   0  0  2  0  0  0  0  0  0  0  0  0
   36.9990   24.6310   31.4780 C   0  0  0  0  0  0  0  0  0  0  0  0
   35.3220   25.5430   32.6710 H   0  0  0  0  0  0  0  0  0  0  0  0
   35.9400   26.3410   30.3510 H   0  0  0  0  0  0  0  0  0  0  0  0
   38.0510   24.3240   31.6670 H   0  0  0  0  0  0  0  0  0  0  0  0
   36.2920   23.8450   31.1920 H   0  0  0  0  0  0  0  0  0  0  0  0
   37.9120   26.8690   30.8710 O   0  0  0  0  0  0  0  0  0  0  0  0
   38.0960   27.9510   30.0790 C   0  0  0  0  0  0  0  0  0  0  0  0
   39.1620   28.6050   30.0790 O   0  0  0  0  0  0  0  0  0  0  0  0
   36.9320   28.1500   29.3360 N   0  0  0  0  0  0  0  0  0  0  0  0
   37.2140   27.6670   28.4320 H   0  0  0  0  0  0  0  0  0  0  0  0
   36.2220   28.6850   29.9170 H   0  0  0  0  0  0  0  0  0  0  0  0
  1  6  2  0  0  0  0
  1  2  1  0  0  0  0
  2  3  2  0  0  0  0
  3  4  1  0  0  0  0
  3  8  1  0  0  0  0
  5 10  1  0  0  0  0
  5  4  2  0  0  0  0
  6  5  1  0  0  0  0
  7  2  1  0  0  0  0
  9 19  2  0  0  0  0
  9 10  1  0  0  0  0
 10 11  2  0  0  0  0
 11 13  1  0  0  0  0
 11 12  1  0  0  0  0
 13 14  1  0  0  0  0
 14 20  1  0  0  0  0
 15 14  1  0  0  0  0
 15 16  1  0  0  0  0
 17 15  2  0  0  0  0
 18 17  1  0  0  0  0
 18 13  2  0  0  0  0
 19 18  1  0  0  0  0
 21 24  1  1  0  0  0
 21  1  1  0  0  0  0
 22 25  1  6  0  0  0
 22 23  1  0  0  0  0
 22 21  1  0  0  0  0
 23 26  1  0  0  0  0
 23 21  1  0  0  0  0
 27 23  1  0  0  0  0
 28 22  1  0  0  0  0
 29 28  1  0  0  0  0
 30 29  2  0  0  0  0
 31 33  1  0  0  0  0
 31 29  1  0  0  0  0
 32 31  1  0  0  0  0
M  END
>  <minimizedAffinity>
-5.24723816

$$$$

 OpenBabel03272507213D

 33 36  0  0  1  0  0  0  0  0999 V2000
   38.2190   23.8720   35.1660 C   0  0  0  0  0  0  0  0  0  0  0  0
   39.1060   23.2100   34.3320 C   0  0  0  0  0  0  0  0  0  0  0  0
   39.3430   23.8640   33.1030 C   0  0  0  0  0  0  0  0  0  0  0  0
   38.7280   25.0450   32.8060 N   0  0  0  0  0  0  0  0  0  0  0  0
   37.8670   25.6530   33.6600 C   0  0  0  0  0  0  0  0  0  0  0  0
   37.6120   25.0460   34.8650 N   0  0  0  0  0  0  0  0  0  0  0  0
   39.5720   22.2800   34.5970 H   0  0  0  0  0  0  0  0  0  0  0  0
   40.0220   23.4140   32.3910 H   0  0  0  0  0  0  0  0  0  0  0  0
   36.7700   27.7000   34.3740 C   0  0  0  0  0  3  0  0  0  0  0  0
   37.2170   26.9190   33.3290 C   0  0  0  0  0  0  0  0  0  0  0  0
   37.0400   27.3450   32.0270 C   0  0  0  0  0  0  0  0  0  0  0  0
   37.4010   26.7100   31.2290 H   0  0  0  0  0  0  0  0  0  0  0  0
   36.4250   28.5420   31.7120 C   0  0  0  0  0  0  0  0  0  0  0  0
   36.1320   29.1800   30.5650 N   0  0  0  0  0  0  0  0  0  0  0  0
   35.5210   30.3240   30.9160 C   0  0  0  0  0  0  0  0  0  0  0  0
   35.2020   30.9880   30.1110 H   0  0  0  0  0  0  0  0  0  0  0  0
   35.4270   30.4120   32.2610 N   0  0  0  0  0  0  0  0  0  0  0  0
   35.9880   29.3070   32.7860 C   0  0  0  0  0  0  0  0  0  0  0  0
   36.1520   28.9040   34.0960 C   0  0  0  0  0  3  0  0  0  0  0  0
   36.3820   28.7660   29.6340 H   0  0  0  0  0  0  0  0  0  0  0  0
   37.9610   23.2220   36.4910 C   0  0  1  0  0  0  0  0  0  0  0  0
   39.0110   23.0730   37.4970 C   0  0  2  0  0  0  0  0  0  0  0  0
   38.0560   24.2170   37.6610 C   0  0  0  0  0  0  0  0  0  0  0  0
   37.0300   22.6070   36.4680 H   0  0  0  0  0  0  0  0  0  0  0  0
   38.9070   22.1180   38.0920 H   0  0  0  0  0  0  0  0  0  0  0  0
   38.4750   25.2280   37.4610 H   0  0  0  0  0  0  0  0  0  0  0  0
   37.2180   24.1520   38.3630 H   0  0  0  0  0  0  0  0  0  0  0  0
   40.3150   23.3280   37.0970 O   0  0  0  0  0  0  0  0  0  0  0  0
   41.4030   22.5230   37.1050 C   0  0  0  0  0  0  0  0  0  0  0  0
   42.4880   22.8600   36.5810 O   0  0  0  0  0  0  0  0  0  0  0  0
   41.0660   21.3420   37.7690 N   0  0  0  0  0  0  0  0  0  0  0  0
   41.4500   21.5670   38.7340 H   0  0  0  0  0  0  0  0  0  0  0  0
   40.5720   20.6830   37.1000 H   0  0  0  0  0  0  0  0  0  0  0  0
  1 21  1  0  0  0  0
  2  7  1  0  0  0  0
  2  1  2  0  0  0  0
  3  2  1  0  0  0  0
  4  3  2  0  0  0  0
  4  5  1  0  0  0  0
  5  6  2  0  0  0  0
  6  1  1  0  0  0  0
  8  3  1  0  0  0  0
 10  5  1  0  0  0  0
 10  9  2  0  0  0  0
 11 10  1  0  0  0  0
 12 11  1  0  0  0  0
 13 11  2  0  0  0  0
 13 18  1  0  0  0  0
 14 15  1  0  0  0  0
 14 13  1  0  0  0  0
 15 17  2  0  0  0  0
 16 15  1  0  0  0  0
 17 18  1  0  0  0  0
 18 19  2  0  0  0  0
 19  9  1  0  0  0  0
 20 14  1  0  0  0  0
 21 24  1  1  0  0  0
 21 22  1  0  0  0  0
 21 23  1  0  0  0  0
 22 23  1  0  0  0  0
 22 25  1  1  0  0  0
 23 27  1  0  0  0  0
 26 23  1  0  0  0  0
 28 29  1  0  0  0  0
 28 22  1  0  0  0  0
 29 31  1  0  0  0  0
 30 29  2  0  0  0  0
 31 32  1  0  0  0  0
 33 31  1  0  0  0  0
M  END
>  <minimizedAffinity>
-5.22670555

$$$$
