
 OpenBabel03272510013D

 24 26  0  0  0  0  0  0  0  0999 V2000
   38.2010   31.4640   50.3070 C   0  0  0  0  0  0  0  0  0  0  0  0
   38.5650   31.4950   48.9590 C   0  0  0  0  0  0  0  0  0  0  0  0
   37.7910   30.7740   48.0620 C   0  0  0  0  0  0  0  0  0  0  0  0
   36.7300   30.0800   48.5350 N   0  0  0  0  0  0  0  0  0  0  0  0
   36.4050   30.0710   49.8500 C   0  0  0  0  0  0  0  0  0  0  0  0
   37.1480   30.7660   50.7270 N   0  0  0  0  0  0  0  0  0  0  0  0
   38.8350   32.0420   50.9710 H   0  0  0  0  0  0  0  0  0  0  0  0
   39.4040   32.0470   48.6170 H   0  0  0  0  0  0  0  0  0  0  0  0
   36.9850   30.6740   45.7820 C   0  0  0  0  0  3  0  0  0  0  0  0
   38.0670   30.7270   46.6350 C   0  0  0  0  0  0  0  0  0  0  0  0
   39.3210   30.7330   46.1020 C   0  0  0  0  0  0  0  0  0  0  0  0
   40.1760   30.7740   46.7310 H   0  0  0  0  0  0  0  0  0  0  0  0
   39.5780   30.6890   44.7430 C   0  0  0  0  0  0  0  0  0  0  0  0
   40.7310   30.6860   44.0250 N   0  0  0  0  0  0  0  0  0  0  0  0
   40.3710   30.6310   42.7260 C   0  0  0  0  0  0  0  0  0  0  0  0
   41.1530   30.6200   41.9800 H   0  0  0  0  0  0  0  0  0  0  0  0
   39.0200   30.6010   42.6320 N   0  0  0  0  0  0  0  0  0  0  0  0
   38.4920   30.6350   43.8690 C   0  0  0  0  0  0  0  0  0  0  0  0
   37.2060   30.6280   44.4030 C   0  0  0  0  0  3  0  0  0  0  0  0
   41.7020   30.7210   44.4540 H   0  0  0  0  0  0  0  0  0  0  0  0
   35.2200   29.2750   50.2490 C   0  0  0  0  0  0  0  0  0  0  0  0
   35.2100   29.0090   51.6170 F   0  0  0  0  0  0  0  0  0  0  0  0
   34.0370   29.9550   49.9940 F   0  0  0  0  0  0  0  0  0  0  0  0
   35.1210   28.0680   49.6090 F   0  0  0  0  0  0  0  0  0  0  0  0
  1  6  1  0  0  0  0
  1  7  1  0  0  0  0
  2  1  2  0  0  0  0
  3  4  2  0  0  0  0
  3  2  1  0  0  0  0
  4  5  1  0  0  0  0
  5 21  1  0  0  0  0
  5  6  2  0  0  0  0
  8  2  1  0  0  0  0
  9 10  1  0  0  0  0
 10  3  1  0  0  0  0
 11 10  2  0  0  0  0
 11 12  1  0  0  0  0
 13 11  1  0  0  0  0
 14 20  1  0  0  0  0
 14 13  1  0  0  0  0
 15 14  1  0  0  0  0
 16 15  1  0  0  0  0
 17 15  2  0  0  0  0
 17 18  1  0  0  0  0
 18 19  1  0  0  0  0
 18 13  2  0  0  0  0
 19  9  2  0  0  0  0
 21 22  1  0  0  0  0
 23 21  1  0  0  0  0
 24 21  1  0  0  0  0
M  END
>  <minimizedAffinity>
-6.28957701

>  <minimizedRMSD>
1.55516648

$$$$
