
 OpenBabel03272508053D

 38 42  0  0  0  0  0  0  0  0999 V2000
   38.8420   30.9300   45.8210 C   0  0  0  0  0  0  0  0  0  0  0  0
   39.9860   31.6520   46.0600 C   0  0  0  0  0  0  0  0  0  0  0  0
   40.8410   31.6040   44.9600 C   0  0  0  0  0  0  0  0  0  0  0  0
   40.1620   30.8400   44.0900 N   0  0  0  0  0  0  0  0  0  0  0  0
   39.0000   30.4430   44.5810 N   0  0  0  0  0  0  0  0  0  0  0  0
   40.2200   32.1990   46.9750 H   0  0  0  0  0  0  0  0  0  0  0  0
   41.8130   32.0460   44.7900 H   0  0  0  0  0  0  0  0  0  0  0  0
   37.7250   30.7500   46.7270 C   0  0  0  0  0  0  0  0  0  0  0  0
   37.9400   30.9450   48.1150 C   0  0  0  0  0  0  0  0  0  0  0  0
   36.8500   30.7660   48.9640 C   0  0  0  0  0  0  0  0  0  0  0  0
   35.6510   30.4190   48.4190 N   0  0  0  0  0  0  0  0  0  0  0  0
   35.4680   30.2380   47.0860 C   0  0  0  0  0  0  0  0  0  0  0  0
   36.5160   30.4080   46.2520 N   0  0  0  0  0  0  0  0  0  0  0  0
   38.9110   31.2190   48.4970 H   0  0  0  0  0  0  0  0  0  0  0  0
   34.4840   29.9630   46.7300 H   0  0  0  0  0  0  0  0  0  0  0  0
   37.0410   30.9620   50.4260 C   0  0  0  0  0  0  0  0  0  0  0  0
   36.5580   32.2220   50.6990 F   0  0  0  0  0  0  0  0  0  0  0  0
   36.3480   30.0370   51.1860 F   0  0  0  0  0  0  0  0  0  0  0  0
   38.3920   30.9450   50.7690 F   0  0  0  0  0  0  0  0  0  0  0  0
   40.5650   30.4370   42.7360 C   0  0  0  0  0  0  0  0  0  0  0  0
   40.2280   31.1900   41.6000 C   0  0  0  0  0  0  0  0  0  0  0  0
   40.6200   30.7740   40.3860 C   0  0  0  0  0  0  0  0  0  0  0  0
   41.3740   29.5690   40.2760 C   0  0  0  0  0  0  0  0  0  0  0  0
   41.5000   29.0420   42.0450 S   0  0  0  0  0  0  0  0  0  0  0  0
   39.6510   32.1150   41.6830 H   0  0  0  0  0  0  0  0  0  0  0  0
   40.4380   31.2450   39.4320 H   0  0  0  0  0  0  0  0  0  0  0  0
   41.4990   27.6270   38.8540 C   0  0  0  0  0  0  0  0  0  0  0  0
   41.9200   28.8860   39.1630 C   0  0  0  0  0  0  0  0  0  0  0  0
   42.8780   29.5470   38.4260 C   0  0  0  0  0  0  0  0  0  0  0  0
   43.2390   30.5340   38.6310 H   0  0  0  0  0  0  0  0  0  0  0  0
   43.4330   28.8950   37.3200 C   0  0  0  0  0  0  0  0  0  0  0  0
   44.3640   29.2280   36.4020 N   0  0  0  0  0  0  0  0  0  0  0  0
   44.5350   28.2160   35.5320 C   0  0  0  0  0  0  0  0  0  0  0  0
   45.2060   28.1560   34.6740 H   0  0  0  0  0  0  0  0  0  0  0  0
   43.6920   27.2170   35.9070 N   0  0  0  0  0  0  0  0  0  0  0  0
   43.0090   27.6170   37.0040 C   0  0  0  0  0  0  0  0  0  0  0  0
   42.0540   26.9820   37.7550 C   0  0  0  0  0  0  0  0  0  0  0  0
   44.8760   30.1350   36.3690 H   0  0  0  0  0  0  0  0  0  0  0  0
  1  2  1  0  0  0  0
  1  8  1  0  0  0  0
  2  6  1  0  0  0  0
  3  2  2  0  0  0  0
  4  5  1  0  0  0  0
  4  3  1  0  0  0  0
  5  1  2  0  0  0  0
  7  3  1  0  0  0  0
  8  9  1  0  0  0  0
  9 14  1  0  0  0  0
  9 10  2  0  0  0  0
 10 16  1  0  0  0  0
 11 10  1  0  0  0  0
 12 11  2  0  0  0  0
 13  8  2  0  0  0  0
 13 12  1  0  0  0  0
 15 12  1  0  0  0  0
 16 17  1  0  0  0  0
 16 19  1  0  0  0  0
 16 18  1  0  0  0  0
 20  4  1  0  0  0  0
 21 25  1  0  0  0  0
 21 20  2  0  0  0  0
 22 21  1  0  0  0  0
 23 22  2  0  0  0  0
 23 24  1  0  0  0  0
 24 20  1  0  0  0  0
 26 22  1  0  0  0  0
 27 28  1  0  0  0  0
 28 23  1  0  0  0  0
 29 30  1  0  0  0  0
 29 28  2  0  0  0  0
 31 29  1  0  0  0  0
 32 31  1  0  0  0  0
 33 35  2  0  0  0  0
 33 32  1  0  0  0  0
 34 33  1  0  0  0  0
 35 36  1  0  0  0  0
 36 31  2  0  0  0  0
 36 37  1  0  0  0  0
 37 27  2  0  0  0  0
 38 32  1  0  0  0  0
M  END
>  <minimizedAffinity>
-6.49976778

>  <minimizedRMSD>
0.241795272

$$$$
