
 OpenBabel03272510013D

 24 26  0  0  0  0  0  0  0  0999 V2000
   37.3430   30.2210   51.4150 C   0  0  0  0  0  0  0  0  0  0  0  0
   38.1460   30.7730   50.4140 C   0  0  0  0  0  0  0  0  0  0  0  0
   37.6840   30.7150   49.1080 C   0  0  0  0  0  0  0  0  0  0  0  0
   36.4870   30.1300   48.8700 N   0  0  0  0  0  0  0  0  0  0  0  0
   35.7340   29.6040   49.8640 C   0  0  0  0  0  0  0  0  0  0  0  0
   36.1710   29.6550   51.1330 N   0  0  0  0  0  0  0  0  0  0  0  0
   37.7430   30.2890   52.4210 H   0  0  0  0  0  0  0  0  0  0  0  0
   39.0810   31.2250   50.6310 H   0  0  0  0  0  0  0  0  0  0  0  0
   38.8430   32.5670   48.0640 C   0  0  0  0  0  3  0  0  0  0  0  0
   38.4270   31.2540   47.9800 C   0  0  0  0  0  0  0  0  0  0  0  0
   38.7320   30.5420   46.8600 C   0  0  0  0  0  0  0  0  0  0  0  0
   38.4270   29.5300   46.7620 H   0  0  0  0  0  0  0  0  0  0  0  0
   39.4390   31.0600   45.7890 C   0  0  0  0  0  0  0  0  0  0  0  0
   39.8370   30.5270   44.6040 N   0  0  0  0  0  0  0  0  0  0  0  0
   40.4990   31.5010   43.9490 C   0  0  0  0  0  0  0  0  0  0  0  0
   40.9020   31.2780   42.9720 H   0  0  0  0  0  0  0  0  0  0  0  0
   40.5160   32.6250   44.7080 N   0  0  0  0  0  0  0  0  0  0  0  0
   39.8650   32.3880   45.8610 C   0  0  0  0  0  0  0  0  0  0  0  0
   39.5600   33.1240   47.0030 C   0  0  0  0  0  3  0  0  0  0  0  0
   39.6380   29.5270   44.3030 H   0  0  0  0  0  0  0  0  0  0  0  0
   34.4400   28.9890   49.4810 C   0  0  0  0  0  0  0  0  0  0  0  0
   33.4320   29.2900   50.3960 F   0  0  0  0  0  0  0  0  0  0  0  0
   33.9880   29.4670   48.2600 F   0  0  0  0  0  0  0  0  0  0  0  0
   34.4850   27.6240   49.3740 F   0  0  0  0  0  0  0  0  0  0  0  0
  1  7  1  0  0  0  0
  2  8  1  0  0  0  0
  2  1  2  0  0  0  0
  3  2  1  0  0  0  0
  4  3  2  0  0  0  0
  4  5  1  0  0  0  0
  5  6  2  0  0  0  0
  6  1  1  0  0  0  0
 10  9  1  0  0  0  0
 10  3  1  0  0  0  0
 11 10  2  0  0  0  0
 12 11  1  0  0  0  0
 13 18  2  0  0  0  0
 13 11  1  0  0  0  0
 14 13  1  0  0  0  0
 15 14  1  0  0  0  0
 15 17  2  0  0  0  0
 16 15  1  0  0  0  0
 17 18  1  0  0  0  0
 18 19  1  0  0  0  0
 19  9  2  0  0  0  0
 20 14  1  0  0  0  0
 21  5  1  0  0  0  0
 21 22  1  0  0  0  0
 23 21  1  0  0  0  0
 24 21  1  0  0  0  0
M  END
>  <minimizedAffinity>
-6.69087172

>  <minimizedRMSD>
2.54054809

$$$$
