
 OpenBabel03272505393D

 34 37  0  0  0  0  0  0  0  0999 V2000
   40.6810   25.1260   34.8190 C   0  0  0  0  0  0  0  0  0  0  0  0
   42.0030   24.7210   34.7490 C   0  0  0  0  0  0  0  0  0  0  0  0
   42.9700   25.5620   34.2280 C   0  0  0  0  0  0  0  0  0  0  0  0
   42.6830   26.8280   33.7610 C   0  0  0  0  0  0  0  0  0  0  0  0
   41.3620   27.2510   33.8260 C   0  0  0  0  0  0  0  0  0  0  0  0
   40.4320   26.3830   34.3480 C   0  0  0  0  0  0  0  0  0  0  0  0
   42.1980   23.7180   35.1270 H   0  0  0  0  0  0  0  0  0  0  0  0
   43.9620   25.0810   34.2480 H   0  0  0  0  0  0  0  0  0  0  0  0
   43.5600   27.3240   33.3970 H   0  0  0  0  0  0  0  0  0  0  0  0
   41.2090   28.2450   33.4440 H   0  0  0  0  0  0  0  0  0  0  0  0
   38.3020   27.4570   35.3090 C   0  0  0  0  0  3  0  0  0  0  0  0
   39.1080   27.0080   34.3050 C   0  0  0  0  0  0  0  0  0  0  0  0
   38.6630   27.1100   32.9790 C   0  0  0  0  0  0  0  0  0  0  0  0
   39.2110   26.7900   32.0820 H   0  0  0  0  0  0  0  0  0  0  0  0
   37.4340   27.6540   32.6960 C   0  0  0  0  0  0  0  0  0  0  0  0
   36.7320   27.8890   31.5720 N   0  0  0  0  0  0  0  0  0  0  0  0
   35.5270   28.4610   31.8060 C   0  0  0  0  0  0  0  0  0  0  0  0
   34.8130   28.7270   31.0370 H   0  0  0  0  0  0  0  0  0  0  0  0
   35.4890   28.5850   33.1670 N   0  0  0  0  0  0  0  0  0  0  0  0
   36.6280   28.1030   33.6970 C   0  0  0  0  0  0  0  0  0  0  0  0
   37.0740   27.9980   34.9910 C   0  0  0  0  0  3  0  0  0  0  0  0
   37.0800   27.6520   30.5930 H   0  0  0  0  0  0  0  0  0  0  0  0
   38.3990   23.5000   37.1520 C   0  0  0  0  0  0  0  0  0  0  0  0
   37.7260   22.5710   36.3360 C   0  0  0  0  0  0  0  0  0  0  0  0
   38.0730   22.5290   34.9800 C   0  0  0  0  0  0  0  0  0  0  0  0
   39.0360   23.3890   34.5460 N   0  0  0  0  0  0  0  0  0  0  0  0
   39.6570   24.2590   35.3500 C   0  0  0  0  0  0  0  0  0  0  0  0
   39.3270   24.2990   36.6350 N   0  0  0  0  0  0  0  0  0  0  0  0
   36.9740   21.9310   36.7890 H   0  0  0  0  0  0  0  0  0  0  0  0
   37.5610   21.8170   34.3410 H   0  0  0  0  0  0  0  0  0  0  0  0
   38.0130   23.5240   38.5970 C   0  0  0  0  0  0  0  0  0  0  0  0
   37.4840   24.7780   38.8980 F   0  0  0  0  0  0  0  0  0  0  0  0
   37.1110   22.5260   38.7990 F   0  0  0  0  0  0  0  0  0  0  0  0
   39.1630   23.3890   39.3550 F   0  0  0  0  0  0  0  0  0  0  0  0
  1 27  1  0  0  0  0
  2  1  1  0  0  0  0
  2  7  1  0  0  0  0
  3  8  1  0  0  0  0
  3  2  2  0  0  0  0
  4  5  2  0  0  0  0
  4  3  1  0  0  0  0
  5  6  1  0  0  0  0
  6  1  2  0  0  0  0
  9  4  1  0  0  0  0
 10  5  1  0  0  0  0
 12  6  1  0  0  0  0
 12 11  2  0  0  0  0
 13 12  1  0  0  0  0
 14 13  1  0  0  0  0
 15 13  2  0  0  0  0
 15 20  1  0  0  0  0
 16 17  1  0  0  0  0
 16 15  1  0  0  0  0
 17 19  2  0  0  0  0
 18 17  1  0  0  0  0
 19 20  1  0  0  0  0
 20 21  2  0  0  0  0
 21 11  1  0  0  0  0
 22 16  1  0  0  0  0
 23 31  1  0  0  0  0
 24 29  1  0  0  0  0
 24 23  2  0  0  0  0
 25 24  1  0  0  0  0
 26 25  2  0  0  0  0
 26 27  1  0  0  0  0
 27 28  2  0  0  0  0
 28 23  1  0  0  0  0
 30 25  1  0  0  0  0
 31 33  1  0  0  0  0
 31 32  1  0  0  0  0
 31 34  1  0  0  0  0
M  END
>  <minimizedAffinity>
-6.53712511

$$$$

 OpenBabel03272505393D

 34 37  0  0  0  0  0  0  0  0999 V2000
   37.0170   21.8040   33.7010 C   0  0  0  0  0  0  0  0  0  0  0  0
   36.2740   20.6500   33.8840 C   0  0  0  0  0  0  0  0  0  0  0  0
   35.2820   20.3000   32.9850 C   0  0  0  0  0  0  0  0  0  0  0  0
   34.9830   21.0620   31.8740 C   0  0  0  0  0  0  0  0  0  0  0  0
   35.7190   22.2210   31.6740 C   0  0  0  0  0  0  0  0  0  0  0  0
   36.6940   22.5330   32.5930 C   0  0  0  0  0  0  0  0  0  0  0  0
   36.5360   20.0690   34.7690 H   0  0  0  0  0  0  0  0  0  0  0  0
   34.7950   19.3580   33.2840 H   0  0  0  0  0  0  0  0  0  0  0  0
   34.1860   20.6300   31.3010 H   0  0  0  0  0  0  0  0  0  0  0  0
   35.4320   22.7670   30.7920 H   0  0  0  0  0  0  0  0  0  0  0  0
   37.4230   24.9830   32.8780 C   0  0  0  0  0  3  0  0  0  0  0  0
   37.3320   23.7960   32.2130 C   0  0  0  0  0  0  0  0  0  0  0  0
   37.9040   23.6860   30.9380 C   0  0  0  0  0  0  0  0  0  0  0  0
   37.9040   22.7910   30.2990 H   0  0  0  0  0  0  0  0  0  0  0  0
   38.5480   24.7570   30.3670 C   0  0  0  0  0  0  0  0  0  0  0  0
   39.1810   24.9760   29.2000 N   0  0  0  0  0  0  0  0  0  0  0  0
   39.6700   26.2340   29.0880 C   0  0  0  0  0  0  0  0  0  0  0  0
   40.2080   26.6090   28.2270 H   0  0  0  0  0  0  0  0  0  0  0  0
   39.3090   26.8250   30.2670 N   0  0  0  0  0  0  0  0  0  0  0  0
   38.6400   25.9420   31.0300 C   0  0  0  0  0  0  0  0  0  0  0  0
   38.0760   26.0380   32.2780 C   0  0  0  0  0  3  0  0  0  0  0  0
   39.2930   24.2410   28.4370 H   0  0  0  0  0  0  0  0  0  0  0  0
   38.6730   23.0630   36.6940 C   0  0  0  0  0  0  0  0  0  0  0  0
   40.0380   22.9450   36.3700 C   0  0  0  0  0  0  0  0  0  0  0  0
   40.3630   22.4210   35.1120 C   0  0  0  0  0  0  0  0  0  0  0  0
   39.3360   22.0630   34.2920 N   0  0  0  0  0  0  0  0  0  0  0  0
   38.0480   22.1890   34.6330 C   0  0  0  0  0  0  0  0  0  0  0  0
   37.7420   22.6850   35.8250 N   0  0  0  0  0  0  0  0  0  0  0  0
   40.7760   23.2640   37.1020 H   0  0  0  0  0  0  0  0  0  0  0  0
   41.4110   22.3260   34.8510 H   0  0  0  0  0  0  0  0  0  0  0  0
   38.3530   23.6270   38.0420 C   0  0  0  0  0  0  0  0  0  0  0  0
   39.4520   23.4390   38.8790 F   0  0  0  0  0  0  0  0  0  0  0  0
   38.0520   24.9430   37.8780 F   0  0  0  0  0  0  0  0  0  0  0  0
   37.3150   22.8890   38.5850 F   0  0  0  0  0  0  0  0  0  0  0  0
  1  2  1  0  0  0  0
  1 27  1  0  0  0  0
  2  7  1  0  0  0  0
  3  8  1  0  0  0  0
  3  2  2  0  0  0  0
  4  3  1  0  0  0  0
  5  4  2  0  0  0  0
  5  6  1  0  0  0  0
  6  1  2  0  0  0  0
  9  4  1  0  0  0  0
 10  5  1  0  0  0  0
 12  6  1  0  0  0  0
 12 11  2  0  0  0  0
 13 12  1  0  0  0  0
 14 13  1  0  0  0  0
 15 13  2  0  0  0  0
 15 20  1  0  0  0  0
 16 15  1  0  0  0  0
 17 16  1  0  0  0  0
 17 19  2  0  0  0  0
 18 17  1  0  0  0  0
 19 20  1  0  0  0  0
 20 21  2  0  0  0  0
 21 11  1  0  0  0  0
 22 16  1  0  0  0  0
 23 31  1  0  0  0  0
 24 23  1  0  0  0  0
 24 29  1  0  0  0  0
 25 24  2  0  0  0  0
 26 27  2  0  0  0  0
 26 25  1  0  0  0  0
 27 28  1  0  0  0  0
 28 23  2  0  0  0  0
 30 25  1  0  0  0  0
 31 34  1  0  0  0  0
 31 32  1  0  0  0  0
 33 31  1  0  0  0  0
M  END
>  <minimizedAffinity>
-6.40587759

$$$$

 OpenBabel03272505393D

 34 37  0  0  0  0  0  0  0  0999 V2000
   39.7950   27.2250   32.1860 C   0  0  0  0  0  0  0  0  0  0  0  0
   40.6950   27.6330   31.2150 C   0  0  0  0  0  0  0  0  0  0  0  0
   42.0390   27.7700   31.5140 C   0  0  0  0  0  0  0  0  0  0  0  0
   42.5520   27.5120   32.7680 C   0  0  0  0  0  0  0  0  0  0  0  0
   41.6640   27.1010   33.7530 C   0  0  0  0  0  0  0  0  0  0  0  0
   40.3370   26.9790   33.4140 C   0  0  0  0  0  0  0  0  0  0  0  0
   40.2590   27.8260   30.2350 H   0  0  0  0  0  0  0  0  0  0  0  0
   42.6060   28.1010   30.6300 H   0  0  0  0  0  0  0  0  0  0  0  0
   43.6110   27.6770   32.8040 H   0  0  0  0  0  0  0  0  0  0  0  0
   42.1310   26.9200   34.7060 H   0  0  0  0  0  0  0  0  0  0  0  0
   38.8630   27.2890   35.4990 C   0  0  0  0  0  3  0  0  0  0  0  0
   39.5730   26.5600   34.5920 C   0  0  0  0  0  0  0  0  0  0  0  0
   39.6480   25.1690   34.7490 C   0  0  0  0  0  0  0  0  0  0  0  0
   40.1830   24.4670   34.0920 H   0  0  0  0  0  0  0  0  0  0  0  0
   39.0170   24.5490   35.7990 C   0  0  0  0  0  0  0  0  0  0  0  0
   38.8970   23.2780   36.2230 N   0  0  0  0  0  0  0  0  0  0  0  0
   38.1510   23.1590   37.3470 C   0  0  0  0  0  0  0  0  0  0  0  0
   37.9370   22.2230   37.8480 H   0  0  0  0  0  0  0  0  0  0  0  0
   37.7900   24.4470   37.6310 N   0  0  0  0  0  0  0  0  0  0  0  0
   38.3080   25.2760   36.7050 C   0  0  0  0  0  0  0  0  0  0  0  0
   38.2400   26.6380   36.5420 C   0  0  0  0  0  3  0  0  0  0  0  0
   39.3400   22.4430   35.7320 H   0  0  0  0  0  0  0  0  0  0  0  0
   36.5730   25.7430   31.3420 C   0  0  0  0  0  0  0  0  0  0  0  0
   35.7130   26.8580   31.3120 C   0  0  0  0  0  0  0  0  0  0  0  0
   36.2690   28.1120   31.5950 C   0  0  0  0  0  0  0  0  0  0  0  0
   37.6000   28.1660   31.8770 N   0  0  0  0  0  0  0  0  0  0  0  0
   38.3890   27.0850   31.8950 C   0  0  0  0  0  0  0  0  0  0  0  0
   37.8610   25.8970   31.6290 N   0  0  0  0  0  0  0  0  0  0  0  0
   34.6650   26.6990   31.0730 H   0  0  0  0  0  0  0  0  0  0  0  0
   35.6170   28.9780   31.5750 H   0  0  0  0  0  0  0  0  0  0  0  0
   35.9560   24.4150   31.0350 C   0  0  0  0  0  0  0  0  0  0  0  0
   35.7370   23.7360   32.2330 F   0  0  0  0  0  0  0  0  0  0  0  0
   34.8000   24.6440   30.3570 F   0  0  0  0  0  0  0  0  0  0  0  0
   36.8750   23.6660   30.3200 F   0  0  0  0  0  0  0  0  0  0  0  0
  1  6  1  0  0  0  0
  2  3  1  0  0  0  0
  2  1  2  0  0  0  0
  3  4  2  0  0  0  0
  4  9  1  0  0  0  0
  4  5  1  0  0  0  0
  5 10  1  0  0  0  0
  6  5  2  0  0  0  0
  6 12  1  0  0  0  0
  7  2  1  0  0  0  0
  8  3  1  0  0  0  0
 11 21  1  0  0  0  0
 12 13  1  0  0  0  0
 12 11  2  0  0  0  0
 13 15  2  0  0  0  0
 14 13  1  0  0  0  0
 15 16  1  0  0  0  0
 15 20  1  0  0  0  0
 16 17  1  0  0  0  0
 17 19  2  0  0  0  0
 17 18  1  0  0  0  0
 20 19  1  0  0  0  0
 21 20  2  0  0  0  0
 22 16  1  0  0  0  0
 23 28  1  0  0  0  0
 24 23  2  0  0  0  0
 24 25  1  0  0  0  0
 25 26  2  0  0  0  0
 26 27  1  0  0  0  0
 27  1  1  0  0  0  0
 28 27  2  0  0  0  0
 29 24  1  0  0  0  0
 30 25  1  0  0  0  0
 31 23  1  0  0  0  0
 31 32  1  0  0  0  0
 33 31  1  0  0  0  0
 34 31  1  0  0  0  0
M  END
>  <minimizedAffinity>
-6.3676548

$$$$

 OpenBabel03272505393D

 34 37  0  0  0  0  0  0  0  0999 V2000
   36.9510   21.6010   33.5160 C   0  0  0  0  0  0  0  0  0  0  0  0
   36.1620   20.4960   33.7900 C   0  0  0  0  0  0  0  0  0  0  0  0
   35.1410   20.1300   32.9320 C   0  0  0  0  0  0  0  0  0  0  0  0
   34.8540   20.8250   31.7760 C   0  0  0  0  0  0  0  0  0  0  0  0
   35.6360   21.9350   31.4840 C   0  0  0  0  0  0  0  0  0  0  0  0
   36.6390   22.2660   32.3640 C   0  0  0  0  0  0  0  0  0  0  0  0
   36.4150   19.9670   34.7080 H   0  0  0  0  0  0  0  0  0  0  0  0
   34.6180   19.2330   33.3030 H   0  0  0  0  0  0  0  0  0  0  0  0
   34.0300   20.3900   31.2460 H   0  0  0  0  0  0  0  0  0  0  0  0
   35.3570   22.4300   30.5700 H   0  0  0  0  0  0  0  0  0  0  0  0
   38.4410   23.6150   31.1200 C   0  0  0  0  0  3  0  0  0  0  0  0
   37.3240   23.4700   31.8880 C   0  0  0  0  0  0  0  0  0  0  0  0
   36.6690   24.6180   32.3570 C   0  0  0  0  0  0  0  0  0  0  0  0
   35.7630   24.6420   32.9800 H   0  0  0  0  0  0  0  0  0  0  0  0
   37.1440   25.8690   32.0470 C   0  0  0  0  0  0  0  0  0  0  0  0
   36.7650   27.1290   32.3280 N   0  0  0  0  0  0  0  0  0  0  0  0
   37.5780   28.0640   31.7810 C   0  0  0  0  0  0  0  0  0  0  0  0
   37.4460   29.1330   31.8910 H   0  0  0  0  0  0  0  0  0  0  0  0
   38.5190   27.3250   31.1200 N   0  0  0  0  0  0  0  0  0  0  0  0
   38.2590   26.0140   31.2800 C   0  0  0  0  0  0  0  0  0  0  0  0
   38.8920   24.8840   30.8260 C   0  0  0  0  0  3  0  0  0  0  0  0
   35.9140   27.3760   32.9200 H   0  0  0  0  0  0  0  0  0  0  0  0
   38.7120   22.9240   36.4200 C   0  0  0  0  0  0  0  0  0  0  0  0
   40.0650   22.7920   36.0540 C   0  0  0  0  0  0  0  0  0  0  0  0
   40.3440   22.2350   34.7990 C   0  0  0  0  0  0  0  0  0  0  0  0
   39.2900   21.8620   34.0230 N   0  0  0  0  0  0  0  0  0  0  0  0
   38.0150   22.0040   34.4030 C   0  0  0  0  0  0  0  0  0  0  0  0
   37.7510   22.5300   35.5920 N   0  0  0  0  0  0  0  0  0  0  0  0
   40.8270   23.1250   36.7530 H   0  0  0  0  0  0  0  0  0  0  0  0
   41.3830   22.1280   34.5060 H   0  0  0  0  0  0  0  0  0  0  0  0
   38.4390   23.5230   37.7630 C   0  0  0  0  0  0  0  0  0  0  0  0
   37.2770   22.9510   38.2810 F   0  0  0  0  0  0  0  0  0  0  0  0
   39.5220   23.2830   38.5500 F   0  0  0  0  0  0  0  0  0  0  0  0
   38.1710   24.8700   37.5910 F   0  0  0  0  0  0  0  0  0  0  0  0
  1  2  1  0  0  0  0
  1 27  1  0  0  0  0
  2  7  1  0  0  0  0
  3  8  1  0  0  0  0
  3  2  2  0  0  0  0
  4  3  1  0  0  0  0
  5  4  2  0  0  0  0
  5  6  1  0  0  0  0
  6  1  2  0  0  0  0
  9  4  1  0  0  0  0
 10  5  1  0  0  0  0
 11 12  1  0  0  0  0
 12 13  2  0  0  0  0
 12  6  1  0  0  0  0
 13 14  1  0  0  0  0
 15 16  1  0  0  0  0
 15 13  1  0  0  0  0
 16 22  1  0  0  0  0
 17 18  1  0  0  0  0
 17 16  1  0  0  0  0
 19 20  1  0  0  0  0
 19 17  2  0  0  0  0
 20 15  2  0  0  0  0
 21 11  2  0  0  0  0
 21 20  1  0  0  0  0
 23 31  1  0  0  0  0
 24 23  1  0  0  0  0
 24 29  1  0  0  0  0
 25 24  2  0  0  0  0
 26 27  2  0  0  0  0
 26 25  1  0  0  0  0
 27 28  1  0  0  0  0
 28 23  2  0  0  0  0
 30 25  1  0  0  0  0
 31 32  1  0  0  0  0
 31 33  1  0  0  0  0
 34 31  1  0  0  0  0
M  END
>  <minimizedAffinity>
-6.26343536

$$$$

 OpenBabel03272505393D

 34 37  0  0  0  0  0  0  0  0999 V2000
   36.8950   24.9810   32.2200 C   0  0  0  0  0  0  0  0  0  0  0  0
   36.1970   25.8620   31.4110 C   0  0  0  0  0  0  0  0  0  0  0  0
   36.1310   27.2070   31.7280 C   0  0  0  0  0  0  0  0  0  0  0  0
   36.7460   27.7400   32.8420 C   0  0  0  0  0  0  0  0  0  0  0  0
   37.4520   26.8720   33.6630 C   0  0  0  0  0  0  0  0  0  0  0  0
   37.4910   25.5420   33.3130 C   0  0  0  0  0  0  0  0  0  0  0  0
   35.7240   25.4110   30.5390 H   0  0  0  0  0  0  0  0  0  0  0  0
   35.5370   27.7580   30.9810 H   0  0  0  0  0  0  0  0  0  0  0  0
   36.5800   28.7970   32.9180 H   0  0  0  0  0  0  0  0  0  0  0  0
   37.9040   27.3530   34.5130 H   0  0  0  0  0  0  0  0  0  0  0  0
   39.4080   24.0740   34.1960 C   0  0  0  0  0  3  0  0  0  0  0  0
   38.2600   24.7990   34.3140 C   0  0  0  0  0  0  0  0  0  0  0  0
   37.6380   24.8870   35.5670 C   0  0  0  0  0  0  0  0  0  0  0  0
   36.7150   25.4380   35.7990 H   0  0  0  0  0  0  0  0  0  0  0  0
   38.1760   24.2520   36.6600 C   0  0  0  0  0  0  0  0  0  0  0  0
   37.8390   24.1390   37.9580 N   0  0  0  0  0  0  0  0  0  0  0  0
   38.7090   23.3830   38.6690 C   0  0  0  0  0  0  0  0  0  0  0  0
   38.6160   23.1700   39.7270 H   0  0  0  0  0  0  0  0  0  0  0  0
   39.6420   23.0080   37.7430 N   0  0  0  0  0  0  0  0  0  0  0  0
   39.3230   23.5280   36.5430 C   0  0  0  0  0  0  0  0  0  0  0  0
   39.9240   23.4490   35.3120 C   0  0  0  0  0  3  0  0  0  0  0  0
   36.9790   24.5930   38.3910 H   0  0  0  0  0  0  0  0  0  0  0  0
   36.2080   21.4010   32.2360 C   0  0  0  0  0  0  0  0  0  0  0  0
   37.1550   20.8960   31.3240 C   0  0  0  0  0  0  0  0  0  0  0  0
   38.0160   21.8140   30.7100 C   0  0  0  0  0  0  0  0  0  0  0  0
   37.8790   23.1280   31.0380 N   0  0  0  0  0  0  0  0  0  0  0  0
   36.9670   23.5740   31.9100 C   0  0  0  0  0  0  0  0  0  0  0  0
   36.1510   22.7030   32.4910 N   0  0  0  0  0  0  0  0  0  0  0  0
   37.1770   19.8250   31.1380 H   0  0  0  0  0  0  0  0  0  0  0  0
   38.7500   21.4360   30.0060 H   0  0  0  0  0  0  0  0  0  0  0  0
   35.3010   20.4010   32.8800 C   0  0  0  0  0  0  0  0  0  0  0  0
   35.8670   19.1330   32.7470 F   0  0  0  0  0  0  0  0  0  0  0  0
   35.1490   20.7600   34.1830 F   0  0  0  0  0  0  0  0  0  0  0  0
   34.1120   20.3770   32.1720 F   0  0  0  0  0  0  0  0  0  0  0  0
  1  6  1  0  0  0  0
  2  3  1  0  0  0  0
  2  1  2  0  0  0  0
  3  4  2  0  0  0  0
  4  9  1  0  0  0  0
  4  5  1  0  0  0  0
  5 10  1  0  0  0  0
  6  5  2  0  0  0  0
  6 12  1  0  0  0  0
  7  2  1  0  0  0  0
  8  3  1  0  0  0  0
 11 12  2  0  0  0  0
 11 21  1  0  0  0  0
 12 13  1  0  0  0  0
 13 14  1  0  0  0  0
 13 15  2  0  0  0  0
 15 16  1  0  0  0  0
 16 22  1  0  0  0  0
 16 17  1  0  0  0  0
 17 18  1  0  0  0  0
 19 17  2  0  0  0  0
 20 15  1  0  0  0  0
 20 19  1  0  0  0  0
 21 20  2  0  0  0  0
 23 28  1  0  0  0  0
 23 31  1  0  0  0  0
 24 23  2  0  0  0  0
 25 26  2  0  0  0  0
 25 24  1  0  0  0  0
 26 27  1  0  0  0  0
 27  1  1  0  0  0  0
 27 28  2  0  0  0  0
 29 24  1  0  0  0  0
 30 25  1  0  0  0  0
 31 33  1  0  0  0  0
 32 31  1  0  0  0  0
 34 31  1  0  0  0  0
M  END
>  <minimizedAffinity>
-6.22259283

$$$$

 OpenBabel03272505393D

 34 37  0  0  0  0  0  0  0  0999 V2000
   37.5140   25.6510   33.1220 C   0  0  0  0  0  0  0  0  0  0  0  0
   37.3130   27.0160   33.2410 C   0  0  0  0  0  0  0  0  0  0  0  0
   36.5010   27.6890   32.3440 C   0  0  0  0  0  0  0  0  0  0  0  0
   35.8560   27.0540   31.3040 C   0  0  0  0  0  0  0  0  0  0  0  0
   36.0450   25.6850   31.1710 C   0  0  0  0  0  0  0  0  0  0  0  0
   36.8610   25.0560   32.0810 C   0  0  0  0  0  0  0  0  0  0  0  0
   37.8340   27.4880   34.0730 H   0  0  0  0  0  0  0  0  0  0  0  0
   36.4550   28.7630   32.5860 H   0  0  0  0  0  0  0  0  0  0  0  0
   35.2770   27.7410   30.7190 H   0  0  0  0  0  0  0  0  0  0  0  0
   35.5150   25.2560   30.3390 H   0  0  0  0  0  0  0  0  0  0  0  0
   37.9080   22.9230   31.0980 C   0  0  0  0  0  3  0  0  0  0  0  0
   36.9450   23.6310   31.7530 C   0  0  0  0  0  0  0  0  0  0  0  0
   35.8010   22.9600   32.2090 C   0  0  0  0  0  0  0  0  0  0  0  0
   34.9560   23.4080   32.7510 H   0  0  0  0  0  0  0  0  0  0  0  0
   35.6530   21.6100   32.0000 C   0  0  0  0  0  0  0  0  0  0  0  0
   34.7100   20.6980   32.2980 N   0  0  0  0  0  0  0  0  0  0  0  0
   35.0210   19.4510   31.8680 C   0  0  0  0  0  0  0  0  0  0  0  0
   34.3950   18.5790   32.0070 H   0  0  0  0  0  0  0  0  0  0  0  0
   36.2380   19.6130   31.2660 N   0  0  0  0  0  0  0  0  0  0  0  0
   36.6140   20.9030   31.3450 C   0  0  0  0  0  0  0  0  0  0  0  0
   37.7300   21.5700   30.9030 C   0  0  0  0  0  3  0  0  0  0  0  0
   33.8080   20.9220   32.8170 H   0  0  0  0  0  0  0  0  0  0  0  0
   38.7120   23.9810   36.1320 C   0  0  0  0  0  0  0  0  0  0  0  0
   40.0210   23.5980   35.7790 C   0  0  0  0  0  0  0  0  0  0  0  0
   40.4640   23.9220   34.4910 C   0  0  0  0  0  0  0  0  0  0  0  0
   39.6020   24.5850   33.6720 N   0  0  0  0  0  0  0  0  0  0  0  0
   38.3640   24.9350   34.0410 C   0  0  0  0  0  0  0  0  0  0  0  0
   37.9440   24.6260   35.2620 N   0  0  0  0  0  0  0  0  0  0  0  0
   40.6250   23.0730   36.5140 H   0  0  0  0  0  0  0  0  0  0  0  0
   41.4710   23.6330   34.2070 H   0  0  0  0  0  0  0  0  0  0  0  0
   38.2620   23.6260   37.5140 C   0  0  0  0  0  0  0  0  0  0  0  0
   37.9800   24.8010   38.2090 F   0  0  0  0  0  0  0  0  0  0  0  0
   37.1700   22.8240   37.3990 F   0  0  0  0  0  0  0  0  0  0  0  0
   39.3210   23.0240   38.1730 F   0  0  0  0  0  0  0  0  0  0  0  0
  1  2  1  0  0  0  0
  1 27  1  0  0  0  0
  2  7  1  0  0  0  0
  3  8  1  0  0  0  0
  3  2  2  0  0  0  0
  4  3  1  0  0  0  0
  5  4  2  0  0  0  0
  5  6  1  0  0  0  0
  6  1  2  0  0  0  0
  9  4  1  0  0  0  0
 10  5  1  0  0  0  0
 11 12  1  0  0  0  0
 12  6  1  0  0  0  0
 12 13  2  0  0  0  0
 13 14  1  0  0  0  0
 15 13  1  0  0  0  0
 15 16  1  0  0  0  0
 16 22  1  0  0  0  0
 17 18  1  0  0  0  0
 17 16  1  0  0  0  0
 19 20  1  0  0  0  0
 19 17  2  0  0  0  0
 20 15  2  0  0  0  0
 21 11  2  0  0  0  0
 21 20  1  0  0  0  0
 23 31  1  0  0  0  0
 24 23  1  0  0  0  0
 24 29  1  0  0  0  0
 25 24  2  0  0  0  0
 26 27  2  0  0  0  0
 26 25  1  0  0  0  0
 27 28  1  0  0  0  0
 28 23  2  0  0  0  0
 30 25  1  0  0  0  0
 31 34  1  0  0  0  0
 31 32  1  0  0  0  0
 33 31  1  0  0  0  0
M  END
>  <minimizedAffinity>
-6.15055132

$$$$

 OpenBabel03272505393D

 34 37  0  0  0  0  0  0  0  0999 V2000
   39.8890   27.1990   32.2160 C   0  0  0  0  0  0  0  0  0  0  0  0
   40.8130   27.5980   31.2650 C   0  0  0  0  0  0  0  0  0  0  0  0
   42.1530   27.7150   31.5900 C   0  0  0  0  0  0  0  0  0  0  0  0
   42.6390   27.4440   32.8520 C   0  0  0  0  0  0  0  0  0  0  0  0
   41.7270   27.0410   33.8180 C   0  0  0  0  0  0  0  0  0  0  0  0
   40.4050   26.9400   33.4540 C   0  0  0  0  0  0  0  0  0  0  0  0
   40.3980   27.8020   30.2780 H   0  0  0  0  0  0  0  0  0  0  0  0
   42.7410   28.0420   30.7170 H   0  0  0  0  0  0  0  0  0  0  0  0
   43.6990   27.5930   32.9080 H   0  0  0  0  0  0  0  0  0  0  0  0
   42.1740   26.8490   34.7780 H   0  0  0  0  0  0  0  0  0  0  0  0
   38.9010   27.2620   35.5150 C   0  0  0  0  0  3  0  0  0  0  0  0
   39.6130   26.5260   34.6150 C   0  0  0  0  0  0  0  0  0  0  0  0
   39.6610   25.1330   34.7630 C   0  0  0  0  0  0  0  0  0  0  0  0
   40.1930   24.4270   34.1100 H   0  0  0  0  0  0  0  0  0  0  0  0
   39.0000   24.5180   35.7980 C   0  0  0  0  0  0  0  0  0  0  0  0
   38.8490   23.2450   36.2100 N   0  0  0  0  0  0  0  0  0  0  0  0
   38.0820   23.1330   37.3200 C   0  0  0  0  0  0  0  0  0  0  0  0
   37.8430   22.1970   37.8100 H   0  0  0  0  0  0  0  0  0  0  0  0
   37.7400   24.4250   37.6070 N   0  0  0  0  0  0  0  0  0  0  0  0
   38.2880   25.2510   36.6970 C   0  0  0  0  0  0  0  0  0  0  0  0
   38.2480   26.6150   36.5430 C   0  0  0  0  0  3  0  0  0  0  0  0
   39.2860   22.4060   35.7210 H   0  0  0  0  0  0  0  0  0  0  0  0
   36.3520   27.9980   31.8450 C   0  0  0  0  0  0  0  0  0  0  0  0
   35.8160   26.8080   31.3150 C   0  0  0  0  0  0  0  0  0  0  0  0
   36.6990   25.7450   31.0890 C   0  0  0  0  0  0  0  0  0  0  0  0
   38.0110   25.9350   31.3960 N   0  0  0  0  0  0  0  0  0  0  0  0
   38.4870   27.0800   31.8990 C   0  0  0  0  0  0  0  0  0  0  0  0
   37.6500   28.0880   32.1120 N   0  0  0  0  0  0  0  0  0  0  0  0
   34.7500   26.7660   31.1080 H   0  0  0  0  0  0  0  0  0  0  0  0
   36.2970   24.8230   30.6820 H   0  0  0  0  0  0  0  0  0  0  0  0
   35.3890   29.1180   32.0790 C   0  0  0  0  0  0  0  0  0  0  0  0
   34.1430   28.5780   32.3950 F   0  0  0  0  0  0  0  0  0  0  0  0
   35.8850   29.8840   33.0880 F   0  0  0  0  0  0  0  0  0  0  0  0
   35.2300   29.8080   30.8900 F   0  0  0  0  0  0  0  0  0  0  0  0
  1  6  1  0  0  0  0
  2  3  1  0  0  0  0
  2  1  2  0  0  0  0
  3  4  2  0  0  0  0
  4  9  1  0  0  0  0
  4  5  1  0  0  0  0
  5 10  1  0  0  0  0
  6  5  2  0  0  0  0
  6 12  1  0  0  0  0
  7  2  1  0  0  0  0
  8  3  1  0  0  0  0
 11 21  1  0  0  0  0
 12 13  1  0  0  0  0
 12 11  2  0  0  0  0
 13 15  2  0  0  0  0
 14 13  1  0  0  0  0
 15 16  1  0  0  0  0
 15 20  1  0  0  0  0
 16 17  1  0  0  0  0
 17 19  2  0  0  0  0
 17 18  1  0  0  0  0
 20 19  1  0  0  0  0
 21 20  2  0  0  0  0
 22 16  1  0  0  0  0
 23 31  1  0  0  0  0
 23 28  1  0  0  0  0
 24 23  2  0  0  0  0
 25 24  1  0  0  0  0
 25 26  2  0  0  0  0
 26 27  1  0  0  0  0
 27 28  2  0  0  0  0
 27  1  1  0  0  0  0
 29 24  1  0  0  0  0
 30 25  1  0  0  0  0
 31 32  1  0  0  0  0
 31 33  1  0  0  0  0
 34 31  1  0  0  0  0
M  END
>  <minimizedAffinity>
-6.13797617

$$$$

 OpenBabel03272505393D

 34 37  0  0  0  0  0  0  0  0999 V2000
   40.6610   24.7930   34.9380 C   0  0  0  0  0  0  0  0  0  0  0  0
   41.9680   24.3360   34.9430 C   0  0  0  0  0  0  0  0  0  0  0  0
   43.0080   25.1710   34.5750 C   0  0  0  0  0  0  0  0  0  0  0  0
   42.8100   26.4820   34.1920 C   0  0  0  0  0  0  0  0  0  0  0  0
   41.5060   26.9580   34.1840 C   0  0  0  0  0  0  0  0  0  0  0  0
   40.5020   26.0940   34.5550 C   0  0  0  0  0  0  0  0  0  0  0  0
   42.0910   23.2980   35.2510 H   0  0  0  0  0  0  0  0  0  0  0  0
   43.9750   24.6450   34.6350 H   0  0  0  0  0  0  0  0  0  0  0  0
   43.7340   26.9650   33.9430 H   0  0  0  0  0  0  0  0  0  0  0  0
   41.4250   27.9850   33.8750 H   0  0  0  0  0  0  0  0  0  0  0  0
   38.4060   27.3050   35.4220 C   0  0  0  0  0  3  0  0  0  0  0  0
   39.2120   26.7800   34.4560 C   0  0  0  0  0  0  0  0  0  0  0  0
   38.8030   26.8530   33.1170 C   0  0  0  0  0  0  0  0  0  0  0  0
   39.3550   26.4730   32.2450 H   0  0  0  0  0  0  0  0  0  0  0  0
   37.6090   27.4450   32.7830 C   0  0  0  0  0  0  0  0  0  0  0  0
   36.9450   27.6700   31.6340 N   0  0  0  0  0  0  0  0  0  0  0  0
   35.7650   28.3080   31.8170 C   0  0  0  0  0  0  0  0  0  0  0  0
   35.0830   28.5780   31.0210 H   0  0  0  0  0  0  0  0  0  0  0  0
   35.7010   28.4850   33.1710 N   0  0  0  0  0  0  0  0  0  0  0  0
   36.8030   27.9690   33.7460 C   0  0  0  0  0  0  0  0  0  0  0  0
   37.2140   27.8930   35.0540 C   0  0  0  0  0  3  0  0  0  0  0  0
   37.3030   27.3790   30.6730 H   0  0  0  0  0  0  0  0  0  0  0  0
   37.9080   22.4150   34.7170 C   0  0  0  0  0  0  0  0  0  0  0  0
   37.4540   22.3360   36.0470 C   0  0  0  0  0  0  0  0  0  0  0  0
   38.1200   23.1100   37.0060 C   0  0  0  0  0  0  0  0  0  0  0  0
   39.1580   23.8840   36.5850 N   0  0  0  0  0  0  0  0  0  0  0  0
   39.5630   23.9350   35.3100 C   0  0  0  0  0  0  0  0  0  0  0  0
   38.9320   23.2000   34.4030 N   0  0  0  0  0  0  0  0  0  0  0  0
   36.6120   21.6850   36.2710 H   0  0  0  0  0  0  0  0  0  0  0  0
   37.7780   23.0580   38.0340 H   0  0  0  0  0  0  0  0  0  0  0  0
   37.1790   21.5810   33.7110 C   0  0  0  0  0  0  0  0  0  0  0  0
   36.5120   22.4270   32.8270 F   0  0  0  0  0  0  0  0  0  0  0  0
   38.0970   20.8000   33.0800 F   0  0  0  0  0  0  0  0  0  0  0  0
   36.2040   20.8570   34.3750 F   0  0  0  0  0  0  0  0  0  0  0  0
  1  2  1  0  0  0  0
  1 27  1  0  0  0  0
  2  7  1  0  0  0  0
  3  8  1  0  0  0  0
  3  2  2  0  0  0  0
  4  3  1  0  0  0  0
  5  4  2  0  0  0  0
  5  6  1  0  0  0  0
  6  1  2  0  0  0  0
  9  4  1  0  0  0  0
 10  5  1  0  0  0  0
 12  6  1  0  0  0  0
 12 11  2  0  0  0  0
 13 12  1  0  0  0  0
 14 13  1  0  0  0  0
 15 13  2  0  0  0  0
 15 20  1  0  0  0  0
 16 17  1  0  0  0  0
 16 15  1  0  0  0  0
 17 19  2  0  0  0  0
 18 17  1  0  0  0  0
 19 20  1  0  0  0  0
 20 21  2  0  0  0  0
 21 11  1  0  0  0  0
 22 16  1  0  0  0  0
 23 24  1  0  0  0  0
 24 29  1  0  0  0  0
 24 25  2  0  0  0  0
 25 30  1  0  0  0  0
 26 25  1  0  0  0  0
 27 26  2  0  0  0  0
 28 23  2  0  0  0  0
 28 27  1  0  0  0  0
 31 34  1  0  0  0  0
 31 23  1  0  0  0  0
 32 31  1  0  0  0  0
 33 31  1  0  0  0  0
M  END
>  <minimizedAffinity>
-6.03382874

$$$$

 OpenBabel03272505393D

 34 37  0  0  0  0  0  0  0  0999 V2000
   36.8780   23.1250   32.1000 C   0  0  0  0  0  0  0  0  0  0  0  0
   35.8880   22.7890   31.1920 C   0  0  0  0  0  0  0  0  0  0  0  0
   35.3840   21.5010   31.1450 C   0  0  0  0  0  0  0  0  0  0  0  0
   35.8260   20.4970   31.9820 C   0  0  0  0  0  0  0  0  0  0  0  0
   36.8170   20.8170   32.9000 C   0  0  0  0  0  0  0  0  0  0  0  0
   37.2920   22.1080   32.9120 C   0  0  0  0  0  0  0  0  0  0  0  0
   35.5600   23.6030   30.5470 H   0  0  0  0  0  0  0  0  0  0  0  0
   34.6080   21.4110   30.3670 H   0  0  0  0  0  0  0  0  0  0  0  0
   35.3180   19.5720   31.7930 H   0  0  0  0  0  0  0  0  0  0  0  0
   37.1150   19.9880   33.5180 H   0  0  0  0  0  0  0  0  0  0  0  0
   39.6910   22.0760   33.8380 C   0  0  0  0  0  3  0  0  0  0  0  0
   38.3390   22.2290   33.9290 C   0  0  0  0  0  0  0  0  0  0  0  0
   37.7740   22.5390   35.1740 C   0  0  0  0  0  0  0  0  0  0  0  0
   36.7050   22.6900   35.3840 H   0  0  0  0  0  0  0  0  0  0  0  0
   38.5680   22.6870   36.2850 C   0  0  0  0  0  0  0  0  0  0  0  0
   38.3500   22.9730   37.5810 N   0  0  0  0  0  0  0  0  0  0  0  0
   39.4860   23.0090   38.3170 C   0  0  0  0  0  0  0  0  0  0  0  0
   39.5250   23.2190   39.3790 H   0  0  0  0  0  0  0  0  0  0  0  0
   40.4670   22.7270   37.4080 N   0  0  0  0  0  0  0  0  0  0  0  0
   39.9180   22.5350   36.1940 C   0  0  0  0  0  0  0  0  0  0  0  0
   40.4610   22.2320   34.9710 C   0  0  0  0  0  3  0  0  0  0  0  0
   37.3850   23.1520   37.9960 H   0  0  0  0  0  0  0  0  0  0  0  0
   37.5520   26.5350   33.1970 C   0  0  0  0  0  0  0  0  0  0  0  0
   38.4520   27.0060   32.2210 C   0  0  0  0  0  0  0  0  0  0  0  0
   38.8170   26.1240   31.1970 C   0  0  0  0  0  0  0  0  0  0  0  0
   38.2760   24.8740   31.2150 N   0  0  0  0  0  0  0  0  0  0  0  0
   37.4230   24.4590   32.1590 C   0  0  0  0  0  0  0  0  0  0  0  0
   37.0790   25.2960   33.1300 N   0  0  0  0  0  0  0  0  0  0  0  0
   38.8210   28.0250   32.3030 H   0  0  0  0  0  0  0  0  0  0  0  0
   39.5090   26.4750   30.4390 H   0  0  0  0  0  0  0  0  0  0  0  0
   37.1770   27.4970   34.2790 C   0  0  0  0  0  0  0  0  0  0  0  0
   36.6490   28.6470   33.6930 F   0  0  0  0  0  0  0  0  0  0  0  0
   36.2780   26.8760   35.0890 F   0  0  0  0  0  0  0  0  0  0  0  0
   38.3330   27.8840   34.9340 F   0  0  0  0  0  0  0  0  0  0  0  0
  1 27  1  0  0  0  0
  1  6  1  0  0  0  0
  2  1  2  0  0  0  0
  3  2  1  0  0  0  0
  3  4  2  0  0  0  0
  4  5  1  0  0  0  0
  5  6  2  0  0  0  0
  5 10  1  0  0  0  0
  6 12  1  0  0  0  0
  7  2  1  0  0  0  0
  8  3  1  0  0  0  0
  9  4  1  0  0  0  0
 11 12  2  0  0  0  0
 11 21  1  0  0  0  0
 12 13  1  0  0  0  0
 13 14  1  0  0  0  0
 13 15  2  0  0  0  0
 15 16  1  0  0  0  0
 16 22  1  0  0  0  0
 16 17  1  0  0  0  0
 17 18  1  0  0  0  0
 19 17  2  0  0  0  0
 20 15  1  0  0  0  0
 20 19  1  0  0  0  0
 21 20  2  0  0  0  0
 23 31  1  0  0  0  0
 24 29  1  0  0  0  0
 24 23  2  0  0  0  0
 25 26  2  0  0  0  0
 25 24  1  0  0  0  0
 26 27  1  0  0  0  0
 27 28  2  0  0  0  0
 28 23  1  0  0  0  0
 30 25  1  0  0  0  0
 31 34  1  0  0  0  0
 31 33  1  0  0  0  0
 32 31  1  0  0  0  0
M  END
>  <minimizedAffinity>
-5.95914364

$$$$
