
 OpenBabel03272505383D

 34 37  0  0  0  0  0  0  0  0999 V2000
   35.4380   30.2280   46.7330 C   0  0  0  0  0  0  0  0  0  0  0  0
   34.1600   29.7950   47.0420 C   0  0  0  0  0  0  0  0  0  0  0  0
   33.2390   29.5430   46.0400 C   0  0  0  0  0  0  0  0  0  0  0  0
   33.5340   29.7020   44.7020 C   0  0  0  0  0  0  0  0  0  0  0  0
   34.8120   30.1340   44.3730 C   0  0  0  0  0  0  0  0  0  0  0  0
   35.6950   30.3750   45.4000 C   0  0  0  0  0  0  0  0  0  0  0  0
   33.9590   29.6770   48.1070 H   0  0  0  0  0  0  0  0  0  0  0  0
   32.2780   29.2090   46.4640 H   0  0  0  0  0  0  0  0  0  0  0  0
   32.6950   29.4600   44.0810 H   0  0  0  0  0  0  0  0  0  0  0  0
   34.9720   30.2380   43.3140 H   0  0  0  0  0  0  0  0  0  0  0  0
   37.4800   32.0980   44.7220 C   0  0  0  0  0  0  0  0  0  0  0  0
   36.9680   30.8400   44.8440 C   0  0  0  0  0  0  0  0  0  0  0  0
   37.7160   29.7540   44.3690 C   0  0  0  0  0  0  0  0  0  0  0  0
   37.4220   28.6950   44.4070 H   0  0  0  0  0  0  0  0  0  0  0  0
   38.9450   29.9530   43.7890 C   0  0  0  0  0  0  0  0  0  0  0  0
   39.8840   29.1540   43.2480 N   0  0  0  0  0  0  0  0  0  0  0  0
   40.9620   29.8350   42.7900 C   0  0  0  0  0  0  0  0  0  0  0  0
   41.8230   29.3770   42.3200 H   0  0  0  0  0  0  0  0  0  0  0  0
   40.6610   31.1390   43.0700 N   0  0  0  0  0  0  0  0  0  0  0  0
   39.4570   31.2080   43.6670 C   0  0  0  0  0  0  0  0  0  0  0  0
   38.7170   32.2640   44.1360 C   0  0  0  0  0  0  0  0  0  0  0  0
   39.7970   28.0950   43.1820 H   0  0  0  0  0  0  0  0  0  0  0  0
   37.2410   30.1160   49.8990 C   0  0  0  0  0  0  0  0  0  0  0  0
   38.2510   31.0800   49.7190 C   0  0  0  0  0  0  0  0  0  0  0  0
   38.2930   31.7520   48.4910 C   0  0  0  0  0  0  0  0  0  0  0  0
   37.3560   31.4270   47.5590 N   0  0  0  0  0  0  0  0  0  0  0  0
   36.4080   30.5040   47.7640 C   0  0  0  0  0  0  0  0  0  0  0  0
   36.3700   29.8670   48.9270 N   0  0  0  0  0  0  0  0  0  0  0  0
   38.9480   31.2610   50.5330 H   0  0  0  0  0  0  0  0  0  0  0  0
   39.0670   32.4970   48.3400 H   0  0  0  0  0  0  0  0  0  0  0  0
   37.2150   29.4130   51.2190 C   0  0  0  0  0  0  0  0  0  0  0  0
   35.8890   29.1590   51.5650 F   0  0  0  0  0  0  0  0  0  0  0  0
   37.9400   28.2690   51.0920 F   0  0  0  0  0  0  0  0  0  0  0  0
   37.7140   30.2770   52.1790 F   0  0  0  0  0  0  0  0  0  0  0  0
  1  2  1  0  0  0  0
  1 27  1  0  0  0  0
  2  7  1  0  0  0  0
  3  8  1  0  0  0  0
  3  2  2  0  0  0  0
  4  3  1  0  0  0  0
  5  4  2  0  0  0  0
  5  6  1  0  0  0  0
  6  1  2  0  0  0  0
  9  4  1  0  0  0  0
 10  5  1  0  0  0  0
 11 12  1  0  0  0  0
 12  6  1  0  0  0  0
 13 14  1  0  0  0  0
 13 12  2  0  0  0  0
 15 13  1  0  0  0  0
 16 15  1  0  0  0  0
 17 19  2  0  0  0  0
 17 16  1  0  0  0  0
 18 17  1  0  0  0  0
 19 20  1  0  0  0  0
 20 15  2  0  0  0  0
 20 21  1  0  0  0  0
 21 11  2  0  0  0  0
 22 16  1  0  0  0  0
 23 31  1  0  0  0  0
 24 23  1  0  0  0  0
 24 29  1  0  0  0  0
 25 24  2  0  0  0  0
 26 27  2  0  0  0  0
 26 25  1  0  0  0  0
 27 28  1  0  0  0  0
 28 23  2  0  0  0  0
 30 25  1  0  0  0  0
 31 32  1  0  0  0  0
 31 34  1  0  0  0  0
 33 31  1  0  0  0  0
M  END
>  <minimizedAffinity>
-6.70620584

>  <minimizedRMSD>
1.43668449

$$$$
