
 OpenBabel03262521143D

 34 37  0  0  0  0  0  0  0  0999 V2000
   37.3880   25.6810   32.6580 C   0  0  0  0  0  0  0  0  0  0  0  0
   36.2800   26.0000   31.9190 C   0  0  0  0  0  0  0  0  0  0  0  0
   35.7180   24.8670   31.4750 N   0  0  0  0  0  0  0  0  0  0  0  0
   36.4460   23.8160   31.9140 C   0  0  0  0  0  0  0  0  0  0  0  0
   37.4600   24.3340   32.6350 N   0  0  0  0  0  0  0  0  0  0  0  0
   35.9500   27.0100   31.7490 H   0  0  0  0  0  0  0  0  0  0  0  0
   34.8580   24.7530   30.8810 H   0  0  0  0  0  0  0  0  0  0  0  0
   35.1920   21.6740   32.2570 C   0  0  0  0  0  3  0  0  0  0  0  0
   36.2670   22.3640   31.7140 C   0  0  0  0  0  0  0  0  0  0  0  0
   37.2050   21.6650   30.9590 C   0  0  0  0  0  0  0  0  0  0  0  0
   38.0560   22.1600   30.5180 H   0  0  0  0  0  0  0  0  0  0  0  0
   37.1140   20.3080   30.7220 C   0  0  0  0  0  0  0  0  0  0  0  0
   37.8100   19.3760   30.0720 N   0  0  0  0  0  0  0  0  0  0  0  0
   37.2400   18.1560   30.1750 C   0  0  0  0  0  0  0  0  0  0  0  0
   37.6480   17.2610   29.7170 H   0  0  0  0  0  0  0  0  0  0  0  0
   36.1190   18.3160   30.9310 N   0  0  0  0  0  0  0  0  0  0  0  0
   36.0390   19.6270   31.2670 C   0  0  0  0  0  0  0  0  0  0  0  0
   35.1090   20.3180   32.0160 C   0  0  0  0  0  3  0  0  0  0  0  0
   38.6940   19.5630   29.5440 H   0  0  0  0  0  0  0  0  0  0  0  0
   38.3040   26.5060   33.3280 O   0  0  0  0  0  0  0  0  0  0  0  0
   36.9950   28.0700   34.9110 O   0  0  0  0  0  0  0  0  0  0  0  0
   37.9580   26.8990   34.9390 P   0  0  2  0  0  0  0  0  0  0  0  0
   39.3920   27.2990   35.7750 O   0  0  0  0  0  0  0  0  0  0  0  0
   39.2290   27.1260   36.7240 H   0  0  0  0  0  0  0  0  0  0  0  0
   37.2910   25.5410   35.7250 O   0  0  0  0  0  0  0  0  0  0  0  0
   38.0680   24.6550   36.4680 C   0  0  0  0  0  0  0  0  0  0  0  0
   37.8550   24.2470   37.7840 C   0  0  0  0  0  0  0  0  0  0  0  0
   38.7490   23.3580   38.3350 C   0  0  0  0  0  0  0  0  0  0  0  0
   39.7910   22.9050   37.6130 N   0  0  0  0  0  0  0  0  0  0  0  0
   39.9800   23.3210   36.3190 C   0  0  0  0  0  0  0  0  0  0  0  0
   39.1130   24.1930   35.7610 N   0  0  0  0  0  0  0  0  0  0  0  0
   36.9870   24.6860   38.2420 H   0  0  0  0  0  0  0  0  0  0  0  0
   38.5540   23.0610   39.3600 H   0  0  0  0  0  0  0  0  0  0  0  0
   40.8430   22.9220   35.7740 H   0  0  0  0  0  0  0  0  0  0  0  0
  1 20  1  0  0  0  0
  2  1  2  0  0  0  0
  3  4  1  0  0  0  0
  3  2  1  0  0  0  0
  4  5  2  0  0  0  0
  5  1  1  0  0  0  0
  6  2  1  0  0  0  0
  7  3  1  0  0  0  0
  9  4  1  0  0  0  0
  9  8  2  0  0  0  0
 10  9  1  0  0  0  0
 11 10  1  0  0  0  0
 12 10  2  0  0  0  0
 12 17  1  0  0  0  0
 13 14  1  0  0  0  0
 13 12  1  0  0  0  0
 14 16  2  0  0  0  0
 15 14  1  0  0  0  0
 16 17  1  0  0  0  0
 17 18  2  0  0  0  0
 18  8  1  0  0  0  0
 19 13  1  0  0  0  0
 20 22  1  0  0  0  0
 22 21  2  1  0  0  0
 22 25  1  0  0  0  0
 22 23  1  0  0  0  0
 23 24  1  0  0  0  0
 25 26  1  0  0  0  0
 26 27  1  0  0  0  0
 27 32  1  0  0  0  0
 27 28  2  0  0  0  0
 28 33  1  0  0  0  0
 29 28  1  0  0  0  0
 30 29  2  0  0  0  0
 31 30  1  0  0  0  0
 31 26  2  0  0  0  0
 34 30  1  0  0  0  0
M  END
>  <minimizedAffinity>
-5.90728331

$$$$

 OpenBabel03262521143D

 34 37  0  0  0  0  0  0  0  0999 V2000
   38.6550   24.0240   35.9740 C   0  0  0  0  0  0  0  0  0  0  0  0
   38.0670   23.3040   36.9800 C   0  0  0  0  0  0  0  0  0  0  0  0
   37.4080   22.2700   36.4390 N   0  0  0  0  0  0  0  0  0  0  0  0
   37.5580   22.3090   35.0960 C   0  0  0  0  0  0  0  0  0  0  0  0
   38.3240   23.3860   34.8330 N   0  0  0  0  0  0  0  0  0  0  0  0
   38.1460   23.5620   38.0220 H   0  0  0  0  0  0  0  0  0  0  0  0
   36.8480   21.5240   36.9260 H   0  0  0  0  0  0  0  0  0  0  0  0
   35.8760   20.6830   34.1980 C   0  0  0  0  0  3  0  0  0  0  0  0
   37.0440   21.4150   34.0380 C   0  0  0  0  0  0  0  0  0  0  0  0
   37.7530   21.3030   32.8450 C   0  0  0  0  0  0  0  0  0  0  0  0
   38.6660   21.8530   32.6780 H   0  0  0  0  0  0  0  0  0  0  0  0
   37.3440   20.4920   31.8060 C   0  0  0  0  0  0  0  0  0  0  0  0
   37.7720   20.1700   30.5850 N   0  0  0  0  0  0  0  0  0  0  0  0
   36.9480   19.2890   29.9770 C   0  0  0  0  0  0  0  0  0  0  0  0
   37.1160   18.8990   28.9790 H   0  0  0  0  0  0  0  0  0  0  0  0
   35.9400   19.0330   30.8560 N   0  0  0  0  0  0  0  0  0  0  0  0
   36.1780   19.7650   31.9720 C   0  0  0  0  0  0  0  0  0  0  0  0
   35.4750   19.8750   33.1540 C   0  0  0  0  0  3  0  0  0  0  0  0
   38.6420   20.5520   30.1470 H   0  0  0  0  0  0  0  0  0  0  0  0
   39.4450   25.1820   36.0260 O   0  0  0  0  0  0  0  0  0  0  0  0
   39.8460   26.8840   34.1250 O   0  0  0  0  0  0  0  0  0  0  0  0
   38.8580   26.5570   35.2290 P   0  0  2  0  0  0  0  0  0  0  0  0
   38.7030   27.8590   36.3230 O   0  0  0  0  0  0  0  0  0  0  0  0
   38.0240   28.4600   35.9590 H   0  0  0  0  0  0  0  0  0  0  0  0
   37.2990   26.2380   34.6180 O   0  0  0  0  0  0  0  0  0  0  0  0
   36.8950   26.6600   33.3530 C   0  0  0  0  0  0  0  0  0  0  0  0
   36.6970   27.9730   32.9280 C   0  0  0  0  0  0  0  0  0  0  0  0
   36.2930   28.1750   31.6270 C   0  0  0  0  0  0  0  0  0  0  0  0
   36.1000   27.1260   30.8050 N   0  0  0  0  0  0  0  0  0  0  0  0
   36.3020   25.8430   31.2470 C   0  0  0  0  0  0  0  0  0  0  0  0
   36.6980   25.6260   32.5190 N   0  0  0  0  0  0  0  0  0  0  0  0
   36.8880   28.7120   33.6850 H   0  0  0  0  0  0  0  0  0  0  0  0
   36.1490   29.2060   31.3290 H   0  0  0  0  0  0  0  0  0  0  0  0
   36.1300   25.0240   30.5380 H   0  0  0  0  0  0  0  0  0  0  0  0
  1 20  1  0  0  0  0
  1  2  2  0  0  0  0
  2  6  1  0  0  0  0
  3  7  1  0  0  0  0
  3  2  1  0  0  0  0
  4  3  1  0  0  0  0
  5  4  2  0  0  0  0
  5  1  1  0  0  0  0
  9  8  1  0  0  0  0
  9  4  1  0  0  0  0
 10  9  2  0  0  0  0
 11 10  1  0  0  0  0
 12 17  2  0  0  0  0
 12 10  1  0  0  0  0
 13 12  1  0  0  0  0
 14 13  1  0  0  0  0
 14 16  2  0  0  0  0
 15 14  1  0  0  0  0
 16 17  1  0  0  0  0
 17 18  1  0  0  0  0
 18  8  2  0  0  0  0
 19 13  1  0  0  0  0
 22 21  2  6  0  0  0
 22 20  1  0  0  0  0
 22 23  1  0  0  0  0
 24 23  1  0  0  0  0
 25 22  1  0  0  0  0
 26 25  1  0  0  0  0
 27 26  1  0  0  0  0
 27 32  1  0  0  0  0
 28 27  2  0  0  0  0
 29 30  2  0  0  0  0
 29 28  1  0  0  0  0
 30 31  1  0  0  0  0
 31 26  2  0  0  0  0
 33 28  1  0  0  0  0
 34 30  1  0  0  0  0
M  END
>  <minimizedAffinity>
-5.89227057

$$$$

 OpenBabel03262521143D

 34 37  0  0  0  0  0  0  0  0999 V2000
   36.8500   27.3510   33.4460 C   0  0  0  0  0  0  0  0  0  0  0  0
   36.8480   28.1860   32.3600 C   0  0  0  0  0  0  0  0  0  0  0  0
   36.2840   29.3490   32.7140 N   0  0  0  0  0  0  0  0  0  0  0  0
   35.9180   29.2820   34.0130 C   0  0  0  0  0  0  0  0  0  0  0  0
   36.2730   28.0550   34.4420 N   0  0  0  0  0  0  0  0  0  0  0  0
   37.2460   27.9120   31.3980 H   0  0  0  0  0  0  0  0  0  0  0  0
   36.1240   30.2050   32.1230 H   0  0  0  0  0  0  0  0  0  0  0  0
   35.9930   31.1560   35.6750 C   0  0  0  0  0  3  0  0  0  0  0  0
   35.2640   30.2770   34.8870 C   0  0  0  0  0  0  0  0  0  0  0  0
   33.8730   30.3340   34.9230 C   0  0  0  0  0  0  0  0  0  0  0  0
   33.2660   29.6700   34.3280 H   0  0  0  0  0  0  0  0  0  0  0  0
   33.1820   31.2320   35.7110 C   0  0  0  0  0  0  0  0  0  0  0  0
   31.9090   31.5360   35.9670 N   0  0  0  0  0  0  0  0  0  0  0  0
   31.8010   32.5440   36.8600 C   0  0  0  0  0  0  0  0  0  0  0  0
   30.8530   32.9440   37.2030 H   0  0  0  0  0  0  0  0  0  0  0  0
   33.0710   32.9040   37.1920 N   0  0  0  0  0  0  0  0  0  0  0  0
   33.9160   32.1060   36.4940 C   0  0  0  0  0  0  0  0  0  0  0  0
   35.2940   32.0500   36.4590 C   0  0  0  0  0  3  0  0  0  0  0  0
   31.0890   31.0530   35.5310 H   0  0  0  0  0  0  0  0  0  0  0  0
   37.3250   26.0380   33.5840 O   0  0  0  0  0  0  0  0  0  0  0  0
   39.3960   26.9580   34.8230 O   0  0  0  0  0  0  0  0  0  0  0  0
   38.9800   25.8420   33.8830 P   0  0  2  0  0  0  0  0  0  0  0  0
   39.8610   25.9050   32.4220 O   0  0  0  0  0  0  0  0  0  0  0  0
   40.6920   25.4100   32.5660 H   0  0  0  0  0  0  0  0  0  0  0  0
   39.2570   24.3010   34.5600 O   0  0  0  0  0  0  0  0  0  0  0  0
   39.0130   24.0240   35.9030 C   0  0  0  0  0  0  0  0  0  0  0  0
   37.9330   24.4600   36.6710 C   0  0  0  0  0  0  0  0  0  0  0  0
   37.8820   24.0690   37.9900 C   0  0  0  0  0  0  0  0  0  0  0  0
   38.8500   23.2910   38.5070 N   0  0  0  0  0  0  0  0  0  0  0  0
   39.9030   22.8730   37.7310 C   0  0  0  0  0  0  0  0  0  0  0  0
   39.9710   23.2460   36.4360 N   0  0  0  0  0  0  0  0  0  0  0  0
   37.2340   25.0750   36.1330 H   0  0  0  0  0  0  0  0  0  0  0  0
   37.0300   24.4250   38.5580 H   0  0  0  0  0  0  0  0  0  0  0  0
   40.6650   22.2400   38.2000 H   0  0  0  0  0  0  0  0  0  0  0  0
  1 20  1  0  0  0  0
  1  5  1  0  0  0  0
  2  3  1  0  0  0  0
  2  1  2  0  0  0  0
  3  4  1  0  0  0  0
  4  5  2  0  0  0  0
  4  9  1  0  0  0  0
  6  2  1  0  0  0  0
  7  3  1  0  0  0  0
  8 18  1  0  0  0  0
  9 10  1  0  0  0  0
  9  8  2  0  0  0  0
 10 12  2  0  0  0  0
 11 10  1  0  0  0  0
 12 13  1  0  0  0  0
 12 17  1  0  0  0  0
 13 14  1  0  0  0  0
 14 16  2  0  0  0  0
 14 15  1  0  0  0  0
 17 16  1  0  0  0  0
 18 17  2  0  0  0  0
 19 13  1  0  0  0  0
 20 22  1  0  0  0  0
 22 25  1  0  0  0  0
 22 21  2  1  0  0  0
 23 24  1  0  0  0  0
 23 22  1  0  0  0  0
 25 26  1  0  0  0  0
 26 31  2  0  0  0  0
 26 27  1  0  0  0  0
 27 28  2  0  0  0  0
 28 29  1  0  0  0  0
 28 33  1  0  0  0  0
 30 34  1  0  0  0  0
 30 29  2  0  0  0  0
 31 30  1  0  0  0  0
 32 27  1  0  0  0  0
M  END
>  <minimizedAffinity>
-5.72588444

$$$$

 OpenBabel03262521143D

 34 37  0  0  0  0  0  0  0  0999 V2000
   37.5000   26.5450   32.1820 C   0  0  0  0  0  0  0  0  0  0  0  0
   36.3790   26.1290   31.5140 C   0  0  0  0  0  0  0  0  0  0  0  0
   36.0840   27.0310   30.5680 N   0  0  0  0  0  0  0  0  0  0  0  0
   36.9960   28.0270   30.6130 C   0  0  0  0  0  0  0  0  0  0  0  0
   37.8530   27.7110   31.6040 N   0  0  0  0  0  0  0  0  0  0  0  0
   35.8530   25.2190   31.7440 H   0  0  0  0  0  0  0  0  0  0  0  0
   35.2890   27.0200   29.8790 H   0  0  0  0  0  0  0  0  0  0  0  0
   36.6290   30.4750   30.2210 C   0  0  0  0  0  3  0  0  0  0  0  0
   37.1320   29.2530   29.7990 C   0  0  0  0  0  0  0  0  0  0  0  0
   37.7840   29.1790   28.5710 C   0  0  0  0  0  0  0  0  0  0  0  0
   38.1900   28.2500   28.2020 H   0  0  0  0  0  0  0  0  0  0  0  0
   37.9540   30.2740   27.7480 C   0  0  0  0  0  0  0  0  0  0  0  0
   38.5060   30.5350   26.5630 N   0  0  0  0  0  0  0  0  0  0  0  0
   38.3790   31.8360   26.2220 C   0  0  0  0  0  0  0  0  0  0  0  0
   38.7600   32.2550   25.2970 H   0  0  0  0  0  0  0  0  0  0  0  0
   37.7110   32.4390   27.2430 N   0  0  0  0  0  0  0  0  0  0  0  0
   37.4500   31.4900   28.1750 C   0  0  0  0  0  0  0  0  0  0  0  0
   36.8030   31.5640   29.3930 C   0  0  0  0  0  3  0  0  0  0  0  0
   38.9810   29.8200   25.9640 H   0  0  0  0  0  0  0  0  0  0  0  0
   38.1980   25.9520   33.2460 O   0  0  0  0  0  0  0  0  0  0  0  0
   36.9480   27.7290   34.6430 O   0  0  0  0  0  0  0  0  0  0  0  0
   37.9090   26.5650   34.7980 P   0  0  2  0  0  0  0  0  0  0  0  0
   39.3710   27.0660   35.5230 O   0  0  0  0  0  0  0  0  0  0  0  0
   39.2400   27.0250   36.4910 H   0  0  0  0  0  0  0  0  0  0  0  0
   37.2660   25.3330   35.7850 O   0  0  0  0  0  0  0  0  0  0  0  0
   38.0720   24.5130   36.5720 C   0  0  0  0  0  0  0  0  0  0  0  0
   37.9000   24.2100   37.9220 C   0  0  0  0  0  0  0  0  0  0  0  0
   38.8180   23.3730   38.5160 C   0  0  0  0  0  0  0  0  0  0  0  0
   39.8420   22.8700   37.8010 N   0  0  0  0  0  0  0  0  0  0  0  0
   39.9890   23.1820   36.4730 C   0  0  0  0  0  0  0  0  0  0  0  0
   39.0990   24.0020   35.8740 N   0  0  0  0  0  0  0  0  0  0  0  0
   37.0430   24.6790   38.3700 H   0  0  0  0  0  0  0  0  0  0  0  0
   38.6560   23.1580   39.5660 H   0  0  0  0  0  0  0  0  0  0  0  0
   40.8400   22.7470   35.9360 H   0  0  0  0  0  0  0  0  0  0  0  0
  1 20  1  0  0  0  0
  2  6  1  0  0  0  0
  2  1  2  0  0  0  0
  3  4  1  0  0  0  0
  3  2  1  0  0  0  0
  4  5  2  0  0  0  0
  5  1  1  0  0  0  0
  7  3  1  0  0  0  0
  9  8  1  0  0  0  0
  9  4  1  0  0  0  0
 10  9  2  0  0  0  0
 11 10  1  0  0  0  0
 12 17  2  0  0  0  0
 12 10  1  0  0  0  0
 13 12  1  0  0  0  0
 14 13  1  0  0  0  0
 14 16  2  0  0  0  0
 15 14  1  0  0  0  0
 16 17  1  0  0  0  0
 17 18  1  0  0  0  0
 18  8  2  0  0  0  0
 19 13  1  0  0  0  0
 20 22  1  0  0  0  0
 22 21  2  6  0  0  0
 22 23  1  0  0  0  0
 22 25  1  0  0  0  0
 23 24  1  0  0  0  0
 25 26  1  0  0  0  0
 26 27  1  0  0  0  0
 27 32  1  0  0  0  0
 27 28  2  0  0  0  0
 28 33  1  0  0  0  0
 29 28  1  0  0  0  0
 30 29  2  0  0  0  0
 31 30  1  0  0  0  0
 31 26  2  0  0  0  0
 34 30  1  0  0  0  0
M  END
>  <minimizedAffinity>
-5.63935041

$$$$

 OpenBabel03262521143D

 34 37  0  0  0  0  0  0  0  0999 V2000
   37.8760   25.6030   35.7890 C   0  0  0  0  0  0  0  0  0  0  0  0
   38.4160   26.6860   36.4310 C   0  0  0  0  0  0  0  0  0  0  0  0
   38.0260   27.8000   35.7970 N   0  0  0  0  0  0  0  0  0  0  0  0
   37.2410   27.4570   34.7510 C   0  0  0  0  0  0  0  0  0  0  0  0
   37.1610   26.1110   34.7650 N   0  0  0  0  0  0  0  0  0  0  0  0
   39.0460   26.6090   37.3000 H   0  0  0  0  0  0  0  0  0  0  0  0
   38.2600   28.8000   36.0260 H   0  0  0  0  0  0  0  0  0  0  0  0
   36.8760   28.2200   32.3920 C   0  0  0  0  0  3  0  0  0  0  0  0
   36.5560   28.2890   33.7410 C   0  0  0  0  0  0  0  0  0  0  0  0
   35.5600   29.1690   34.1530 C   0  0  0  0  0  0  0  0  0  0  0  0
   35.2780   29.2560   35.1910 H   0  0  0  0  0  0  0  0  0  0  0  0
   34.8700   29.9820   33.2760 C   0  0  0  0  0  0  0  0  0  0  0  0
   33.9020   30.8970   33.3400 N   0  0  0  0  0  0  0  0  0  0  0  0
   33.6010   31.3990   32.1220 C   0  0  0  0  0  0  0  0  0  0  0  0
   32.8420   32.1540   31.9550 H   0  0  0  0  0  0  0  0  0  0  0  0
   34.4200   30.7720   31.2330 N   0  0  0  0  0  0  0  0  0  0  0  0
   35.1950   29.9080   31.9330 C   0  0  0  0  0  0  0  0  0  0  0  0
   36.1830   29.0350   31.5230 C   0  0  0  0  0  3  0  0  0  0  0  0
   33.4300   31.1930   34.2250 H   0  0  0  0  0  0  0  0  0  0  0  0
   37.9880   24.2320   36.0660 O   0  0  0  0  0  0  0  0  0  0  0  0
   40.2910   23.0700   36.1930 O   0  0  0  0  0  0  0  0  0  0  0  0
   39.1680   23.3650   35.2160 P   0  0  2  0  0  0  0  0  0  0  0  0
   39.7330   24.2740   33.8850 O   0  0  0  0  0  0  0  0  0  0  0  0
   40.0750   23.6370   33.2270 H   0  0  0  0  0  0  0  0  0  0  0  0
   38.4810   21.9390   34.5830 O   0  0  0  0  0  0  0  0  0  0  0  0
   37.3900   21.9590   33.7170 C   0  0  0  0  0  0  0  0  0  0  0  0
   36.3370   21.0460   33.6680 C   0  0  0  0  0  0  0  0  0  0  0  0
   35.3520   21.2500   32.7290 C   0  0  0  0  0  0  0  0  0  0  0  0
   35.4170   22.3030   31.8920 N   0  0  0  0  0  0  0  0  0  0  0  0
   36.4630   23.1890   31.9610 C   0  0  0  0  0  0  0  0  0  0  0  0
   37.4390   23.0050   32.8750 N   0  0  0  0  0  0  0  0  0  0  0  0
   36.4100   20.2550   34.3920 H   0  0  0  0  0  0  0  0  0  0  0  0
   34.5480   20.5230   32.7170 H   0  0  0  0  0  0  0  0  0  0  0  0
   36.4690   24.0290   31.2570 H   0  0  0  0  0  0  0  0  0  0  0  0
  1 20  1  0  0  0  0
  1  2  2  0  0  0  0
  2  6  1  0  0  0  0
  3  7  1  0  0  0  0
  3  2  1  0  0  0  0
  4  5  2  0  0  0  0
  4  3  1  0  0  0  0
  5  1  1  0  0  0  0
  8  9  1  0  0  0  0
  9 10  2  0  0  0  0
  9  4  1  0  0  0  0
 10 11  1  0  0  0  0
 12 13  1  0  0  0  0
 12 10  1  0  0  0  0
 13 19  1  0  0  0  0
 14 13  1  0  0  0  0
 15 14  1  0  0  0  0
 16 17  1  0  0  0  0
 16 14  2  0  0  0  0
 17 12  2  0  0  0  0
 18 17  1  0  0  0  0
 18  8  2  0  0  0  0
 22 20  1  0  0  0  0
 22 21  2  1  0  0  0
 23 22  1  0  0  0  0
 24 23  1  0  0  0  0
 25 22  1  0  0  0  0
 26 25  1  0  0  0  0
 27 26  1  0  0  0  0
 27 32  1  0  0  0  0
 28 27  2  0  0  0  0
 29 30  2  0  0  0  0
 29 28  1  0  0  0  0
 30 31  1  0  0  0  0
 31 26  2  0  0  0  0
 33 28  1  0  0  0  0
 34 30  1  0  0  0  0
M  END
>  <minimizedAffinity>
-5.4489789

$$$$

 OpenBabel03262521143D

 34 37  0  0  0  0  0  0  0  0999 V2000
   38.0910   26.4330   33.4140 C   0  0  0  0  0  0  0  0  0  0  0  0
   38.3840   27.0830   32.2440 C   0  0  0  0  0  0  0  0  0  0  0  0
   37.5190   28.0950   32.0870 N   0  0  0  0  0  0  0  0  0  0  0  0
   36.6680   28.1110   33.1360 C   0  0  0  0  0  0  0  0  0  0  0  0
   37.0340   27.0900   33.9360 N   0  0  0  0  0  0  0  0  0  0  0  0
   39.1870   26.7940   31.5880 H   0  0  0  0  0  0  0  0  0  0  0  0
   37.4620   28.7900   31.2990 H   0  0  0  0  0  0  0  0  0  0  0  0
   35.5770   29.8890   34.5270 C   0  0  0  0  0  3  0  0  0  0  0  0
   35.5390   29.0100   33.4530 C   0  0  0  0  0  0  0  0  0  0  0  0
   34.4010   28.9740   32.6510 C   0  0  0  0  0  0  0  0  0  0  0  0
   34.3280   28.3070   31.8060 H   0  0  0  0  0  0  0  0  0  0  0  0
   33.3020   29.7780   32.8750 C   0  0  0  0  0  0  0  0  0  0  0  0
   32.1070   29.9830   32.3220 N   0  0  0  0  0  0  0  0  0  0  0  0
   31.4020   30.9300   32.9800 C   0  0  0  0  0  0  0  0  0  0  0  0
   30.4060   31.2460   32.6910 H   0  0  0  0  0  0  0  0  0  0  0  0
   32.1880   31.3510   34.0080 N   0  0  0  0  0  0  0  0  0  0  0  0
   33.3470   30.6520   33.9470 C   0  0  0  0  0  0  0  0  0  0  0  0
   34.4740   30.6880   34.7440 C   0  0  0  0  0  3  0  0  0  0  0  0
   31.7530   29.4740   31.4790 H   0  0  0  0  0  0  0  0  0  0  0  0
   38.7010   25.3220   34.0160 O   0  0  0  0  0  0  0  0  0  0  0  0
   39.4590   23.2070   32.7430 O   0  0  0  0  0  0  0  0  0  0  0  0
   38.2500   23.7910   33.4500 P   0  0  2  0  0  0  0  0  0  0  0  0
   36.9180   23.9160   32.3890 O   0  0  0  0  0  0  0  0  0  0  0  0
   36.4540   23.0560   32.4080 H   0  0  0  0  0  0  0  0  0  0  0  0
   37.7480   22.8250   34.7610 O   0  0  0  0  0  0  0  0  0  0  0  0
   38.3340   22.9190   36.0220 C   0  0  0  0  0  0  0  0  0  0  0  0
   39.6270   22.5390   36.3790 C   0  0  0  0  0  0  0  0  0  0  0  0
   40.0110   22.7170   37.6890 C   0  0  0  0  0  0  0  0  0  0  0  0
   39.1530   23.2420   38.5840 N   0  0  0  0  0  0  0  0  0  0  0  0
   37.8850   23.6090   38.2080 C   0  0  0  0  0  0  0  0  0  0  0  0
   37.4910   23.4420   36.9280 N   0  0  0  0  0  0  0  0  0  0  0  0
   40.2040   22.1350   35.5680 H   0  0  0  0  0  0  0  0  0  0  0  0
   41.0210   22.4120   37.9340 H   0  0  0  0  0  0  0  0  0  0  0  0
   37.2250   24.0320   38.9740 H   0  0  0  0  0  0  0  0  0  0  0  0
  1  5  1  0  0  0  0
  1 20  1  0  0  0  0
  2  1  2  0  0  0  0
  3  2  1  0  0  0  0
  3  4  1  0  0  0  0
  4  9  1  0  0  0  0
  4  5  2  0  0  0  0
  6  2  1  0  0  0  0
  7  3  1  0  0  0  0
  8 18  1  0  0  0  0
  9  8  2  0  0  0  0
 10 12  2  0  0  0  0
 10  9  1  0  0  0  0
 11 10  1  0  0  0  0
 12 17  1  0  0  0  0
 13 12  1  0  0  0  0
 13 14  1  0  0  0  0
 14 16  2  0  0  0  0
 15 14  1  0  0  0  0
 17 16  1  0  0  0  0
 17 18  2  0  0  0  0
 19 13  1  0  0  0  0
 22 21  2  6  0  0  0
 22 20  1  0  0  0  0
 22 25  1  0  0  0  0
 23 24  1  0  0  0  0
 23 22  1  0  0  0  0
 25 26  1  0  0  0  0
 26 27  2  0  0  0  0
 26 31  1  0  0  0  0
 27 28  1  0  0  0  0
 28 33  1  0  0  0  0
 28 29  2  0  0  0  0
 30 29  1  0  0  0  0
 30 34  1  0  0  0  0
 31 30  2  0  0  0  0
 32 27  1  0  0  0  0
M  END
>  <minimizedAffinity>
-5.4063015

$$$$

 OpenBabel03262521143D

 34 37  0  0  0  0  0  0  0  0999 V2000
   36.6390   27.8310   32.4210 C   0  0  0  0  0  0  0  0  0  0  0  0
   37.8620   27.8710   31.8070 C   0  0  0  0  0  0  0  0  0  0  0  0
   38.6950   27.0450   32.4540 N   0  0  0  0  0  0  0  0  0  0  0  0
   38.0310   26.4690   33.4810 C   0  0  0  0  0  0  0  0  0  0  0  0
   36.7770   26.9610   33.4430 N   0  0  0  0  0  0  0  0  0  0  0  0
   38.0760   28.4810   30.9460 H   0  0  0  0  0  0  0  0  0  0  0  0
   39.7060   26.8390   32.2470 H   0  0  0  0  0  0  0  0  0  0  0  0
   39.4640   24.5540   34.2300 C   0  0  0  0  0  3  0  0  0  0  0  0
   38.4760   25.4920   34.4960 C   0  0  0  0  0  0  0  0  0  0  0  0
   37.8870   25.5120   35.7570 C   0  0  0  0  0  0  0  0  0  0  0  0
   37.1160   26.2240   36.0080 H   0  0  0  0  0  0  0  0  0  0  0  0
   38.2430   24.6370   36.7630 C   0  0  0  0  0  0  0  0  0  0  0  0
   37.8930   24.3980   38.0270 N   0  0  0  0  0  0  0  0  0  0  0  0
   38.5960   23.3760   38.5610 C   0  0  0  0  0  0  0  0  0  0  0  0
   38.4630   23.0220   39.5780 H   0  0  0  0  0  0  0  0  0  0  0  0
   39.4400   22.9380   37.5880 N   0  0  0  0  0  0  0  0  0  0  0  0
   39.2290   23.7040   36.4900 C   0  0  0  0  0  0  0  0  0  0  0  0
   39.8130   23.6820   35.2400 C   0  0  0  0  0  3  0  0  0  0  0  0
   37.1600   24.9360   38.5460 H   0  0  0  0  0  0  0  0  0  0  0  0
   35.4470   28.5090   32.1220 O   0  0  0  0  0  0  0  0  0  0  0  0
   35.0910   31.0480   32.4280 O   0  0  0  0  0  0  0  0  0  0  0  0
   34.9690   29.7390   33.1840 P   0  0  2  0  0  0  0  0  0  0  0  0
   35.9550   29.7380   34.5780 O   0  0  0  0  0  0  0  0  0  0  0  0
   35.4350   30.1470   35.2980 H   0  0  0  0  0  0  0  0  0  0  0  0
   33.3730   29.4490   33.7080 O   0  0  0  0  0  0  0  0  0  0  0  0
   32.9490   29.7490   35.0010 C   0  0  0  0  0  0  0  0  0  0  0  0
   32.0690   29.0100   35.7910 C   0  0  0  0  0  0  0  0  0  0  0  0
   31.7790   29.4850   37.0490 C   0  0  0  0  0  0  0  0  0  0  0  0
   32.3360   30.6290   37.4890 N   0  0  0  0  0  0  0  0  0  0  0  0
   33.2000   31.3390   36.6930 C   0  0  0  0  0  0  0  0  0  0  0  0
   33.4960   30.8890   35.4560 N   0  0  0  0  0  0  0  0  0  0  0  0
   31.6990   28.1180   35.3170 H   0  0  0  0  0  0  0  0  0  0  0  0
   31.0920   28.8880   37.6370 H   0  0  0  0  0  0  0  0  0  0  0  0
   33.6260   32.2640   37.0980 H   0  0  0  0  0  0  0  0  0  0  0  0
  1  5  1  0  0  0  0
  2  1  2  0  0  0  0
  2  3  1  0  0  0  0
  3  4  1  0  0  0  0
  4  9  1  0  0  0  0
  5  4  2  0  0  0  0
  6  2  1  0  0  0  0
  7  3  1  0  0  0  0
  8  9  2  0  0  0  0
  8 18  1  0  0  0  0
  9 10  1  0  0  0  0
 10 11  1  0  0  0  0
 10 12  2  0  0  0  0
 12 13  1  0  0  0  0
 13 19  1  0  0  0  0
 13 14  1  0  0  0  0
 14 15  1  0  0  0  0
 16 14  2  0  0  0  0
 17 12  1  0  0  0  0
 17 16  1  0  0  0  0
 18 17  2  0  0  0  0
 20  1  1  0  0  0  0
 20 22  1  0  0  0  0
 22 21  2  6  0  0  0
 22 25  1  0  0  0  0
 22 23  1  0  0  0  0
 23 24  1  0  0  0  0
 25 26  1  0  0  0  0
 26 31  2  0  0  0  0
 26 27  1  0  0  0  0
 27 28  2  0  0  0  0
 28 29  1  0  0  0  0
 28 33  1  0  0  0  0
 30 34  1  0  0  0  0
 30 29  2  0  0  0  0
 31 30  1  0  0  0  0
 32 27  1  0  0  0  0
M  END
>  <minimizedAffinity>
-5.39177036

$$$$

 OpenBabel03262521143D

 34 37  0  0  0  0  0  0  0  0999 V2000
   37.9650   25.5720   36.0130 C   0  0  0  0  0  0  0  0  0  0  0  0
   38.5010   26.7470   36.4700 C   0  0  0  0  0  0  0  0  0  0  0  0
   38.8630   27.4920   35.4160 N   0  0  0  0  0  0  0  0  0  0  0  0
   38.5730   26.8180   34.2820 C   0  0  0  0  0  0  0  0  0  0  0  0
   38.0240   25.6490   34.6680 N   0  0  0  0  0  0  0  0  0  0  0  0
   38.5950   26.9920   37.5140 H   0  0  0  0  0  0  0  0  0  0  0  0
   39.3060   28.4470   35.4110 H   0  0  0  0  0  0  0  0  0  0  0  0
   40.0150   27.1510   32.2590 C   0  0  0  0  0  3  0  0  0  0  0  0
   38.7650   27.1810   32.8630 C   0  0  0  0  0  0  0  0  0  0  0  0
   37.6610   27.5670   32.1090 C   0  0  0  0  0  0  0  0  0  0  0  0
   36.6710   27.6050   32.5360 H   0  0  0  0  0  0  0  0  0  0  0  0
   37.7510   27.9220   30.7780 C   0  0  0  0  0  0  0  0  0  0  0  0
   36.9260   28.3220   29.8110 N   0  0  0  0  0  0  0  0  0  0  0  0
   37.5790   28.5420   28.6490 C   0  0  0  0  0  0  0  0  0  0  0  0
   37.0910   28.8720   27.7380 H   0  0  0  0  0  0  0  0  0  0  0  0
   38.8910   28.2680   28.8850 N   0  0  0  0  0  0  0  0  0  0  0  0
   39.0000   27.8890   30.1830 C   0  0  0  0  0  0  0  0  0  0  0  0
   40.0960   27.5080   30.9300 C   0  0  0  0  0  3  0  0  0  0  0  0
   35.8950   28.4530   29.9330 H   0  0  0  0  0  0  0  0  0  0  0  0
   37.4450   24.4750   36.7160 O   0  0  0  0  0  0  0  0  0  0  0  0
   37.8260   22.0120   36.0410 O   0  0  0  0  0  0  0  0  0  0  0  0
   38.4430   23.1160   36.8780 P   0  0  2  0  0  0  0  0  0  0  0  0
   38.5590   22.6550   38.5180 O   0  0  0  0  0  0  0  0  0  0  0  0
   39.4020   22.1710   38.6210 H   0  0  0  0  0  0  0  0  0  0  0  0
   40.0210   23.5040   36.3620 O   0  0  0  0  0  0  0  0  0  0  0  0
   41.0120   22.5370   36.2080 C   0  0  0  0  0  0  0  0  0  0  0  0
   41.7160   22.2320   35.0430 C   0  0  0  0  0  0  0  0  0  0  0  0
   42.6610   21.2330   35.1060 C   0  0  0  0  0  0  0  0  0  0  0  0
   42.8870   20.5820   36.2620 N   0  0  0  0  0  0  0  0  0  0  0  0
   42.1810   20.9000   37.3950 C   0  0  0  0  0  0  0  0  0  0  0  0
   41.2500   21.8770   37.3530 N   0  0  0  0  0  0  0  0  0  0  0  0
   41.4370   22.8290   34.1940 H   0  0  0  0  0  0  0  0  0  0  0  0
   43.1910   21.0210   34.1840 H   0  0  0  0  0  0  0  0  0  0  0  0
   42.4030   20.3400   38.3110 H   0  0  0  0  0  0  0  0  0  0  0  0
  1  2  2  0  0  0  0
  1 20  1  0  0  0  0
  2  6  1  0  0  0  0
  3  2  1  0  0  0  0
  4  5  2  0  0  0  0
  4  3  1  0  0  0  0
  5  1  1  0  0  0  0
  7  3  1  0  0  0  0
  8  9  1  0  0  0  0
  9  4  1  0  0  0  0
 10 11  1  0  0  0  0
 10  9  2  0  0  0  0
 12 10  1  0  0  0  0
 13 19  1  0  0  0  0
 13 12  1  0  0  0  0
 14 16  2  0  0  0  0
 14 13  1  0  0  0  0
 15 14  1  0  0  0  0
 16 17  1  0  0  0  0
 17 12  2  0  0  0  0
 17 18  1  0  0  0  0
 18  8  2  0  0  0  0
 20 22  1  0  0  0  0
 22 21  2  6  0  0  0
 22 23  1  0  0  0  0
 23 24  1  0  0  0  0
 25 22  1  0  0  0  0
 26 25  1  0  0  0  0
 26 31  1  0  0  0  0
 27 28  1  0  0  0  0
 27 26  2  0  0  0  0
 28 29  2  0  0  0  0
 29 30  1  0  0  0  0
 30 34  1  0  0  0  0
 31 30  2  0  0  0  0
 32 27  1  0  0  0  0
 33 28  1  0  0  0  0
M  END
>  <minimizedAffinity>
-5.38940144

$$$$

 OpenBabel03262521143D

 34 37  0  0  0  0  0  0  0  0999 V2000
   37.1090   27.3780   33.6670 C   0  0  0  0  0  0  0  0  0  0  0  0
   36.7330   27.9770   32.4940 C   0  0  0  0  0  0  0  0  0  0  0  0
   36.0160   29.0720   32.7820 N   0  0  0  0  0  0  0  0  0  0  0  0
   35.9200   29.1930   34.1250 C   0  0  0  0  0  0  0  0  0  0  0  0
   36.5950   28.1500   34.6470 N   0  0  0  0  0  0  0  0  0  0  0  0
   36.9930   27.5960   31.5220 H   0  0  0  0  0  0  0  0  0  0  0  0
   35.5750   29.7590   32.1180 H   0  0  0  0  0  0  0  0  0  0  0  0
   35.9620   31.1060   35.7430 C   0  0  0  0  0  3  0  0  0  0  0  0
   35.2490   30.2090   34.9600 C   0  0  0  0  0  0  0  0  0  0  0  0
   33.8580   30.2700   34.9620 C   0  0  0  0  0  0  0  0  0  0  0  0
   33.2630   29.5930   34.3700 H   0  0  0  0  0  0  0  0  0  0  0  0
   33.1500   31.1870   35.7120 C   0  0  0  0  0  0  0  0  0  0  0  0
   31.8730   31.5000   35.9320 N   0  0  0  0  0  0  0  0  0  0  0  0
   31.7470   32.5300   36.7980 C   0  0  0  0  0  0  0  0  0  0  0  0
   30.7920   32.9390   37.1100 H   0  0  0  0  0  0  0  0  0  0  0  0
   33.0100   32.8950   37.1500 N   0  0  0  0  0  0  0  0  0  0  0  0
   33.8680   32.0790   36.4910 C   0  0  0  0  0  0  0  0  0  0  0  0
   35.2470   32.0200   36.4900 C   0  0  0  0  0  3  0  0  0  0  0  0
   31.0620   31.0090   35.4890 H   0  0  0  0  0  0  0  0  0  0  0  0
   37.8630   26.2170   33.8960 O   0  0  0  0  0  0  0  0  0  0  0  0
   37.5530   25.2880   36.2850 O   0  0  0  0  0  0  0  0  0  0  0  0
   38.5590   26.0340   35.4290 P   0  0  2  0  0  0  0  0  0  0  0  0
   38.9280   27.5600   36.1010 O   0  0  0  0  0  0  0  0  0  0  0  0
   39.6500   27.4230   36.7460 H   0  0  0  0  0  0  0  0  0  0  0  0
   40.0320   25.1880   35.2890 O   0  0  0  0  0  0  0  0  0  0  0  0
   41.0420   25.5920   34.4190 C   0  0  0  0  0  0  0  0  0  0  0  0
   42.0320   24.7920   33.8480 C   0  0  0  0  0  0  0  0  0  0  0  0
   42.9420   25.3940   33.0090 C   0  0  0  0  0  0  0  0  0  0  0  0
   42.8650   26.7140   32.7580 N   0  0  0  0  0  0  0  0  0  0  0  0
   41.8820   27.4800   33.3300 C   0  0  0  0  0  0  0  0  0  0  0  0
   40.9800   26.9080   34.1560 N   0  0  0  0  0  0  0  0  0  0  0  0
   41.9760   23.7570   34.1340 H   0  0  0  0  0  0  0  0  0  0  0  0
   43.6970   24.7440   32.5830 H   0  0  0  0  0  0  0  0  0  0  0  0
   41.8630   28.5500   33.0930 H   0  0  0  0  0  0  0  0  0  0  0  0
  1 20  1  0  0  0  0
  1  5  1  0  0  0  0
  2  3  1  0  0  0  0
  2  1  2  0  0  0  0
  3  4  1  0  0  0  0
  4  5  2  0  0  0  0
  4  9  1  0  0  0  0
  6  2  1  0  0  0  0
  7  3  1  0  0  0  0
  8 18  1  0  0  0  0
  9 10  1  0  0  0  0
  9  8  2  0  0  0  0
 10 12  2  0  0  0  0
 11 10  1  0  0  0  0
 12 13  1  0  0  0  0
 12 17  1  0  0  0  0
 13 14  1  0  0  0  0
 14 15  1  0  0  0  0
 14 16  2  0  0  0  0
 17 16  1  0  0  0  0
 18 17  2  0  0  0  0
 19 13  1  0  0  0  0
 20 22  1  0  0  0  0
 22 23  1  0  0  0  0
 22 21  2  1  0  0  0
 23 24  1  0  0  0  0
 25 22  1  0  0  0  0
 26 25  1  0  0  0  0
 27 32  1  0  0  0  0
 27 26  2  0  0  0  0
 28 27  1  0  0  0  0
 29 28  2  0  0  0  0
 29 30  1  0  0  0  0
 30 31  2  0  0  0  0
 31 26  1  0  0  0  0
 33 28  1  0  0  0  0
 34 30  1  0  0  0  0
M  END
>  <minimizedAffinity>
-5.38590193

$$$$
