
 OpenBabel03272507313D

 32 35  0  0  0  0  0  0  0  0999 V2000
   37.8400   25.6970   34.7570 C   0  0  0  0  0  0  0  0  0  0  0  0
   38.3720   26.5370   35.6950 C   0  0  0  0  0  0  0  0  0  0  0  0
   37.8390   27.8130   35.4570 C   0  0  0  0  0  0  0  0  0  0  0  0
   36.9970   27.6540   34.3600 C   0  0  0  0  0  0  0  0  0  0  0  0
   37.0530   26.4110   34.0160 O   0  0  0  0  0  0  0  0  0  0  0  0
   39.0750   26.3230   36.4960 H   0  0  0  0  0  0  0  0  0  0  0  0
   38.0810   28.6860   36.0480 H   0  0  0  0  0  0  0  0  0  0  0  0
   38.1720   24.2880   34.6990 C   0  0  0  0  0  0  0  0  0  0  0  0
   37.7930   23.6210   33.7120 O   0  0  0  0  0  0  0  0  0  0  0  0
   38.9330   23.7410   35.8070 C   0  0  0  0  0  0  0  0  0  0  0  0
   40.2710   23.4250   35.5330 C   0  0  0  0  0  0  0  0  0  0  0  0
   41.0360   22.8950   36.5790 C   0  0  0  0  0  0  0  0  0  0  0  0
   40.4280   22.7210   37.7950 N   0  0  0  0  0  0  0  0  0  0  0  0
   39.1420   23.0350   38.0180 C   0  0  0  0  0  0  0  0  0  0  0  0
   38.4030   23.5420   37.0270 N   0  0  0  0  0  0  0  0  0  0  0  0
   40.7370   23.5650   34.5790 H   0  0  0  0  0  0  0  0  0  0  0  0
   42.0760   22.6370   36.4100 H   0  0  0  0  0  0  0  0  0  0  0  0
   38.7640   22.8570   39.0120 H   0  0  0  0  0  0  0  0  0  0  0  0
   36.2220   28.7460   33.7610 C   0  0  0  0  0  0  0  0  0  0  0  0
   36.2330   28.9390   32.5150 O   0  0  0  0  0  0  0  0  0  0  0  0
   34.0450   29.4640   34.5730 C   0  0  0  0  0  3  0  0  0  0  0  0
   35.4150   29.6460   34.5700 C   0  0  0  0  0  0  0  0  0  0  0  0
   35.8810   30.6720   35.3390 C   0  0  0  0  0  0  0  0  0  0  0  0
   36.9540   30.8360   35.3540 H   0  0  0  0  0  0  0  0  0  0  0  0
   35.0780   31.5010   36.0910 C   0  0  0  0  0  0  0  0  0  0  0  0
   35.2250   32.5390   36.9060 N   0  0  0  0  0  0  0  0  0  0  0  0
   34.0540   32.9850   37.3910 C   0  0  0  0  0  0  0  0  0  0  0  0
   33.9430   33.8310   38.0800 H   0  0  0  0  0  0  0  0  0  0  0  0
   33.0830   32.1980   36.8670 N   0  0  0  0  0  0  0  0  0  0  0  0
   33.6940   31.2960   36.0790 C   0  0  0  0  0  0  0  0  0  0  0  0
   33.1820   30.2620   35.3070 C   0  0  0  0  0  3  0  0  0  0  0  0
   36.1550   32.9670   37.1470 H   0  0  0  0  0  0  0  0  0  0  0  0
  1  2  2  0  0  0  0
  2  6  1  0  0  0  0
  3  2  1  0  0  0  0
  3  7  1  0  0  0  0
  4  3  2  0  0  0  0
  5  4  1  0  0  0  0
  5  1  1  0  0  0  0
  8  1  1  0  0  0  0
  8 10  1  0  0  0  0
  9  8  2  0  0  0  0
 10 15  1  0  0  0  0
 11 10  2  0  0  0  0
 11 12  1  0  0  0  0
 12 13  2  0  0  0  0
 13 14  1  0  0  0  0
 14 18  1  0  0  0  0
 15 14  2  0  0  0  0
 16 11  1  0  0  0  0
 17 12  1  0  0  0  0
 19  4  1  0  0  0  0
 19 22  1  0  0  0  0
 20 19  2  0  0  0  0
 21 31  1  0  0  0  0
 22 21  2  0  0  0  0
 22 23  1  0  0  0  0
 23 24  1  0  0  0  0
 23 25  2  0  0  0  0
 25 26  1  0  0  0  0
 26 32  1  0  0  0  0
 26 27  1  0  0  0  0
 27 28  1  0  0  0  0
 29 27  2  0  0  0  0
 30 25  1  0  0  0  0
 30 29  1  0  0  0  0
 31 30  2  0  0  0  0
M  END
>  <minimizedAffinity>
-6.0793891

$$$$

 OpenBabel03272507313D

 32 35  0  0  0  0  0  0  0  0999 V2000
   37.2360   27.2330   34.6400 C   0  0  0  0  0  0  0  0  0  0  0  0
   38.1410   27.7870   35.5020 C   0  0  0  0  0  0  0  0  0  0  0  0
   38.5560   26.7680   36.3740 C   0  0  0  0  0  0  0  0  0  0  0  0
   37.8560   25.6360   35.9670 C   0  0  0  0  0  0  0  0  0  0  0  0
   37.1190   25.9860   34.9660 O   0  0  0  0  0  0  0  0  0  0  0  0
   38.5090   28.8080   35.5580 H   0  0  0  0  0  0  0  0  0  0  0  0
   39.2750   26.9140   37.1690 H   0  0  0  0  0  0  0  0  0  0  0  0
   36.5910   28.0010   33.5930 C   0  0  0  0  0  0  0  0  0  0  0  0
   35.5830   28.6810   33.8810 O   0  0  0  0  0  0  0  0  0  0  0  0
   37.1700   27.9250   32.2640 C   0  0  0  0  0  0  0  0  0  0  0  0
   36.5280   28.6800   31.2740 C   0  0  0  0  0  0  0  0  0  0  0  0
   37.0570   28.6320   29.9790 C   0  0  0  0  0  0  0  0  0  0  0  0
   38.1650   27.8510   29.7680 N   0  0  0  0  0  0  0  0  0  0  0  0
   38.7510   27.1400   30.7430 C   0  0  0  0  0  0  0  0  0  0  0  0
   38.2540   27.1800   31.9830 N   0  0  0  0  0  0  0  0  0  0  0  0
   35.6630   29.2870   31.4490 H   0  0  0  0  0  0  0  0  0  0  0  0
   36.5910   29.2020   29.1830 H   0  0  0  0  0  0  0  0  0  0  0  0
   39.6170   26.5590   30.4680 H   0  0  0  0  0  0  0  0  0  0  0  0
   37.9860   24.3230   36.6080 C   0  0  0  0  0  0  0  0  0  0  0  0
   37.0570   23.8600   37.3250 O   0  0  0  0  0  0  0  0  0  0  0  0
   39.8440   23.5580   35.2390 C   0  0  0  0  0  3  0  0  0  0  0  0
   39.1780   23.5060   36.4490 C   0  0  0  0  0  0  0  0  0  0  0  0
   39.7170   22.6780   37.3890 C   0  0  0  0  0  0  0  0  0  0  0  0
   39.2120   22.6180   38.3490 H   0  0  0  0  0  0  0  0  0  0  0  0
   40.8510   21.9210   37.1940 C   0  0  0  0  0  0  0  0  0  0  0  0
   41.5890   21.0580   37.8840 N   0  0  0  0  0  0  0  0  0  0  0  0
   42.6370   20.5960   37.1800 C   0  0  0  0  0  0  0  0  0  0  0  0
   43.3740   19.8770   37.5540 H   0  0  0  0  0  0  0  0  0  0  0  0
   42.5860   21.1880   35.9610 N   0  0  0  0  0  0  0  0  0  0  0  0
   41.5080   21.9910   35.9610 C   0  0  0  0  0  0  0  0  0  0  0  0
   40.9900   22.8230   34.9790 C   0  0  0  0  0  3  0  0  0  0  0  0
   41.3780   20.7660   38.8710 H   0  0  0  0  0  0  0  0  0  0  0  0
  1  5  1  0  0  0  0
  1  2  2  0  0  0  0
  2  6  1  0  0  0  0
  2  3  1  0  0  0  0
  3  7  1  0  0  0  0
  4  3  2  0  0  0  0
  4 19  1  0  0  0  0
  5  4  1  0  0  0  0
  8  9  2  0  0  0  0
  8  1  1  0  0  0  0
 10  8  1  0  0  0  0
 11 16  1  0  0  0  0
 11 10  2  0  0  0  0
 12 11  1  0  0  0  0
 13 12  2  0  0  0  0
 13 14  1  0  0  0  0
 14 15  2  0  0  0  0
 15 10  1  0  0  0  0
 17 12  1  0  0  0  0
 18 14  1  0  0  0  0
 19 20  2  0  0  0  0
 21 22  1  0  0  0  0
 22 19  1  0  0  0  0
 22 23  2  0  0  0  0
 23 24  1  0  0  0  0
 25 23  1  0  0  0  0
 25 26  1  0  0  0  0
 26 32  1  0  0  0  0
 27 28  1  0  0  0  0
 27 26  1  0  0  0  0
 29 30  1  0  0  0  0
 29 27  2  0  0  0  0
 30 25  2  0  0  0  0
 31 21  2  0  0  0  0
 31 30  1  0  0  0  0
M  END
>  <minimizedAffinity>
-5.94131947

$$$$

 OpenBabel03272507313D

 32 35  0  0  0  0  0  0  0  0999 V2000
   36.4240   25.6630   32.2130 C   0  0  0  0  0  0  0  0  0  0  0  0
   36.3250   27.0260   32.1660 C   0  0  0  0  0  0  0  0  0  0  0  0
   36.9750   27.5250   33.3060 C   0  0  0  0  0  0  0  0  0  0  0  0
   37.4360   26.3990   33.9820 C   0  0  0  0  0  0  0  0  0  0  0  0
   37.0790   25.3690   33.2910 O   0  0  0  0  0  0  0  0  0  0  0  0
   35.8500   27.6610   31.4230 H   0  0  0  0  0  0  0  0  0  0  0  0
   37.0570   28.5790   33.5370 H   0  0  0  0  0  0  0  0  0  0  0  0
   35.8590   24.8090   31.1880 C   0  0  0  0  0  0  0  0  0  0  0  0
   34.8840   25.2270   30.5270 O   0  0  0  0  0  0  0  0  0  0  0  0
   36.4750   23.5080   30.9970 C   0  0  0  0  0  0  0  0  0  0  0  0
   35.6690   22.4010   31.2970 C   0  0  0  0  0  0  0  0  0  0  0  0
   36.2290   21.1290   31.1260 C   0  0  0  0  0  0  0  0  0  0  0  0
   37.5220   21.0530   30.6780 N   0  0  0  0  0  0  0  0  0  0  0  0
   38.2630   22.1380   30.4030 C   0  0  0  0  0  0  0  0  0  0  0  0
   37.7380   23.3560   30.5630 N   0  0  0  0  0  0  0  0  0  0  0  0
   34.6590   22.4710   31.6460 H   0  0  0  0  0  0  0  0  0  0  0  0
   35.6390   20.2460   31.3460 H   0  0  0  0  0  0  0  0  0  0  0  0
   39.2700   21.9640   30.0570 H   0  0  0  0  0  0  0  0  0  0  0  0
   38.1820   26.4550   35.2440 C   0  0  0  0  0  0  0  0  0  0  0  0
   38.3140   27.5420   35.8690 O   0  0  0  0  0  0  0  0  0  0  0  0
   38.2010   24.7070   36.9350 C   0  0  0  0  0  3  0  0  0  0  0  0
   38.7980   25.2720   35.8230 C   0  0  0  0  0  0  0  0  0  0  0  0
   39.9260   24.6510   35.3730 C   0  0  0  0  0  0  0  0  0  0  0  0
   40.4150   25.0750   34.5010 H   0  0  0  0  0  0  0  0  0  0  0  0
   40.4750   23.5290   35.9550 C   0  0  0  0  0  0  0  0  0  0  0  0
   41.5170   22.7290   35.7590 N   0  0  0  0  0  0  0  0  0  0  0  0
   41.5850   21.7380   36.6640 C   0  0  0  0  0  0  0  0  0  0  0  0
   42.3620   20.9660   36.6910 H   0  0  0  0  0  0  0  0  0  0  0  0
   40.5290   21.8930   37.5010 N   0  0  0  0  0  0  0  0  0  0  0  0
   39.8520   22.9750   37.0790 C   0  0  0  0  0  0  0  0  0  0  0  0
   38.7020   23.5800   37.5660 C   0  0  0  0  0  3  0  0  0  0  0  0
   42.2150   22.8560   34.9830 H   0  0  0  0  0  0  0  0  0  0  0  0
  1  5  1  0  0  0  0
  2  1  2  0  0  0  0
  2  3  1  0  0  0  0
  3  7  1  0  0  0  0
  3  4  2  0  0  0  0
  4 19  1  0  0  0  0
  5  4  1  0  0  0  0
  6  2  1  0  0  0  0
  8  1  1  0  0  0  0
  9  8  2  0  0  0  0
 10  8  1  0  0  0  0
 10 11  1  0  0  0  0
 11 16  1  0  0  0  0
 12 11  2  0  0  0  0
 12 17  1  0  0  0  0
 13 12  1  0  0  0  0
 14 15  1  0  0  0  0
 14 13  2  0  0  0  0
 15 10  2  0  0  0  0
 18 14  1  0  0  0  0
 19 22  1  0  0  0  0
 19 20  2  0  0  0  0
 21 31  1  0  0  0  0
 22 21  2  0  0  0  0
 23 22  1  0  0  0  0
 23 25  2  0  0  0  0
 24 23  1  0  0  0  0
 25 30  1  0  0  0  0
 26 25  1  0  0  0  0
 26 27  1  0  0  0  0
 27 28  1  0  0  0  0
 27 29  2  0  0  0  0
 30 29  1  0  0  0  0
 30 31  2  0  0  0  0
 32 26  1  0  0  0  0
M  END
>  <minimizedAffinity>
-5.88286495

$$$$

 OpenBabel03272507313D

 32 35  0  0  0  0  0  0  0  0999 V2000
   37.8640   27.1480   34.2590 C   0  0  0  0  0  0  0  0  0  0  0  0
   37.9450   27.3090   32.9040 C   0  0  0  0  0  0  0  0  0  0  0  0
   36.8610   28.1150   32.5190 C   0  0  0  0  0  0  0  0  0  0  0  0
   36.1820   28.3940   33.7010 C   0  0  0  0  0  0  0  0  0  0  0  0
   36.8200   27.8030   34.6550 O   0  0  0  0  0  0  0  0  0  0  0  0
   38.6770   26.9170   32.2020 H   0  0  0  0  0  0  0  0  0  0  0  0
   36.6670   28.4120   31.4980 H   0  0  0  0  0  0  0  0  0  0  0  0
   38.8280   26.3650   35.0060 C   0  0  0  0  0  0  0  0  0  0  0  0
   39.9450   26.8670   35.2560 O   0  0  0  0  0  0  0  0  0  0  0  0
   38.4230   25.0330   35.4170 C   0  0  0  0  0  0  0  0  0  0  0  0
   38.0250   24.9020   36.7550 C   0  0  0  0  0  0  0  0  0  0  0  0
   37.6270   23.6320   37.1890 C   0  0  0  0  0  0  0  0  0  0  0  0
   37.6540   22.6060   36.2790 N   0  0  0  0  0  0  0  0  0  0  0  0
   38.0430   22.7720   35.0060 C   0  0  0  0  0  0  0  0  0  0  0  0
   38.4240   23.9800   34.5820 N   0  0  0  0  0  0  0  0  0  0  0  0
   38.0070   25.7100   37.4580 H   0  0  0  0  0  0  0  0  0  0  0  0
   37.3110   23.4860   38.2160 H   0  0  0  0  0  0  0  0  0  0  0  0
   38.0270   21.8970   34.3750 H   0  0  0  0  0  0  0  0  0  0  0  0
   34.9690   29.2170   33.7690 C   0  0  0  0  0  0  0  0  0  0  0  0
   33.9940   28.9970   33.0000 O   0  0  0  0  0  0  0  0  0  0  0  0
   35.9880   30.9780   35.1030 C   0  0  0  0  0  3  0  0  0  0  0  0
   34.8390   30.3140   34.7160 C   0  0  0  0  0  0  0  0  0  0  0  0
   33.6770   30.7630   35.2710 C   0  0  0  0  0  0  0  0  0  0  0  0
   32.7590   30.2580   34.9830 H   0  0  0  0  0  0  0  0  0  0  0  0
   33.6000   31.8080   36.1650 C   0  0  0  0  0  0  0  0  0  0  0  0
   32.6610   32.4510   36.8490 N   0  0  0  0  0  0  0  0  0  0  0  0
   33.1600   33.4400   37.6090 C   0  0  0  0  0  0  0  0  0  0  0  0
   32.5650   34.0960   38.2540 H   0  0  0  0  0  0  0  0  0  0  0  0
   34.5020   33.4490   37.4140 N   0  0  0  0  0  0  0  0  0  0  0  0
   34.7770   32.4650   36.5410 C   0  0  0  0  0  0  0  0  0  0  0  0
   35.9800   32.0360   35.9970 C   0  0  0  0  0  3  0  0  0  0  0  0
   31.6370   32.2130   36.8040 H   0  0  0  0  0  0  0  0  0  0  0  0
  1  5  1  0  0  0  0
  1  8  1  0  0  0  0
  2  1  2  0  0  0  0
  3  2  1  0  0  0  0
  3  4  2  0  0  0  0
  4 19  1  0  0  0  0
  4  5  1  0  0  0  0
  6  2  1  0  0  0  0
  7  3  1  0  0  0  0
  8  9  2  0  0  0  0
  8 10  1  0  0  0  0
 10 11  1  0  0  0  0
 11 12  2  0  0  0  0
 11 16  1  0  0  0  0
 12 17  1  0  0  0  0
 13 12  1  0  0  0  0
 14 13  2  0  0  0  0
 15 14  1  0  0  0  0
 15 10  2  0  0  0  0
 18 14  1  0  0  0  0
 19 22  1  0  0  0  0
 20 19  2  0  0  0  0
 21 31  1  0  0  0  0
 22 21  2  0  0  0  0
 22 23  1  0  0  0  0
 23 25  2  0  0  0  0
 24 23  1  0  0  0  0
 25 30  1  0  0  0  0
 25 26  1  0  0  0  0
 26 27  1  0  0  0  0
 27 28  1  0  0  0  0
 29 27  2  0  0  0  0
 30 29  1  0  0  0  0
 31 30  2  0  0  0  0
 32 26  1  0  0  0  0
M  END
>  <minimizedAffinity>
-5.82218504

$$$$

 OpenBabel03272507313D

 32 35  0  0  0  0  0  0  0  0999 V2000
   38.0500   26.0170   33.7800 C   0  0  0  0  0  0  0  0  0  0  0  0
   37.6430   27.1040   33.0580 C   0  0  0  0  0  0  0  0  0  0  0  0
   36.7520   26.6380   32.0790 C   0  0  0  0  0  0  0  0  0  0  0  0
   36.6780   25.2630   32.2820 C   0  0  0  0  0  0  0  0  0  0  0  0
   37.4520   24.9840   33.2760 O   0  0  0  0  0  0  0  0  0  0  0  0
   37.9170   28.1500   33.1670 H   0  0  0  0  0  0  0  0  0  0  0  0
   36.2650   27.2790   31.3550 H   0  0  0  0  0  0  0  0  0  0  0  0
   38.9830   26.1230   34.8840 C   0  0  0  0  0  0  0  0  0  0  0  0
   39.6840   27.1540   34.9810 O   0  0  0  0  0  0  0  0  0  0  0  0
   39.0390   25.0100   35.8130 C   0  0  0  0  0  0  0  0  0  0  0  0
   38.0520   24.9950   36.8090 C   0  0  0  0  0  0  0  0  0  0  0  0
   38.0740   23.9360   37.7240 C   0  0  0  0  0  0  0  0  0  0  0  0
   39.0550   22.9890   37.5850 N   0  0  0  0  0  0  0  0  0  0  0  0
   39.9840   23.0380   36.6180 C   0  0  0  0  0  0  0  0  0  0  0  0
   39.9720   24.0450   35.7390 N   0  0  0  0  0  0  0  0  0  0  0  0
   37.2900   25.7410   36.9090 H   0  0  0  0  0  0  0  0  0  0  0  0
   37.3290   23.8860   38.5110 H   0  0  0  0  0  0  0  0  0  0  0  0
   40.7110   22.2410   36.6000 H   0  0  0  0  0  0  0  0  0  0  0  0
   35.8500   24.3630   31.4720 C   0  0  0  0  0  0  0  0  0  0  0  0
   34.9320   24.8170   30.7350 O   0  0  0  0  0  0  0  0  0  0  0  0
   37.2170   22.4230   30.9410 C   0  0  0  0  0  3  0  0  0  0  0  0
   36.0470   22.9220   31.4830 C   0  0  0  0  0  0  0  0  0  0  0  0
   35.1790   21.9960   31.9810 C   0  0  0  0  0  0  0  0  0  0  0  0
   34.2520   22.3620   32.4120 H   0  0  0  0  0  0  0  0  0  0  0  0
   35.4080   20.6370   31.9710 C   0  0  0  0  0  0  0  0  0  0  0  0
   34.7860   19.5310   32.3630 N   0  0  0  0  0  0  0  0  0  0  0  0
   35.4910   18.4190   32.0970 C   0  0  0  0  0  0  0  0  0  0  0  0
   35.1670   17.4000   32.3340 H   0  0  0  0  0  0  0  0  0  0  0  0
   36.6420   18.8150   31.4980 N   0  0  0  0  0  0  0  0  0  0  0  0
   36.6000   20.1560   31.4180 C   0  0  0  0  0  0  0  0  0  0  0  0
   37.5080   21.0690   30.9000 C   0  0  0  0  0  3  0  0  0  0  0  0
   33.8430   19.5240   32.8290 H   0  0  0  0  0  0  0  0  0  0  0  0
  1  8  1  0  0  0  0
  2  6  1  0  0  0  0
  2  1  2  0  0  0  0
  3  4  2  0  0  0  0
  3  2  1  0  0  0  0
  4  5  1  0  0  0  0
  5  1  1  0  0  0  0
  7  3  1  0  0  0  0
  8  9  2  0  0  0  0
  8 10  1  0  0  0  0
 10 11  1  0  0  0  0
 11 16  1  0  0  0  0
 11 12  2  0  0  0  0
 12 17  1  0  0  0  0
 13 12  1  0  0  0  0
 14 13  2  0  0  0  0
 15 10  2  0  0  0  0
 15 14  1  0  0  0  0
 18 14  1  0  0  0  0
 19 22  1  0  0  0  0
 19  4  1  0  0  0  0
 20 19  2  0  0  0  0
 21 22  1  0  0  0  0
 22 23  2  0  0  0  0
 23 24  1  0  0  0  0
 25 23  1  0  0  0  0
 25 26  1  0  0  0  0
 26 32  1  0  0  0  0
 27 28  1  0  0  0  0
 27 26  1  0  0  0  0
 29 27  2  0  0  0  0
 30 29  1  0  0  0  0
 30 25  2  0  0  0  0
 31 21  2  0  0  0  0
 31 30  1  0  0  0  0
M  END
>  <minimizedAffinity>
-5.80814886

$$$$

 OpenBabel03272507313D

 32 35  0  0  0  0  0  0  0  0999 V2000
   38.0200   25.3930   35.8900 C   0  0  0  0  0  0  0  0  0  0  0  0
   38.3580   26.5790   36.4780 C   0  0  0  0  0  0  0  0  0  0  0  0
   38.0610   27.5960   35.5570 C   0  0  0  0  0  0  0  0  0  0  0  0
   37.5480   26.9370   34.4440 C   0  0  0  0  0  0  0  0  0  0  0  0
   37.5570   25.6740   34.7130 O   0  0  0  0  0  0  0  0  0  0  0  0
   38.7790   26.7680   37.4620 H   0  0  0  0  0  0  0  0  0  0  0  0
   38.2250   28.6480   35.7500 H   0  0  0  0  0  0  0  0  0  0  0  0
   38.1930   24.1180   36.5570 C   0  0  0  0  0  0  0  0  0  0  0  0
   37.2270   23.6320   37.1830 O   0  0  0  0  0  0  0  0  0  0  0  0
   39.4950   23.4860   36.4480 C   0  0  0  0  0  0  0  0  0  0  0  0
   39.8490   22.6320   37.5020 C   0  0  0  0  0  0  0  0  0  0  0  0
   41.0980   22.0040   37.4330 C   0  0  0  0  0  0  0  0  0  0  0  0
   41.8870   22.2660   36.3420 N   0  0  0  0  0  0  0  0  0  0  0  0
   41.5130   23.0910   35.3530 C   0  0  0  0  0  0  0  0  0  0  0  0
   40.3220   23.6950   35.4090 N   0  0  0  0  0  0  0  0  0  0  0  0
   39.2250   22.4350   38.3500 H   0  0  0  0  0  0  0  0  0  0  0  0
   41.4120   21.3360   38.2270 H   0  0  0  0  0  0  0  0  0  0  0  0
   42.2110   23.2260   34.5410 H   0  0  0  0  0  0  0  0  0  0  0  0
   37.1000   27.6210   33.2260 C   0  0  0  0  0  0  0  0  0  0  0  0
   35.9900   28.2190   33.1910 O   0  0  0  0  0  0  0  0  0  0  0  0
   39.2390   27.2820   32.1190 C   0  0  0  0  0  3  0  0  0  0  0  0
   37.9070   27.6410   32.0170 C   0  0  0  0  0  0  0  0  0  0  0  0
   37.4770   27.9840   30.7680 C   0  0  0  0  0  0  0  0  0  0  0  0
   36.4350   28.2700   30.6610 H   0  0  0  0  0  0  0  0  0  0  0  0
   38.2790   27.9870   29.6480 C   0  0  0  0  0  0  0  0  0  0  0  0
   38.1600   28.2580   28.3540 N   0  0  0  0  0  0  0  0  0  0  0  0
   39.3120   28.0900   27.6820 C   0  0  0  0  0  0  0  0  0  0  0  0
   39.4400   28.2580   26.6070 H   0  0  0  0  0  0  0  0  0  0  0  0
   40.2400   27.6850   28.5840 N   0  0  0  0  0  0  0  0  0  0  0  0
   39.6230   27.6200   29.7770 C   0  0  0  0  0  0  0  0  0  0  0  0
   40.0980   27.2650   31.0320 C   0  0  0  0  0  3  0  0  0  0  0  0
   37.2640   28.5720   27.9010 H   0  0  0  0  0  0  0  0  0  0  0  0
  1  2  2  0  0  0  0
  1  8  1  0  0  0  0
  2  6  1  0  0  0  0
  3  7  1  0  0  0  0
  3  2  1  0  0  0  0
  4  5  1  0  0  0  0
  4  3  2  0  0  0  0
  5  1  1  0  0  0  0
  8  9  2  0  0  0  0
 10  8  1  0  0  0  0
 10 11  1  0  0  0  0
 11 16  1  0  0  0  0
 12 11  2  0  0  0  0
 12 17  1  0  0  0  0
 13 12  1  0  0  0  0
 14 15  1  0  0  0  0
 14 13  2  0  0  0  0
 15 10  2  0  0  0  0
 18 14  1  0  0  0  0
 19  4  1  0  0  0  0
 20 19  2  0  0  0  0
 22 21  1  0  0  0  0
 22 19  1  0  0  0  0
 23 22  2  0  0  0  0
 24 23  1  0  0  0  0
 25 30  2  0  0  0  0
 25 23  1  0  0  0  0
 26 25  1  0  0  0  0
 27 26  1  0  0  0  0
 27 29  2  0  0  0  0
 28 27  1  0  0  0  0
 29 30  1  0  0  0  0
 30 31  1  0  0  0  0
 31 21  2  0  0  0  0
 32 26  1  0  0  0  0
M  END
>  <minimizedAffinity>
-5.68569899

$$$$

 OpenBabel03272507313D

 32 35  0  0  0  0  0  0  0  0999 V2000
   38.1430   25.3680   35.8520 C   0  0  0  0  0  0  0  0  0  0  0  0
   38.7190   26.6050   35.9360 C   0  0  0  0  0  0  0  0  0  0  0  0
   38.2810   27.3400   34.8230 C   0  0  0  0  0  0  0  0  0  0  0  0
   37.4460   26.4740   34.1240 C   0  0  0  0  0  0  0  0  0  0  0  0
   37.4190   25.3620   34.7790 O   0  0  0  0  0  0  0  0  0  0  0  0
   39.3940   27.0050   36.6890 H   0  0  0  0  0  0  0  0  0  0  0  0
   38.5770   28.3610   34.6240 H   0  0  0  0  0  0  0  0  0  0  0  0
   38.3740   24.3350   36.8420 C   0  0  0  0  0  0  0  0  0  0  0  0
   37.6530   24.3080   37.8620 O   0  0  0  0  0  0  0  0  0  0  0  0
   39.4440   23.3910   36.5760 C   0  0  0  0  0  0  0  0  0  0  0  0
   39.9970   22.7610   37.6990 C   0  0  0  0  0  0  0  0  0  0  0  0
   41.0320   21.8430   37.4810 C   0  0  0  0  0  0  0  0  0  0  0  0
   41.4320   21.6240   36.1880 N   0  0  0  0  0  0  0  0  0  0  0  0
   40.8780   22.2490   35.1380 C   0  0  0  0  0  0  0  0  0  0  0  0
   39.8900   23.1260   35.3350 N   0  0  0  0  0  0  0  0  0  0  0  0
   39.6760   22.9390   38.7050 H   0  0  0  0  0  0  0  0  0  0  0  0
   41.4870   21.3330   38.3230 H   0  0  0  0  0  0  0  0  0  0  0  0
   41.2700   22.0020   34.1630 H   0  0  0  0  0  0  0  0  0  0  0  0
   36.7590   26.8320   32.8780 C   0  0  0  0  0  0  0  0  0  0  0  0
   36.5400   25.9660   31.9890 O   0  0  0  0  0  0  0  0  0  0  0  0
   35.7410   28.8990   33.6600 C   0  0  0  0  0  3  0  0  0  0  0  0
   36.3050   28.1890   32.6160 C   0  0  0  0  0  0  0  0  0  0  0  0
   36.3800   28.8450   31.4220 C   0  0  0  0  0  0  0  0  0  0  0  0
   36.8180   28.3090   30.5860 H   0  0  0  0  0  0  0  0  0  0  0  0
   35.9370   30.1330   31.2190 C   0  0  0  0  0  0  0  0  0  0  0  0
   35.8750   31.0070   30.2200 N   0  0  0  0  0  0  0  0  0  0  0  0
   35.3200   32.1740   30.5880 C   0  0  0  0  0  0  0  0  0  0  0  0
   35.1700   33.0330   29.9240 H   0  0  0  0  0  0  0  0  0  0  0  0
   35.0010   32.0640   31.9010 N   0  0  0  0  0  0  0  0  0  0  0  0
   35.3710   30.8310   32.2920 C   0  0  0  0  0  0  0  0  0  0  0  0
   35.2770   30.1970   33.5220 C   0  0  0  0  0  3  0  0  0  0  0  0
   36.2190   30.8080   29.2470 H   0  0  0  0  0  0  0  0  0  0  0  0
  1  2  2  0  0  0  0
  1  8  1  0  0  0  0
  2  6  1  0  0  0  0
  3  2  1  0  0  0  0
  4  5  1  0  0  0  0
  4  3  2  0  0  0  0
  5  1  1  0  0  0  0
  7  3  1  0  0  0  0
  8  9  2  0  0  0  0
 10  8  1  0  0  0  0
 10 11  1  0  0  0  0
 11 16  1  0  0  0  0
 12 11  2  0  0  0  0
 12 17  1  0  0  0  0
 13 12  1  0  0  0  0
 14 15  1  0  0  0  0
 14 13  2  0  0  0  0
 15 10  2  0  0  0  0
 18 14  1  0  0  0  0
 19  4  1  0  0  0  0
 20 19  2  0  0  0  0
 22 19  1  0  0  0  0
 22 21  2  0  0  0  0
 23 22  1  0  0  0  0
 24 23  1  0  0  0  0
 25 23  2  0  0  0  0
 25 30  1  0  0  0  0
 26 27  1  0  0  0  0
 26 25  1  0  0  0  0
 27 29  2  0  0  0  0
 28 27  1  0  0  0  0
 29 30  1  0  0  0  0
 30 31  2  0  0  0  0
 31 21  1  0  0  0  0
 32 26  1  0  0  0  0
M  END
>  <minimizedAffinity>
-5.66156387

$$$$

 OpenBabel03272507313D

 32 35  0  0  0  0  0  0  0  0999 V2000
   34.6800   29.5060   33.0130 C   0  0  0  0  0  0  0  0  0  0  0  0
   35.1090   29.9600   31.7970 C   0  0  0  0  0  0  0  0  0  0  0  0
   36.3150   29.3000   31.5130 C   0  0  0  0  0  0  0  0  0  0  0  0
   36.5390   28.4690   32.6070 C   0  0  0  0  0  0  0  0  0  0  0  0
   35.5560   28.6460   33.4250 O   0  0  0  0  0  0  0  0  0  0  0  0
   34.6540   30.6870   31.1300 H   0  0  0  0  0  0  0  0  0  0  0  0
   36.8890   29.4600   30.6100 H   0  0  0  0  0  0  0  0  0  0  0  0
   33.4550   29.9760   33.6290 C   0  0  0  0  0  0  0  0  0  0  0  0
   32.3770   29.8180   33.0180 O   0  0  0  0  0  0  0  0  0  0  0  0
   33.5690   30.6060   34.9320 C   0  0  0  0  0  0  0  0  0  0  0  0
   34.7680   31.2870   35.1780 C   0  0  0  0  0  0  0  0  0  0  0  0
   34.9140   31.9070   36.4250 C   0  0  0  0  0  0  0  0  0  0  0  0
   33.8770   31.8060   37.3170 N   0  0  0  0  0  0  0  0  0  0  0  0
   32.7440   31.1430   37.0430 C   0  0  0  0  0  0  0  0  0  0  0  0
   32.5940   30.5480   35.8570 N   0  0  0  0  0  0  0  0  0  0  0  0
   35.5720   31.3600   34.4750 H   0  0  0  0  0  0  0  0  0  0  0  0
   35.8270   32.4460   36.6570 H   0  0  0  0  0  0  0  0  0  0  0  0
   31.9920   31.1250   37.8170 H   0  0  0  0  0  0  0  0  0  0  0  0
   37.7020   27.5840   32.7330 C   0  0  0  0  0  0  0  0  0  0  0  0
   38.5820   27.5390   31.8310 O   0  0  0  0  0  0  0  0  0  0  0  0
   38.1470   27.3300   35.1110 C   0  0  0  0  0  3  0  0  0  0  0  0
   37.8920   26.7280   33.8930 C   0  0  0  0  0  0  0  0  0  0  0  0
   37.8420   25.3640   33.9030 C   0  0  0  0  0  0  0  0  0  0  0  0
   37.6430   24.8660   32.9590 H   0  0  0  0  0  0  0  0  0  0  0  0
   38.0270   24.5920   35.0280 C   0  0  0  0  0  0  0  0  0  0  0  0
   38.0390   23.3020   35.3460 N   0  0  0  0  0  0  0  0  0  0  0  0
   38.2800   23.0930   36.6510 C   0  0  0  0  0  0  0  0  0  0  0  0
   38.3340   22.1080   37.1280 H   0  0  0  0  0  0  0  0  0  0  0  0
   38.4360   24.3120   37.2250 N   0  0  0  0  0  0  0  0  0  0  0  0
   38.2840   25.2260   36.2490 C   0  0  0  0  0  0  0  0  0  0  0  0
   38.3420   26.6110   36.2790 C   0  0  0  0  0  3  0  0  0  0  0  0
   37.8780   22.5280   34.6530 H   0  0  0  0  0  0  0  0  0  0  0  0
  1  5  1  0  0  0  0
  1  8  1  0  0  0  0
  2  1  2  0  0  0  0
  3  2  1  0  0  0  0
  3  4  2  0  0  0  0
  4 19  1  0  0  0  0
  4  5  1  0  0  0  0
  6  2  1  0  0  0  0
  7  3  1  0  0  0  0
  8 10  1  0  0  0  0
  9  8  2  0  0  0  0
 10 11  2  0  0  0  0
 10 15  1  0  0  0  0
 11 12  1  0  0  0  0
 12 17  1  0  0  0  0
 12 13  2  0  0  0  0
 14 13  1  0  0  0  0
 14 18  1  0  0  0  0
 15 14  2  0  0  0  0
 16 11  1  0  0  0  0
 19 22  1  0  0  0  0
 20 19  2  0  0  0  0
 21 31  1  0  0  0  0
 22 23  1  0  0  0  0
 22 21  2  0  0  0  0
 23 25  2  0  0  0  0
 24 23  1  0  0  0  0
 25 26  1  0  0  0  0
 25 30  1  0  0  0  0
 26 27  1  0  0  0  0
 27 28  1  0  0  0  0
 27 29  2  0  0  0  0
 30 31  2  0  0  0  0
 30 29  1  0  0  0  0
 32 26  1  0  0  0  0
M  END
>  <minimizedAffinity>
-5.63691902

$$$$

 OpenBabel03272507313D

 32 35  0  0  0  0  0  0  0  0999 V2000
   38.4990   25.0830   34.0650 C   0  0  0  0  0  0  0  0  0  0  0  0
   39.4940   25.9140   34.4990 C   0  0  0  0  0  0  0  0  0  0  0  0
   39.4370   27.0730   33.7090 C   0  0  0  0  0  0  0  0  0  0  0  0
   38.3820   26.8580   32.8280 C   0  0  0  0  0  0  0  0  0  0  0  0
   37.8950   25.6930   33.0960 O   0  0  0  0  0  0  0  0  0  0  0  0
   40.2210   25.7670   35.2940 H   0  0  0  0  0  0  0  0  0  0  0  0
   40.1090   27.9130   33.8260 H   0  0  0  0  0  0  0  0  0  0  0  0
   38.2600   23.7820   34.6580 C   0  0  0  0  0  0  0  0  0  0  0  0
   37.8930   22.8440   33.9190 O   0  0  0  0  0  0  0  0  0  0  0  0
   38.4680   23.6590   36.0890 C   0  0  0  0  0  0  0  0  0  0  0  0
   39.5920   22.9200   36.4820 C   0  0  0  0  0  0  0  0  0  0  0  0
   39.8250   22.7780   37.8550 C   0  0  0  0  0  0  0  0  0  0  0  0
   38.9400   23.3710   38.7190 N   0  0  0  0  0  0  0  0  0  0  0  0
   37.8730   24.0700   38.3040 C   0  0  0  0  0  0  0  0  0  0  0  0
   37.6420   24.2110   36.9960 N   0  0  0  0  0  0  0  0  0  0  0  0
   40.2770   22.4610   35.7980 H   0  0  0  0  0  0  0  0  0  0  0  0
   40.6840   22.2150   38.2030 H   0  0  0  0  0  0  0  0  0  0  0  0
   37.2420   24.4940   39.0690 H   0  0  0  0  0  0  0  0  0  0  0  0
   37.9610   27.8260   31.8090 C   0  0  0  0  0  0  0  0  0  0  0  0
   38.6080   27.9560   30.7340 O   0  0  0  0  0  0  0  0  0  0  0  0
   36.1380   28.6230   33.2080 C   0  0  0  0  0  3  0  0  0  0  0  0
   36.7920   28.6710   31.9910 C   0  0  0  0  0  0  0  0  0  0  0  0
   36.2640   29.5230   31.0650 C   0  0  0  0  0  0  0  0  0  0  0  0
   36.7580   29.5800   30.1000 H   0  0  0  0  0  0  0  0  0  0  0  0
   35.1520   30.3070   31.2810 C   0  0  0  0  0  0  0  0  0  0  0  0
   34.4290   31.1960   30.6100 N   0  0  0  0  0  0  0  0  0  0  0  0
   33.4010   31.6760   31.3300 C   0  0  0  0  0  0  0  0  0  0  0  0
   32.6780   32.4180   30.9720 H   0  0  0  0  0  0  0  0  0  0  0  0
   33.4510   31.0710   32.5430 N   0  0  0  0  0  0  0  0  0  0  0  0
   34.5080   30.2400   32.5220 C   0  0  0  0  0  0  0  0  0  0  0  0
   35.0160   29.3850   33.4890 C   0  0  0  0  0  3  0  0  0  0  0  0
   34.6350   31.4920   29.6220 H   0  0  0  0  0  0  0  0  0  0  0  0
  1  2  2  0  0  0  0
  1  8  1  0  0  0  0
  2  6  1  0  0  0  0
  3  7  1  0  0  0  0
  3  2  1  0  0  0  0
  4  5  1  0  0  0  0
  4  3  2  0  0  0  0
  5  1  1  0  0  0  0
  8 10  1  0  0  0  0
  9  8  2  0  0  0  0
 10 11  2  0  0  0  0
 10 15  1  0  0  0  0
 11 12  1  0  0  0  0
 12 17  1  0  0  0  0
 12 13  2  0  0  0  0
 14 13  1  0  0  0  0
 14 18  1  0  0  0  0
 15 14  2  0  0  0  0
 16 11  1  0  0  0  0
 19 22  1  0  0  0  0
 19  4  1  0  0  0  0
 20 19  2  0  0  0  0
 21 31  1  0  0  0  0
 22 21  2  0  0  0  0
 23 25  2  0  0  0  0
 23 22  1  0  0  0  0
 24 23  1  0  0  0  0
 25 30  1  0  0  0  0
 26 25  1  0  0  0  0
 26 27  1  0  0  0  0
 27 29  2  0  0  0  0
 28 27  1  0  0  0  0
 30 29  1  0  0  0  0
 30 31  2  0  0  0  0
 32 26  1  0  0  0  0
M  END
>  <minimizedAffinity>
-5.63377953

$$$$
