
 OpenBabel03272508563D

 43 47  0  0  1  0  0  0  0  0999 V2000
   39.0640   31.4480   43.4090 C   0  0  0  0  0  0  0  0  0  0  0  0
   40.0660   30.5310   43.5570 C   0  0  0  0  0  0  0  0  0  0  0  0
   40.8180   30.2170   42.4350 C   0  0  0  0  0  0  0  0  0  0  0  0
   40.5170   30.8350   41.2520 C   0  0  0  0  0  0  0  0  0  0  0  0
   39.4910   31.7740   41.1000 C   0  0  0  0  0  0  0  0  0  0  0  0
   38.7970   32.0380   42.2230 N   0  0  0  0  0  0  0  0  0  0  0  0
   40.3110   30.0360   44.4900 H   0  0  0  0  0  0  0  0  0  0  0  0
   41.6330   29.5060   42.4410 H   0  0  0  0  0  0  0  0  0  0  0  0
   41.0720   30.6310   40.3300 H   0  0  0  0  0  0  0  0  0  0  0  0
   38.2450   31.8080   44.5870 C   0  0  0  0  0  0  0  0  0  0  0  0
   37.0350   32.0730   44.4820 O   0  0  0  0  0  0  0  0  0  0  0  0
   38.9130   31.8410   45.8820 N   0  0  0  0  0  0  0  0  0  0  0  0
   39.9290   31.8260   45.9990 H   0  0  0  0  0  0  0  0  0  0  0  0
   38.4520   31.2070   48.2420 C   0  0  2  0  0  0  0  0  0  0  0  0
   38.7050   32.6730   48.2330 C   0  0  0  0  0  0  0  0  0  0  0  0
   38.0730   31.8970   47.0530 C   0  0  1  0  0  0  0  0  0  0  0  0
   39.3620   30.5740   48.2780 H   0  0  0  0  0  0  0  0  0  0  0  0
   38.0660   33.3520   48.8150 H   0  0  0  0  0  0  0  0  0  0  0  0
   39.7310   33.0150   48.1170 H   0  0  0  0  0  0  0  0  0  0  0  0
   36.9910   32.1790   46.9060 H   0  0  0  0  0  0  0  0  0  0  0  0
   35.1060   30.2240   49.5390 C   0  0  0  0  0  0  0  0  0  0  0  0
   35.4520   29.5440   50.7490 C   0  0  0  0  0  0  0  0  0  0  0  0
   36.8540   29.4490   51.0980 C   0  0  0  0  0  0  0  0  0  0  0  0
   37.8010   30.0040   50.2700 N   0  0  0  0  0  0  0  0  0  0  0  0
   37.3780   30.6320   49.1400 C   0  0  0  0  0  0  0  0  0  0  0  0
   36.0530   30.7630   48.7410 N   0  0  0  0  0  0  0  0  0  0  0  0
   34.0720   30.2950   49.2830 H   0  0  0  0  0  0  0  0  0  0  0  0
   34.7140   29.1210   51.3780 H   0  0  0  0  0  0  0  0  0  0  0  0
   37.1140   28.9370   52.0100 H   0  0  0  0  0  0  0  0  0  0  0  0
   39.2010   32.4120   39.8170 C   0  0  0  0  0  0  0  0  0  0  0  0
   38.7130   33.5670   39.8260 O   0  0  0  0  0  0  0  0  0  0  0  0
   38.7860   30.6020   38.1100 C   0  0  0  0  0  3  0  0  0  0  0  0
   39.4980   31.6620   38.5820 C   0  0  0  0  0  0  0  0  0  0  0  0
   40.5860   32.0470   37.8200 C   0  0  0  0  0  0  0  0  0  0  0  0
   41.1840   32.8980   38.1660 H   0  0  0  0  0  0  0  0  0  0  0  0
   40.9750   31.4340   36.6450 C   0  0  0  0  0  0  0  0  0  0  0  0
   42.0100   31.7020   35.8020 N   0  0  0  0  0  0  0  0  0  0  0  0
   41.8990   30.7830   34.8230 C   0  0  0  0  0  0  0  0  0  0  0  0
   42.6360   30.8010   34.0160 H   0  0  0  0  0  0  0  0  0  0  0  0
   40.8490   29.9830   35.0470 N   0  0  0  0  0  0  0  0  0  0  0  0
   40.2330   30.3640   36.1960 C   0  0  0  0  0  0  0  0  0  0  0  0
   39.1400   29.9570   36.9390 C   0  0  0  0  0  3  0  0  0  0  0  0
   42.7190   32.4710   35.9260 H   0  0  0  0  0  0  0  0  0  0  0  0
  1  2  1  0  0  0  0
  1 10  1  0  0  0  0
  2  7  1  0  0  0  0
  3  8  1  0  0  0  0
  3  2  2  0  0  0  0
  4  3  1  0  0  0  0
  5  4  2  0  0  0  0
  5  6  1  0  0  0  0
  6  1  2  0  0  0  0
  9  4  1  0  0  0  0
 10 12  1  0  0  0  0
 11 10  2  0  0  0  0
 12 13  1  0  0  0  0
 12 16  1  0  0  0  0
 14 17  1  6  0  0  0
 14 25  1  0  0  0  0
 15 14  1  0  0  0  0
 15 18  1  0  0  0  0
 16 20  1  6  0  0  0
 16 15  1  0  0  0  0
 16 14  1  0  0  0  0
 19 15  1  0  0  0  0
 21 22  1  0  0  0  0
 22 23  2  0  0  0  0
 22 28  1  0  0  0  0
 23 29  1  0  0  0  0
 24 23  1  0  0  0  0
 25 24  2  0  0  0  0
 26 25  1  0  0  0  0
 26 21  2  0  0  0  0
 27 21  1  0  0  0  0
 30 31  2  0  0  0  0
 30  5  1  0  0  0  0
 32 33  1  0  0  0  0
 33 30  1  0  0  0  0
 34 35  1  0  0  0  0
 34 33  2  0  0  0  0
 36 34  1  0  0  0  0
 37 43  1  0  0  0  0
 37 36  1  0  0  0  0
 38 40  2  0  0  0  0
 38 37  1  0  0  0  0
 39 38  1  0  0  0  0
 40 41  1  0  0  0  0
 41 36  2  0  0  0  0
 41 42  1  0  0  0  0
 42 32  2  0  0  0  0
M  END
>  <minimizedAffinity>
-4.99764252

>  <minimizedRMSD>
1.20806885

$$$$
