
 OpenBabel03272508593D

 43 47  0  0  1  0  0  0  0  0999 V2000
   36.1330   28.7100   33.4080 C   0  0  0  0  0  0  0  0  0  0  0  0
   36.3260   28.9860   32.0830 C   0  0  0  0  0  0  0  0  0  0  0  0
   35.3720   29.7640   31.4460 C   0  0  0  0  0  0  0  0  0  0  0  0
   34.2990   30.2090   32.1710 C   0  0  0  0  0  0  0  0  0  0  0  0
   34.1020   29.9270   33.5270 C   0  0  0  0  0  0  0  0  0  0  0  0
   35.0600   29.1680   34.0900 N   0  0  0  0  0  0  0  0  0  0  0  0
   37.1720   28.6380   31.5010 H   0  0  0  0  0  0  0  0  0  0  0  0
   35.4260   30.0420   30.4020 H   0  0  0  0  0  0  0  0  0  0  0  0
   33.5110   30.8270   31.7260 H   0  0  0  0  0  0  0  0  0  0  0  0
   37.1340   27.8850   34.1180 C   0  0  0  0  0  0  0  0  0  0  0  0
   37.3520   28.0300   35.3340 O   0  0  0  0  0  0  0  0  0  0  0  0
   37.8600   26.8910   33.3370 N   0  0  0  0  0  0  0  0  0  0  0  0
   37.8650   26.8640   32.3150 H   0  0  0  0  0  0  0  0  0  0  0  0
   37.9460   24.7580   34.6110 C   0  0  2  0  0  0  0  0  0  0  0  0
   38.6980   24.5340   33.3480 C   0  0  0  0  0  0  0  0  0  0  0  0
   38.6070   25.8990   34.0690 C   0  0  1  0  0  0  0  0  0  0  0  0
   36.8460   24.6340   34.5310 H   0  0  0  0  0  0  0  0  0  0  0  0
   39.6590   23.9990   33.3590 H   0  0  0  0  0  0  0  0  0  0  0  0
   38.1300   24.4130   32.4270 H   0  0  0  0  0  0  0  0  0  0  0  0
   39.6050   26.2070   34.4970 H   0  0  0  0  0  0  0  0  0  0  0  0
   38.1180   23.7530   38.1890 C   0  0  0  0  0  0  0  0  0  0  0  0
   39.3440   23.0170   38.2250 C   0  0  0  0  0  0  0  0  0  0  0  0
   40.0980   22.8920   36.9950 C   0  0  0  0  0  0  0  0  0  0  0  0
   39.6230   23.4740   35.8440 N   0  0  0  0  0  0  0  0  0  0  0  0
   38.4470   24.1550   35.9050 C   0  0  0  0  0  0  0  0  0  0  0  0
   37.6700   24.3170   37.0470 N   0  0  0  0  0  0  0  0  0  0  0  0
   37.5630   23.8450   39.0970 H   0  0  0  0  0  0  0  0  0  0  0  0
   39.6980   22.5740   39.1190 H   0  0  0  0  0  0  0  0  0  0  0  0
   41.0220   22.3380   37.0240 H   0  0  0  0  0  0  0  0  0  0  0  0
   32.9400   30.4200   34.2660 C   0  0  0  0  0  0  0  0  0  0  0  0
   32.6680   31.6420   34.1950 O   0  0  0  0  0  0  0  0  0  0  0  0
   31.3330   28.4960   34.5420 C   0  0  0  0  0  3  0  0  0  0  0  0
   32.1530   29.4540   35.0540 C   0  0  0  0  0  0  0  0  0  0  0  0
   32.2360   29.5050   36.4350 C   0  0  0  0  0  0  0  0  0  0  0  0
   32.8860   30.2640   36.8850 H   0  0  0  0  0  0  0  0  0  0  0  0
   31.5540   28.6620   37.2890 C   0  0  0  0  0  0  0  0  0  0  0  0
   31.5390   28.5980   38.6500 N   0  0  0  0  0  0  0  0  0  0  0  0
   30.6970   27.5850   38.9350 C   0  0  0  0  0  0  0  0  0  0  0  0
   30.5240   27.3410   39.9860 H   0  0  0  0  0  0  0  0  0  0  0  0
   30.2130   27.0470   37.8080 N   0  0  0  0  0  0  0  0  0  0  0  0
   30.7330   27.7050   36.7400 C   0  0  0  0  0  0  0  0  0  0  0  0
   30.6320   27.6310   35.3620 C   0  0  0  0  0  3  0  0  0  0  0  0
   32.0840   29.2230   39.3000 H   0  0  0  0  0  0  0  0  0  0  0  0
  1  6  1  0  0  0  0
  1 10  1  0  0  0  0
  2  1  2  0  0  0  0
  3  2  1  0  0  0  0
  3  4  2  0  0  0  0
  4  5  1  0  0  0  0
  5  6  2  0  0  0  0
  5 30  1  0  0  0  0
  7  2  1  0  0  0  0
  8  3  1  0  0  0  0
  9  4  1  0  0  0  0
 10 11  2  0  0  0  0
 12 16  1  0  0  0  0
 12 10  1  0  0  0  0
 13 12  1  0  0  0  0
 14 17  1  6  0  0  0
 14 25  1  0  0  0  0
 15 18  1  0  0  0  0
 15 16  1  0  0  0  0
 15 14  1  0  0  0  0
 16 20  1  1  0  0  0
 16 14  1  0  0  0  0
 19 15  1  0  0  0  0
 21 22  1  0  0  0  0
 21 27  1  0  0  0  0
 22 28  1  0  0  0  0
 23 29  1  0  0  0  0
 23 22  2  0  0  0  0
 24 25  2  0  0  0  0
 24 23  1  0  0  0  0
 25 26  1  0  0  0  0
 26 21  2  0  0  0  0
 30 33  1  0  0  0  0
 31 30  2  0  0  0  0
 32 33  2  0  0  0  0
 32 42  1  0  0  0  0
 33 34  1  0  0  0  0
 34 35  1  0  0  0  0
 34 36  2  0  0  0  0
 36 37  1  0  0  0  0
 37 38  1  0  0  0  0
 37 43  1  0  0  0  0
 38 39  1  0  0  0  0
 40 38  2  0  0  0  0
 41 36  1  0  0  0  0
 41 40  1  0  0  0  0
 42 41  2  0  0  0  0
M  END
>  <minimizedAffinity>
-6.36350298

$$$$

 OpenBabel03272508593D

 43 47  0  0  1  0  0  0  0  0999 V2000
   36.2180   23.3860   31.5150 C   0  0  0  0  0  0  0  0  0  0  0  0
   35.3690   22.3950   31.1100 C   0  0  0  0  0  0  0  0  0  0  0  0
   35.7600   21.0840   31.3360 C   0  0  0  0  0  0  0  0  0  0  0  0
   36.9640   20.8560   31.9460 C   0  0  0  0  0  0  0  0  0  0  0  0
   37.8330   21.8700   32.3600 C   0  0  0  0  0  0  0  0  0  0  0  0
   37.4000   23.1200   32.1140 N   0  0  0  0  0  0  0  0  0  0  0  0
   34.4140   22.5660   30.6260 H   0  0  0  0  0  0  0  0  0  0  0  0
   35.1650   20.2250   31.0560 H   0  0  0  0  0  0  0  0  0  0  0  0
   37.3300   19.8440   32.1520 H   0  0  0  0  0  0  0  0  0  0  0  0
   35.8300   24.7950   31.2920 C   0  0  0  0  0  0  0  0  0  0  0  0
   34.7800   25.0940   30.6950 O   0  0  0  0  0  0  0  0  0  0  0  0
   36.7260   25.8260   31.8000 N   0  0  0  0  0  0  0  0  0  0  0  0
   37.6820   25.6430   32.1160 H   0  0  0  0  0  0  0  0  0  0  0  0
   36.4560   27.9890   32.9940 C   0  0  2  0  0  0  0  0  0  0  0  0
   37.3200   28.2560   31.8140 C   0  0  0  0  0  0  0  0  0  0  0  0
   36.2170   27.1730   31.8490 C   0  0  1  0  0  0  0  0  0  0  0  0
   36.9850   27.5950   33.8860 H   0  0  0  0  0  0  0  0  0  0  0  0
   37.1580   29.1490   31.1950 H   0  0  0  0  0  0  0  0  0  0  0  0
   38.3550   27.9200   31.8510 H   0  0  0  0  0  0  0  0  0  0  0  0
   35.3620   27.4340   31.1610 H   0  0  0  0  0  0  0  0  0  0  0  0
   33.3220   29.9950   33.0480 C   0  0  0  0  0  0  0  0  0  0  0  0
   33.5200   30.8120   34.2060 C   0  0  0  0  0  0  0  0  0  0  0  0
   34.7540   30.6530   34.9460 C   0  0  0  0  0  0  0  0  0  0  0  0
   35.6890   29.7370   34.5240 N   0  0  0  0  0  0  0  0  0  0  0  0
   35.4140   29.0050   33.4110 C   0  0  0  0  0  0  0  0  0  0  0  0
   34.2540   29.1020   32.6500 N   0  0  0  0  0  0  0  0  0  0  0  0
   32.4120   30.1130   32.5020 H   0  0  0  0  0  0  0  0  0  0  0  0
   32.7930   31.5130   34.5200 H   0  0  0  0  0  0  0  0  0  0  0  0
   34.9020   31.2690   35.8170 H   0  0  0  0  0  0  0  0  0  0  0  0
   39.1130   21.5840   33.0080 C   0  0  0  0  0  0  0  0  0  0  0  0
   39.9750   20.9450   32.3610 O   0  0  0  0  0  0  0  0  0  0  0  0
   40.5170   22.4000   34.9390 C   0  0  0  0  0  3  0  0  0  0  0  0
   39.3190   22.0640   34.3870 C   0  0  0  0  0  0  0  0  0  0  0  0
   38.2160   22.1920   35.2130 C   0  0  0  0  0  0  0  0  0  0  0  0
   37.2320   21.9310   34.8060 H   0  0  0  0  0  0  0  0  0  0  0  0
   38.2670   22.6290   36.5220 C   0  0  0  0  0  0  0  0  0  0  0  0
   37.2760   22.8010   37.4410 N   0  0  0  0  0  0  0  0  0  0  0  0
   37.9080   23.2450   38.5450 C   0  0  0  0  0  0  0  0  0  0  0  0
   37.3060   23.4590   39.4320 H   0  0  0  0  0  0  0  0  0  0  0  0
   39.2250   23.3430   38.3240 N   0  0  0  0  0  0  0  0  0  0  0  0
   39.4940   22.9600   37.0490 C   0  0  0  0  0  0  0  0  0  0  0  0
   40.6140   22.8410   36.2450 C   0  0  0  0  0  3  0  0  0  0  0  0
   36.2510   22.6170   37.2810 H   0  0  0  0  0  0  0  0  0  0  0  0
  1  6  1  0  0  0  0
  2  3  1  0  0  0  0
  2  1  2  0  0  0  0
  3  4  2  0  0  0  0
  4  9  1  0  0  0  0
  4  5  1  0  0  0  0
  5 30  1  0  0  0  0
  6  5  2  0  0  0  0
  7  2  1  0  0  0  0
  8  3  1  0  0  0  0
 10  1  1  0  0  0  0
 10 12  1  0  0  0  0
 11 10  2  0  0  0  0
 12 16  1  0  0  0  0
 12 13  1  0  0  0  0
 14 25  1  0  0  0  0
 14 17  1  1  0  0  0
 15 16  1  0  0  0  0
 15 19  1  0  0  0  0
 15 14  1  0  0  0  0
 16 20  1  6  0  0  0
 16 14  1  0  0  0  0
 18 15  1  0  0  0  0
 21 22  1  0  0  0  0
 22 28  1  0  0  0  0
 22 23  2  0  0  0  0
 23 29  1  0  0  0  0
 24 23  1  0  0  0  0
 25 24  2  0  0  0  0
 26 21  2  0  0  0  0
 26 25  1  0  0  0  0
 27 21  1  0  0  0  0
 30 33  1  0  0  0  0
 31 30  2  0  0  0  0
 32 42  1  0  0  0  0
 33 32  2  0  0  0  0
 33 34  1  0  0  0  0
 34 36  2  0  0  0  0
 35 34  1  0  0  0  0
 36 41  1  0  0  0  0
 36 37  1  0  0  0  0
 37 38  1  0  0  0  0
 38 39  1  0  0  0  0
 40 38  2  0  0  0  0
 41 40  1  0  0  0  0
 42 41  2  0  0  0  0
 43 37  1  0  0  0  0
M  END
>  <minimizedAffinity>
-6.3548193

$$$$

 OpenBabel03272508593D

 43 47  0  0  1  0  0  0  0  0999 V2000
   36.3850   27.9150   32.6610 C   0  0  0  0  0  0  0  0  0  0  0  0
   36.1710   28.4610   31.4270 C   0  0  0  0  0  0  0  0  0  0  0  0
   35.6300   29.7360   31.3750 C   0  0  0  0  0  0  0  0  0  0  0  0
   35.3400   30.3720   32.5520 C   0  0  0  0  0  0  0  0  0  0  0  0
   35.5590   29.8140   33.8160 C   0  0  0  0  0  0  0  0  0  0  0  0
   36.0860   28.5750   33.8010 N   0  0  0  0  0  0  0  0  0  0  0  0
   36.3970   27.9640   30.4900 H   0  0  0  0  0  0  0  0  0  0  0  0
   35.4210   30.2600   30.4530 H   0  0  0  0  0  0  0  0  0  0  0  0
   34.9110   31.3800   32.5800 H   0  0  0  0  0  0  0  0  0  0  0  0
   36.9640   26.5570   32.7510 C   0  0  0  0  0  0  0  0  0  0  0  0
   37.7240   26.2340   33.6810 O   0  0  0  0  0  0  0  0  0  0  0  0
   36.6110   25.6060   31.7050 N   0  0  0  0  0  0  0  0  0  0  0  0
   36.1580   25.8690   30.8260 H   0  0  0  0  0  0  0  0  0  0  0  0
   36.3030   23.1990   31.1670 C   0  0  2  0  0  0  0  0  0  0  0  0
   37.6960   23.5490   30.7810 C   0  0  0  0  0  0  0  0  0  0  0  0
   36.9260   24.2200   31.9430 C   0  0  1  0  0  0  0  0  0  0  0  0
   35.5300   23.4380   30.4090 H   0  0  0  0  0  0  0  0  0  0  0  0
   38.5280   22.8750   31.0250 H   0  0  0  0  0  0  0  0  0  0  0  0
   37.8440   24.1330   29.8740 H   0  0  0  0  0  0  0  0  0  0  0  0
   37.3730   23.9510   32.9430 H   0  0  0  0  0  0  0  0  0  0  0  0
   35.7250   20.5810   33.7470 C   0  0  0  0  0  0  0  0  0  0  0  0
   35.4370   19.4360   32.9400 C   0  0  0  0  0  0  0  0  0  0  0  0
   35.4590   19.5960   31.5010 C   0  0  0  0  0  0  0  0  0  0  0  0
   35.7500   20.8250   30.9570 N   0  0  0  0  0  0  0  0  0  0  0  0
   36.0120   21.8570   31.8040 C   0  0  0  0  0  0  0  0  0  0  0  0
   36.0100   21.7780   33.1920 N   0  0  0  0  0  0  0  0  0  0  0  0
   35.7100   20.4610   34.8090 H   0  0  0  0  0  0  0  0  0  0  0  0
   35.2140   18.4960   33.3710 H   0  0  0  0  0  0  0  0  0  0  0  0
   35.2420   18.7330   30.8940 H   0  0  0  0  0  0  0  0  0  0  0  0
   35.2350   30.5270   35.0510 C   0  0  0  0  0  0  0  0  0  0  0  0
   36.1570   31.1350   35.6430 O   0  0  0  0  0  0  0  0  0  0  0  0
   33.2980   31.3360   36.4490 C   0  0  0  0  0  3  0  0  0  0  0  0
   33.8410   30.4920   35.5310 C   0  0  0  0  0  0  0  0  0  0  0  0
   32.9910   29.5250   35.0210 C   0  0  0  0  0  0  0  0  0  0  0  0
   33.3910   28.8250   34.2790 H   0  0  0  0  0  0  0  0  0  0  0  0
   31.6660   29.3800   35.3830 C   0  0  0  0  0  0  0  0  0  0  0  0
   30.7250   28.4880   34.9690 N   0  0  0  0  0  0  0  0  0  0  0  0
   29.6150   28.8190   35.6580 C   0  0  0  0  0  0  0  0  0  0  0  0
   28.7100   28.2300   35.4880 H   0  0  0  0  0  0  0  0  0  0  0  0
   29.8550   29.8650   36.4590 N   0  0  0  0  0  0  0  0  0  0  0  0
   31.1480   30.2510   36.3140 C   0  0  0  0  0  0  0  0  0  0  0  0
   31.9760   31.2270   36.8400 C   0  0  0  0  0  3  0  0  0  0  0  0
   30.8740   27.7210   34.2620 H   0  0  0  0  0  0  0  0  0  0  0  0
  1 10  1  0  0  0  0
  1  6  1  0  0  0  0
  2  1  2  0  0  0  0
  3  2  1  0  0  0  0
  3  4  2  0  0  0  0
  4  9  1  0  0  0  0
  4  5  1  0  0  0  0
  5 30  1  0  0  0  0
  6  5  2  0  0  0  0
  7  2  1  0  0  0  0
  8  3  1  0  0  0  0
 10 11  2  0  0  0  0
 12 16  1  0  0  0  0
 12 10  1  0  0  0  0
 13 12  1  0  0  0  0
 14 17  1  6  0  0  0
 14 25  1  0  0  0  0
 14 16  1  0  0  0  0
 15 18  1  0  0  0  0
 15 14  1  0  0  0  0
 15 16  1  0  0  0  0
 16 20  1  1  0  0  0
 19 15  1  0  0  0  0
 21 27  1  0  0  0  0
 22 28  1  0  0  0  0
 22 21  2  0  0  0  0
 23 22  1  0  0  0  0
 24 23  2  0  0  0  0
 24 25  1  0  0  0  0
 25 26  2  0  0  0  0
 26 21  1  0  0  0  0
 29 23  1  0  0  0  0
 30 33  1  0  0  0  0
 30 31  2  0  0  0  0
 32 42  1  0  0  0  0
 33 32  2  0  0  0  0
 34 36  2  0  0  0  0
 34 33  1  0  0  0  0
 35 34  1  0  0  0  0
 36 41  1  0  0  0  0
 37 36  1  0  0  0  0
 37 38  1  0  0  0  0
 38 40  2  0  0  0  0
 39 38  1  0  0  0  0
 41 40  1  0  0  0  0
 41 42  2  0  0  0  0
 43 37  1  0  0  0  0
M  END
>  <minimizedAffinity>
-6.24449015

$$$$

 OpenBabel03272508593D

 43 47  0  0  1  0  0  0  0  0999 V2000
   35.8710   28.8260   32.3690 C   0  0  0  0  0  0  0  0  0  0  0  0
   36.4290   29.6200   31.4070 C   0  0  0  0  0  0  0  0  0  0  0  0
   35.6680   30.6740   30.9260 C   0  0  0  0  0  0  0  0  0  0  0  0
   34.4110   30.8590   31.4340 C   0  0  0  0  0  0  0  0  0  0  0  0
   33.8390   30.0470   32.4200 C   0  0  0  0  0  0  0  0  0  0  0  0
   34.6260   29.0420   32.8480 N   0  0  0  0  0  0  0  0  0  0  0  0
   37.4230   29.4800   30.9980 H   0  0  0  0  0  0  0  0  0  0  0  0
   36.0110   31.3620   30.1650 H   0  0  0  0  0  0  0  0  0  0  0  0
   33.7590   31.6720   31.0960 H   0  0  0  0  0  0  0  0  0  0  0  0
   36.6580   27.6960   32.9070 C   0  0  0  0  0  0  0  0  0  0  0  0
   37.1530   26.8330   32.1600 O   0  0  0  0  0  0  0  0  0  0  0  0
   36.8340   27.6290   34.3530 N   0  0  0  0  0  0  0  0  0  0  0  0
   36.2940   28.1880   35.0180 H   0  0  0  0  0  0  0  0  0  0  0  0
   39.1710   27.1570   35.0560 C   0  0  2  0  0  0  0  0  0  0  0  0
   38.3280   27.0550   36.2760 C   0  0  0  0  0  0  0  0  0  0  0  0
   37.8310   26.7150   34.8510 C   0  0  1  0  0  0  0  0  0  0  0  0
   39.4890   28.1860   34.7880 H   0  0  0  0  0  0  0  0  0  0  0  0
   38.4760   26.2320   36.9890 H   0  0  0  0  0  0  0  0  0  0  0  0
   37.9660   27.9770   36.7270 H   0  0  0  0  0  0  0  0  0  0  0  0
   37.6310   25.6110   34.7370 H   0  0  0  0  0  0  0  0  0  0  0  0
   42.5390   25.8160   34.2170 C   0  0  0  0  0  0  0  0  0  0  0  0
   42.3800   24.4250   34.5150 C   0  0  0  0  0  0  0  0  0  0  0  0
   41.0910   23.9770   34.9970 C   0  0  0  0  0  0  0  0  0  0  0  0
   40.0690   24.8840   35.1530 N   0  0  0  0  0  0  0  0  0  0  0  0
   40.3130   26.1860   34.8450 C   0  0  0  0  0  0  0  0  0  0  0  0
   41.5220   26.6890   34.3780 N   0  0  0  0  0  0  0  0  0  0  0  0
   43.4910   26.1460   33.8610 H   0  0  0  0  0  0  0  0  0  0  0  0
   43.1750   23.7380   34.3900 H   0  0  0  0  0  0  0  0  0  0  0  0
   40.9720   22.9300   35.2200 H   0  0  0  0  0  0  0  0  0  0  0  0
   32.4910   30.2790   32.9370 C   0  0  0  0  0  0  0  0  0  0  0  0
   31.6470   30.8070   32.1760 O   0  0  0  0  0  0  0  0  0  0  0  0
   32.4350   30.6310   35.4350 C   0  0  0  0  0  3  0  0  0  0  0  0
   32.1990   29.8770   34.3260 C   0  0  0  0  0  0  0  0  0  0  0  0
   31.6380   28.6310   34.5490 C   0  0  0  0  0  0  0  0  0  0  0  0
   31.4340   27.9940   33.6810 H   0  0  0  0  0  0  0  0  0  0  0  0
   31.3160   28.1330   35.7960 C   0  0  0  0  0  0  0  0  0  0  0  0
   30.7670   26.9410   36.1610 N   0  0  0  0  0  0  0  0  0  0  0  0
   30.6810   27.0020   37.5040 C   0  0  0  0  0  0  0  0  0  0  0  0
   30.2610   26.1420   38.0320 H   0  0  0  0  0  0  0  0  0  0  0  0
   31.1530   28.1730   37.9510 N   0  0  0  0  0  0  0  0  0  0  0  0
   31.5670   28.9200   36.8960 C   0  0  0  0  0  0  0  0  0  0  0  0
   32.1270   30.1700   36.7010 C   0  0  0  0  0  3  0  0  0  0  0  0
   30.4840   26.1670   35.5030 H   0  0  0  0  0  0  0  0  0  0  0  0
  1  6  1  0  0  0  0
  1 10  1  0  0  0  0
  2  1  2  0  0  0  0
  3  2  1  0  0  0  0
  3  4  2  0  0  0  0
  4  5  1  0  0  0  0
  5  6  2  0  0  0  0
  5 30  1  0  0  0  0
  7  2  1  0  0  0  0
  8  3  1  0  0  0  0
  9  4  1  0  0  0  0
 10 12  1  0  0  0  0
 11 10  2  0  0  0  0
 12 16  1  0  0  0  0
 12 13  1  0  0  0  0
 14 17  1  6  0  0  0
 14 15  1  0  0  0  0
 15 19  1  0  0  0  0
 15 18  1  0  0  0  0
 16 20  1  6  0  0  0
 16 14  1  0  0  0  0
 16 15  1  0  0  0  0
 21 26  2  0  0  0  0
 21 22  1  0  0  0  0
 22 23  2  0  0  0  0
 23 24  1  0  0  0  0
 23 29  1  0  0  0  0
 25 14  1  0  0  0  0
 25 24  2  0  0  0  0
 26 25  1  0  0  0  0
 27 21  1  0  0  0  0
 28 22  1  0  0  0  0
 30 33  1  0  0  0  0
 31 30  2  0  0  0  0
 32 42  1  0  0  0  0
 33 34  1  0  0  0  0
 33 32  2  0  0  0  0
 34 36  2  0  0  0  0
 35 34  1  0  0  0  0
 36 37  1  0  0  0  0
 36 41  1  0  0  0  0
 37 38  1  0  0  0  0
 38 40  2  0  0  0  0
 38 39  1  0  0  0  0
 41 40  1  0  0  0  0
 42 41  2  0  0  0  0
 43 37  1  0  0  0  0
M  END
>  <minimizedAffinity>
-6.23940325

$$$$

 OpenBabel03272508593D

 43 47  0  0  1  0  0  0  0  0999 V2000
   35.7220   28.6250   32.0460 C   0  0  0  0  0  0  0  0  0  0  0  0
   36.3630   29.5020   31.2170 C   0  0  0  0  0  0  0  0  0  0  0  0
   35.7110   30.6870   30.9110 C   0  0  0  0  0  0  0  0  0  0  0  0
   34.4730   30.9110   31.4500 C   0  0  0  0  0  0  0  0  0  0  0  0
   33.8170   30.0130   32.2990 C   0  0  0  0  0  0  0  0  0  0  0  0
   34.4980   28.8820   32.5590 N   0  0  0  0  0  0  0  0  0  0  0  0
   37.3430   29.3320   30.7860 H   0  0  0  0  0  0  0  0  0  0  0  0
   36.1270   31.4490   30.2670 H   0  0  0  0  0  0  0  0  0  0  0  0
   33.9060   31.8260   31.2480 H   0  0  0  0  0  0  0  0  0  0  0  0
   36.3910   27.3530   32.3950 C   0  0  0  0  0  0  0  0  0  0  0  0
   36.7820   27.1190   33.5520 O   0  0  0  0  0  0  0  0  0  0  0  0
   36.5750   26.3770   31.3270 N   0  0  0  0  0  0  0  0  0  0  0  0
   36.4550   26.5910   30.3340 H   0  0  0  0  0  0  0  0  0  0  0  0
   36.4050   23.9150   31.0310 C   0  0  2  0  0  0  0  0  0  0  0  0
   37.7920   24.2970   30.6530 C   0  0  0  0  0  0  0  0  0  0  0  0
   36.9500   25.0410   31.7170 C   0  0  1  0  0  0  0  0  0  0  0  0
   35.6490   24.0360   30.2290 H   0  0  0  0  0  0  0  0  0  0  0  0
   38.6470   23.6960   30.9900 H   0  0  0  0  0  0  0  0  0  0  0  0
   37.9440   24.7930   29.6960 H   0  0  0  0  0  0  0  0  0  0  0  0
   37.3730   24.8980   32.7520 H   0  0  0  0  0  0  0  0  0  0  0  0
   35.0530   20.5720   31.9450 C   0  0  0  0  0  0  0  0  0  0  0  0
   35.7590   20.2940   33.1580 C   0  0  0  0  0  0  0  0  0  0  0  0
   36.6940   21.2880   33.6420 C   0  0  0  0  0  0  0  0  0  0  0  0
   36.8750   22.4540   32.9360 N   0  0  0  0  0  0  0  0  0  0  0  0
   36.1580   22.6310   31.7930 C   0  0  0  0  0  0  0  0  0  0  0  0
   35.2450   21.7230   31.2680 N   0  0  0  0  0  0  0  0  0  0  0  0
   34.3630   19.8380   31.5890 H   0  0  0  0  0  0  0  0  0  0  0  0
   35.6110   19.3930   33.6920 H   0  0  0  0  0  0  0  0  0  0  0  0
   37.2250   21.0790   34.5560 H   0  0  0  0  0  0  0  0  0  0  0  0
   32.4920   30.2900   32.8530 C   0  0  0  0  0  0  0  0  0  0  0  0
   31.6470   30.8520   32.1180 O   0  0  0  0  0  0  0  0  0  0  0  0
   32.5040   30.6350   35.3520 C   0  0  0  0  0  3  0  0  0  0  0  0
   32.2230   29.8910   34.2470 C   0  0  0  0  0  0  0  0  0  0  0  0
   31.6360   28.6590   34.4800 C   0  0  0  0  0  0  0  0  0  0  0  0
   31.3950   28.0300   33.6160 H   0  0  0  0  0  0  0  0  0  0  0  0
   31.3310   28.1640   35.7330 C   0  0  0  0  0  0  0  0  0  0  0  0
   30.7610   26.9860   36.1080 N   0  0  0  0  0  0  0  0  0  0  0  0
   30.7080   27.0440   37.4530 C   0  0  0  0  0  0  0  0  0  0  0  0
   30.2800   26.1930   37.9880 H   0  0  0  0  0  0  0  0  0  0  0  0
   31.2210   28.2010   37.8920 N   0  0  0  0  0  0  0  0  0  0  0  0
   31.6280   28.9410   36.8290 C   0  0  0  0  0  0  0  0  0  0  0  0
   32.2150   30.1770   36.6240 C   0  0  0  0  0  3  0  0  0  0  0  0
   30.4430   26.2220   35.4550 H   0  0  0  0  0  0  0  0  0  0  0  0
  1 10  1  0  0  0  0
  1  6  1  0  0  0  0
  2  1  2  0  0  0  0
  3  2  1  0  0  0  0
  3  4  2  0  0  0  0
  4  5  1  0  0  0  0
  5  6  2  0  0  0  0
  5 30  1  0  0  0  0
  7  2  1  0  0  0  0
  8  3  1  0  0  0  0
  9  4  1  0  0  0  0
 10 11  2  0  0  0  0
 12 16  1  0  0  0  0
 12 10  1  0  0  0  0
 13 12  1  0  0  0  0
 14 17  1  6  0  0  0
 14 16  1  0  0  0  0
 14 25  1  0  0  0  0
 15 18  1  0  0  0  0
 15 14  1  0  0  0  0
 15 16  1  0  0  0  0
 16 20  1  1  0  0  0
 19 15  1  0  0  0  0
 21 22  1  0  0  0  0
 22 23  2  0  0  0  0
 22 28  1  0  0  0  0
 23 29  1  0  0  0  0
 24 23  1  0  0  0  0
 25 24  2  0  0  0  0
 26 25  1  0  0  0  0
 26 21  2  0  0  0  0
 27 21  1  0  0  0  0
 30 33  1  0  0  0  0
 31 30  2  0  0  0  0
 32 42  1  0  0  0  0
 33 34  1  0  0  0  0
 33 32  2  0  0  0  0
 34 36  2  0  0  0  0
 35 34  1  0  0  0  0
 36 37  1  0  0  0  0
 36 41  1  0  0  0  0
 37 38  1  0  0  0  0
 38 40  2  0  0  0  0
 38 39  1  0  0  0  0
 41 40  1  0  0  0  0
 42 41  2  0  0  0  0
 43 37  1  0  0  0  0
M  END
>  <minimizedAffinity>
-6.2237525

$$$$

 OpenBabel03272508593D

 43 47  0  0  1  0  0  0  0  0999 V2000
   37.2360   27.6690   31.7470 C   0  0  0  0  0  0  0  0  0  0  0  0
   37.5750   28.3930   30.6390 C   0  0  0  0  0  0  0  0  0  0  0  0
   36.8080   29.5090   30.3440 C   0  0  0  0  0  0  0  0  0  0  0  0
   35.7620   29.8210   31.1690 C   0  0  0  0  0  0  0  0  0  0  0  0
   35.4140   29.0800   32.3030 C   0  0  0  0  0  0  0  0  0  0  0  0
   36.1950   28.0090   32.5380 N   0  0  0  0  0  0  0  0  0  0  0  0
   38.4020   28.1530   29.9800 H   0  0  0  0  0  0  0  0  0  0  0  0
   36.9890   30.1510   29.4930 H   0  0  0  0  0  0  0  0  0  0  0  0
   35.1170   30.6890   30.9910 H   0  0  0  0  0  0  0  0  0  0  0  0
   38.0360   26.4740   32.0930 C   0  0  0  0  0  0  0  0  0  0  0  0
   39.1710   26.2910   31.6180 O   0  0  0  0  0  0  0  0  0  0  0  0
   37.4440   25.5140   33.0150 N   0  0  0  0  0  0  0  0  0  0  0  0
   36.4550   25.5120   33.2770 H   0  0  0  0  0  0  0  0  0  0  0  0
   37.8830   23.7150   34.6740 C   0  0  2  0  0  0  0  0  0  0  0  0
   37.8460   23.0650   33.3370 C   0  0  0  0  0  0  0  0  0  0  0  0
   38.3200   24.5180   33.5790 C   0  0  1  0  0  0  0  0  0  0  0  0
   36.8930   23.8720   35.1480 H   0  0  0  0  0  0  0  0  0  0  0  0
   38.5950   22.3090   33.0630 H   0  0  0  0  0  0  0  0  0  0  0  0
   36.8770   22.9260   32.8610 H   0  0  0  0  0  0  0  0  0  0  0  0
   39.4260   24.6280   33.3890 H   0  0  0  0  0  0  0  0  0  0  0  0
   39.4780   23.0090   37.9600 C   0  0  0  0  0  0  0  0  0  0  0  0
   40.7000   22.3820   37.5610 C   0  0  0  0  0  0  0  0  0  0  0  0
   40.9520   22.2240   36.1440 C   0  0  0  0  0  0  0  0  0  0  0  0
   40.0240   22.6740   35.2340 N   0  0  0  0  0  0  0  0  0  0  0  0
   38.8900   23.2580   35.7060 C   0  0  0  0  0  0  0  0  0  0  0  0
   38.5810   23.4430   37.0500 N   0  0  0  0  0  0  0  0  0  0  0  0
   39.2930   23.1250   39.0060 H   0  0  0  0  0  0  0  0  0  0  0  0
   41.4060   22.0410   38.2720 H   0  0  0  0  0  0  0  0  0  0  0  0
   41.8730   21.7530   35.8450 H   0  0  0  0  0  0  0  0  0  0  0  0
   34.2870   29.4470   33.1600 C   0  0  0  0  0  0  0  0  0  0  0  0
   33.1590   28.9700   32.8910 O   0  0  0  0  0  0  0  0  0  0  0  0
   35.7480   30.5790   34.8760 C   0  0  0  0  0  3  0  0  0  0  0  0
   34.5390   30.3570   34.2920 C   0  0  0  0  0  0  0  0  0  0  0  0
   33.4710   31.0570   34.8260 C   0  0  0  0  0  0  0  0  0  0  0  0
   32.4800   30.9060   34.3840 H   0  0  0  0  0  0  0  0  0  0  0  0
   33.5670   31.9400   35.8840 C   0  0  0  0  0  0  0  0  0  0  0  0
   32.6140   32.6880   36.5060 N   0  0  0  0  0  0  0  0  0  0  0  0
   33.2800   33.3580   37.4680 C   0  0  0  0  0  0  0  0  0  0  0  0
   32.7120   34.0360   38.1090 H   0  0  0  0  0  0  0  0  0  0  0  0
   34.5810   33.0400   37.4450 N   0  0  0  0  0  0  0  0  0  0  0  0
   34.8040   32.1410   36.4520 C   0  0  0  0  0  0  0  0  0  0  0  0
   35.8880   31.4540   35.9370 C   0  0  0  0  0  3  0  0  0  0  0  0
   31.5910   32.7110   36.2570 H   0  0  0  0  0  0  0  0  0  0  0  0
  1 10  1  0  0  0  0
  1  6  1  0  0  0  0
  2  1  2  0  0  0  0
  3  2  1  0  0  0  0
  3  4  2  0  0  0  0
  4  5  1  0  0  0  0
  5  6  2  0  0  0  0
  5 30  1  0  0  0  0
  7  2  1  0  0  0  0
  8  3  1  0  0  0  0
  9  4  1  0  0  0  0
 10 12  1  0  0  0  0
 11 10  2  0  0  0  0
 12 13  1  0  0  0  0
 12 16  1  0  0  0  0
 14 17  1  1  0  0  0
 14 25  1  0  0  0  0
 15 16  1  0  0  0  0
 15 14  1  0  0  0  0
 16 20  1  6  0  0  0
 16 14  1  0  0  0  0
 18 15  1  0  0  0  0
 19 15  1  0  0  0  0
 21 27  1  0  0  0  0
 22 21  1  0  0  0  0
 22 28  1  0  0  0  0
 23 22  2  0  0  0  0
 24 25  2  0  0  0  0
 24 23  1  0  0  0  0
 25 26  1  0  0  0  0
 26 21  2  0  0  0  0
 29 23  1  0  0  0  0
 30 33  1  0  0  0  0
 31 30  2  0  0  0  0
 32 42  1  0  0  0  0
 33 34  1  0  0  0  0
 33 32  2  0  0  0  0
 34 36  2  0  0  0  0
 35 34  1  0  0  0  0
 36 41  1  0  0  0  0
 36 37  1  0  0  0  0
 37 38  1  0  0  0  0
 38 39  1  0  0  0  0
 40 38  2  0  0  0  0
 41 40  1  0  0  0  0
 42 41  2  0  0  0  0
 43 37  1  0  0  0  0
M  END
>  <minimizedAffinity>
-6.16439533

$$$$

 OpenBabel03272508593D

 43 47  0  0  1  0  0  0  0  0999 V2000
   36.9300   25.7480   32.7820 C   0  0  0  0  0  0  0  0  0  0  0  0
   37.5840   25.4430   33.9420 C   0  0  0  0  0  0  0  0  0  0  0  0
   37.7210   26.4500   34.8840 C   0  0  0  0  0  0  0  0  0  0  0  0
   37.2010   27.6840   34.6040 C   0  0  0  0  0  0  0  0  0  0  0  0
   36.5310   27.9970   33.4160 C   0  0  0  0  0  0  0  0  0  0  0  0
   36.4290   26.9800   32.5410 N   0  0  0  0  0  0  0  0  0  0  0  0
   38.0000   24.4680   34.1730 H   0  0  0  0  0  0  0  0  0  0  0  0
   38.2200   26.3170   35.8350 H   0  0  0  0  0  0  0  0  0  0  0  0
   37.2760   28.5220   35.3050 H   0  0  0  0  0  0  0  0  0  0  0  0
   36.7630   24.6950   31.7570 C   0  0  0  0  0  0  0  0  0  0  0  0
   37.4680   24.6650   30.7330 O   0  0  0  0  0  0  0  0  0  0  0  0
   35.7360   23.6870   31.9930 N   0  0  0  0  0  0  0  0  0  0  0  0
   35.0070   23.7740   32.7050 H   0  0  0  0  0  0  0  0  0  0  0  0
   36.5890   21.4000   31.5210 C   0  0  2  0  0  0  0  0  0  0  0  0
   35.1410   21.2630   31.8270 C   0  0  0  0  0  0  0  0  0  0  0  0
   35.7680   22.5100   31.1620 C   0  0  1  0  0  0  0  0  0  0  0  0
   37.2560   21.4360   32.4070 H   0  0  0  0  0  0  0  0  0  0  0  0
   34.5010   20.6100   31.2170 H   0  0  0  0  0  0  0  0  0  0  0  0
   34.8250   21.3520   32.8650 H   0  0  0  0  0  0  0  0  0  0  0  0
   35.4340   22.6180   30.0900 H   0  0  0  0  0  0  0  0  0  0  0  0
   39.0470   20.1110   29.0430 C   0  0  0  0  0  0  0  0  0  0  0  0
   38.3470   18.9900   28.4960 C   0  0  0  0  0  0  0  0  0  0  0  0
   37.0180   18.7080   28.9980 C   0  0  0  0  0  0  0  0  0  0  0  0
   36.4740   19.5120   29.9720 N   0  0  0  0  0  0  0  0  0  0  0  0
   37.2130   20.5560   30.4320 C   0  0  0  0  0  0  0  0  0  0  0  0
   38.4930   20.8880   29.9980 N   0  0  0  0  0  0  0  0  0  0  0  0
   40.0270   20.3190   28.6720 H   0  0  0  0  0  0  0  0  0  0  0  0
   38.7780   18.3800   27.7470 H   0  0  0  0  0  0  0  0  0  0  0  0
   36.4920   17.8640   28.5850 H   0  0  0  0  0  0  0  0  0  0  0  0
   35.9890   29.3300   33.1530 C   0  0  0  0  0  0  0  0  0  0  0  0
   36.1230   29.8080   32.0020 O   0  0  0  0  0  0  0  0  0  0  0  0
   35.8900   30.9620   35.0740 C   0  0  0  0  0  3  0  0  0  0  0  0
   35.3150   30.0380   34.2570 C   0  0  0  0  0  0  0  0  0  0  0  0
   33.9820   29.7560   34.5060 C   0  0  0  0  0  0  0  0  0  0  0  0
   33.4830   29.0170   33.8700 H   0  0  0  0  0  0  0  0  0  0  0  0
   33.2340   30.3460   35.5050 C   0  0  0  0  0  0  0  0  0  0  0  0
   31.9310   30.1680   35.8610 N   0  0  0  0  0  0  0  0  0  0  0  0
   31.7450   31.0030   36.9020 C   0  0  0  0  0  0  0  0  0  0  0  0
   30.7550   31.0350   37.3650 H   0  0  0  0  0  0  0  0  0  0  0  0
   32.8750   31.6660   37.1800 N   0  0  0  0  0  0  0  0  0  0  0  0
   33.8450   31.2760   36.3140 C   0  0  0  0  0  0  0  0  0  0  0  0
   35.1770   31.5760   36.0870 C   0  0  0  0  0  3  0  0  0  0  0  0
   31.2510   29.5100   35.3970 H   0  0  0  0  0  0  0  0  0  0  0  0
  1  2  1  0  0  0  0
  2  7  1  0  0  0  0
  2  3  2  0  0  0  0
  3  8  1  0  0  0  0
  4  3  1  0  0  0  0
  4  9  1  0  0  0  0
  5  4  2  0  0  0  0
  6  1  2  0  0  0  0
  6  5  1  0  0  0  0
 10 12  1  0  0  0  0
 10  1  1  0  0  0  0
 11 10  2  0  0  0  0
 12 13  1  0  0  0  0
 14 15  1  0  0  0  0
 14 17  1  1  0  0  0
 15 19  1  0  0  0  0
 16 20  1  6  0  0  0
 16 14  1  0  0  0  0
 16 15  1  0  0  0  0
 16 12  1  0  0  0  0
 18 15  1  0  0  0  0
 21 26  1  0  0  0  0
 22 23  1  0  0  0  0
 22 21  2  0  0  0  0
 23 24  2  0  0  0  0
 24 25  1  0  0  0  0
 25 14  1  0  0  0  0
 26 25  2  0  0  0  0
 27 21  1  0  0  0  0
 28 22  1  0  0  0  0
 29 23  1  0  0  0  0
 30  5  1  0  0  0  0
 30 33  1  0  0  0  0
 31 30  2  0  0  0  0
 32 42  1  0  0  0  0
 33 34  1  0  0  0  0
 33 32  2  0  0  0  0
 34 36  2  0  0  0  0
 35 34  1  0  0  0  0
 36 37  1  0  0  0  0
 36 41  1  0  0  0  0
 37 38  1  0  0  0  0
 38 40  2  0  0  0  0
 38 39  1  0  0  0  0
 41 40  1  0  0  0  0
 42 41  2  0  0  0  0
 43 37  1  0  0  0  0
M  END
>  <minimizedAffinity>
-6.03306341

$$$$

 OpenBabel03272508593D

 43 47  0  0  1  0  0  0  0  0999 V2000
   36.4950   27.9850   33.5650 C   0  0  0  0  0  0  0  0  0  0  0  0
   37.3650   27.5060   34.5030 C   0  0  0  0  0  0  0  0  0  0  0  0
   37.7880   26.1920   34.3730 C   0  0  0  0  0  0  0  0  0  0  0  0
   37.3140   25.4530   33.3230 C   0  0  0  0  0  0  0  0  0  0  0  0
   36.4230   25.9430   32.3620 C   0  0  0  0  0  0  0  0  0  0  0  0
   36.0500   27.2240   32.5410 N   0  0  0  0  0  0  0  0  0  0  0  0
   37.7450   28.0840   35.3380 H   0  0  0  0  0  0  0  0  0  0  0  0
   38.4740   25.7130   35.0580 H   0  0  0  0  0  0  0  0  0  0  0  0
   37.6090   24.4090   33.1640 H   0  0  0  0  0  0  0  0  0  0  0  0
   36.0280   29.3840   33.6720 C   0  0  0  0  0  0  0  0  0  0  0  0
   35.6070   30.0070   32.6820 O   0  0  0  0  0  0  0  0  0  0  0  0
   36.0790   30.0080   34.9880 N   0  0  0  0  0  0  0  0  0  0  0  0
   36.5900   29.6190   35.7830 H   0  0  0  0  0  0  0  0  0  0  0  0
   35.1600   31.7900   36.4590 C   0  0  2  0  0  0  0  0  0  0  0  0
   36.2430   32.4150   35.6540 C   0  0  0  0  0  0  0  0  0  0  0  0
   35.3600   31.2460   35.1550 C   0  0  1  0  0  0  0  0  0  0  0  0
   35.5000   31.2530   37.3680 H   0  0  0  0  0  0  0  0  0  0  0  0
   36.1010   33.4070   35.2040 H   0  0  0  0  0  0  0  0  0  0  0  0
   37.2740   32.1870   35.9180 H   0  0  0  0  0  0  0  0  0  0  0  0
   34.6790   31.5730   34.3170 H   0  0  0  0  0  0  0  0  0  0  0  0
   32.8760   34.4640   37.6730 C   0  0  0  0  0  0  0  0  0  0  0  0
   31.6030   33.9810   37.2320 C   0  0  0  0  0  0  0  0  0  0  0  0
   31.5640   32.7190   36.5230 C   0  0  0  0  0  0  0  0  0  0  0  0
   32.7310   32.0290   36.2950 N   0  0  0  0  0  0  0  0  0  0  0  0
   33.8940   32.5660   36.7520 C   0  0  0  0  0  0  0  0  0  0  0  0
   34.0100   33.7700   37.4390 N   0  0  0  0  0  0  0  0  0  0  0  0
   32.9030   35.3940   38.1970 H   0  0  0  0  0  0  0  0  0  0  0  0
   30.7120   34.5220   37.4140 H   0  0  0  0  0  0  0  0  0  0  0  0
   30.6050   32.3560   36.1920 H   0  0  0  0  0  0  0  0  0  0  0  0
   35.9400   25.1200   31.2540 C   0  0  0  0  0  0  0  0  0  0  0  0
   35.1890   25.6520   30.4040 O   0  0  0  0  0  0  0  0  0  0  0  0
   37.5700   23.2590   30.7570 C   0  0  0  0  0  3  0  0  0  0  0  0
   36.3630   23.7080   31.1980 C   0  0  0  0  0  0  0  0  0  0  0  0
   35.4740   22.7350   31.6230 C   0  0  0  0  0  0  0  0  0  0  0  0
   34.4910   23.0560   31.9860 H   0  0  0  0  0  0  0  0  0  0  0  0
   35.7420   21.3800   31.6240 C   0  0  0  0  0  0  0  0  0  0  0  0
   34.9730   20.3240   32.0090 N   0  0  0  0  0  0  0  0  0  0  0  0
   35.7460   19.2420   31.7890 C   0  0  0  0  0  0  0  0  0  0  0  0
   35.3340   18.2580   32.0280 H   0  0  0  0  0  0  0  0  0  0  0  0
   36.9350   19.6080   31.2920 N   0  0  0  0  0  0  0  0  0  0  0  0
   36.9710   20.9600   31.1720 C   0  0  0  0  0  0  0  0  0  0  0  0
   37.8780   21.9120   30.7410 C   0  0  0  0  0  3  0  0  0  0  0  0
   33.9930   20.3830   32.3910 H   0  0  0  0  0  0  0  0  0  0  0  0
  1 10  1  0  0  0  0
  1  2  1  0  0  0  0
  2  7  1  0  0  0  0
  3  2  2  0  0  0  0
  3  8  1  0  0  0  0
  4  3  1  0  0  0  0
  5  6  1  0  0  0  0
  5  4  2  0  0  0  0
  6  1  2  0  0  0  0
  9  4  1  0  0  0  0
 10 12  1  0  0  0  0
 11 10  2  0  0  0  0
 12 16  1  0  0  0  0
 12 13  1  0  0  0  0
 14 25  1  0  0  0  0
 14 17  1  1  0  0  0
 15 19  1  0  0  0  0
 15 14  1  0  0  0  0
 16 20  1  6  0  0  0
 16 15  1  0  0  0  0
 16 14  1  0  0  0  0
 18 15  1  0  0  0  0
 21 27  1  0  0  0  0
 22 28  1  0  0  0  0
 22 21  2  0  0  0  0
 23 22  1  0  0  0  0
 24 23  2  0  0  0  0
 24 25  1  0  0  0  0
 25 26  2  0  0  0  0
 26 21  1  0  0  0  0
 29 23  1  0  0  0  0
 30  5  1  0  0  0  0
 31 30  2  0  0  0  0
 32 33  1  0  0  0  0
 33 30  1  0  0  0  0
 33 34  2  0  0  0  0
 34 36  1  0  0  0  0
 34 35  1  0  0  0  0
 36 37  1  0  0  0  0
 37 43  1  0  0  0  0
 38 37  1  0  0  0  0
 38 39  1  0  0  0  0
 40 38  2  0  0  0  0
 41 40  1  0  0  0  0
 41 36  2  0  0  0  0
 42 32  2  0  0  0  0
 42 41  1  0  0  0  0
M  END
>  <minimizedAffinity>
-5.97156858

$$$$

 OpenBabel03272508593D

 43 47  0  0  1  0  0  0  0  0999 V2000
   37.3100   27.9280   32.3490 C   0  0  0  0  0  0  0  0  0  0  0  0
   37.3730   28.1470   31.0020 C   0  0  0  0  0  0  0  0  0  0  0  0
   36.5220   29.1020   30.4680 C   0  0  0  0  0  0  0  0  0  0  0  0
   35.6720   29.7650   31.3100 C   0  0  0  0  0  0  0  0  0  0  0  0
   35.6070   29.5410   32.6900 C   0  0  0  0  0  0  0  0  0  0  0  0
   36.4570   28.6040   33.1490 N   0  0  0  0  0  0  0  0  0  0  0  0
   38.0430   27.6260   30.3260 H   0  0  0  0  0  0  0  0  0  0  0  0
   36.4890   29.3540   29.4160 H   0  0  0  0  0  0  0  0  0  0  0  0
   34.9740   30.5300   30.9520 H   0  0  0  0  0  0  0  0  0  0  0  0
   38.2080   26.9180   32.9510 C   0  0  0  0  0  0  0  0  0  0  0  0
   39.0450   27.2260   33.8180 O   0  0  0  0  0  0  0  0  0  0  0  0
   38.0760   25.5420   32.4880 N   0  0  0  0  0  0  0  0  0  0  0  0
   37.5530   25.2710   31.6520 H   0  0  0  0  0  0  0  0  0  0  0  0
   38.0130   23.8400   34.2990 C   0  0  2  0  0  0  0  0  0  0  0  0
   38.1730   23.0990   33.0190 C   0  0  0  0  0  0  0  0  0  0  0  0
   38.7280   24.5220   33.2700 C   0  0  1  0  0  0  0  0  0  0  0  0
   36.9690   24.1130   34.5570 H   0  0  0  0  0  0  0  0  0  0  0  0
   38.8860   22.2660   32.9430 H   0  0  0  0  0  0  0  0  0  0  0  0
   37.3050   23.0060   32.3690 H   0  0  0  0  0  0  0  0  0  0  0  0
   39.8550   24.5260   33.2980 H   0  0  0  0  0  0  0  0  0  0  0  0
   40.6030   22.2880   36.4730 C   0  0  0  0  0  0  0  0  0  0  0  0
   40.1060   22.5940   37.7800 C   0  0  0  0  0  0  0  0  0  0  0  0
   38.8650   23.3330   37.8790 C   0  0  0  0  0  0  0  0  0  0  0  0
   38.2070   23.7150   36.7340 N   0  0  0  0  0  0  0  0  0  0  0  0
   38.7540   23.3790   35.5350 C   0  0  0  0  0  0  0  0  0  0  0  0
   39.9390   22.6720   35.3620 N   0  0  0  0  0  0  0  0  0  0  0  0
   41.5180   21.7420   36.4010 H   0  0  0  0  0  0  0  0  0  0  0  0
   40.6230   22.2940   38.6530 H   0  0  0  0  0  0  0  0  0  0  0  0
   38.4920   23.5630   38.8630 H   0  0  0  0  0  0  0  0  0  0  0  0
   34.6830   30.2710   33.5570 C   0  0  0  0  0  0  0  0  0  0  0  0
   35.0070   31.4230   33.9320 O   0  0  0  0  0  0  0  0  0  0  0  0
   32.4140   29.2720   33.0920 C   0  0  0  0  0  3  0  0  0  0  0  0
   33.4210   29.6130   33.9420 C   0  0  0  0  0  0  0  0  0  0  0  0
   33.2170   29.3060   35.2760 C   0  0  0  0  0  0  0  0  0  0  0  0
   34.0040   29.5650   35.9920 H   0  0  0  0  0  0  0  0  0  0  0  0
   32.0830   28.6910   35.7710 C   0  0  0  0  0  0  0  0  0  0  0  0
   31.7500   28.3330   37.0420 N   0  0  0  0  0  0  0  0  0  0  0  0
   30.5290   27.7740   36.9300 C   0  0  0  0  0  0  0  0  0  0  0  0
   30.0490   27.4020   37.8390 H   0  0  0  0  0  0  0  0  0  0  0  0
   30.1240   27.7840   35.6540 N   0  0  0  0  0  0  0  0  0  0  0  0
   31.0840   28.3600   34.8850 C   0  0  0  0  0  0  0  0  0  0  0  0
   31.2620   28.6560   33.5450 C   0  0  0  0  0  3  0  0  0  0  0  0
   32.3470   28.4790   37.8980 H   0  0  0  0  0  0  0  0  0  0  0  0
  1 10  1  0  0  0  0
  1  6  1  0  0  0  0
  2  1  2  0  0  0  0
  3  2  1  0  0  0  0
  3  4  2  0  0  0  0
  4  5  1  0  0  0  0
  5  6  2  0  0  0  0
  5 30  1  0  0  0  0
  7  2  1  0  0  0  0
  8  3  1  0  0  0  0
  9  4  1  0  0  0  0
 10 11  2  0  0  0  0
 12 10  1  0  0  0  0
 12 16  1  0  0  0  0
 13 12  1  0  0  0  0
 14 17  1  1  0  0  0
 14 25  1  0  0  0  0
 15 16  1  0  0  0  0
 15 14  1  0  0  0  0
 16 20  1  1  0  0  0
 16 14  1  0  0  0  0
 18 15  1  0  0  0  0
 19 15  1  0  0  0  0
 21 22  1  0  0  0  0
 22 23  2  0  0  0  0
 22 28  1  0  0  0  0
 23 29  1  0  0  0  0
 24 23  1  0  0  0  0
 25 24  2  0  0  0  0
 26 25  1  0  0  0  0
 26 21  2  0  0  0  0
 27 21  1  0  0  0  0
 30 31  2  0  0  0  0
 30 33  1  0  0  0  0
 32 42  2  0  0  0  0
 32 33  1  0  0  0  0
 33 34  2  0  0  0  0
 34 36  1  0  0  0  0
 34 35  1  0  0  0  0
 36 37  1  0  0  0  0
 37 43  1  0  0  0  0
 38 37  1  0  0  0  0
 38 39  1  0  0  0  0
 40 38  2  0  0  0  0
 41 40  1  0  0  0  0
 41 36  2  0  0  0  0
 42 41  1  0  0  0  0
M  END
>  <minimizedAffinity>
-5.95519304

$$$$
