
 OpenBabel03272508573D

 43 47  0  0  1  0  0  0  0  0999 V2000
   39.1370   31.4890   43.3270 C   0  0  0  0  0  0  0  0  0  0  0  0
   40.1410   30.5740   43.4720 C   0  0  0  0  0  0  0  0  0  0  0  0
   40.8600   30.2270   42.3390 C   0  0  0  0  0  0  0  0  0  0  0  0
   40.5270   30.8120   41.1470 C   0  0  0  0  0  0  0  0  0  0  0  0
   39.4990   31.7490   40.9980 C   0  0  0  0  0  0  0  0  0  0  0  0
   38.8380   32.0460   42.1320 N   0  0  0  0  0  0  0  0  0  0  0  0
   40.4110   30.1050   44.4120 H   0  0  0  0  0  0  0  0  0  0  0  0
   41.6730   29.5140   42.3410 H   0  0  0  0  0  0  0  0  0  0  0  0
   41.0550   30.5800   40.2160 H   0  0  0  0  0  0  0  0  0  0  0  0
   38.3530   31.8850   44.5170 C   0  0  0  0  0  0  0  0  0  0  0  0
   37.2310   32.4110   44.4120 O   0  0  0  0  0  0  0  0  0  0  0  0
   38.9470   31.6350   45.8240 N   0  0  0  0  0  0  0  0  0  0  0  0
   39.9310   31.3930   45.9650 H   0  0  0  0  0  0  0  0  0  0  0  0
   38.4380   31.1170   48.2010 C   0  0  2  0  0  0  0  0  0  0  0  0
   38.6760   32.5830   48.1240 C   0  0  0  0  0  0  0  0  0  0  0  0
   38.0800   31.7420   46.9700 C   0  0  1  0  0  0  0  0  0  0  0  0
   39.3530   30.4960   48.2910 H   0  0  0  0  0  0  0  0  0  0  0  0
   38.0170   33.2830   48.6550 H   0  0  0  0  0  0  0  0  0  0  0  0
   39.7010   32.9300   48.0140 H   0  0  0  0  0  0  0  0  0  0  0  0
   36.9990   32.0040   46.7850 H   0  0  0  0  0  0  0  0  0  0  0  0
   35.0660   30.2370   49.5070 C   0  0  0  0  0  0  0  0  0  0  0  0
   35.3940   29.5500   50.7180 C   0  0  0  0  0  0  0  0  0  0  0  0
   36.7930   29.4150   51.0650 C   0  0  0  0  0  0  0  0  0  0  0  0
   37.7550   29.9400   50.2340 N   0  0  0  0  0  0  0  0  0  0  0  0
   37.3490   30.5760   49.1030 C   0  0  0  0  0  0  0  0  0  0  0  0
   36.0270   30.7450   48.7050 N   0  0  0  0  0  0  0  0  0  0  0  0
   34.0340   30.3370   49.2520 H   0  0  0  0  0  0  0  0  0  0  0  0
   34.6440   29.1510   51.3490 H   0  0  0  0  0  0  0  0  0  0  0  0
   37.0390   28.8980   51.9780 H   0  0  0  0  0  0  0  0  0  0  0  0
   39.1730   32.3510   39.7050 C   0  0  0  0  0  0  0  0  0  0  0  0
   38.8660   33.5660   39.6780 O   0  0  0  0  0  0  0  0  0  0  0  0
   38.3490   30.4980   38.2060 C   0  0  0  0  0  3  0  0  0  0  0  0
   39.2250   31.4960   38.5050 C   0  0  0  0  0  0  0  0  0  0  0  0
   40.2410   31.7030   37.5880 C   0  0  0  0  0  0  0  0  0  0  0  0
   40.9670   32.4970   37.7940 H   0  0  0  0  0  0  0  0  0  0  0  0
   40.4060   30.9750   36.4260 C   0  0  0  0  0  0  0  0  0  0  0  0
   41.3450   31.0680   35.4460 N   0  0  0  0  0  0  0  0  0  0  0  0
   41.0110   30.1080   34.5620 C   0  0  0  0  0  0  0  0  0  0  0  0
   41.6340   29.9900   33.6710 H   0  0  0  0  0  0  0  0  0  0  0  0
   39.9180   29.4520   34.9710 N   0  0  0  0  0  0  0  0  0  0  0  0
   39.5020   29.9730   36.1540 C   0  0  0  0  0  0  0  0  0  0  0  0
   38.4760   29.7440   37.0540 C   0  0  0  0  0  3  0  0  0  0  0  0
   42.1430   31.7550   35.4230 H   0  0  0  0  0  0  0  0  0  0  0  0
  1  2  1  0  0  0  0
  1 10  1  0  0  0  0
  2  7  1  0  0  0  0
  3  8  1  0  0  0  0
  3  2  2  0  0  0  0
  4  3  1  0  0  0  0
  5  4  2  0  0  0  0
  5  6  1  0  0  0  0
  6  1  2  0  0  0  0
  9  4  1  0  0  0  0
 10 12  1  0  0  0  0
 11 10  2  0  0  0  0
 12 13  1  0  0  0  0
 12 16  1  0  0  0  0
 14 17  1  6  0  0  0
 14 25  1  0  0  0  0
 15 14  1  0  0  0  0
 15 18  1  0  0  0  0
 16 20  1  6  0  0  0
 16 15  1  0  0  0  0
 16 14  1  0  0  0  0
 19 15  1  0  0  0  0
 21 22  1  0  0  0  0
 22 23  2  0  0  0  0
 22 28  1  0  0  0  0
 23 29  1  0  0  0  0
 24 23  1  0  0  0  0
 25 24  2  0  0  0  0
 26 25  1  0  0  0  0
 26 21  2  0  0  0  0
 27 21  1  0  0  0  0
 30  5  1  0  0  0  0
 31 30  2  0  0  0  0
 32 33  1  0  0  0  0
 33 30  1  0  0  0  0
 34 35  1  0  0  0  0
 34 33  2  0  0  0  0
 36 34  1  0  0  0  0
 37 36  1  0  0  0  0
 38 40  2  0  0  0  0
 38 37  1  0  0  0  0
 39 38  1  0  0  0  0
 40 41  1  0  0  0  0
 41 36  2  0  0  0  0
 41 42  1  0  0  0  0
 42 32  2  0  0  0  0
 43 37  1  0  0  0  0
M  END
>  <minimizedAffinity>
-4.92859507

>  <minimizedRMSD>
0.224455222

$$$$
