
 OpenBabel03272508563D

 43 47  0  0  1  0  0  0  0  0999 V2000
   39.2350   31.3250   43.4340 C   0  0  0  0  0  0  0  0  0  0  0  0
   40.2390   30.4220   43.6400 C   0  0  0  0  0  0  0  0  0  0  0  0
   40.9860   30.0320   42.5390 C   0  0  0  0  0  0  0  0  0  0  0  0
   40.6780   30.5670   41.3170 C   0  0  0  0  0  0  0  0  0  0  0  0
   39.6500   31.4910   41.1060 C   0  0  0  0  0  0  0  0  0  0  0  0
   38.9620   31.8310   42.2110 N   0  0  0  0  0  0  0  0  0  0  0  0
   40.4900   29.9930   44.6040 H   0  0  0  0  0  0  0  0  0  0  0  0
   41.8020   29.3250   42.5890 H   0  0  0  0  0  0  0  0  0  0  0  0
   41.2290   30.3000   40.4090 H   0  0  0  0  0  0  0  0  0  0  0  0
   38.4220   31.7650   44.5880 C   0  0  0  0  0  0  0  0  0  0  0  0
   37.3880   32.4390   44.4370 O   0  0  0  0  0  0  0  0  0  0  0  0
   38.8790   31.3780   45.9170 N   0  0  0  0  0  0  0  0  0  0  0  0
   39.8100   31.0010   46.1110 H   0  0  0  0  0  0  0  0  0  0  0  0
   38.2090   30.9360   48.2700 C   0  0  2  0  0  0  0  0  0  0  0  0
   38.5070   32.3900   48.1750 C   0  0  0  0  0  0  0  0  0  0  0  0
   37.9490   31.5440   47.0060 C   0  0  1  0  0  0  0  0  0  0  0  0
   39.0920   30.2840   48.4290 H   0  0  0  0  0  0  0  0  0  0  0  0
   37.8450   33.1270   48.6500 H   0  0  0  0  0  0  0  0  0  0  0  0
   39.5500   32.6960   48.1200 H   0  0  0  0  0  0  0  0  0  0  0  0
   36.8920   31.8420   46.7490 H   0  0  0  0  0  0  0  0  0  0  0  0
   34.7410   30.1180   49.3430 C   0  0  0  0  0  0  0  0  0  0  0  0
   34.9640   29.5460   50.6350 C   0  0  0  0  0  0  0  0  0  0  0  0
   36.3280   29.4640   51.1150 C   0  0  0  0  0  0  0  0  0  0  0  0
   37.3550   29.9300   50.3290 N   0  0  0  0  0  0  0  0  0  0  0  0
   37.0480   30.4590   49.1150 C   0  0  0  0  0  0  0  0  0  0  0  0
   35.7650   30.5710   48.5880 N   0  0  0  0  0  0  0  0  0  0  0  0
   33.7350   30.1790   48.9900 H   0  0  0  0  0  0  0  0  0  0  0  0
   34.1640   29.1910   51.2290 H   0  0  0  0  0  0  0  0  0  0  0  0
   36.4950   29.0330   52.0880 H   0  0  0  0  0  0  0  0  0  0  0  0
   39.3520   32.0390   39.7830 C   0  0  0  0  0  0  0  0  0  0  0  0
   38.7130   33.1150   39.7160 O   0  0  0  0  0  0  0  0  0  0  0  0
   39.2380   30.1770   38.0850 C   0  0  0  0  0  3  0  0  0  0  0  0
   39.8210   31.2940   38.5990 C   0  0  0  0  0  0  0  0  0  0  0  0
   40.9480   31.7480   37.9360 C   0  0  0  0  0  0  0  0  0  0  0  0
   41.4470   32.6450   38.3200 H   0  0  0  0  0  0  0  0  0  0  0  0
   41.4930   31.1470   36.8200 C   0  0  0  0  0  0  0  0  0  0  0  0
   42.5830   31.4780   36.0740 N   0  0  0  0  0  0  0  0  0  0  0  0
   42.6360   30.5390   35.1100 C   0  0  0  0  0  0  0  0  0  0  0  0
   43.4450   30.6000   34.3770 H   0  0  0  0  0  0  0  0  0  0  0  0
   41.6290   29.6680   35.2480 N   0  0  0  0  0  0  0  0  0  0  0  0
   40.8790   30.0190   36.3240 C   0  0  0  0  0  0  0  0  0  0  0  0
   39.7500   29.5430   36.9670 C   0  0  0  0  0  3  0  0  0  0  0  0
   43.2200   32.3000   36.2490 H   0  0  0  0  0  0  0  0  0  0  0  0
  1  2  1  0  0  0  0
  1 10  1  0  0  0  0
  2  7  1  0  0  0  0
  3  8  1  0  0  0  0
  3  2  2  0  0  0  0
  4  3  1  0  0  0  0
  5  4  2  0  0  0  0
  5  6  1  0  0  0  0
  6  1  2  0  0  0  0
  9  4  1  0  0  0  0
 10 12  1  0  0  0  0
 11 10  2  0  0  0  0
 12 13  1  0  0  0  0
 12 16  1  0  0  0  0
 14 17  1  1  0  0  0
 14 25  1  0  0  0  0
 15 14  1  0  0  0  0
 15 18  1  0  0  0  0
 16 20  1  6  0  0  0
 16 15  1  0  0  0  0
 16 14  1  0  0  0  0
 19 15  1  0  0  0  0
 21 22  1  0  0  0  0
 22 23  2  0  0  0  0
 22 28  1  0  0  0  0
 23 29  1  0  0  0  0
 24 23  1  0  0  0  0
 25 24  2  0  0  0  0
 26 25  1  0  0  0  0
 26 21  2  0  0  0  0
 27 21  1  0  0  0  0
 30  5  1  0  0  0  0
 31 30  2  0  0  0  0
 32 33  1  0  0  0  0
 33 30  1  0  0  0  0
 34 35  1  0  0  0  0
 34 33  2  0  0  0  0
 36 34  1  0  0  0  0
 37 43  1  0  0  0  0
 37 36  1  0  0  0  0
 38 40  2  0  0  0  0
 38 37  1  0  0  0  0
 39 38  1  0  0  0  0
 40 41  1  0  0  0  0
 41 36  2  0  0  0  0
 41 42  1  0  0  0  0
 42 32  2  0  0  0  0
M  END
>  <minimizedAffinity>
-5.05861712

>  <minimizedRMSD>
0.957733929

$$$$
