
 OpenBabel03272508573D

 43 47  0  0  1  0  0  0  0  0999 V2000
   38.7560   31.4900   44.0490 C   0  0  0  0  0  0  0  0  0  0  0  0
   39.8000   30.6110   43.9830 C   0  0  0  0  0  0  0  0  0  0  0  0
   40.5190   30.5590   42.7990 C   0  0  0  0  0  0  0  0  0  0  0  0
   40.1460   31.3800   41.7690 C   0  0  0  0  0  0  0  0  0  0  0  0
   39.0760   32.2800   41.8370 C   0  0  0  0  0  0  0  0  0  0  0  0
   38.4180   32.2860   43.0110 N   0  0  0  0  0  0  0  0  0  0  0  0
   40.1020   29.9560   44.7920 H   0  0  0  0  0  0  0  0  0  0  0  0
   41.3620   29.9010   42.6380 H   0  0  0  0  0  0  0  0  0  0  0  0
   40.6710   31.3870   40.8080 H   0  0  0  0  0  0  0  0  0  0  0  0
   37.9710   31.5730   45.3000 C   0  0  0  0  0  0  0  0  0  0  0  0
   36.9380   30.9010   45.4660 O   0  0  0  0  0  0  0  0  0  0  0  0
   38.4550   32.4780   46.3350 N   0  0  0  0  0  0  0  0  0  0  0  0
   39.1720   33.1900   46.1790 H   0  0  0  0  0  0  0  0  0  0  0  0
   38.4770   31.4880   48.6160 C   0  0  2  0  0  0  0  0  0  0  0  0
   38.7460   32.9410   48.7770 C   0  0  0  0  0  0  0  0  0  0  0  0
   37.8740   32.3440   47.6480 C   0  0  1  0  0  0  0  0  0  0  0  0
   39.3640   30.8700   48.3690 H   0  0  0  0  0  0  0  0  0  0  0  0
   38.2510   33.5150   49.5730 H   0  0  0  0  0  0  0  0  0  0  0  0
   39.7330   33.3130   48.5060 H   0  0  0  0  0  0  0  0  0  0  0  0
   36.7890   32.6290   47.7700 H   0  0  0  0  0  0  0  0  0  0  0  0
   35.6180   29.6070   50.0760 C   0  0  0  0  0  0  0  0  0  0  0  0
   36.0500   29.4260   51.4280 C   0  0  0  0  0  0  0  0  0  0  0  0
   37.3340   29.9750   51.8100 C   0  0  0  0  0  0  0  0  0  0  0  0
   38.0930   30.6440   50.8790 N   0  0  0  0  0  0  0  0  0  0  0  0
   37.6010   30.7680   49.6170 C   0  0  0  0  0  0  0  0  0  0  0  0
   36.3790   30.2680   49.1780 N   0  0  0  0  0  0  0  0  0  0  0  0
   34.6700   29.2020   49.7950 H   0  0  0  0  0  0  0  0  0  0  0  0
   35.4560   28.9080   52.1340 H   0  0  0  0  0  0  0  0  0  0  0  0
   37.6580   29.8380   52.8280 H   0  0  0  0  0  0  0  0  0  0  0  0
   38.7090   33.1410   40.7130 C   0  0  0  0  0  0  0  0  0  0  0  0
   38.4800   34.3510   40.9450 O   0  0  0  0  0  0  0  0  0  0  0  0
   39.5300   32.7180   38.3660 C   0  0  0  0  0  3  0  0  0  0  0  0
   38.6290   32.5380   39.3700 C   0  0  0  0  0  0  0  0  0  0  0  0
   37.5540   31.7160   39.0790 C   0  0  0  0  0  0  0  0  0  0  0  0
   36.8050   31.5460   39.8600 H   0  0  0  0  0  0  0  0  0  0  0  0
   37.3570   31.0900   37.8640 C   0  0  0  0  0  0  0  0  0  0  0  0
   36.3600   30.2640   37.4420 N   0  0  0  0  0  0  0  0  0  0  0  0
   36.6850   29.9580   36.1700 C   0  0  0  0  0  0  0  0  0  0  0  0
   36.0190   29.2930   35.6140 H   0  0  0  0  0  0  0  0  0  0  0  0
   37.8290   30.5620   35.8200 N   0  0  0  0  0  0  0  0  0  0  0  0
   38.2870   31.2910   36.8700 C   0  0  0  0  0  0  0  0  0  0  0  0
   39.3720   32.1090   37.1350 C   0  0  0  0  0  3  0  0  0  0  0  0
   35.5310   29.9570   38.0150 H   0  0  0  0  0  0  0  0  0  0  0  0
  1 10  1  0  0  0  0
  2  1  1  0  0  0  0
  2  7  1  0  0  0  0
  3  2  2  0  0  0  0
  4  5  2  0  0  0  0
  4  3  1  0  0  0  0
  5  6  1  0  0  0  0
  6  1  2  0  0  0  0
  8  3  1  0  0  0  0
  9  4  1  0  0  0  0
 10 11  2  0  0  0  0
 10 12  1  0  0  0  0
 12 16  1  0  0  0  0
 13 12  1  0  0  0  0
 14 17  1  6  0  0  0
 14 15  1  0  0  0  0
 14 25  1  0  0  0  0
 15 18  1  0  0  0  0
 16 20  1  1  0  0  0
 16 14  1  0  0  0  0
 16 15  1  0  0  0  0
 19 15  1  0  0  0  0
 21 22  1  0  0  0  0
 22 23  2  0  0  0  0
 22 28  1  0  0  0  0
 23 29  1  0  0  0  0
 24 23  1  0  0  0  0
 25 24  2  0  0  0  0
 26 25  1  0  0  0  0
 26 21  2  0  0  0  0
 27 21  1  0  0  0  0
 30 31  2  0  0  0  0
 30  5  1  0  0  0  0
 32 33  1  0  0  0  0
 33 30  1  0  0  0  0
 34 33  2  0  0  0  0
 34 35  1  0  0  0  0
 36 34  1  0  0  0  0
 37 36  1  0  0  0  0
 37 43  1  0  0  0  0
 38 37  1  0  0  0  0
 39 38  1  0  0  0  0
 40 38  2  0  0  0  0
 40 41  1  0  0  0  0
 41 42  1  0  0  0  0
 41 36  2  0  0  0  0
 42 32  2  0  0  0  0
M  END
>  <minimizedAffinity>
-5.41181612

>  <minimizedRMSD>
1.77678275

$$$$
