
 OpenBabel03272507413D

 44 48  0  0  0  0  0  0  0  0999 V2000
   36.6380   31.1690   50.0870 C   0  0  0  0  0  0  0  0  0  0  0  0
   35.5720   30.2950   49.8920 C   0  0  0  0  0  0  0  0  0  0  0  0
   35.3740   29.1920   50.6880 C   0  0  0  0  0  0  0  0  0  0  0  0
   36.2720   28.9810   51.6880 N   0  0  0  0  0  0  0  0  0  0  0  0
   37.3170   29.8380   51.8810 C   0  0  0  0  0  0  0  0  0  0  0  0
   37.4790   30.8960   51.0920 N   0  0  0  0  0  0  0  0  0  0  0  0
   34.5930   28.4840   50.6030 H   0  0  0  0  0  0  0  0  0  0  0  0
   38.0460   29.6840   52.6790 H   0  0  0  0  0  0  0  0  0  0  0  0
   34.2390   29.3150   48.0640 C   0  0  0  0  0  0  0  0  0  0  0  0
   34.7530   28.1390   47.9420 O   0  0  0  0  0  0  0  0  0  0  0  0
   34.5960   30.4090   48.8830 N   0  0  0  0  0  0  0  0  0  0  0  0
   34.2400   31.3660   48.8750 H   0  0  0  0  0  0  0  0  0  0  0  0
   32.9490   30.5720   46.3210 C   0  0  0  0  0  3  0  0  0  0  0  0
   33.0880   29.5060   47.1820 C   0  0  0  0  0  0  0  0  0  0  0  0
   32.0180   28.6370   47.1190 C   0  0  0  0  0  0  0  0  0  0  0  0
   32.0200   27.7510   47.7600 H   0  0  0  0  0  0  0  0  0  0  0  0
   30.9130   28.7690   46.3090 C   0  0  0  0  0  0  0  0  0  0  0  0
   29.8060   28.0270   46.1300 N   0  0  0  0  0  0  0  0  0  0  0  0
   29.0420   28.6310   45.2000 C   0  0  0  0  0  0  0  0  0  0  0  0
   28.0740   28.3150   44.8010 H   0  0  0  0  0  0  0  0  0  0  0  0
   29.6810   29.7510   44.8020 N   0  0  0  0  0  0  0  0  0  0  0  0
   30.8520   29.8660   45.4760 C   0  0  0  0  0  0  0  0  0  0  0  0
   31.8810   30.7830   45.4780 C   0  0  0  0  0  3  0  0  0  0  0  0
   29.5450   27.1340   46.6070 H   0  0  0  0  0  0  0  0  0  0  0  0
   36.6610   32.1920   49.2050 O   0  0  0  0  0  0  0  0  0  0  0  0
   38.1640   32.1700   47.2500 C   0  0  0  0  0  0  0  0  0  0  0  0
   37.7750   32.6060   48.5090 C   0  0  0  0  0  0  0  0  0  0  0  0
   38.5320   33.5440   49.1860 C   0  0  0  0  0  0  0  0  0  0  0  0
   39.6840   34.0510   48.6050 C   0  0  0  0  0  0  0  0  0  0  0  0
   40.0690   33.6140   47.3510 C   0  0  0  0  0  0  0  0  0  0  0  0
   39.2940   32.6760   46.6990 C   0  0  0  0  0  0  0  0  0  0  0  0
   38.2950   33.9270   50.1570 H   0  0  0  0  0  0  0  0  0  0  0  0
   40.3050   34.7870   49.1020 H   0  0  0  0  0  0  0  0  0  0  0  0
   40.9640   33.9800   46.8510 H   0  0  0  0  0  0  0  0  0  0  0  0
   39.7170   32.2200   45.3630 C   0  0  0  0  0  0  0  0  0  0  0  0
   40.5620   31.1980   45.0110 C   0  0  0  0  0  0  0  0  0  0  0  0
   40.6360   31.1750   43.6190 C   0  0  0  0  0  0  0  0  0  0  0  0
   39.8100   32.2080   43.2060 C   0  0  0  0  0  0  0  0  0  0  0  0
   39.2720   32.8180   44.2550 O   0  0  0  0  0  0  0  0  0  0  0  0
   41.0690   30.5440   45.7020 H   0  0  0  0  0  0  0  0  0  0  0  0
   41.2120   30.4970   43.0030 H   0  0  0  0  0  0  0  0  0  0  0  0
   39.6230   32.4870   42.1680 H   0  0  0  0  0  0  0  0  0  0  0  0
   36.6680   30.4220   46.0920 N   0  0  0  0  0  0  0  0  0  0  0  0
   37.3300   31.2010   46.6180 C   0  0  0  0  0  0  0  0  0  0  0  0
  1  6  1  0  0  0  0
  2  1  2  0  0  0  0
  2  3  1  0  0  0  0
  3  4  2  0  0  0  0
  4  5  1  0  0  0  0
  5  8  1  0  0  0  0
  6  5  2  0  0  0  0
  7  3  1  0  0  0  0
  9 11  1  0  0  0  0
 10  9  2  0  0  0  0
 11  2  1  0  0  0  0
 12 11  1  0  0  0  0
 13 14  1  0  0  0  0
 14  9  1  0  0  0  0
 15 14  2  0  0  0  0
 15 16  1  0  0  0  0
 17 15  1  0  0  0  0
 18 17  1  0  0  0  0
 18 24  1  0  0  0  0
 19 18  1  0  0  0  0
 20 19  1  0  0  0  0
 21 19  2  0  0  0  0
 21 22  1  0  0  0  0
 22 23  1  0  0  0  0
 22 17  2  0  0  0  0
 23 13  2  0  0  0  0
 25  1  1  0  0  0  0
 26 27  1  0  0  0  0
 27 28  2  0  0  0  0
 27 25  1  0  0  0  0
 28 32  1  0  0  0  0
 29 33  1  0  0  0  0
 29 28  1  0  0  0  0
 30 29  2  0  0  0  0
 31 26  2  0  0  0  0
 31 30  1  0  0  0  0
 34 30  1  0  0  0  0
 35 31  1  0  0  0  0
 36 35  2  0  0  0  0
 36 40  1  0  0  0  0
 37 36  1  0  0  0  0
 38 37  2  0  0  0  0
 38 39  1  0  0  0  0
 39 35  1  0  0  0  0
 41 37  1  0  0  0  0
 42 38  1  0  0  0  0
 43 44  3  0  0  0  0
 44 26  1  0  0  0  0
M  END
>  <minimizedAffinity>
-6.2744565

>  <minimizedRMSD>
0.66815418

$$$$
