
 OpenBabel03272507433D

 44 48  0  0  0  0  0  0  0  0999 V2000
   36.0700   28.7380   32.3230 C   0  0  0  0  0  0  0  0  0  0  0  0
   37.2430   27.9880   32.3650 C   0  0  0  0  0  0  0  0  0  0  0  0
   38.1440   27.9810   31.3280 C   0  0  0  0  0  0  0  0  0  0  0  0
   37.8460   28.7440   30.2420 N   0  0  0  0  0  0  0  0  0  0  0  0
   36.6970   29.4800   30.2000 C   0  0  0  0  0  0  0  0  0  0  0  0
   35.8450   29.4640   31.2210 N   0  0  0  0  0  0  0  0  0  0  0  0
   39.0530   27.4400   31.2840 H   0  0  0  0  0  0  0  0  0  0  0  0
   36.4420   30.0980   29.3370 H   0  0  0  0  0  0  0  0  0  0  0  0
   37.4380   25.7580   33.3970 C   0  0  0  0  0  0  0  0  0  0  0  0
   36.7860   25.0100   32.5750 O   0  0  0  0  0  0  0  0  0  0  0  0
   37.6430   27.1550   33.4280 N   0  0  0  0  0  0  0  0  0  0  0  0
   38.0690   27.7300   34.1550 H   0  0  0  0  0  0  0  0  0  0  0  0
   39.0830   24.0790   34.2720 C   0  0  0  0  0  3  0  0  0  0  0  0
   38.0600   24.9820   34.4700 C   0  0  0  0  0  0  0  0  0  0  0  0
   37.6900   25.0740   35.7960 C   0  0  0  0  0  0  0  0  0  0  0  0
   36.8870   25.7610   36.0730 H   0  0  0  0  0  0  0  0  0  0  0  0
   38.2420   24.3690   36.8420 C   0  0  0  0  0  0  0  0  0  0  0  0
   38.0010   24.3420   38.1660 N   0  0  0  0  0  0  0  0  0  0  0  0
   38.8460   23.4570   38.7270 C   0  0  0  0  0  0  0  0  0  0  0  0
   38.9390   23.1750   39.7800 H   0  0  0  0  0  0  0  0  0  0  0  0
   39.6130   22.9360   37.7460 N   0  0  0  0  0  0  0  0  0  0  0  0
   39.2600   23.4850   36.5580 C   0  0  0  0  0  0  0  0  0  0  0  0
   39.6890   23.3340   35.2570 C   0  0  0  0  0  3  0  0  0  0  0  0
   37.2940   24.8930   38.7020 H   0  0  0  0  0  0  0  0  0  0  0  0
   35.3140   28.6140   33.4370 O   0  0  0  0  0  0  0  0  0  0  0  0
   33.6960   30.1350   34.5090 C   0  0  0  0  0  0  0  0  0  0  0  0
   34.9770   29.6510   34.2780 C   0  0  0  0  0  0  0  0  0  0  0  0
   36.0630   30.2180   34.9190 C   0  0  0  0  0  0  0  0  0  0  0  0
   35.8720   31.2730   35.7960 C   0  0  0  0  0  0  0  0  0  0  0  0
   34.5940   31.7530   36.0250 C   0  0  0  0  0  0  0  0  0  0  0  0
   33.5290   31.1680   35.3690 C   0  0  0  0  0  0  0  0  0  0  0  0
   37.0760   29.8990   34.7910 H   0  0  0  0  0  0  0  0  0  0  0  0
   36.6950   31.7460   36.3190 H   0  0  0  0  0  0  0  0  0  0  0  0
   34.3910   32.5800   36.7030 H   0  0  0  0  0  0  0  0  0  0  0  0
   32.1750   31.6900   35.6230 C   0  0  0  0  0  0  0  0  0  0  0  0
   31.2890   31.3850   36.6240 C   0  0  0  0  0  0  0  0  0  0  0  0
   30.1420   32.1500   36.4200 C   0  0  0  0  0  0  0  0  0  0  0  0
   30.4140   32.8900   35.2790 C   0  0  0  0  0  0  0  0  0  0  0  0
   31.6250   32.6040   34.8190 O   0  0  0  0  0  0  0  0  0  0  0  0
   31.4670   30.6760   37.4170 H   0  0  0  0  0  0  0  0  0  0  0  0
   29.2430   32.1620   37.0220 H   0  0  0  0  0  0  0  0  0  0  0  0
   29.7330   33.6070   34.8190 H   0  0  0  0  0  0  0  0  0  0  0  0
   31.7670   28.9710   33.2610 N   0  0  0  0  0  0  0  0  0  0  0  0
   32.6300   29.4960   33.8090 C   0  0  0  0  0  0  0  0  0  0  0  0
  1  2  1  0  0  0  0
  1 25  1  0  0  0  0
  2 11  1  0  0  0  0
  3  2  2  0  0  0  0
  4  3  1  0  0  0  0
  5  4  2  0  0  0  0
  5  6  1  0  0  0  0
  6  1  2  0  0  0  0
  7  3  1  0  0  0  0
  8  5  1  0  0  0  0
  9 11  1  0  0  0  0
  9 14  1  0  0  0  0
 10  9  2  0  0  0  0
 11 12  1  0  0  0  0
 13 14  2  0  0  0  0
 13 23  1  0  0  0  0
 14 15  1  0  0  0  0
 15 16  1  0  0  0  0
 15 17  2  0  0  0  0
 17 18  1  0  0  0  0
 18 24  1  0  0  0  0
 18 19  1  0  0  0  0
 19 20  1  0  0  0  0
 21 19  2  0  0  0  0
 22 17  1  0  0  0  0
 22 21  1  0  0  0  0
 23 22  2  0  0  0  0
 25 27  1  0  0  0  0
 26 31  1  0  0  0  0
 27 26  2  0  0  0  0
 27 28  1  0  0  0  0
 28 29  2  0  0  0  0
 29 30  1  0  0  0  0
 29 33  1  0  0  0  0
 30 34  1  0  0  0  0
 31 35  1  0  0  0  0
 31 30  2  0  0  0  0
 32 28  1  0  0  0  0
 35 36  2  0  0  0  0
 36 40  1  0  0  0  0
 37 36  1  0  0  0  0
 37 41  1  0  0  0  0
 38 37  2  0  0  0  0
 39 38  1  0  0  0  0
 39 35  1  0  0  0  0
 42 38  1  0  0  0  0
 43 44  3  0  0  0  0
 44 26  1  0  0  0  0
M  END
>  <minimizedAffinity>
-6.43634224

$$$$

 OpenBabel03272507433D

 44 48  0  0  0  0  0  0  0  0999 V2000
   37.0120   25.8970   33.0530 C   0  0  0  0  0  0  0  0  0  0  0  0
   36.4690   27.0360   32.4610 C   0  0  0  0  0  0  0  0  0  0  0  0
   35.7610   26.9820   31.2850 C   0  0  0  0  0  0  0  0  0  0  0  0
   35.6070   25.7590   30.7090 N   0  0  0  0  0  0  0  0  0  0  0  0
   36.1380   24.6430   31.2890 C   0  0  0  0  0  0  0  0  0  0  0  0
   36.8190   24.7290   32.4280 N   0  0  0  0  0  0  0  0  0  0  0  0
   35.3200   27.7970   30.7750 H   0  0  0  0  0  0  0  0  0  0  0  0
   36.0240   23.6530   30.8410 H   0  0  0  0  0  0  0  0  0  0  0  0
   35.4410   29.1440   33.2190 C   0  0  0  0  0  0  0  0  0  0  0  0
   34.1940   28.9600   32.9520 O   0  0  0  0  0  0  0  0  0  0  0  0
   36.5790   28.3480   32.9620 N   0  0  0  0  0  0  0  0  0  0  0  0
   37.5660   28.5730   33.0840 H   0  0  0  0  0  0  0  0  0  0  0  0
   35.7890   30.5350   35.2760 C   0  0  0  0  0  3  0  0  0  0  0  0
   35.6730   30.4130   33.9080 C   0  0  0  0  0  0  0  0  0  0  0  0
   35.8040   31.6240   33.2610 C   0  0  0  0  0  0  0  0  0  0  0  0
   35.7290   31.6510   32.1710 H   0  0  0  0  0  0  0  0  0  0  0  0
   36.0230   32.8450   33.8610 C   0  0  0  0  0  0  0  0  0  0  0  0
   36.1710   34.0940   33.3840 N   0  0  0  0  0  0  0  0  0  0  0  0
   36.3640   34.9200   34.4280 C   0  0  0  0  0  0  0  0  0  0  0  0
   36.5220   36.0030   34.4220 H   0  0  0  0  0  0  0  0  0  0  0  0
   36.3370   34.1790   35.5550 N   0  0  0  0  0  0  0  0  0  0  0  0
   36.1260   32.8780   35.2340 C   0  0  0  0  0  0  0  0  0  0  0  0
   36.0070   31.7110   35.9560 C   0  0  0  0  0  3  0  0  0  0  0  0
   36.1460   34.4100   32.3880 H   0  0  0  0  0  0  0  0  0  0  0  0
   37.6710   26.1550   34.2040 O   0  0  0  0  0  0  0  0  0  0  0  0
   39.5220   24.6930   34.9240 C   0  0  0  0  0  0  0  0  0  0  0  0
   39.0020   25.8800   34.4270 C   0  0  0  0  0  0  0  0  0  0  0  0
   39.8440   26.9290   34.1050 C   0  0  0  0  0  0  0  0  0  0  0  0
   41.2120   26.7930   34.2780 C   0  0  0  0  0  0  0  0  0  0  0  0
   41.7270   25.6080   34.7730 C   0  0  0  0  0  0  0  0  0  0  0  0
   40.8620   24.5790   35.0870 C   0  0  0  0  0  0  0  0  0  0  0  0
   39.5170   27.8710   33.7180 H   0  0  0  0  0  0  0  0  0  0  0  0
   41.9060   27.5900   34.0380 H   0  0  0  0  0  0  0  0  0  0  0  0
   42.7930   25.4510   34.9290 H   0  0  0  0  0  0  0  0  0  0  0  0
   41.4250   23.3230   35.6140 C   0  0  0  0  0  0  0  0  0  0  0  0
   41.5020   22.8700   36.9070 C   0  0  0  0  0  0  0  0  0  0  0  0
   42.1250   21.6230   36.8780 C   0  0  0  0  0  0  0  0  0  0  0  0
   42.3920   21.3950   35.5370 C   0  0  0  0  0  0  0  0  0  0  0  0
   41.9690   22.4150   34.8010 O   0  0  0  0  0  0  0  0  0  0  0  0
   41.1410   23.3990   37.7740 H   0  0  0  0  0  0  0  0  0  0  0  0
   42.3480   20.9800   37.7200 H   0  0  0  0  0  0  0  0  0  0  0  0
   42.8800   20.5050   35.1370 H   0  0  0  0  0  0  0  0  0  0  0  0
   37.8280   22.8290   35.4620 N   0  0  0  0  0  0  0  0  0  0  0  0
   38.5880   23.6600   35.2320 C   0  0  0  0  0  0  0  0  0  0  0  0
  1 25  1  0  0  0  0
  2 11  1  0  0  0  0
  2  1  1  0  0  0  0
  3  2  2  0  0  0  0
  4  3  1  0  0  0  0
  4  5  2  0  0  0  0
  5  6  1  0  0  0  0
  6  1  2  0  0  0  0
  7  3  1  0  0  0  0
  8  5  1  0  0  0  0
  9 14  1  0  0  0  0
 10  9  2  0  0  0  0
 11 12  1  0  0  0  0
 11  9  1  0  0  0  0
 13 23  1  0  0  0  0
 14 13  2  0  0  0  0
 15 17  2  0  0  0  0
 15 14  1  0  0  0  0
 16 15  1  0  0  0  0
 17 22  1  0  0  0  0
 18 17  1  0  0  0  0
 18 19  1  0  0  0  0
 19 21  2  0  0  0  0
 20 19  1  0  0  0  0
 22 21  1  0  0  0  0
 22 23  2  0  0  0  0
 24 18  1  0  0  0  0
 25 27  1  0  0  0  0
 26 31  1  0  0  0  0
 26 44  1  0  0  0  0
 27 26  2  0  0  0  0
 28 29  2  0  0  0  0
 28 27  1  0  0  0  0
 29 30  1  0  0  0  0
 30 34  1  0  0  0  0
 30 31  2  0  0  0  0
 31 35  1  0  0  0  0
 32 28  1  0  0  0  0
 33 29  1  0  0  0  0
 35 36  2  0  0  0  0
 36 40  1  0  0  0  0
 37 36  1  0  0  0  0
 37 41  1  0  0  0  0
 38 37  2  0  0  0  0
 39 38  1  0  0  0  0
 39 35  1  0  0  0  0
 42 38  1  0  0  0  0
 44 43  3  0  0  0  0
M  END
>  <minimizedAffinity>
-6.26895237

$$$$

 OpenBabel03272507433D

 44 48  0  0  0  0  0  0  0  0999 V2000
   36.5920   26.3470   31.4680 C   0  0  0  0  0  0  0  0  0  0  0  0
   37.3290   25.2970   32.0100 C   0  0  0  0  0  0  0  0  0  0  0  0
   36.8650   24.0030   32.0140 C   0  0  0  0  0  0  0  0  0  0  0  0
   35.6410   23.7820   31.4630 N   0  0  0  0  0  0  0  0  0  0  0  0
   34.9180   24.8110   30.9310 C   0  0  0  0  0  0  0  0  0  0  0  0
   35.3970   26.0520   30.9440 N   0  0  0  0  0  0  0  0  0  0  0  0
   37.3620   23.1550   32.4040 H   0  0  0  0  0  0  0  0  0  0  0  0
   33.9350   24.6520   30.4850 H   0  0  0  0  0  0  0  0  0  0  0  0
   38.8280   24.9910   33.9430 C   0  0  0  0  0  0  0  0  0  0  0  0
   38.0190   24.5910   34.8640 O   0  0  0  0  0  0  0  0  0  0  0  0
   38.5960   25.4140   32.6160 N   0  0  0  0  0  0  0  0  0  0  0  0
   39.2440   25.8320   31.9480 H   0  0  0  0  0  0  0  0  0  0  0  0
   41.1220   25.9900   34.1010 C   0  0  0  0  0  3  0  0  0  0  0  0
   40.2190   24.9910   34.3960 C   0  0  0  0  0  0  0  0  0  0  0  0
   40.7730   23.9930   35.1680 C   0  0  0  0  0  0  0  0  0  0  0  0
   40.1490   23.1460   35.4650 H   0  0  0  0  0  0  0  0  0  0  0  0
   42.0740   23.9450   35.6210 C   0  0  0  0  0  0  0  0  0  0  0  0
   42.7590   23.0610   36.3680 N   0  0  0  0  0  0  0  0  0  0  0  0
   44.0170   23.5180   36.5080 C   0  0  0  0  0  0  0  0  0  0  0  0
   44.8520   23.0630   37.0500 H   0  0  0  0  0  0  0  0  0  0  0  0
   44.1100   24.6900   35.8450 N   0  0  0  0  0  0  0  0  0  0  0  0
   42.9120   24.9840   35.2800 C   0  0  0  0  0  0  0  0  0  0  0  0
   42.4350   26.0220   34.5100 C   0  0  0  0  0  3  0  0  0  0  0  0
   42.4150   22.1670   36.7840 H   0  0  0  0  0  0  0  0  0  0  0  0
   37.2180   27.5420   31.5580 O   0  0  0  0  0  0  0  0  0  0  0  0
   36.2120   29.1940   33.0880 C   0  0  0  0  0  0  0  0  0  0  0  0
   36.5930   28.7380   31.8340 C   0  0  0  0  0  0  0  0  0  0  0  0
   36.3510   29.5060   30.7100 C   0  0  0  0  0  0  0  0  0  0  0  0
   35.7270   30.7370   30.8370 C   0  0  0  0  0  0  0  0  0  0  0  0
   35.3490   31.1890   32.0890 C   0  0  0  0  0  0  0  0  0  0  0  0
   35.6030   30.4000   33.1930 C   0  0  0  0  0  0  0  0  0  0  0  0
   36.6150   29.2210   29.7130 H   0  0  0  0  0  0  0  0  0  0  0  0
   35.5180   31.3700   29.9820 H   0  0  0  0  0  0  0  0  0  0  0  0
   34.8560   32.1470   32.2430 H   0  0  0  0  0  0  0  0  0  0  0  0
   35.1950   30.8950   34.5200 C   0  0  0  0  0  0  0  0  0  0  0  0
   35.9210   31.5730   35.4650 C   0  0  0  0  0  0  0  0  0  0  0  0
   35.0780   31.8140   36.5490 C   0  0  0  0  0  0  0  0  0  0  0  0
   33.8650   31.2530   36.1820 C   0  0  0  0  0  0  0  0  0  0  0  0
   33.9530   30.7110   34.9730 O   0  0  0  0  0  0  0  0  0  0  0  0
   36.9560   31.8580   35.3680 H   0  0  0  0  0  0  0  0  0  0  0  0
   35.3220   32.3260   37.4710 H   0  0  0  0  0  0  0  0  0  0  0  0
   32.9620   31.2530   36.7940 H   0  0  0  0  0  0  0  0  0  0  0  0
   36.7420   27.6500   35.0800 N   0  0  0  0  0  0  0  0  0  0  0  0
   36.4970   28.3430   34.1970 C   0  0  0  0  0  0  0  0  0  0  0  0
  1 25  1  0  0  0  0
  1  2  1  0  0  0  0
  2  3  2  0  0  0  0
  2 11  1  0  0  0  0
  3  7  1  0  0  0  0
  4  3  1  0  0  0  0
  5  6  1  0  0  0  0
  5  4  2  0  0  0  0
  6  1  2  0  0  0  0
  8  5  1  0  0  0  0
  9 14  1  0  0  0  0
  9 10  2  0  0  0  0
 11  9  1  0  0  0  0
 12 11  1  0  0  0  0
 13 14  2  0  0  0  0
 13 23  1  0  0  0  0
 14 15  1  0  0  0  0
 15 16  1  0  0  0  0
 15 17  2  0  0  0  0
 17 18  1  0  0  0  0
 18 19  1  0  0  0  0
 18 24  1  0  0  0  0
 19 20  1  0  0  0  0
 21 19  2  0  0  0  0
 22 17  1  0  0  0  0
 22 21  1  0  0  0  0
 23 22  2  0  0  0  0
 25 27  1  0  0  0  0
 26 31  1  0  0  0  0
 26 44  1  0  0  0  0
 27 26  2  0  0  0  0
 28 29  2  0  0  0  0
 28 27  1  0  0  0  0
 29 30  1  0  0  0  0
 30 34  1  0  0  0  0
 30 31  2  0  0  0  0
 31 35  1  0  0  0  0
 32 28  1  0  0  0  0
 33 29  1  0  0  0  0
 35 39  1  0  0  0  0
 35 36  2  0  0  0  0
 36 37  1  0  0  0  0
 37 41  1  0  0  0  0
 38 37  2  0  0  0  0
 38 42  1  0  0  0  0
 39 38  1  0  0  0  0
 40 36  1  0  0  0  0
 44 43  3  0  0  0  0
M  END
>  <minimizedAffinity>
-6.16774082

$$$$

 OpenBabel03272507433D

 44 48  0  0  0  0  0  0  0  0999 V2000
   36.1830   28.8730   32.2870 C   0  0  0  0  0  0  0  0  0  0  0  0
   37.3020   28.0430   32.3150 C   0  0  0  0  0  0  0  0  0  0  0  0
   38.1670   27.9450   31.2520 C   0  0  0  0  0  0  0  0  0  0  0  0
   37.8870   28.6990   30.1540 N   0  0  0  0  0  0  0  0  0  0  0  0
   36.7920   29.5130   30.1260 C   0  0  0  0  0  0  0  0  0  0  0  0
   35.9740   29.5840   31.1730 N   0  0  0  0  0  0  0  0  0  0  0  0
   39.0330   27.3410   31.1960 H   0  0  0  0  0  0  0  0  0  0  0  0
   36.5530   30.1250   29.2540 H   0  0  0  0  0  0  0  0  0  0  0  0
   37.4220   25.8230   33.3800 C   0  0  0  0  0  0  0  0  0  0  0  0
   36.7390   25.0870   32.5730 O   0  0  0  0  0  0  0  0  0  0  0  0
   37.6770   27.2130   33.3900 N   0  0  0  0  0  0  0  0  0  0  0  0
   38.1270   27.7830   34.1060 H   0  0  0  0  0  0  0  0  0  0  0  0
   39.0140   24.1040   34.2740 C   0  0  0  0  0  3  0  0  0  0  0  0
   38.0210   25.0420   34.4620 C   0  0  0  0  0  0  0  0  0  0  0  0
   37.6560   25.1620   35.7870 C   0  0  0  0  0  0  0  0  0  0  0  0
   36.8760   25.8780   36.0570 H   0  0  0  0  0  0  0  0  0  0  0  0
   38.1880   24.4530   36.8410 C   0  0  0  0  0  0  0  0  0  0  0  0
   37.9480   24.4500   38.1660 N   0  0  0  0  0  0  0  0  0  0  0  0
   38.7660   23.5460   38.7360 C   0  0  0  0  0  0  0  0  0  0  0  0
   38.8510   23.2750   39.7930 H   0  0  0  0  0  0  0  0  0  0  0  0
   39.5140   22.9890   37.7620 N   0  0  0  0  0  0  0  0  0  0  0  0
   39.1770   23.5340   36.5670 C   0  0  0  0  0  0  0  0  0  0  0  0
   39.5990   23.3530   35.2670 C   0  0  0  0  0  3  0  0  0  0  0  0
   37.2600   25.0290   38.6960 H   0  0  0  0  0  0  0  0  0  0  0  0
   35.4580   28.8320   33.4270 O   0  0  0  0  0  0  0  0  0  0  0  0
   34.1650   30.6300   34.5120 C   0  0  0  0  0  0  0  0  0  0  0  0
   34.3040   29.5500   33.6510 C   0  0  0  0  0  0  0  0  0  0  0  0
   33.2220   29.0990   32.9180 C   0  0  0  0  0  0  0  0  0  0  0  0
   31.9930   29.7280   33.0440 C   0  0  0  0  0  0  0  0  0  0  0  0
   31.8580   30.8040   33.9020 C   0  0  0  0  0  0  0  0  0  0  0  0
   32.9560   31.2320   34.6210 C   0  0  0  0  0  0  0  0  0  0  0  0
   33.2530   28.2750   32.2370 H   0  0  0  0  0  0  0  0  0  0  0  0
   31.1200   29.4060   32.4880 H   0  0  0  0  0  0  0  0  0  0  0  0
   30.9160   31.3320   34.0370 H   0  0  0  0  0  0  0  0  0  0  0  0
   32.7960   32.3790   35.5320 C   0  0  0  0  0  0  0  0  0  0  0  0
   32.3870   32.4110   36.8410 C   0  0  0  0  0  0  0  0  0  0  0  0
   32.4040   33.7420   37.2550 C   0  0  0  0  0  0  0  0  0  0  0  0
   32.8340   34.4490   36.1430 C   0  0  0  0  0  0  0  0  0  0  0  0
   33.0620   33.6240   35.1290 O   0  0  0  0  0  0  0  0  0  0  0  0
   32.1060   31.5500   37.4260 H   0  0  0  0  0  0  0  0  0  0  0  0
   32.1400   34.1310   38.2300 H   0  0  0  0  0  0  0  0  0  0  0  0
   32.9680   35.5310   36.1000 H   0  0  0  0  0  0  0  0  0  0  0  0
   36.2590   31.3490   35.8270 N   0  0  0  0  0  0  0  0  0  0  0  0
   35.3280   31.0340   35.2310 C   0  0  0  0  0  0  0  0  0  0  0  0
  1  2  1  0  0  0  0
  1 25  1  0  0  0  0
  2 11  1  0  0  0  0
  3  2  2  0  0  0  0
  4  3  1  0  0  0  0
  5  4  2  0  0  0  0
  5  6  1  0  0  0  0
  6  1  2  0  0  0  0
  7  3  1  0  0  0  0
  8  5  1  0  0  0  0
  9 11  1  0  0  0  0
  9 14  1  0  0  0  0
 10  9  2  0  0  0  0
 11 12  1  0  0  0  0
 13 14  2  0  0  0  0
 13 23  1  0  0  0  0
 14 15  1  0  0  0  0
 15 16  1  0  0  0  0
 15 17  2  0  0  0  0
 17 18  1  0  0  0  0
 18 24  1  0  0  0  0
 18 19  1  0  0  0  0
 19 20  1  0  0  0  0
 21 19  2  0  0  0  0
 22 17  1  0  0  0  0
 22 21  1  0  0  0  0
 23 22  2  0  0  0  0
 25 27  1  0  0  0  0
 26 31  1  0  0  0  0
 26 44  1  0  0  0  0
 27 26  2  0  0  0  0
 28 29  2  0  0  0  0
 28 27  1  0  0  0  0
 29 30  1  0  0  0  0
 30 34  1  0  0  0  0
 30 31  2  0  0  0  0
 31 35  1  0  0  0  0
 32 28  1  0  0  0  0
 33 29  1  0  0  0  0
 35 36  2  0  0  0  0
 36 37  1  0  0  0  0
 36 40  1  0  0  0  0
 37 41  1  0  0  0  0
 38 37  2  0  0  0  0
 39 35  1  0  0  0  0
 39 38  1  0  0  0  0
 42 38  1  0  0  0  0
 44 43  3  0  0  0  0
M  END
>  <minimizedAffinity>
-6.13231897

$$$$

 OpenBabel03272507433D

 44 48  0  0  0  0  0  0  0  0999 V2000
   37.0610   26.6870   33.1560 C   0  0  0  0  0  0  0  0  0  0  0  0
   36.5090   25.9420   32.1160 C   0  0  0  0  0  0  0  0  0  0  0  0
   35.9860   26.5330   30.9900 C   0  0  0  0  0  0  0  0  0  0  0  0
   36.0270   27.8910   30.9270 N   0  0  0  0  0  0  0  0  0  0  0  0
   36.5690   28.6210   31.9460 C   0  0  0  0  0  0  0  0  0  0  0  0
   37.0660   28.0180   33.0220 N   0  0  0  0  0  0  0  0  0  0  0  0
   35.5510   26.0390   30.1620 H   0  0  0  0  0  0  0  0  0  0  0  0
   36.6100   29.7120   31.9120 H   0  0  0  0  0  0  0  0  0  0  0  0
   37.3430   23.7360   31.4000 C   0  0  0  0  0  0  0  0  0  0  0  0
   38.3150   24.0460   30.6120 O   0  0  0  0  0  0  0  0  0  0  0  0
   36.4020   24.5380   32.0830 N   0  0  0  0  0  0  0  0  0  0  0  0
   35.5740   24.2570   32.6090 H   0  0  0  0  0  0  0  0  0  0  0  0
   38.3110   21.4330   31.6110 C   0  0  0  0  0  3  0  0  0  0  0  0
   37.2320   22.2900   31.5930 C   0  0  0  0  0  0  0  0  0  0  0  0
   36.0350   21.6320   31.7790 C   0  0  0  0  0  0  0  0  0  0  0  0
   35.1090   22.2120   31.7830 H   0  0  0  0  0  0  0  0  0  0  0  0
   35.8760   20.2760   31.9650 C   0  0  0  0  0  0  0  0  0  0  0  0
   34.8000   19.4910   32.1560 N   0  0  0  0  0  0  0  0  0  0  0  0
   35.2260   18.2210   32.2810 C   0  0  0  0  0  0  0  0  0  0  0  0
   34.6340   17.3150   32.4480 H   0  0  0  0  0  0  0  0  0  0  0  0
   36.5710   18.2200   32.1670 N   0  0  0  0  0  0  0  0  0  0  0  0
   37.0060   19.4890   31.9690 C   0  0  0  0  0  0  0  0  0  0  0  0
   38.2430   20.0700   31.7900 C   0  0  0  0  0  3  0  0  0  0  0  0
   33.7960   19.7760   32.2050 H   0  0  0  0  0  0  0  0  0  0  0  0
   37.5220   25.9260   34.1730 O   0  0  0  0  0  0  0  0  0  0  0  0
   39.4070   24.4900   34.8540 C   0  0  0  0  0  0  0  0  0  0  0  0
   38.8530   25.6930   34.4400 C   0  0  0  0  0  0  0  0  0  0  0  0
   39.6550   26.8050   34.2600 C   0  0  0  0  0  0  0  0  0  0  0  0
   41.0180   26.7170   34.4930 C   0  0  0  0  0  0  0  0  0  0  0  0
   41.5680   25.5160   34.9060 C   0  0  0  0  0  0  0  0  0  0  0  0
   40.7420   24.4230   35.0780 C   0  0  0  0  0  0  0  0  0  0  0  0
   39.2990   27.7630   33.9430 H   0  0  0  0  0  0  0  0  0  0  0  0
   41.6820   27.5640   34.3640 H   0  0  0  0  0  0  0  0  0  0  0  0
   42.6310   25.3940   35.1030 H   0  0  0  0  0  0  0  0  0  0  0  0
   41.3420   23.1510   35.5180 C   0  0  0  0  0  0  0  0  0  0  0  0
   41.5550   22.6730   36.7860 C   0  0  0  0  0  0  0  0  0  0  0  0
   42.1530   21.4190   36.6680 C   0  0  0  0  0  0  0  0  0  0  0  0
   42.2660   21.2120   35.3020 C   0  0  0  0  0  0  0  0  0  0  0  0
   41.7790   22.2510   34.6340 O   0  0  0  0  0  0  0  0  0  0  0  0
   41.3000   23.1910   37.6970 H   0  0  0  0  0  0  0  0  0  0  0  0
   42.4580   20.7580   37.4690 H   0  0  0  0  0  0  0  0  0  0  0  0
   42.6930   20.3240   34.8350 H   0  0  0  0  0  0  0  0  0  0  0  0
   37.7880   22.5050   35.1290 N   0  0  0  0  0  0  0  0  0  0  0  0
   38.5130   23.3910   35.0170 C   0  0  0  0  0  0  0  0  0  0  0  0
  1 25  1  0  0  0  0
  2  1  2  0  0  0  0
  3  2  1  0  0  0  0
  4  3  2  0  0  0  0
  4  5  1  0  0  0  0
  5  6  2  0  0  0  0
  6  1  1  0  0  0  0
  7  3  1  0  0  0  0
  8  5  1  0  0  0  0
  9 14  1  0  0  0  0
  9 11  1  0  0  0  0
 10  9  2  0  0  0  0
 11  2  1  0  0  0  0
 11 12  1  0  0  0  0
 13 23  1  0  0  0  0
 14 13  2  0  0  0  0
 14 15  1  0  0  0  0
 15 16  1  0  0  0  0
 15 17  2  0  0  0  0
 17 22  1  0  0  0  0
 17 18  1  0  0  0  0
 18 24  1  0  0  0  0
 18 19  1  0  0  0  0
 19 20  1  0  0  0  0
 21 19  2  0  0  0  0
 22 21  1  0  0  0  0
 23 22  2  0  0  0  0
 25 27  1  0  0  0  0
 26 44  1  0  0  0  0
 26 31  1  0  0  0  0
 27 26  2  0  0  0  0
 28 27  1  0  0  0  0
 28 29  2  0  0  0  0
 29 30  1  0  0  0  0
 30 31  2  0  0  0  0
 30 34  1  0  0  0  0
 31 35  1  0  0  0  0
 32 28  1  0  0  0  0
 33 29  1  0  0  0  0
 35 36  2  0  0  0  0
 36 40  1  0  0  0  0
 37 36  1  0  0  0  0
 37 41  1  0  0  0  0
 38 37  2  0  0  0  0
 39 38  1  0  0  0  0
 39 35  1  0  0  0  0
 42 38  1  0  0  0  0
 44 43  3  0  0  0  0
M  END
>  <minimizedAffinity>
-6.0765729

$$$$

 OpenBabel03272507433D

 44 48  0  0  0  0  0  0  0  0999 V2000
   37.5330   29.0900   29.6550 C   0  0  0  0  0  0  0  0  0  0  0  0
   38.4420   28.2850   30.3380 C   0  0  0  0  0  0  0  0  0  0  0  0
   39.5630   27.7700   29.7320 C   0  0  0  0  0  0  0  0  0  0  0  0
   39.7570   28.0810   28.4220 N   0  0  0  0  0  0  0  0  0  0  0  0
   38.8680   28.8710   27.7520 C   0  0  0  0  0  0  0  0  0  0  0  0
   37.7920   29.3520   28.3680 N   0  0  0  0  0  0  0  0  0  0  0  0
   40.2960   27.1540   30.1810 H   0  0  0  0  0  0  0  0  0  0  0  0
   39.0090   29.1300   26.7010 H   0  0  0  0  0  0  0  0  0  0  0  0
   37.8090   26.6310   32.0530 C   0  0  0  0  0  0  0  0  0  0  0  0
   37.2350   25.7110   31.3570 O   0  0  0  0  0  0  0  0  0  0  0  0
   38.3320   27.8910   31.6860 N   0  0  0  0  0  0  0  0  0  0  0  0
   38.6790   28.6450   32.2790 H   0  0  0  0  0  0  0  0  0  0  0  0
   38.0490   27.1790   34.4880 C   0  0  0  0  0  3  0  0  0  0  0  0
   37.9180   26.2640   33.4650 C   0  0  0  0  0  0  0  0  0  0  0  0
   37.8980   24.9640   33.9220 C   0  0  0  0  0  0  0  0  0  0  0  0
   37.7970   24.1510   33.1990 H   0  0  0  0  0  0  0  0  0  0  0  0
   37.9960   24.5660   35.2380 C   0  0  0  0  0  0  0  0  0  0  0  0
   37.9940   23.3620   35.8400 N   0  0  0  0  0  0  0  0  0  0  0  0
   38.1200   23.5580   37.1650 C   0  0  0  0  0  0  0  0  0  0  0  0
   38.1560   22.8120   37.9650 H   0  0  0  0  0  0  0  0  0  0  0  0
   38.2000   24.8870   37.3830 N   0  0  0  0  0  0  0  0  0  0  0  0
   38.1250   25.5430   36.1990 C   0  0  0  0  0  0  0  0  0  0  0  0
   38.1530   26.8690   35.8250 C   0  0  0  0  0  3  0  0  0  0  0  0
   37.9110   22.4200   35.3960 H   0  0  0  0  0  0  0  0  0  0  0  0
   36.4970   29.4980   30.4210 O   0  0  0  0  0  0  0  0  0  0  0  0
   35.9630   30.7550   32.4740 C   0  0  0  0  0  0  0  0  0  0  0  0
   36.4920   30.6360   31.1960 C   0  0  0  0  0  0  0  0  0  0  0  0
   37.0850   31.7240   30.5830 C   0  0  0  0  0  0  0  0  0  0  0  0
   37.1500   32.9390   31.2470 C   0  0  0  0  0  0  0  0  0  0  0  0
   36.6230   33.0540   32.5210 C   0  0  0  0  0  0  0  0  0  0  0  0
   36.0370   31.9500   33.1070 C   0  0  0  0  0  0  0  0  0  0  0  0
   37.5130   31.7080   29.6020 H   0  0  0  0  0  0  0  0  0  0  0  0
   37.6060   33.8160   30.8020 H   0  0  0  0  0  0  0  0  0  0  0  0
   36.6480   33.9840   33.0840 H   0  0  0  0  0  0  0  0  0  0  0  0
   35.4790   32.0880   34.4640 C   0  0  0  0  0  0  0  0  0  0  0  0
   36.0750   31.8890   35.6830 C   0  0  0  0  0  0  0  0  0  0  0  0
   35.1210   32.1510   36.6660 C   0  0  0  0  0  0  0  0  0  0  0  0
   33.9800   32.5010   35.9620 C   0  0  0  0  0  0  0  0  0  0  0  0
   34.2110   32.4590   34.6550 O   0  0  0  0  0  0  0  0  0  0  0  0
   37.0990   31.5840   35.8330 H   0  0  0  0  0  0  0  0  0  0  0  0
   35.2500   32.0920   37.7390 H   0  0  0  0  0  0  0  0  0  0  0  0
   33.0240   32.7740   36.4110 H   0  0  0  0  0  0  0  0  0  0  0  0
   34.8740   28.6540   33.4920 N   0  0  0  0  0  0  0  0  0  0  0  0
   35.3700   29.5860   33.0360 C   0  0  0  0  0  0  0  0  0  0  0  0
  1  2  1  0  0  0  0
  1 25  1  0  0  0  0
  2 11  1  0  0  0  0
  3  7  1  0  0  0  0
  3  2  2  0  0  0  0
  4  3  1  0  0  0  0
  5  6  1  0  0  0  0
  5  4  2  0  0  0  0
  6  1  2  0  0  0  0
  8  5  1  0  0  0  0
  9 14  1  0  0  0  0
 10  9  2  0  0  0  0
 11  9  1  0  0  0  0
 11 12  1  0  0  0  0
 13 23  1  0  0  0  0
 14 15  1  0  0  0  0
 14 13  2  0  0  0  0
 15 17  2  0  0  0  0
 16 15  1  0  0  0  0
 17 18  1  0  0  0  0
 17 22  1  0  0  0  0
 18 19  1  0  0  0  0
 19 21  2  0  0  0  0
 19 20  1  0  0  0  0
 22 21  1  0  0  0  0
 23 22  2  0  0  0  0
 24 18  1  0  0  0  0
 25 27  1  0  0  0  0
 26 44  1  0  0  0  0
 26 31  1  0  0  0  0
 27 26  2  0  0  0  0
 28 27  1  0  0  0  0
 28 29  2  0  0  0  0
 29 30  1  0  0  0  0
 30 34  1  0  0  0  0
 30 31  2  0  0  0  0
 31 35  1  0  0  0  0
 32 28  1  0  0  0  0
 33 29  1  0  0  0  0
 35 39  1  0  0  0  0
 35 36  2  0  0  0  0
 36 40  1  0  0  0  0
 36 37  1  0  0  0  0
 37 41  1  0  0  0  0
 38 42  1  0  0  0  0
 38 37  2  0  0  0  0
 39 38  1  0  0  0  0
 44 43  3  0  0  0  0
M  END
>  <minimizedAffinity>
-6.07285452

$$$$

 OpenBabel03272507433D

 44 48  0  0  0  0  0  0  0  0999 V2000
   38.0710   25.8260   31.3180 C   0  0  0  0  0  0  0  0  0  0  0  0
   38.2010   27.2050   31.4700 C   0  0  0  0  0  0  0  0  0  0  0  0
   39.0790   27.9450   30.7150 C   0  0  0  0  0  0  0  0  0  0  0  0
   39.8290   27.2730   29.8000 N   0  0  0  0  0  0  0  0  0  0  0  0
   39.7020   25.9220   29.6500 C   0  0  0  0  0  0  0  0  0  0  0  0
   38.8430   25.2350   30.3970 N   0  0  0  0  0  0  0  0  0  0  0  0
   39.2350   28.9900   30.7710 H   0  0  0  0  0  0  0  0  0  0  0  0
   40.2960   25.3670   28.9210 H   0  0  0  0  0  0  0  0  0  0  0  0
   36.3800   28.7800   31.9990 C   0  0  0  0  0  0  0  0  0  0  0  0
   35.9010   29.0570   30.8350 O   0  0  0  0  0  0  0  0  0  0  0  0
   37.4870   27.9960   32.3920 N   0  0  0  0  0  0  0  0  0  0  0  0
   37.9080   27.8880   33.3150 H   0  0  0  0  0  0  0  0  0  0  0  0
   34.2400   29.3130   33.1930 C   0  0  0  0  0  3  0  0  0  0  0  0
   35.6100   29.4080   33.0730 C   0  0  0  0  0  0  0  0  0  0  0  0
   36.1750   30.1620   34.0800 C   0  0  0  0  0  0  0  0  0  0  0  0
   37.2580   30.3070   34.0870 H   0  0  0  0  0  0  0  0  0  0  0  0
   35.4970   30.7740   35.1120 C   0  0  0  0  0  0  0  0  0  0  0  0
   35.8900   31.5290   36.1540 N   0  0  0  0  0  0  0  0  0  0  0  0
   34.7960   31.8670   36.8610 C   0  0  0  0  0  0  0  0  0  0  0  0
   34.7310   32.4730   37.7700 H   0  0  0  0  0  0  0  0  0  0  0  0
   33.7230   31.3180   36.2540 N   0  0  0  0  0  0  0  0  0  0  0  0
   34.1280   30.6290   35.1590 C   0  0  0  0  0  0  0  0  0  0  0  0
   33.4860   29.8900   34.1890 C   0  0  0  0  0  3  0  0  0  0  0  0
   36.8600   31.8240   36.4050 H   0  0  0  0  0  0  0  0  0  0  0  0
   37.1570   25.2800   32.1490 O   0  0  0  0  0  0  0  0  0  0  0  0
   37.8960   24.2140   34.2460 C   0  0  0  0  0  0  0  0  0  0  0  0
   37.3820   24.1870   32.9570 C   0  0  0  0  0  0  0  0  0  0  0  0
   37.0430   22.9840   32.3660 C   0  0  0  0  0  0  0  0  0  0  0  0
   37.2180   21.8000   33.0650 C   0  0  0  0  0  0  0  0  0  0  0  0
   37.7300   21.8290   34.3490 C   0  0  0  0  0  0  0  0  0  0  0  0
   38.0600   23.0460   34.9130 C   0  0  0  0  0  0  0  0  0  0  0  0
   36.6430   22.8860   31.3790 H   0  0  0  0  0  0  0  0  0  0  0  0
   36.9650   20.8360   32.6380 H   0  0  0  0  0  0  0  0  0  0  0  0
   37.8860   20.9290   34.9400 H   0  0  0  0  0  0  0  0  0  0  0  0
   38.6040   23.0610   36.2820 C   0  0  0  0  0  0  0  0  0  0  0  0
   37.9860   23.3590   37.4700 C   0  0  0  0  0  0  0  0  0  0  0  0
   38.9350   23.2290   38.4830 C   0  0  0  0  0  0  0  0  0  0  0  0
   40.0970   22.8500   37.8270 C   0  0  0  0  0  0  0  0  0  0  0  0
   39.8820   22.7560   36.5210 O   0  0  0  0  0  0  0  0  0  0  0  0
   36.9510   23.6410   37.5790 H   0  0  0  0  0  0  0  0  0  0  0  0
   38.7910   23.3880   39.5430 H   0  0  0  0  0  0  0  0  0  0  0  0
   41.0560   22.6560   38.3110 H   0  0  0  0  0  0  0  0  0  0  0  0
   38.4940   26.5170   35.2310 N   0  0  0  0  0  0  0  0  0  0  0  0
   38.2210   25.4940   34.7840 C   0  0  0  0  0  0  0  0  0  0  0  0
  1  2  1  0  0  0  0
  1 25  1  0  0  0  0
  2 11  1  0  0  0  0
  3  7  1  0  0  0  0
  3  2  2  0  0  0  0
  4  3  1  0  0  0  0
  5  4  2  0  0  0  0
  5  6  1  0  0  0  0
  6  1  2  0  0  0  0
  8  5  1  0  0  0  0
  9 11  1  0  0  0  0
  9 14  1  0  0  0  0
 10  9  2  0  0  0  0
 11 12  1  0  0  0  0
 13 23  1  0  0  0  0
 14 13  2  0  0  0  0
 14 15  1  0  0  0  0
 15 16  1  0  0  0  0
 15 17  2  0  0  0  0
 17 22  1  0  0  0  0
 17 18  1  0  0  0  0
 18 24  1  0  0  0  0
 18 19  1  0  0  0  0
 19 20  1  0  0  0  0
 21 19  2  0  0  0  0
 22 21  1  0  0  0  0
 23 22  2  0  0  0  0
 25 27  1  0  0  0  0
 26 44  1  0  0  0  0
 26 31  1  0  0  0  0
 27 26  2  0  0  0  0
 28 27  1  0  0  0  0
 28 29  2  0  0  0  0
 29 30  1  0  0  0  0
 30 31  2  0  0  0  0
 30 34  1  0  0  0  0
 31 35  1  0  0  0  0
 32 28  1  0  0  0  0
 33 29  1  0  0  0  0
 35 39  1  0  0  0  0
 35 36  2  0  0  0  0
 36 40  1  0  0  0  0
 36 37  1  0  0  0  0
 37 41  1  0  0  0  0
 38 42  1  0  0  0  0
 38 37  2  0  0  0  0
 39 38  1  0  0  0  0
 44 43  3  0  0  0  0
M  END
>  <minimizedAffinity>
-6.02247143

$$$$

 OpenBabel03272507433D

 44 48  0  0  0  0  0  0  0  0999 V2000
   37.1400   27.2320   31.6350 C   0  0  0  0  0  0  0  0  0  0  0  0
   36.2080   28.2370   31.3880 C   0  0  0  0  0  0  0  0  0  0  0  0
   36.3740   29.1580   30.3820 C   0  0  0  0  0  0  0  0  0  0  0  0
   37.4990   29.0520   29.6250 N   0  0  0  0  0  0  0  0  0  0  0  0
   38.4130   28.0670   29.8650 C   0  0  0  0  0  0  0  0  0  0  0  0
   38.2220   27.1910   30.8470 N   0  0  0  0  0  0  0  0  0  0  0  0
   35.7150   29.9470   30.1330 H   0  0  0  0  0  0  0  0  0  0  0  0
   39.3210   27.9670   29.2670 H   0  0  0  0  0  0  0  0  0  0  0  0
   34.8840   29.5190   33.0260 C   0  0  0  0  0  0  0  0  0  0  0  0
   35.7420   30.3680   33.4760 O   0  0  0  0  0  0  0  0  0  0  0  0
   35.0200   28.4460   32.1170 N   0  0  0  0  0  0  0  0  0  0  0  0
   34.3470   27.7210   31.8670 H   0  0  0  0  0  0  0  0  0  0  0  0
   32.3960   29.2070   33.0430 C   0  0  0  0  0  3  0  0  0  0  0  0
   33.5490   29.7410   33.5800 C   0  0  0  0  0  0  0  0  0  0  0  0
   33.3010   30.5070   34.6990 C   0  0  0  0  0  0  0  0  0  0  0  0
   34.1420   30.9820   35.2100 H   0  0  0  0  0  0  0  0  0  0  0  0
   32.0660   30.7470   35.2610 C   0  0  0  0  0  0  0  0  0  0  0  0
   31.6610   31.4570   36.3300 N   0  0  0  0  0  0  0  0  0  0  0  0
   30.3230   31.3470   36.4200 C   0  0  0  0  0  0  0  0  0  0  0  0
   29.6510   31.7890   37.1630 H   0  0  0  0  0  0  0  0  0  0  0  0
   29.8990   30.5670   35.4040 N   0  0  0  0  0  0  0  0  0  0  0  0
   30.9640   30.1760   34.6620 C   0  0  0  0  0  0  0  0  0  0  0  0
   31.1260   29.3950   33.5380 C   0  0  0  0  0  3  0  0  0  0  0  0
   32.2470   32.0080   36.9960 H   0  0  0  0  0  0  0  0  0  0  0  0
   36.7990   26.4250   32.6640 O   0  0  0  0  0  0  0  0  0  0  0  0
   38.1510   25.2140   34.3330 C   0  0  0  0  0  0  0  0  0  0  0  0
   37.4860   26.3340   33.8540 C   0  0  0  0  0  0  0  0  0  0  0  0
   37.4710   27.5050   34.5900 C   0  0  0  0  0  0  0  0  0  0  0  0
   38.1240   27.5590   35.8120 C   0  0  0  0  0  0  0  0  0  0  0  0
   38.7860   26.4410   36.2870 C   0  0  0  0  0  0  0  0  0  0  0  0
   38.7830   25.2860   35.5300 C   0  0  0  0  0  0  0  0  0  0  0  0
   36.9810   28.4060   34.2860 H   0  0  0  0  0  0  0  0  0  0  0  0
   38.1360   28.4560   36.4210 H   0  0  0  0  0  0  0  0  0  0  0  0
   39.3120   26.4310   37.2390 H   0  0  0  0  0  0  0  0  0  0  0  0
   39.4920   24.1030   36.0490 C   0  0  0  0  0  0  0  0  0  0  0  0
   39.0710   23.1470   36.9370 C   0  0  0  0  0  0  0  0  0  0  0  0
   40.1140   22.2370   37.1020 C   0  0  0  0  0  0  0  0  0  0  0  0
   41.1260   22.7120   36.2820 C   0  0  0  0  0  0  0  0  0  0  0  0
   40.7390   23.8210   35.6640 O   0  0  0  0  0  0  0  0  0  0  0  0
   38.1030   23.1220   37.4120 H   0  0  0  0  0  0  0  0  0  0  0  0
   40.1260   21.3570   37.7310 H   0  0  0  0  0  0  0  0  0  0  0  0
   42.1040   22.2460   36.1570 H   0  0  0  0  0  0  0  0  0  0  0  0
   38.0740   23.1100   32.8500 N   0  0  0  0  0  0  0  0  0  0  0  0
   38.1190   24.0470   33.5140 C   0  0  0  0  0  0  0  0  0  0  0  0
  1 25  1  0  0  0  0
  2  1  1  0  0  0  0
  2 11  1  0  0  0  0
  3  2  2  0  0  0  0
  4  5  2  0  0  0  0
  4  3  1  0  0  0  0
  5  6  1  0  0  0  0
  6  1  2  0  0  0  0
  7  3  1  0  0  0  0
  8  5  1  0  0  0  0
  9 10  2  0  0  0  0
  9 14  1  0  0  0  0
 11  9  1  0  0  0  0
 12 11  1  0  0  0  0
 13 23  2  0  0  0  0
 13 14  1  0  0  0  0
 14 15  2  0  0  0  0
 15 16  1  0  0  0  0
 15 17  1  0  0  0  0
 17 18  1  0  0  0  0
 18 19  1  0  0  0  0
 18 24  1  0  0  0  0
 19 20  1  0  0  0  0
 21 19  2  0  0  0  0
 22 17  2  0  0  0  0
 22 21  1  0  0  0  0
 23 22  1  0  0  0  0
 25 27  1  0  0  0  0
 26 31  1  0  0  0  0
 27 26  2  0  0  0  0
 27 28  1  0  0  0  0
 28 29  2  0  0  0  0
 29 30  1  0  0  0  0
 29 33  1  0  0  0  0
 30 34  1  0  0  0  0
 31 35  1  0  0  0  0
 31 30  2  0  0  0  0
 32 28  1  0  0  0  0
 35 36  2  0  0  0  0
 36 37  1  0  0  0  0
 36 40  1  0  0  0  0
 37 41  1  0  0  0  0
 38 37  2  0  0  0  0
 39 35  1  0  0  0  0
 39 38  1  0  0  0  0
 42 38  1  0  0  0  0
 43 44  3  0  0  0  0
 44 26  1  0  0  0  0
M  END
>  <minimizedAffinity>
-6.01711845

$$$$

 OpenBabel03272507433D

 44 48  0  0  0  0  0  0  0  0999 V2000
   37.0410   28.5870   30.5110 C   0  0  0  0  0  0  0  0  0  0  0  0
   36.6020   29.8500   30.8990 C   0  0  0  0  0  0  0  0  0  0  0  0
   36.7470   30.9550   30.0940 C   0  0  0  0  0  0  0  0  0  0  0  0
   37.3450   30.7670   28.8870 N   0  0  0  0  0  0  0  0  0  0  0  0
   37.7750   29.5290   28.5050 C   0  0  0  0  0  0  0  0  0  0  0  0
   37.6190   28.4810   29.3080 N   0  0  0  0  0  0  0  0  0  0  0  0
   36.4420   31.9430   30.3170 H   0  0  0  0  0  0  0  0  0  0  0  0
   38.2560   29.3610   27.5390 H   0  0  0  0  0  0  0  0  0  0  0  0
   34.6050   30.4420   32.2170 C   0  0  0  0  0  0  0  0  0  0  0  0
   33.7100   30.6200   31.3060 O   0  0  0  0  0  0  0  0  0  0  0  0
   35.9860   30.1590   32.1280 N   0  0  0  0  0  0  0  0  0  0  0  0
   36.6900   30.1360   32.8650 H   0  0  0  0  0  0  0  0  0  0  0  0
   34.2360   31.6630   34.3760 C   0  0  0  0  0  3  0  0  0  0  0  0
   34.0480   30.5650   33.5640 C   0  0  0  0  0  0  0  0  0  0  0  0
   33.2750   29.5940   34.1650 C   0  0  0  0  0  0  0  0  0  0  0  0
   33.0590   28.6750   33.6140 H   0  0  0  0  0  0  0  0  0  0  0  0
   32.7270   29.6590   35.4270 C   0  0  0  0  0  0  0  0  0  0  0  0
   31.9650   28.8160   36.1470 N   0  0  0  0  0  0  0  0  0  0  0  0
   31.7130   29.3930   37.3370 C   0  0  0  0  0  0  0  0  0  0  0  0
   31.1270   29.0020   38.1740 H   0  0  0  0  0  0  0  0  0  0  0  0
   32.3220   30.5970   37.3520 N   0  0  0  0  0  0  0  0  0  0  0  0
   32.9630   30.7930   36.1740 C   0  0  0  0  0  0  0  0  0  0  0  0
   33.7280   31.8110   35.6460 C   0  0  0  0  0  3  0  0  0  0  0  0
   31.6100   27.8740   35.8700 H   0  0  0  0  0  0  0  0  0  0  0  0
   36.8080   27.6310   31.4370 O   0  0  0  0  0  0  0  0  0  0  0  0
   38.8480   27.1130   32.7220 C   0  0  0  0  0  0  0  0  0  0  0  0
   37.5150   27.4830   32.6100 C   0  0  0  0  0  0  0  0  0  0  0  0
   36.7660   27.7420   33.7420 C   0  0  0  0  0  0  0  0  0  0  0  0
   37.3490   27.6320   34.9950 C   0  0  0  0  0  0  0  0  0  0  0  0
   38.6780   27.2630   35.1040 C   0  0  0  0  0  0  0  0  0  0  0  0
   39.4010   27.0100   33.9550 C   0  0  0  0  0  0  0  0  0  0  0  0
   35.7360   28.0310   33.7340 H   0  0  0  0  0  0  0  0  0  0  0  0
   36.7970   27.8260   35.9080 H   0  0  0  0  0  0  0  0  0  0  0  0
   39.1820   27.1620   36.0620 H   0  0  0  0  0  0  0  0  0  0  0  0
   40.8150   26.6180   34.0860 C   0  0  0  0  0  0  0  0  0  0  0  0
   41.3630   25.4420   34.5320 C   0  0  0  0  0  0  0  0  0  0  0  0
   42.7490   25.5710   34.4640 C   0  0  0  0  0  0  0  0  0  0  0  0
   42.9580   26.8480   33.9680 C   0  0  0  0  0  0  0  0  0  0  0  0
   41.7990   27.4560   33.7490 O   0  0  0  0  0  0  0  0  0  0  0  0
   40.8030   24.5850   34.8710 H   0  0  0  0  0  0  0  0  0  0  0  0
   43.4920   24.8330   34.7370 H   0  0  0  0  0  0  0  0  0  0  0  0
   43.9350   27.2970   33.7810 H   0  0  0  0  0  0  0  0  0  0  0  0
   40.1220   26.6430   30.5330 N   0  0  0  0  0  0  0  0  0  0  0  0
   39.5520   26.8630   31.5070 C   0  0  0  0  0  0  0  0  0  0  0  0
  1  2  1  0  0  0  0
  1 25  1  0  0  0  0
  2 11  1  0  0  0  0
  3  7  1  0  0  0  0
  3  2  2  0  0  0  0
  4  3  1  0  0  0  0
  5  4  2  0  0  0  0
  5  6  1  0  0  0  0
  6  1  2  0  0  0  0
  8  5  1  0  0  0  0
  9 14  1  0  0  0  0
 10  9  2  0  0  0  0
 11  9  1  0  0  0  0
 11 12  1  0  0  0  0
 13 23  1  0  0  0  0
 14 15  1  0  0  0  0
 14 13  2  0  0  0  0
 15 17  2  0  0  0  0
 16 15  1  0  0  0  0
 17 18  1  0  0  0  0
 17 22  1  0  0  0  0
 18 19  1  0  0  0  0
 19 21  2  0  0  0  0
 19 20  1  0  0  0  0
 22 21  1  0  0  0  0
 23 22  2  0  0  0  0
 24 18  1  0  0  0  0
 25 27  1  0  0  0  0
 26 31  1  0  0  0  0
 27 26  2  0  0  0  0
 27 28  1  0  0  0  0
 28 29  2  0  0  0  0
 29 30  1  0  0  0  0
 29 33  1  0  0  0  0
 30 34  1  0  0  0  0
 31 35  1  0  0  0  0
 31 30  2  0  0  0  0
 32 28  1  0  0  0  0
 35 36  2  0  0  0  0
 36 40  1  0  0  0  0
 37 36  1  0  0  0  0
 37 41  1  0  0  0  0
 38 37  2  0  0  0  0
 39 38  1  0  0  0  0
 39 35  1  0  0  0  0
 42 38  1  0  0  0  0
 43 44  3  0  0  0  0
 44 26  1  0  0  0  0
M  END
>  <minimizedAffinity>
-6.00772047

$$$$
