
 OpenBabel03272507413D

 44 48  0  0  0  0  0  0  0  0999 V2000
   36.7790   31.1930   50.0960 C   0  0  0  0  0  0  0  0  0  0  0  0
   35.7430   30.2890   49.8760 C   0  0  0  0  0  0  0  0  0  0  0  0
   35.5710   29.1690   50.6540 C   0  0  0  0  0  0  0  0  0  0  0  0
   36.4630   28.9720   51.6620 N   0  0  0  0  0  0  0  0  0  0  0  0
   37.4780   29.8580   51.8790 C   0  0  0  0  0  0  0  0  0  0  0  0
   37.6170   30.9320   51.1070 N   0  0  0  0  0  0  0  0  0  0  0  0
   34.8130   28.4390   50.5510 H   0  0  0  0  0  0  0  0  0  0  0  0
   38.2030   29.7160   52.6830 H   0  0  0  0  0  0  0  0  0  0  0  0
   34.3210   29.2520   48.1490 C   0  0  0  0  0  0  0  0  0  0  0  0
   34.7310   28.0300   48.1460 O   0  0  0  0  0  0  0  0  0  0  0  0
   34.7750   30.3870   48.8570 N   0  0  0  0  0  0  0  0  0  0  0  0
   34.5030   31.3650   48.7530 H   0  0  0  0  0  0  0  0  0  0  0  0
   33.0660   30.5270   46.3930 C   0  0  0  0  0  3  0  0  0  0  0  0
   33.1870   29.4530   47.2480 C   0  0  0  0  0  0  0  0  0  0  0  0
   32.1150   28.5890   47.1600 C   0  0  0  0  0  0  0  0  0  0  0  0
   32.1010   27.6990   47.7940 H   0  0  0  0  0  0  0  0  0  0  0  0
   31.0240   28.7320   46.3320 C   0  0  0  0  0  0  0  0  0  0  0  0
   29.9180   27.9960   46.1280 N   0  0  0  0  0  0  0  0  0  0  0  0
   29.1740   28.6090   45.1890 C   0  0  0  0  0  0  0  0  0  0  0  0
   28.2100   28.3000   44.7710 H   0  0  0  0  0  0  0  0  0  0  0  0
   29.8230   29.7300   44.8110 N   0  0  0  0  0  0  0  0  0  0  0  0
   30.9820   29.8350   45.5060 C   0  0  0  0  0  0  0  0  0  0  0  0
   32.0150   30.7470   45.5330 C   0  0  0  0  0  3  0  0  0  0  0  0
   29.6450   27.1000   46.5940 H   0  0  0  0  0  0  0  0  0  0  0  0
   36.7800   32.2290   49.2270 O   0  0  0  0  0  0  0  0  0  0  0  0
   38.2390   32.2210   47.2390 C   0  0  0  0  0  0  0  0  0  0  0  0
   37.8760   32.6510   48.5080 C   0  0  0  0  0  0  0  0  0  0  0  0
   38.6420   33.5910   49.1710 C   0  0  0  0  0  0  0  0  0  0  0  0
   39.7780   34.1060   48.5660 C   0  0  0  0  0  0  0  0  0  0  0  0
   40.1370   33.6760   47.3010 C   0  0  0  0  0  0  0  0  0  0  0  0
   39.3520   32.7360   46.6640 C   0  0  0  0  0  0  0  0  0  0  0  0
   38.4260   33.9700   50.1480 H   0  0  0  0  0  0  0  0  0  0  0  0
   40.4060   34.8440   49.0510 H   0  0  0  0  0  0  0  0  0  0  0  0
   41.0180   34.0480   46.7830 H   0  0  0  0  0  0  0  0  0  0  0  0
   39.7470   32.2860   45.3170 C   0  0  0  0  0  0  0  0  0  0  0  0
   40.5780   31.2610   44.9420 C   0  0  0  0  0  0  0  0  0  0  0  0
   40.6270   31.2470   43.5490 C   0  0  0  0  0  0  0  0  0  0  0  0
   39.8010   32.2900   43.1590 C   0  0  0  0  0  0  0  0  0  0  0  0
   39.2870   32.8960   44.2220 O   0  0  0  0  0  0  0  0  0  0  0  0
   41.0920   30.5980   45.6190 H   0  0  0  0  0  0  0  0  0  0  0  0
   41.1860   30.5690   42.9170 H   0  0  0  0  0  0  0  0  0  0  0  0
   39.5980   32.5780   42.1270 H   0  0  0  0  0  0  0  0  0  0  0  0
   36.7260   30.4690   46.1090 N   0  0  0  0  0  0  0  0  0  0  0  0
   37.3960   31.2490   46.6230 C   0  0  0  0  0  0  0  0  0  0  0  0
  1  6  1  0  0  0  0
  2  1  2  0  0  0  0
  2  3  1  0  0  0  0
  3  4  2  0  0  0  0
  4  5  1  0  0  0  0
  5  8  1  0  0  0  0
  6  5  2  0  0  0  0
  7  3  1  0  0  0  0
  9 11  1  0  0  0  0
 10  9  2  0  0  0  0
 11  2  1  0  0  0  0
 12 11  1  0  0  0  0
 13 14  1  0  0  0  0
 14  9  1  0  0  0  0
 15 14  2  0  0  0  0
 15 16  1  0  0  0  0
 17 15  1  0  0  0  0
 18 17  1  0  0  0  0
 18 24  1  0  0  0  0
 19 18  1  0  0  0  0
 20 19  1  0  0  0  0
 21 19  2  0  0  0  0
 21 22  1  0  0  0  0
 22 23  1  0  0  0  0
 22 17  2  0  0  0  0
 23 13  2  0  0  0  0
 25  1  1  0  0  0  0
 26 27  1  0  0  0  0
 27 28  2  0  0  0  0
 27 25  1  0  0  0  0
 28 32  1  0  0  0  0
 29 33  1  0  0  0  0
 29 28  1  0  0  0  0
 30 29  2  0  0  0  0
 31 26  2  0  0  0  0
 31 30  1  0  0  0  0
 34 30  1  0  0  0  0
 35 31  1  0  0  0  0
 36 35  2  0  0  0  0
 36 40  1  0  0  0  0
 37 36  1  0  0  0  0
 38 37  2  0  0  0  0
 38 39  1  0  0  0  0
 39 35  1  0  0  0  0
 41 37  1  0  0  0  0
 42 38  1  0  0  0  0
 43 44  3  0  0  0  0
 44 26  1  0  0  0  0
M  END
>  <minimizedAffinity>
-6.35167027

>  <minimizedRMSD>
0.541944861

$$$$
