
 OpenBabel03272507413D

 44 48  0  0  0  0  0  0  0  0999 V2000
   36.7870   31.2020   50.1150 C   0  0  0  0  0  0  0  0  0  0  0  0
   35.7510   30.3010   49.8780 C   0  0  0  0  0  0  0  0  0  0  0  0
   35.5750   29.1710   50.6400 C   0  0  0  0  0  0  0  0  0  0  0  0
   36.4630   28.9600   51.6500 N   0  0  0  0  0  0  0  0  0  0  0  0
   37.4770   29.8430   51.8840 C   0  0  0  0  0  0  0  0  0  0  0  0
   37.6200   30.9270   51.1270 N   0  0  0  0  0  0  0  0  0  0  0  0
   34.8180   28.4420   50.5240 H   0  0  0  0  0  0  0  0  0  0  0  0
   38.1980   29.6900   52.6900 H   0  0  0  0  0  0  0  0  0  0  0  0
   34.3340   29.2870   48.1350 C   0  0  0  0  0  0  0  0  0  0  0  0
   34.7390   28.0630   48.1210 O   0  0  0  0  0  0  0  0  0  0  0  0
   34.7890   30.4130   48.8550 N   0  0  0  0  0  0  0  0  0  0  0  0
   34.5210   31.3930   48.7600 H   0  0  0  0  0  0  0  0  0  0  0  0
   32.1830   28.5940   47.0470 C   0  0  0  0  0  3  0  0  0  0  0  0
   33.2040   29.5020   47.2310 C   0  0  0  0  0  0  0  0  0  0  0  0
   33.0400   30.6380   46.4660 C   0  0  0  0  0  0  0  0  0  0  0  0
   33.7900   31.4300   46.5300 H   0  0  0  0  0  0  0  0  0  0  0  0
   31.9970   30.8900   45.6020 C   0  0  0  0  0  0  0  0  0  0  0  0
   31.6940   31.9260   44.7990 N   0  0  0  0  0  0  0  0  0  0  0  0
   30.5410   31.6410   44.1660 C   0  0  0  0  0  0  0  0  0  0  0  0
   29.9920   32.2490   43.4400 H   0  0  0  0  0  0  0  0  0  0  0  0
   30.1290   30.4240   44.5800 N   0  0  0  0  0  0  0  0  0  0  0  0
   31.0170   29.9290   45.4770 C   0  0  0  0  0  0  0  0  0  0  0  0
   31.1070   28.7630   46.2070 C   0  0  0  0  0  3  0  0  0  0  0  0
   32.2300   32.8120   44.6620 H   0  0  0  0  0  0  0  0  0  0  0  0
   36.7920   32.2490   49.2610 O   0  0  0  0  0  0  0  0  0  0  0  0
   38.2480   32.2360   47.2710 C   0  0  0  0  0  0  0  0  0  0  0  0
   37.8870   32.6700   48.5390 C   0  0  0  0  0  0  0  0  0  0  0  0
   38.6540   33.6110   49.1990 C   0  0  0  0  0  0  0  0  0  0  0  0
   39.7890   34.1250   48.5910 C   0  0  0  0  0  0  0  0  0  0  0  0
   40.1470   33.6910   47.3270 C   0  0  0  0  0  0  0  0  0  0  0  0
   39.3610   32.7490   46.6930 C   0  0  0  0  0  0  0  0  0  0  0  0
   38.4390   33.9920   50.1750 H   0  0  0  0  0  0  0  0  0  0  0  0
   40.4190   34.8640   49.0740 H   0  0  0  0  0  0  0  0  0  0  0  0
   41.0280   34.0620   46.8070 H   0  0  0  0  0  0  0  0  0  0  0  0
   39.7550   32.2970   45.3470 C   0  0  0  0  0  0  0  0  0  0  0  0
   40.5900   31.2750   44.9730 C   0  0  0  0  0  0  0  0  0  0  0  0
   40.6340   31.2550   43.5800 C   0  0  0  0  0  0  0  0  0  0  0  0
   39.8020   32.2920   43.1890 C   0  0  0  0  0  0  0  0  0  0  0  0
   39.2880   32.9000   44.2510 O   0  0  0  0  0  0  0  0  0  0  0  0
   41.1090   30.6170   45.6520 H   0  0  0  0  0  0  0  0  0  0  0  0
   41.1950   30.5780   42.9490 H   0  0  0  0  0  0  0  0  0  0  0  0
   39.5940   32.5750   42.1560 H   0  0  0  0  0  0  0  0  0  0  0  0
   36.7340   30.4820   46.1470 N   0  0  0  0  0  0  0  0  0  0  0  0
   37.4050   31.2630   46.6580 C   0  0  0  0  0  0  0  0  0  0  0  0
  1  6  1  0  0  0  0
  2  1  2  0  0  0  0
  2  3  1  0  0  0  0
  3  4  2  0  0  0  0
  4  5  1  0  0  0  0
  5  8  1  0  0  0  0
  6  5  2  0  0  0  0
  7  3  1  0  0  0  0
  9 11  1  0  0  0  0
 10  9  2  0  0  0  0
 11  2  1  0  0  0  0
 12 11  1  0  0  0  0
 13 14  1  0  0  0  0
 14  9  1  0  0  0  0
 15 16  1  0  0  0  0
 15 14  2  0  0  0  0
 17 15  1  0  0  0  0
 18 17  1  0  0  0  0
 19 21  2  0  0  0  0
 19 18  1  0  0  0  0
 20 19  1  0  0  0  0
 21 22  1  0  0  0  0
 22 17  2  0  0  0  0
 22 23  1  0  0  0  0
 23 13  2  0  0  0  0
 24 18  1  0  0  0  0
 25  1  1  0  0  0  0
 26 27  1  0  0  0  0
 27 28  2  0  0  0  0
 27 25  1  0  0  0  0
 28 32  1  0  0  0  0
 29 33  1  0  0  0  0
 29 28  1  0  0  0  0
 30 29  2  0  0  0  0
 31 26  2  0  0  0  0
 31 30  1  0  0  0  0
 34 30  1  0  0  0  0
 35 31  1  0  0  0  0
 36 35  2  0  0  0  0
 36 40  1  0  0  0  0
 37 36  1  0  0  0  0
 38 37  2  0  0  0  0
 38 39  1  0  0  0  0
 39 35  1  0  0  0  0
 41 37  1  0  0  0  0
 42 38  1  0  0  0  0
 43 44  3  0  0  0  0
 44 26  1  0  0  0  0
M  END
>  <minimizedAffinity>
-6.40071726

>  <minimizedRMSD>
0.493045717

$$$$
