
 OpenBabel03272507413D

 44 48  0  0  0  0  0  0  0  0999 V2000
   36.7760   31.1900   50.1080 C   0  0  0  0  0  0  0  0  0  0  0  0
   35.7410   30.2850   49.8850 C   0  0  0  0  0  0  0  0  0  0  0  0
   35.5700   29.1630   50.6610 C   0  0  0  0  0  0  0  0  0  0  0  0
   36.4610   28.9660   51.6700 N   0  0  0  0  0  0  0  0  0  0  0  0
   37.4750   29.8530   51.8890 C   0  0  0  0  0  0  0  0  0  0  0  0
   37.6130   30.9290   51.1200 N   0  0  0  0  0  0  0  0  0  0  0  0
   34.8130   28.4320   50.5550 H   0  0  0  0  0  0  0  0  0  0  0  0
   38.1990   29.7110   52.6950 H   0  0  0  0  0  0  0  0  0  0  0  0
   34.3210   29.2490   48.1570 C   0  0  0  0  0  0  0  0  0  0  0  0
   34.7300   28.0270   48.1540 O   0  0  0  0  0  0  0  0  0  0  0  0
   34.7750   30.3840   48.8650 N   0  0  0  0  0  0  0  0  0  0  0  0
   34.5040   31.3620   48.7610 H   0  0  0  0  0  0  0  0  0  0  0  0
   33.0680   30.5260   46.4010 C   0  0  0  0  0  3  0  0  0  0  0  0
   33.1880   29.4510   47.2550 C   0  0  0  0  0  0  0  0  0  0  0  0
   32.1160   28.5860   47.1630 C   0  0  0  0  0  0  0  0  0  0  0  0
   32.1020   27.6950   47.7960 H   0  0  0  0  0  0  0  0  0  0  0  0
   31.0280   28.7300   46.3330 C   0  0  0  0  0  0  0  0  0  0  0  0
   29.9220   27.9930   46.1270 N   0  0  0  0  0  0  0  0  0  0  0  0
   29.1780   28.6080   45.1890 C   0  0  0  0  0  0  0  0  0  0  0  0
   28.2160   28.2980   44.7680 H   0  0  0  0  0  0  0  0  0  0  0  0
   29.8280   29.7300   44.8130 N   0  0  0  0  0  0  0  0  0  0  0  0
   30.9850   29.8350   45.5100 C   0  0  0  0  0  0  0  0  0  0  0  0
   32.0180   30.7480   45.5390 C   0  0  0  0  0  3  0  0  0  0  0  0
   29.6490   27.0970   46.5900 H   0  0  0  0  0  0  0  0  0  0  0  0
   36.7760   32.2270   49.2420 O   0  0  0  0  0  0  0  0  0  0  0  0
   38.2370   32.2210   47.2550 C   0  0  0  0  0  0  0  0  0  0  0  0
   37.8720   32.6520   48.5230 C   0  0  0  0  0  0  0  0  0  0  0  0
   38.6360   33.5940   49.1860 C   0  0  0  0  0  0  0  0  0  0  0  0
   39.7710   34.1110   48.5820 C   0  0  0  0  0  0  0  0  0  0  0  0
   40.1320   33.6800   47.3180 C   0  0  0  0  0  0  0  0  0  0  0  0
   39.3500   32.7380   46.6800 C   0  0  0  0  0  0  0  0  0  0  0  0
   38.4180   33.9730   50.1630 H   0  0  0  0  0  0  0  0  0  0  0  0
   40.3980   34.8500   49.0670 H   0  0  0  0  0  0  0  0  0  0  0  0
   41.0130   34.0540   46.8000 H   0  0  0  0  0  0  0  0  0  0  0  0
   39.7480   32.2880   45.3340 C   0  0  0  0  0  0  0  0  0  0  0  0
   40.5780   31.2630   44.9610 C   0  0  0  0  0  0  0  0  0  0  0  0
   40.6290   31.2490   43.5680 C   0  0  0  0  0  0  0  0  0  0  0  0
   39.8050   32.2920   43.1760 C   0  0  0  0  0  0  0  0  0  0  0  0
   39.2900   32.8990   44.2390 O   0  0  0  0  0  0  0  0  0  0  0  0
   41.0910   30.5990   45.6390 H   0  0  0  0  0  0  0  0  0  0  0  0
   41.1890   30.5710   42.9370 H   0  0  0  0  0  0  0  0  0  0  0  0
   39.6040   32.5800   42.1440 H   0  0  0  0  0  0  0  0  0  0  0  0
   36.7290   30.4660   46.1250 N   0  0  0  0  0  0  0  0  0  0  0  0
   37.3970   31.2480   46.6380 C   0  0  0  0  0  0  0  0  0  0  0  0
  1  6  1  0  0  0  0
  2  1  2  0  0  0  0
  2  3  1  0  0  0  0
  3  4  2  0  0  0  0
  4  5  1  0  0  0  0
  5  8  1  0  0  0  0
  6  5  2  0  0  0  0
  7  3  1  0  0  0  0
  9 11  1  0  0  0  0
 10  9  2  0  0  0  0
 11  2  1  0  0  0  0
 12 11  1  0  0  0  0
 13 14  1  0  0  0  0
 14  9  1  0  0  0  0
 15 14  2  0  0  0  0
 15 16  1  0  0  0  0
 17 15  1  0  0  0  0
 18 17  1  0  0  0  0
 18 24  1  0  0  0  0
 19 18  1  0  0  0  0
 20 19  1  0  0  0  0
 21 19  2  0  0  0  0
 21 22  1  0  0  0  0
 22 23  1  0  0  0  0
 22 17  2  0  0  0  0
 23 13  2  0  0  0  0
 25  1  1  0  0  0  0
 26 27  1  0  0  0  0
 27 28  2  0  0  0  0
 27 25  1  0  0  0  0
 28 32  1  0  0  0  0
 29 33  1  0  0  0  0
 29 28  1  0  0  0  0
 30 29  2  0  0  0  0
 31 26  2  0  0  0  0
 31 30  1  0  0  0  0
 34 30  1  0  0  0  0
 35 31  1  0  0  0  0
 36 35  2  0  0  0  0
 36 40  1  0  0  0  0
 37 36  1  0  0  0  0
 38 37  2  0  0  0  0
 38 39  1  0  0  0  0
 39 35  1  0  0  0  0
 41 37  1  0  0  0  0
 42 38  1  0  0  0  0
 43 44  3  0  0  0  0
 44 26  1  0  0  0  0
M  END
>  <minimizedAffinity>
-6.34783888

>  <minimizedRMSD>
0.602460921

$$$$
