
 OpenBabel03272507413D

 44 48  0  0  0  0  0  0  0  0999 V2000
   36.7770   31.1910   50.1060 C   0  0  0  0  0  0  0  0  0  0  0  0
   35.7420   30.2860   49.8830 C   0  0  0  0  0  0  0  0  0  0  0  0
   35.5710   29.1650   50.6600 C   0  0  0  0  0  0  0  0  0  0  0  0
   36.4620   28.9670   51.6680 N   0  0  0  0  0  0  0  0  0  0  0  0
   37.4760   29.8540   51.8880 C   0  0  0  0  0  0  0  0  0  0  0  0
   37.6140   30.9290   51.1170 N   0  0  0  0  0  0  0  0  0  0  0  0
   34.8140   28.4330   50.5540 H   0  0  0  0  0  0  0  0  0  0  0  0
   38.2000   29.7110   52.6930 H   0  0  0  0  0  0  0  0  0  0  0  0
   34.3210   29.2500   48.1560 C   0  0  0  0  0  0  0  0  0  0  0  0
   34.7300   28.0270   48.1530 O   0  0  0  0  0  0  0  0  0  0  0  0
   34.7750   30.3850   48.8630 N   0  0  0  0  0  0  0  0  0  0  0  0
   34.5040   31.3630   48.7590 H   0  0  0  0  0  0  0  0  0  0  0  0
   33.0670   30.5270   46.4000 C   0  0  0  0  0  3  0  0  0  0  0  0
   33.1880   29.4520   47.2540 C   0  0  0  0  0  0  0  0  0  0  0  0
   32.1160   28.5870   47.1630 C   0  0  0  0  0  0  0  0  0  0  0  0
   32.1030   27.6960   47.7950 H   0  0  0  0  0  0  0  0  0  0  0  0
   31.0270   28.7310   46.3340 C   0  0  0  0  0  0  0  0  0  0  0  0
   29.9210   27.9920   46.1280 N   0  0  0  0  0  0  0  0  0  0  0  0
   29.1770   28.6070   45.1890 C   0  0  0  0  0  0  0  0  0  0  0  0
   28.2150   28.2980   44.7700 H   0  0  0  0  0  0  0  0  0  0  0  0
   29.8270   29.7300   44.8130 N   0  0  0  0  0  0  0  0  0  0  0  0
   30.9840   29.8350   45.5100 C   0  0  0  0  0  0  0  0  0  0  0  0
   32.0160   30.7490   45.5390 C   0  0  0  0  0  3  0  0  0  0  0  0
   29.6490   27.0970   46.5910 H   0  0  0  0  0  0  0  0  0  0  0  0
   36.7770   32.2280   49.2390 O   0  0  0  0  0  0  0  0  0  0  0  0
   38.2370   32.2220   47.2520 C   0  0  0  0  0  0  0  0  0  0  0  0
   37.8730   32.6520   48.5200 C   0  0  0  0  0  0  0  0  0  0  0  0
   38.6380   33.5940   49.1840 C   0  0  0  0  0  0  0  0  0  0  0  0
   39.7730   34.1100   48.5790 C   0  0  0  0  0  0  0  0  0  0  0  0
   40.1330   33.6800   47.3150 C   0  0  0  0  0  0  0  0  0  0  0  0
   39.3500   32.7380   46.6770 C   0  0  0  0  0  0  0  0  0  0  0  0
   38.4200   33.9720   50.1600 H   0  0  0  0  0  0  0  0  0  0  0  0
   40.4000   34.8490   49.0640 H   0  0  0  0  0  0  0  0  0  0  0  0
   41.0140   34.0530   46.7970 H   0  0  0  0  0  0  0  0  0  0  0  0
   39.7470   32.2880   45.3310 C   0  0  0  0  0  0  0  0  0  0  0  0
   40.5800   31.2640   44.9570 C   0  0  0  0  0  0  0  0  0  0  0  0
   40.6290   31.2500   43.5640 C   0  0  0  0  0  0  0  0  0  0  0  0
   39.8020   32.2910   43.1730 C   0  0  0  0  0  0  0  0  0  0  0  0
   39.2870   32.8970   44.2360 O   0  0  0  0  0  0  0  0  0  0  0  0
   41.0950   30.6020   45.6350 H   0  0  0  0  0  0  0  0  0  0  0  0
   41.1900   30.5720   42.9330 H   0  0  0  0  0  0  0  0  0  0  0  0
   39.5990   32.5780   42.1400 H   0  0  0  0  0  0  0  0  0  0  0  0
   36.7280   30.4670   46.1220 N   0  0  0  0  0  0  0  0  0  0  0  0
   37.3960   31.2480   46.6360 C   0  0  0  0  0  0  0  0  0  0  0  0
  1  6  1  0  0  0  0
  2  1  2  0  0  0  0
  2  3  1  0  0  0  0
  3  4  2  0  0  0  0
  4  5  1  0  0  0  0
  5  8  1  0  0  0  0
  6  5  2  0  0  0  0
  7  3  1  0  0  0  0
  9 11  1  0  0  0  0
 10  9  2  0  0  0  0
 11  2  1  0  0  0  0
 12 11  1  0  0  0  0
 13 14  1  0  0  0  0
 14  9  1  0  0  0  0
 15 14  2  0  0  0  0
 15 16  1  0  0  0  0
 17 15  1  0  0  0  0
 18 17  1  0  0  0  0
 18 24  1  0  0  0  0
 19 18  1  0  0  0  0
 20 19  1  0  0  0  0
 21 19  2  0  0  0  0
 21 22  1  0  0  0  0
 22 23  1  0  0  0  0
 22 17  2  0  0  0  0
 23 13  2  0  0  0  0
 25  1  1  0  0  0  0
 26 27  1  0  0  0  0
 27 28  2  0  0  0  0
 27 25  1  0  0  0  0
 28 32  1  0  0  0  0
 29 33  1  0  0  0  0
 29 28  1  0  0  0  0
 30 29  2  0  0  0  0
 31 26  2  0  0  0  0
 31 30  1  0  0  0  0
 34 30  1  0  0  0  0
 35 31  1  0  0  0  0
 36 35  2  0  0  0  0
 36 40  1  0  0  0  0
 37 36  1  0  0  0  0
 38 37  2  0  0  0  0
 38 39  1  0  0  0  0
 39 35  1  0  0  0  0
 41 37  1  0  0  0  0
 42 38  1  0  0  0  0
 43 44  3  0  0  0  0
 44 26  1  0  0  0  0
M  END
>  <minimizedAffinity>
-6.34874058

>  <minimizedRMSD>
0.595767856

$$$$
