
 OpenBabel03272509183D

 35 37  0  0  0  0  0  0  0  0999 V2000
   38.0640   31.1880   47.7340 C   0  0  0  0  0  0  0  0  0  0  0  0
   37.1050   31.2640   48.7300 C   0  0  0  0  0  0  0  0  0  0  0  0
   37.1980   32.4110   49.5250 C   0  0  0  0  0  0  0  0  0  0  0  0
   38.1790   33.3840   49.3120 C   0  0  0  0  0  0  0  0  0  0  0  0
   39.1050   33.2130   48.2740 C   0  0  0  0  0  0  0  0  0  0  0  0
   39.0250   32.0920   47.4890 C   0  0  0  0  0  0  0  0  0  0  0  0
   36.5000   32.5840   50.3410 H   0  0  0  0  0  0  0  0  0  0  0  0
   38.2310   34.2650   49.9390 H   0  0  0  0  0  0  0  0  0  0  0  0
   39.8550   33.9860   48.1340 H   0  0  0  0  0  0  0  0  0  0  0  0
   34.9300   30.2660   48.1710 C   0  0  0  0  0  0  0  0  0  0  0  0
   36.0980   30.2720   48.9530 C   0  0  0  0  0  0  0  0  0  0  0  0
   36.2220   29.2880   49.9320 C   0  0  0  0  0  0  0  0  0  0  0  0
   35.2130   28.3850   50.0740 N   0  0  0  0  0  0  0  0  0  0  0  0
   34.1020   28.4180   49.2930 C   0  0  0  0  0  0  0  0  0  0  0  0
   33.9670   29.3520   48.3510 N   0  0  0  0  0  0  0  0  0  0  0  0
   34.8600   31.0380   47.4200 H   0  0  0  0  0  0  0  0  0  0  0  0
   33.3040   27.6930   49.4150 H   0  0  0  0  0  0  0  0  0  0  0  0
   37.4300   29.2430   50.7890 C   0  0  0  0  0  0  0  0  0  0  0  0
   38.2800   29.5220   50.1440 H   0  0  0  0  0  0  0  0  0  0  0  0
   37.5080   28.2040   51.1670 H   0  0  0  0  0  0  0  0  0  0  0  0
   37.3470   29.9090   51.6640 H   0  0  0  0  0  0  0  0  0  0  0  0
   38.0480   30.0620   46.8820 O   0  0  0  0  0  0  0  0  0  0  0  0
   37.1870   29.8730   46.3690 H   0  0  0  0  0  0  0  0  0  0  0  0
   39.9650   31.9570   46.4630 O   0  0  0  0  0  0  0  0  0  0  0  0
   39.9440   31.1450   44.0890 C   0  0  0  0  0  0  0  0  0  0  0  0
   39.4480   31.8440   45.1690 C   0  0  0  0  0  0  0  0  0  0  0  0
   38.2740   32.5700   45.0520 C   0  0  0  0  0  0  0  0  0  0  0  0
   37.7860   33.1600   45.8310 H   0  0  0  0  0  0  0  0  0  0  0  0
   37.5700   32.6130   43.8570 C   0  0  0  0  0  3  0  0  0  0  0  0
   38.0720   31.9110   42.7770 C   0  0  0  0  0  3  0  0  0  0  0  0
   39.2330   31.1970   42.9050 C   0  0  0  0  0  0  0  0  0  0  0  0
   41.1160   30.4710   44.3520 O   0  0  0  0  0  0  0  0  0  0  0  0
   41.1850   29.4770   44.4850 H   0  0  0  0  0  0  0  0  0  0  0  0
   39.7860   30.4720   41.8590 O   0  0  0  0  0  0  0  0  0  0  0  0
   39.5950   29.5020   41.7010 H   0  0  0  0  0  0  0  0  0  0  0  0
  1  2  1  0  0  0  0
  2 11  1  0  0  0  0
  2  3  2  0  0  0  0
  3  7  1  0  0  0  0
  4  3  1  0  0  0  0
  4  8  1  0  0  0  0
  5  4  2  0  0  0  0
  6  1  2  0  0  0  0
  6  5  1  0  0  0  0
  9  5  1  0  0  0  0
 10 15  2  0  0  0  0
 10 11  1  0  0  0  0
 11 12  2  0  0  0  0
 12 13  1  0  0  0  0
 12 18  1  0  0  0  0
 14 17  1  0  0  0  0
 14 13  2  0  0  0  0
 15 14  1  0  0  0  0
 16 10  1  0  0  0  0
 18 20  1  0  0  0  0
 18 21  1  0  0  0  0
 19 18  1  0  0  0  0
 22  1  1  0  0  0  0
 23 22  1  0  0  0  0
 24  6  1  0  0  0  0
 25 32  1  0  0  0  0
 25 26  1  0  0  0  0
 26 24  1  0  0  0  0
 27 26  2  0  0  0  0
 27 28  1  0  0  0  0
 29 27  1  0  0  0  0
 30 31  1  0  0  0  0
 30 29  2  0  0  0  0
 31 25  2  0  0  0  0
 32 33  1  0  0  0  0
 34 31  1  0  0  0  0
 35 34  1  0  0  0  0
M  END
>  <minimizedAffinity>
-6.81969738

>  <minimizedRMSD>
0.57599622

$$$$
