
 OpenBabel03272503503D

 39 41  0  0  1  0  0  0  0  0999 V2000
   33.2100   27.2980   45.8520 C   0  0  1  0  0  0  0  0  0  0  0  0
   33.9090   27.4470   47.2210 C   0  0  2  0  0  0  0  0  0  0  0  0
   33.7360   26.2310   47.8030 O   0  0  0  0  0  0  0  0  0  0  0  0
   34.0700   25.3300   46.8020 C   0  0  0  0  0  0  0  0  0  0  0  0
   33.6030   25.8920   45.4770 C   0  0  2  0  0  0  0  0  0  0  0  0
   33.6530   28.0290   45.1380 H   0  0  0  0  0  0  0  0  0  0  0  0
   34.9700   27.6820   46.9320 H   0  0  0  0  0  0  0  0  0  0  0  0
   35.1790   25.2510   46.7970 H   0  0  0  0  0  0  0  0  0  0  0  0
   33.6930   24.3160   47.0150 H   0  0  0  0  0  0  0  0  0  0  0  0
   32.6500   25.4090   45.1470 H   0  0  0  0  0  0  0  0  0  0  0  0
   31.8510   27.5080   45.9800 O   0  0  0  0  0  0  0  0  0  0  0  0
   31.4710   27.9780   45.1870 H   0  0  0  0  0  0  0  0  0  0  0  0
   33.2790   28.5070   47.8140 O   0  0  0  0  0  0  0  0  0  0  0  0
   35.3470   29.7940   46.7910 O   0  0  0  0  0  0  0  0  0  0  0  0
   34.0780   29.9750   47.6210 P   0  0  1  0  0  0  0  0  0  0  0  0
   33.1200   31.0470   46.7250 O   0  0  0  0  0  0  0  0  0  0  0  0
   32.5070   31.4740   47.3960 H   0  0  0  0  0  0  0  0  0  0  0  0
   34.3660   30.6020   49.1790 O   0  0  0  0  0  0  0  0  0  0  0  0
   35.6080   30.4800   49.7950 C   0  0  0  0  0  0  0  0  0  0  0  0
   35.9660   29.4650   50.7130 C   0  0  0  0  0  0  0  0  0  0  0  0
   37.2530   29.4870   51.2400 C   0  0  0  0  0  0  0  0  0  0  0  0
   38.1060   30.4810   50.8480 N   0  0  0  0  0  0  0  0  0  0  0  0
   37.7360   31.4440   49.9640 C   0  0  0  0  0  0  0  0  0  0  0  0
   36.4770   31.4430   49.4330 N   0  0  0  0  0  0  0  0  0  0  0  0
   35.1940   28.7550   50.9250 H   0  0  0  0  0  0  0  0  0  0  0  0
   37.5000   28.7150   51.9270 H   0  0  0  0  0  0  0  0  0  0  0  0
   38.4180   32.2260   49.6590 H   0  0  0  0  0  0  0  0  0  0  0  0
   34.6320   25.8980   44.5790 O   0  0  0  0  0  0  0  0  0  0  0  0
   36.0590   24.0490   43.7540 C   0  0  0  0  0  0  0  0  0  0  0  0
   35.0840   25.0060   43.6740 C   0  0  0  0  0  0  0  0  0  0  0  0
   34.4030   25.1150   42.4540 C   0  0  0  0  0  0  0  0  0  0  0  0
   33.5970   25.8310   42.2310 H   0  0  0  0  0  0  0  0  0  0  0  0
   34.7080   24.2850   41.3700 C   0  0  0  0  0  3  0  0  0  0  0  0
   35.6980   23.3290   41.4810 C   0  0  0  0  0  3  0  0  0  0  0  0
   36.3510   23.2410   42.6850 C   0  0  0  0  0  0  0  0  0  0  0  0
   36.7080   23.9600   44.9520 O   0  0  0  0  0  0  0  0  0  0  0  0
   37.5730   24.4710   45.0680 H   0  0  0  0  0  0  0  0  0  0  0  0
   37.3590   22.2990   42.8680 O   0  0  0  0  0  0  0  0  0  0  0  0
   38.2850   22.5520   43.1870 H   0  0  0  0  0  0  0  0  0  0  0  0
  1  6  1  6  0  0  0
  1 11  1  0  0  0  0
  1  2  1  0  0  0  0
  2  7  1  6  0  0  0
  2  3  1  0  0  0  0
  2 13  1  0  0  0  0
  4  9  1  0  0  0  0
  4  3  1  0  0  0  0
  5 10  1  6  0  0  0
  5  1  1  0  0  0  0
  5  4  1  0  0  0  0
  8  4  1  0  0  0  0
 12 11  1  0  0  0  0
 15 14  2  6  0  0  0
 15 13  1  0  0  0  0
 15 18  1  0  0  0  0
 16 17  1  0  0  0  0
 16 15  1  0  0  0  0
 18 19  1  0  0  0  0
 19 20  1  0  0  0  0
 20 25  1  0  0  0  0
 20 21  2  0  0  0  0
 21 26  1  0  0  0  0
 22 21  1  0  0  0  0
 23 22  2  0  0  0  0
 24 19  2  0  0  0  0
 24 23  1  0  0  0  0
 27 23  1  0  0  0  0
 28  5  1  0  0  0  0
 29 36  1  0  0  0  0
 30 29  1  0  0  0  0
 30 28  1  0  0  0  0
 31 30  2  0  0  0  0
 32 31  1  0  0  0  0
 33 34  2  0  0  0  0
 33 31  1  0  0  0  0
 34 35  1  0  0  0  0
 35 38  1  0  0  0  0
 35 29  2  0  0  0  0
 36 37  1  0  0  0  0
 38 39  1  0  0  0  0
M  END
>  <minimizedAffinity>
-4.15501356

>  <minimizedRMSD>
1.15778351

$$$$
