
 OpenBabel03272509183D

 35 37  0  0  0  0  0  0  0  0999 V2000
   38.1440   31.1140   47.5870 C   0  0  0  0  0  0  0  0  0  0  0  0
   37.1620   31.2020   48.5590 C   0  0  0  0  0  0  0  0  0  0  0  0
   37.2680   32.3320   49.3760 C   0  0  0  0  0  0  0  0  0  0  0  0
   38.2840   33.2780   49.2060 C   0  0  0  0  0  0  0  0  0  0  0  0
   39.2310   33.0960   48.1890 C   0  0  0  0  0  0  0  0  0  0  0  0
   39.1380   31.9920   47.3830 C   0  0  0  0  0  0  0  0  0  0  0  0
   36.5550   32.5130   50.1770 H   0  0  0  0  0  0  0  0  0  0  0  0
   38.3470   34.1460   49.8500 H   0  0  0  0  0  0  0  0  0  0  0  0
   40.0090   33.8480   48.0830 H   0  0  0  0  0  0  0  0  0  0  0  0
   34.9760   30.2780   47.9220 C   0  0  0  0  0  0  0  0  0  0  0  0
   36.1200   30.2380   48.7390 C   0  0  0  0  0  0  0  0  0  0  0  0
   36.1850   29.2380   49.7060 C   0  0  0  0  0  0  0  0  0  0  0  0
   35.1460   28.3640   49.8060 N   0  0  0  0  0  0  0  0  0  0  0  0
   34.0590   28.4410   48.9940 C   0  0  0  0  0  0  0  0  0  0  0  0
   33.9800   29.3910   48.0610 N   0  0  0  0  0  0  0  0  0  0  0  0
   34.9510   31.0620   47.1810 H   0  0  0  0  0  0  0  0  0  0  0  0
   33.2370   27.7390   49.0820 H   0  0  0  0  0  0  0  0  0  0  0  0
   37.3650   29.1450   50.5970 C   0  0  0  0  0  0  0  0  0  0  0  0
   38.2430   29.4060   49.9810 H   0  0  0  0  0  0  0  0  0  0  0  0
   37.4020   28.0980   50.9620 H   0  0  0  0  0  0  0  0  0  0  0  0
   37.2770   29.8010   51.4790 H   0  0  0  0  0  0  0  0  0  0  0  0
   38.1160   30.0030   46.7150 O   0  0  0  0  0  0  0  0  0  0  0  0
   37.2630   29.8500   46.1760 H   0  0  0  0  0  0  0  0  0  0  0  0
   40.1000   31.8450   46.3800 O   0  0  0  0  0  0  0  0  0  0  0  0
   38.4770   32.4870   44.5780 C   0  0  0  0  0  0  0  0  0  0  0  0
   39.6310   31.9130   45.0640 C   0  0  0  0  0  0  0  0  0  0  0  0
   40.5190   31.2870   44.2010 C   0  0  0  0  0  0  0  0  0  0  0  0
   41.4590   30.8000   44.4670 H   0  0  0  0  0  0  0  0  0  0  0  0
   40.2720   31.2230   42.8380 C   0  0  0  0  0  3  0  0  0  0  0  0
   39.1130   31.8010   42.3550 C   0  0  0  0  0  3  0  0  0  0  0  0
   38.2460   32.4160   43.2170 C   0  0  0  0  0  0  0  0  0  0  0  0
   37.6930   33.0700   45.5480 O   0  0  0  0  0  0  0  0  0  0  0  0
   37.6170   34.0610   45.7000 H   0  0  0  0  0  0  0  0  0  0  0  0
   37.0660   33.0140   42.7940 O   0  0  0  0  0  0  0  0  0  0  0  0
   36.9960   33.9840   42.5540 H   0  0  0  0  0  0  0  0  0  0  0  0
  1  2  1  0  0  0  0
  2 11  1  0  0  0  0
  2  3  2  0  0  0  0
  3  7  1  0  0  0  0
  4  3  1  0  0  0  0
  4  8  1  0  0  0  0
  5  4  2  0  0  0  0
  6  1  2  0  0  0  0
  6  5  1  0  0  0  0
  9  5  1  0  0  0  0
 10 15  2  0  0  0  0
 10 11  1  0  0  0  0
 11 12  2  0  0  0  0
 12 13  1  0  0  0  0
 12 18  1  0  0  0  0
 14 17  1  0  0  0  0
 14 13  2  0  0  0  0
 15 14  1  0  0  0  0
 16 10  1  0  0  0  0
 18 20  1  0  0  0  0
 18 21  1  0  0  0  0
 19 18  1  0  0  0  0
 22  1  1  0  0  0  0
 23 22  1  0  0  0  0
 24  6  1  0  0  0  0
 25 26  1  0  0  0  0
 25 32  1  0  0  0  0
 26 24  1  0  0  0  0
 27 28  1  0  0  0  0
 27 26  2  0  0  0  0
 29 27  1  0  0  0  0
 30 29  2  0  0  0  0
 30 31  1  0  0  0  0
 31 25  2  0  0  0  0
 32 33  1  0  0  0  0
 34 31  1  0  0  0  0
 35 34  1  0  0  0  0
M  END
>  <minimizedAffinity>
-6.84095907

>  <minimizedRMSD>
0.50717926

$$$$
