
 OpenBabel03272503493D

 39 41  0  0  1  0  0  0  0  0999 V2000
   33.2110   27.3000   45.8520 C   0  0  1  0  0  0  0  0  0  0  0  0
   33.9090   27.4470   47.2200 C   0  0  2  0  0  0  0  0  0  0  0  0
   33.7360   26.2310   47.8020 O   0  0  0  0  0  0  0  0  0  0  0  0
   34.0700   25.3310   46.8000 C   0  0  0  0  0  0  0  0  0  0  0  0
   33.6030   25.8940   45.4750 C   0  0  2  0  0  0  0  0  0  0  0  0
   33.6540   28.0310   45.1380 H   0  0  0  0  0  0  0  0  0  0  0  0
   34.9710   27.6820   46.9320 H   0  0  0  0  0  0  0  0  0  0  0  0
   35.1790   25.2510   46.7960 H   0  0  0  0  0  0  0  0  0  0  0  0
   33.6920   24.3170   47.0130 H   0  0  0  0  0  0  0  0  0  0  0  0
   32.6500   25.4110   45.1440 H   0  0  0  0  0  0  0  0  0  0  0  0
   31.8520   27.5090   45.9790 O   0  0  0  0  0  0  0  0  0  0  0  0
   31.4720   27.9800   45.1860 H   0  0  0  0  0  0  0  0  0  0  0  0
   33.2790   28.5070   47.8140 O   0  0  0  0  0  0  0  0  0  0  0  0
   35.3470   29.7940   46.7910 O   0  0  0  0  0  0  0  0  0  0  0  0
   34.0790   29.9750   47.6210 P   0  0  1  0  0  0  0  0  0  0  0  0
   33.1200   31.0470   46.7260 O   0  0  0  0  0  0  0  0  0  0  0  0
   32.5070   31.4740   47.3970 H   0  0  0  0  0  0  0  0  0  0  0  0
   34.3660   30.6020   49.1790 O   0  0  0  0  0  0  0  0  0  0  0  0
   35.6080   30.4800   49.7950 C   0  0  0  0  0  0  0  0  0  0  0  0
   35.9670   29.4650   50.7130 C   0  0  0  0  0  0  0  0  0  0  0  0
   37.2540   29.4870   51.2400 C   0  0  0  0  0  0  0  0  0  0  0  0
   38.1070   30.4810   50.8480 N   0  0  0  0  0  0  0  0  0  0  0  0
   37.7360   31.4440   49.9640 C   0  0  0  0  0  0  0  0  0  0  0  0
   36.4780   31.4430   49.4340 N   0  0  0  0  0  0  0  0  0  0  0  0
   35.1950   28.7550   50.9250 H   0  0  0  0  0  0  0  0  0  0  0  0
   37.5010   28.7150   51.9270 H   0  0  0  0  0  0  0  0  0  0  0  0
   38.4180   32.2260   49.6590 H   0  0  0  0  0  0  0  0  0  0  0  0
   34.6340   25.9000   44.5780 O   0  0  0  0  0  0  0  0  0  0  0  0
   36.0600   24.0510   43.7520 C   0  0  0  0  0  0  0  0  0  0  0  0
   35.0850   25.0080   43.6730 C   0  0  0  0  0  0  0  0  0  0  0  0
   34.4050   25.1190   42.4530 C   0  0  0  0  0  0  0  0  0  0  0  0
   33.5980   25.8350   42.2310 H   0  0  0  0  0  0  0  0  0  0  0  0
   34.7090   24.2900   41.3670 C   0  0  0  0  0  3  0  0  0  0  0  0
   35.6980   23.3350   41.4780 C   0  0  0  0  0  3  0  0  0  0  0  0
   36.3510   23.2440   42.6820 C   0  0  0  0  0  0  0  0  0  0  0  0
   36.7080   23.9610   44.9490 O   0  0  0  0  0  0  0  0  0  0  0  0
   37.5740   24.4720   45.0650 H   0  0  0  0  0  0  0  0  0  0  0  0
   37.3590   22.3020   42.8630 O   0  0  0  0  0  0  0  0  0  0  0  0
   38.2850   22.5550   43.1830 H   0  0  0  0  0  0  0  0  0  0  0  0
  1  6  1  6  0  0  0
  1 11  1  0  0  0  0
  1  2  1  0  0  0  0
  2  7  1  6  0  0  0
  2  3  1  0  0  0  0
  2 13  1  0  0  0  0
  4  9  1  0  0  0  0
  4  3  1  0  0  0  0
  5 10  1  6  0  0  0
  5  1  1  0  0  0  0
  5  4  1  0  0  0  0
  8  4  1  0  0  0  0
 12 11  1  0  0  0  0
 15 14  2  6  0  0  0
 15 13  1  0  0  0  0
 15 18  1  0  0  0  0
 16 17  1  0  0  0  0
 16 15  1  0  0  0  0
 18 19  1  0  0  0  0
 19 20  1  0  0  0  0
 20 25  1  0  0  0  0
 20 21  2  0  0  0  0
 21 26  1  0  0  0  0
 22 21  1  0  0  0  0
 23 22  2  0  0  0  0
 24 19  2  0  0  0  0
 24 23  1  0  0  0  0
 27 23  1  0  0  0  0
 28  5  1  0  0  0  0
 29 36  1  0  0  0  0
 30 29  1  0  0  0  0
 30 28  1  0  0  0  0
 31 30  2  0  0  0  0
 32 31  1  0  0  0  0
 33 34  2  0  0  0  0
 33 31  1  0  0  0  0
 34 35  1  0  0  0  0
 35 38  1  0  0  0  0
 35 29  2  0  0  0  0
 36 37  1  0  0  0  0
 38 39  1  0  0  0  0
M  END
>  <minimizedAffinity>
-4.15528393

>  <minimizedRMSD>
1.14515913

$$$$
