
 OpenBabel03272503413D

 43 46  0  0  1  0  0  0  0  0999 V2000
   39.9760   31.3890   41.7380 C   0  0  2  0  0  0  0  0  0  0  0  0
   39.5410   32.5160   42.7000 C   0  0  1  0  0  0  0  0  0  0  0  0
   38.2960   32.9610   42.0030 C   0  0  0  0  0  0  0  0  0  0  0  0
   38.5230   32.8540   40.6530 O   0  0  0  0  0  0  0  0  0  0  0  0
   39.6620   32.1420   40.4290 C   0  0  0  0  0  0  0  0  0  0  0  0
   41.0370   31.1800   41.8290 H   0  0  0  0  0  0  0  0  0  0  0  0
   40.2770   33.3300   42.7280 H   0  0  0  0  0  0  0  0  0  0  0  0
   37.9080   33.9410   42.3180 H   0  0  0  0  0  0  0  0  0  0  0  0
   37.4690   32.2320   42.2480 H   0  0  0  0  0  0  0  0  0  0  0  0
   40.5010   32.8690   40.3200 H   0  0  0  0  0  0  0  0  0  0  0  0
   39.6120   31.4540   39.5700 H   0  0  0  0  0  0  0  0  0  0  0  0
   38.3710   31.2660   45.8550 C   0  0  0  0  0  0  0  0  0  0  0  0
   39.7140   31.1720   46.0550 C   0  0  0  0  0  0  0  0  0  0  0  0
   40.2860   31.6410   44.8650 C   0  0  0  0  0  0  0  0  0  0  0  0
   39.3110   31.9910   44.0160 N   0  0  0  0  0  0  0  0  0  0  0  0
   38.1250   31.7640   44.6170 N   0  0  0  0  0  0  0  0  0  0  0  0
   40.2710   30.8150   46.9340 H   0  0  0  0  0  0  0  0  0  0  0  0
   41.3760   31.6840   44.7290 H   0  0  0  0  0  0  0  0  0  0  0  0
   36.5240   30.6090   49.0560 C   0  0  0  0  0  0  0  0  0  0  0  0
   37.5330   30.9790   48.1770 C   0  0  0  0  0  0  0  0  0  0  0  0
   37.3490   30.8920   46.8180 C   0  0  0  0  0  0  0  0  0  0  0  0
   36.1570   30.4370   46.3800 N   0  0  0  0  0  0  0  0  0  0  0  0
   35.1720   30.0780   47.2540 C   0  0  0  0  0  0  0  0  0  0  0  0
   35.3380   30.1550   48.5610 N   0  0  0  0  0  0  0  0  0  0  0  0
   38.5020   31.3480   48.4970 H   0  0  0  0  0  0  0  0  0  0  0  0
   34.2060   29.7090   46.9110 H   0  0  0  0  0  0  0  0  0  0  0  0
   36.8670   30.7550   50.3900 O   0  0  0  0  0  0  0  0  0  0  0  0
   36.9130   29.6780   51.3090 C   0  0  0  0  0  0  0  0  0  0  0  0
   35.6420   29.2480   51.6390 F   0  0  0  0  0  0  0  0  0  0  0  0
   37.6030   30.0810   52.4220 F   0  0  0  0  0  0  0  0  0  0  0  0
   37.6150   28.6400   50.7270 F   0  0  0  0  0  0  0  0  0  0  0  0
   39.0710   30.3810   41.9040 O   0  0  0  0  0  0  0  0  0  0  0  0
   39.2870   27.9750   42.6260 C   0  0  0  0  0  0  0  0  0  0  0  0
   39.1790   29.0280   41.7420 C   0  0  0  0  0  0  0  0  0  0  0  0
   39.1720   28.7130   40.3760 C   0  0  0  0  0  0  0  0  0  0  0  0
   39.0940   29.4120   39.5310 H   0  0  0  0  0  0  0  0  0  0  0  0
   39.2690   27.3950   39.9320 C   0  0  0  0  0  3  0  0  0  0  0  0
   39.3770   26.3580   40.8370 C   0  0  0  0  0  3  0  0  0  0  0  0
   39.3830   26.6790   42.1660 C   0  0  0  0  0  0  0  0  0  0  0  0
   39.2840   28.3900   43.9420 O   0  0  0  0  0  0  0  0  0  0  0  0
   39.7730   27.9220   44.6970 H   0  0  0  0  0  0  0  0  0  0  0  0
   39.4830   25.7650   43.2330 O   0  0  0  0  0  0  0  0  0  0  0  0
   39.1700   24.7930   43.1410 H   0  0  0  0  0  0  0  0  0  0  0  0
  1  6  1  1  0  0  0
  1 32  1  0  0  0  0
  1  2  1  0  0  0  0
  2  7  1  1  0  0  0
  2 15  1  0  0  0  0
  3  9  1  0  0  0  0
  3  8  1  0  0  0  0
  3  2  1  0  0  0  0
  4  3  1  0  0  0  0
  5  4  1  0  0  0  0
  5  1  1  0  0  0  0
 10  5  1  0  0  0  0
 11  5  1  0  0  0  0
 12 13  1  0  0  0  0
 12 21  1  0  0  0  0
 13 17  1  0  0  0  0
 14 13  2  0  0  0  0
 15 16  1  0  0  0  0
 15 14  1  0  0  0  0
 16 12  2  0  0  0  0
 18 14  1  0  0  0  0
 19 27  1  0  0  0  0
 20 25  1  0  0  0  0
 20 19  2  0  0  0  0
 21 20  1  0  0  0  0
 22 21  2  0  0  0  0
 22 23  1  0  0  0  0
 23 24  2  0  0  0  0
 24 19  1  0  0  0  0
 26 23  1  0  0  0  0
 27 28  1  0  0  0  0
 28 29  1  0  0  0  0
 28 30  1  0  0  0  0
 31 28  1  0  0  0  0
 33 40  1  0  0  0  0
 34 32  1  0  0  0  0
 34 33  2  0  0  0  0
 35 34  1  0  0  0  0
 36 35  1  0  0  0  0
 37 35  2  0  0  0  0
 37 38  1  0  0  0  0
 38 39  2  0  0  0  0
 39 33  1  0  0  0  0
 39 42  1  0  0  0  0
 40 41  1  0  0  0  0
 43 42  1  0  0  0  0
M  END
>  <minimizedAffinity>
-6.60279942

>  <minimizedRMSD>
1.03761744

$$$$
