
 OpenBabel03272503413D

 43 46  0  0  1  0  0  0  0  0999 V2000
   39.9050   30.7090   41.8840 C   0  0  2  0  0  0  0  0  0  0  0  0
   39.9200   31.9630   42.7850 C   0  0  1  0  0  0  0  0  0  0  0  0
   38.8650   32.7670   42.0960 C   0  0  0  0  0  0  0  0  0  0  0  0
   38.9790   32.5230   40.7490 O   0  0  0  0  0  0  0  0  0  0  0  0
   39.8000   31.4580   40.5400 C   0  0  0  0  0  0  0  0  0  0  0  0
   40.8370   30.1590   41.9590 H   0  0  0  0  0  0  0  0  0  0  0  0
   40.8860   32.4810   42.7410 H   0  0  0  0  0  0  0  0  0  0  0  0
   38.8430   33.8360   42.3580 H   0  0  0  0  0  0  0  0  0  0  0  0
   37.8530   32.3740   42.4080 H   0  0  0  0  0  0  0  0  0  0  0  0
   40.8280   31.8510   40.3620 H   0  0  0  0  0  0  0  0  0  0  0  0
   39.4820   30.7840   39.7270 H   0  0  0  0  0  0  0  0  0  0  0  0
   38.5110   31.1120   45.9750 C   0  0  0  0  0  0  0  0  0  0  0  0
   39.8330   31.0930   46.2960 C   0  0  0  0  0  0  0  0  0  0  0  0
   40.4950   31.4160   45.1030 C   0  0  0  0  0  0  0  0  0  0  0  0
   39.5890   31.6140   44.1370 N   0  0  0  0  0  0  0  0  0  0  0  0
   38.3620   31.4300   44.6640 N   0  0  0  0  0  0  0  0  0  0  0  0
   40.3210   30.8770   47.2580 H   0  0  0  0  0  0  0  0  0  0  0  0
   41.5910   31.4780   45.0530 H   0  0  0  0  0  0  0  0  0  0  0  0
   36.4730   30.6520   49.0930 C   0  0  0  0  0  0  0  0  0  0  0  0
   37.5480   30.9260   48.2590 C   0  0  0  0  0  0  0  0  0  0  0  0
   37.4190   30.8370   46.8930 C   0  0  0  0  0  0  0  0  0  0  0  0
   36.2150   30.4770   46.4050 N   0  0  0  0  0  0  0  0  0  0  0  0
   35.1650   30.2110   47.2350 C   0  0  0  0  0  0  0  0  0  0  0  0
   35.2770   30.2920   48.5480 N   0  0  0  0  0  0  0  0  0  0  0  0
   38.5290   31.2170   48.6190 H   0  0  0  0  0  0  0  0  0  0  0  0
   34.1880   29.9190   46.8520 H   0  0  0  0  0  0  0  0  0  0  0  0
   36.7660   30.7860   50.4400 O   0  0  0  0  0  0  0  0  0  0  0  0
   36.8280   29.6940   51.3400 C   0  0  0  0  0  0  0  0  0  0  0  0
   35.5670   29.2170   51.6350 F   0  0  0  0  0  0  0  0  0  0  0  0
   37.4820   30.0980   52.4750 F   0  0  0  0  0  0  0  0  0  0  0  0
   37.5770   28.6910   50.7550 F   0  0  0  0  0  0  0  0  0  0  0  0
   38.7230   30.0760   42.1380 O   0  0  0  0  0  0  0  0  0  0  0  0
   39.2050   27.6500   42.6310 C   0  0  0  0  0  0  0  0  0  0  0  0
   38.4300   28.7620   42.3750 C   0  0  0  0  0  0  0  0  0  0  0  0
   37.0410   28.5730   42.3350 C   0  0  0  0  0  0  0  0  0  0  0  0
   36.2700   29.3340   42.1460 H   0  0  0  0  0  0  0  0  0  0  0  0
   36.4700   27.3180   42.5460 C   0  0  0  0  0  3  0  0  0  0  0  0
   37.2690   26.2220   42.8000 C   0  0  0  0  0  3  0  0  0  0  0  0
   38.6210   26.4190   42.8360 C   0  0  0  0  0  0  0  0  0  0  0  0
   40.5530   27.9420   42.6490 O   0  0  0  0  0  0  0  0  0  0  0  0
   41.2880   27.2990   42.3740 H   0  0  0  0  0  0  0  0  0  0  0  0
   39.5910   25.4280   43.0800 O   0  0  0  0  0  0  0  0  0  0  0  0
   39.3770   24.5880   43.6280 H   0  0  0  0  0  0  0  0  0  0  0  0
  1  6  1  1  0  0  0
  1 32  1  0  0  0  0
  1  2  1  0  0  0  0
  2  7  1  6  0  0  0
  2 15  1  0  0  0  0
  3  8  1  0  0  0  0
  3  9  1  0  0  0  0
  3  2  1  0  0  0  0
  4  3  1  0  0  0  0
  5  4  1  0  0  0  0
  5  1  1  0  0  0  0
 10  5  1  0  0  0  0
 11  5  1  0  0  0  0
 12 13  1  0  0  0  0
 12 21  1  0  0  0  0
 13 17  1  0  0  0  0
 14 13  2  0  0  0  0
 15 16  1  0  0  0  0
 15 14  1  0  0  0  0
 16 12  2  0  0  0  0
 18 14  1  0  0  0  0
 19 27  1  0  0  0  0
 20 25  1  0  0  0  0
 20 19  2  0  0  0  0
 21 20  1  0  0  0  0
 22 21  2  0  0  0  0
 22 23  1  0  0  0  0
 23 24  2  0  0  0  0
 24 19  1  0  0  0  0
 26 23  1  0  0  0  0
 27 28  1  0  0  0  0
 28 29  1  0  0  0  0
 28 30  1  0  0  0  0
 31 28  1  0  0  0  0
 32 34  1  0  0  0  0
 33 40  1  0  0  0  0
 33 39  1  0  0  0  0
 34 33  2  0  0  0  0
 35 34  1  0  0  0  0
 35 37  2  0  0  0  0
 36 35  1  0  0  0  0
 37 38  1  0  0  0  0
 38 39  2  0  0  0  0
 39 42  1  0  0  0  0
 41 40  1  0  0  0  0
 42 43  1  0  0  0  0
M  END
>  <minimizedAffinity>
-6.90877104

>  <minimizedRMSD>
0.376365632

$$$$
