
 OpenBabel03272509183D

 35 37  0  0  0  0  0  0  0  0999 V2000
   38.0930   31.2280   48.1120 C   0  0  0  0  0  0  0  0  0  0  0  0
   37.2370   31.5750   49.1430 C   0  0  0  0  0  0  0  0  0  0  0  0
   37.4590   32.8540   49.6630 C   0  0  0  0  0  0  0  0  0  0  0  0
   38.4620   33.6930   49.1670 C   0  0  0  0  0  0  0  0  0  0  0  0
   39.2760   33.2470   48.1170 C   0  0  0  0  0  0  0  0  0  0  0  0
   39.0690   31.9950   47.6000 C   0  0  0  0  0  0  0  0  0  0  0  0
   36.8510   33.2410   50.4770 H   0  0  0  0  0  0  0  0  0  0  0  0
   38.6160   34.6810   49.5840 H   0  0  0  0  0  0  0  0  0  0  0  0
   40.0470   33.9220   47.7540 H   0  0  0  0  0  0  0  0  0  0  0  0
   34.9840   30.6100   48.9760 C   0  0  0  0  0  0  0  0  0  0  0  0
   36.2090   30.7220   49.6560 C   0  0  0  0  0  0  0  0  0  0  0  0
   36.3670   29.9800   50.8240 C   0  0  0  0  0  0  0  0  0  0  0  0
   35.3350   29.1940   51.2380 N   0  0  0  0  0  0  0  0  0  0  0  0
   34.1680   29.1160   50.5470 C   0  0  0  0  0  0  0  0  0  0  0  0
   33.9990   29.8200   49.4270 N   0  0  0  0  0  0  0  0  0  0  0  0
   34.8870   31.1950   48.0750 H   0  0  0  0  0  0  0  0  0  0  0  0
   33.3510   28.4870   50.8860 H   0  0  0  0  0  0  0  0  0  0  0  0
   37.6370   30.0560   51.5850 C   0  0  0  0  0  0  0  0  0  0  0  0
   38.4450   30.1300   50.8370 H   0  0  0  0  0  0  0  0  0  0  0  0
   37.7000   29.1270   52.1860 H   0  0  0  0  0  0  0  0  0  0  0  0
   37.6520   30.9070   52.2870 H   0  0  0  0  0  0  0  0  0  0  0  0
   37.9430   29.9520   47.5250 O   0  0  0  0  0  0  0  0  0  0  0  0
   37.0280   29.7190   47.1370 H   0  0  0  0  0  0  0  0  0  0  0  0
   39.9000   31.5850   46.5540 O   0  0  0  0  0  0  0  0  0  0  0  0
   38.9970   32.5580   44.4250 C   0  0  0  0  0  0  0  0  0  0  0  0
   39.3110   31.5300   45.2870 C   0  0  0  0  0  0  0  0  0  0  0  0
   39.0410   30.2160   44.9370 C   0  0  0  0  0  0  0  0  0  0  0  0
   39.2420   29.3230   45.5320 H   0  0  0  0  0  0  0  0  0  0  0  0
   38.4530   29.9010   43.7200 C   0  0  0  0  0  3  0  0  0  0  0  0
   38.1400   30.9380   42.8590 C   0  0  0  0  0  3  0  0  0  0  0  0
   38.4120   32.2300   43.2170 C   0  0  0  0  0  0  0  0  0  0  0  0
   39.3220   33.8060   44.9050 O   0  0  0  0  0  0  0  0  0  0  0  0
   40.1070   34.3520   44.5930 H   0  0  0  0  0  0  0  0  0  0  0  0
   38.1230   33.3120   42.3960 O   0  0  0  0  0  0  0  0  0  0  0  0
   38.7780   33.7020   41.7470 H   0  0  0  0  0  0  0  0  0  0  0  0
  1  2  1  0  0  0  0
  2 11  1  0  0  0  0
  2  3  2  0  0  0  0
  3  7  1  0  0  0  0
  4  8  1  0  0  0  0
  4  3  1  0  0  0  0
  5  4  2  0  0  0  0
  6  1  2  0  0  0  0
  6  5  1  0  0  0  0
  9  5  1  0  0  0  0
 10 15  2  0  0  0  0
 10 11  1  0  0  0  0
 11 12  2  0  0  0  0
 12 13  1  0  0  0  0
 12 18  1  0  0  0  0
 14 17  1  0  0  0  0
 14 13  2  0  0  0  0
 15 14  1  0  0  0  0
 16 10  1  0  0  0  0
 18 20  1  0  0  0  0
 18 21  1  0  0  0  0
 19 18  1  0  0  0  0
 22  1  1  0  0  0  0
 23 22  1  0  0  0  0
 24  6  1  0  0  0  0
 25 32  1  0  0  0  0
 25 26  1  0  0  0  0
 26 24  1  0  0  0  0
 27 26  2  0  0  0  0
 27 28  1  0  0  0  0
 29 27  1  0  0  0  0
 30 31  1  0  0  0  0
 30 29  2  0  0  0  0
 31 25  2  0  0  0  0
 33 32  1  0  0  0  0
 34 31  1  0  0  0  0
 35 34  1  0  0  0  0
M  END
>  <minimizedAffinity>
-6.46507215

>  <minimizedRMSD>
1.14670706

$$$$
