
 OpenBabel03262520363D

 44 46  0  0  0  0  0  0  0  0999 V2000
   37.5920   22.7480   32.7490 C   0  0  0  0  0  0  0  0  0  0  0  0
   36.6420   23.5830   32.1470 C   0  0  0  0  0  0  0  0  0  0  0  0
   35.6220   23.0690   31.3670 C   0  0  0  0  0  0  0  0  0  0  0  0
   35.5200   21.7160   31.1650 C   0  0  0  0  0  0  0  0  0  0  0  0
   36.4490   20.8950   31.7520 C   0  0  0  0  0  0  0  0  0  0  0  0
   37.4810   21.3680   32.5360 C   0  0  0  0  0  0  0  0  0  0  0  0
   34.9530   23.8120   30.9570 H   0  0  0  0  0  0  0  0  0  0  0  0
   34.6730   21.4740   30.5370 H   0  0  0  0  0  0  0  0  0  0  0  0
   36.2020   19.8560   31.4770 H   0  0  0  0  0  0  0  0  0  0  0  0
   38.0170   20.5170   32.8020 H   0  0  0  0  0  0  0  0  0  0  0  0
   38.9010   23.2920   33.7170 S   0  0  0  0  0  0  0  0  0  0  0  0
   39.8930   22.1850   33.9650 O   0  0  0  0  0  0  0  0  0  0  0  0
   39.6270   24.4340   32.9290 O   0  0  0  0  0  0  0  0  0  0  0  0
   38.1870   23.1440   36.1530 C   0  0  0  0  0  0  0  0  0  0  0  0
   38.5030   24.1120   35.1700 C   0  0  0  0  0  0  0  0  0  0  0  0
   38.4420   25.3540   35.6930 C   0  0  0  0  0  0  0  0  0  0  0  0
   38.7200   26.1340   35.0290 H   0  0  0  0  0  0  0  0  0  0  0  0
   38.1300   25.7320   36.9630 C   0  0  0  0  0  3  0  0  0  0  0  0
   37.8330   24.7420   37.8580 C   0  0  0  0  0  3  0  0  0  0  0  0
   37.8590   23.4260   37.4610 C   0  0  0  0  0  0  0  0  0  0  0  0
   38.1480   21.7390   35.9810 O   0  0  0  0  0  0  0  0  0  0  0  0
   37.2200   21.3730   35.7280 H   0  0  0  0  0  0  0  0  0  0  0  0
   37.5390   22.5330   38.4730 O   0  0  0  0  0  0  0  0  0  0  0  0
   36.6040   22.5200   38.8860 H   0  0  0  0  0  0  0  0  0  0  0  0
   36.8520   24.9050   32.4230 O   0  0  0  0  0  0  0  0  0  0  0  0
   38.0900   26.2810   30.5350 O   0  0  0  0  0  0  0  0  0  0  0  0
   36.7900   26.2000   31.3460 P   0  0  1  0  0  0  0  0  0  0  0  0
   35.4420   26.0650   30.3270 O   0  0  0  0  0  0  0  0  0  0  0  0
   35.8010   25.6850   29.4630 H   0  0  0  0  0  0  0  0  0  0  0  0
   36.6950   27.6920   32.1480 O   0  0  0  0  0  0  0  0  0  0  0  0
   37.0060   27.4930   33.5020 C   0  0  0  0  0  0  0  0  0  0  0  0
   38.0880   27.6110   33.6160 H   0  0  0  0  0  0  0  0  0  0  0  0
   36.7990   26.4170   33.7530 H   0  0  0  0  0  0  0  0  0  0  0  0
   35.9350   29.6460   34.0740 C   0  0  0  0  0  3  0  0  0  0  0  0
   36.2430   28.4120   34.3760 C   0  0  0  0  0  3  0  0  0  0  0  0
   35.0110   31.9920   36.7290 C   0  0  0  0  0  0  0  0  0  0  0  0
   33.6260   31.8080   36.8220 C   0  0  0  0  0  0  0  0  0  0  0  0
   33.0300   30.8680   35.9570 C   0  0  0  0  0  0  0  0  0  0  0  0
   33.8730   30.2190   35.1040 N   0  0  0  0  0  0  0  0  0  0  0  0
   35.1750   30.4220   35.0490 C   0  0  0  0  0  0  0  0  0  0  0  0
   35.7440   31.3080   35.8610 N   0  0  0  0  0  0  0  0  0  0  0  0
   35.3760   32.7340   37.4330 H   0  0  0  0  0  0  0  0  0  0  0  0
   32.9340   32.3060   37.4870 H   0  0  0  0  0  0  0  0  0  0  0  0
   31.9710   30.6450   35.9430 H   0  0  0  0  0  0  0  0  0  0  0  0
  1 11  1  0  0  0  0
  2 25  1  0  0  0  0
  2  1  2  0  0  0  0
  3  2  1  0  0  0  0
  4  3  2  0  0  0  0
  4  5  1  0  0  0  0
  5  6  2  0  0  0  0
  6  1  1  0  0  0  0
  6 10  1  0  0  0  0
  7  3  1  0  0  0  0
  8  4  1  0  0  0  0
  9  5  1  0  0  0  0
 11 12  2  0  0  0  0
 11 15  1  0  0  0  0
 13 11  2  0  0  0  0
 14 20  1  0  0  0  0
 15 16  1  0  0  0  0
 15 14  2  0  0  0  0
 16 18  2  0  0  0  0
 17 16  1  0  0  0  0
 18 19  1  0  0  0  0
 20 19  2  0  0  0  0
 20 23  1  0  0  0  0
 21 14  1  0  0  0  0
 22 21  1  0  0  0  0
 23 24  1  0  0  0  0
 27 26  2  6  0  0  0
 27 30  1  0  0  0  0
 27 25  1  0  0  0  0
 28 27  1  0  0  0  0
 29 28  1  0  0  0  0
 30 31  1  0  0  0  0
 31 32  1  0  0  0  0
 31 33  1  0  0  0  0
 31 35  1  0  0  0  0
 34 35  2  0  0  0  0
 34 40  1  0  0  0  0
 36 37  1  0  0  0  0
 36 42  1  0  0  0  0
 37 43  1  0  0  0  0
 38 37  2  0  0  0  0
 39 38  1  0  0  0  0
 40 39  2  0  0  0  0
 40 41  1  0  0  0  0
 41 36  2  0  0  0  0
 44 38  1  0  0  0  0
M  END
>  <minimizedAffinity>
-6.60738134

$$$$

 OpenBabel03262520363D

 44 46  0  0  0  0  0  0  0  0999 V2000
   39.3930   26.3510   33.8180 C   0  0  0  0  0  0  0  0  0  0  0  0
   39.5210   26.7470   32.4800 C   0  0  0  0  0  0  0  0  0  0  0  0
   40.6960   27.3000   32.0020 C   0  0  0  0  0  0  0  0  0  0  0  0
   41.7690   27.4730   32.8390 C   0  0  0  0  0  0  0  0  0  0  0  0
   41.6470   27.0870   34.1490 C   0  0  0  0  0  0  0  0  0  0  0  0
   40.4940   26.5340   34.6640 C   0  0  0  0  0  0  0  0  0  0  0  0
   40.6740   27.5650   30.9550 H   0  0  0  0  0  0  0  0  0  0  0  0
   42.6080   27.9140   32.3160 H   0  0  0  0  0  0  0  0  0  0  0  0
   42.6030   27.3030   34.6550 H   0  0  0  0  0  0  0  0  0  0  0  0
   40.7060   26.3810   35.6720 H   0  0  0  0  0  0  0  0  0  0  0  0
   37.9740   25.6740   34.5070 S   0  0  0  0  0  0  0  0  0  0  0  0
   36.8380   26.6640   34.4980 O   0  0  0  0  0  0  0  0  0  0  0  0
   37.5630   24.4450   33.6270 O   0  0  0  0  0  0  0  0  0  0  0  0
   38.9140   23.7510   35.8800 C   0  0  0  0  0  0  0  0  0  0  0  0
   38.1380   24.9250   36.0410 C   0  0  0  0  0  0  0  0  0  0  0  0
   37.8210   25.1070   37.3400 C   0  0  0  0  0  0  0  0  0  0  0  0
   37.2830   25.9980   37.5480 H   0  0  0  0  0  0  0  0  0  0  0  0
   38.1430   24.3370   38.4150 C   0  0  0  0  0  3  0  0  0  0  0  0
   38.8940   23.2180   38.1830 C   0  0  0  0  0  3  0  0  0  0  0  0
   39.2910   22.9090   36.9030 C   0  0  0  0  0  0  0  0  0  0  0  0
   39.4340   23.2350   34.6690 O   0  0  0  0  0  0  0  0  0  0  0  0
   38.8200   22.5520   34.2070 H   0  0  0  0  0  0  0  0  0  0  0  0
   40.0460   21.7490   36.8200 O   0  0  0  0  0  0  0  0  0  0  0  0
   39.6380   20.8390   37.0460 H   0  0  0  0  0  0  0  0  0  0  0  0
   38.3870   26.5230   31.7530 O   0  0  0  0  0  0  0  0  0  0  0  0
   38.3020   28.4130   29.9060 O   0  0  0  0  0  0  0  0  0  0  0  0
   37.4500   27.6630   30.9380 P   0  0  1  0  0  0  0  0  0  0  0  0
   36.1130   26.9220   30.2040 O   0  0  0  0  0  0  0  0  0  0  0  0
   36.3730   26.8090   29.2360 H   0  0  0  0  0  0  0  0  0  0  0  0
   36.8750   28.8760   31.9750 O   0  0  0  0  0  0  0  0  0  0  0  0
   35.4760   28.7860   32.0370 C   0  0  0  0  0  0  0  0  0  0  0  0
   35.2120   27.7250   32.0840 H   0  0  0  0  0  0  0  0  0  0  0  0
   35.0590   29.1510   31.0590 H   0  0  0  0  0  0  0  0  0  0  0  0
   35.6340   29.9790   34.1970 C   0  0  0  0  0  3  0  0  0  0  0  0
   34.9310   29.5520   33.1800 C   0  0  0  0  0  3  0  0  0  0  0  0
   34.8970   32.2490   36.9730 C   0  0  0  0  0  0  0  0  0  0  0  0
   33.5240   32.0530   37.1630 C   0  0  0  0  0  0  0  0  0  0  0  0
   32.8700   31.1310   36.3210 C   0  0  0  0  0  0  0  0  0  0  0  0
   33.6520   30.5110   35.3910 N   0  0  0  0  0  0  0  0  0  0  0  0
   34.9440   30.7240   35.2450 C   0  0  0  0  0  0  0  0  0  0  0  0
   35.5680   31.5930   36.0350 N   0  0  0  0  0  0  0  0  0  0  0  0
   35.3100   32.9750   37.6670 H   0  0  0  0  0  0  0  0  0  0  0  0
   32.8810   32.5290   37.8910 H   0  0  0  0  0  0  0  0  0  0  0  0
   31.8150   30.9020   36.3790 H   0  0  0  0  0  0  0  0  0  0  0  0
  1 11  1  0  0  0  0
  1  6  1  0  0  0  0
  2  1  2  0  0  0  0
  3  2  1  0  0  0  0
  3  4  2  0  0  0  0
  4  5  1  0  0  0  0
  5  9  1  0  0  0  0
  5  6  2  0  0  0  0
  6 10  1  0  0  0  0
  7  3  1  0  0  0  0
  8  4  1  0  0  0  0
 11 15  1  0  0  0  0
 12 11  2  0  0  0  0
 13 11  2  0  0  0  0
 14 15  2  0  0  0  0
 14 20  1  0  0  0  0
 15 16  1  0  0  0  0
 16 17  1  0  0  0  0
 16 18  2  0  0  0  0
 19 18  1  0  0  0  0
 20 19  2  0  0  0  0
 21 14  1  0  0  0  0
 22 21  1  0  0  0  0
 23 20  1  0  0  0  0
 23 24  1  0  0  0  0
 25  2  1  0  0  0  0
 27 26  2  6  0  0  0
 27 25  1  0  0  0  0
 27 30  1  0  0  0  0
 28 27  1  0  0  0  0
 29 28  1  0  0  0  0
 30 31  1  0  0  0  0
 31 32  1  0  0  0  0
 31 35  1  0  0  0  0
 33 31  1  0  0  0  0
 34 40  1  0  0  0  0
 35 34  2  0  0  0  0
 36 37  1  0  0  0  0
 36 42  1  0  0  0  0
 37 43  1  0  0  0  0
 38 44  1  0  0  0  0
 38 37  2  0  0  0  0
 39 38  1  0  0  0  0
 40 39  2  0  0  0  0
 40 41  1  0  0  0  0
 41 36  2  0  0  0  0
M  END
>  <minimizedAffinity>
-6.57540131

$$$$

 OpenBabel03262520363D

 44 46  0  0  0  0  0  0  0  0999 V2000
   39.8020   26.2510   33.3270 C   0  0  0  0  0  0  0  0  0  0  0  0
   39.3500   26.6080   32.0500 C   0  0  0  0  0  0  0  0  0  0  0  0
   40.1390   27.3500   31.1890 C   0  0  0  0  0  0  0  0  0  0  0  0
   41.3920   27.7550   31.5740 C   0  0  0  0  0  0  0  0  0  0  0  0
   41.8370   27.4080   32.8240 C   0  0  0  0  0  0  0  0  0  0  0  0
   41.0810   26.6720   33.7120 C   0  0  0  0  0  0  0  0  0  0  0  0
   39.6820   27.5630   30.2330 H   0  0  0  0  0  0  0  0  0  0  0  0
   41.8790   28.3220   30.7920 H   0  0  0  0  0  0  0  0  0  0  0  0
   42.8520   27.8200   32.9460 H   0  0  0  0  0  0  0  0  0  0  0  0
   41.6740   26.6030   34.5650 H   0  0  0  0  0  0  0  0  0  0  0  0
   38.8920   25.3520   34.4710 S   0  0  0  0  0  0  0  0  0  0  0  0
   37.9380   26.2390   35.2290 O   0  0  0  0  0  0  0  0  0  0  0  0
   38.0530   24.2930   33.6790 O   0  0  0  0  0  0  0  0  0  0  0  0
   38.9030   23.9160   36.5710 C   0  0  0  0  0  0  0  0  0  0  0  0
   39.7720   24.3300   35.5320 C   0  0  0  0  0  0  0  0  0  0  0  0
   40.9850   23.7580   35.6750 C   0  0  0  0  0  0  0  0  0  0  0  0
   41.6780   23.9790   34.9020 H   0  0  0  0  0  0  0  0  0  0  0  0
   41.4170   22.9000   36.6390 C   0  0  0  0  0  3  0  0  0  0  0  0
   40.5230   22.5460   37.6110 C   0  0  0  0  0  3  0  0  0  0  0  0
   39.2450   23.0530   37.5880 C   0  0  0  0  0  0  0  0  0  0  0  0
   37.5530   24.3020   36.7540 O   0  0  0  0  0  0  0  0  0  0  0  0
   37.4310   25.1220   37.3640 H   0  0  0  0  0  0  0  0  0  0  0  0
   38.4510   22.6060   38.6330 O   0  0  0  0  0  0  0  0  0  0  0  0
   38.6660   22.8560   39.6010 H   0  0  0  0  0  0  0  0  0  0  0  0
   38.0910   26.1470   31.7880 O   0  0  0  0  0  0  0  0  0  0  0  0
   36.6390   28.2470   32.4740 O   0  0  0  0  0  0  0  0  0  0  0  0
   36.7030   27.0600   31.5050 P   0  0  1  0  0  0  0  0  0  0  0  0
   36.6500   27.5840   29.8930 O   0  0  0  0  0  0  0  0  0  0  0  0
   36.9740   28.5390   29.9160 H   0  0  0  0  0  0  0  0  0  0  0  0
   35.2860   26.1790   31.8180 O   0  0  0  0  0  0  0  0  0  0  0  0
   35.1230   25.2210   30.8060 C   0  0  0  0  0  0  0  0  0  0  0  0
   35.9160   25.3760   30.0680 H   0  0  0  0  0  0  0  0  0  0  0  0
   34.1660   25.4470   30.2620 H   0  0  0  0  0  0  0  0  0  0  0  0
   35.9730   22.9090   31.0170 C   0  0  0  0  0  3  0  0  0  0  0  0
   35.1250   23.8450   31.3540 C   0  0  0  0  0  3  0  0  0  0  0  0
   35.7550   19.2990   31.5880 C   0  0  0  0  0  0  0  0  0  0  0  0
   35.5850   19.2250   32.9760 C   0  0  0  0  0  0  0  0  0  0  0  0
   35.5480   20.4360   33.6970 C   0  0  0  0  0  0  0  0  0  0  0  0
   35.6820   21.5760   32.9610 N   0  0  0  0  0  0  0  0  0  0  0  0
   35.8410   21.6020   31.6520 C   0  0  0  0  0  0  0  0  0  0  0  0
   35.8780   20.4640   30.9660 N   0  0  0  0  0  0  0  0  0  0  0  0
   35.7720   18.3180   31.1230 H   0  0  0  0  0  0  0  0  0  0  0  0
   35.4750   18.3380   33.5850 H   0  0  0  0  0  0  0  0  0  0  0  0
   35.4200   20.4970   34.7690 H   0  0  0  0  0  0  0  0  0  0  0  0
  1  6  1  0  0  0  0
  1 11  1  0  0  0  0
  2  1  2  0  0  0  0
  3  4  2  0  0  0  0
  3  2  1  0  0  0  0
  4  5  1  0  0  0  0
  5  9  1  0  0  0  0
  5  6  2  0  0  0  0
  6 10  1  0  0  0  0
  7  3  1  0  0  0  0
  8  4  1  0  0  0  0
 11 12  2  0  0  0  0
 11 15  1  0  0  0  0
 13 11  2  0  0  0  0
 14 21  1  0  0  0  0
 14 20  1  0  0  0  0
 15 16  1  0  0  0  0
 15 14  2  0  0  0  0
 16 18  2  0  0  0  0
 17 16  1  0  0  0  0
 18 19  1  0  0  0  0
 20 19  2  0  0  0  0
 20 23  1  0  0  0  0
 21 22  1  0  0  0  0
 23 24  1  0  0  0  0
 25  2  1  0  0  0  0
 27 25  1  0  0  0  0
 27 30  1  0  0  0  0
 27 26  2  1  0  0  0
 28 29  1  0  0  0  0
 28 27  1  0  0  0  0
 31 35  1  0  0  0  0
 31 30  1  0  0  0  0
 32 31  1  0  0  0  0
 33 31  1  0  0  0  0
 34 35  2  0  0  0  0
 34 40  1  0  0  0  0
 36 37  1  0  0  0  0
 37 43  1  0  0  0  0
 37 38  2  0  0  0  0
 38 44  1  0  0  0  0
 39 38  1  0  0  0  0
 40 39  2  0  0  0  0
 41 36  2  0  0  0  0
 41 40  1  0  0  0  0
 42 36  1  0  0  0  0
M  END
>  <minimizedAffinity>
-6.53652811

$$$$

 OpenBabel03262520363D

 44 46  0  0  0  0  0  0  0  0999 V2000
   38.3640   24.8830   33.7870 C   0  0  0  0  0  0  0  0  0  0  0  0
   37.3290   25.8220   33.6890 C   0  0  0  0  0  0  0  0  0  0  0  0
   37.1690   26.8190   34.6350 C   0  0  0  0  0  0  0  0  0  0  0  0
   38.0300   26.9060   35.7000 C   0  0  0  0  0  0  0  0  0  0  0  0
   39.0440   25.9870   35.7990 C   0  0  0  0  0  0  0  0  0  0  0  0
   39.2360   24.9790   34.8780 C   0  0  0  0  0  0  0  0  0  0  0  0
   36.3360   27.4820   34.4530 H   0  0  0  0  0  0  0  0  0  0  0  0
   37.7740   27.7350   36.3460 H   0  0  0  0  0  0  0  0  0  0  0  0
   39.6220   26.2200   36.7090 H   0  0  0  0  0  0  0  0  0  0  0  0
   40.0510   24.4440   35.2440 H   0  0  0  0  0  0  0  0  0  0  0  0
   38.6310   23.6020   32.6760 S   0  0  0  0  0  0  0  0  0  0  0  0
   39.2600   24.1070   31.4020 O   0  0  0  0  0  0  0  0  0  0  0  0
   39.6240   22.5950   33.3480 O   0  0  0  0  0  0  0  0  0  0  0  0
   36.9550   21.9010   33.5490 C   0  0  0  0  0  0  0  0  0  0  0  0
   37.3020   22.5680   32.3490 C   0  0  0  0  0  0  0  0  0  0  0  0
   36.4580   22.2230   31.3550 C   0  0  0  0  0  0  0  0  0  0  0  0
   36.6220   22.7240   30.4340 H   0  0  0  0  0  0  0  0  0  0  0  0
   35.4000   21.3670   31.3910 C   0  0  0  0  0  3  0  0  0  0  0  0
   35.1260   20.7580   32.5840 C   0  0  0  0  0  3  0  0  0  0  0  0
   35.9050   21.0200   33.6850 C   0  0  0  0  0  0  0  0  0  0  0  0
   37.6050   22.0110   34.8010 O   0  0  0  0  0  0  0  0  0  0  0  0
   38.3390   21.3070   34.9560 H   0  0  0  0  0  0  0  0  0  0  0  0
   35.5090   20.3330   34.8230 O   0  0  0  0  0  0  0  0  0  0  0  0
   35.5670   19.3140   34.8690 H   0  0  0  0  0  0  0  0  0  0  0  0
   36.5420   25.6280   32.5890 O   0  0  0  0  0  0  0  0  0  0  0  0
   37.4550   27.4390   30.8930 O   0  0  0  0  0  0  0  0  0  0  0  0
   36.1770   26.7430   31.3790 P   0  0  1  0  0  0  0  0  0  0  0  0
   35.3660   25.9880   30.0960 O   0  0  0  0  0  0  0  0  0  0  0  0
   36.0730   25.8310   29.3940 H   0  0  0  0  0  0  0  0  0  0  0  0
   35.1980   28.0060   31.9500 O   0  0  0  0  0  0  0  0  0  0  0  0
   35.9790   29.1670   32.0520 C   0  0  0  0  0  0  0  0  0  0  0  0
   35.8770   29.7210   31.1140 H   0  0  0  0  0  0  0  0  0  0  0  0
   37.0590   28.8580   32.0970 H   0  0  0  0  0  0  0  0  0  0  0  0
   34.6900   29.6400   34.1080 C   0  0  0  0  0  3  0  0  0  0  0  0
   35.5970   29.9790   33.2290 C   0  0  0  0  0  3  0  0  0  0  0  0
   35.0840   32.1630   36.7310 C   0  0  0  0  0  0  0  0  0  0  0  0
   33.8010   32.2190   37.2880 C   0  0  0  0  0  0  0  0  0  0  0  0
   32.8130   31.3750   36.7430 C   0  0  0  0  0  0  0  0  0  0  0  0
   33.2100   30.5750   35.7120 N   0  0  0  0  0  0  0  0  0  0  0  0
   34.4310   30.5540   35.2160 C   0  0  0  0  0  0  0  0  0  0  0  0
   35.3680   31.3470   35.7240 N   0  0  0  0  0  0  0  0  0  0  0  0
   35.7740   32.8480   37.2160 H   0  0  0  0  0  0  0  0  0  0  0  0
   33.4590   32.8410   38.1040 H   0  0  0  0  0  0  0  0  0  0  0  0
   31.7910   31.3350   37.0950 H   0  0  0  0  0  0  0  0  0  0  0  0
  1  6  1  0  0  0  0
  2  1  2  0  0  0  0
  2  3  1  0  0  0  0
  3  4  2  0  0  0  0
  4  5  1  0  0  0  0
  4  8  1  0  0  0  0
  5  9  1  0  0  0  0
  6 10  1  0  0  0  0
  6  5  2  0  0  0  0
  7  3  1  0  0  0  0
 11 13  2  0  0  0  0
 11  1  1  0  0  0  0
 12 11  2  0  0  0  0
 14 20  1  0  0  0  0
 14 21  1  0  0  0  0
 15 11  1  0  0  0  0
 15 14  2  0  0  0  0
 16 18  2  0  0  0  0
 16 15  1  0  0  0  0
 17 16  1  0  0  0  0
 18 19  1  0  0  0  0
 19 20  2  0  0  0  0
 20 23  1  0  0  0  0
 21 22  1  0  0  0  0
 23 24  1  0  0  0  0
 25  2  1  0  0  0  0
 27 26  2  6  0  0  0
 27 30  1  0  0  0  0
 27 25  1  0  0  0  0
 28 27  1  0  0  0  0
 29 28  1  0  0  0  0
 30 31  1  0  0  0  0
 31 33  1  0  0  0  0
 31 35  1  0  0  0  0
 32 31  1  0  0  0  0
 34 40  1  0  0  0  0
 35 34  2  0  0  0  0
 36 42  1  0  0  0  0
 36 37  1  0  0  0  0
 37 43  1  0  0  0  0
 38 44  1  0  0  0  0
 38 37  2  0  0  0  0
 39 38  1  0  0  0  0
 40 39  2  0  0  0  0
 40 41  1  0  0  0  0
 41 36  2  0  0  0  0
M  END
>  <minimizedAffinity>
-6.44514799

$$$$

 OpenBabel03262520363D

 44 46  0  0  0  0  0  0  0  0999 V2000
   38.0680   23.7290   33.1510 C   0  0  0  0  0  0  0  0  0  0  0  0
   37.0070   24.2500   32.4000 C   0  0  0  0  0  0  0  0  0  0  0  0
   36.1500   23.4230   31.6950 C   0  0  0  0  0  0  0  0  0  0  0  0
   36.3270   22.0620   31.7190 C   0  0  0  0  0  0  0  0  0  0  0  0
   37.3650   21.5490   32.4540 C   0  0  0  0  0  0  0  0  0  0  0  0
   38.2410   22.3390   33.1680 C   0  0  0  0  0  0  0  0  0  0  0  0
   35.3710   23.9400   31.1530 H   0  0  0  0  0  0  0  0  0  0  0  0
   35.5780   21.5580   31.1230 H   0  0  0  0  0  0  0  0  0  0  0  0
   37.3420   20.4520   32.3510 H   0  0  0  0  0  0  0  0  0  0  0  0
   38.9190   21.6670   33.5840 H   0  0  0  0  0  0  0  0  0  0  0  0
   39.1930   24.6730   34.0410 S   0  0  0  0  0  0  0  0  0  0  0  0
   40.1210   25.4250   33.1230 O   0  0  0  0  0  0  0  0  0  0  0  0
   38.3760   25.7160   34.8760 O   0  0  0  0  0  0  0  0  0  0  0  0
   39.1550   23.5880   36.3410 C   0  0  0  0  0  0  0  0  0  0  0  0
   40.0580   23.8760   35.2890 C   0  0  0  0  0  0  0  0  0  0  0  0
   41.2850   23.3940   35.5760 C   0  0  0  0  0  0  0  0  0  0  0  0
   42.0080   23.5240   34.8080 H   0  0  0  0  0  0  0  0  0  0  0  0
   41.7030   22.7210   36.6820 C   0  0  0  0  0  3  0  0  0  0  0  0
   40.7750   22.4800   37.6570 C   0  0  0  0  0  3  0  0  0  0  0  0
   39.4800   22.9140   37.4970 C   0  0  0  0  0  0  0  0  0  0  0  0
   37.7830   23.9320   36.4010 O   0  0  0  0  0  0  0  0  0  0  0  0
   37.5950   24.8300   36.8660 H   0  0  0  0  0  0  0  0  0  0  0  0
   38.6520   22.5990   38.5640 O   0  0  0  0  0  0  0  0  0  0  0  0
   38.8060   23.0080   39.4880 H   0  0  0  0  0  0  0  0  0  0  0  0
   36.9390   25.6130   32.4550 O   0  0  0  0  0  0  0  0  0  0  0  0
   38.4610   26.4420   30.4590 O   0  0  0  0  0  0  0  0  0  0  0  0
   37.1350   26.7020   31.1840 P   0  0  1  0  0  0  0  0  0  0  0  0
   35.8240   26.6130   30.1130 O   0  0  0  0  0  0  0  0  0  0  0  0
   36.1490   26.0430   29.3470 H   0  0  0  0  0  0  0  0  0  0  0  0
   37.2590   28.3040   31.7310 O   0  0  0  0  0  0  0  0  0  0  0  0
   35.9790   28.8810   31.7180 C   0  0  0  0  0  0  0  0  0  0  0  0
   35.2500   28.0720   31.6140 H   0  0  0  0  0  0  0  0  0  0  0  0
   35.8810   29.4900   30.7780 H   0  0  0  0  0  0  0  0  0  0  0  0
   34.6690   29.6380   33.6730 C   0  0  0  0  0  3  0  0  0  0  0  0
   35.7400   29.7030   32.9260 C   0  0  0  0  0  3  0  0  0  0  0  0
   33.4720   31.4210   36.6380 C   0  0  0  0  0  0  0  0  0  0  0  0
   34.5790   32.2060   36.9830 C   0  0  0  0  0  0  0  0  0  0  0  0
   35.7310   32.1050   36.1760 C   0  0  0  0  0  0  0  0  0  0  0  0
   35.6520   31.2410   35.1250 N   0  0  0  0  0  0  0  0  0  0  0  0
   34.5880   30.5180   34.8340 C   0  0  0  0  0  0  0  0  0  0  0  0
   33.4980   30.6080   35.5910 N   0  0  0  0  0  0  0  0  0  0  0  0
   32.6370   31.5680   37.3160 H   0  0  0  0  0  0  0  0  0  0  0  0
   34.6700   32.8990   37.8080 H   0  0  0  0  0  0  0  0  0  0  0  0
   36.6410   32.6640   36.3490 H   0  0  0  0  0  0  0  0  0  0  0  0
  1  6  1  0  0  0  0
  1 11  1  0  0  0  0
  2 25  1  0  0  0  0
  2  1  2  0  0  0  0
  3  4  2  0  0  0  0
  3  2  1  0  0  0  0
  4  5  1  0  0  0  0
  5  6  2  0  0  0  0
  6 10  1  0  0  0  0
  7  3  1  0  0  0  0
  8  4  1  0  0  0  0
  9  5  1  0  0  0  0
 11 13  2  0  0  0  0
 11 15  1  0  0  0  0
 12 11  2  0  0  0  0
 14 21  1  0  0  0  0
 14 20  1  0  0  0  0
 15 16  1  0  0  0  0
 15 14  2  0  0  0  0
 16 18  2  0  0  0  0
 17 16  1  0  0  0  0
 18 19  1  0  0  0  0
 20 19  2  0  0  0  0
 20 23  1  0  0  0  0
 21 22  1  0  0  0  0
 23 24  1  0  0  0  0
 27 26  2  6  0  0  0
 27 30  1  0  0  0  0
 27 25  1  0  0  0  0
 28 27  1  0  0  0  0
 29 28  1  0  0  0  0
 31 30  1  0  0  0  0
 31 35  1  0  0  0  0
 32 31  1  0  0  0  0
 33 31  1  0  0  0  0
 34 40  1  0  0  0  0
 35 34  2  0  0  0  0
 36 37  1  0  0  0  0
 36 42  1  0  0  0  0
 37 43  1  0  0  0  0
 38 44  1  0  0  0  0
 38 37  2  0  0  0  0
 39 38  1  0  0  0  0
 40 39  2  0  0  0  0
 40 41  1  0  0  0  0
 41 36  2  0  0  0  0
M  END
>  <minimizedAffinity>
-6.4037137

$$$$

 OpenBabel03262520363D

 44 46  0  0  0  0  0  0  0  0999 V2000
   37.5920   26.0820   33.9610 C   0  0  0  0  0  0  0  0  0  0  0  0
   37.1900   26.3050   32.6380 C   0  0  0  0  0  0  0  0  0  0  0  0
   36.4860   27.4410   32.2810 C   0  0  0  0  0  0  0  0  0  0  0  0
   36.1640   28.3810   33.2280 C   0  0  0  0  0  0  0  0  0  0  0  0
   36.5550   28.1660   34.5240 C   0  0  0  0  0  0  0  0  0  0  0  0
   37.2570   27.0470   34.9200 C   0  0  0  0  0  0  0  0  0  0  0  0
   36.2310   27.5010   31.2330 H   0  0  0  0  0  0  0  0  0  0  0  0
   35.6160   29.2070   32.7920 H   0  0  0  0  0  0  0  0  0  0  0  0
   36.2080   29.0210   35.1280 H   0  0  0  0  0  0  0  0  0  0  0  0
   37.3740   27.1620   35.9480 H   0  0  0  0  0  0  0  0  0  0  0  0
   38.4510   24.6980   34.5030 S   0  0  0  0  0  0  0  0  0  0  0  0
   38.0740   23.4760   33.7080 O   0  0  0  0  0  0  0  0  0  0  0  0
   39.9770   24.9750   34.2860 O   0  0  0  0  0  0  0  0  0  0  0  0
   39.3070   23.3040   36.4500 C   0  0  0  0  0  0  0  0  0  0  0  0
   38.4240   24.3800   36.1890 C   0  0  0  0  0  0  0  0  0  0  0  0
   37.8870   24.8400   37.3380 C   0  0  0  0  0  0  0  0  0  0  0  0
   37.2530   25.6840   37.2290 H   0  0  0  0  0  0  0  0  0  0  0  0
   38.0920   24.4060   38.6110 C   0  0  0  0  0  3  0  0  0  0  0  0
   38.9570   23.3620   38.7870 C   0  0  0  0  0  3  0  0  0  0  0  0
   39.5800   22.7940   37.7010 C   0  0  0  0  0  0  0  0  0  0  0  0
   40.0560   22.5690   35.5000 O   0  0  0  0  0  0  0  0  0  0  0  0
   39.5810   21.7230   35.1560 H   0  0  0  0  0  0  0  0  0  0  0  0
   40.4290   21.7480   38.0300 O   0  0  0  0  0  0  0  0  0  0  0  0
   40.0640   20.8810   38.4310 H   0  0  0  0  0  0  0  0  0  0  0  0
   37.5690   25.2990   31.7950 O   0  0  0  0  0  0  0  0  0  0  0  0
   38.7390   26.5920   29.8070 O   0  0  0  0  0  0  0  0  0  0  0  0
   38.8210   25.3240   30.6670 P   0  0  1  0  0  0  0  0  0  0  0  0
   40.3250   25.2060   31.4410 O   0  0  0  0  0  0  0  0  0  0  0  0
   40.6750   26.1510   31.4810 H   0  0  0  0  0  0  0  0  0  0  0  0
   38.7010   24.0480   29.5540 O   0  0  0  0  0  0  0  0  0  0  0  0
   39.4740   22.9740   30.0210 C   0  0  0  0  0  0  0  0  0  0  0  0
   40.1800   23.3660   30.7590 H   0  0  0  0  0  0  0  0  0  0  0  0
   40.1100   22.6060   29.1700 H   0  0  0  0  0  0  0  0  0  0  0  0
   37.3250   21.9520   30.6930 C   0  0  0  0  0  3  0  0  0  0  0  0
   38.6260   21.8930   30.5720 C   0  0  0  0  0  3  0  0  0  0  0  0
   36.5840   18.6300   32.0410 C   0  0  0  0  0  0  0  0  0  0  0  0
   35.2140   18.7180   32.3170 C   0  0  0  0  0  0  0  0  0  0  0  0
   34.5640   19.9350   32.0290 C   0  0  0  0  0  0  0  0  0  0  0  0
   35.3450   20.9210   31.5020 N   0  0  0  0  0  0  0  0  0  0  0  0
   36.6340   20.7970   31.2570 C   0  0  0  0  0  0  0  0  0  0  0  0
   37.2540   19.6520   31.5260 N   0  0  0  0  0  0  0  0  0  0  0  0
   36.9940   17.6570   32.2950 H   0  0  0  0  0  0  0  0  0  0  0  0
   34.5710   17.9540   32.7330 H   0  0  0  0  0  0  0  0  0  0  0  0
   33.5110   20.1130   32.2010 H   0  0  0  0  0  0  0  0  0  0  0  0
  1 11  1  0  0  0  0
  1  6  1  0  0  0  0
  2  1  2  0  0  0  0
  3  2  1  0  0  0  0
  3  4  2  0  0  0  0
  4  5  1  0  0  0  0
  5  6  2  0  0  0  0
  5  9  1  0  0  0  0
  6 10  1  0  0  0  0
  7  3  1  0  0  0  0
  8  4  1  0  0  0  0
 11 15  1  0  0  0  0
 12 11  2  0  0  0  0
 13 11  2  0  0  0  0
 14 20  1  0  0  0  0
 15 14  2  0  0  0  0
 15 16  1  0  0  0  0
 16 18  2  0  0  0  0
 17 16  1  0  0  0  0
 18 19  1  0  0  0  0
 20 23  1  0  0  0  0
 20 19  2  0  0  0  0
 21 14  1  0  0  0  0
 22 21  1  0  0  0  0
 23 24  1  0  0  0  0
 25  2  1  0  0  0  0
 27 26  2  6  0  0  0
 27 28  1  0  0  0  0
 27 25  1  0  0  0  0
 28 29  1  0  0  0  0
 30 31  1  0  0  0  0
 30 27  1  0  0  0  0
 31 35  1  0  0  0  0
 31 32  1  0  0  0  0
 33 31  1  0  0  0  0
 34 40  1  0  0  0  0
 35 34  2  0  0  0  0
 36 42  1  0  0  0  0
 36 37  1  0  0  0  0
 37 43  1  0  0  0  0
 38 44  1  0  0  0  0
 38 37  2  0  0  0  0
 39 38  1  0  0  0  0
 40 39  2  0  0  0  0
 40 41  1  0  0  0  0
 41 36  2  0  0  0  0
M  END
>  <minimizedAffinity>
-6.33391857

$$$$

 OpenBabel03262520363D

 44 46  0  0  0  0  0  0  0  0999 V2000
   40.3850   23.9300   35.5760 C   0  0  0  0  0  0  0  0  0  0  0  0
   40.3200   24.9100   34.5770 C   0  0  0  0  0  0  0  0  0  0  0  0
   41.4580   25.3420   33.9180 C   0  0  0  0  0  0  0  0  0  0  0  0
   42.6830   24.8130   34.2340 C   0  0  0  0  0  0  0  0  0  0  0  0
   42.7500   23.8540   35.2120 C   0  0  0  0  0  0  0  0  0  0  0  0
   41.6410   23.3980   35.8930 C   0  0  0  0  0  0  0  0  0  0  0  0
   41.2820   26.1010   33.1690 H   0  0  0  0  0  0  0  0  0  0  0  0
   43.4680   25.2510   33.6320 H   0  0  0  0  0  0  0  0  0  0  0  0
   43.8060   23.5560   35.3210 H   0  0  0  0  0  0  0  0  0  0  0  0
   42.0190   22.7090   36.5760 H   0  0  0  0  0  0  0  0  0  0  0  0
   39.0350   23.3450   36.4600 S   0  0  0  0  0  0  0  0  0  0  0  0
   39.4680   22.6920   37.7480 O   0  0  0  0  0  0  0  0  0  0  0  0
   38.1320   24.5750   36.8130 O   0  0  0  0  0  0  0  0  0  0  0  0
   36.9060   21.9550   36.5140 C   0  0  0  0  0  0  0  0  0  0  0  0
   37.9160   22.3630   35.6080 C   0  0  0  0  0  0  0  0  0  0  0  0
   37.6540   21.9000   34.3690 C   0  0  0  0  0  0  0  0  0  0  0  0
   38.3410   22.2100   33.6210 H   0  0  0  0  0  0  0  0  0  0  0  0
   36.6070   21.1410   33.9430 C   0  0  0  0  0  3  0  0  0  0  0  0
   35.6710   20.7840   34.8740 C   0  0  0  0  0  3  0  0  0  0  0  0
   35.8110   21.1900   36.1800 C   0  0  0  0  0  0  0  0  0  0  0  0
   36.8350   22.2490   37.8960 O   0  0  0  0  0  0  0  0  0  0  0  0
   37.2670   21.5360   38.4990 H   0  0  0  0  0  0  0  0  0  0  0  0
   34.7880   20.7550   37.0090 O   0  0  0  0  0  0  0  0  0  0  0  0
   34.6550   19.7590   37.2020 H   0  0  0  0  0  0  0  0  0  0  0  0
   39.0480   25.3560   34.3560 O   0  0  0  0  0  0  0  0  0  0  0  0
   39.0530   26.8850   32.2000 O   0  0  0  0  0  0  0  0  0  0  0  0
   38.3290   25.7130   32.8740 P   0  0  1  0  0  0  0  0  0  0  0  0
   38.3140   24.3460   31.8730 O   0  0  0  0  0  0  0  0  0  0  0  0
   39.0930   24.4720   31.2440 H   0  0  0  0  0  0  0  0  0  0  0  0
   36.7290   26.2500   33.0550 O   0  0  0  0  0  0  0  0  0  0  0  0
   36.5440   27.3830   32.2470 C   0  0  0  0  0  0  0  0  0  0  0  0
   35.9510   27.0810   31.3800 H   0  0  0  0  0  0  0  0  0  0  0  0
   37.5450   27.6820   31.8310 H   0  0  0  0  0  0  0  0  0  0  0  0
   36.0850   28.7170   34.2780 C   0  0  0  0  0  3  0  0  0  0  0  0
   35.9160   28.4920   33.0010 C   0  0  0  0  0  3  0  0  0  0  0  0
   33.4940   31.0770   35.3370 C   0  0  0  0  0  0  0  0  0  0  0  0
   34.2330   32.0360   36.0400 C   0  0  0  0  0  0  0  0  0  0  0  0
   35.6260   31.8500   36.1360 C   0  0  0  0  0  0  0  0  0  0  0  0
   36.1250   30.7380   35.5260 N   0  0  0  0  0  0  0  0  0  0  0  0
   35.3940   29.8560   34.8720 C   0  0  0  0  0  0  0  0  0  0  0  0
   34.0780   30.0250   34.7780 N   0  0  0  0  0  0  0  0  0  0  0  0
   32.4330   31.3060   35.3180 H   0  0  0  0  0  0  0  0  0  0  0  0
   33.8650   32.9270   36.5320 H   0  0  0  0  0  0  0  0  0  0  0  0
   36.2930   32.5270   36.6530 H   0  0  0  0  0  0  0  0  0  0  0  0
  1  6  1  0  0  0  0
  1 11  1  0  0  0  0
  2  1  2  0  0  0  0
  3  4  2  0  0  0  0
  3  2  1  0  0  0  0
  4  5  1  0  0  0  0
  5  9  1  0  0  0  0
  5  6  2  0  0  0  0
  6 10  1  0  0  0  0
  7  3  1  0  0  0  0
  8  4  1  0  0  0  0
 11 13  2  0  0  0  0
 11 12  2  0  0  0  0
 14 21  1  0  0  0  0
 15 11  1  0  0  0  0
 15 14  2  0  0  0  0
 16 15  1  0  0  0  0
 17 16  1  0  0  0  0
 18 16  2  0  0  0  0
 18 19  1  0  0  0  0
 19 20  2  0  0  0  0
 20 14  1  0  0  0  0
 20 23  1  0  0  0  0
 21 22  1  0  0  0  0
 23 24  1  0  0  0  0
 25  2  1  0  0  0  0
 27 26  2  6  0  0  0
 27 30  1  0  0  0  0
 27 25  1  0  0  0  0
 28 27  1  0  0  0  0
 29 28  1  0  0  0  0
 31 35  1  0  0  0  0
 31 30  1  0  0  0  0
 32 31  1  0  0  0  0
 33 31  1  0  0  0  0
 34 40  1  0  0  0  0
 35 34  2  0  0  0  0
 36 37  1  0  0  0  0
 37 38  2  0  0  0  0
 37 43  1  0  0  0  0
 38 44  1  0  0  0  0
 39 38  1  0  0  0  0
 40 39  2  0  0  0  0
 41 40  1  0  0  0  0
 41 36  2  0  0  0  0
 42 36  1  0  0  0  0
M  END
>  <minimizedAffinity>
-6.11793423

$$$$

 OpenBabel03262520363D

 44 46  0  0  0  0  0  0  0  0999 V2000
   37.4130   27.6050   33.1390 C   0  0  0  0  0  0  0  0  0  0  0  0
   38.7130   27.1060   32.9870 C   0  0  0  0  0  0  0  0  0  0  0  0
   39.5180   26.8510   34.0830 C   0  0  0  0  0  0  0  0  0  0  0  0
   39.0540   27.0860   35.3520 C   0  0  0  0  0  0  0  0  0  0  0  0
   37.7820   27.5760   35.5040 C   0  0  0  0  0  0  0  0  0  0  0  0
   36.9490   27.8440   34.4390 C   0  0  0  0  0  0  0  0  0  0  0  0
   40.4990   26.4690   33.8400 H   0  0  0  0  0  0  0  0  0  0  0  0
   39.7990   26.8360   36.0960 H   0  0  0  0  0  0  0  0  0  0  0  0
   37.5940   27.6970   36.5840 H   0  0  0  0  0  0  0  0  0  0  0  0
   36.0830   28.2240   34.8740 H   0  0  0  0  0  0  0  0  0  0  0  0
   36.3470   27.9700   31.8430 S   0  0  0  0  0  0  0  0  0  0  0  0
   36.1760   26.7850   30.9270 O   0  0  0  0  0  0  0  0  0  0  0  0
   34.9520   28.3170   32.4630 O   0  0  0  0  0  0  0  0  0  0  0  0
   37.2270   29.0380   29.7090 C   0  0  0  0  0  0  0  0  0  0  0  0
   36.6660   29.4040   30.9570 C   0  0  0  0  0  0  0  0  0  0  0  0
   36.5140   30.7420   31.0320 C   0  0  0  0  0  0  0  0  0  0  0  0
   36.0480   31.0900   31.9200 H   0  0  0  0  0  0  0  0  0  0  0  0
   36.8250   31.6910   30.1070 C   0  0  0  0  0  3  0  0  0  0  0  0
   37.3650   31.2630   28.9260 C   0  0  0  0  0  3  0  0  0  0  0  0
   37.5740   29.9210   28.7110 C   0  0  0  0  0  0  0  0  0  0  0  0
   37.5300   27.7280   29.2650 O   0  0  0  0  0  0  0  0  0  0  0  0
   38.4940   27.4300   29.4650 H   0  0  0  0  0  0  0  0  0  0  0  0
   38.1250   29.6360   27.4710 O   0  0  0  0  0  0  0  0  0  0  0  0
   39.0680   29.9490   27.2310 H   0  0  0  0  0  0  0  0  0  0  0  0
   39.0560   26.9160   31.6790 O   0  0  0  0  0  0  0  0  0  0  0  0
   39.3380   25.5090   29.4590 O   0  0  0  0  0  0  0  0  0  0  0  0
   39.6320   25.5020   30.9640 P   0  0  1  0  0  0  0  0  0  0  0  0
   41.2900   25.3140   31.2620 O   0  0  0  0  0  0  0  0  0  0  0  0
   41.7460   25.6310   30.4200 H   0  0  0  0  0  0  0  0  0  0  0  0
   38.8330   24.1230   31.5460 O   0  0  0  0  0  0  0  0  0  0  0  0
   39.7830   23.2650   32.1210 C   0  0  0  0  0  0  0  0  0  0  0  0
   40.7660   23.5500   31.7340 H   0  0  0  0  0  0  0  0  0  0  0  0
   39.6000   22.2280   31.7290 H   0  0  0  0  0  0  0  0  0  0  0  0
   38.6350   23.1970   34.3090 C   0  0  0  0  0  3  0  0  0  0  0  0
   39.7280   23.3050   33.6000 C   0  0  0  0  0  3  0  0  0  0  0  0
   39.8300   22.7880   37.7460 C   0  0  0  0  0  0  0  0  0  0  0  0
   38.8400   23.4440   38.4870 C   0  0  0  0  0  0  0  0  0  0  0  0
   37.7660   24.0220   37.7800 C   0  0  0  0  0  0  0  0  0  0  0  0
   37.7970   23.8810   36.4240 N   0  0  0  0  0  0  0  0  0  0  0  0
   38.7500   23.2540   35.7630 C   0  0  0  0  0  0  0  0  0  0  0  0
   39.7670   22.7080   36.4230 N   0  0  0  0  0  0  0  0  0  0  0  0
   40.6130   22.3780   38.3770 H   0  0  0  0  0  0  0  0  0  0  0  0
   38.7890   23.5700   39.5600 H   0  0  0  0  0  0  0  0  0  0  0  0
   36.9480   24.5510   38.2490 H   0  0  0  0  0  0  0  0  0  0  0  0
  1  6  1  0  0  0  0
  2  1  2  0  0  0  0
  2  3  1  0  0  0  0
  3  4  2  0  0  0  0
  4  5  1  0  0  0  0
  4  8  1  0  0  0  0
  5  9  1  0  0  0  0
  6 10  1  0  0  0  0
  6  5  2  0  0  0  0
  7  3  1  0  0  0  0
 11 13  2  0  0  0  0
 11  1  1  0  0  0  0
 12 11  2  0  0  0  0
 14 15  1  0  0  0  0
 15 16  2  0  0  0  0
 15 11  1  0  0  0  0
 16 17  1  0  0  0  0
 18 16  1  0  0  0  0
 19 18  2  0  0  0  0
 20 19  1  0  0  0  0
 20 14  2  0  0  0  0
 21 22  1  0  0  0  0
 21 14  1  0  0  0  0
 23 20  1  0  0  0  0
 24 23  1  0  0  0  0
 25  2  1  0  0  0  0
 27 26  2  6  0  0  0
 27 28  1  0  0  0  0
 27 30  1  0  0  0  0
 27 25  1  0  0  0  0
 29 28  1  0  0  0  0
 30 31  1  0  0  0  0
 31 35  1  0  0  0  0
 32 31  1  0  0  0  0
 33 31  1  0  0  0  0
 34 40  1  0  0  0  0
 35 34  2  0  0  0  0
 36 42  1  0  0  0  0
 36 37  1  0  0  0  0
 37 43  1  0  0  0  0
 38 44  1  0  0  0  0
 38 37  2  0  0  0  0
 39 38  1  0  0  0  0
 40 41  1  0  0  0  0
 40 39  2  0  0  0  0
 41 36  2  0  0  0  0
M  END
>  <minimizedAffinity>
-6.03543711

$$$$

 OpenBabel03262520363D

 44 46  0  0  0  0  0  0  0  0999 V2000
   37.3740   23.2960   32.6310 C   0  0  0  0  0  0  0  0  0  0  0  0
   37.2410   24.6380   32.2490 C   0  0  0  0  0  0  0  0  0  0  0  0
   36.2050   25.0550   31.4320 C   0  0  0  0  0  0  0  0  0  0  0  0
   35.2780   24.1520   30.9750 C   0  0  0  0  0  0  0  0  0  0  0  0
   35.4060   22.8380   31.3460 C   0  0  0  0  0  0  0  0  0  0  0  0
   36.4240   22.3820   32.1570 C   0  0  0  0  0  0  0  0  0  0  0  0
   36.2080   26.1110   31.2060 H   0  0  0  0  0  0  0  0  0  0  0  0
   34.5350   24.6320   30.3520 H   0  0  0  0  0  0  0  0  0  0  0  0
   34.5770   22.2750   30.8860 H   0  0  0  0  0  0  0  0  0  0  0  0
   36.2630   21.3560   32.2270 H   0  0  0  0  0  0  0  0  0  0  0  0
   38.6320   22.6820   33.6230 S   0  0  0  0  0  0  0  0  0  0  0  0
   38.8630   21.2150   33.3660 O   0  0  0  0  0  0  0  0  0  0  0  0
   39.9430   23.4570   33.2570 O   0  0  0  0  0  0  0  0  0  0  0  0
   39.6530   22.4350   35.9390 C   0  0  0  0  0  0  0  0  0  0  0  0
   38.5270   23.0120   35.3030 C   0  0  0  0  0  0  0  0  0  0  0  0
   37.7660   23.6740   36.1990 C   0  0  0  0  0  0  0  0  0  0  0  0
   36.9290   24.1800   35.7870 H   0  0  0  0  0  0  0  0  0  0  0  0
   37.9570   23.8230   37.5380 C   0  0  0  0  0  3  0  0  0  0  0  0
   39.0650   23.2360   38.0830 C   0  0  0  0  0  3  0  0  0  0  0  0
   39.9330   22.5300   37.2840 C   0  0  0  0  0  0  0  0  0  0  0  0
   40.6760   21.6700   35.3280 O   0  0  0  0  0  0  0  0  0  0  0  0
   40.5040   20.6560   35.3390 H   0  0  0  0  0  0  0  0  0  0  0  0
   41.0110   21.9930   37.9720 O   0  0  0  0  0  0  0  0  0  0  0  0
   40.8740   21.2670   38.6790 H   0  0  0  0  0  0  0  0  0  0  0  0
   38.2230   25.4340   32.7660 O   0  0  0  0  0  0  0  0  0  0  0  0
   39.8600   27.4870   33.0710 O   0  0  0  0  0  0  0  0  0  0  0  0
   38.6390   26.9940   32.2850 P   0  0  1  0  0  0  0  0  0  0  0  0
   38.9240   27.0480   30.6140 O   0  0  0  0  0  0  0  0  0  0  0  0
   39.9280   27.0170   30.5180 H   0  0  0  0  0  0  0  0  0  0  0  0
   37.4200   28.1190   32.6460 O   0  0  0  0  0  0  0  0  0  0  0  0
   36.7310   27.6800   33.7870 C   0  0  0  0  0  0  0  0  0  0  0  0
   37.3960   27.0120   34.3420 H   0  0  0  0  0  0  0  0  0  0  0  0
   35.8760   27.0330   33.4500 H   0  0  0  0  0  0  0  0  0  0  0  0
   35.2610   29.6010   34.2980 C   0  0  0  0  0  3  0  0  0  0  0  0
   36.2610   28.8180   34.6090 C   0  0  0  0  0  3  0  0  0  0  0  0
   35.4430   32.5690   36.4350 C   0  0  0  0  0  0  0  0  0  0  0  0
   34.1440   32.6470   36.9500 C   0  0  0  0  0  0  0  0  0  0  0  0
   33.2190   31.6630   36.5470 C   0  0  0  0  0  0  0  0  0  0  0  0
   33.6870   30.7180   35.6830 N   0  0  0  0  0  0  0  0  0  0  0  0
   34.9210   30.6800   35.2200 C   0  0  0  0  0  0  0  0  0  0  0  0
   35.8000   31.6050   35.5960 N   0  0  0  0  0  0  0  0  0  0  0  0
   36.0810   33.3680   36.8020 H   0  0  0  0  0  0  0  0  0  0  0  0
   33.7460   33.3830   37.6350 H   0  0  0  0  0  0  0  0  0  0  0  0
   32.1910   31.6260   36.8820 H   0  0  0  0  0  0  0  0  0  0  0  0
  1 11  1  0  0  0  0
  2  1  1  0  0  0  0
  2 25  1  0  0  0  0
  3  2  2  0  0  0  0
  4  5  2  0  0  0  0
  4  3  1  0  0  0  0
  5  6  1  0  0  0  0
  6 10  1  0  0  0  0
  6  1  2  0  0  0  0
  7  3  1  0  0  0  0
  8  4  1  0  0  0  0
  9  5  1  0  0  0  0
 11 15  1  0  0  0  0
 12 11  2  0  0  0  0
 13 11  2  0  0  0  0
 14 20  1  0  0  0  0
 15 14  2  0  0  0  0
 15 16  1  0  0  0  0
 16 18  2  0  0  0  0
 17 16  1  0  0  0  0
 18 19  1  0  0  0  0
 20 23  1  0  0  0  0
 20 19  2  0  0  0  0
 21 22  1  0  0  0  0
 21 14  1  0  0  0  0
 23 24  1  0  0  0  0
 27 30  1  0  0  0  0
 27 25  1  0  0  0  0
 27 26  2  1  0  0  0
 28 27  1  0  0  0  0
 29 28  1  0  0  0  0
 30 31  1  0  0  0  0
 31 32  1  0  0  0  0
 31 35  1  0  0  0  0
 33 31  1  0  0  0  0
 34 35  2  0  0  0  0
 34 40  1  0  0  0  0
 36 42  1  0  0  0  0
 36 37  1  0  0  0  0
 37 43  1  0  0  0  0
 38 44  1  0  0  0  0
 38 37  2  0  0  0  0
 39 38  1  0  0  0  0
 40 41  1  0  0  0  0
 40 39  2  0  0  0  0
 41 36  2  0  0  0  0
M  END
>  <minimizedAffinity>
-5.97501993

$$$$
