
 OpenBabel03262522163D

 47 50  0  0  1  0  0  0  0  0999 V2000
   39.5720   32.9540   44.1700 C   0  0  0  0  0  0  0  0  0  0  0  0
   39.5430   33.6720   43.3090 H   0  0  0  0  0  0  0  0  0  0  0  0
   38.5560   32.6060   44.3830 H   0  0  0  0  0  0  0  0  0  0  0  0
   39.6540   29.6910   42.7770 C   0  0  1  0  0  0  0  0  0  0  0  0
   39.7560   31.1690   42.4340 C   0  0  0  0  0  0  0  0  0  0  0  0
   40.3410   31.7250   43.7130 C   0  0  2  0  0  0  0  0  0  0  0  0
   40.3420   30.7440   44.6520 O   0  0  0  0  0  0  0  0  0  0  0  0
   39.4170   29.7680   44.2740 C   0  0  0  0  0  0  0  0  0  0  0  0
   40.6460   29.1970   42.6420 H   0  0  0  0  0  0  0  0  0  0  0  0
   40.4710   31.2580   41.5930 H   0  0  0  0  0  0  0  0  0  0  0  0
   38.7580   31.5820   42.1860 H   0  0  0  0  0  0  0  0  0  0  0  0
   41.3880   32.0270   43.5150 H   0  0  0  0  0  0  0  0  0  0  0  0
   38.3720   30.0250   44.5200 H   0  0  0  0  0  0  0  0  0  0  0  0
   39.7460   28.8190   44.7360 H   0  0  0  0  0  0  0  0  0  0  0  0
   38.6000   29.1060   42.1090 O   0  0  0  0  0  0  0  0  0  0  0  0
   38.9430   26.8760   41.7590 C   0  0  0  0  0  0  0  0  0  0  0  0
   38.0710   27.8490   42.2590 C   0  0  0  0  0  0  0  0  0  0  0  0
   36.8640   27.4610   42.8070 C   0  0  0  0  0  0  0  0  0  0  0  0
   36.2670   28.2980   43.1640 H   0  0  0  0  0  0  0  0  0  0  0  0
   36.5090   26.1290   42.8680 C   0  0  0  0  0  0  0  0  0  0  0  0
   37.3790   25.1670   42.3700 C   0  0  0  0  0  0  0  0  0  0  0  0
   38.6060   25.5220   41.8090 C   0  0  0  0  0  0  0  0  0  0  0  0
   40.1890   27.1210   41.1800 O   0  0  0  0  0  0  0  0  0  0  0  0
   40.2580   27.6580   40.3310 H   0  0  0  0  0  0  0  0  0  0  0  0
   39.4390   24.5210   41.3250 O   0  0  0  0  0  0  0  0  0  0  0  0
   40.1980   24.1630   41.9270 H   0  0  0  0  0  0  0  0  0  0  0  0
   40.4430   33.6450   45.6020 S   0  0  0  0  0  0  0  0  0  0  0  0
   37.7360   31.8870   47.9160 C   0  0  0  0  0  0  0  0  0  0  0  0
   37.8790   32.5370   49.1530 C   0  0  0  0  0  0  0  0  0  0  0  0
   38.8120   33.5440   49.3280 C   0  0  0  0  0  0  0  0  0  0  0  0
   39.5810   33.8630   48.2320 C   0  0  0  0  0  0  0  0  0  0  0  0
   39.4290   33.2230   47.0410 C   0  0  0  0  0  0  0  0  0  0  0  0
   38.5090   32.2270   46.8590 N   0  0  0  0  0  0  0  0  0  0  0  0
   37.2570   32.2600   49.9970 H   0  0  0  0  0  0  0  0  0  0  0  0
   38.9270   34.0490   50.2780 H   0  0  0  0  0  0  0  0  0  0  0  0
   40.3110   34.6400   48.3440 H   0  0  0  0  0  0  0  0  0  0  0  0
   36.7450   30.8550   47.8210 C   0  0  0  0  0  0  0  0  0  0  0  0
   36.3820   30.4310   46.7210 O   0  0  0  0  0  0  0  0  0  0  0  0
   36.9330   29.5920   49.9320 C   0  0  0  0  0  0  0  0  0  0  0  0
   36.1170   30.2550   49.0110 C   0  0  0  0  0  0  0  0  0  0  0  0
   34.7380   30.3320   49.2440 C   0  0  0  0  0  0  0  0  0  0  0  0
   34.2370   29.7450   50.3800 N   0  0  0  0  0  0  0  0  0  0  0  0
   35.0480   29.1150   51.2450 C   0  0  0  0  0  0  0  0  0  0  0  0
   36.3710   29.0350   51.0310 N   0  0  0  0  0  0  0  0  0  0  0  0
   37.9830   29.5470   49.7310 H   0  0  0  0  0  0  0  0  0  0  0  0
   34.1100   30.8470   48.5270 H   0  0  0  0  0  0  0  0  0  0  0  0
   34.6950   28.6400   52.1500 H   0  0  0  0  0  0  0  0  0  0  0  0
  1  3  1  0  0  0  0
  1 27  1  0  0  0  0
  2  1  1  0  0  0  0
  4  9  1  6  0  0  0
  4  8  1  0  0  0  0
  5  4  1  0  0  0  0
  5  6  1  0  0  0  0
  6 12  1  6  0  0  0
  6  1  1  0  0  0  0
  6  7  1  0  0  0  0
  8 13  1  0  0  0  0
  8  7  1  0  0  0  0
  8 14  1  0  0  0  0
 10  5  1  0  0  0  0
 11  5  1  0  0  0  0
 15 17  1  0  0  0  0
 15  4  1  0  0  0  0
 16 22  2  0  0  0  0
 16 17  1  0  0  0  0
 17 18  2  0  0  0  0
 18 20  1  0  0  0  0
 18 19  1  0  0  0  0
 21 20  2  0  0  0  0
 22 21  1  0  0  0  0
 23 16  1  0  0  0  0
 24 23  1  0  0  0  0
 25 22  1  0  0  0  0
 25 26  1  0  0  0  0
 27 32  1  0  0  0  0
 28 29  1  0  0  0  0
 29 30  2  0  0  0  0
 29 34  1  0  0  0  0
 30 35  1  0  0  0  0
 31 36  1  0  0  0  0
 31 30  1  0  0  0  0
 32 31  2  0  0  0  0
 33 32  1  0  0  0  0
 33 28  2  0  0  0  0
 37 28  1  0  0  0  0
 37 40  1  0  0  0  0
 38 37  2  0  0  0  0
 39 44  1  0  0  0  0
 40 41  1  0  0  0  0
 40 39  2  0  0  0  0
 41 42  2  0  0  0  0
 42 43  1  0  0  0  0
 43 47  1  0  0  0  0
 44 43  2  0  0  0  0
 45 39  1  0  0  0  0
 46 41  1  0  0  0  0
M  END
>  <minimizedAffinity>
-5.66040707

>  <minimizedRMSD>
1.23474729

$$$$
