
 OpenBabel03272509183D

 35 37  0  0  0  0  0  0  0  0999 V2000
   38.1170   31.1340   47.8050 C   0  0  0  0  0  0  0  0  0  0  0  0
   37.0640   31.2940   48.6900 C   0  0  0  0  0  0  0  0  0  0  0  0
   37.1060   32.4890   49.4160 C   0  0  0  0  0  0  0  0  0  0  0  0
   38.1290   33.4260   49.2440 C   0  0  0  0  0  0  0  0  0  0  0  0
   39.1500   33.1690   48.3190 C   0  0  0  0  0  0  0  0  0  0  0  0
   39.1210   32.0010   47.6030 C   0  0  0  0  0  0  0  0  0  0  0  0
   36.3340   32.7290   50.1430 H   0  0  0  0  0  0  0  0  0  0  0  0
   38.1410   34.3460   49.8160 H   0  0  0  0  0  0  0  0  0  0  0  0
   39.9310   33.9160   48.2090 H   0  0  0  0  0  0  0  0  0  0  0  0
   34.9110   30.3320   47.9990 C   0  0  0  0  0  0  0  0  0  0  0  0
   36.0140   30.3390   48.8710 C   0  0  0  0  0  0  0  0  0  0  0  0
   36.0310   29.3940   49.8940 C   0  0  0  0  0  0  0  0  0  0  0  0
   34.9880   28.5240   49.9910 N   0  0  0  0  0  0  0  0  0  0  0  0
   33.9430   28.5540   49.1240 C   0  0  0  0  0  0  0  0  0  0  0  0
   33.9100   29.4510   48.1380 N   0  0  0  0  0  0  0  0  0  0  0  0
   34.9230   31.0730   47.2150 H   0  0  0  0  0  0  0  0  0  0  0  0
   33.1170   27.8560   49.2100 H   0  0  0  0  0  0  0  0  0  0  0  0
   37.1660   29.3530   50.8460 C   0  0  0  0  0  0  0  0  0  0  0  0
   38.0720   29.5820   50.2610 H   0  0  0  0  0  0  0  0  0  0  0  0
   37.1840   28.3280   51.2700 H   0  0  0  0  0  0  0  0  0  0  0  0
   37.0340   30.0560   51.6850 H   0  0  0  0  0  0  0  0  0  0  0  0
   38.1570   29.9550   47.0290 O   0  0  0  0  0  0  0  0  0  0  0  0
   37.3470   29.7500   46.4430 H   0  0  0  0  0  0  0  0  0  0  0  0
   40.1560   31.7800   46.6900 O   0  0  0  0  0  0  0  0  0  0  0  0
   39.7060   33.0330   44.5640 C   0  0  0  0  0  0  0  0  0  0  0  0
   39.8180   31.8990   45.3380 C   0  0  0  0  0  0  0  0  0  0  0  0
   39.5830   30.6500   44.7870 C   0  0  0  0  0  0  0  0  0  0  0  0
   39.6400   29.6850   45.2970 H   0  0  0  0  0  0  0  0  0  0  0  0
   39.2290   30.5060   43.4520 C   0  0  0  0  0  3  0  0  0  0  0  0
   39.1180   31.6480   42.6810 C   0  0  0  0  0  3  0  0  0  0  0  0
   39.3530   32.8750   43.2370 C   0  0  0  0  0  0  0  0  0  0  0  0
   39.9680   34.2010   45.2440 O   0  0  0  0  0  0  0  0  0  0  0  0
   40.8140   34.7370   45.1520 H   0  0  0  0  0  0  0  0  0  0  0  0
   39.2570   34.0560   42.5140 O   0  0  0  0  0  0  0  0  0  0  0  0
   40.0350   34.4840   42.0520 H   0  0  0  0  0  0  0  0  0  0  0  0
  1  2  1  0  0  0  0
  2 11  1  0  0  0  0
  2  3  2  0  0  0  0
  3  7  1  0  0  0  0
  4  3  1  0  0  0  0
  4  8  1  0  0  0  0
  5  4  2  0  0  0  0
  6  1  2  0  0  0  0
  6  5  1  0  0  0  0
  9  5  1  0  0  0  0
 10 15  2  0  0  0  0
 10 11  1  0  0  0  0
 11 12  2  0  0  0  0
 12 13  1  0  0  0  0
 12 18  1  0  0  0  0
 14 17  1  0  0  0  0
 14 13  2  0  0  0  0
 15 14  1  0  0  0  0
 16 10  1  0  0  0  0
 18 20  1  0  0  0  0
 18 21  1  0  0  0  0
 19 18  1  0  0  0  0
 22  1  1  0  0  0  0
 23 22  1  0  0  0  0
 24  6  1  0  0  0  0
 25 32  1  0  0  0  0
 25 26  1  0  0  0  0
 26 24  1  0  0  0  0
 27 28  1  0  0  0  0
 27 26  2  0  0  0  0
 29 27  1  0  0  0  0
 30 31  1  0  0  0  0
 30 29  2  0  0  0  0
 31 25  2  0  0  0  0
 33 32  1  0  0  0  0
 34 31  1  0  0  0  0
 35 34  1  0  0  0  0
M  END
>  <minimizedAffinity>
-6.43002748

>  <minimizedRMSD>
0.640920043

$$$$
