
 OpenBabel03272503413D

 43 46  0  0  1  0  0  0  0  0999 V2000
   39.7540   30.9490   41.7730 C   0  0  2  0  0  0  0  0  0  0  0  0
   39.7880   32.1480   42.7450 C   0  0  1  0  0  0  0  0  0  0  0  0
   38.7010   32.9780   42.1420 C   0  0  0  0  0  0  0  0  0  0  0  0
   38.7690   32.8140   40.7800 O   0  0  0  0  0  0  0  0  0  0  0  0
   39.5940   31.7730   40.4800 C   0  0  0  0  0  0  0  0  0  0  0  0
   40.6940   30.4060   41.7820 H   0  0  0  0  0  0  0  0  0  0  0  0
   40.7470   32.6790   42.6980 H   0  0  0  0  0  0  0  0  0  0  0  0
   38.6790   34.0290   42.4670 H   0  0  0  0  0  0  0  0  0  0  0  0
   37.7060   32.5550   42.4660 H   0  0  0  0  0  0  0  0  0  0  0  0
   40.6110   32.1890   40.2890 H   0  0  0  0  0  0  0  0  0  0  0  0
   39.2540   31.1440   39.6400 H   0  0  0  0  0  0  0  0  0  0  0  0
   38.5030   31.1390   45.9410 C   0  0  0  0  0  0  0  0  0  0  0  0
   39.8370   31.0190   46.1830 C   0  0  0  0  0  0  0  0  0  0  0  0
   40.4520   31.3930   44.9800 C   0  0  0  0  0  0  0  0  0  0  0  0
   39.5090   31.7160   44.0850 N   0  0  0  0  0  0  0  0  0  0  0  0
   38.3030   31.5630   44.6680 N   0  0  0  0  0  0  0  0  0  0  0  0
   40.3610   30.7030   47.0960 H   0  0  0  0  0  0  0  0  0  0  0  0
   41.5460   31.3950   44.8710 H   0  0  0  0  0  0  0  0  0  0  0  0
   36.5860   30.6560   49.1320 C   0  0  0  0  0  0  0  0  0  0  0  0
   37.6290   30.9350   48.2590 C   0  0  0  0  0  0  0  0  0  0  0  0
   37.4470   30.8570   46.8980 C   0  0  0  0  0  0  0  0  0  0  0  0
   36.2240   30.5030   46.4550 N   0  0  0  0  0  0  0  0  0  0  0  0
   35.2060   30.2330   47.3230 C   0  0  0  0  0  0  0  0  0  0  0  0
   35.3690   30.3020   48.6310 N   0  0  0  0  0  0  0  0  0  0  0  0
   38.6230   31.2220   48.5840 H   0  0  0  0  0  0  0  0  0  0  0  0
   34.2140   29.9460   46.9750 H   0  0  0  0  0  0  0  0  0  0  0  0
   36.9310   30.7790   50.4680 O   0  0  0  0  0  0  0  0  0  0  0  0
   36.9430   29.6930   51.3760 C   0  0  0  0  0  0  0  0  0  0  0  0
   35.6620   29.2570   51.6510 F   0  0  0  0  0  0  0  0  0  0  0  0
   37.5880   30.0850   52.5200 F   0  0  0  0  0  0  0  0  0  0  0  0
   37.6710   28.6620   50.8120 F   0  0  0  0  0  0  0  0  0  0  0  0
   38.5880   30.2870   42.0310 O   0  0  0  0  0  0  0  0  0  0  0  0
   37.1660   28.2370   42.3960 C   0  0  0  0  0  0  0  0  0  0  0  0
   38.3300   28.9710   42.2930 C   0  0  0  0  0  0  0  0  0  0  0  0
   39.5350   28.2810   42.4870 C   0  0  0  0  0  0  0  0  0  0  0  0
   40.5530   28.6950   42.4450 H   0  0  0  0  0  0  0  0  0  0  0  0
   39.5550   26.9160   42.7720 C   0  0  0  0  0  3  0  0  0  0  0  0
   38.3780   26.2050   42.8690 C   0  0  0  0  0  3  0  0  0  0  0  0
   37.2090   26.8880   42.6780 C   0  0  0  0  0  0  0  0  0  0  0  0
   36.0390   29.0060   42.1890 O   0  0  0  0  0  0  0  0  0  0  0  0
   35.1390   28.8410   42.6250 H   0  0  0  0  0  0  0  0  0  0  0  0
   35.9140   26.3380   42.7380 O   0  0  0  0  0  0  0  0  0  0  0  0
   35.7400   25.3480   42.5380 H   0  0  0  0  0  0  0  0  0  0  0  0
  1  6  1  1  0  0  0
  1 32  1  0  0  0  0
  1  2  1  0  0  0  0
  2  7  1  6  0  0  0
  2 15  1  0  0  0  0
  3  9  1  0  0  0  0
  3  8  1  0  0  0  0
  3  2  1  0  0  0  0
  4  3  1  0  0  0  0
  5  4  1  0  0  0  0
  5  1  1  0  0  0  0
 10  5  1  0  0  0  0
 11  5  1  0  0  0  0
 12 13  1  0  0  0  0
 12 21  1  0  0  0  0
 13 17  1  0  0  0  0
 14 13  2  0  0  0  0
 15 16  1  0  0  0  0
 15 14  1  0  0  0  0
 16 12  2  0  0  0  0
 18 14  1  0  0  0  0
 19 27  1  0  0  0  0
 20 25  1  0  0  0  0
 20 19  2  0  0  0  0
 21 20  1  0  0  0  0
 22 21  2  0  0  0  0
 22 23  1  0  0  0  0
 23 24  2  0  0  0  0
 24 19  1  0  0  0  0
 26 23  1  0  0  0  0
 27 28  1  0  0  0  0
 28 29  1  0  0  0  0
 28 30  1  0  0  0  0
 31 28  1  0  0  0  0
 32 34  1  0  0  0  0
 33 39  1  0  0  0  0
 34 33  2  0  0  0  0
 34 35  1  0  0  0  0
 35 37  2  0  0  0  0
 36 35  1  0  0  0  0
 37 38  1  0  0  0  0
 39 42  1  0  0  0  0
 39 38  2  0  0  0  0
 40 33  1  0  0  0  0
 40 41  1  0  0  0  0
 43 42  1  0  0  0  0
M  END
>  <minimizedAffinity>
-6.36277914

>  <minimizedRMSD>
0.299586177

$$$$
