
 OpenBabel03272503433D

 43 46  0  0  1  0  0  0  0  0999 V2000
   42.4220   23.3770   35.6130 C   0  0  2  0  0  0  0  0  0  0  0  0
   42.9000   23.9560   34.2630 C   0  0  1  0  0  0  0  0  0  0  0  0
   42.7340   22.7410   33.4080 C   0  0  0  0  0  0  0  0  0  0  0  0
   43.0550   21.6510   34.1800 O   0  0  0  0  0  0  0  0  0  0  0  0
   43.1400   22.0190   35.4880 C   0  0  0  0  0  0  0  0  0  0  0  0
   42.8080   23.9540   36.4470 H   0  0  0  0  0  0  0  0  0  0  0  0
   43.9550   24.2550   34.3020 H   0  0  0  0  0  0  0  0  0  0  0  0
   43.2550   22.7740   32.4390 H   0  0  0  0  0  0  0  0  0  0  0  0
   41.6410   22.6350   33.1440 H   0  0  0  0  0  0  0  0  0  0  0  0
   44.2090   22.2500   35.7070 H   0  0  0  0  0  0  0  0  0  0  0  0
   42.7350   21.2820   36.2000 H   0  0  0  0  0  0  0  0  0  0  0  0
   40.5330   26.3010   32.9270 C   0  0  0  0  0  0  0  0  0  0  0  0
   41.2540   27.1330   33.7260 C   0  0  0  0  0  0  0  0  0  0  0  0
   42.2270   26.3120   34.3120 C   0  0  0  0  0  0  0  0  0  0  0  0
   42.0710   25.0580   33.8660 N   0  0  0  0  0  0  0  0  0  0  0  0
   41.0290   25.0400   33.0110 N   0  0  0  0  0  0  0  0  0  0  0  0
   41.1390   28.2120   33.9050 H   0  0  0  0  0  0  0  0  0  0  0  0
   42.9680   26.7120   35.0180 H   0  0  0  0  0  0  0  0  0  0  0  0
   37.0940   26.5780   31.4490 C   0  0  0  0  0  0  0  0  0  0  0  0
   38.1420   26.1670   32.2610 C   0  0  0  0  0  0  0  0  0  0  0  0
   39.4020   26.6950   32.1050 C   0  0  0  0  0  0  0  0  0  0  0  0
   39.5720   27.6200   31.1380 N   0  0  0  0  0  0  0  0  0  0  0  0
   38.5330   28.0170   30.3470 C   0  0  0  0  0  0  0  0  0  0  0  0
   37.3200   27.5160   30.4870 N   0  0  0  0  0  0  0  0  0  0  0  0
   38.0390   25.4260   33.0470 H   0  0  0  0  0  0  0  0  0  0  0  0
   38.6590   28.7630   29.5630 H   0  0  0  0  0  0  0  0  0  0  0  0
   35.8920   25.9510   31.7340 O   0  0  0  0  0  0  0  0  0  0  0  0
   35.4090   24.8250   31.0240 C   0  0  0  0  0  0  0  0  0  0  0  0
   34.7950   23.9250   31.8720 F   0  0  0  0  0  0  0  0  0  0  0  0
   36.4560   24.2440   30.3580 F   0  0  0  0  0  0  0  0  0  0  0  0
   34.4990   25.2640   30.0800 F   0  0  0  0  0  0  0  0  0  0  0  0
   41.0760   23.1870   35.4860 O   0  0  0  0  0  0  0  0  0  0  0  0
   39.6520   22.7810   37.5270 C   0  0  0  0  0  0  0  0  0  0  0  0
   40.0440   23.3970   36.3570 C   0  0  0  0  0  0  0  0  0  0  0  0
   39.2600   24.4710   35.9120 C   0  0  0  0  0  0  0  0  0  0  0  0
   39.4150   25.0800   35.0090 H   0  0  0  0  0  0  0  0  0  0  0  0
   38.1370   24.8970   36.6220 C   0  0  0  0  0  3  0  0  0  0  0  0
   37.7670   24.2640   37.7900 C   0  0  0  0  0  3  0  0  0  0  0  0
   38.5390   23.2170   38.2130 C   0  0  0  0  0  0  0  0  0  0  0  0
   40.4870   21.7380   37.8770 O   0  0  0  0  0  0  0  0  0  0  0  0
   40.1940   20.9070   38.3780 H   0  0  0  0  0  0  0  0  0  0  0  0
   38.3230   22.4520   39.3740 O   0  0  0  0  0  0  0  0  0  0  0  0
   37.8330   22.8350   40.1890 H   0  0  0  0  0  0  0  0  0  0  0  0
  1  6  1  1  0  0  0
  2  7  1  1  0  0  0
  2  1  1  0  0  0  0
  3  4  1  0  0  0  0
  3  2  1  0  0  0  0
  4  5  1  0  0  0  0
  5  1  1  0  0  0  0
  5 10  1  0  0  0  0
  5 11  1  0  0  0  0
  8  3  1  0  0  0  0
  9  3  1  0  0  0  0
 12 16  2  0  0  0  0
 12 13  1  0  0  0  0
 13 17  1  0  0  0  0
 13 14  2  0  0  0  0
 14 18  1  0  0  0  0
 15  2  1  0  0  0  0
 15 14  1  0  0  0  0
 16 15  1  0  0  0  0
 19 27  1  0  0  0  0
 19 20  1  0  0  0  0
 20 25  1  0  0  0  0
 21 20  2  0  0  0  0
 21 12  1  0  0  0  0
 22 21  1  0  0  0  0
 23 24  1  0  0  0  0
 23 22  2  0  0  0  0
 24 19  2  0  0  0  0
 26 23  1  0  0  0  0
 28 27  1  0  0  0  0
 28 29  1  0  0  0  0
 30 28  1  0  0  0  0
 31 28  1  0  0  0  0
 32  1  1  0  0  0  0
 32 34  1  0  0  0  0
 33 40  1  0  0  0  0
 33 39  1  0  0  0  0
 34 33  2  0  0  0  0
 35 34  1  0  0  0  0
 35 37  2  0  0  0  0
 36 35  1  0  0  0  0
 37 38  1  0  0  0  0
 38 39  2  0  0  0  0
 39 42  1  0  0  0  0
 40 41  1  0  0  0  0
 42 43  1  0  0  0  0
M  END
>  <minimizedAffinity>
-6.50302887

$$$$

 OpenBabel03272503433D

 43 46  0  0  1  0  0  0  0  0999 V2000
   34.2080   29.8000   32.4640 C   0  0  2  0  0  0  0  0  0  0  0  0
   35.4620   29.4650   31.6280 C   0  0  1  0  0  0  0  0  0  0  0  0
   36.3140   30.6390   31.9900 C   0  0  0  0  0  0  0  0  0  0  0  0
   35.4800   31.7230   32.1220 O   0  0  0  0  0  0  0  0  0  0  0  0
   34.1840   31.3090   32.1510 C   0  0  0  0  0  0  0  0  0  0  0  0
   33.3280   29.3000   32.0730 H   0  0  0  0  0  0  0  0  0  0  0  0
   35.2430   29.4670   30.5530 H   0  0  0  0  0  0  0  0  0  0  0  0
   37.1770   30.8140   31.3290 H   0  0  0  0  0  0  0  0  0  0  0  0
   36.7640   30.4550   33.0090 H   0  0  0  0  0  0  0  0  0  0  0  0
   33.7840   31.3690   31.1120 H   0  0  0  0  0  0  0  0  0  0  0  0
   33.5420   31.8580   32.8600 H   0  0  0  0  0  0  0  0  0  0  0  0
   37.1870   26.6440   33.0260 C   0  0  0  0  0  0  0  0  0  0  0  0
   36.3820   26.0020   32.1370 C   0  0  0  0  0  0  0  0  0  0  0  0
   35.6460   27.0230   31.5190 C   0  0  0  0  0  0  0  0  0  0  0  0
   36.0150   28.2040   32.0340 N   0  0  0  0  0  0  0  0  0  0  0  0
   36.9650   27.9810   32.9640 N   0  0  0  0  0  0  0  0  0  0  0  0
   36.2920   24.9290   31.9160 H   0  0  0  0  0  0  0  0  0  0  0  0
   34.9020   26.8050   30.7410 H   0  0  0  0  0  0  0  0  0  0  0  0
   38.7310   24.4760   35.6730 C   0  0  0  0  0  0  0  0  0  0  0  0
   37.7790   25.0620   34.8490 C   0  0  0  0  0  0  0  0  0  0  0  0
   38.1420   26.0010   33.9120 C   0  0  0  0  0  0  0  0  0  0  0  0
   39.4480   26.3230   33.8290 N   0  0  0  0  0  0  0  0  0  0  0  0
   40.3750   25.7390   34.6440 C   0  0  0  0  0  0  0  0  0  0  0  0
   40.0390   24.8380   35.5480 N   0  0  0  0  0  0  0  0  0  0  0  0
   36.7210   24.8250   34.8910 H   0  0  0  0  0  0  0  0  0  0  0  0
   41.4330   25.9920   34.5850 H   0  0  0  0  0  0  0  0  0  0  0  0
   38.2050   23.5530   36.5610 O   0  0  0  0  0  0  0  0  0  0  0  0
   38.2630   23.6990   37.9690 C   0  0  0  0  0  0  0  0  0  0  0  0
   37.3050   22.9240   38.5920 F   0  0  0  0  0  0  0  0  0  0  0  0
   38.1060   25.0250   38.2790 F   0  0  0  0  0  0  0  0  0  0  0  0
   39.5190   23.3110   38.3940 F   0  0  0  0  0  0  0  0  0  0  0  0
   34.5660   29.6180   33.7700 O   0  0  0  0  0  0  0  0  0  0  0  0
   34.7550   31.1760   35.7430 C   0  0  0  0  0  0  0  0  0  0  0  0
   34.1640   30.2430   34.9160 C   0  0  0  0  0  0  0  0  0  0  0  0
   32.8810   29.8030   35.2720 C   0  0  0  0  0  0  0  0  0  0  0  0
   32.2570   29.0690   34.7400 H   0  0  0  0  0  0  0  0  0  0  0  0
   32.2330   30.2860   36.4090 C   0  0  0  0  0  3  0  0  0  0  0  0
   32.8470   31.2190   37.2190 C   0  0  0  0  0  3  0  0  0  0  0  0
   34.0980   31.6410   36.8620 C   0  0  0  0  0  0  0  0  0  0  0  0
   36.0130   31.5420   35.3070 O   0  0  0  0  0  0  0  0  0  0  0  0
   36.7760   31.8230   35.9130 H   0  0  0  0  0  0  0  0  0  0  0  0
   34.8790   32.5820   37.5580 O   0  0  0  0  0  0  0  0  0  0  0  0
   34.4540   33.3090   38.1430 H   0  0  0  0  0  0  0  0  0  0  0  0
  1  6  1  6  0  0  0
  1 32  1  0  0  0  0
  2  7  1  6  0  0  0
  2  3  1  0  0  0  0
  2 15  1  0  0  0  0
  2  1  1  0  0  0  0
  3  4  1  0  0  0  0
  3  9  1  0  0  0  0
  4  5  1  0  0  0  0
  5  1  1  0  0  0  0
  5 11  1  0  0  0  0
  8  3  1  0  0  0  0
 10  5  1  0  0  0  0
 12 21  1  0  0  0  0
 13 12  1  0  0  0  0
 14 15  1  0  0  0  0
 14 13  2  0  0  0  0
 15 16  1  0  0  0  0
 16 12  2  0  0  0  0
 17 13  1  0  0  0  0
 18 14  1  0  0  0  0
 19 27  1  0  0  0  0
 20 25  1  0  0  0  0
 20 19  2  0  0  0  0
 21 20  1  0  0  0  0
 22 21  2  0  0  0  0
 22 23  1  0  0  0  0
 23 24  2  0  0  0  0
 24 19  1  0  0  0  0
 26 23  1  0  0  0  0
 27 28  1  0  0  0  0
 28 30  1  0  0  0  0
 28 31  1  0  0  0  0
 28 29  1  0  0  0  0
 32 34  1  0  0  0  0
 33 39  1  0  0  0  0
 34 35  1  0  0  0  0
 34 33  2  0  0  0  0
 35 37  2  0  0  0  0
 36 35  1  0  0  0  0
 37 38  1  0  0  0  0
 39 38  2  0  0  0  0
 39 42  1  0  0  0  0
 40 33  1  0  0  0  0
 40 41  1  0  0  0  0
 42 43  1  0  0  0  0
M  END
>  <minimizedAffinity>
-6.40874434

$$$$

 OpenBabel03272503433D

 43 46  0  0  1  0  0  0  0  0999 V2000
   38.7930   22.8360   32.8170 C   0  0  2  0  0  0  0  0  0  0  0  0
   38.0520   22.7600   31.4640 C   0  0  1  0  0  0  0  0  0  0  0  0
   37.3790   21.4360   31.6320 C   0  0  0  0  0  0  0  0  0  0  0  0
   38.2410   20.6240   32.3290 O   0  0  0  0  0  0  0  0  0  0  0  0
   39.2570   21.3660   32.8480 C   0  0  0  0  0  0  0  0  0  0  0  0
   39.6370   23.5160   32.7670 H   0  0  0  0  0  0  0  0  0  0  0  0
   38.7540   22.7280   30.6210 H   0  0  0  0  0  0  0  0  0  0  0  0
   36.9890   20.9880   30.7060 H   0  0  0  0  0  0  0  0  0  0  0  0
   36.4710   21.5770   32.2880 H   0  0  0  0  0  0  0  0  0  0  0  0
   40.1070   21.3290   32.1270 H   0  0  0  0  0  0  0  0  0  0  0  0
   39.5750   21.0650   33.8600 H   0  0  0  0  0  0  0  0  0  0  0  0
   36.2620   25.8620   31.2200 C   0  0  0  0  0  0  0  0  0  0  0  0
   35.2380   24.9900   31.0180 C   0  0  0  0  0  0  0  0  0  0  0  0
   35.8290   23.7210   31.0920 C   0  0  0  0  0  0  0  0  0  0  0  0
   37.1400   23.8590   31.3280 N   0  0  0  0  0  0  0  0  0  0  0  0
   37.4180   25.1760   31.4100 N   0  0  0  0  0  0  0  0  0  0  0  0
   34.1720   25.1870   30.8330 H   0  0  0  0  0  0  0  0  0  0  0  0
   35.2380   22.8030   30.9650 H   0  0  0  0  0  0  0  0  0  0  0  0
   35.4180   29.3840   32.2020 C   0  0  0  0  0  0  0  0  0  0  0  0
   35.5030   27.9990   32.2360 C   0  0  0  0  0  0  0  0  0  0  0  0
   36.1440   27.3100   31.2340 C   0  0  0  0  0  0  0  0  0  0  0  0
   36.6810   28.0310   30.2290 N   0  0  0  0  0  0  0  0  0  0  0  0
   36.5910   29.3920   30.2080 C   0  0  0  0  0  0  0  0  0  0  0  0
   35.9770   30.0650   31.1630 N   0  0  0  0  0  0  0  0  0  0  0  0
   35.0820   27.3910   33.0300 H   0  0  0  0  0  0  0  0  0  0  0  0
   37.0210   29.9850   29.4010 H   0  0  0  0  0  0  0  0  0  0  0  0
   34.7410   29.9260   33.2830 O   0  0  0  0  0  0  0  0  0  0  0  0
   35.3880   30.5040   34.4020 C   0  0  0  0  0  0  0  0  0  0  0  0
   36.0640   31.6560   34.0490 F   0  0  0  0  0  0  0  0  0  0  0  0
   36.2400   29.5770   34.9440 F   0  0  0  0  0  0  0  0  0  0  0  0
   34.4290   30.8030   35.3510 F   0  0  0  0  0  0  0  0  0  0  0  0
   37.8290   23.0220   33.7650 O   0  0  0  0  0  0  0  0  0  0  0  0
   37.7890   22.8430   36.2800 C   0  0  0  0  0  0  0  0  0  0  0  0
   37.8970   23.4680   35.0550 C   0  0  0  0  0  0  0  0  0  0  0  0
   38.1270   24.8510   35.0660 C   0  0  0  0  0  0  0  0  0  0  0  0
   38.2400   25.5150   34.1960 H   0  0  0  0  0  0  0  0  0  0  0  0
   38.2410   25.5620   36.2610 C   0  0  0  0  0  3  0  0  0  0  0  0
   38.1280   24.9130   37.4730 C   0  0  0  0  0  3  0  0  0  0  0  0
   37.9040   23.5640   37.4490 C   0  0  0  0  0  0  0  0  0  0  0  0
   37.5640   21.4870   36.1600 O   0  0  0  0  0  0  0  0  0  0  0  0
   37.0330   20.9280   36.8180 H   0  0  0  0  0  0  0  0  0  0  0  0
   37.7630   22.7330   38.5770 O   0  0  0  0  0  0  0  0  0  0  0  0
   38.1940   22.9680   39.4770 H   0  0  0  0  0  0  0  0  0  0  0  0
  1  6  1  1  0  0  0
  1  5  1  0  0  0  0
  1 32  1  0  0  0  0
  2  7  1  6  0  0  0
  2  3  1  0  0  0  0
  2  1  1  0  0  0  0
  3  9  1  0  0  0  0
  3  4  1  0  0  0  0
  4  5  1  0  0  0  0
  5 11  1  0  0  0  0
  8  3  1  0  0  0  0
 10  5  1  0  0  0  0
 12 21  1  0  0  0  0
 12 16  2  0  0  0  0
 13 14  2  0  0  0  0
 13 12  1  0  0  0  0
 14 15  1  0  0  0  0
 15 16  1  0  0  0  0
 15  2  1  0  0  0  0
 17 13  1  0  0  0  0
 18 14  1  0  0  0  0
 19 20  1  0  0  0  0
 19 27  1  0  0  0  0
 20 25  1  0  0  0  0
 21 20  2  0  0  0  0
 22 21  1  0  0  0  0
 23 22  2  0  0  0  0
 23 24  1  0  0  0  0
 24 19  2  0  0  0  0
 26 23  1  0  0  0  0
 27 28  1  0  0  0  0
 28 30  1  0  0  0  0
 28 31  1  0  0  0  0
 29 28  1  0  0  0  0
 32 34  1  0  0  0  0
 33 39  1  0  0  0  0
 34 35  1  0  0  0  0
 34 33  2  0  0  0  0
 35 37  2  0  0  0  0
 36 35  1  0  0  0  0
 37 38  1  0  0  0  0
 39 38  2  0  0  0  0
 39 42  1  0  0  0  0
 40 33  1  0  0  0  0
 40 41  1  0  0  0  0
 42 43  1  0  0  0  0
M  END
>  <minimizedAffinity>
-6.3736496

$$$$

 OpenBabel03272503433D

 43 46  0  0  1  0  0  0  0  0999 V2000
   37.7390   23.8410   31.7860 C   0  0  2  0  0  0  0  0  0  0  0  0
   36.7240   24.5730   30.8820 C   0  0  1  0  0  0  0  0  0  0  0  0
   35.4570   23.9940   31.4240 C   0  0  0  0  0  0  0  0  0  0  0  0
   35.7150   22.6850   31.7540 O   0  0  0  0  0  0  0  0  0  0  0  0
   37.0570   22.4590   31.7360 C   0  0  0  0  0  0  0  0  0  0  0  0
   38.7240   23.8130   31.3310 H   0  0  0  0  0  0  0  0  0  0  0  0
   36.8500   24.2990   29.8270 H   0  0  0  0  0  0  0  0  0  0  0  0
   34.5690   24.1290   30.7880 H   0  0  0  0  0  0  0  0  0  0  0  0
   35.2040   24.5240   32.3880 H   0  0  0  0  0  0  0  0  0  0  0  0
   37.3200   22.0580   30.7290 H   0  0  0  0  0  0  0  0  0  0  0  0
   37.4240   21.7990   32.5390 H   0  0  0  0  0  0  0  0  0  0  0  0
   36.4240   28.0870   31.5530 C   0  0  0  0  0  0  0  0  0  0  0  0
   37.6720   28.0630   31.0120 C   0  0  0  0  0  0  0  0  0  0  0  0
   37.9030   26.7150   30.7050 C   0  0  0  0  0  0  0  0  0  0  0  0
   36.8290   25.9940   31.0560 N   0  0  0  0  0  0  0  0  0  0  0  0
   35.9110   26.8310   31.5800 N   0  0  0  0  0  0  0  0  0  0  0  0
   38.3790   28.8870   30.8340 H   0  0  0  0  0  0  0  0  0  0  0  0
   38.8450   26.3820   30.2480 H   0  0  0  0  0  0  0  0  0  0  0  0
   34.8550   30.6760   33.7710 C   0  0  0  0  0  0  0  0  0  0  0  0
   35.5160   29.5250   33.3650 C   0  0  0  0  0  0  0  0  0  0  0  0
   35.7380   29.2750   32.0310 C   0  0  0  0  0  0  0  0  0  0  0  0
   35.2900   30.1880   31.1460 N   0  0  0  0  0  0  0  0  0  0  0  0
   34.6420   31.3160   31.5570 C   0  0  0  0  0  0  0  0  0  0  0  0
   34.4220   31.5660   32.8350 N   0  0  0  0  0  0  0  0  0  0  0  0
   35.8880   28.7720   34.0520 H   0  0  0  0  0  0  0  0  0  0  0  0
   34.2760   32.0600   30.8510 H   0  0  0  0  0  0  0  0  0  0  0  0
   34.7110   30.7790   35.1450 O   0  0  0  0  0  0  0  0  0  0  0  0
   35.5000   31.6340   35.9530 C   0  0  0  0  0  0  0  0  0  0  0  0
   35.5730   32.9030   35.4140 F   0  0  0  0  0  0  0  0  0  0  0  0
   36.7460   31.0810   36.0890 F   0  0  0  0  0  0  0  0  0  0  0  0
   34.9250   31.6970   37.2080 F   0  0  0  0  0  0  0  0  0  0  0  0
   37.5860   24.3730   33.0340 O   0  0  0  0  0  0  0  0  0  0  0  0
   38.1320   26.2420   34.6350 C   0  0  0  0  0  0  0  0  0  0  0  0
   38.3870   25.1940   33.7750 C   0  0  0  0  0  0  0  0  0  0  0  0
   39.7320   24.8490   33.5780 C   0  0  0  0  0  0  0  0  0  0  0  0
   40.1260   24.0480   32.9350 H   0  0  0  0  0  0  0  0  0  0  0  0
   40.7630   25.5330   34.2210 C   0  0  0  0  0  3  0  0  0  0  0  0
   40.4800   26.5780   35.0760 C   0  0  0  0  0  3  0  0  0  0  0  0
   39.1650   26.9060   35.2600 C   0  0  0  0  0  0  0  0  0  0  0  0
   36.7820   26.5020   34.7600 O   0  0  0  0  0  0  0  0  0  0  0  0
   36.3840   27.4180   34.9370 H   0  0  0  0  0  0  0  0  0  0  0  0
   38.6820   27.9360   36.0900 O   0  0  0  0  0  0  0  0  0  0  0  0
   39.2080   28.2620   36.9070 H   0  0  0  0  0  0  0  0  0  0  0  0
  1  6  1  6  0  0  0
  1 32  1  0  0  0  0
  2  7  1  6  0  0  0
  2 15  1  0  0  0  0
  2  3  1  0  0  0  0
  2  1  1  0  0  0  0
  3  4  1  0  0  0  0
  3  9  1  0  0  0  0
  5  4  1  0  0  0  0
  5  1  1  0  0  0  0
  5 11  1  0  0  0  0
  8  3  1  0  0  0  0
 10  5  1  0  0  0  0
 12 16  2  0  0  0  0
 12 21  1  0  0  0  0
 13 12  1  0  0  0  0
 14 13  2  0  0  0  0
 14 15  1  0  0  0  0
 15 16  1  0  0  0  0
 17 13  1  0  0  0  0
 18 14  1  0  0  0  0
 19 27  1  0  0  0  0
 20 19  1  0  0  0  0
 20 25  1  0  0  0  0
 21 20  2  0  0  0  0
 22 23  2  0  0  0  0
 22 21  1  0  0  0  0
 23 24  1  0  0  0  0
 24 19  2  0  0  0  0
 26 23  1  0  0  0  0
 27 28  1  0  0  0  0
 28 30  1  0  0  0  0
 28 31  1  0  0  0  0
 29 28  1  0  0  0  0
 32 34  1  0  0  0  0
 33 40  1  0  0  0  0
 33 39  1  0  0  0  0
 34 33  2  0  0  0  0
 35 34  1  0  0  0  0
 35 37  2  0  0  0  0
 36 35  1  0  0  0  0
 37 38  1  0  0  0  0
 38 39  2  0  0  0  0
 39 42  1  0  0  0  0
 40 41  1  0  0  0  0
 42 43  1  0  0  0  0
M  END
>  <minimizedAffinity>
-6.29170752

$$$$

 OpenBabel03272503433D

 43 46  0  0  1  0  0  0  0  0999 V2000
   34.5000   29.0280   32.5960 C   0  0  2  0  0  0  0  0  0  0  0  0
   35.5650   28.7200   31.5200 C   0  0  1  0  0  0  0  0  0  0  0  0
   36.0540   30.1090   31.2620 C   0  0  0  0  0  0  0  0  0  0  0  0
   34.9720   30.9490   31.3630 O   0  0  0  0  0  0  0  0  0  0  0  0
   33.9210   30.2860   31.9180 C   0  0  0  0  0  0  0  0  0  0  0  0
   33.7610   28.2360   32.6570 H   0  0  0  0  0  0  0  0  0  0  0  0
   35.1130   28.2990   30.6140 H   0  0  0  0  0  0  0  0  0  0  0  0
   36.6370   30.2360   30.3370 H   0  0  0  0  0  0  0  0  0  0  0  0
   36.7630   30.3990   32.0920 H   0  0  0  0  0  0  0  0  0  0  0  0
   33.2940   29.8870   31.0870 H   0  0  0  0  0  0  0  0  0  0  0  0
   33.3200   30.8830   32.6230 H   0  0  0  0  0  0  0  0  0  0  0  0
   37.6100   26.1700   33.0030 C   0  0  0  0  0  0  0  0  0  0  0  0
   38.5800   27.0280   32.5870 C   0  0  0  0  0  0  0  0  0  0  0  0
   37.8870   28.0850   31.9800 C   0  0  0  0  0  0  0  0  0  0  0  0
   36.5710   27.8420   32.0460 N   0  0  0  0  0  0  0  0  0  0  0  0
   36.3890   26.6630   32.6750 N   0  0  0  0  0  0  0  0  0  0  0  0
   39.6740   26.9540   32.6810 H   0  0  0  0  0  0  0  0  0  0  0  0
   38.4150   28.9420   31.5420 H   0  0  0  0  0  0  0  0  0  0  0  0
   38.5790   23.6130   35.5740 C   0  0  0  0  0  0  0  0  0  0  0  0
   38.3800   24.8400   34.9560 C   0  0  0  0  0  0  0  0  0  0  0  0
   37.8390   24.9130   33.6940 C   0  0  0  0  0  0  0  0  0  0  0  0
   37.5140   23.7520   33.0910 N   0  0  0  0  0  0  0  0  0  0  0  0
   37.7130   22.5520   33.7090 C   0  0  0  0  0  0  0  0  0  0  0  0
   38.2320   22.4690   34.9200 N   0  0  0  0  0  0  0  0  0  0  0  0
   38.6310   25.7910   35.4150 H   0  0  0  0  0  0  0  0  0  0  0  0
   37.4540   21.6080   33.2300 H   0  0  0  0  0  0  0  0  0  0  0  0
   39.1310   23.7120   36.8410 O   0  0  0  0  0  0  0  0  0  0  0  0
   38.3630   23.8710   38.0200 C   0  0  0  0  0  0  0  0  0  0  0  0
   37.9650   25.1830   38.1840 F   0  0  0  0  0  0  0  0  0  0  0  0
   39.1060   23.4410   39.0880 F   0  0  0  0  0  0  0  0  0  0  0  0
   37.2490   23.0580   37.9250 F   0  0  0  0  0  0  0  0  0  0  0  0
   35.1900   29.3980   33.7140 O   0  0  0  0  0  0  0  0  0  0  0  0
   33.7390   30.3500   35.5440 C   0  0  0  0  0  0  0  0  0  0  0  0
   34.8610   30.2240   34.7520 C   0  0  0  0  0  0  0  0  0  0  0  0
   35.9240   31.1000   35.0150 C   0  0  0  0  0  0  0  0  0  0  0  0
   36.8910   31.1490   34.4930 H   0  0  0  0  0  0  0  0  0  0  0  0
   35.8500   32.0530   36.0310 C   0  0  0  0  0  3  0  0  0  0  0  0
   34.7150   32.1570   36.8080 C   0  0  0  0  0  3  0  0  0  0  0  0
   33.6850   31.2980   36.5420 C   0  0  0  0  0  0  0  0  0  0  0  0
   32.7530   29.4450   35.2040 O   0  0  0  0  0  0  0  0  0  0  0  0
   31.7570   29.6130   35.2990 H   0  0  0  0  0  0  0  0  0  0  0  0
   32.4550   31.2520   37.2240 O   0  0  0  0  0  0  0  0  0  0  0  0
   32.3650   31.5640   38.1970 H   0  0  0  0  0  0  0  0  0  0  0  0
  1  6  1  1  0  0  0
  1 32  1  0  0  0  0
  2  7  1  6  0  0  0
  2 15  1  0  0  0  0
  2  1  1  0  0  0  0
  3  4  1  0  0  0  0
  3  2  1  0  0  0  0
  3  9  1  0  0  0  0
  4  5  1  0  0  0  0
  5  1  1  0  0  0  0
  5 11  1  0  0  0  0
  8  3  1  0  0  0  0
 10  5  1  0  0  0  0
 12 21  1  0  0  0  0
 13 17  1  0  0  0  0
 13 12  1  0  0  0  0
 14 15  1  0  0  0  0
 14 13  2  0  0  0  0
 15 16  1  0  0  0  0
 16 12  2  0  0  0  0
 18 14  1  0  0  0  0
 19 27  1  0  0  0  0
 20 25  1  0  0  0  0
 20 19  1  0  0  0  0
 21 20  2  0  0  0  0
 22 21  1  0  0  0  0
 22 23  2  0  0  0  0
 23 24  1  0  0  0  0
 24 19  2  0  0  0  0
 26 23  1  0  0  0  0
 27 28  1  0  0  0  0
 28 29  1  0  0  0  0
 28 30  1  0  0  0  0
 31 28  1  0  0  0  0
 32 34  1  0  0  0  0
 33 39  1  0  0  0  0
 34 35  1  0  0  0  0
 34 33  2  0  0  0  0
 35 37  2  0  0  0  0
 36 35  1  0  0  0  0
 37 38  1  0  0  0  0
 39 38  2  0  0  0  0
 39 42  1  0  0  0  0
 40 41  1  0  0  0  0
 40 33  1  0  0  0  0
 42 43  1  0  0  0  0
M  END
>  <minimizedAffinity>
-6.27314901

$$$$

 OpenBabel03272503433D

 43 46  0  0  1  0  0  0  0  0999 V2000
   31.5140   32.4660   35.5960 C   0  0  2  0  0  0  0  0  0  0  0  0
   32.8410   33.2380   35.7580 C   0  0  1  0  0  0  0  0  0  0  0  0
   32.6540   33.7520   37.1490 C   0  0  0  0  0  0  0  0  0  0  0  0
   31.3200   34.0460   37.3000 O   0  0  0  0  0  0  0  0  0  0  0  0
   30.6110   33.5240   36.2620 C   0  0  0  0  0  0  0  0  0  0  0  0
   31.2610   32.3310   34.5500 H   0  0  0  0  0  0  0  0  0  0  0  0
   32.9130   34.0720   35.0480 H   0  0  0  0  0  0  0  0  0  0  0  0
   33.3300   34.5690   37.4420 H   0  0  0  0  0  0  0  0  0  0  0  0
   32.8820   32.9160   37.8730 H   0  0  0  0  0  0  0  0  0  0  0  0
   30.5040   34.3210   35.4890 H   0  0  0  0  0  0  0  0  0  0  0  0
   29.6320   33.1010   36.5400 H   0  0  0  0  0  0  0  0  0  0  0  0
   35.3280   30.7860   34.9280 C   0  0  0  0  0  0  0  0  0  0  0  0
   35.9310   31.3700   35.9990 C   0  0  0  0  0  0  0  0  0  0  0  0
   35.0340   32.3640   36.4150 C   0  0  0  0  0  0  0  0  0  0  0  0
   33.9600   32.3500   35.6160 N   0  0  0  0  0  0  0  0  0  0  0  0
   34.1310   31.3800   34.6950 N   0  0  0  0  0  0  0  0  0  0  0  0
   36.9010   31.1490   36.4680 H   0  0  0  0  0  0  0  0  0  0  0  0
   35.2540   33.0120   37.2750 H   0  0  0  0  0  0  0  0  0  0  0  0
   36.9310   27.5430   33.9270 C   0  0  0  0  0  0  0  0  0  0  0  0
   36.4180   28.5620   34.7170 C   0  0  0  0  0  0  0  0  0  0  0  0
   35.8780   29.6910   34.1470 C   0  0  0  0  0  0  0  0  0  0  0  0
   35.8670   29.7620   32.8010 N   0  0  0  0  0  0  0  0  0  0  0  0
   36.3730   28.7530   32.0340 C   0  0  0  0  0  0  0  0  0  0  0  0
   36.8960   27.6650   32.5700 N   0  0  0  0  0  0  0  0  0  0  0  0
   36.4120   28.5350   35.8020 H   0  0  0  0  0  0  0  0  0  0  0  0
   36.3700   28.8000   30.9460 H   0  0  0  0  0  0  0  0  0  0  0  0
   37.4380   26.4780   34.6530 O   0  0  0  0  0  0  0  0  0  0  0  0
   38.5900   26.5660   35.4710 C   0  0  0  0  0  0  0  0  0  0  0  0
   38.2670   26.9920   36.7440 F   0  0  0  0  0  0  0  0  0  0  0  0
   39.4860   27.4150   34.8770 F   0  0  0  0  0  0  0  0  0  0  0  0
   39.1730   25.3140   35.5360 F   0  0  0  0  0  0  0  0  0  0  0  0
   31.6080   31.3780   36.4150 O   0  0  0  0  0  0  0  0  0  0  0  0
   31.3340   28.9470   37.0270 C   0  0  0  0  0  0  0  0  0  0  0  0
   31.3010   30.0620   36.2150 C   0  0  0  0  0  0  0  0  0  0  0  0
   30.8680   29.8720   34.8950 C   0  0  0  0  0  0  0  0  0  0  0  0
   30.7760   30.6350   34.1080 H   0  0  0  0  0  0  0  0  0  0  0  0
   30.4900   28.6140   34.4250 C   0  0  0  0  0  3  0  0  0  0  0  0
   30.5330   27.5150   35.2580 C   0  0  0  0  0  3  0  0  0  0  0  0
   30.9570   27.7130   36.5440 C   0  0  0  0  0  0  0  0  0  0  0  0
   31.7730   29.2400   38.3030 O   0  0  0  0  0  0  0  0  0  0  0  0
   32.2870   28.6000   38.8980 H   0  0  0  0  0  0  0  0  0  0  0  0
   31.0670   26.7200   37.5360 O   0  0  0  0  0  0  0  0  0  0  0  0
   30.4880   25.8740   37.5180 H   0  0  0  0  0  0  0  0  0  0  0  0
  1  6  1  6  0  0  0
  1  2  1  0  0  0  0
  1  5  1  0  0  0  0
  1 32  1  0  0  0  0
  2  7  1  6  0  0  0
  2  3  1  0  0  0  0
  3  4  1  0  0  0  0
  3  8  1  0  0  0  0
  3  9  1  0  0  0  0
  5 11  1  0  0  0  0
  5  4  1  0  0  0  0
 10  5  1  0  0  0  0
 12 13  1  0  0  0  0
 13 14  2  0  0  0  0
 13 17  1  0  0  0  0
 14 18  1  0  0  0  0
 15  2  1  0  0  0  0
 15 14  1  0  0  0  0
 16 12  2  0  0  0  0
 16 15  1  0  0  0  0
 19 27  1  0  0  0  0
 19 20  1  0  0  0  0
 20 25  1  0  0  0  0
 21 20  2  0  0  0  0
 21 12  1  0  0  0  0
 22 21  1  0  0  0  0
 23 24  1  0  0  0  0
 23 22  2  0  0  0  0
 24 19  2  0  0  0  0
 26 23  1  0  0  0  0
 27 28  1  0  0  0  0
 28 31  1  0  0  0  0
 28 29  1  0  0  0  0
 30 28  1  0  0  0  0
 33 40  1  0  0  0  0
 34 32  1  0  0  0  0
 34 33  2  0  0  0  0
 35 34  1  0  0  0  0
 36 35  1  0  0  0  0
 37 35  2  0  0  0  0
 37 38  1  0  0  0  0
 38 39  2  0  0  0  0
 39 33  1  0  0  0  0
 39 42  1  0  0  0  0
 40 41  1  0  0  0  0
 43 42  1  0  0  0  0
M  END
>  <minimizedAffinity>
-6.21850634

$$$$

 OpenBabel03272503433D

 43 46  0  0  1  0  0  0  0  0999 V2000
   34.2790   29.2830   32.5270 C   0  0  2  0  0  0  0  0  0  0  0  0
   35.4540   28.8890   31.6060 C   0  0  1  0  0  0  0  0  0  0  0  0
   36.2280   30.1680   31.6420 C   0  0  0  0  0  0  0  0  0  0  0  0
   35.3170   31.1950   31.6910 O   0  0  0  0  0  0  0  0  0  0  0  0
   34.0770   30.7020   31.9610 C   0  0  0  0  0  0  0  0  0  0  0  0
   33.4110   28.6580   32.3470 H   0  0  0  0  0  0  0  0  0  0  0  0
   35.1140   28.6770   30.5850 H   0  0  0  0  0  0  0  0  0  0  0  0
   36.9890   30.2780   30.8550 H   0  0  0  0  0  0  0  0  0  0  0  0
   36.8070   30.2080   32.6110 H   0  0  0  0  0  0  0  0  0  0  0  0
   33.5570   30.5400   30.9880 H   0  0  0  0  0  0  0  0  0  0  0  0
   33.4730   31.3250   32.6400 H   0  0  0  0  0  0  0  0  0  0  0  0
   36.9480   25.7600   32.5340 C   0  0  0  0  0  0  0  0  0  0  0  0
   37.5280   26.5730   33.4570 C   0  0  0  0  0  0  0  0  0  0  0  0
   37.0100   27.8470   33.1870 C   0  0  0  0  0  0  0  0  0  0  0  0
   36.1660   27.7680   32.1500 N   0  0  0  0  0  0  0  0  0  0  0  0
   36.1200   26.4840   31.7400 N   0  0  0  0  0  0  0  0  0  0  0  0
   38.2460   26.3330   34.2550 H   0  0  0  0  0  0  0  0  0  0  0  0
   37.3020   28.7240   33.7810 H   0  0  0  0  0  0  0  0  0  0  0  0
   36.4800   22.0960   31.8690 C   0  0  0  0  0  0  0  0  0  0  0  0
   36.2130   23.4540   31.9680 C   0  0  0  0  0  0  0  0  0  0  0  0
   37.1750   24.3300   32.4110 C   0  0  0  0  0  0  0  0  0  0  0  0
   38.3780   23.8170   32.7390 N   0  0  0  0  0  0  0  0  0  0  0  0
   38.6300   22.4800   32.6350 C   0  0  0  0  0  0  0  0  0  0  0  0
   37.7130   21.6280   32.2130 N   0  0  0  0  0  0  0  0  0  0  0  0
   35.2560   23.8980   31.7130 H   0  0  0  0  0  0  0  0  0  0  0  0
   39.5980   22.0540   32.8980 H   0  0  0  0  0  0  0  0  0  0  0  0
   35.4080   21.3500   31.4080 O   0  0  0  0  0  0  0  0  0  0  0  0
   34.8540   20.2550   32.1160 C   0  0  0  0  0  0  0  0  0  0  0  0
   33.5180   20.0850   31.8090 F   0  0  0  0  0  0  0  0  0  0  0  0
   35.0310   20.4660   33.4580 F   0  0  0  0  0  0  0  0  0  0  0  0
   35.5560   19.1160   31.7710 F   0  0  0  0  0  0  0  0  0  0  0  0
   34.8000   29.3710   33.7860 O   0  0  0  0  0  0  0  0  0  0  0  0
   33.3100   30.2820   35.6050 C   0  0  0  0  0  0  0  0  0  0  0  0
   34.4610   30.1510   34.8560 C   0  0  0  0  0  0  0  0  0  0  0  0
   35.5480   30.9600   35.2150 C   0  0  0  0  0  0  0  0  0  0  0  0
   36.5390   30.9950   34.7390 H   0  0  0  0  0  0  0  0  0  0  0  0
   35.4690   31.8550   36.2830 C   0  0  0  0  0  3  0  0  0  0  0  0
   34.3060   31.9660   37.0160 C   0  0  0  0  0  3  0  0  0  0  0  0
   33.2530   31.1720   36.6560 C   0  0  0  0  0  0  0  0  0  0  0  0
   32.3020   29.4440   35.1710 O   0  0  0  0  0  0  0  0  0  0  0  0
   31.3120   29.6510   35.2340 H   0  0  0  0  0  0  0  0  0  0  0  0
   31.9920   31.1430   37.2810 O   0  0  0  0  0  0  0  0  0  0  0  0
   31.8730   31.4020   38.2660 H   0  0  0  0  0  0  0  0  0  0  0  0
  1  6  1  6  0  0  0
  1 32  1  0  0  0  0
  2  7  1  6  0  0  0
  2  3  1  0  0  0  0
  2 15  1  0  0  0  0
  2  1  1  0  0  0  0
  3  4  1  0  0  0  0
  3  9  1  0  0  0  0
  4  5  1  0  0  0  0
  5  1  1  0  0  0  0
  5 11  1  0  0  0  0
  8  3  1  0  0  0  0
 10  5  1  0  0  0  0
 12 13  1  0  0  0  0
 13 17  1  0  0  0  0
 14 13  2  0  0  0  0
 14 18  1  0  0  0  0
 15 14  1  0  0  0  0
 16 15  1  0  0  0  0
 16 12  2  0  0  0  0
 19 20  2  0  0  0  0
 19 24  1  0  0  0  0
 20 21  1  0  0  0  0
 21 12  1  0  0  0  0
 21 22  2  0  0  0  0
 23 22  1  0  0  0  0
 23 26  1  0  0  0  0
 24 23  2  0  0  0  0
 25 20  1  0  0  0  0
 27 19  1  0  0  0  0
 27 28  1  0  0  0  0
 28 30  1  0  0  0  0
 29 28  1  0  0  0  0
 31 28  1  0  0  0  0
 32 34  1  0  0  0  0
 33 39  1  0  0  0  0
 34 35  1  0  0  0  0
 34 33  2  0  0  0  0
 35 37  2  0  0  0  0
 36 35  1  0  0  0  0
 37 38  1  0  0  0  0
 39 38  2  0  0  0  0
 39 42  1  0  0  0  0
 40 41  1  0  0  0  0
 40 33  1  0  0  0  0
 42 43  1  0  0  0  0
M  END
>  <minimizedAffinity>
-6.1963048

$$$$

 OpenBabel03272503433D

 43 46  0  0  1  0  0  0  0  0999 V2000
   39.7090   23.7310   35.3210 C   0  0  2  0  0  0  0  0  0  0  0  0
   38.1730   23.8930   35.2990 C   0  0  1  0  0  0  0  0  0  0  0  0
   37.9530   24.3030   36.7200 C   0  0  0  0  0  0  0  0  0  0  0  0
   38.8590   23.6130   37.4890 O   0  0  0  0  0  0  0  0  0  0  0  0
   39.7930   23.0280   36.6910 C   0  0  0  0  0  0  0  0  0  0  0  0
   40.0480   23.0820   34.5210 H   0  0  0  0  0  0  0  0  0  0  0  0
   37.6700   22.9400   35.0930 H   0  0  0  0  0  0  0  0  0  0  0  0
   36.9140   24.2280   37.0740 H   0  0  0  0  0  0  0  0  0  0  0  0
   38.2140   25.3970   36.8210 H   0  0  0  0  0  0  0  0  0  0  0  0
   39.4590   21.9840   36.4860 H   0  0  0  0  0  0  0  0  0  0  0  0
   40.8200   23.0500   37.0920 H   0  0  0  0  0  0  0  0  0  0  0  0
   37.0760   26.7340   33.3990 C   0  0  0  0  0  0  0  0  0  0  0  0
   37.3950   25.8880   32.3820 C   0  0  0  0  0  0  0  0  0  0  0  0
   37.8450   24.7220   33.0160 C   0  0  0  0  0  0  0  0  0  0  0  0
   37.7860   24.8920   34.3430 N   0  0  0  0  0  0  0  0  0  0  0  0
   37.3130   26.1300   34.5900 N   0  0  0  0  0  0  0  0  0  0  0  0
   37.3320   26.0390   31.2950 H   0  0  0  0  0  0  0  0  0  0  0  0
   38.1780   23.8470   32.4400 H   0  0  0  0  0  0  0  0  0  0  0  0
   35.4440   30.0510   34.0470 C   0  0  0  0  0  0  0  0  0  0  0  0
   35.9200   28.7630   34.2490 C   0  0  0  0  0  0  0  0  0  0  0  0
   36.5600   28.0830   33.2400 C   0  0  0  0  0  0  0  0  0  0  0  0
   36.7030   28.7160   32.0580 N   0  0  0  0  0  0  0  0  0  0  0  0
   36.2320   29.9830   31.8710 C   0  0  0  0  0  0  0  0  0  0  0  0
   35.6150   30.6460   32.8320 N   0  0  0  0  0  0  0  0  0  0  0  0
   35.8210   28.2270   35.1870 H   0  0  0  0  0  0  0  0  0  0  0  0
   36.3420   30.5040   30.9210 H   0  0  0  0  0  0  0  0  0  0  0  0
   34.8250   30.5970   35.1600 O   0  0  0  0  0  0  0  0  0  0  0  0
   35.3850   31.6440   35.9320 C   0  0  0  0  0  0  0  0  0  0  0  0
   36.7500   31.4870   36.0720 F   0  0  0  0  0  0  0  0  0  0  0  0
   34.7620   31.6680   37.1530 F   0  0  0  0  0  0  0  0  0  0  0  0
   35.1190   32.8420   35.2970 F   0  0  0  0  0  0  0  0  0  0  0  0
   40.2190   24.9930   35.4320 O   0  0  0  0  0  0  0  0  0  0  0  0
   41.3850   26.7440   34.0430 C   0  0  0  0  0  0  0  0  0  0  0  0
   41.2710   25.6040   34.8110 C   0  0  0  0  0  0  0  0  0  0  0  0
   42.4460   24.8740   35.0410 C   0  0  0  0  0  0  0  0  0  0  0  0
   42.5510   23.9470   35.6240 H   0  0  0  0  0  0  0  0  0  0  0  0
   43.6730   25.2810   34.5170 C   0  0  0  0  0  3  0  0  0  0  0  0
   43.7590   26.4260   33.7510 C   0  0  0  0  0  3  0  0  0  0  0  0
   42.6070   27.1300   33.5340 C   0  0  0  0  0  0  0  0  0  0  0  0
   40.1760   27.3880   33.8770 O   0  0  0  0  0  0  0  0  0  0  0  0
   39.9160   27.9270   33.0580 H   0  0  0  0  0  0  0  0  0  0  0  0
   42.4960   28.3160   32.7840 O   0  0  0  0  0  0  0  0  0  0  0  0
   43.2870   28.9580   32.6700 H   0  0  0  0  0  0  0  0  0  0  0  0
  1  6  1  6  0  0  0
  1 32  1  0  0  0  0
  1  5  1  0  0  0  0
  2  7  1  6  0  0  0
  2  1  1  0  0  0  0
  2  3  1  0  0  0  0
  3  9  1  0  0  0  0
  3  8  1  0  0  0  0
  3  4  1  0  0  0  0
  5 11  1  0  0  0  0
  5  4  1  0  0  0  0
 10  5  1  0  0  0  0
 12 16  2  0  0  0  0
 13 14  2  0  0  0  0
 13 12  1  0  0  0  0
 14 15  1  0  0  0  0
 15 16  1  0  0  0  0
 15  2  1  0  0  0  0
 17 13  1  0  0  0  0
 18 14  1  0  0  0  0
 19 20  1  0  0  0  0
 19 27  1  0  0  0  0
 20 25  1  0  0  0  0
 21 12  1  0  0  0  0
 21 20  2  0  0  0  0
 22 21  1  0  0  0  0
 23 22  2  0  0  0  0
 23 24  1  0  0  0  0
 24 19  2  0  0  0  0
 26 23  1  0  0  0  0
 27 28  1  0  0  0  0
 28 29  1  0  0  0  0
 28 30  1  0  0  0  0
 31 28  1  0  0  0  0
 33 34  1  0  0  0  0
 34 35  2  0  0  0  0
 34 32  1  0  0  0  0
 35 36  1  0  0  0  0
 37 35  1  0  0  0  0
 38 37  2  0  0  0  0
 39 38  1  0  0  0  0
 39 33  2  0  0  0  0
 40 33  1  0  0  0  0
 41 40  1  0  0  0  0
 42 39  1  0  0  0  0
 43 42  1  0  0  0  0
M  END
>  <minimizedAffinity>
-6.0841918

$$$$

 OpenBabel03272503433D

 43 46  0  0  1  0  0  0  0  0999 V2000
   38.9590   26.2130   30.8530 C   0  0  2  0  0  0  0  0  0  0  0  0
   38.8200   27.3680   31.8680 C   0  0  1  0  0  0  0  0  0  0  0  0
   37.8170   28.2060   31.1440 C   0  0  0  0  0  0  0  0  0  0  0  0
   38.0910   28.1040   29.8020 O   0  0  0  0  0  0  0  0  0  0  0  0
   38.9740   27.0910   29.5860 C   0  0  0  0  0  0  0  0  0  0  0  0
   39.8990   25.6870   30.9810 H   0  0  0  0  0  0  0  0  0  0  0  0
   39.7630   27.9170   31.9870 H   0  0  0  0  0  0  0  0  0  0  0  0
   37.7220   29.2420   31.5060 H   0  0  0  0  0  0  0  0  0  0  0  0
   36.7940   27.7530   31.2980 H   0  0  0  0  0  0  0  0  0  0  0  0
   39.9980   27.5320   29.5670 H   0  0  0  0  0  0  0  0  0  0  0  0
   38.7770   26.4950   28.6800 H   0  0  0  0  0  0  0  0  0  0  0  0
   38.1510   25.7690   35.0110 C   0  0  0  0  0  0  0  0  0  0  0  0
   37.0860   26.6130   34.9530 C   0  0  0  0  0  0  0  0  0  0  0  0
   37.2440   27.3050   33.7430 C   0  0  0  0  0  0  0  0  0  0  0  0
   38.3550   26.8730   33.1330 N   0  0  0  0  0  0  0  0  0  0  0  0
   38.9220   25.9260   33.9060 N   0  0  0  0  0  0  0  0  0  0  0  0
   36.2620   26.7580   35.6670 H   0  0  0  0  0  0  0  0  0  0  0  0
   36.5220   28.0670   33.4190 H   0  0  0  0  0  0  0  0  0  0  0  0
   39.4550   22.8660   37.0000 C   0  0  0  0  0  0  0  0  0  0  0  0
   39.2220   23.7260   35.9360 C   0  0  0  0  0  0  0  0  0  0  0  0
   38.4270   24.8370   36.0910 C   0  0  0  0  0  0  0  0  0  0  0  0
   37.8920   25.0530   37.3100 N   0  0  0  0  0  0  0  0  0  0  0  0
   38.1300   24.2000   38.3490 C   0  0  0  0  0  0  0  0  0  0  0  0
   38.8890   23.1290   38.2120 N   0  0  0  0  0  0  0  0  0  0  0  0
   39.6370   23.5800   34.9440 H   0  0  0  0  0  0  0  0  0  0  0  0
   37.7020   24.3650   39.3370 H   0  0  0  0  0  0  0  0  0  0  0  0
   40.2740   21.7950   36.6810 O   0  0  0  0  0  0  0  0  0  0  0  0
   41.6680   21.7730   36.9330 C   0  0  0  0  0  0  0  0  0  0  0  0
   42.1470   23.0390   37.2060 F   0  0  0  0  0  0  0  0  0  0  0  0
   42.3010   21.2270   35.8470 F   0  0  0  0  0  0  0  0  0  0  0  0
   41.8990   20.9480   38.0170 F   0  0  0  0  0  0  0  0  0  0  0  0
   37.7830   25.5210   30.9060 O   0  0  0  0  0  0  0  0  0  0  0  0
   36.3990   23.4460   31.2710 C   0  0  0  0  0  0  0  0  0  0  0  0
   37.5200   24.1810   30.9450 C   0  0  0  0  0  0  0  0  0  0  0  0
   38.6620   23.4620   30.5660 C   0  0  0  0  0  0  0  0  0  0  0  0
   39.6410   23.8720   30.2740 H   0  0  0  0  0  0  0  0  0  0  0  0
   38.6650   22.0680   30.5200 C   0  0  0  0  0  3  0  0  0  0  0  0
   37.5310   21.3570   30.8510 C   0  0  0  0  0  3  0  0  0  0  0  0
   36.4220   22.0690   31.2190 C   0  0  0  0  0  0  0  0  0  0  0  0
   35.3320   24.2450   31.6290 O   0  0  0  0  0  0  0  0  0  0  0  0
   34.6140   23.9850   32.2960 H   0  0  0  0  0  0  0  0  0  0  0  0
   35.1790   21.5230   31.5890 O   0  0  0  0  0  0  0  0  0  0  0  0
   34.8690   20.6070   31.2470 H   0  0  0  0  0  0  0  0  0  0  0  0
  1 32  1  0  0  0  0
  1  6  1  1  0  0  0
  1  2  1  0  0  0  0
  2  7  1  1  0  0  0
  2 15  1  0  0  0  0
  3  9  1  0  0  0  0
  3  8  1  0  0  0  0
  3  2  1  0  0  0  0
  4  3  1  0  0  0  0
  5  4  1  0  0  0  0
  5  1  1  0  0  0  0
 10  5  1  0  0  0  0
 11  5  1  0  0  0  0
 12 21  1  0  0  0  0
 13 12  1  0  0  0  0
 13 17  1  0  0  0  0
 14 13  2  0  0  0  0
 15 14  1  0  0  0  0
 15 16  1  0  0  0  0
 16 12  2  0  0  0  0
 18 14  1  0  0  0  0
 19 24  1  0  0  0  0
 20 21  1  0  0  0  0
 20 19  2  0  0  0  0
 21 22  2  0  0  0  0
 22 23  1  0  0  0  0
 23 26  1  0  0  0  0
 24 23  2  0  0  0  0
 25 20  1  0  0  0  0
 27 28  1  0  0  0  0
 27 19  1  0  0  0  0
 28 29  1  0  0  0  0
 28 31  1  0  0  0  0
 30 28  1  0  0  0  0
 32 34  1  0  0  0  0
 33 40  1  0  0  0  0
 34 33  2  0  0  0  0
 35 34  1  0  0  0  0
 36 35  1  0  0  0  0
 37 35  2  0  0  0  0
 37 38  1  0  0  0  0
 38 39  2  0  0  0  0
 39 33  1  0  0  0  0
 39 42  1  0  0  0  0
 40 41  1  0  0  0  0
 43 42  1  0  0  0  0
M  END
>  <minimizedAffinity>
-6.06283998

$$$$
