
 OpenBabel03272509183D

 35 37  0  0  0  0  0  0  0  0999 V2000
   38.1540   31.3130   47.8670 C   0  0  0  0  0  0  0  0  0  0  0  0
   37.2420   31.5250   48.8860 C   0  0  0  0  0  0  0  0  0  0  0  0
   37.4000   32.7460   49.5500 C   0  0  0  0  0  0  0  0  0  0  0  0
   38.3990   33.6590   49.1950 C   0  0  0  0  0  0  0  0  0  0  0  0
   39.2740   33.3490   48.1450 C   0  0  0  0  0  0  0  0  0  0  0  0
   39.1290   32.1550   47.4880 C   0  0  0  0  0  0  0  0  0  0  0  0
   36.7440   33.0270   50.3700 H   0  0  0  0  0  0  0  0  0  0  0  0
   38.5030   34.5990   49.7230 H   0  0  0  0  0  0  0  0  0  0  0  0
   40.0390   34.0780   47.8940 H   0  0  0  0  0  0  0  0  0  0  0  0
   35.1170   30.3880   48.4040 C   0  0  0  0  0  0  0  0  0  0  0  0
   36.2180   30.5960   49.2540 C   0  0  0  0  0  0  0  0  0  0  0  0
   36.2580   29.8700   50.4420 C   0  0  0  0  0  0  0  0  0  0  0  0
   35.2390   29.0080   50.7110 N   0  0  0  0  0  0  0  0  0  0  0  0
   34.1950   28.8390   49.8580 C   0  0  0  0  0  0  0  0  0  0  0  0
   34.1400   29.5250   48.7160 N   0  0  0  0  0  0  0  0  0  0  0  0
   35.1100   30.9620   47.4910 H   0  0  0  0  0  0  0  0  0  0  0  0
   33.3890   28.1490   50.0820 H   0  0  0  0  0  0  0  0  0  0  0  0
   37.3920   30.0470   51.3800 C   0  0  0  0  0  0  0  0  0  0  0  0
   38.2930   30.1810   50.7580 H   0  0  0  0  0  0  0  0  0  0  0  0
   37.4380   29.1260   51.9960 H   0  0  0  0  0  0  0  0  0  0  0  0
   37.2400   30.8970   52.0660 H   0  0  0  0  0  0  0  0  0  0  0  0
   38.0690   30.1050   47.1410 O   0  0  0  0  0  0  0  0  0  0  0  0
   37.1820   29.8910   46.6860 H   0  0  0  0  0  0  0  0  0  0  0  0
   40.0190   31.8810   46.4460 O   0  0  0  0  0  0  0  0  0  0  0  0
   39.9160   31.1120   44.0590 C   0  0  0  0  0  0  0  0  0  0  0  0
   39.4590   31.7920   45.1680 C   0  0  0  0  0  0  0  0  0  0  0  0
   38.2820   32.5220   45.1050 C   0  0  0  0  0  0  0  0  0  0  0  0
   37.8230   33.0970   45.9100 H   0  0  0  0  0  0  0  0  0  0  0  0
   37.5390   32.5880   43.9350 C   0  0  0  0  0  3  0  0  0  0  0  0
   38.0030   31.9040   42.8270 C   0  0  0  0  0  3  0  0  0  0  0  0
   39.1660   31.1870   42.9030 C   0  0  0  0  0  0  0  0  0  0  0  0
   41.0950   30.4330   44.2710 O   0  0  0  0  0  0  0  0  0  0  0  0
   41.1670   29.4360   44.3840 H   0  0  0  0  0  0  0  0  0  0  0  0
   39.6820   30.4800   41.8250 O   0  0  0  0  0  0  0  0  0  0  0  0
   39.4850   29.5140   41.6560 H   0  0  0  0  0  0  0  0  0  0  0  0
  1  2  1  0  0  0  0
  2 11  1  0  0  0  0
  2  3  2  0  0  0  0
  3  7  1  0  0  0  0
  4  3  1  0  0  0  0
  4  8  1  0  0  0  0
  5  4  2  0  0  0  0
  6  1  2  0  0  0  0
  6  5  1  0  0  0  0
  9  5  1  0  0  0  0
 10 15  2  0  0  0  0
 10 11  1  0  0  0  0
 11 12  2  0  0  0  0
 12 13  1  0  0  0  0
 12 18  1  0  0  0  0
 14 17  1  0  0  0  0
 14 13  2  0  0  0  0
 15 14  1  0  0  0  0
 16 10  1  0  0  0  0
 18 20  1  0  0  0  0
 18 21  1  0  0  0  0
 19 18  1  0  0  0  0
 22  1  1  0  0  0  0
 23 22  1  0  0  0  0
 24  6  1  0  0  0  0
 25 32  1  0  0  0  0
 25 26  1  0  0  0  0
 26 24  1  0  0  0  0
 27 26  2  0  0  0  0
 27 28  1  0  0  0  0
 29 27  1  0  0  0  0
 30 31  1  0  0  0  0
 30 29  2  0  0  0  0
 31 25  2  0  0  0  0
 32 33  1  0  0  0  0
 34 31  1  0  0  0  0
 35 34  1  0  0  0  0
M  END
>  <minimizedAffinity>
-6.90805674

>  <minimizedRMSD>
0.956994176

$$$$
