
 OpenBabel03272509183D

 35 37  0  0  0  0  0  0  0  0999 V2000
   38.1440   31.1140   47.5870 C   0  0  0  0  0  0  0  0  0  0  0  0
   37.1620   31.2020   48.5590 C   0  0  0  0  0  0  0  0  0  0  0  0
   37.2680   32.3320   49.3760 C   0  0  0  0  0  0  0  0  0  0  0  0
   38.2840   33.2780   49.2070 C   0  0  0  0  0  0  0  0  0  0  0  0
   39.2310   33.0960   48.1900 C   0  0  0  0  0  0  0  0  0  0  0  0
   39.1380   31.9920   47.3840 C   0  0  0  0  0  0  0  0  0  0  0  0
   36.5550   32.5130   50.1770 H   0  0  0  0  0  0  0  0  0  0  0  0
   38.3460   34.1470   49.8510 H   0  0  0  0  0  0  0  0  0  0  0  0
   40.0080   33.8480   48.0840 H   0  0  0  0  0  0  0  0  0  0  0  0
   34.9760   30.2790   47.9230 C   0  0  0  0  0  0  0  0  0  0  0  0
   36.1200   30.2380   48.7380 C   0  0  0  0  0  0  0  0  0  0  0  0
   36.1850   29.2380   49.7050 C   0  0  0  0  0  0  0  0  0  0  0  0
   35.1460   28.3640   49.8050 N   0  0  0  0  0  0  0  0  0  0  0  0
   34.0590   28.4410   48.9930 C   0  0  0  0  0  0  0  0  0  0  0  0
   33.9800   29.3920   48.0610 N   0  0  0  0  0  0  0  0  0  0  0  0
   34.9500   31.0630   47.1820 H   0  0  0  0  0  0  0  0  0  0  0  0
   33.2370   27.7380   49.0810 H   0  0  0  0  0  0  0  0  0  0  0  0
   37.3650   29.1440   50.5970 C   0  0  0  0  0  0  0  0  0  0  0  0
   38.2420   29.4060   49.9800 H   0  0  0  0  0  0  0  0  0  0  0  0
   37.4020   28.0980   50.9610 H   0  0  0  0  0  0  0  0  0  0  0  0
   37.2770   29.8000   51.4790 H   0  0  0  0  0  0  0  0  0  0  0  0
   38.1160   30.0040   46.7150 O   0  0  0  0  0  0  0  0  0  0  0  0
   37.2640   29.8500   46.1760 H   0  0  0  0  0  0  0  0  0  0  0  0
   40.1000   31.8450   46.3800 O   0  0  0  0  0  0  0  0  0  0  0  0
   38.4770   32.4880   44.5780 C   0  0  0  0  0  0  0  0  0  0  0  0
   39.6310   31.9130   45.0650 C   0  0  0  0  0  0  0  0  0  0  0  0
   40.5180   31.2880   44.2030 C   0  0  0  0  0  0  0  0  0  0  0  0
   41.4600   30.8000   44.4680 H   0  0  0  0  0  0  0  0  0  0  0  0
   40.2730   31.2230   42.8380 C   0  0  0  0  0  3  0  0  0  0  0  0
   39.1130   31.8020   42.3560 C   0  0  0  0  0  3  0  0  0  0  0  0
   38.2450   32.4150   43.2180 C   0  0  0  0  0  0  0  0  0  0  0  0
   37.6940   33.0700   45.5480 O   0  0  0  0  0  0  0  0  0  0  0  0
   37.6160   34.0610   45.7010 H   0  0  0  0  0  0  0  0  0  0  0  0
   37.0660   33.0130   42.7950 O   0  0  0  0  0  0  0  0  0  0  0  0
   36.9960   33.9830   42.5550 H   0  0  0  0  0  0  0  0  0  0  0  0
  1  2  1  0  0  0  0
  2 11  1  0  0  0  0
  2  3  2  0  0  0  0
  3  7  1  0  0  0  0
  4  3  1  0  0  0  0
  4  8  1  0  0  0  0
  5  4  2  0  0  0  0
  6  1  2  0  0  0  0
  6  5  1  0  0  0  0
  9  5  1  0  0  0  0
 10 15  2  0  0  0  0
 10 11  1  0  0  0  0
 11 12  2  0  0  0  0
 12 13  1  0  0  0  0
 12 18  1  0  0  0  0
 14 17  1  0  0  0  0
 14 13  2  0  0  0  0
 15 14  1  0  0  0  0
 16 10  1  0  0  0  0
 18 20  1  0  0  0  0
 18 21  1  0  0  0  0
 19 18  1  0  0  0  0
 22  1  1  0  0  0  0
 23 22  1  0  0  0  0
 24  6  1  0  0  0  0
 25 26  1  0  0  0  0
 25 32  1  0  0  0  0
 26 24  1  0  0  0  0
 27 28  1  0  0  0  0
 27 26  2  0  0  0  0
 29 27  1  0  0  0  0
 30 29  2  0  0  0  0
 30 31  1  0  0  0  0
 31 25  2  0  0  0  0
 32 33  1  0  0  0  0
 34 31  1  0  0  0  0
 35 34  1  0  0  0  0
M  END
>  <minimizedAffinity>
-6.84200048

>  <minimizedRMSD>
0.59078449

$$$$
