
 OpenBabel03272503423D

 43 46  0  0  1  0  0  0  0  0999 V2000
   40.0350   31.1040   41.8130 C   0  0  2  0  0  0  0  0  0  0  0  0
   39.6840   32.3160   42.7040 C   0  0  1  0  0  0  0  0  0  0  0  0
   38.4750   32.8070   41.9760 C   0  0  0  0  0  0  0  0  0  0  0  0
   38.6930   32.6020   40.6350 O   0  0  0  0  0  0  0  0  0  0  0  0
   39.7760   31.7960   40.4600 C   0  0  0  0  0  0  0  0  0  0  0  0
   41.0770   30.8230   41.9210 H   0  0  0  0  0  0  0  0  0  0  0  0
   40.4770   33.0730   42.6850 H   0  0  0  0  0  0  0  0  0  0  0  0
   38.1600   33.8310   42.2280 H   0  0  0  0  0  0  0  0  0  0  0  0
   37.5960   32.1580   42.2610 H   0  0  0  0  0  0  0  0  0  0  0  0
   40.6660   32.4510   40.3110 H   0  0  0  0  0  0  0  0  0  0  0  0
   39.6760   31.0620   39.6440 H   0  0  0  0  0  0  0  0  0  0  0  0
   38.4260   31.2590   45.8950 C   0  0  0  0  0  0  0  0  0  0  0  0
   39.7580   31.2820   46.1700 C   0  0  0  0  0  0  0  0  0  0  0  0
   40.3640   31.6880   44.9730 C   0  0  0  0  0  0  0  0  0  0  0  0
   39.4160   31.8910   44.0480 N   0  0  0  0  0  0  0  0  0  0  0  0
   38.2170   31.6290   44.6070 N   0  0  0  0  0  0  0  0  0  0  0  0
   40.2880   31.0430   47.1040 H   0  0  0  0  0  0  0  0  0  0  0  0
   41.4530   31.7990   44.8890 H   0  0  0  0  0  0  0  0  0  0  0  0
   36.5020   30.6200   49.0540 C   0  0  0  0  0  0  0  0  0  0  0  0
   37.5340   30.9800   48.1980 C   0  0  0  0  0  0  0  0  0  0  0  0
   37.3790   30.8940   46.8340 C   0  0  0  0  0  0  0  0  0  0  0  0
   36.1940   30.4500   46.3710 N   0  0  0  0  0  0  0  0  0  0  0  0
   35.1860   30.1000   47.2220 C   0  0  0  0  0  0  0  0  0  0  0  0
   35.3230   30.1770   48.5330 N   0  0  0  0  0  0  0  0  0  0  0  0
   38.4990   31.3410   48.5390 H   0  0  0  0  0  0  0  0  0  0  0  0
   34.2250   29.7390   46.8580 H   0  0  0  0  0  0  0  0  0  0  0  0
   36.8160   30.7630   50.3950 O   0  0  0  0  0  0  0  0  0  0  0  0
   36.8820   29.6790   51.3040 C   0  0  0  0  0  0  0  0  0  0  0  0
   35.6200   29.2310   51.6410 F   0  0  0  0  0  0  0  0  0  0  0  0
   37.5780   30.0800   52.4150 F   0  0  0  0  0  0  0  0  0  0  0  0
   37.5920   28.6550   50.7070 F   0  0  0  0  0  0  0  0  0  0  0  0
   39.0580   30.1760   42.0370 O   0  0  0  0  0  0  0  0  0  0  0  0
   39.1680   27.8580   43.0190 C   0  0  0  0  0  0  0  0  0  0  0  0
   39.0830   28.8100   42.0250 C   0  0  0  0  0  0  0  0  0  0  0  0
   39.0040   28.3460   40.7050 C   0  0  0  0  0  0  0  0  0  0  0  0
   38.9300   28.9510   39.7890 H   0  0  0  0  0  0  0  0  0  0  0  0
   39.0090   26.9830   40.4100 C   0  0  0  0  0  3  0  0  0  0  0  0
   39.0960   26.0490   41.4230 C   0  0  0  0  0  3  0  0  0  0  0  0
   39.1720   26.5140   42.7060 C   0  0  0  0  0  0  0  0  0  0  0  0
   39.2410   28.4150   44.2780 O   0  0  0  0  0  0  0  0  0  0  0  0
   39.7340   28.0060   45.0650 H   0  0  0  0  0  0  0  0  0  0  0  0
   39.2660   25.7210   43.8650 O   0  0  0  0  0  0  0  0  0  0  0  0
   38.8950   24.7650   43.8950 H   0  0  0  0  0  0  0  0  0  0  0  0
  1  6  1  1  0  0  0
  1 32  1  0  0  0  0
  1  2  1  0  0  0  0
  2  7  1  6  0  0  0
  2 15  1  0  0  0  0
  3  8  1  0  0  0  0
  3  9  1  0  0  0  0
  3  2  1  0  0  0  0
  4  3  1  0  0  0  0
  5  4  1  0  0  0  0
  5  1  1  0  0  0  0
 10  5  1  0  0  0  0
 11  5  1  0  0  0  0
 12 13  1  0  0  0  0
 12 21  1  0  0  0  0
 13 17  1  0  0  0  0
 14 13  2  0  0  0  0
 15 16  1  0  0  0  0
 15 14  1  0  0  0  0
 16 12  2  0  0  0  0
 18 14  1  0  0  0  0
 19 27  1  0  0  0  0
 20 25  1  0  0  0  0
 20 19  2  0  0  0  0
 21 20  1  0  0  0  0
 22 21  2  0  0  0  0
 22 23  1  0  0  0  0
 23 24  2  0  0  0  0
 24 19  1  0  0  0  0
 26 23  1  0  0  0  0
 27 28  1  0  0  0  0
 28 29  1  0  0  0  0
 28 30  1  0  0  0  0
 31 28  1  0  0  0  0
 33 40  1  0  0  0  0
 34 32  1  0  0  0  0
 34 33  2  0  0  0  0
 35 34  1  0  0  0  0
 36 35  1  0  0  0  0
 37 35  2  0  0  0  0
 37 38  1  0  0  0  0
 38 39  2  0  0  0  0
 39 33  1  0  0  0  0
 39 42  1  0  0  0  0
 40 41  1  0  0  0  0
 42 43  1  0  0  0  0
M  END
>  <minimizedAffinity>
-6.51733303

>  <minimizedRMSD>
0.773358166

$$$$
