
 OpenBabel03262520353D

 44 46  0  0  0  0  0  0  0  0999 V2000
   31.2770   26.7940   47.4690 C   0  0  0  0  0  0  0  0  0  0  0  0
   32.4700   27.5030   47.2780 C   0  0  0  0  0  0  0  0  0  0  0  0
   33.6900   26.8540   47.2030 C   0  0  0  0  0  0  0  0  0  0  0  0
   33.7540   25.4880   47.3180 C   0  0  0  0  0  0  0  0  0  0  0  0
   32.5890   24.7910   47.5060 C   0  0  0  0  0  0  0  0  0  0  0  0
   31.3540   25.4000   47.5870 C   0  0  0  0  0  0  0  0  0  0  0  0
   34.5370   27.5070   47.0540 H   0  0  0  0  0  0  0  0  0  0  0  0
   34.7740   25.1340   47.2370 H   0  0  0  0  0  0  0  0  0  0  0  0
   32.8430   23.7200   47.5730 H   0  0  0  0  0  0  0  0  0  0  0  0
   30.6880   24.6180   47.7590 H   0  0  0  0  0  0  0  0  0  0  0  0
   29.7220   27.5090   47.5930 S   0  0  0  0  0  0  0  0  0  0  0  0
   29.7170   28.9050   47.0250 O   0  0  0  0  0  0  0  0  0  0  0  0
   28.7310   26.6330   46.7540 O   0  0  0  0  0  0  0  0  0  0  0  0
   27.6470   27.9580   48.9940 C   0  0  0  0  0  0  0  0  0  0  0  0
   28.9650   27.4580   49.1320 C   0  0  0  0  0  0  0  0  0  0  0  0
   29.1880   27.0590   50.4010 C   0  0  0  0  0  0  0  0  0  0  0  0
   30.1400   26.6210   50.5720 H   0  0  0  0  0  0  0  0  0  0  0  0
   28.3440   27.0900   51.4680 C   0  0  0  0  0  0  0  0  0  0  0  0
   27.0870   27.5880   51.2600 C   0  0  0  0  0  0  0  0  0  0  0  0
   26.7210   28.0300   50.0110 C   0  0  0  0  0  0  0  0  0  0  0  0
   27.0490   28.4650   47.8150 O   0  0  0  0  0  0  0  0  0  0  0  0
   27.1440   29.4830   47.7010 H   0  0  0  0  0  0  0  0  0  0  0  0
   25.4200   28.5050   49.9490 O   0  0  0  0  0  0  0  0  0  0  0  0
   25.1410   29.3430   50.4640 H   0  0  0  0  0  0  0  0  0  0  0  0
   32.2720   28.8510   47.1800 O   0  0  0  0  0  0  0  0  0  0  0  0
   32.7320   29.5070   44.6610 O   0  0  0  0  0  0  0  0  0  0  0  0
   33.0140   29.9210   46.1100 P   0  0  1  0  0  0  0  0  0  0  0  0
   32.4990   31.5100   46.4030 O   0  0  0  0  0  0  0  0  0  0  0  0
   31.7930   31.6910   45.7050 H   0  0  0  0  0  0  0  0  0  0  0  0
   34.7050   29.8840   46.2410 O   0  0  0  0  0  0  0  0  0  0  0  0
   35.2500   29.7420   44.9550 C   0  0  0  0  0  0  0  0  0  0  0  0
   34.5410   30.1740   44.2430 H   0  0  0  0  0  0  0  0  0  0  0  0
   35.2820   28.6450   44.7090 H   0  0  0  0  0  0  0  0  0  0  0  0
   37.2690   30.8330   45.8740 C   0  0  0  0  0  0  0  0  0  0  0  0
   36.5920   30.3600   44.8600 C   0  0  0  0  0  0  0  0  0  0  0  0
   40.8840   31.3000   45.5330 C   0  0  0  0  0  0  0  0  0  0  0  0
   40.9730   32.6210   45.0760 C   0  0  0  0  0  0  0  0  0  0  0  0
   39.7710   33.3340   44.8930 C   0  0  0  0  0  0  0  0  0  0  0  0
   38.6230   32.6570   45.1830 N   0  0  0  0  0  0  0  0  0  0  0  0
   38.5830   31.4110   45.6120 C   0  0  0  0  0  0  0  0  0  0  0  0
   39.7130   30.7320   45.7870 N   0  0  0  0  0  0  0  0  0  0  0  0
   41.8600   30.8360   45.6430 H   0  0  0  0  0  0  0  0  0  0  0  0
   41.8670   33.1820   44.8390 H   0  0  0  0  0  0  0  0  0  0  0  0
   39.7220   34.3570   44.5450 H   0  0  0  0  0  0  0  0  0  0  0  0
  1  6  1  0  0  0  0
  1 11  1  0  0  0  0
  2  1  2  0  0  0  0
  3  2  1  0  0  0  0
  3  4  2  0  0  0  0
  4  5  1  0  0  0  0
  5  9  1  0  0  0  0
  5  6  2  0  0  0  0
  6 10  1  0  0  0  0
  7  3  1  0  0  0  0
  8  4  1  0  0  0  0
 11 15  1  0  0  0  0
 12 11  2  0  0  0  0
 13 11  2  0  0  0  0
 14 15  2  0  0  0  0
 14 20  1  0  0  0  0
 15 16  1  0  0  0  0
 16 17  1  0  0  0  0
 16 18  2  0  0  0  0
 19 18  1  0  0  0  0
 20 19  2  0  0  0  0
 21 14  1  0  0  0  0
 22 21  1  0  0  0  0
 23 20  1  0  0  0  0
 23 24  1  0  0  0  0
 25  2  1  0  0  0  0
 27 26  2  6  0  0  0
 27 30  1  0  0  0  0
 27 28  1  0  0  0  0
 27 25  1  0  0  0  0
 29 28  1  0  0  0  0
 31 30  1  0  0  0  0
 32 31  1  0  0  0  0
 33 31  1  0  0  0  0
 35 31  1  0  0  0  0
 35 34  2  0  0  0  0
 36 42  1  0  0  0  0
 36 41  1  0  0  0  0
 37 36  2  0  0  0  0
 38 37  1  0  0  0  0
 38 39  2  0  0  0  0
 39 40  1  0  0  0  0
 40 41  2  0  0  0  0
 40 34  1  0  0  0  0
 43 37  1  0  0  0  0
 44 38  1  0  0  0  0
M  END
>  <minimizedAffinity>
-6.56353664

>  <minimizedRMSD>
5.21860981

$$$$
