
 OpenBabel03272501063D

 32 34  0  0  1  0  0  0  0  0999 V2000
   38.6820   25.8920   34.2600 C   0  0  2  0  0  0  0  0  0  0  0  0
   38.7920   25.8550   32.7110 C   0  0  2  0  0  0  0  0  0  0  0  0
   39.4300   27.1580   32.4720 C   0  0  0  0  0  0  0  0  0  0  0  0
   40.3600   27.3440   33.4920 O   0  0  0  0  0  0  0  0  0  0  0  0
   40.0370   26.5340   34.5450 C   0  0  0  0  0  0  0  0  0  0  0  0
   37.8910   26.5700   34.5770 H   0  0  0  0  0  0  0  0  0  0  0  0
   39.5470   25.0310   32.5450 H   0  0  0  0  0  0  0  0  0  0  0  0
   38.7010   27.9890   32.5690 H   0  0  0  0  0  0  0  0  0  0  0  0
   39.8810   27.2790   31.4640 H   0  0  0  0  0  0  0  0  0  0  0  0
   39.9960   27.0870   35.5190 H   0  0  0  0  0  0  0  0  0  0  0  0
   40.7670   25.7010   34.6180 H   0  0  0  0  0  0  0  0  0  0  0  0
   35.8520   24.1360   31.0850 C   0  0  0  0  0  0  0  0  0  0  0  0
   37.1140   24.3110   31.7150 C   0  0  0  0  0  0  0  0  0  0  0  0
   37.5190   25.6160   32.0810 C   0  0  0  0  0  0  0  0  0  0  0  0
   36.6550   26.6490   31.8010 N   0  0  0  0  0  0  0  0  0  0  0  0
   35.4740   26.4430   31.2060 C   0  0  0  0  0  0  0  0  0  0  0  0
   35.0670   25.1990   30.8470 N   0  0  0  0  0  0  0  0  0  0  0  0
   35.5120   23.1520   30.7930 H   0  0  0  0  0  0  0  0  0  0  0  0
   37.7550   23.4410   31.9080 H   0  0  0  0  0  0  0  0  0  0  0  0
   34.8470   27.3110   31.0180 H   0  0  0  0  0  0  0  0  0  0  0  0
   38.6440   24.5950   34.7510 O   0  0  0  0  0  0  0  0  0  0  0  0
   39.5650   23.2060   36.4310 C   0  0  0  0  0  0  0  0  0  0  0  0
   38.6790   24.2180   36.0750 C   0  0  0  0  0  0  0  0  0  0  0  0
   37.9170   24.7440   37.1070 C   0  0  0  0  0  0  0  0  0  0  0  0
   37.2300   25.5280   36.8300 H   0  0  0  0  0  0  0  0  0  0  0  0
   38.0370   24.2890   38.3990 C   0  0  0  0  0  3  0  0  0  0  0  0
   38.9280   23.2870   38.6930 C   0  0  0  0  0  3  0  0  0  0  0  0
   39.7090   22.7320   37.6950 C   0  0  0  0  0  0  0  0  0  0  0  0
   40.3680   22.6220   35.4620 O   0  0  0  0  0  0  0  0  0  0  0  0
   41.0600   23.2100   35.0140 H   0  0  0  0  0  0  0  0  0  0  0  0
   40.6090   21.7170   38.0190 O   0  0  0  0  0  0  0  0  0  0  0  0
   40.7030   20.9450   37.3630 H   0  0  0  0  0  0  0  0  0  0  0  0
  1  5  1  0  0  0  0
  1  6  1  1  0  0  0
  1 21  1  0  0  0  0
  2  7  1  6  0  0  0
  2  1  1  0  0  0  0
  3  8  1  0  0  0  0
  3  2  1  0  0  0  0
  3  4  1  0  0  0  0
  4  5  1  0  0  0  0
  5 11  1  0  0  0  0
  5 10  1  0  0  0  0
  9  3  1  0  0  0  0
 12 13  1  0  0  0  0
 13 19  1  0  0  0  0
 13 14  2  0  0  0  0
 14  2  1  0  0  0  0
 15 14  1  0  0  0  0
 16 15  2  0  0  0  0
 17 12  2  0  0  0  0
 17 16  1  0  0  0  0
 18 12  1  0  0  0  0
 20 16  1  0  0  0  0
 21 23  1  0  0  0  0
 22 28  1  0  0  0  0
 23 22  2  0  0  0  0
 23 24  1  0  0  0  0
 24 26  2  0  0  0  0
 25 24  1  0  0  0  0
 26 27  1  0  0  0  0
 28 31  1  0  0  0  0
 28 27  2  0  0  0  0
 29 22  1  0  0  0  0
 30 29  1  0  0  0  0
 32 31  1  0  0  0  0
M  END
>  <minimizedAffinity>
-5.72584009

$$$$

 OpenBabel03272501063D

 32 34  0  0  1  0  0  0  0  0999 V2000
   37.4670   25.6550   34.0700 C   0  0  2  0  0  0  0  0  0  0  0  0
   37.5670   25.2680   32.5690 C   0  0  2  0  0  0  0  0  0  0  0  0
   36.7020   26.3050   31.9840 C   0  0  0  0  0  0  0  0  0  0  0  0
   36.9520   27.4810   32.6870 O   0  0  0  0  0  0  0  0  0  0  0  0
   37.5130   27.1700   33.8940 C   0  0  0  0  0  0  0  0  0  0  0  0
   36.4980   25.3710   34.4800 H   0  0  0  0  0  0  0  0  0  0  0  0
   38.6460   25.5040   32.3330 H   0  0  0  0  0  0  0  0  0  0  0  0
   35.6300   26.0750   32.1450 H   0  0  0  0  0  0  0  0  0  0  0  0
   36.8120   26.4400   30.8860 H   0  0  0  0  0  0  0  0  0  0  0  0
   36.9920   27.6660   34.7540 H   0  0  0  0  0  0  0  0  0  0  0  0
   38.5860   27.4510   33.8950 H   0  0  0  0  0  0  0  0  0  0  0  0
   35.6970   22.1850   31.4590 C   0  0  0  0  0  0  0  0  0  0  0  0
   36.0130   23.5570   31.6490 C   0  0  0  0  0  0  0  0  0  0  0  0
   37.2030   23.8950   32.3350 C   0  0  0  0  0  0  0  0  0  0  0  0
   37.9910   22.8600   32.7820 N   0  0  0  0  0  0  0  0  0  0  0  0
   37.6590   21.5790   32.5830 C   0  0  0  0  0  0  0  0  0  0  0  0
   36.5210   21.2340   31.9270 N   0  0  0  0  0  0  0  0  0  0  0  0
   34.7960   21.8920   30.9380 H   0  0  0  0  0  0  0  0  0  0  0  0
   35.3370   24.3330   31.2670 H   0  0  0  0  0  0  0  0  0  0  0  0
   38.3340   20.8180   32.9670 H   0  0  0  0  0  0  0  0  0  0  0  0
   38.5970   25.2060   34.7380 O   0  0  0  0  0  0  0  0  0  0  0  0
   39.4240   23.4680   36.1150 C   0  0  0  0  0  0  0  0  0  0  0  0
   38.6330   24.6040   35.9770 C   0  0  0  0  0  0  0  0  0  0  0  0
   37.9560   25.0130   37.1160 C   0  0  0  0  0  0  0  0  0  0  0  0
   37.3430   25.8930   37.0060 H   0  0  0  0  0  0  0  0  0  0  0  0
   38.0670   24.3310   38.3050 C   0  0  0  0  0  3  0  0  0  0  0  0
   38.8620   23.2160   38.3850 C   0  0  0  0  0  3  0  0  0  0  0  0
   39.5560   22.7710   37.2740 C   0  0  0  0  0  0  0  0  0  0  0  0
   40.1360   22.9880   35.0260 O   0  0  0  0  0  0  0  0  0  0  0  0
   40.8710   23.5770   34.6540 H   0  0  0  0  0  0  0  0  0  0  0  0
   40.3580   21.6350   37.3800 O   0  0  0  0  0  0  0  0  0  0  0  0
   40.3560   20.9830   36.5990 H   0  0  0  0  0  0  0  0  0  0  0  0
  1  6  1  1  0  0  0
  1 21  1  0  0  0  0
  2  7  1  6  0  0  0
  2  1  1  0  0  0  0
  3  8  1  0  0  0  0
  3  2  1  0  0  0  0
  3  4  1  0  0  0  0
  4  5  1  0  0  0  0
  5 11  1  0  0  0  0
  5  1  1  0  0  0  0
  5 10  1  0  0  0  0
  9  3  1  0  0  0  0
 12 13  2  0  0  0  0
 12 17  1  0  0  0  0
 13 14  1  0  0  0  0
 14  2  1  0  0  0  0
 14 15  2  0  0  0  0
 16 15  1  0  0  0  0
 16 20  1  0  0  0  0
 17 16  2  0  0  0  0
 18 12  1  0  0  0  0
 19 13  1  0  0  0  0
 21 23  1  0  0  0  0
 22 28  1  0  0  0  0
 23 22  2  0  0  0  0
 23 24  1  0  0  0  0
 24 26  2  0  0  0  0
 25 24  1  0  0  0  0
 26 27  1  0  0  0  0
 28 31  1  0  0  0  0
 28 27  2  0  0  0  0
 29 22  1  0  0  0  0
 30 29  1  0  0  0  0
 32 31  1  0  0  0  0
M  END
>  <minimizedAffinity>
-5.29029465

$$$$

 OpenBabel03272501063D

 32 34  0  0  1  0  0  0  0  0999 V2000
   37.5810   24.3230   33.3540 C   0  0  2  0  0  0  0  0  0  0  0  0
   37.6180   23.6580   31.9500 C   0  0  2  0  0  0  0  0  0  0  0  0
   36.9550   24.7060   31.1590 C   0  0  0  0  0  0  0  0  0  0  0  0
   37.4060   25.9290   31.6490 O   0  0  0  0  0  0  0  0  0  0  0  0
   37.8970   25.7500   32.9130 C   0  0  0  0  0  0  0  0  0  0  0  0
   36.5760   24.2920   33.7720 H   0  0  0  0  0  0  0  0  0  0  0  0
   38.7240   23.6560   31.7170 H   0  0  0  0  0  0  0  0  0  0  0  0
   35.8570   24.6990   31.3180 H   0  0  0  0  0  0  0  0  0  0  0  0
   37.0920   24.6170   30.0590 H   0  0  0  0  0  0  0  0  0  0  0  0
   37.4680   26.4770   33.6500 H   0  0  0  0  0  0  0  0  0  0  0  0
   39.0030   25.8350   32.9030 H   0  0  0  0  0  0  0  0  0  0  0  0
   37.1310   19.9270   31.6760 C   0  0  0  0  0  0  0  0  0  0  0  0
   37.7790   21.1920   31.6720 C   0  0  0  0  0  0  0  0  0  0  0  0
   37.0170   22.3500   31.9530 C   0  0  0  0  0  0  0  0  0  0  0  0
   35.6780   22.1780   32.2140 N   0  0  0  0  0  0  0  0  0  0  0  0
   35.1040   20.9690   32.2080 C   0  0  0  0  0  0  0  0  0  0  0  0
   35.8180   19.8460   31.9420 N   0  0  0  0  0  0  0  0  0  0  0  0
   37.6840   19.0230   31.4660 H   0  0  0  0  0  0  0  0  0  0  0  0
   38.8530   21.2570   31.4530 H   0  0  0  0  0  0  0  0  0  0  0  0
   34.0400   20.9160   32.4250 H   0  0  0  0  0  0  0  0  0  0  0  0
   38.6110   23.8140   34.1320 O   0  0  0  0  0  0  0  0  0  0  0  0
   39.5260   22.8250   36.0780 C   0  0  0  0  0  0  0  0  0  0  0  0
   38.6330   23.7270   35.5070 C   0  0  0  0  0  0  0  0  0  0  0  0
   37.8510   24.4480   36.3960 C   0  0  0  0  0  0  0  0  0  0  0  0
   37.1580   25.1450   35.9510 H   0  0  0  0  0  0  0  0  0  0  0  0
   37.9580   24.2780   37.7560 C   0  0  0  0  0  3  0  0  0  0  0  0
   38.8570   23.3740   38.2650 C   0  0  0  0  0  3  0  0  0  0  0  0
   39.6590   22.6320   37.4160 C   0  0  0  0  0  0  0  0  0  0  0  0
   40.3490   22.0620   35.2630 O   0  0  0  0  0  0  0  0  0  0  0  0
   41.0400   22.5520   34.7090 H   0  0  0  0  0  0  0  0  0  0  0  0
   40.5650   21.7210   37.9570 O   0  0  0  0  0  0  0  0  0  0  0  0
   40.6780   20.8290   37.4800 H   0  0  0  0  0  0  0  0  0  0  0  0
  1  6  1  1  0  0  0
  1 21  1  0  0  0  0
  2  7  1  6  0  0  0
  2 14  1  0  0  0  0
  2  1  1  0  0  0  0
  3  8  1  0  0  0  0
  3  4  1  0  0  0  0
  3  2  1  0  0  0  0
  4  5  1  0  0  0  0
  5  1  1  0  0  0  0
  5 10  1  0  0  0  0
  9  3  1  0  0  0  0
 11  5  1  0  0  0  0
 12 17  1  0  0  0  0
 13 12  2  0  0  0  0
 13 14  1  0  0  0  0
 14 15  2  0  0  0  0
 16 15  1  0  0  0  0
 16 20  1  0  0  0  0
 17 16  2  0  0  0  0
 18 12  1  0  0  0  0
 19 13  1  0  0  0  0
 21 23  1  0  0  0  0
 22 28  1  0  0  0  0
 23 22  2  0  0  0  0
 23 24  1  0  0  0  0
 24 26  2  0  0  0  0
 25 24  1  0  0  0  0
 26 27  1  0  0  0  0
 28 31  1  0  0  0  0
 28 27  2  0  0  0  0
 29 22  1  0  0  0  0
 30 29  1  0  0  0  0
 32 31  1  0  0  0  0
M  END
>  <minimizedAffinity>
-5.22393703

$$$$

 OpenBabel03272501063D

 32 34  0  0  1  0  0  0  0  0999 V2000
   37.1120   21.7280   32.6240 C   0  0  2  0  0  0  0  0  0  0  0  0
   35.9170   22.4310   31.9240 C   0  0  2  0  0  0  0  0  0  0  0  0
   35.6650   21.4750   30.8340 C   0  0  0  0  0  0  0  0  0  0  0  0
   35.8460   20.2010   31.3660 O   0  0  0  0  0  0  0  0  0  0  0  0
   36.6060   20.2940   32.5000 C   0  0  0  0  0  0  0  0  0  0  0  0
   38.0240   21.8380   32.0380 H   0  0  0  0  0  0  0  0  0  0  0  0
   35.1000   22.3400   32.6990 H   0  0  0  0  0  0  0  0  0  0  0  0
   36.4170   21.5780   30.0260 H   0  0  0  0  0  0  0  0  0  0  0  0
   34.6790   21.5870   30.3340 H   0  0  0  0  0  0  0  0  0  0  0  0
   37.4750   19.5850   32.4960 H   0  0  0  0  0  0  0  0  0  0  0  0
   35.9750   20.1070   33.3930 H   0  0  0  0  0  0  0  0  0  0  0  0
   37.7980   25.5390   30.9040 C   0  0  0  0  0  0  0  0  0  0  0  0
   37.5490   24.1840   31.2500 C   0  0  0  0  0  0  0  0  0  0  0  0
   36.2250   23.7890   31.5550 C   0  0  0  0  0  0  0  0  0  0  0  0
   35.2480   24.7550   31.5000 N   0  0  0  0  0  0  0  0  0  0  0  0
   35.5230   26.0220   31.1700 C   0  0  0  0  0  0  0  0  0  0  0  0
   36.7860   26.4210   30.8730 N   0  0  0  0  0  0  0  0  0  0  0  0
   38.7970   25.8740   30.6650 H   0  0  0  0  0  0  0  0  0  0  0  0
   38.3780   23.4640   31.2760 H   0  0  0  0  0  0  0  0  0  0  0  0
   34.6950   26.7270   31.1480 H   0  0  0  0  0  0  0  0  0  0  0  0
   37.1590   22.1150   33.9550 O   0  0  0  0  0  0  0  0  0  0  0  0
   38.2310   22.4030   36.0460 C   0  0  0  0  0  0  0  0  0  0  0  0
   38.2810   22.4980   34.6580 C   0  0  0  0  0  0  0  0  0  0  0  0
   39.4690   22.9760   34.1270 C   0  0  0  0  0  0  0  0  0  0  0  0
   39.5050   23.0500   33.0510 H   0  0  0  0  0  0  0  0  0  0  0  0
   40.5290   23.3300   34.9290 C   0  0  0  0  0  3  0  0  0  0  0  0
   40.4250   23.2150   36.2920 C   0  0  0  0  0  3  0  0  0  0  0  0
   39.2580   22.7430   36.8670 C   0  0  0  0  0  0  0  0  0  0  0  0
   37.0810   21.9340   36.6630 O   0  0  0  0  0  0  0  0  0  0  0  0
   36.8160   20.9730   36.4860 H   0  0  0  0  0  0  0  0  0  0  0  0
   39.1770   22.6350   38.2550 O   0  0  0  0  0  0  0  0  0  0  0  0
   38.2980   22.8950   38.6970 H   0  0  0  0  0  0  0  0  0  0  0  0
  1  6  1  6  0  0  0
  1 21  1  0  0  0  0
  2  1  1  0  0  0  0
  2  7  1  1  0  0  0
  3  4  1  0  0  0  0
  3  2  1  0  0  0  0
  4  5  1  0  0  0  0
  5  1  1  0  0  0  0
  5 11  1  0  0  0  0
  8  3  1  0  0  0  0
  9  3  1  0  0  0  0
 10  5  1  0  0  0  0
 12 13  1  0  0  0  0
 13 19  1  0  0  0  0
 13 14  2  0  0  0  0
 14  2  1  0  0  0  0
 15 14  1  0  0  0  0
 16 15  2  0  0  0  0
 17 12  2  0  0  0  0
 17 16  1  0  0  0  0
 18 12  1  0  0  0  0
 20 16  1  0  0  0  0
 21 23  1  0  0  0  0
 22 29  1  0  0  0  0
 22 28  1  0  0  0  0
 23 22  2  0  0  0  0
 24 23  1  0  0  0  0
 24 26  2  0  0  0  0
 25 24  1  0  0  0  0
 26 27  1  0  0  0  0
 27 28  2  0  0  0  0
 28 31  1  0  0  0  0
 30 29  1  0  0  0  0
 31 32  1  0  0  0  0
M  END
>  <minimizedAffinity>
-5.16512966

$$$$

 OpenBabel03272501063D

 32 34  0  0  1  0  0  0  0  0999 V2000
   38.3880   25.2820   34.9970 C   0  0  2  0  0  0  0  0  0  0  0  0
   39.2800   26.5400   34.8080 C   0  0  2  0  0  0  0  0  0  0  0  0
   38.5850   27.4770   35.7040 C   0  0  0  0  0  0  0  0  0  0  0  0
   38.1870   26.7470   36.8210 O   0  0  0  0  0  0  0  0  0  0  0  0
   38.1580   25.4180   36.4990 C   0  0  0  0  0  0  0  0  0  0  0  0
   37.4380   25.3980   34.4770 H   0  0  0  0  0  0  0  0  0  0  0  0
   40.2520   26.2160   35.2840 H   0  0  0  0  0  0  0  0  0  0  0  0
   37.6530   27.8620   35.2420 H   0  0  0  0  0  0  0  0  0  0  0  0
   39.1710   28.3810   35.9790 H   0  0  0  0  0  0  0  0  0  0  0  0
   37.1900   24.9270   36.7790 H   0  0  0  0  0  0  0  0  0  0  0  0
   39.0010   24.8930   36.9920 H   0  0  0  0  0  0  0  0  0  0  0  0
   38.4430   27.5600   31.2730 C   0  0  0  0  0  0  0  0  0  0  0  0
   38.2630   27.2060   32.6370 C   0  0  0  0  0  0  0  0  0  0  0  0
   39.4030   26.9160   33.4230 C   0  0  0  0  0  0  0  0  0  0  0  0
   40.6310   26.9940   32.8090 N   0  0  0  0  0  0  0  0  0  0  0  0
   40.7590   27.3300   31.5210 C   0  0  0  0  0  0  0  0  0  0  0  0
   39.6780   27.6130   30.7500 N   0  0  0  0  0  0  0  0  0  0  0  0
   37.5940   27.7880   30.6450 H   0  0  0  0  0  0  0  0  0  0  0  0
   37.2520   27.1620   33.0630 H   0  0  0  0  0  0  0  0  0  0  0  0
   41.7650   27.3700   31.1090 H   0  0  0  0  0  0  0  0  0  0  0  0
   39.1310   24.1440   34.7180 O   0  0  0  0  0  0  0  0  0  0  0  0
   40.1560   22.6950   36.2840 C   0  0  0  0  0  0  0  0  0  0  0  0
   40.2760   23.7340   35.3650 C   0  0  0  0  0  0  0  0  0  0  0  0
   41.5520   24.2500   35.2000 C   0  0  0  0  0  0  0  0  0  0  0  0
   41.6430   25.0560   34.4880 H   0  0  0  0  0  0  0  0  0  0  0  0
   42.6270   23.7600   35.9030 C   0  0  0  0  0  3  0  0  0  0  0  0
   42.4510   22.7330   36.7970 C   0  0  0  0  0  3  0  0  0  0  0  0
   41.1950   22.1870   36.9950 C   0  0  0  0  0  0  0  0  0  0  0  0
   38.9160   22.1180   36.5120 O   0  0  0  0  0  0  0  0  0  0  0  0
   38.4840   21.6220   35.7420 H   0  0  0  0  0  0  0  0  0  0  0  0
   41.0420   21.1440   37.9080 O   0  0  0  0  0  0  0  0  0  0  0  0
   40.2100   21.1500   38.4940 H   0  0  0  0  0  0  0  0  0  0  0  0
  1  6  1  6  0  0  0
  1  5  1  0  0  0  0
  2  1  1  0  0  0  0
  2  7  1  1  0  0  0
  2  3  1  0  0  0  0
  3  9  1  0  0  0  0
  3  4  1  0  0  0  0
  5 10  1  0  0  0  0
  5  4  1  0  0  0  0
  5 11  1  0  0  0  0
  8  3  1  0  0  0  0
 12 13  1  0  0  0  0
 13 19  1  0  0  0  0
 13 14  2  0  0  0  0
 14  2  1  0  0  0  0
 15 14  1  0  0  0  0
 16 15  2  0  0  0  0
 17 12  2  0  0  0  0
 17 16  1  0  0  0  0
 18 12  1  0  0  0  0
 20 16  1  0  0  0  0
 21  1  1  0  0  0  0
 21 23  1  0  0  0  0
 22 29  1  0  0  0  0
 22 28  1  0  0  0  0
 23 22  2  0  0  0  0
 24 23  1  0  0  0  0
 24 26  2  0  0  0  0
 25 24  1  0  0  0  0
 26 27  1  0  0  0  0
 27 28  2  0  0  0  0
 28 31  1  0  0  0  0
 30 29  1  0  0  0  0
 31 32  1  0  0  0  0
M  END
>  <minimizedAffinity>
-5.15548611

$$$$

 OpenBabel03272501063D

 32 34  0  0  1  0  0  0  0  0999 V2000
   38.3570   23.9410   33.1700 C   0  0  2  0  0  0  0  0  0  0  0  0
   37.0340   24.5580   32.6400 C   0  0  2  0  0  0  0  0  0  0  0  0
   36.6460   23.5230   31.6690 C   0  0  0  0  0  0  0  0  0  0  0  0
   36.9660   22.2940   32.2400 O   0  0  0  0  0  0  0  0  0  0  0  0
   37.8990   22.4870   33.2220 C   0  0  0  0  0  0  0  0  0  0  0  0
   39.1540   24.0400   32.4340 H   0  0  0  0  0  0  0  0  0  0  0  0
   36.3610   24.4930   33.5450 H   0  0  0  0  0  0  0  0  0  0  0  0
   37.2480   23.5940   30.7400 H   0  0  0  0  0  0  0  0  0  0  0  0
   35.5870   23.5690   31.3360 H   0  0  0  0  0  0  0  0  0  0  0  0
   38.7840   21.8070   33.1150 H   0  0  0  0  0  0  0  0  0  0  0  0
   37.4330   22.3410   34.2180 H   0  0  0  0  0  0  0  0  0  0  0  0
   38.1310   27.4880   30.5310 C   0  0  0  0  0  0  0  0  0  0  0  0
   37.9700   26.1460   30.9700 C   0  0  0  0  0  0  0  0  0  0  0  0
   37.2190   25.8960   32.1420 C   0  0  0  0  0  0  0  0  0  0  0  0
   36.6850   26.9830   32.7940 N   0  0  0  0  0  0  0  0  0  0  0  0
   36.8590   28.2320   32.3490 C   0  0  0  0  0  0  0  0  0  0  0  0
   37.5760   28.4930   31.2260 N   0  0  0  0  0  0  0  0  0  0  0  0
   38.6980   27.7130   29.6390 H   0  0  0  0  0  0  0  0  0  0  0  0
   38.4260   25.3250   30.4000 H   0  0  0  0  0  0  0  0  0  0  0  0
   36.4040   29.0380   32.9210 H   0  0  0  0  0  0  0  0  0  0  0  0
   38.6080   24.4190   34.4490 O   0  0  0  0  0  0  0  0  0  0  0  0
   38.7520   23.5630   36.6500 C   0  0  0  0  0  0  0  0  0  0  0  0
   39.3620   23.8000   35.4220 C   0  0  0  0  0  0  0  0  0  0  0  0
   40.6790   23.3820   35.3100 C   0  0  0  0  0  0  0  0  0  0  0  0
   41.1500   23.5670   34.3570 H   0  0  0  0  0  0  0  0  0  0  0  0
   41.3350   22.7710   36.3530 C   0  0  0  0  0  3  0  0  0  0  0  0
   40.6840   22.5620   37.5430 C   0  0  0  0  0  3  0  0  0  0  0  0
   39.3700   22.9620   37.7010 C   0  0  0  0  0  0  0  0  0  0  0  0
   37.4350   23.9470   36.8510 O   0  0  0  0  0  0  0  0  0  0  0  0
   36.7250   23.4860   36.2950 H   0  0  0  0  0  0  0  0  0  0  0  0
   38.7300   22.7380   38.9190 O   0  0  0  0  0  0  0  0  0  0  0  0
   38.1150   23.4690   39.2700 H   0  0  0  0  0  0  0  0  0  0  0  0
  1  6  1  6  0  0  0
  1  5  1  0  0  0  0
  1 21  1  0  0  0  0
  2  1  1  0  0  0  0
  2  7  1  1  0  0  0
  3  4  1  0  0  0  0
  3  2  1  0  0  0  0
  4  5  1  0  0  0  0
  5 11  1  0  0  0  0
  8  3  1  0  0  0  0
  9  3  1  0  0  0  0
 10  5  1  0  0  0  0
 12 13  2  0  0  0  0
 12 17  1  0  0  0  0
 13 14  1  0  0  0  0
 14  2  1  0  0  0  0
 14 15  2  0  0  0  0
 16 15  1  0  0  0  0
 16 20  1  0  0  0  0
 17 16  2  0  0  0  0
 18 12  1  0  0  0  0
 19 13  1  0  0  0  0
 21 23  1  0  0  0  0
 22 29  1  0  0  0  0
 22 28  1  0  0  0  0
 23 22  2  0  0  0  0
 24 23  1  0  0  0  0
 24 26  2  0  0  0  0
 25 24  1  0  0  0  0
 26 27  1  0  0  0  0
 27 28  2  0  0  0  0
 28 31  1  0  0  0  0
 30 29  1  0  0  0  0
 31 32  1  0  0  0  0
M  END
>  <minimizedAffinity>
-5.02475834

$$$$

 OpenBabel03272501063D

 32 34  0  0  1  0  0  0  0  0999 V2000
   35.0060   29.7050   32.7510 C   0  0  2  0  0  0  0  0  0  0  0  0
   36.2780   29.1900   32.0240 C   0  0  2  0  0  0  0  0  0  0  0  0
   36.0340   29.7320   30.6780 C   0  0  0  0  0  0  0  0  0  0  0  0
   35.4760   30.9960   30.8460 O   0  0  0  0  0  0  0  0  0  0  0  0
   34.9450   31.0860   32.1040 C   0  0  0  0  0  0  0  0  0  0  0  0
   34.1300   29.1310   32.4540 H   0  0  0  0  0  0  0  0  0  0  0  0
   37.0970   29.7870   32.5240 H   0  0  0  0  0  0  0  0  0  0  0  0
   35.2760   29.1330   30.1330 H   0  0  0  0  0  0  0  0  0  0  0  0
   36.9260   29.7500   30.0140 H   0  0  0  0  0  0  0  0  0  0  0  0
   33.8870   31.4550   32.1000 H   0  0  0  0  0  0  0  0  0  0  0  0
   35.5720   31.7520   32.7310 H   0  0  0  0  0  0  0  0  0  0  0  0
   35.9900   25.4790   31.4110 C   0  0  0  0  0  0  0  0  0  0  0  0
   35.8120   26.8770   31.2360 C   0  0  0  0  0  0  0  0  0  0  0  0
   36.4350   27.7640   32.1450 C   0  0  0  0  0  0  0  0  0  0  0  0
   37.1830   27.2100   33.1570 N   0  0  0  0  0  0  0  0  0  0  0  0
   37.3260   25.8860   33.2890 C   0  0  0  0  0  0  0  0  0  0  0  0
   36.7380   25.0190   32.4270 N   0  0  0  0  0  0  0  0  0  0  0  0
   35.5290   24.7740   30.7330 H   0  0  0  0  0  0  0  0  0  0  0  0
   35.2000   27.2520   30.4050 H   0  0  0  0  0  0  0  0  0  0  0  0
   37.9340   25.5260   34.1160 H   0  0  0  0  0  0  0  0  0  0  0  0
   35.2650   29.8150   34.1100 O   0  0  0  0  0  0  0  0  0  0  0  0
   34.9670   31.2760   35.9480 C   0  0  0  0  0  0  0  0  0  0  0  0
   34.4260   30.3470   35.0640 C   0  0  0  0  0  0  0  0  0  0  0  0
   33.0830   30.0540   35.2430 C   0  0  0  0  0  0  0  0  0  0  0  0
   32.6660   29.3320   34.5580 H   0  0  0  0  0  0  0  0  0  0  0  0
   32.3390   30.6490   36.2350 C   0  0  0  0  0  3  0  0  0  0  0  0
   32.9240   31.5600   37.0780 C   0  0  0  0  0  3  0  0  0  0  0  0
   34.2620   31.8840   36.9370 C   0  0  0  0  0  0  0  0  0  0  0  0
   36.3040   31.6310   35.8410 O   0  0  0  0  0  0  0  0  0  0  0  0
   36.5920   32.1120   34.9980 H   0  0  0  0  0  0  0  0  0  0  0  0
   34.8340   32.8120   37.8060 O   0  0  0  0  0  0  0  0  0  0  0  0
   35.7780   32.6280   38.1360 H   0  0  0  0  0  0  0  0  0  0  0  0
  1  6  1  6  0  0  0
  1 21  1  0  0  0  0
  2 14  1  0  0  0  0
  2  7  1  1  0  0  0
  2  1  1  0  0  0  0
  3  4  1  0  0  0  0
  3  2  1  0  0  0  0
  4  5  1  0  0  0  0
  5 11  1  0  0  0  0
  5  1  1  0  0  0  0
  8  3  1  0  0  0  0
  9  3  1  0  0  0  0
 10  5  1  0  0  0  0
 12 17  1  0  0  0  0
 13 12  2  0  0  0  0
 13 14  1  0  0  0  0
 14 15  2  0  0  0  0
 15 16  1  0  0  0  0
 16 20  1  0  0  0  0
 17 16  2  0  0  0  0
 18 12  1  0  0  0  0
 19 13  1  0  0  0  0
 21 23  1  0  0  0  0
 22 28  1  0  0  0  0
 23 24  1  0  0  0  0
 23 22  2  0  0  0  0
 24 26  2  0  0  0  0
 25 24  1  0  0  0  0
 26 27  1  0  0  0  0
 28 27  2  0  0  0  0
 28 31  1  0  0  0  0
 29 22  1  0  0  0  0
 30 29  1  0  0  0  0
 31 32  1  0  0  0  0
M  END
>  <minimizedAffinity>
-5.01796341

$$$$

 OpenBabel03272501063D

 32 34  0  0  1  0  0  0  0  0999 V2000
   38.7140   22.8080   32.7560 C   0  0  2  0  0  0  0  0  0  0  0  0
   37.2140   23.2060   32.8250 C   0  0  2  0  0  0  0  0  0  0  0  0
   36.6090   22.0100   32.2180 C   0  0  0  0  0  0  0  0  0  0  0  0
   37.3290   20.9130   32.6840 O   0  0  0  0  0  0  0  0  0  0  0  0
   38.5520   21.3360   33.1250 C   0  0  0  0  0  0  0  0  0  0  0  0
   39.0890   22.8820   31.7350 H   0  0  0  0  0  0  0  0  0  0  0  0
   37.0180   23.2020   33.9370 H   0  0  0  0  0  0  0  0  0  0  0  0
   36.7320   22.0100   31.1160 H   0  0  0  0  0  0  0  0  0  0  0  0
   35.5170   21.9010   32.3920 H   0  0  0  0  0  0  0  0  0  0  0  0
   39.3970   20.7420   32.6890 H   0  0  0  0  0  0  0  0  0  0  0  0
   38.5920   21.2870   34.2330 H   0  0  0  0  0  0  0  0  0  0  0  0
   35.5220   26.0070   30.9470 C   0  0  0  0  0  0  0  0  0  0  0  0
   35.7150   24.7450   31.5710 C   0  0  0  0  0  0  0  0  0  0  0  0
   36.9580   24.4720   32.1890 C   0  0  0  0  0  0  0  0  0  0  0  0
   37.9160   25.4580   32.1470 N   0  0  0  0  0  0  0  0  0  0  0  0
   37.6950   26.6350   31.5500 C   0  0  0  0  0  0  0  0  0  0  0  0
   36.5090   26.9170   30.9510 N   0  0  0  0  0  0  0  0  0  0  0  0
   34.5840   26.2480   30.4670 H   0  0  0  0  0  0  0  0  0  0  0  0
   34.9070   24.0020   31.5660 H   0  0  0  0  0  0  0  0  0  0  0  0
   38.5020   27.3630   31.5590 H   0  0  0  0  0  0  0  0  0  0  0  0
   39.4160   23.4840   33.7430 O   0  0  0  0  0  0  0  0  0  0  0  0
   39.9630   22.6650   35.8950 C   0  0  0  0  0  0  0  0  0  0  0  0
   39.1530   23.4660   35.0950 C   0  0  0  0  0  0  0  0  0  0  0  0
   38.1550   24.1660   35.7550 C   0  0  0  0  0  0  0  0  0  0  0  0
   37.5280   24.7860   35.1330 H   0  0  0  0  0  0  0  0  0  0  0  0
   37.9840   24.0710   37.1160 C   0  0  0  0  0  3  0  0  0  0  0  0
   38.8130   23.2660   37.8560 C   0  0  0  0  0  3  0  0  0  0  0  0
   39.8220   22.5470   37.2410 C   0  0  0  0  0  0  0  0  0  0  0  0
   40.9880   21.9290   35.3190 O   0  0  0  0  0  0  0  0  0  0  0  0
   41.7460   22.4440   34.8890 H   0  0  0  0  0  0  0  0  0  0  0  0
   40.6520   21.7360   38.0150 O   0  0  0  0  0  0  0  0  0  0  0  0
   40.9200   20.8340   37.6290 H   0  0  0  0  0  0  0  0  0  0  0  0
  1  6  1  6  0  0  0
  1  2  1  0  0  0  0
  1  5  1  0  0  0  0
  1 21  1  0  0  0  0
  2  7  1  1  0  0  0
  3  9  1  0  0  0  0
  3  4  1  0  0  0  0
  3  2  1  0  0  0  0
  4  5  1  0  0  0  0
  5 11  1  0  0  0  0
  8  3  1  0  0  0  0
 10  5  1  0  0  0  0
 12 17  2  0  0  0  0
 12 13  1  0  0  0  0
 13 14  2  0  0  0  0
 14  2  1  0  0  0  0
 15 14  1  0  0  0  0
 16 20  1  0  0  0  0
 16 15  2  0  0  0  0
 17 16  1  0  0  0  0
 18 12  1  0  0  0  0
 19 13  1  0  0  0  0
 21 23  1  0  0  0  0
 22 28  1  0  0  0  0
 23 24  1  0  0  0  0
 23 22  2  0  0  0  0
 24 26  2  0  0  0  0
 25 24  1  0  0  0  0
 26 27  1  0  0  0  0
 28 27  2  0  0  0  0
 28 31  1  0  0  0  0
 29 22  1  0  0  0  0
 30 29  1  0  0  0  0
 32 31  1  0  0  0  0
M  END
>  <minimizedAffinity>
-5.01112556

$$$$

 OpenBabel03272501063D

 32 34  0  0  1  0  0  0  0  0999 V2000
   37.3460   26.0750   34.3370 C   0  0  2  0  0  0  0  0  0  0  0  0
   37.7190   26.2240   32.8360 C   0  0  2  0  0  0  0  0  0  0  0  0
   36.6550   27.1430   32.4030 C   0  0  0  0  0  0  0  0  0  0  0  0
   36.4670   28.0580   33.4360 O   0  0  0  0  0  0  0  0  0  0  0  0
   36.9610   27.5280   34.5970 C   0  0  0  0  0  0  0  0  0  0  0  0
   36.4660   25.4440   34.4570 H   0  0  0  0  0  0  0  0  0  0  0  0
   38.6990   26.7830   32.8890 H   0  0  0  0  0  0  0  0  0  0  0  0
   35.6880   26.6140   32.2830 H   0  0  0  0  0  0  0  0  0  0  0  0
   36.8390   27.6430   31.4270 H   0  0  0  0  0  0  0  0  0  0  0  0
   36.2250   27.5790   35.4410 H   0  0  0  0  0  0  0  0  0  0  0  0
   37.8950   28.0520   34.8830 H   0  0  0  0  0  0  0  0  0  0  0  0
   38.3170   23.5720   30.2200 C   0  0  0  0  0  0  0  0  0  0  0  0
   38.2640   24.8520   30.8340 C   0  0  0  0  0  0  0  0  0  0  0  0
   37.8060   24.9510   32.1680 C   0  0  0  0  0  0  0  0  0  0  0  0
   37.4340   23.7860   32.7970 N   0  0  0  0  0  0  0  0  0  0  0  0
   37.4990   22.5980   32.1850 C   0  0  0  0  0  0  0  0  0  0  0  0
   37.9360   22.4820   30.9050 N   0  0  0  0  0  0  0  0  0  0  0  0
   38.6630   23.4610   29.2020 H   0  0  0  0  0  0  0  0  0  0  0  0
   38.5760   25.7420   30.2720 H   0  0  0  0  0  0  0  0  0  0  0  0
   37.1870   21.7230   32.7500 H   0  0  0  0  0  0  0  0  0  0  0  0
   38.4790   25.7330   35.0610 O   0  0  0  0  0  0  0  0  0  0  0  0
   39.2050   23.7340   36.0990 C   0  0  0  0  0  0  0  0  0  0  0  0
   38.5230   24.9430   36.1900 C   0  0  0  0  0  0  0  0  0  0  0  0
   37.9530   25.2250   37.4210 C   0  0  0  0  0  0  0  0  0  0  0  0
   37.4230   26.1630   37.4890 H   0  0  0  0  0  0  0  0  0  0  0  0
   38.0610   24.3590   38.4840 C   0  0  0  0  0  3  0  0  0  0  0  0
   38.7470   23.1790   38.3380 C   0  0  0  0  0  3  0  0  0  0  0  0
   39.3320   22.8550   37.1270 C   0  0  0  0  0  0  0  0  0  0  0  0
   39.8080   23.3710   34.9040 O   0  0  0  0  0  0  0  0  0  0  0  0
   40.5750   23.9450   34.5760 H   0  0  0  0  0  0  0  0  0  0  0  0
   40.0240   21.6510   37.0050 O   0  0  0  0  0  0  0  0  0  0  0  0
   39.9160   21.1320   36.1360 H   0  0  0  0  0  0  0  0  0  0  0  0
  1  6  1  1  0  0  0
  1  5  1  0  0  0  0
  1 21  1  0  0  0  0
  2  7  1  6  0  0  0
  2  1  1  0  0  0  0
  3  2  1  0  0  0  0
  3  4  1  0  0  0  0
  4  5  1  0  0  0  0
  5 11  1  0  0  0  0
  5 10  1  0  0  0  0
  8  3  1  0  0  0  0
  9  3  1  0  0  0  0
 12 13  2  0  0  0  0
 12 17  1  0  0  0  0
 13 14  1  0  0  0  0
 14 15  2  0  0  0  0
 14  2  1  0  0  0  0
 16 20  1  0  0  0  0
 16 15  1  0  0  0  0
 17 16  2  0  0  0  0
 18 12  1  0  0  0  0
 19 13  1  0  0  0  0
 21 23  1  0  0  0  0
 22 23  2  0  0  0  0
 22 28  1  0  0  0  0
 23 24  1  0  0  0  0
 24 25  1  0  0  0  0
 24 26  2  0  0  0  0
 27 26  1  0  0  0  0
 28 27  2  0  0  0  0
 29 22  1  0  0  0  0
 30 29  1  0  0  0  0
 31 28  1  0  0  0  0
 32 31  1  0  0  0  0
M  END
>  <minimizedAffinity>
-4.97412252

$$$$
