
 OpenBabel03272505553D

 36 38  0  0  1  0  0  0  0  0999 V2000
   35.2200   30.2390   49.9510 C   0  0  2  0  0  0  0  0  0  0  0  0
   36.0610   31.2540   49.2940 C   0  0  0  0  0  0  0  0  0  0  0  0
   37.5060   30.7820   49.1660 C   0  0  2  0  0  0  0  0  0  0  0  0
   38.1150   30.5750   50.5140 C   0  0  0  0  0  0  0  0  0  0  0  0
   37.1870   29.8200   51.4500 C   0  0  0  0  0  0  0  0  0  0  0  0
   36.0020   29.2340   50.7410 C   0  0  0  0  0  0  0  0  0  0  0  0
   34.5100   30.7290   50.6920 H   0  0  0  0  0  0  0  0  0  0  0  0
   35.7260   31.7560   48.4150 H   0  0  0  0  0  0  0  0  0  0  0  0
   36.1820   32.0530   50.0670 H   0  0  0  0  0  0  0  0  0  0  0  0
   37.3840   29.7330   48.7250 H   0  0  0  0  0  0  0  0  0  0  0  0
   38.4490   31.5280   50.9410 H   0  0  0  0  0  0  0  0  0  0  0  0
   39.0600   29.9820   50.3310 H   0  0  0  0  0  0  0  0  0  0  0  0
   37.7640   28.9860   51.8910 H   0  0  0  0  0  0  0  0  0  0  0  0
   36.8630   30.4600   52.3020 H   0  0  0  0  0  0  0  0  0  0  0  0
   35.3580   28.7820   51.5230 H   0  0  0  0  0  0  0  0  0  0  0  0
   36.3360   28.3660   50.1170 H   0  0  0  0  0  0  0  0  0  0  0  0
   34.3300   29.5060   49.0470 C   0  0  0  0  0  0  0  0  0  0  0  0
   34.2390   29.9990   47.7250 C   0  0  0  0  0  0  0  0  0  0  0  0
   33.3600   29.3290   46.8450 C   0  0  0  0  0  0  0  0  0  0  0  0
   32.6490   28.2430   47.3170 N   0  0  0  0  0  0  0  0  0  0  0  0
   32.7780   27.8180   48.5910 C   0  0  0  0  0  0  0  0  0  0  0  0
   33.6010   28.4370   49.4330 N   0  0  0  0  0  0  0  0  0  0  0  0
   34.7740   30.8340   47.3290 H   0  0  0  0  0  0  0  0  0  0  0  0
   33.2390   29.6460   45.8280 H   0  0  0  0  0  0  0  0  0  0  0  0
   32.1610   26.9570   48.8200 H   0  0  0  0  0  0  0  0  0  0  0  0
   38.8540   32.7830   48.3320 C   0  0  0  0  0  0  0  0  0  0  0  0
   38.3230   31.5050   48.2230 C   0  0  0  0  0  0  0  0  0  0  0  0
   38.7050   30.9400   46.9940 C   0  0  0  0  0  0  0  0  0  0  0  0
   38.3410   29.9200   46.7900 H   0  0  0  0  0  0  0  0  0  0  0  0
   39.4770   31.5000   46.0110 C   0  0  0  0  0  0  0  0  0  0  0  0
   39.9390   32.7740   46.2510 C   0  0  0  0  0  0  0  0  0  0  0  0
   39.6280   33.4280   47.4220 C   0  0  0  0  0  0  0  0  0  0  0  0
   38.5790   33.4980   49.4880 O   0  0  0  0  0  0  0  0  0  0  0  0
   37.7560   34.0850   49.4940 H   0  0  0  0  0  0  0  0  0  0  0  0
   40.1150   34.7070   47.6180 O   0  0  0  0  0  0  0  0  0  0  0  0
   39.8510   35.5230   47.0700 H   0  0  0  0  0  0  0  0  0  0  0  0
  1  7  1  1  0  0  0
  1  6  1  0  0  0  0
  2  1  1  0  0  0  0
  2  9  1  0  0  0  0
  3 10  1  6  0  0  0
  3  2  1  0  0  0  0
  3  4  1  0  0  0  0
  4 11  1  0  0  0  0
  4  5  1  0  0  0  0
  5 13  1  0  0  0  0
  5 14  1  0  0  0  0
  6  5  1  0  0  0  0
  6 15  1  0  0  0  0
  8  2  1  0  0  0  0
 12  4  1  0  0  0  0
 16  6  1  0  0  0  0
 17 22  1  0  0  0  0
 17  1  1  0  0  0  0
 18 17  2  0  0  0  0
 19 20  2  0  0  0  0
 19 18  1  0  0  0  0
 20 21  1  0  0  0  0
 21 25  1  0  0  0  0
 21 22  2  0  0  0  0
 23 18  1  0  0  0  0
 24 19  1  0  0  0  0
 26 33  1  0  0  0  0
 27 26  1  0  0  0  0
 27  3  1  0  0  0  0
 28 27  2  0  0  0  0
 29 28  1  0  0  0  0
 30 31  2  0  0  0  0
 30 28  1  0  0  0  0
 31 32  1  0  0  0  0
 32 35  1  0  0  0  0
 32 26  2  0  0  0  0
 33 34  1  0  0  0  0
 36 35  1  0  0  0  0
M  END
>  <minimizedAffinity>
-7.34669638

>  <minimizedRMSD>
0.721455693

$$$$
