
 OpenBabel03272510173D

 30 32  0  0  0  0  0  0  0  0999 V2000
   37.2710   29.5100   51.1840 Br  0  0  0  0  0  0  0  0  0  0  0  0
   36.0610   29.2960   49.7170 C   0  0  0  0  0  0  0  0  0  0  0  0
   36.1290   30.1250   48.5970 C   0  0  0  0  0  0  0  0  0  0  0  0
   35.2230   29.9060   47.5800 C   0  0  0  0  0  0  0  0  0  0  0  0
   34.2610   28.9090   47.6250 C   0  0  0  0  0  0  0  0  0  0  0  0
   34.2200   28.1100   48.7420 C   0  0  0  0  0  0  0  0  0  0  0  0
   35.1130   28.3080   49.7700 C   0  0  0  0  0  0  0  0  0  0  0  0
   35.2690   30.5480   46.7040 H   0  0  0  0  0  0  0  0  0  0  0  0
   33.4730   27.3280   48.7880 H   0  0  0  0  0  0  0  0  0  0  0  0
   35.0610   27.6600   50.6490 H   0  0  0  0  0  0  0  0  0  0  0  0
   37.9600   33.1790   49.4160 C   0  0  0  0  0  0  0  0  0  0  0  0
   38.9960   33.2010   48.4590 C   0  0  0  0  0  0  0  0  0  0  0  0
   39.0600   32.1530   47.5270 C   0  0  0  0  0  0  0  0  0  0  0  0
   38.1130   31.1660   47.5960 N   0  0  0  0  0  0  0  0  0  0  0  0
   37.1300   31.1780   48.5290 C   0  0  0  0  0  0  0  0  0  0  0  0
   37.0580   32.1760   49.4310 N   0  0  0  0  0  0  0  0  0  0  0  0
   37.9530   34.0100   50.1150 H   0  0  0  0  0  0  0  0  0  0  0  0
   39.7540   33.9450   48.3660 H   0  0  0  0  0  0  0  0  0  0  0  0
   39.7980   32.0550   46.7500 H   0  0  0  0  0  0  0  0  0  0  0  0
   31.9870   28.6440   46.6780 C   0  0  0  0  0  0  0  0  0  0  0  0
   33.3480   28.7620   46.4900 C   0  0  0  0  0  0  0  0  0  0  0  0
   33.8430   28.7390   45.2120 C   0  0  0  0  0  0  0  0  0  0  0  0
   34.8790   28.8240   44.9920 H   0  0  0  0  0  0  0  0  0  0  0  0
   32.9260   28.5950   44.1690 C   0  0  0  0  0  3  0  0  0  0  0  0
   31.5580   28.4770   44.3530 C   0  0  0  0  0  3  0  0  0  0  0  0
   31.0850   28.5030   45.6450 C   0  0  0  0  0  0  0  0  0  0  0  0
   31.5080   28.6710   47.9870 O   0  0  0  0  0  0  0  0  0  0  0  0
   30.7880   28.0450   48.3220 H   0  0  0  0  0  0  0  0  0  0  0  0
   29.7150   28.3900   45.9220 O   0  0  0  0  0  0  0  0  0  0  0  0
   29.3070   27.4580   46.0780 H   0  0  0  0  0  0  0  0  0  0  0  0
  2  7  1  0  0  0  0
  2  1  1  0  0  0  0
  3  2  2  0  0  0  0
  4  5  2  0  0  0  0
  4  3  1  0  0  0  0
  5  6  1  0  0  0  0
  6  9  1  0  0  0  0
  6  7  2  0  0  0  0
  7 10  1  0  0  0  0
  8  4  1  0  0  0  0
 11 16  1  0  0  0  0
 11 17  1  0  0  0  0
 12 11  2  0  0  0  0
 13 14  2  0  0  0  0
 13 12  1  0  0  0  0
 14 15  1  0  0  0  0
 15  3  1  0  0  0  0
 15 16  2  0  0  0  0
 18 12  1  0  0  0  0
 19 13  1  0  0  0  0
 20 27  1  0  0  0  0
 21 20  1  0  0  0  0
 21  5  1  0  0  0  0
 22 21  2  0  0  0  0
 23 22  1  0  0  0  0
 24 25  2  0  0  0  0
 24 22  1  0  0  0  0
 25 26  1  0  0  0  0
 26 29  1  0  0  0  0
 26 20  2  0  0  0  0
 27 28  1  0  0  0  0
 29 30  1  0  0  0  0
M  END
>  <minimizedAffinity>
-6.31397295

>  <minimizedRMSD>
0.454950422

$$$$
