
 OpenBabel03272505313D

 42 45  0  0  0  0  0  0  0  0999 V2000
   37.4030   31.2420   47.0510 N   0  0  0  0  0  0  0  0  0  0  0  0
   36.6840   31.0660   45.9110 C   0  0  0  0  0  0  0  0  0  0  0  0
   37.0830   31.6110   44.6940 C   0  0  0  0  0  0  0  0  0  0  0  0
   38.2650   32.3610   44.6790 C   0  0  0  0  0  0  0  0  0  0  0  0
   38.6650   32.8710   43.6100 O   0  0  0  0  0  0  0  0  0  0  0  0
   38.9870   32.5350   45.8360 N   0  0  0  0  0  0  0  0  0  0  0  0
   38.5010   31.9640   46.9310 C   0  0  0  0  0  0  0  0  0  0  0  0
   39.1910   32.1500   47.9610 O   0  0  0  0  0  0  0  0  0  0  0  0
   35.7710   30.4850   45.9280 H   0  0  0  0  0  0  0  0  0  0  0  0
   37.4760   29.5530   50.3520 C   0  0  0  0  0  0  0  0  0  0  0  0
   37.8900   30.1060   49.1350 C   0  0  0  0  0  0  0  0  0  0  0  0
   36.9940   30.6920   48.2620 C   0  0  0  0  0  0  0  0  0  0  0  0
   35.7080   30.7010   48.6410 N   0  0  0  0  0  0  0  0  0  0  0  0
   35.2640   30.1740   49.8160 C   0  0  0  0  0  0  0  0  0  0  0  0
   36.1790   29.5970   50.6670 N   0  0  0  0  0  0  0  0  0  0  0  0
   38.2390   29.1170   50.9730 H   0  0  0  0  0  0  0  0  0  0  0  0
   38.9440   30.0780   48.8640 H   0  0  0  0  0  0  0  0  0  0  0  0
   34.2060   30.2030   50.0880 H   0  0  0  0  0  0  0  0  0  0  0  0
   36.3470   31.4490   43.4500 C   0  0  0  0  0  0  0  0  0  0  0  0
   36.5640   30.4270   42.5710 C   0  0  0  0  0  0  0  0  0  0  0  0
   35.8800   30.2510   41.3860 C   0  0  0  0  0  0  0  0  0  0  0  0
   34.8890   31.1900   41.0610 C   0  0  0  0  0  0  0  0  0  0  0  0
   34.6990   32.2080   41.9750 C   0  0  0  0  0  0  0  0  0  0  0  0
   35.4030   32.3040   43.0970 N   0  0  0  0  0  0  0  0  0  0  0  0
   37.3240   29.6760   42.7820 H   0  0  0  0  0  0  0  0  0  0  0  0
   36.0930   29.4300   40.7320 H   0  0  0  0  0  0  0  0  0  0  0  0
   34.3570   31.0660   40.1520 H   0  0  0  0  0  0  0  0  0  0  0  0
   32.7260   33.5480   42.6530 C   0  0  0  0  0  0  0  0  0  0  0  0
   33.6880   33.2250   41.7130 C   0  0  0  0  0  0  0  0  0  0  0  0
   33.5750   33.9570   40.5510 C   0  0  0  0  0  0  0  0  0  0  0  0
   34.2840   33.7740   39.7580 H   0  0  0  0  0  0  0  0  0  0  0  0
   32.6010   34.9110   40.3490 C   0  0  0  0  0  3  0  0  0  0  0  0
   31.6750   35.1760   41.3370 C   0  0  0  0  0  3  0  0  0  0  0  0
   31.7250   34.4830   42.5280 C   0  0  0  0  0  0  0  0  0  0  0  0
   32.7650   32.8500   43.8750 O   0  0  0  0  0  0  0  0  0  0  0  0
   33.3140   33.3280   44.6040 H   0  0  0  0  0  0  0  0  0  0  0  0
   30.8210   34.7070   43.5580 O   0  0  0  0  0  0  0  0  0  0  0  0
   30.6520   35.6820   43.8150 H   0  0  0  0  0  0  0  0  0  0  0  0
   40.2020   33.3090   45.8070 C   0  0  0  0  0  0  0  0  0  0  0  0
   40.1630   34.2350   44.8220 F   0  0  0  0  0  0  0  0  0  0  0  0
   41.3320   32.5430   45.5810 F   0  0  0  0  0  0  0  0  0  0  0  0
   40.3250   33.9810   47.0290 F   0  0  0  0  0  0  0  0  0  0  0  0
  1 12  1  0  0  0  0
  2  9  1  0  0  0  0
  2  1  1  0  0  0  0
  3  2  2  0  0  0  0
  4  3  1  0  0  0  0
  4  6  1  0  0  0  0
  5  4  2  0  0  0  0
  6  7  1  0  0  0  0
  7  1  1  0  0  0  0
  7  8  2  0  0  0  0
 10 15  1  0  0  0  0
 10 16  1  0  0  0  0
 11 10  2  0  0  0  0
 12 13  2  0  0  0  0
 12 11  1  0  0  0  0
 13 14  1  0  0  0  0
 14 18  1  0  0  0  0
 14 15  2  0  0  0  0
 17 11  1  0  0  0  0
 19  3  1  0  0  0  0
 20 25  1  0  0  0  0
 20 19  2  0  0  0  0
 21 20  1  0  0  0  0
 22 21  2  0  0  0  0
 22 23  1  0  0  0  0
 23 24  2  0  0  0  0
 24 19  1  0  0  0  0
 26 21  1  0  0  0  0
 27 22  1  0  0  0  0
 28 35  1  0  0  0  0
 29 23  1  0  0  0  0
 29 28  2  0  0  0  0
 30 29  1  0  0  0  0
 31 30  1  0  0  0  0
 32 30  2  0  0  0  0
 32 33  1  0  0  0  0
 33 34  2  0  0  0  0
 34 28  1  0  0  0  0
 34 37  1  0  0  0  0
 35 36  1  0  0  0  0
 37 38  1  0  0  0  0
 39  6  1  0  0  0  0
 39 42  1  0  0  0  0
 40 39  1  0  0  0  0
 41 39  1  0  0  0  0
M  END
>  <minimizedAffinity>
-7.25905132

>  <minimizedRMSD>
0.799833059

$$$$
