
 OpenBabel03262523553D

 36 38  0  0  1  0  0  0  0  0999 V2000
   35.8970   29.7590   46.4590 C   0  0  1  0  0  0  0  0  0  0  0  0
   35.2910   30.6570   45.4700 C   0  0  0  0  0  0  0  0  0  0  0  0
   35.7850   30.2950   44.0970 C   0  0  0  0  0  0  0  0  0  0  0  0
   37.2340   29.9730   44.1250 C   0  0  0  0  0  0  0  0  0  0  0  0
   38.0030   30.4260   45.3070 C   0  0  0  0  0  0  0  0  0  0  0  0
   37.3560   30.0410   46.6020 C   0  0  1  0  0  0  0  0  0  0  0  0
   35.7280   28.7130   46.0300 H   0  0  0  0  0  0  0  0  0  0  0  0
   35.3060   31.7260   45.6210 H   0  0  0  0  0  0  0  0  0  0  0  0
   34.1830   30.4040   45.4410 H   0  0  0  0  0  0  0  0  0  0  0  0
   35.6070   31.2030   43.4480 H   0  0  0  0  0  0  0  0  0  0  0  0
   35.1900   29.4500   43.6790 H   0  0  0  0  0  0  0  0  0  0  0  0
   37.7060   30.2930   43.1840 H   0  0  0  0  0  0  0  0  0  0  0  0
   37.3190   28.8450   44.1060 H   0  0  0  0  0  0  0  0  0  0  0  0
   39.0280   30.0000   45.2250 H   0  0  0  0  0  0  0  0  0  0  0  0
   38.1320   31.5500   45.3160 H   0  0  0  0  0  0  0  0  0  0  0  0
   37.7870   28.9980   46.7840 H   0  0  0  0  0  0  0  0  0  0  0  0
   34.4560   28.4030   49.5800 C   0  0  0  0  0  0  0  0  0  0  0  0
   35.0900   28.4430   48.3040 C   0  0  0  0  0  0  0  0  0  0  0  0
   35.2880   29.7080   47.7680 C   0  0  0  0  0  0  0  0  0  0  0  0
   34.8730   30.8180   48.4740 N   0  0  0  0  0  0  0  0  0  0  0  0
   34.2810   30.7450   49.6680 C   0  0  0  0  0  0  0  0  0  0  0  0
   34.0670   29.5270   50.2330 N   0  0  0  0  0  0  0  0  0  0  0  0
   34.2270   27.5050   50.1410 H   0  0  0  0  0  0  0  0  0  0  0  0
   35.3050   27.4650   47.9290 H   0  0  0  0  0  0  0  0  0  0  0  0
   34.0340   31.7200   50.0520 H   0  0  0  0  0  0  0  0  0  0  0  0
   38.2370   32.1990   47.6710 C   0  0  0  0  0  0  0  0  0  0  0  0
   37.8130   30.8590   47.7310 C   0  0  0  0  0  0  0  0  0  0  0  0
   37.9110   30.4040   49.0370 C   0  0  0  0  0  0  0  0  0  0  0  0
   37.6290   29.3920   49.2890 H   0  0  0  0  0  0  0  0  0  0  0  0
   38.3540   31.1350   50.1190 C   0  0  0  0  0  0  0  0  0  0  0  0
   38.7370   32.4230   49.9330 C   0  0  0  0  0  0  0  0  0  0  0  0
   38.6800   32.9670   48.6930 C   0  0  0  0  0  0  0  0  0  0  0  0
   38.1930   32.8150   46.4020 O   0  0  0  0  0  0  0  0  0  0  0  0
   37.3270   33.2660   46.0760 H   0  0  0  0  0  0  0  0  0  0  0  0
   39.0710   34.2840   48.4940 O   0  0  0  0  0  0  0  0  0  0  0  0
   40.0340   34.5090   48.7080 H   0  0  0  0  0  0  0  0  0  0  0  0
  1  7  1  6  0  0  0
  1  6  1  0  0  0  0
  1 19  1  0  0  0  0
  2  8  1  0  0  0  0
  2  1  1  0  0  0  0
  3  4  1  0  0  0  0
  3  2  1  0  0  0  0
  4  5  1  0  0  0  0
  5 15  1  0  0  0  0
  5  6  1  0  0  0  0
  6 16  1  1  0  0  0
  6 27  1  0  0  0  0
  9  2  1  0  0  0  0
 10  3  1  0  0  0  0
 11  3  1  0  0  0  0
 12  4  1  0  0  0  0
 13  4  1  0  0  0  0
 14  5  1  0  0  0  0
 17 23  1  0  0  0  0
 17 22  1  0  0  0  0
 18 17  2  0  0  0  0
 19 18  1  0  0  0  0
 19 20  2  0  0  0  0
 20 21  1  0  0  0  0
 21 25  1  0  0  0  0
 21 22  2  0  0  0  0
 24 18  1  0  0  0  0
 26 27  2  0  0  0  0
 26 32  1  0  0  0  0
 27 28  1  0  0  0  0
 28 29  1  0  0  0  0
 28 30  2  0  0  0  0
 31 30  1  0  0  0  0
 32 31  2  0  0  0  0
 33 26  1  0  0  0  0
 34 33  1  0  0  0  0
 35 32  1  0  0  0  0
 35 36  1  0  0  0  0
M  END
>  <minimizedAffinity>
-5.08874226

>  <minimizedRMSD>
2.91282725

$$$$
