
 OpenBabel03272509153D

 49 52  0  0  1  0  0  0  0  0999 V2000
   34.9840   29.9790   46.6850 C   0  0  0  0  0  0  0  0  0  0  0  0
   36.2830   30.5380   46.7480 C   0  0  0  0  0  0  0  0  0  0  0  0
   36.9770   30.7050   45.5530 C   0  0  0  0  0  0  0  0  0  0  0  0
   36.3790   30.3270   44.3900 N   0  0  0  0  0  0  0  0  0  0  0  0
   35.1420   29.7980   44.3670 C   0  0  0  0  0  0  0  0  0  0  0  0
   34.4510   29.6260   45.4940 N   0  0  0  0  0  0  0  0  0  0  0  0
   34.3770   29.8270   47.5480 H   0  0  0  0  0  0  0  0  0  0  0  0
   34.6330   29.4850   43.4540 H   0  0  0  0  0  0  0  0  0  0  0  0
   36.7560   30.8590   48.0750 N   0  0  0  0  0  0  0  0  0  0  0  0
   37.2280   31.9830   48.8300 C   0  0  0  0  0  0  0  0  0  0  0  0
   38.5060   31.4840   49.4270 C   0  0  0  0  0  0  0  0  0  0  0  0
   38.2180   30.0010   49.6870 C   0  0  0  0  0  0  0  0  0  0  0  0
   36.8600   29.7900   49.1090 C   0  0  1  0  0  0  0  0  0  0  0  0
   37.1920   32.9670   48.4170 H   0  0  0  0  0  0  0  0  0  0  0  0
   36.5160   32.0440   49.7130 H   0  0  0  0  0  0  0  0  0  0  0  0
   38.7750   32.0150   50.3660 H   0  0  0  0  0  0  0  0  0  0  0  0
   39.3620   31.5120   48.7530 H   0  0  0  0  0  0  0  0  0  0  0  0
   39.0060   29.3390   49.3130 H   0  0  0  0  0  0  0  0  0  0  0  0
   38.1620   29.8410   50.7970 H   0  0  0  0  0  0  0  0  0  0  0  0
   36.6630   28.8130   48.6780 H   0  0  0  0  0  0  0  0  0  0  0  0
   34.8040   29.1840   50.3650 C   0  0  0  0  0  0  0  0  0  0  0  0
   34.5190   28.1530   49.6710 O   0  0  0  0  0  0  0  0  0  0  0  0
   35.8730   30.1070   50.1400 N   0  0  0  0  0  0  0  0  0  0  0  0
   34.0250   29.1040   51.1010 H   0  0  0  0  0  0  0  0  0  0  0  0
   35.6480   30.8330   50.8460 H   0  0  0  0  0  0  0  0  0  0  0  0
   38.3010   31.2640   45.5000 C   0  0  0  0  0  0  0  0  0  0  0  0
   38.5270   32.4350   46.1630 C   0  0  0  0  0  0  0  0  0  0  0  0
   39.7650   33.0470   46.2000 C   0  0  0  0  0  0  0  0  0  0  0  0
   40.8130   32.4270   45.5230 C   0  0  0  0  0  0  0  0  0  0  0  0
   40.6460   31.2440   44.8320 C   0  0  0  0  0  0  0  0  0  0  0  0
   39.3580   30.6960   44.8500 C   0  0  0  0  0  0  0  0  0  0  0  0
   37.8410   33.0720   46.6900 H   0  0  0  0  0  0  0  0  0  0  0  0
   40.0780   33.9420   46.6770 H   0  0  0  0  0  0  0  0  0  0  0  0
   41.8320   32.8110   45.4810 H   0  0  0  0  0  0  0  0  0  0  0  0
   41.4570   30.7570   44.3000 H   0  0  0  0  0  0  0  0  0  0  0  0
   39.1550   29.4330   44.1060 C   0  0  0  0  0  0  0  0  0  0  0  0
   38.0770   29.0930   44.2240 H   0  0  0  0  0  0  0  0  0  0  0  0
   39.7640   28.6270   44.5780 H   0  0  0  0  0  0  0  0  0  0  0  0
   40.4900   29.1260   41.9410 C   0  0  0  0  0  0  0  0  0  0  0  0
   39.3670   29.5060   42.6480 C   0  0  0  0  0  0  0  0  0  0  0  0
   38.3000   30.0010   41.8840 C   0  0  0  0  0  0  0  0  0  0  0  0
   37.3990   30.3110   42.3830 H   0  0  0  0  0  0  0  0  0  0  0  0
   38.3450   30.1130   40.4990 C   0  0  0  0  0  3  0  0  0  0  0  0
   39.4520   29.7390   39.7910 C   0  0  0  0  0  3  0  0  0  0  0  0
   40.5010   29.2520   40.5490 C   0  0  0  0  0  0  0  0  0  0  0  0
   41.5360   28.6390   42.6850 O   0  0  0  0  0  0  0  0  0  0  0  0
   41.9560   27.7400   42.5890 H   0  0  0  0  0  0  0  0  0  0  0  0
   41.6450   28.8620   39.8530 O   0  0  0  0  0  0  0  0  0  0  0  0
   41.6040   28.4440   38.9290 H   0  0  0  0  0  0  0  0  0  0  0  0
  1  2  1  0  0  0  0
  1  7  1  0  0  0  0
  2  9  1  0  0  0  0
  3  2  2  0  0  0  0
  4  3  1  0  0  0  0
  5  4  2  0  0  0  0
  5  6  1  0  0  0  0
  6  1  2  0  0  0  0
  8  5  1  0  0  0  0
  9 10  1  0  0  0  0
  9 13  1  0  0  0  0
 10 11  1  0  0  0  0
 10 15  1  0  0  0  0
 11 12  1  0  0  0  0
 11 16  1  0  0  0  0
 12 19  1  0  0  0  0
 13 20  1  6  0  0  0
 13 12  1  0  0  0  0
 13 23  1  0  0  0  0
 14 10  1  0  0  0  0
 17 11  1  0  0  0  0
 18 12  1  0  0  0  0
 21 24  1  0  0  0  0
 22 21  2  0  0  0  0
 23 21  1  0  0  0  0
 23 25  1  0  0  0  0
 26  3  1  0  0  0  0
 26 27  1  0  0  0  0
 27 28  2  0  0  0  0
 27 32  1  0  0  0  0
 28 33  1  0  0  0  0
 29 28  1  0  0  0  0
 30 31  1  0  0  0  0
 30 29  2  0  0  0  0
 31 26  2  0  0  0  0
 34 29  1  0  0  0  0
 35 30  1  0  0  0  0
 36 37  1  0  0  0  0
 36 38  1  0  0  0  0
 36 31  1  0  0  0  0
 39 40  1  0  0  0  0
 39 46  1  0  0  0  0
 40 36  1  0  0  0  0
 41 42  1  0  0  0  0
 41 40  2  0  0  0  0
 43 41  1  0  0  0  0
 44 43  2  0  0  0  0
 44 45  1  0  0  0  0
 45 39  2  0  0  0  0
 47 46  1  0  0  0  0
 48 45  1  0  0  0  0
 49 48  1  0  0  0  0
M  END
>  <minimizedAffinity>
-6.55803537

>  <minimizedRMSD>
0.993125916

$$$$
