
 OpenBabel03272502203D

 30 32  0  0  0  0  0  0  0  0999 V2000
   37.4210   22.6350   32.5120 C   0  0  0  0  0  0  0  0  0  0  0  0
   37.3710   23.8820   31.8590 C   0  0  0  0  0  0  0  0  0  0  0  0
   37.6870   25.0250   32.6080 C   0  0  0  0  0  0  0  0  0  0  0  0
   38.0300   24.8910   33.9300 N   0  0  0  0  0  0  0  0  0  0  0  0
   38.0590   23.6470   34.5050 C   0  0  0  0  0  0  0  0  0  0  0  0
   37.7590   22.5470   33.8020 N   0  0  0  0  0  0  0  0  0  0  0  0
   37.1060   23.9990   30.8290 H   0  0  0  0  0  0  0  0  0  0  0  0
   37.6720   26.0230   32.1780 H   0  0  0  0  0  0  0  0  0  0  0  0
   40.9110   22.4130   34.9370 Br  0  0  0  0  0  0  0  0  0  0  0  0
   39.6610   22.9610   36.2610 C   0  0  0  0  0  0  0  0  0  0  0  0
   38.4200   23.4960   35.9130 C   0  0  0  0  0  0  0  0  0  0  0  0
   37.5860   23.8570   36.9350 C   0  0  0  0  0  0  0  0  0  0  0  0
   37.8830   23.7300   38.2760 C   0  0  0  0  0  0  0  0  0  0  0  0
   39.1100   23.2010   38.5900 C   0  0  0  0  0  0  0  0  0  0  0  0
   39.9980   22.8170   37.5800 C   0  0  0  0  0  0  0  0  0  0  0  0
   36.6330   24.2680   36.6030 H   0  0  0  0  0  0  0  0  0  0  0  0
   37.1810   24.0330   39.0380 H   0  0  0  0  0  0  0  0  0  0  0  0
   39.3810   23.0850   39.6320 H   0  0  0  0  0  0  0  0  0  0  0  0
   40.9590   22.4020   37.8900 H   0  0  0  0  0  0  0  0  0  0  0  0
   35.9920   20.6720   32.1190 C   0  0  0  0  0  0  0  0  0  0  0  0
   37.1020   21.4170   31.7820 C   0  0  0  0  0  0  0  0  0  0  0  0
   37.8260   20.8970   30.7340 C   0  0  0  0  0  0  0  0  0  0  0  0
   38.7090   21.4250   30.4140 H   0  0  0  0  0  0  0  0  0  0  0  0
   37.4730   19.7350   30.0800 C   0  0  0  0  0  3  0  0  0  0  0  0
   36.3470   19.0400   30.4720 C   0  0  0  0  0  3  0  0  0  0  0  0
   35.5850   19.5170   31.5170 C   0  0  0  0  0  0  0  0  0  0  0  0
   35.1890   21.1150   33.1710 O   0  0  0  0  0  0  0  0  0  0  0  0
   34.3230   21.5670   32.9970 H   0  0  0  0  0  0  0  0  0  0  0  0
   34.4450   18.8300   31.9270 O   0  0  0  0  0  0  0  0  0  0  0  0
   33.8040   18.5850   31.1750 H   0  0  0  0  0  0  0  0  0  0  0  0
  1  6  1  0  0  0  0
  2  1  2  0  0  0  0
  2  3  1  0  0  0  0
  3  4  2  0  0  0  0
  4  5  1  0  0  0  0
  5 11  1  0  0  0  0
  6  5  2  0  0  0  0
  7  2  1  0  0  0  0
  8  3  1  0  0  0  0
  9 10  1  0  0  0  0
 10 15  1  0  0  0  0
 11 10  2  0  0  0  0
 11 12  1  0  0  0  0
 12 13  2  0  0  0  0
 13 14  1  0  0  0  0
 13 17  1  0  0  0  0
 14 18  1  0  0  0  0
 15 19  1  0  0  0  0
 15 14  2  0  0  0  0
 16 12  1  0  0  0  0
 20 27  1  0  0  0  0
 21 20  1  0  0  0  0
 21  1  1  0  0  0  0
 22 21  2  0  0  0  0
 23 22  1  0  0  0  0
 24 25  2  0  0  0  0
 24 22  1  0  0  0  0
 25 26  1  0  0  0  0
 26 29  1  0  0  0  0
 26 20  2  0  0  0  0
 28 27  1  0  0  0  0
 30 29  1  0  0  0  0
M  END
>  <minimizedAffinity>
-5.95416832

$$$$

 OpenBabel03272502203D

 30 32  0  0  0  0  0  0  0  0999 V2000
   38.0410   24.0490   34.5910 C   0  0  0  0  0  0  0  0  0  0  0  0
   38.0430   25.3510   34.0550 C   0  0  0  0  0  0  0  0  0  0  0  0
   37.7540   25.4950   32.6890 C   0  0  0  0  0  0  0  0  0  0  0  0
   37.4850   24.3810   31.9360 N   0  0  0  0  0  0  0  0  0  0  0  0
   37.5000   23.1410   32.5210 C   0  0  0  0  0  0  0  0  0  0  0  0
   37.7730   22.9880   33.8240 N   0  0  0  0  0  0  0  0  0  0  0  0
   38.2510   26.2270   34.6310 H   0  0  0  0  0  0  0  0  0  0  0  0
   37.7360   26.4650   32.1990 H   0  0  0  0  0  0  0  0  0  0  0  0
   39.9910   22.0720   30.9400 Br  0  0  0  0  0  0  0  0  0  0  0  0
   38.2280   21.3570   30.9690 C   0  0  0  0  0  0  0  0  0  0  0  0
   37.2160   21.9480   31.7260 C   0  0  0  0  0  0  0  0  0  0  0  0
   35.9800   21.3650   31.6800 C   0  0  0  0  0  0  0  0  0  0  0  0
   35.6650   20.2420   30.9430 C   0  0  0  0  0  0  0  0  0  0  0  0
   36.6800   19.6820   30.2070 C   0  0  0  0  0  0  0  0  0  0  0  0
   37.9610   20.2410   30.2220 C   0  0  0  0  0  0  0  0  0  0  0  0
   35.2300   21.8680   32.2910 H   0  0  0  0  0  0  0  0  0  0  0  0
   34.6690   19.8280   30.9470 H   0  0  0  0  0  0  0  0  0  0  0  0
   36.4730   18.7990   29.6150 H   0  0  0  0  0  0  0  0  0  0  0  0
   38.7280   19.7530   29.6170 H   0  0  0  0  0  0  0  0  0  0  0  0
   39.2970   22.9360   36.3900 C   0  0  0  0  0  0  0  0  0  0  0  0
   38.3330   23.8420   36.0020 C   0  0  0  0  0  0  0  0  0  0  0  0
   37.7190   24.4870   37.0510 C   0  0  0  0  0  0  0  0  0  0  0  0
   36.9540   25.2110   36.8260 H   0  0  0  0  0  0  0  0  0  0  0  0
   38.0400   24.2480   38.3720 C   0  0  0  0  0  3  0  0  0  0  0  0
   39.0170   23.3250   38.6860 C   0  0  0  0  0  3  0  0  0  0  0  0
   39.6640   22.6510   37.6720 C   0  0  0  0  0  0  0  0  0  0  0  0
   39.9790   22.2290   35.3990 O   0  0  0  0  0  0  0  0  0  0  0  0
   40.9040   22.4770   35.1390 H   0  0  0  0  0  0  0  0  0  0  0  0
   40.6530   21.7160   37.9700 O   0  0  0  0  0  0  0  0  0  0  0  0
   41.3670   22.0450   38.6150 H   0  0  0  0  0  0  0  0  0  0  0  0
  1 21  1  0  0  0  0
  2  1  1  0  0  0  0
  2  7  1  0  0  0  0
  3  2  2  0  0  0  0
  4  5  2  0  0  0  0
  4  3  1  0  0  0  0
  5  6  1  0  0  0  0
  6  1  2  0  0  0  0
  8  3  1  0  0  0  0
  9 10  1  0  0  0  0
 10 11  1  0  0  0  0
 11  5  1  0  0  0  0
 12 11  2  0  0  0  0
 12 16  1  0  0  0  0
 13 17  1  0  0  0  0
 13 12  1  0  0  0  0
 14 15  1  0  0  0  0
 14 13  2  0  0  0  0
 15 10  2  0  0  0  0
 18 14  1  0  0  0  0
 19 15  1  0  0  0  0
 20 26  1  0  0  0  0
 21 20  2  0  0  0  0
 21 22  1  0  0  0  0
 22 24  2  0  0  0  0
 23 22  1  0  0  0  0
 24 25  1  0  0  0  0
 26 29  1  0  0  0  0
 26 25  2  0  0  0  0
 27 20  1  0  0  0  0
 28 27  1  0  0  0  0
 29 30  1  0  0  0  0
M  END
>  <minimizedAffinity>
-5.9064846

$$$$

 OpenBabel03272502203D

 30 32  0  0  0  0  0  0  0  0999 V2000
   37.4030   25.7850   31.7710 C   0  0  0  0  0  0  0  0  0  0  0  0
   38.5760   25.7290   30.9940 C   0  0  0  0  0  0  0  0  0  0  0  0
   39.0470   24.4630   30.6130 C   0  0  0  0  0  0  0  0  0  0  0  0
   38.3600   23.3420   31.0060 N   0  0  0  0  0  0  0  0  0  0  0  0
   37.2240   23.4680   31.7640 C   0  0  0  0  0  0  0  0  0  0  0  0
   36.7630   24.6700   32.1340 N   0  0  0  0  0  0  0  0  0  0  0  0
   39.1200   26.5950   30.6810 H   0  0  0  0  0  0  0  0  0  0  0  0
   39.9440   24.3330   30.0140 H   0  0  0  0  0  0  0  0  0  0  0  0
   38.0410   22.4450   34.6160 Br  0  0  0  0  0  0  0  0  0  0  0  0
   36.7420   21.7090   33.4370 C   0  0  0  0  0  0  0  0  0  0  0  0
   36.4880   22.2790   32.1880 C   0  0  0  0  0  0  0  0  0  0  0  0
   35.5390   21.6770   31.4080 C   0  0  0  0  0  0  0  0  0  0  0  0
   34.8220   20.5550   31.7660 C   0  0  0  0  0  0  0  0  0  0  0  0
   35.0930   20.0150   32.9990 C   0  0  0  0  0  0  0  0  0  0  0  0
   36.0530   20.5950   33.8330 C   0  0  0  0  0  0  0  0  0  0  0  0
   35.3830   22.1660   30.4470 H   0  0  0  0  0  0  0  0  0  0  0  0
   34.0850   20.1250   31.1050 H   0  0  0  0  0  0  0  0  0  0  0  0
   34.5510   19.1330   33.3160 H   0  0  0  0  0  0  0  0  0  0  0  0
   36.2260   20.1210   34.8020 H   0  0  0  0  0  0  0  0  0  0  0  0
   36.3660   27.9570   31.2640 C   0  0  0  0  0  0  0  0  0  0  0  0
   36.8710   27.0720   32.1930 C   0  0  0  0  0  0  0  0  0  0  0  0
   36.8100   27.5300   33.4900 C   0  0  0  0  0  0  0  0  0  0  0  0
   37.1870   26.8920   34.2720 H   0  0  0  0  0  0  0  0  0  0  0  0
   36.2920   28.7630   33.8280 C   0  0  0  0  0  3  0  0  0  0  0  0
   35.8040   29.5980   32.8440 C   0  0  0  0  0  3  0  0  0  0  0  0
   35.8400   29.1880   31.5280 C   0  0  0  0  0  0  0  0  0  0  0  0
   36.3810   27.5870   29.9190 O   0  0  0  0  0  0  0  0  0  0  0  0
   35.5550   27.2790   29.4640 H   0  0  0  0  0  0  0  0  0  0  0  0
   35.3530   30.0170   30.5200 O   0  0  0  0  0  0  0  0  0  0  0  0
   34.4220   30.3920   30.6930 H   0  0  0  0  0  0  0  0  0  0  0  0
  1  6  1  0  0  0  0
  1 21  1  0  0  0  0
  2  1  2  0  0  0  0
  3  2  1  0  0  0  0
  3  4  2  0  0  0  0
  4  5  1  0  0  0  0
  5  6  2  0  0  0  0
  5 11  1  0  0  0  0
  7  2  1  0  0  0  0
  8  3  1  0  0  0  0
 10 15  1  0  0  0  0
 10  9  1  0  0  0  0
 11 10  2  0  0  0  0
 12 13  2  0  0  0  0
 12 11  1  0  0  0  0
 13 14  1  0  0  0  0
 14 18  1  0  0  0  0
 14 15  2  0  0  0  0
 15 19  1  0  0  0  0
 16 12  1  0  0  0  0
 17 13  1  0  0  0  0
 20 26  2  0  0  0  0
 20 21  1  0  0  0  0
 21 22  2  0  0  0  0
 22 24  1  0  0  0  0
 22 23  1  0  0  0  0
 25 24  2  0  0  0  0
 26 25  1  0  0  0  0
 27 20  1  0  0  0  0
 28 27  1  0  0  0  0
 29 30  1  0  0  0  0
 29 26  1  0  0  0  0
M  END
>  <minimizedAffinity>
-5.77745628

$$$$

 OpenBabel03272502203D

 30 32  0  0  0  0  0  0  0  0999 V2000
   36.8120   25.3970   32.6420 C   0  0  0  0  0  0  0  0  0  0  0  0
   36.0890   26.1970   31.7360 C   0  0  0  0  0  0  0  0  0  0  0  0
   35.3230   25.5450   30.7570 C   0  0  0  0  0  0  0  0  0  0  0  0
   35.3060   24.1740   30.7170 N   0  0  0  0  0  0  0  0  0  0  0  0
   36.0340   23.4550   31.6300 C   0  0  0  0  0  0  0  0  0  0  0  0
   36.7680   24.0640   32.5700 N   0  0  0  0  0  0  0  0  0  0  0  0
   36.0940   27.2660   31.7570 H   0  0  0  0  0  0  0  0  0  0  0  0
   34.7370   26.0890   30.0210 H   0  0  0  0  0  0  0  0  0  0  0  0
   38.5970   22.2190   30.3080 Br  0  0  0  0  0  0  0  0  0  0  0  0
   37.0980   21.3020   31.0350 C   0  0  0  0  0  0  0  0  0  0  0  0
   36.0230   21.9940   31.5930 C   0  0  0  0  0  0  0  0  0  0  0  0
   34.9880   21.2480   32.0870 C   0  0  0  0  0  0  0  0  0  0  0  0
   34.9330   19.8700   32.0720 C   0  0  0  0  0  0  0  0  0  0  0  0
   36.0050   19.2150   31.5170 C   0  0  0  0  0  0  0  0  0  0  0  0
   37.0860   19.9330   30.9990 C   0  0  0  0  0  0  0  0  0  0  0  0
   34.1780   21.8420   32.5110 H   0  0  0  0  0  0  0  0  0  0  0  0
   34.0870   19.3370   32.4780 H   0  0  0  0  0  0  0  0  0  0  0  0
   35.9990   18.1320   31.4860 H   0  0  0  0  0  0  0  0  0  0  0  0
   37.9090   19.3590   30.5700 H   0  0  0  0  0  0  0  0  0  0  0  0
   38.9670   25.7380   33.7770 C   0  0  0  0  0  0  0  0  0  0  0  0
   37.6220   26.0210   33.6780 C   0  0  0  0  0  0  0  0  0  0  0  0
   37.1680   26.9130   34.6230 C   0  0  0  0  0  0  0  0  0  0  0  0
   36.1260   27.1830   34.6080 H   0  0  0  0  0  0  0  0  0  0  0  0
   37.9870   27.4730   35.5820 C   0  0  0  0  0  3  0  0  0  0  0  0
   39.3260   27.1420   35.6220 C   0  0  0  0  0  3  0  0  0  0  0  0
   39.8320   26.2530   34.6980 C   0  0  0  0  0  0  0  0  0  0  0  0
   39.5260   24.8430   32.8640 O   0  0  0  0  0  0  0  0  0  0  0  0
   40.0710   25.1670   32.1000 H   0  0  0  0  0  0  0  0  0  0  0  0
   41.1810   25.9070   34.7210 O   0  0  0  0  0  0  0  0  0  0  0  0
   41.8210   26.6980   34.7600 H   0  0  0  0  0  0  0  0  0  0  0  0
  1 21  1  0  0  0  0
  2  7  1  0  0  0  0
  2  1  2  0  0  0  0
  3  2  1  0  0  0  0
  4  3  2  0  0  0  0
  4  5  1  0  0  0  0
  5  6  2  0  0  0  0
  6  1  1  0  0  0  0
  8  3  1  0  0  0  0
  9 10  1  0  0  0  0
 10 11  1  0  0  0  0
 11  5  1  0  0  0  0
 11 12  2  0  0  0  0
 12 16  1  0  0  0  0
 13 12  1  0  0  0  0
 13 17  1  0  0  0  0
 14 13  2  0  0  0  0
 15 10  2  0  0  0  0
 15 14  1  0  0  0  0
 18 14  1  0  0  0  0
 19 15  1  0  0  0  0
 20 26  1  0  0  0  0
 21 20  2  0  0  0  0
 21 22  1  0  0  0  0
 22 24  2  0  0  0  0
 23 22  1  0  0  0  0
 24 25  1  0  0  0  0
 26 29  1  0  0  0  0
 26 25  2  0  0  0  0
 27 20  1  0  0  0  0
 28 27  1  0  0  0  0
 29 30  1  0  0  0  0
M  END
>  <minimizedAffinity>
-5.70574188

$$$$

 OpenBabel03272502203D

 30 32  0  0  0  0  0  0  0  0999 V2000
   35.9850   23.4920   31.6650 C   0  0  0  0  0  0  0  0  0  0  0  0
   35.1660   24.2490   30.8050 C   0  0  0  0  0  0  0  0  0  0  0  0
   35.2380   25.6480   30.8990 C   0  0  0  0  0  0  0  0  0  0  0  0
   36.0890   26.2190   31.8110 N   0  0  0  0  0  0  0  0  0  0  0  0
   36.8590   25.4220   32.6190 C   0  0  0  0  0  0  0  0  0  0  0  0
   36.8020   24.0860   32.5390 N   0  0  0  0  0  0  0  0  0  0  0  0
   34.4990   23.8160   30.0910 H   0  0  0  0  0  0  0  0  0  0  0  0
   34.6390   26.3030   30.2730 H   0  0  0  0  0  0  0  0  0  0  0  0
   39.7430   25.9340   31.4910 Br  0  0  0  0  0  0  0  0  0  0  0  0
   39.0850   26.3090   33.2360 C   0  0  0  0  0  0  0  0  0  0  0  0
   37.7670   26.0220   33.5940 C   0  0  0  0  0  0  0  0  0  0  0  0
   37.3870   26.3240   34.8730 C   0  0  0  0  0  0  0  0  0  0  0  0
   38.2090   26.8870   35.8270 C   0  0  0  0  0  0  0  0  0  0  0  0
   39.5000   27.1590   35.4470 C   0  0  0  0  0  0  0  0  0  0  0  0
   39.9360   26.8690   34.1510 C   0  0  0  0  0  0  0  0  0  0  0  0
   36.3490   26.0780   35.0950 H   0  0  0  0  0  0  0  0  0  0  0  0
   37.8500   27.1020   36.8210 H   0  0  0  0  0  0  0  0  0  0  0  0
   40.1770   27.6020   36.1680 H   0  0  0  0  0  0  0  0  0  0  0  0
   40.9730   27.1070   33.9070 H   0  0  0  0  0  0  0  0  0  0  0  0
   36.9840   21.3370   31.0250 C   0  0  0  0  0  0  0  0  0  0  0  0
   35.9500   22.0380   31.6090 C   0  0  0  0  0  0  0  0  0  0  0  0
   34.9440   21.2390   32.1020 C   0  0  0  0  0  0  0  0  0  0  0  0
   34.1010   21.7160   32.5730 H   0  0  0  0  0  0  0  0  0  0  0  0
   34.9680   19.8620   32.0190 C   0  0  0  0  0  3  0  0  0  0  0  0
   36.0370   19.2280   31.4190 C   0  0  0  0  0  3  0  0  0  0  0  0
   37.0730   19.9810   30.9090 C   0  0  0  0  0  0  0  0  0  0  0  0
   38.0560   22.0560   30.4930 O   0  0  0  0  0  0  0  0  0  0  0  0
   38.9200   22.1190   30.9780 H   0  0  0  0  0  0  0  0  0  0  0  0
   38.1600   19.3580   30.3000 O   0  0  0  0  0  0  0  0  0  0  0  0
   38.5760   18.6040   30.8430 H   0  0  0  0  0  0  0  0  0  0  0  0
  1  6  1  0  0  0  0
  2  3  1  0  0  0  0
  2  1  2  0  0  0  0
  3  4  2  0  0  0  0
  4  5  1  0  0  0  0
  5 11  1  0  0  0  0
  6  5  2  0  0  0  0
  7  2  1  0  0  0  0
  8  3  1  0  0  0  0
  9 10  1  0  0  0  0
 10 11  2  0  0  0  0
 10 15  1  0  0  0  0
 11 12  1  0  0  0  0
 12 16  1  0  0  0  0
 12 13  2  0  0  0  0
 13 17  1  0  0  0  0
 14 13  1  0  0  0  0
 14 18  1  0  0  0  0
 15 14  2  0  0  0  0
 19 15  1  0  0  0  0
 20 21  1  0  0  0  0
 21  1  1  0  0  0  0
 21 22  2  0  0  0  0
 22 23  1  0  0  0  0
 24 22  1  0  0  0  0
 25 24  2  0  0  0  0
 26 20  2  0  0  0  0
 26 25  1  0  0  0  0
 27 28  1  0  0  0  0
 27 20  1  0  0  0  0
 29 30  1  0  0  0  0
 29 26  1  0  0  0  0
M  END
>  <minimizedAffinity>
-5.69458485

$$$$

 OpenBabel03272502203D

 30 32  0  0  0  0  0  0  0  0999 V2000
   38.5420   25.7150   33.2500 C   0  0  0  0  0  0  0  0  0  0  0  0
   39.2460   26.9300   33.1540 C   0  0  0  0  0  0  0  0  0  0  0  0
   40.3950   27.0840   33.9450 C   0  0  0  0  0  0  0  0  0  0  0  0
   40.7860   26.0600   34.7710 N   0  0  0  0  0  0  0  0  0  0  0  0
   40.0540   24.9020   34.8160 C   0  0  0  0  0  0  0  0  0  0  0  0
   38.9560   24.7410   34.0660 N   0  0  0  0  0  0  0  0  0  0  0  0
   38.9510   27.7350   32.5140 H   0  0  0  0  0  0  0  0  0  0  0  0
   40.9940   27.9900   33.9290 H   0  0  0  0  0  0  0  0  0  0  0  0
   38.0590   24.3890   37.1830 Br  0  0  0  0  0  0  0  0  0  0  0  0
   39.6730   23.4620   36.7920 C   0  0  0  0  0  0  0  0  0  0  0  0
   40.4630   23.8070   35.6950 C   0  0  0  0  0  0  0  0  0  0  0  0
   41.6080   23.0860   35.4970 C   0  0  0  0  0  0  0  0  0  0  0  0
   42.0330   22.0480   36.3000 C   0  0  0  0  0  0  0  0  0  0  0  0
   41.2370   21.7300   37.3720 C   0  0  0  0  0  0  0  0  0  0  0  0
   40.0570   22.4380   37.6160 C   0  0  0  0  0  0  0  0  0  0  0  0
   42.1820   23.4000   34.6260 H   0  0  0  0  0  0  0  0  0  0  0  0
   42.9480   21.5160   36.0910 H   0  0  0  0  0  0  0  0  0  0  0  0
   41.5380   20.9210   38.0270 H   0  0  0  0  0  0  0  0  0  0  0  0
   39.4650   22.1410   38.4840 H   0  0  0  0  0  0  0  0  0  0  0  0
   36.9800   24.2310   32.0620 C   0  0  0  0  0  0  0  0  0  0  0  0
   37.3440   25.5020   32.4510 C   0  0  0  0  0  0  0  0  0  0  0  0
   36.4840   26.4850   32.0170 C   0  0  0  0  0  0  0  0  0  0  0  0
   36.7030   27.5060   32.2820 H   0  0  0  0  0  0  0  0  0  0  0  0
   35.3610   26.2210   31.2610 C   0  0  0  0  0  3  0  0  0  0  0  0
   35.0590   24.9220   30.9080 C   0  0  0  0  0  3  0  0  0  0  0  0
   35.8870   23.8980   31.3170 C   0  0  0  0  0  0  0  0  0  0  0  0
   37.7880   23.1620   32.4530 O   0  0  0  0  0  0  0  0  0  0  0  0
   37.5200   22.5640   33.1990 H   0  0  0  0  0  0  0  0  0  0  0  0
   35.5990   22.5800   30.9710 O   0  0  0  0  0  0  0  0  0  0  0  0
   34.6430   22.2900   31.1660 H   0  0  0  0  0  0  0  0  0  0  0  0
  1  6  1  0  0  0  0
  2  1  2  0  0  0  0
  2  3  1  0  0  0  0
  3  4  2  0  0  0  0
  4  5  1  0  0  0  0
  5 11  1  0  0  0  0
  6  5  2  0  0  0  0
  7  2  1  0  0  0  0
  8  3  1  0  0  0  0
 10  9  1  0  0  0  0
 10 15  1  0  0  0  0
 11 10  2  0  0  0  0
 12 11  1  0  0  0  0
 12 13  2  0  0  0  0
 13 14  1  0  0  0  0
 14 15  2  0  0  0  0
 14 18  1  0  0  0  0
 15 19  1  0  0  0  0
 16 12  1  0  0  0  0
 17 13  1  0  0  0  0
 20 21  1  0  0  0  0
 20 27  1  0  0  0  0
 21  1  1  0  0  0  0
 22 23  1  0  0  0  0
 22 21  2  0  0  0  0
 24 22  1  0  0  0  0
 25 24  2  0  0  0  0
 25 26  1  0  0  0  0
 26 20  2  0  0  0  0
 27 28  1  0  0  0  0
 29 30  1  0  0  0  0
 29 26  1  0  0  0  0
M  END
>  <minimizedAffinity>
-5.68446016

$$$$

 OpenBabel03272502203D

 30 32  0  0  0  0  0  0  0  0999 V2000
   37.7790   24.6740   33.2150 C   0  0  0  0  0  0  0  0  0  0  0  0
   38.9330   24.5660   34.0150 C   0  0  0  0  0  0  0  0  0  0  0  0
   39.3720   23.2780   34.3570 C   0  0  0  0  0  0  0  0  0  0  0  0
   38.6740   22.1860   33.9080 N   0  0  0  0  0  0  0  0  0  0  0  0
   37.5580   22.3620   33.1320 C   0  0  0  0  0  0  0  0  0  0  0  0
   37.1270   23.5850   32.7970 N   0  0  0  0  0  0  0  0  0  0  0  0
   39.4850   25.4090   34.3710 H   0  0  0  0  0  0  0  0  0  0  0  0
   40.2530   23.1090   34.9710 H   0  0  0  0  0  0  0  0  0  0  0  0
   35.8400   20.9720   35.3610 Br  0  0  0  0  0  0  0  0  0  0  0  0
   35.9950   20.4840   33.5290 C   0  0  0  0  0  0  0  0  0  0  0  0
   36.8060   21.2030   32.6510 C   0  0  0  0  0  0  0  0  0  0  0  0
   36.8570   20.7740   31.3530 C   0  0  0  0  0  0  0  0  0  0  0  0
   36.1690   19.6870   30.8560 C   0  0  0  0  0  0  0  0  0  0  0  0
   35.3800   18.9970   31.7420 C   0  0  0  0  0  0  0  0  0  0  0  0
   35.2940   19.3980   33.0780 C   0  0  0  0  0  0  0  0  0  0  0  0
   37.5050   21.3740   30.7140 H   0  0  0  0  0  0  0  0  0  0  0  0
   36.2510   19.3970   29.8200 H   0  0  0  0  0  0  0  0  0  0  0  0
   34.8230   18.1370   31.3900 H   0  0  0  0  0  0  0  0  0  0  0  0
   34.6500   18.8110   33.7370 H   0  0  0  0  0  0  0  0  0  0  0  0
   37.0600   26.2870   31.5020 C   0  0  0  0  0  0  0  0  0  0  0  0
   37.2800   25.9850   32.8300 C   0  0  0  0  0  0  0  0  0  0  0  0
   36.9850   27.0170   33.6920 C   0  0  0  0  0  0  0  0  0  0  0  0
   37.1320   26.8560   34.7470 H   0  0  0  0  0  0  0  0  0  0  0  0
   36.5130   28.2410   33.2650 C   0  0  0  0  0  3  0  0  0  0  0  0
   36.3180   28.4720   31.9190 C   0  0  0  0  0  3  0  0  0  0  0  0
   36.5970   27.4720   31.0120 C   0  0  0  0  0  0  0  0  0  0  0  0
   37.3290   25.3060   30.5460 O   0  0  0  0  0  0  0  0  0  0  0  0
   36.5940   24.7890   30.1240 H   0  0  0  0  0  0  0  0  0  0  0  0
   36.4060   27.6860   29.6490 O   0  0  0  0  0  0  0  0  0  0  0  0
   35.4950   28.0690   29.4040 H   0  0  0  0  0  0  0  0  0  0  0  0
  1  2  1  0  0  0  0
  2  3  2  0  0  0  0
  2  7  1  0  0  0  0
  3  8  1  0  0  0  0
  4  3  1  0  0  0  0
  5  4  2  0  0  0  0
  6  5  1  0  0  0  0
  6  1  2  0  0  0  0
 10  9  1  0  0  0  0
 11  5  1  0  0  0  0
 11 10  2  0  0  0  0
 12 11  1  0  0  0  0
 13 12  2  0  0  0  0
 13 14  1  0  0  0  0
 14 15  2  0  0  0  0
 15 10  1  0  0  0  0
 15 19  1  0  0  0  0
 16 12  1  0  0  0  0
 17 13  1  0  0  0  0
 18 14  1  0  0  0  0
 20 21  1  0  0  0  0
 21  1  1  0  0  0  0
 21 22  2  0  0  0  0
 22 23  1  0  0  0  0
 24 22  1  0  0  0  0
 25 24  2  0  0  0  0
 26 20  2  0  0  0  0
 26 25  1  0  0  0  0
 27 20  1  0  0  0  0
 28 27  1  0  0  0  0
 29 26  1  0  0  0  0
 30 29  1  0  0  0  0
M  END
>  <minimizedAffinity>
-5.66407013

$$$$

 OpenBabel03272502203D

 30 32  0  0  0  0  0  0  0  0999 V2000
   36.0240   28.0490   31.8900 C   0  0  0  0  0  0  0  0  0  0  0  0
   36.3650   28.8140   30.7590 C   0  0  0  0  0  0  0  0  0  0  0  0
   36.2290   30.2080   30.8480 C   0  0  0  0  0  0  0  0  0  0  0  0
   35.7760   30.7680   32.0170 N   0  0  0  0  0  0  0  0  0  0  0  0
   35.4610   29.9630   33.0810 C   0  0  0  0  0  0  0  0  0  0  0  0
   35.5860   28.6320   33.0110 N   0  0  0  0  0  0  0  0  0  0  0  0
   36.7190   28.3900   29.8430 H   0  0  0  0  0  0  0  0  0  0  0  0
   36.4700   30.8690   30.0200 H   0  0  0  0  0  0  0  0  0  0  0  0
   32.3550   29.7180   33.4520 Br  0  0  0  0  0  0  0  0  0  0  0  0
   33.6140   30.5160   34.6330 C   0  0  0  0  0  0  0  0  0  0  0  0
   34.9760   30.5510   34.3290 C   0  0  0  0  0  0  0  0  0  0  0  0
   35.8040   31.1500   35.2370 C   0  0  0  0  0  0  0  0  0  0  0  0
   35.3910   31.7190   36.4240 C   0  0  0  0  0  0  0  0  0  0  0  0
   34.0470   31.6710   36.6980 C   0  0  0  0  0  0  0  0  0  0  0  0
   33.1600   31.0690   35.8000 C   0  0  0  0  0  0  0  0  0  0  0  0
   36.8550   31.1460   34.9470 H   0  0  0  0  0  0  0  0  0  0  0  0
   36.0950   32.1780   37.1010 H   0  0  0  0  0  0  0  0  0  0  0  0
   33.6830   32.1070   37.6200 H   0  0  0  0  0  0  0  0  0  0  0  0
   32.1020   31.0610   36.0710 H   0  0  0  0  0  0  0  0  0  0  0  0
   37.0780   25.9560   32.6390 C   0  0  0  0  0  0  0  0  0  0  0  0
   36.1460   26.5990   31.8520 C   0  0  0  0  0  0  0  0  0  0  0  0
   35.3930   25.7500   31.0750 C   0  0  0  0  0  0  0  0  0  0  0  0
   34.6430   26.1800   30.4320 H   0  0  0  0  0  0  0  0  0  0  0  0
   35.5550   24.3800   31.0820 C   0  0  0  0  0  3  0  0  0  0  0  0
   36.5100   23.8050   31.8960 C   0  0  0  0  0  3  0  0  0  0  0  0
   37.2920   24.6100   32.6960 C   0  0  0  0  0  0  0  0  0  0  0  0
   37.8940   26.7290   33.4670 O   0  0  0  0  0  0  0  0  0  0  0  0
   37.7210   26.7910   34.4420 H   0  0  0  0  0  0  0  0  0  0  0  0
   38.2610   24.0480   33.5250 O   0  0  0  0  0  0  0  0  0  0  0  0
   37.9290   23.2800   34.1050 H   0  0  0  0  0  0  0  0  0  0  0  0
  1  6  1  0  0  0  0
  2  3  1  0  0  0  0
  2  1  2  0  0  0  0
  3  4  2  0  0  0  0
  4  5  1  0  0  0  0
  5 11  1  0  0  0  0
  6  5  2  0  0  0  0
  7  2  1  0  0  0  0
  8  3  1  0  0  0  0
  9 10  1  0  0  0  0
 10 15  1  0  0  0  0
 11 10  2  0  0  0  0
 11 12  1  0  0  0  0
 12 13  2  0  0  0  0
 13 14  1  0  0  0  0
 13 17  1  0  0  0  0
 14 18  1  0  0  0  0
 15 19  1  0  0  0  0
 15 14  2  0  0  0  0
 16 12  1  0  0  0  0
 20 26  1  0  0  0  0
 20 27  1  0  0  0  0
 21  1  1  0  0  0  0
 21 20  2  0  0  0  0
 22 24  2  0  0  0  0
 22 21  1  0  0  0  0
 23 22  1  0  0  0  0
 24 25  1  0  0  0  0
 25 26  2  0  0  0  0
 26 29  1  0  0  0  0
 27 28  1  0  0  0  0
 29 30  1  0  0  0  0
M  END
>  <minimizedAffinity>
-5.65716362

$$$$

 OpenBabel03272502203D

 30 32  0  0  0  0  0  0  0  0999 V2000
   38.2920   23.0520   34.1480 C   0  0  0  0  0  0  0  0  0  0  0  0
   37.5160   22.0340   33.5620 C   0  0  0  0  0  0  0  0  0  0  0  0
   36.6740   22.3850   32.4960 C   0  0  0  0  0  0  0  0  0  0  0  0
   36.6380   23.6880   32.0670 N   0  0  0  0  0  0  0  0  0  0  0  0
   37.4200   24.6310   32.6820 C   0  0  0  0  0  0  0  0  0  0  0  0
   38.2290   24.3100   33.7000 N   0  0  0  0  0  0  0  0  0  0  0  0
   37.5350   21.0160   33.8880 H   0  0  0  0  0  0  0  0  0  0  0  0
   36.0430   21.6590   31.9910 H   0  0  0  0  0  0  0  0  0  0  0  0
   39.2470   25.1850   30.1910 Br  0  0  0  0  0  0  0  0  0  0  0  0
   38.1480   26.4190   31.1330 C   0  0  0  0  0  0  0  0  0  0  0  0
   37.3860   26.0220   32.2330 C   0  0  0  0  0  0  0  0  0  0  0  0
   36.6300   26.9810   32.8480 C   0  0  0  0  0  0  0  0  0  0  0  0
   36.5690   28.3040   32.4620 C   0  0  0  0  0  0  0  0  0  0  0  0
   37.3290   28.6660   31.3770 C   0  0  0  0  0  0  0  0  0  0  0  0
   38.1170   27.7220   30.7140 C   0  0  0  0  0  0  0  0  0  0  0  0
   36.0570   26.6130   33.6990 H   0  0  0  0  0  0  0  0  0  0  0  0
   35.9520   29.0150   32.9890 H   0  0  0  0  0  0  0  0  0  0  0  0
   37.3080   29.6960   31.0430 H   0  0  0  0  0  0  0  0  0  0  0  0
   38.7010   28.0680   29.8590 H   0  0  0  0  0  0  0  0  0  0  0  0
   38.7730   22.9440   36.5580 C   0  0  0  0  0  0  0  0  0  0  0  0
   39.1820   22.7430   35.2570 C   0  0  0  0  0  0  0  0  0  0  0  0
   40.4600   22.2440   35.1450 C   0  0  0  0  0  0  0  0  0  0  0  0
   40.8500   22.0610   34.1580 H   0  0  0  0  0  0  0  0  0  0  0  0
   41.2580   21.9700   36.2370 C   0  0  0  0  0  3  0  0  0  0  0  0
   40.7810   22.1970   37.5110 C   0  0  0  0  0  3  0  0  0  0  0  0
   39.5070   22.6960   37.6800 C   0  0  0  0  0  0  0  0  0  0  0  0
   37.4910   23.4490   36.7790 O   0  0  0  0  0  0  0  0  0  0  0  0
   36.7520   22.8550   37.0730 H   0  0  0  0  0  0  0  0  0  0  0  0
   39.0080   22.9320   38.9590 O   0  0  0  0  0  0  0  0  0  0  0  0
   39.1140   22.1520   39.6060 H   0  0  0  0  0  0  0  0  0  0  0  0
  1 21  1  0  0  0  0
  2  7  1  0  0  0  0
  2  1  2  0  0  0  0
  3  2  1  0  0  0  0
  4  3  2  0  0  0  0
  4  5  1  0  0  0  0
  5  6  2  0  0  0  0
  6  1  1  0  0  0  0
  8  3  1  0  0  0  0
  9 10  1  0  0  0  0
 10 11  1  0  0  0  0
 11  5  1  0  0  0  0
 11 12  2  0  0  0  0
 12 16  1  0  0  0  0
 13 12  1  0  0  0  0
 13 17  1  0  0  0  0
 14 13  2  0  0  0  0
 15 10  2  0  0  0  0
 15 14  1  0  0  0  0
 18 14  1  0  0  0  0
 19 15  1  0  0  0  0
 20 27  1  0  0  0  0
 20 26  1  0  0  0  0
 21 20  2  0  0  0  0
 22 21  1  0  0  0  0
 22 24  2  0  0  0  0
 23 22  1  0  0  0  0
 24 25  1  0  0  0  0
 25 26  2  0  0  0  0
 26 29  1  0  0  0  0
 27 28  1  0  0  0  0
 29 30  1  0  0  0  0
M  END
>  <minimizedAffinity>
-5.61775589

$$$$
