
 OpenBabel03272510183D

 30 32  0  0  0  0  0  0  0  0999 V2000
   38.1600   27.4420   30.9510 Br  0  0  0  0  0  0  0  0  0  0  0  0
   37.0310   28.2980   32.2360 C   0  0  0  0  0  0  0  0  0  0  0  0
   37.0110   27.8870   33.5700 C   0  0  0  0  0  0  0  0  0  0  0  0
   36.1720   28.5560   34.4350 C   0  0  0  0  0  0  0  0  0  0  0  0
   35.3580   29.6070   34.0420 C   0  0  0  0  0  0  0  0  0  0  0  0
   35.4000   29.9880   32.7220 C   0  0  0  0  0  0  0  0  0  0  0  0
   36.2290   29.3360   31.8380 C   0  0  0  0  0  0  0  0  0  0  0  0
   36.1510   28.2420   35.4760 H   0  0  0  0  0  0  0  0  0  0  0  0
   34.7700   30.8070   32.4020 H   0  0  0  0  0  0  0  0  0  0  0  0
   36.2460   29.6560   30.7930 H   0  0  0  0  0  0  0  0  0  0  0  0
   39.9000   26.1010   34.9170 C   0  0  0  0  0  0  0  0  0  0  0  0
   39.5050   24.7490   34.8490 C   0  0  0  0  0  0  0  0  0  0  0  0
   38.2320   24.4560   34.3330 C   0  0  0  0  0  0  0  0  0  0  0  0
   37.4430   25.4970   33.9240 N   0  0  0  0  0  0  0  0  0  0  0  0
   37.8560   26.7860   34.0050 C   0  0  0  0  0  0  0  0  0  0  0  0
   39.0740   27.0820   34.4980 N   0  0  0  0  0  0  0  0  0  0  0  0
   40.8920   26.2770   35.3230 H   0  0  0  0  0  0  0  0  0  0  0  0
   40.0820   23.9060   35.1530 H   0  0  0  0  0  0  0  0  0  0  0  0
   37.8160   23.4690   34.2280 H   0  0  0  0  0  0  0  0  0  0  0  0
   35.0070   31.1910   35.9120 C   0  0  0  0  0  0  0  0  0  0  0  0
   34.5050   30.2500   35.0430 C   0  0  0  0  0  0  0  0  0  0  0  0
   33.1780   29.9130   35.1260 C   0  0  0  0  0  0  0  0  0  0  0  0
   32.7210   29.1950   34.4900 H   0  0  0  0  0  0  0  0  0  0  0  0
   32.4110   30.5560   36.0990 C   0  0  0  0  0  3  0  0  0  0  0  0
   32.9110   31.5050   36.9750 C   0  0  0  0  0  3  0  0  0  0  0  0
   34.2460   31.8260   36.8720 C   0  0  0  0  0  0  0  0  0  0  0  0
   36.3590   31.5170   35.8080 O   0  0  0  0  0  0  0  0  0  0  0  0
   36.9590   31.6380   36.6120 H   0  0  0  0  0  0  0  0  0  0  0  0
   34.8350   32.7750   37.7200 O   0  0  0  0  0  0  0  0  0  0  0  0
   35.2560   32.4690   38.6070 H   0  0  0  0  0  0  0  0  0  0  0  0
  1  2  1  0  0  0  0
  2  3  1  0  0  0  0
  3 15  1  0  0  0  0
  3  4  2  0  0  0  0
  4  8  1  0  0  0  0
  5  4  1  0  0  0  0
  5 21  1  0  0  0  0
  6  5  2  0  0  0  0
  7  2  2  0  0  0  0
  7  6  1  0  0  0  0
  9  6  1  0  0  0  0
 10  7  1  0  0  0  0
 11 17  1  0  0  0  0
 12 11  1  0  0  0  0
 12 18  1  0  0  0  0
 13 12  2  0  0  0  0
 14 15  2  0  0  0  0
 14 13  1  0  0  0  0
 15 16  1  0  0  0  0
 16 11  2  0  0  0  0
 19 13  1  0  0  0  0
 20 26  1  0  0  0  0
 21 22  1  0  0  0  0
 21 20  2  0  0  0  0
 22 24  2  0  0  0  0
 23 22  1  0  0  0  0
 24 25  1  0  0  0  0
 26 25  2  0  0  0  0
 26 29  1  0  0  0  0
 27 20  1  0  0  0  0
 27 28  1  0  0  0  0
 29 30  1  0  0  0  0
M  END
>  <minimizedAffinity>
-5.86749125

$$$$

 OpenBabel03272510183D

 30 32  0  0  0  0  0  0  0  0999 V2000
   37.4580   28.7250   29.7290 Br  0  0  0  0  0  0  0  0  0  0  0  0
   36.4730   29.3020   31.2640 C   0  0  0  0  0  0  0  0  0  0  0  0
   35.9800   28.3850   32.1940 C   0  0  0  0  0  0  0  0  0  0  0  0
   35.2820   28.8800   33.2750 C   0  0  0  0  0  0  0  0  0  0  0  0
   35.0530   30.2320   33.4750 C   0  0  0  0  0  0  0  0  0  0  0  0
   35.5510   31.1090   32.5410 C   0  0  0  0  0  0  0  0  0  0  0  0
   36.2510   30.6400   31.4530 C   0  0  0  0  0  0  0  0  0  0  0  0
   34.8950   28.1720   34.0040 H   0  0  0  0  0  0  0  0  0  0  0  0
   35.3790   32.1670   32.6860 H   0  0  0  0  0  0  0  0  0  0  0  0
   36.6370   31.3570   30.7230 H   0  0  0  0  0  0  0  0  0  0  0  0
   35.5030   24.9580   31.0190 C   0  0  0  0  0  0  0  0  0  0  0  0
   36.5830   24.2630   31.6010 C   0  0  0  0  0  0  0  0  0  0  0  0
   37.4810   24.9860   32.4030 C   0  0  0  0  0  0  0  0  0  0  0  0
   37.2590   26.3260   32.5780 N   0  0  0  0  0  0  0  0  0  0  0  0
   36.2080   26.9610   32.0040 C   0  0  0  0  0  0  0  0  0  0  0  0
   35.3400   26.2800   31.2310 N   0  0  0  0  0  0  0  0  0  0  0  0
   34.8370   24.3560   30.4070 H   0  0  0  0  0  0  0  0  0  0  0  0
   36.7980   23.2250   31.4940 H   0  0  0  0  0  0  0  0  0  0  0  0
   38.3410   24.5740   32.9010 H   0  0  0  0  0  0  0  0  0  0  0  0
   34.9050   31.3450   35.6820 C   0  0  0  0  0  0  0  0  0  0  0  0
   34.3000   30.6510   34.6580 C   0  0  0  0  0  0  0  0  0  0  0  0
   32.9650   30.3510   34.7600 C   0  0  0  0  0  0  0  0  0  0  0  0
   32.4330   29.8180   34.0110 H   0  0  0  0  0  0  0  0  0  0  0  0
   32.2970   30.7740   35.9100 C   0  0  0  0  0  3  0  0  0  0  0  0
   32.9000   31.4730   36.9420 C   0  0  0  0  0  3  0  0  0  0  0  0
   34.2410   31.7620   36.8170 C   0  0  0  0  0  0  0  0  0  0  0  0
   36.2620   31.6380   35.5550 O   0  0  0  0  0  0  0  0  0  0  0  0
   36.9180   31.5470   36.3190 H   0  0  0  0  0  0  0  0  0  0  0  0
   34.9310   32.4650   37.8150 O   0  0  0  0  0  0  0  0  0  0  0  0
   35.3920   31.9440   38.5730 H   0  0  0  0  0  0  0  0  0  0  0  0
  1  2  1  0  0  0  0
  2  7  2  0  0  0  0
  2  3  1  0  0  0  0
  3  4  2  0  0  0  0
  4  5  1  0  0  0  0
  4  8  1  0  0  0  0
  5 21  1  0  0  0  0
  6  9  1  0  0  0  0
  6  5  2  0  0  0  0
  7  6  1  0  0  0  0
 10  7  1  0  0  0  0
 11 16  2  0  0  0  0
 11 12  1  0  0  0  0
 12 13  2  0  0  0  0
 13 14  1  0  0  0  0
 13 19  1  0  0  0  0
 15  3  1  0  0  0  0
 15 14  2  0  0  0  0
 16 15  1  0  0  0  0
 17 11  1  0  0  0  0
 18 12  1  0  0  0  0
 20 26  1  0  0  0  0
 21 22  1  0  0  0  0
 21 20  2  0  0  0  0
 22 24  2  0  0  0  0
 23 22  1  0  0  0  0
 24 25  1  0  0  0  0
 26 25  2  0  0  0  0
 26 29  1  0  0  0  0
 27 20  1  0  0  0  0
 27 28  1  0  0  0  0
 29 30  1  0  0  0  0
M  END
>  <minimizedAffinity>
-5.82009554

$$$$

 OpenBabel03272510183D

 30 32  0  0  0  0  0  0  0  0999 V2000
   38.6570   26.3780   34.8940 Br  0  0  0  0  0  0  0  0  0  0  0  0
   38.1790   24.7910   33.9380 C   0  0  0  0  0  0  0  0  0  0  0  0
   38.1490   23.5470   34.5700 C   0  0  0  0  0  0  0  0  0  0  0  0
   37.7920   22.4510   33.8140 C   0  0  0  0  0  0  0  0  0  0  0  0
   37.4670   22.5320   32.4690 C   0  0  0  0  0  0  0  0  0  0  0  0
   37.5060   23.7720   31.8750 C   0  0  0  0  0  0  0  0  0  0  0  0
   37.8600   24.8810   32.6090 C   0  0  0  0  0  0  0  0  0  0  0  0
   37.7660   21.4790   34.2990 H   0  0  0  0  0  0  0  0  0  0  0  0
   37.2540   23.8480   30.8260 H   0  0  0  0  0  0  0  0  0  0  0  0
   37.8840   25.8560   32.1150 H   0  0  0  0  0  0  0  0  0  0  0  0
   37.8240   23.7450   38.2050 C   0  0  0  0  0  0  0  0  0  0  0  0
   39.0630   23.2570   38.6670 C   0  0  0  0  0  0  0  0  0  0  0  0
   40.0160   22.8580   37.7150 C   0  0  0  0  0  0  0  0  0  0  0  0
   39.6900   22.9650   36.3890 N   0  0  0  0  0  0  0  0  0  0  0  0
   38.4880   23.4390   35.9810 C   0  0  0  0  0  0  0  0  0  0  0  0
   37.5640   23.8240   36.8830 N   0  0  0  0  0  0  0  0  0  0  0  0
   37.1210   24.0400   38.9780 H   0  0  0  0  0  0  0  0  0  0  0  0
   39.3620   23.1550   39.6850 H   0  0  0  0  0  0  0  0  0  0  0  0
   40.9940   22.4710   37.9380 H   0  0  0  0  0  0  0  0  0  0  0  0
   35.9650   20.6010   32.0860 C   0  0  0  0  0  0  0  0  0  0  0  0
   37.1010   21.3060   31.7580 C   0  0  0  0  0  0  0  0  0  0  0  0
   37.9000   20.8400   30.7450 C   0  0  0  0  0  0  0  0  0  0  0  0
   38.7910   21.3300   30.4380 H   0  0  0  0  0  0  0  0  0  0  0  0
   37.5040   19.6660   30.1010 C   0  0  0  0  0  3  0  0  0  0  0  0
   36.3610   18.9540   30.4270 C   0  0  0  0  0  3  0  0  0  0  0  0
   35.5760   19.4410   31.4480 C   0  0  0  0  0  0  0  0  0  0  0  0
   35.1690   21.0950   33.1190 O   0  0  0  0  0  0  0  0  0  0  0  0
   34.7600   20.5030   33.8290 H   0  0  0  0  0  0  0  0  0  0  0  0
   34.4020   18.7830   31.8420 O   0  0  0  0  0  0  0  0  0  0  0  0
   34.4480   18.0690   32.5830 H   0  0  0  0  0  0  0  0  0  0  0  0
  2  3  1  0  0  0  0
  2  1  1  0  0  0  0
  3 15  1  0  0  0  0
  4  8  1  0  0  0  0
  4  3  2  0  0  0  0
  5  4  1  0  0  0  0
  6  5  2  0  0  0  0
  6  7  1  0  0  0  0
  7  2  2  0  0  0  0
  9  6  1  0  0  0  0
 10  7  1  0  0  0  0
 11 12  1  0  0  0  0
 11 17  1  0  0  0  0
 12 18  1  0  0  0  0
 13 19  1  0  0  0  0
 13 12  2  0  0  0  0
 14 13  1  0  0  0  0
 15 14  2  0  0  0  0
 15 16  1  0  0  0  0
 16 11  2  0  0  0  0
 20 27  1  0  0  0  0
 21 20  1  0  0  0  0
 21  5  1  0  0  0  0
 22 21  2  0  0  0  0
 23 22  1  0  0  0  0
 24 25  2  0  0  0  0
 24 22  1  0  0  0  0
 25 26  1  0  0  0  0
 26 29  1  0  0  0  0
 26 20  2  0  0  0  0
 27 28  1  0  0  0  0
 29 30  1  0  0  0  0
M  END
>  <minimizedAffinity>
-5.81073046

$$$$

 OpenBabel03272510183D

 30 32  0  0  0  0  0  0  0  0999 V2000
   37.3420   28.6470   29.5410 Br  0  0  0  0  0  0  0  0  0  0  0  0
   36.5740   29.3400   31.1500 C   0  0  0  0  0  0  0  0  0  0  0  0
   36.1240   28.4900   32.1610 C   0  0  0  0  0  0  0  0  0  0  0  0
   35.5850   29.0660   33.2920 C   0  0  0  0  0  0  0  0  0  0  0  0
   35.4730   30.4370   33.4640 C   0  0  0  0  0  0  0  0  0  0  0  0
   35.9250   31.2480   32.4500 C   0  0  0  0  0  0  0  0  0  0  0  0
   36.4670   30.6960   31.3110 C   0  0  0  0  0  0  0  0  0  0  0  0
   35.2320   28.4110   34.0850 H   0  0  0  0  0  0  0  0  0  0  0  0
   35.8440   32.3190   32.5730 H   0  0  0  0  0  0  0  0  0  0  0  0
   36.8190   31.3610   30.5180 H   0  0  0  0  0  0  0  0  0  0  0  0
   37.4030   25.0830   32.4990 C   0  0  0  0  0  0  0  0  0  0  0  0
   36.4900   24.3190   31.7430 C   0  0  0  0  0  0  0  0  0  0  0  0
   35.4280   24.9880   31.1130 C   0  0  0  0  0  0  0  0  0  0  0  0
   35.3350   26.3450   31.2670 N   0  0  0  0  0  0  0  0  0  0  0  0
   36.2310   27.0480   32.0020 C   0  0  0  0  0  0  0  0  0  0  0  0
   37.2550   26.4200   32.6120 N   0  0  0  0  0  0  0  0  0  0  0  0
   38.2060   24.5220   32.9670 H   0  0  0  0  0  0  0  0  0  0  0  0
   36.5210   23.2640   31.5940 H   0  0  0  0  0  0  0  0  0  0  0  0
   34.6690   24.5210   30.5100 H   0  0  0  0  0  0  0  0  0  0  0  0
   33.5270   30.8920   34.9280 C   0  0  0  0  0  0  0  0  0  0  0  0
   34.8850   30.9450   34.7050 C   0  0  0  0  0  0  0  0  0  0  0  0
   35.6930   31.4900   35.6700 C   0  0  0  0  0  0  0  0  0  0  0  0
   36.7480   31.5660   35.5670 H   0  0  0  0  0  0  0  0  0  0  0  0
   35.0800   31.9600   36.8330 C   0  0  0  0  0  3  0  0  0  0  0  0
   33.7150   31.9070   37.0620 C   0  0  0  0  0  3  0  0  0  0  0  0
   32.9250   31.3560   36.0780 C   0  0  0  0  0  0  0  0  0  0  0  0
   32.7270   30.3330   33.9320 O   0  0  0  0  0  0  0  0  0  0  0  0
   31.8430   30.7330   33.6480 H   0  0  0  0  0  0  0  0  0  0  0  0
   31.5330   31.2630   36.2270 O   0  0  0  0  0  0  0  0  0  0  0  0
   30.9370   32.0340   35.8970 H   0  0  0  0  0  0  0  0  0  0  0  0
  1  2  1  0  0  0  0
  2  7  2  0  0  0  0
  2  3  1  0  0  0  0
  3  4  2  0  0  0  0
  4  5  1  0  0  0  0
  4  8  1  0  0  0  0
  5 21  1  0  0  0  0
  6  9  1  0  0  0  0
  6  5  2  0  0  0  0
  7  6  1  0  0  0  0
 10  7  1  0  0  0  0
 11 16  1  0  0  0  0
 11 17  1  0  0  0  0
 12 11  2  0  0  0  0
 13 14  2  0  0  0  0
 13 12  1  0  0  0  0
 14 15  1  0  0  0  0
 15  3  1  0  0  0  0
 15 16  2  0  0  0  0
 18 12  1  0  0  0  0
 19 13  1  0  0  0  0
 20 26  1  0  0  0  0
 21 20  2  0  0  0  0
 21 22  1  0  0  0  0
 22 24  2  0  0  0  0
 23 22  1  0  0  0  0
 24 25  1  0  0  0  0
 26 29  1  0  0  0  0
 26 25  2  0  0  0  0
 27 20  1  0  0  0  0
 28 27  1  0  0  0  0
 30 29  1  0  0  0  0
M  END
>  <minimizedAffinity>
-5.71042061

$$$$

 OpenBabel03272510183D

 30 32  0  0  0  0  0  0  0  0999 V2000
   36.9480   28.3980   31.8490 Br  0  0  0  0  0  0  0  0  0  0  0  0
   37.7300   27.1380   33.0570 C   0  0  0  0  0  0  0  0  0  0  0  0
   38.8660   26.4080   32.7060 C   0  0  0  0  0  0  0  0  0  0  0  0
   39.3720   25.5210   33.6320 C   0  0  0  0  0  0  0  0  0  0  0  0
   38.8050   25.3270   34.8820 C   0  0  0  0  0  0  0  0  0  0  0  0
   37.6860   26.0610   35.1980 C   0  0  0  0  0  0  0  0  0  0  0  0
   37.1630   26.9520   34.2900 C   0  0  0  0  0  0  0  0  0  0  0  0
   40.2570   24.9490   33.3670 H   0  0  0  0  0  0  0  0  0  0  0  0
   37.2360   25.9180   36.1720 H   0  0  0  0  0  0  0  0  0  0  0  0
   36.2720   27.5250   34.5640 H   0  0  0  0  0  0  0  0  0  0  0  0
   39.6270   25.9050   29.1670 C   0  0  0  0  0  0  0  0  0  0  0  0
   40.5910   26.8980   28.8990 C   0  0  0  0  0  0  0  0  0  0  0  0
   40.9800   27.7460   29.9500 C   0  0  0  0  0  0  0  0  0  0  0  0
   40.4010   27.5620   31.1770 N   0  0  0  0  0  0  0  0  0  0  0  0
   39.4770   26.5960   31.3990 C   0  0  0  0  0  0  0  0  0  0  0  0
   39.0950   25.7760   30.4000 N   0  0  0  0  0  0  0  0  0  0  0  0
   39.3590   25.2750   28.3240 H   0  0  0  0  0  0  0  0  0  0  0  0
   41.0680   27.0800   27.9640 H   0  0  0  0  0  0  0  0  0  0  0  0
   41.7030   28.5380   29.8750 H   0  0  0  0  0  0  0  0  0  0  0  0
   38.7510   23.8910   36.9000 C   0  0  0  0  0  0  0  0  0  0  0  0
   39.4220   24.3600   35.7920 C   0  0  0  0  0  0  0  0  0  0  0  0
   40.6940   23.9080   35.5490 C   0  0  0  0  0  0  0  0  0  0  0  0
   41.2720   24.2270   34.7160 H   0  0  0  0  0  0  0  0  0  0  0  0
   41.2330   22.9880   36.4490 C   0  0  0  0  0  3  0  0  0  0  0  0
   40.5620   22.5120   37.5630 C   0  0  0  0  0  3  0  0  0  0  0  0
   39.2870   22.9810   37.7870 C   0  0  0  0  0  0  0  0  0  0  0  0
   37.4600   24.3650   37.1260 O   0  0  0  0  0  0  0  0  0  0  0  0
   37.1240   24.6290   38.0420 H   0  0  0  0  0  0  0  0  0  0  0  0
   38.5360   22.5520   38.8910 O   0  0  0  0  0  0  0  0  0  0  0  0
   38.5920   23.0760   39.7750 H   0  0  0  0  0  0  0  0  0  0  0  0
  1  2  1  0  0  0  0
  2  7  1  0  0  0  0
  3  2  2  0  0  0  0
  3  4  1  0  0  0  0
  4  5  2  0  0  0  0
  5  6  1  0  0  0  0
  5 21  1  0  0  0  0
  6  9  1  0  0  0  0
  7 10  1  0  0  0  0
  7  6  2  0  0  0  0
  8  4  1  0  0  0  0
 11 16  1  0  0  0  0
 12 11  2  0  0  0  0
 12 13  1  0  0  0  0
 13 14  2  0  0  0  0
 14 15  1  0  0  0  0
 15  3  1  0  0  0  0
 16 15  2  0  0  0  0
 17 11  1  0  0  0  0
 18 12  1  0  0  0  0
 19 13  1  0  0  0  0
 20 27  1  0  0  0  0
 20 26  1  0  0  0  0
 21 20  2  0  0  0  0
 22 21  1  0  0  0  0
 22 24  2  0  0  0  0
 23 22  1  0  0  0  0
 24 25  1  0  0  0  0
 25 26  2  0  0  0  0
 26 29  1  0  0  0  0
 27 28  1  0  0  0  0
 29 30  1  0  0  0  0
M  END
>  <minimizedAffinity>
-5.57171202

$$$$

 OpenBabel03272510183D

 30 32  0  0  0  0  0  0  0  0999 V2000
   36.0530   27.6090   32.1550 Br  0  0  0  0  0  0  0  0  0  0  0  0
   36.2110   25.7220   31.8850 C   0  0  0  0  0  0  0  0  0  0  0  0
   37.1790   24.9730   32.5570 C   0  0  0  0  0  0  0  0  0  0  0  0
   37.2270   23.6170   32.3110 C   0  0  0  0  0  0  0  0  0  0  0  0
   36.3660   22.9750   31.4350 C   0  0  0  0  0  0  0  0  0  0  0  0
   35.4240   23.7400   30.7890 C   0  0  0  0  0  0  0  0  0  0  0  0
   35.3560   25.0960   31.0180 C   0  0  0  0  0  0  0  0  0  0  0  0
   37.9780   23.0270   32.8300 H   0  0  0  0  0  0  0  0  0  0  0  0
   34.7460   23.2500   30.1030 H   0  0  0  0  0  0  0  0  0  0  0  0
   34.5990   25.6830   30.4920 H   0  0  0  0  0  0  0  0  0  0  0  0
   38.5640   26.2580   35.6850 C   0  0  0  0  0  0  0  0  0  0  0  0
   39.7820   26.8450   35.2820 C   0  0  0  0  0  0  0  0  0  0  0  0
   40.1230   26.7960   33.9200 C   0  0  0  0  0  0  0  0  0  0  0  0
   39.2560   26.1800   33.0580 N   0  0  0  0  0  0  0  0  0  0  0  0
   38.0940   25.6260   33.4810 C   0  0  0  0  0  0  0  0  0  0  0  0
   37.7540   25.6660   34.7840 N   0  0  0  0  0  0  0  0  0  0  0  0
   38.3450   26.3220   36.7470 H   0  0  0  0  0  0  0  0  0  0  0  0
   40.4870   27.3340   35.9140 H   0  0  0  0  0  0  0  0  0  0  0  0
   41.0190   27.2060   33.4880 H   0  0  0  0  0  0  0  0  0  0  0  0
   35.5570   20.6530   31.7300 C   0  0  0  0  0  0  0  0  0  0  0  0
   36.5020   21.5300   31.2460 C   0  0  0  0  0  0  0  0  0  0  0  0
   37.5890   21.0280   30.5770 C   0  0  0  0  0  0  0  0  0  0  0  0
   38.3580   21.6440   30.1780 H   0  0  0  0  0  0  0  0  0  0  0  0
   37.6690   19.6430   30.4270 C   0  0  0  0  0  3  0  0  0  0  0  0
   36.7210   18.7570   30.9100 C   0  0  0  0  0  3  0  0  0  0  0  0
   35.6390   19.2840   31.5790 C   0  0  0  0  0  0  0  0  0  0  0  0
   34.4610   21.1870   32.4060 O   0  0  0  0  0  0  0  0  0  0  0  0
   34.0890   20.7840   33.2550 H   0  0  0  0  0  0  0  0  0  0  0  0
   34.6320   18.4600   32.1020 O   0  0  0  0  0  0  0  0  0  0  0  0
   34.7150   18.1110   33.0670 H   0  0  0  0  0  0  0  0  0  0  0  0
  2  1  1  0  0  0  0
  2  3  1  0  0  0  0
  3 15  1  0  0  0  0
  4  3  2  0  0  0  0
  4  8  1  0  0  0  0
  5  4  1  0  0  0  0
  6  7  1  0  0  0  0
  6  5  2  0  0  0  0
  7  2  2  0  0  0  0
  9  6  1  0  0  0  0
 10  7  1  0  0  0  0
 11 17  1  0  0  0  0
 12 11  1  0  0  0  0
 12 18  1  0  0  0  0
 13 12  2  0  0  0  0
 14 15  2  0  0  0  0
 14 13  1  0  0  0  0
 15 16  1  0  0  0  0
 16 11  2  0  0  0  0
 19 13  1  0  0  0  0
 20 27  1  0  0  0  0
 21  5  1  0  0  0  0
 21 20  2  0  0  0  0
 22 21  1  0  0  0  0
 23 22  1  0  0  0  0
 24 22  2  0  0  0  0
 24 25  1  0  0  0  0
 25 26  2  0  0  0  0
 26 20  1  0  0  0  0
 26 29  1  0  0  0  0
 27 28  1  0  0  0  0
 29 30  1  0  0  0  0
M  END
>  <minimizedAffinity>
-5.54897785

$$$$

 OpenBabel03272510183D

 30 32  0  0  0  0  0  0  0  0999 V2000
   36.2190   27.9270   31.8440 Br  0  0  0  0  0  0  0  0  0  0  0  0
   36.1590   26.0160   31.7820 C   0  0  0  0  0  0  0  0  0  0  0  0
   36.9290   25.2390   32.6490 C   0  0  0  0  0  0  0  0  0  0  0  0
   36.8280   23.8680   32.5440 C   0  0  0  0  0  0  0  0  0  0  0  0
   36.0050   23.2370   31.6250 C   0  0  0  0  0  0  0  0  0  0  0  0
   35.2590   24.0300   30.7850 C   0  0  0  0  0  0  0  0  0  0  0  0
   35.3430   25.4010   30.8700 C   0  0  0  0  0  0  0  0  0  0  0  0
   37.4240   23.2560   33.2160 H   0  0  0  0  0  0  0  0  0  0  0  0
   34.6120   23.5490   30.0630 H   0  0  0  0  0  0  0  0  0  0  0  0
   34.7400   26.0100   30.1910 H   0  0  0  0  0  0  0  0  0  0  0  0
   39.9280   26.7190   34.1220 C   0  0  0  0  0  0  0  0  0  0  0  0
   39.5030   27.0940   35.4130 C   0  0  0  0  0  0  0  0  0  0  0  0
   38.1710   26.8320   35.7750 C   0  0  0  0  0  0  0  0  0  0  0  0
   37.3570   26.2270   34.8550 N   0  0  0  0  0  0  0  0  0  0  0  0
   37.8010   25.8800   33.6220 C   0  0  0  0  0  0  0  0  0  0  0  0
   39.0750   26.1260   33.2610 N   0  0  0  0  0  0  0  0  0  0  0  0
   40.9650   26.9420   33.8900 H   0  0  0  0  0  0  0  0  0  0  0  0
   40.0970   27.5650   36.1620 H   0  0  0  0  0  0  0  0  0  0  0  0
   37.7270   27.0680   36.7260 H   0  0  0  0  0  0  0  0  0  0  0  0
   36.9490   21.0480   30.9540 C   0  0  0  0  0  0  0  0  0  0  0  0
   35.9720   21.7740   31.5970 C   0  0  0  0  0  0  0  0  0  0  0  0
   34.9500   21.1020   32.2190 C   0  0  0  0  0  0  0  0  0  0  0  0
   34.1610   21.5950   32.7330 H   0  0  0  0  0  0  0  0  0  0  0  0
   34.9680   19.7070   32.1610 C   0  0  0  0  0  3  0  0  0  0  0  0
   35.9500   18.9730   31.5160 C   0  0  0  0  0  3  0  0  0  0  0  0
   36.9640   19.6700   30.8990 C   0  0  0  0  0  0  0  0  0  0  0  0
   37.9770   21.7540   30.3300 O   0  0  0  0  0  0  0  0  0  0  0  0
   38.3360   21.5100   29.4170 H   0  0  0  0  0  0  0  0  0  0  0  0
   37.9980   19.0060   30.2230 O   0  0  0  0  0  0  0  0  0  0  0  0
   37.8960   18.8010   29.2200 H   0  0  0  0  0  0  0  0  0  0  0  0
  2  1  1  0  0  0  0
  2  3  1  0  0  0  0
  3 15  1  0  0  0  0
  4  3  2  0  0  0  0
  4  8  1  0  0  0  0
  5  4  1  0  0  0  0
  6  7  1  0  0  0  0
  6  5  2  0  0  0  0
  7  2  2  0  0  0  0
  9  6  1  0  0  0  0
 10  7  1  0  0  0  0
 11 12  1  0  0  0  0
 12 13  2  0  0  0  0
 12 18  1  0  0  0  0
 13 19  1  0  0  0  0
 14 13  1  0  0  0  0
 15 14  2  0  0  0  0
 16 15  1  0  0  0  0
 16 11  2  0  0  0  0
 17 11  1  0  0  0  0
 20 21  1  0  0  0  0
 21  5  1  0  0  0  0
 21 22  2  0  0  0  0
 22 23  1  0  0  0  0
 24 22  1  0  0  0  0
 25 24  2  0  0  0  0
 26 20  2  0  0  0  0
 26 25  1  0  0  0  0
 27 20  1  0  0  0  0
 28 27  1  0  0  0  0
 29 26  1  0  0  0  0
 30 29  1  0  0  0  0
M  END
>  <minimizedAffinity>
-5.53299952

$$$$

 OpenBabel03272510183D

 30 32  0  0  0  0  0  0  0  0999 V2000
   36.2820   21.7620   31.8960 Br  0  0  0  0  0  0  0  0  0  0  0  0
   36.2460   23.6740   31.8400 C   0  0  0  0  0  0  0  0  0  0  0  0
   37.2130   24.4350   32.5000 C   0  0  0  0  0  0  0  0  0  0  0  0
   37.1200   25.8080   32.4100 C   0  0  0  0  0  0  0  0  0  0  0  0
   36.1200   26.4550   31.7010 C   0  0  0  0  0  0  0  0  0  0  0  0
   35.1830   25.6770   31.0630 C   0  0  0  0  0  0  0  0  0  0  0  0
   35.2540   24.3050   31.1380 C   0  0  0  0  0  0  0  0  0  0  0  0
   37.8690   26.4080   32.9210 H   0  0  0  0  0  0  0  0  0  0  0  0
   34.3980   26.1710   30.5060 H   0  0  0  0  0  0  0  0  0  0  0  0
   34.4970   23.7080   30.6220 H   0  0  0  0  0  0  0  0  0  0  0  0
   40.4430   22.9040   33.2580 C   0  0  0  0  0  0  0  0  0  0  0  0
   40.3160   22.5350   34.6130 C   0  0  0  0  0  0  0  0  0  0  0  0
   39.1050   22.8180   35.2660 C   0  0  0  0  0  0  0  0  0  0  0  0
   38.1130   23.4370   34.5530 N   0  0  0  0  0  0  0  0  0  0  0  0
   38.2710   23.7770   33.2500 C   0  0  0  0  0  0  0  0  0  0  0  0
   39.4270   23.5120   32.6110 N   0  0  0  0  0  0  0  0  0  0  0  0
   41.3970   22.6650   32.7970 H   0  0  0  0  0  0  0  0  0  0  0  0
   41.0560   22.0540   35.2090 H   0  0  0  0  0  0  0  0  0  0  0  0
   38.8840   22.5880   36.2940 H   0  0  0  0  0  0  0  0  0  0  0  0
   36.4120   28.6100   30.5160 C   0  0  0  0  0  0  0  0  0  0  0  0
   36.1140   27.9190   31.6690 C   0  0  0  0  0  0  0  0  0  0  0  0
   35.8100   28.6250   32.8050 C   0  0  0  0  0  0  0  0  0  0  0  0
   35.5720   28.1600   33.7300 H   0  0  0  0  0  0  0  0  0  0  0  0
   35.8200   30.0180   32.7180 C   0  0  0  0  0  3  0  0  0  0  0  0
   36.1170   30.7180   31.5600 C   0  0  0  0  0  3  0  0  0  0  0  0
   36.4200   29.9870   30.4330 C   0  0  0  0  0  0  0  0  0  0  0  0
   36.7170   27.8690   29.3750 O   0  0  0  0  0  0  0  0  0  0  0  0
   37.4720   28.1130   28.7480 H   0  0  0  0  0  0  0  0  0  0  0  0
   36.7330   30.6150   29.2190 O   0  0  0  0  0  0  0  0  0  0  0  0
   37.7140   30.8410   29.0060 H   0  0  0  0  0  0  0  0  0  0  0  0
  2  1  1  0  0  0  0
  2  3  1  0  0  0  0
  3 15  1  0  0  0  0
  4  3  2  0  0  0  0
  4  8  1  0  0  0  0
  5  4  1  0  0  0  0
  6  7  1  0  0  0  0
  6  5  2  0  0  0  0
  7  2  2  0  0  0  0
  9  6  1  0  0  0  0
 10  7  1  0  0  0  0
 11 12  1  0  0  0  0
 12 18  1  0  0  0  0
 12 13  2  0  0  0  0
 13 19  1  0  0  0  0
 14 13  1  0  0  0  0
 15 14  2  0  0  0  0
 16 15  1  0  0  0  0
 16 11  2  0  0  0  0
 17 11  1  0  0  0  0
 20 21  1  0  0  0  0
 21  5  1  0  0  0  0
 21 22  2  0  0  0  0
 22 23  1  0  0  0  0
 24 22  1  0  0  0  0
 25 24  2  0  0  0  0
 26 20  2  0  0  0  0
 26 25  1  0  0  0  0
 27 20  1  0  0  0  0
 28 27  1  0  0  0  0
 29 26  1  0  0  0  0
 30 29  1  0  0  0  0
M  END
>  <minimizedAffinity>
-5.4856801

$$$$

 OpenBabel03272510183D

 30 32  0  0  0  0  0  0  0  0999 V2000
   35.1450   25.1850   30.7820 Br  0  0  0  0  0  0  0  0  0  0  0  0
   36.4180   24.6770   32.1170 C   0  0  0  0  0  0  0  0  0  0  0  0
   37.0800   25.6350   32.8860 C   0  0  0  0  0  0  0  0  0  0  0  0
   37.9820   25.1900   33.8300 C   0  0  0  0  0  0  0  0  0  0  0  0
   38.2530   23.8480   34.0440 C   0  0  0  0  0  0  0  0  0  0  0  0
   37.5840   22.9290   33.2700 C   0  0  0  0  0  0  0  0  0  0  0  0
   36.6800   23.3490   32.3220 C   0  0  0  0  0  0  0  0  0  0  0  0
   38.5020   25.9300   34.4330 H   0  0  0  0  0  0  0  0  0  0  0  0
   37.7870   21.8780   33.4280 H   0  0  0  0  0  0  0  0  0  0  0  0
   36.1600   22.5990   31.7180 H   0  0  0  0  0  0  0  0  0  0  0  0
   35.8840   29.0320   33.5110 C   0  0  0  0  0  0  0  0  0  0  0  0
   36.2720   29.7300   32.3490 C   0  0  0  0  0  0  0  0  0  0  0  0
   36.9510   29.0200   31.3440 C   0  0  0  0  0  0  0  0  0  0  0  0
   37.2000   27.6890   31.5470 N   0  0  0  0  0  0  0  0  0  0  0  0
   36.8110   27.0500   32.6780 C   0  0  0  0  0  0  0  0  0  0  0  0
   36.1600   27.7180   33.6490 N   0  0  0  0  0  0  0  0  0  0  0  0
   35.3630   29.6230   34.2580 H   0  0  0  0  0  0  0  0  0  0  0  0
   36.1020   30.7620   32.1450 H   0  0  0  0  0  0  0  0  0  0  0  0
   37.2980   29.4360   30.4150 H   0  0  0  0  0  0  0  0  0  0  0  0
   38.8390   23.2270   36.3690 C   0  0  0  0  0  0  0  0  0  0  0  0
   39.2280   23.4820   35.0730 C   0  0  0  0  0  0  0  0  0  0  0  0
   40.5580   23.3910   34.7520 C   0  0  0  0  0  0  0  0  0  0  0  0
   40.9320   23.5750   33.7740 H   0  0  0  0  0  0  0  0  0  0  0  0
   41.4440   23.0400   35.7710 C   0  0  0  0  0  3  0  0  0  0  0  0
   41.0580   22.7810   37.0760 C   0  0  0  0  0  3  0  0  0  0  0  0
   39.7170   22.8790   37.3740 C   0  0  0  0  0  0  0  0  0  0  0  0
   37.4810   23.3250   36.6700 O   0  0  0  0  0  0  0  0  0  0  0  0
   37.1360   23.7630   37.5140 H   0  0  0  0  0  0  0  0  0  0  0  0
   39.2380   22.6340   38.6700 O   0  0  0  0  0  0  0  0  0  0  0  0
   39.1670   23.4140   39.3370 H   0  0  0  0  0  0  0  0  0  0  0  0
  1  2  1  0  0  0  0
  2  7  2  0  0  0  0
  2  3  1  0  0  0  0
  3  4  2  0  0  0  0
  4  5  1  0  0  0  0
  4  8  1  0  0  0  0
  5 21  1  0  0  0  0
  6  9  1  0  0  0  0
  6  5  2  0  0  0  0
  7  6  1  0  0  0  0
 10  7  1  0  0  0  0
 11 16  1  0  0  0  0
 11 17  1  0  0  0  0
 12 11  2  0  0  0  0
 13 14  2  0  0  0  0
 13 12  1  0  0  0  0
 14 15  1  0  0  0  0
 15  3  1  0  0  0  0
 15 16  2  0  0  0  0
 18 12  1  0  0  0  0
 19 13  1  0  0  0  0
 20 27  1  0  0  0  0
 20 26  1  0  0  0  0
 21 20  2  0  0  0  0
 22 21  1  0  0  0  0
 22 24  2  0  0  0  0
 23 22  1  0  0  0  0
 24 25  1  0  0  0  0
 25 26  2  0  0  0  0
 26 29  1  0  0  0  0
 27 28  1  0  0  0  0
 29 30  1  0  0  0  0
M  END
>  <minimizedAffinity>
-5.48552179

$$$$
