
 OpenBabel03272506473D

 44 47  0  0  1  0  0  0  0  0999 V2000
   31.9050   28.3260   47.5210 C   0  0  2  0  0  0  0  0  0  0  0  0
   33.1690   28.1650   48.3140 C   0  0  1  0  0  0  0  0  0  0  0  0
   33.5460   26.8590   48.2450 O   0  0  0  0  0  0  0  0  0  0  0  0
   32.7990   26.2100   47.2670 C   0  0  0  0  0  0  0  0  0  0  0  0
   32.1920   27.2840   46.3980 C   0  0  1  0  0  0  0  0  0  0  0  0
   30.9900   28.0260   48.0200 H   0  0  0  0  0  0  0  0  0  0  0  0
   33.0630   28.5510   49.3560 H   0  0  0  0  0  0  0  0  0  0  0  0
   32.0820   25.5910   47.8140 H   0  0  0  0  0  0  0  0  0  0  0  0
   33.4330   25.5110   46.6690 H   0  0  0  0  0  0  0  0  0  0  0  0
   32.9290   27.7150   45.7270 H   0  0  0  0  0  0  0  0  0  0  0  0
   31.8410   29.6130   46.9480 O   0  0  0  0  0  0  0  0  0  0  0  0
   32.0160   30.2380   47.6930 H   0  0  0  0  0  0  0  0  0  0  0  0
   34.4710   29.1680   47.4920 S   0  0  0  0  0  0  0  0  0  0  0  0
   36.9340   29.2550   50.5960 C   0  0  0  0  0  0  0  0  0  0  0  0
   37.3680   30.5770   50.6780 C   0  0  0  0  0  0  0  0  0  0  0  0
   36.8840   31.4800   49.7380 C   0  0  0  0  0  0  0  0  0  0  0  0
   36.0110   31.0330   48.7850 N   0  0  0  0  0  0  0  0  0  0  0  0
   35.6160   29.7400   48.7470 C   0  0  0  0  0  0  0  0  0  0  0  0
   36.0700   28.8360   49.6460 N   0  0  0  0  0  0  0  0  0  0  0  0
   37.2990   28.5390   51.3190 H   0  0  0  0  0  0  0  0  0  0  0  0
   38.0610   30.8840   51.4490 H   0  0  0  0  0  0  0  0  0  0  0  0
   37.1980   32.5090   49.7700 H   0  0  0  0  0  0  0  0  0  0  0  0
   31.0270   26.8110   45.8460 O   0  0  0  0  0  0  0  0  0  0  0  0
   29.8100   28.8220   44.0730 Cl  0  0  0  0  0  0  0  0  0  0  0  0
   29.1260   28.0630   45.4920 C   0  0  0  0  0  0  0  0  0  0  0  0
   29.7930   27.1220   46.2400 C   0  0  0  0  0  0  0  0  0  0  0  0
   29.1310   26.5690   47.3370 C   0  0  0  0  0  0  0  0  0  0  0  0
   27.8520   26.9590   47.6590 C   0  0  0  0  0  0  0  0  0  0  0  0
   27.1730   27.9050   46.9140 C   0  0  0  0  0  0  0  0  0  0  0  0
   27.8170   28.4600   45.8230 C   0  0  0  0  0  0  0  0  0  0  0  0
   29.5510   25.8230   47.9860 H   0  0  0  0  0  0  0  0  0  0  0  0
   27.2740   26.5800   48.4900 H   0  0  0  0  0  0  0  0  0  0  0  0
   26.1590   28.2320   47.1480 H   0  0  0  0  0  0  0  0  0  0  0  0
   26.3270   28.8590   44.0470 C   0  0  0  0  0  0  0  0  0  0  0  0
   27.1210   29.4640   45.0200 C   0  0  0  0  0  0  0  0  0  0  0  0
   27.1610   30.8360   45.1150 C   0  0  0  0  0  0  0  0  0  0  0  0
   27.8080   31.1880   45.9040 H   0  0  0  0  0  0  0  0  0  0  0  0
   26.4100   31.5940   44.2370 C   0  0  0  0  0  3  0  0  0  0  0  0
   25.6200   31.0210   43.2700 C   0  0  0  0  0  3  0  0  0  0  0  0
   25.5750   29.6280   43.1700 C   0  0  0  0  0  0  0  0  0  0  0  0
   26.1810   27.4970   43.8280 O   0  0  0  0  0  0  0  0  0  0  0  0
   26.8650   26.8860   43.4430 H   0  0  0  0  0  0  0  0  0  0  0  0
   24.7590   29.1110   42.1740 O   0  0  0  0  0  0  0  0  0  0  0  0
   25.0190   28.1810   41.8130 H   0  0  0  0  0  0  0  0  0  0  0  0
  1  6  1  1  0  0  0
  1  2  1  0  0  0  0
  2  7  1  1  0  0  0
  3  2  1  0  0  0  0
  4  8  1  0  0  0  0
  4  3  1  0  0  0  0
  5 10  1  6  0  0  0
  5  4  1  0  0  0  0
  5  1  1  0  0  0  0
  9  4  1  0  0  0  0
 11  1  1  0  0  0  0
 11 12  1  0  0  0  0
 13  2  1  0  0  0  0
 13 18  1  0  0  0  0
 14 15  1  0  0  0  0
 14 20  1  0  0  0  0
 15 21  1  0  0  0  0
 16 22  1  0  0  0  0
 16 15  2  0  0  0  0
 17 16  1  0  0  0  0
 18 17  2  0  0  0  0
 18 19  1  0  0  0  0
 19 14  2  0  0  0  0
 23 26  1  0  0  0  0
 23  5  1  0  0  0  0
 24 25  1  0  0  0  0
 25 30  2  0  0  0  0
 25 26  1  0  0  0  0
 26 27  2  0  0  0  0
 27 28  1  0  0  0  0
 27 31  1  0  0  0  0
 28 32  1  0  0  0  0
 29 33  1  0  0  0  0
 29 28  2  0  0  0  0
 30 29  1  0  0  0  0
 34 35  1  0  0  0  0
 35 36  2  0  0  0  0
 35 30  1  0  0  0  0
 36 37  1  0  0  0  0
 38 36  1  0  0  0  0
 39 38  2  0  0  0  0
 40 39  1  0  0  0  0
 40 34  2  0  0  0  0
 41 34  1  0  0  0  0
 42 41  1  0  0  0  0
 43 40  1  0  0  0  0
 44 43  1  0  0  0  0
M  END
>  <minimizedAffinity>
-5.64976835

>  <minimizedRMSD>
0.407447726

$$$$
