
 OpenBabel03272508063D

 37 40  0  0  0  0  0  0  0  0999 V2000
   38.8110   31.0930   45.6500 C   0  0  0  0  0  0  0  0  0  0  0  0
   39.8480   32.0050   45.7900 C   0  0  0  0  0  0  0  0  0  0  0  0
   40.6870   31.9500   44.6850 C   0  0  0  0  0  0  0  0  0  0  0  0
   40.1150   30.9960   43.9150 N   0  0  0  0  0  0  0  0  0  0  0  0
   39.0210   30.4910   44.4700 N   0  0  0  0  0  0  0  0  0  0  0  0
   40.0150   32.6790   46.6230 H   0  0  0  0  0  0  0  0  0  0  0  0
   41.5700   32.4860   44.4340 H   0  0  0  0  0  0  0  0  0  0  0  0
   37.7420   30.8680   46.6010 C   0  0  0  0  0  0  0  0  0  0  0  0
   37.9890   31.1100   47.9800 C   0  0  0  0  0  0  0  0  0  0  0  0
   36.9360   30.8830   48.8660 C   0  0  0  0  0  0  0  0  0  0  0  0
   35.7470   30.4480   48.3680 N   0  0  0  0  0  0  0  0  0  0  0  0
   35.5410   30.2250   47.0500 C   0  0  0  0  0  0  0  0  0  0  0  0
   36.5480   30.4400   46.1780 N   0  0  0  0  0  0  0  0  0  0  0  0
   38.9290   31.4510   48.3500 H   0  0  0  0  0  0  0  0  0  0  0  0
   34.5730   29.8800   46.7160 H   0  0  0  0  0  0  0  0  0  0  0  0
   37.1740   31.1310   50.3180 C   0  0  0  0  0  0  0  0  0  0  0  0
   36.6620   32.3850   50.5630 F   0  0  0  0  0  0  0  0  0  0  0  0
   36.5060   30.2190   51.1200 F   0  0  0  0  0  0  0  0  0  0  0  0
   38.5220   31.1430   50.6270 F   0  0  0  0  0  0  0  0  0  0  0  0
   40.5560   30.4980   42.6070 C   0  0  0  0  0  0  0  0  0  0  0  0
   40.2180   31.1600   41.4190 C   0  0  0  0  0  0  0  0  0  0  0  0
   40.6460   30.6720   40.2310 C   0  0  0  0  0  0  0  0  0  0  0  0
   41.4310   29.4920   40.2250 C   0  0  0  0  0  0  0  0  0  0  0  0
   41.5480   29.0820   42.0280 S   0  0  0  0  0  0  0  0  0  0  0  0
   39.6130   32.0720   41.3980 H   0  0  0  0  0  0  0  0  0  0  0  0
   40.4930   31.0320   39.2340 H   0  0  0  0  0  0  0  0  0  0  0  0
   41.4930   27.4660   38.9430 C   0  0  0  0  0  0  0  0  0  0  0  0
   42.0530   28.6850   39.2450 C   0  0  0  0  0  0  0  0  0  0  0  0
   43.1910   29.2010   38.6710 C   0  0  0  0  0  0  0  0  0  0  0  0
   43.5930   30.1560   38.9360 H   0  0  0  0  0  0  0  0  0  0  0  0
   43.8430   28.4370   37.6950 C   0  0  0  0  0  3  0  0  0  0  0  0
   43.3100   27.1880   37.3520 C   0  0  0  0  0  3  0  0  0  0  0  0
   42.1480   26.7060   37.9670 C   0  0  0  0  0  0  0  0  0  0  0  0
   40.3450   26.9480   39.5260 O   0  0  0  0  0  0  0  0  0  0  0  0
   39.4090   27.1800   39.2440 H   0  0  0  0  0  0  0  0  0  0  0  0
   41.6110   25.4690   37.6350 O   0  0  0  0  0  0  0  0  0  0  0  0
   41.1950   25.3700   36.7120 H   0  0  0  0  0  0  0  0  0  0  0  0
  1  2  1  0  0  0  0
  1  8  1  0  0  0  0
  2  6  1  0  0  0  0
  3  2  2  0  0  0  0
  4  5  1  0  0  0  0
  4  3  1  0  0  0  0
  5  1  2  0  0  0  0
  7  3  1  0  0  0  0
  8  9  1  0  0  0  0
  9 14  1  0  0  0  0
  9 10  2  0  0  0  0
 10 16  1  0  0  0  0
 11 10  1  0  0  0  0
 12 11  2  0  0  0  0
 13  8  2  0  0  0  0
 13 12  1  0  0  0  0
 15 12  1  0  0  0  0
 16 17  1  0  0  0  0
 16 19  1  0  0  0  0
 16 18  1  0  0  0  0
 20  4  1  0  0  0  0
 21 20  2  0  0  0  0
 22 21  1  0  0  0  0
 23 22  2  0  0  0  0
 23 24  1  0  0  0  0
 24 20  1  0  0  0  0
 25 21  1  0  0  0  0
 26 22  1  0  0  0  0
 27 28  1  0  0  0  0
 27 34  1  0  0  0  0
 28 23  1  0  0  0  0
 29 30  1  0  0  0  0
 29 28  2  0  0  0  0
 31 29  1  0  0  0  0
 32 31  2  0  0  0  0
 32 33  1  0  0  0  0
 33 27  2  0  0  0  0
 35 34  1  0  0  0  0
 36 33  1  0  0  0  0
 37 36  1  0  0  0  0
M  END
>  <minimizedAffinity>
-6.48807383

>  <minimizedRMSD>
1.287238

$$$$
