
 OpenBabel03272508283D

 40 43  0  0  1  0  0  0  0  0999 V2000
   33.5630   28.9480   47.1820 C   0  0  2  0  0  0  0  0  0  0  0  0
   34.3580   28.0640   48.1360 C   0  0  2  0  0  0  0  0  0  0  0  0
   33.5040   27.7860   49.1680 O   0  0  0  0  0  0  0  0  0  0  0  0
   32.2070   27.9040   48.7700 C   0  0  0  0  0  0  0  0  0  0  0  0
   32.1980   28.2600   47.2970 C   0  0  1  0  0  0  0  0  0  0  0  0
   33.4650   29.9790   47.5490 H   0  0  0  0  0  0  0  0  0  0  0  0
   34.6190   27.1430   47.5950 H   0  0  0  0  0  0  0  0  0  0  0  0
   31.6870   26.9280   48.8730 H   0  0  0  0  0  0  0  0  0  0  0  0
   31.6450   28.7160   49.2900 H   0  0  0  0  0  0  0  0  0  0  0  0
   32.2060   27.3280   46.7130 H   0  0  0  0  0  0  0  0  0  0  0  0
   35.4670   30.2530   48.9650 C   0  0  1  0  0  0  0  0  0  0  0  0
   35.5410   28.8610   48.5870 C   0  0  1  0  0  0  0  0  0  0  0  0
   35.7660   29.1840   50.0280 C   0  0  0  0  0  0  0  0  0  0  0  0
   34.5750   30.8430   49.2460 H   0  0  0  0  0  0  0  0  0  0  0  0
   36.4740   28.5650   48.0260 H   0  0  0  0  0  0  0  0  0  0  0  0
   36.8040   29.1210   50.4330 H   0  0  0  0  0  0  0  0  0  0  0  0
   35.0130   28.9820   50.7870 H   0  0  0  0  0  0  0  0  0  0  0  0
   36.6520   31.1830   48.7580 C   0  0  0  0  0  0  0  0  0  0  0  0
   36.9150   32.1220   49.7580 C   0  0  0  0  0  0  0  0  0  0  0  0
   37.9880   32.9560   49.5230 C   0  0  0  0  0  0  0  0  0  0  0  0
   38.7270   32.8470   48.3700 N   0  0  0  0  0  0  0  0  0  0  0  0
   38.4350   31.9210   47.4250 C   0  0  0  0  0  0  0  0  0  0  0  0
   37.3870   31.0810   47.6200 N   0  0  0  0  0  0  0  0  0  0  0  0
   36.2970   32.1560   50.6400 H   0  0  0  0  0  0  0  0  0  0  0  0
   38.2290   33.7020   50.2780 H   0  0  0  0  0  0  0  0  0  0  0  0
   39.0430   31.8700   46.5320 H   0  0  0  0  0  0  0  0  0  0  0  0
   34.0260   28.9320   45.8860 O   0  0  0  0  0  0  0  0  0  0  0  0
   33.9860   28.0470   45.4820 H   0  0  0  0  0  0  0  0  0  0  0  0
   31.1760   29.0830   46.9330 O   0  0  0  0  0  0  0  0  0  0  0  0
   28.9280   28.8210   47.2110 C   0  0  0  0  0  0  0  0  0  0  0  0
   30.0150   28.6940   46.3360 C   0  0  0  0  0  0  0  0  0  0  0  0
   29.7430   28.2170   45.0740 C   0  0  0  0  0  0  0  0  0  0  0  0
   30.6220   28.1470   44.4610 H   0  0  0  0  0  0  0  0  0  0  0  0
   28.4720   27.8830   44.6880 C   0  0  0  0  0  3  0  0  0  0  0  0
   27.4060   28.0070   45.5460 C   0  0  0  0  0  3  0  0  0  0  0  0
   27.6370   28.4810   46.8200 C   0  0  0  0  0  0  0  0  0  0  0  0
   28.9930   29.2810   48.5210 O   0  0  0  0  0  0  0  0  0  0  0  0
   29.2890   28.6320   49.2430 H   0  0  0  0  0  0  0  0  0  0  0  0
   26.5310   28.5850   47.6370 O   0  0  0  0  0  0  0  0  0  0  0  0
   26.3810   29.3720   48.2780 H   0  0  0  0  0  0  0  0  0  0  0  0
  1  5  1  0  0  0  0
  1  6  1  1  0  0  0
  1  2  1  0  0  0  0
  2  7  1  6  0  0  0
  2 12  1  0  0  0  0
  2  3  1  0  0  0  0
  4  8  1  0  0  0  0
  4  3  1  0  0  0  0
  4  9  1  0  0  0  0
  5 10  1  6  0  0  0
  5  4  1  0  0  0  0
 11 14  1  1  0  0  0
 11 13  1  0  0  0  0
 12 15  1  6  0  0  0
 12 11  1  0  0  0  0
 12 13  1  0  0  0  0
 13 16  1  0  0  0  0
 13 17  1  0  0  0  0
 18 11  1  0  0  0  0
 18 19  1  0  0  0  0
 19 24  1  0  0  0  0
 20 19  2  0  0  0  0
 20 25  1  0  0  0  0
 21 20  1  0  0  0  0
 22 23  1  0  0  0  0
 22 21  2  0  0  0  0
 23 18  2  0  0  0  0
 26 22  1  0  0  0  0
 27  1  1  0  0  0  0
 28 27  1  0  0  0  0
 29  5  1  0  0  0  0
 30 37  1  0  0  0  0
 31 29  1  0  0  0  0
 31 30  2  0  0  0  0
 32 31  1  0  0  0  0
 33 32  1  0  0  0  0
 34 32  2  0  0  0  0
 34 35  1  0  0  0  0
 35 36  2  0  0  0  0
 36 30  1  0  0  0  0
 36 39  1  0  0  0  0
 37 38  1  0  0  0  0
 39 40  1  0  0  0  0
M  END
>  <minimizedAffinity>
-5.77056408

>  <minimizedRMSD>
1.46958399

$$$$
