
 OpenBabel03272506103D

 46 49  0  0  0  0  0  0  0  0999 V2000
   36.7030   26.2660   32.4290 C   0  0  0  0  0  0  0  0  0  0  0  0
   35.6950   26.2900   32.8850 H   0  0  0  0  0  0  0  0  0  0  0  0
   36.5000   26.0430   31.3380 H   0  0  0  0  0  0  0  0  0  0  0  0
   37.5340   25.1340   32.9860 C   0  0  0  0  0  0  0  0  0  0  0  0
   38.1140   24.1680   32.0720 C   0  0  0  0  0  0  0  0  0  0  0  0
   38.9500   23.0990   33.1950 S   0  0  0  0  0  0  0  0  0  0  0  0
   38.4370   24.0480   34.7280 C   0  0  0  0  0  0  0  0  0  0  0  0
   37.7950   24.9200   34.2370 N   0  0  0  0  0  0  0  0  0  0  0  0
   38.7230   23.8200   36.1340 N   0  0  0  0  0  0  0  0  0  0  0  0
   39.9470   23.1740   36.4400 C   0  0  0  0  0  0  0  0  0  0  0  0
   40.0410   22.6550   37.8310 C   0  0  0  0  0  0  0  0  0  0  0  0
   38.7530   22.6420   38.5280 N   0  0  0  0  0  0  0  0  0  0  0  0
   38.3100   24.0260   38.4890 C   0  0  0  0  0  0  0  0  0  0  0  0
   37.7450   24.2630   37.1170 C   0  0  0  0  0  0  0  0  0  0  0  0
   38.0160   24.1720   31.0200 H   0  0  0  0  0  0  0  0  0  0  0  0
   40.0620   22.3060   35.7490 H   0  0  0  0  0  0  0  0  0  0  0  0
   40.8190   23.8500   36.2070 H   0  0  0  0  0  0  0  0  0  0  0  0
   40.6640   23.3670   38.4290 H   0  0  0  0  0  0  0  0  0  0  0  0
   40.4900   21.6630   37.9280 H   0  0  0  0  0  0  0  0  0  0  0  0
   38.9230   22.3030   39.4920 H   0  0  0  0  0  0  0  0  0  0  0  0
   37.5010   24.2160   39.2300 H   0  0  0  0  0  0  0  0  0  0  0  0
   39.1280   24.7300   38.6960 H   0  0  0  0  0  0  0  0  0  0  0  0
   36.8030   23.6430   37.0520 H   0  0  0  0  0  0  0  0  0  0  0  0
   37.4670   25.3160   37.0190 H   0  0  0  0  0  0  0  0  0  0  0  0
   37.4110   27.5520   32.5290 C   0  0  0  0  0  0  0  0  0  0  0  0
   38.1360   27.6760   31.6820 H   0  0  0  0  0  0  0  0  0  0  0  0
   37.8990   27.6990   33.5130 H   0  0  0  0  0  0  0  0  0  0  0  0
   35.3840   30.2780   31.0370 C   0  0  0  0  0  0  0  0  0  0  0  0
   34.7090   30.7840   32.1360 C   0  0  0  0  0  0  0  0  0  0  0  0
   34.9380   30.2060   33.3780 C   0  0  0  0  0  0  0  0  0  0  0  0
   35.8170   29.1740   33.4340 N   0  0  0  0  0  0  0  0  0  0  0  0
   36.4540   28.7100   32.3400 C   0  0  0  0  0  0  0  0  0  0  0  0
   36.2390   29.2550   31.1610 N   0  0  0  0  0  0  0  0  0  0  0  0
   35.1810   30.7550   30.0730 H   0  0  0  0  0  0  0  0  0  0  0  0
   34.0390   31.5860   32.0350 H   0  0  0  0  0  0  0  0  0  0  0  0
   34.8850   31.3440   35.6430 C   0  0  0  0  0  0  0  0  0  0  0  0
   34.3320   30.6000   34.6320 C   0  0  0  0  0  0  0  0  0  0  0  0
   33.0380   30.2110   34.8990 C   0  0  0  0  0  0  0  0  0  0  0  0
   32.4540   29.6200   34.2150 H   0  0  0  0  0  0  0  0  0  0  0  0
   32.3680   30.5340   36.0610 C   0  0  0  0  0  3  0  0  0  0  0  0
   32.9600   31.2750   37.0340 C   0  0  0  0  0  3  0  0  0  0  0  0
   34.2520   31.6890   36.8160 C   0  0  0  0  0  0  0  0  0  0  0  0
   36.1680   31.7940   35.5030 O   0  0  0  0  0  0  0  0  0  0  0  0
   36.9430   31.3650   35.9800 H   0  0  0  0  0  0  0  0  0  0  0  0
   34.8830   32.4450   37.7860 O   0  0  0  0  0  0  0  0  0  0  0  0
   34.6400   33.3910   38.0370 H   0  0  0  0  0  0  0  0  0  0  0  0
  1 25  1  0  0  0  0
  1  2  1  0  0  0  0
  1  4  1  0  0  0  0
  3  1  1  0  0  0  0
  4  8  1  0  0  0  0
  5  4  2  0  0  0  0
  5  6  1  0  0  0  0
  6  7  1  0  0  0  0
  7  9  1  0  0  0  0
  8  7  2  0  0  0  0
  9 10  1  0  0  0  0
  9 14  1  0  0  0  0
 10 11  1  0  0  0  0
 11 19  1  0  0  0  0
 11 18  1  0  0  0  0
 11 12  1  0  0  0  0
 12 20  1  0  0  0  0
 13 12  1  0  0  0  0
 13 22  1  0  0  0  0
 13 21  1  0  0  0  0
 14 13  1  0  0  0  0
 15  5  1  0  0  0  0
 16 10  1  0  0  0  0
 17 10  1  0  0  0  0
 23 14  1  0  0  0  0
 24 14  1  0  0  0  0
 25 27  1  0  0  0  0
 26 25  1  0  0  0  0
 28 33  2  0  0  0  0
 28 29  1  0  0  0  0
 29 30  2  0  0  0  0
 30 31  1  0  0  0  0
 30 37  1  0  0  0  0
 32 25  1  0  0  0  0
 32 31  2  0  0  0  0
 33 32  1  0  0  0  0
 34 28  1  0  0  0  0
 35 29  1  0  0  0  0
 36 42  1  0  0  0  0
 37 38  1  0  0  0  0
 37 36  2  0  0  0  0
 38 40  2  0  0  0  0
 39 38  1  0  0  0  0
 40 41  1  0  0  0  0
 42 41  2  0  0  0  0
 42 45  1  0  0  0  0
 43 36  1  0  0  0  0
 43 44  1  0  0  0  0
 45 46  1  0  0  0  0
M  END
>  <minimizedAffinity>
-6.92455959

$$$$

 OpenBabel03272506103D

 46 49  0  0  0  0  0  0  0  0999 V2000
   36.0400   28.8820   33.4970 C   0  0  0  0  0  0  0  0  0  0  0  0
   36.7750   29.4690   32.9150 H   0  0  0  0  0  0  0  0  0  0  0  0
   35.6010   28.1690   32.7350 H   0  0  0  0  0  0  0  0  0  0  0  0
   34.9190   29.7550   34.0110 C   0  0  0  0  0  0  0  0  0  0  0  0
   35.0160   31.1950   33.8540 C   0  0  0  0  0  0  0  0  0  0  0  0
   33.5080   31.7190   34.5970 S   0  0  0  0  0  0  0  0  0  0  0  0
   32.9320   29.9870   35.0240 C   0  0  0  0  0  0  0  0  0  0  0  0
   33.8400   29.3470   34.6000 N   0  0  0  0  0  0  0  0  0  0  0  0
   31.7260   29.5150   35.6830 N   0  0  0  0  0  0  0  0  0  0  0  0
   30.5620   30.3110   35.5290 C   0  0  0  0  0  0  0  0  0  0  0  0
   29.4660   29.9920   36.4820 C   0  0  0  0  0  0  0  0  0  0  0  0
   29.8950   29.1290   37.5860 N   0  0  0  0  0  0  0  0  0  0  0  0
   30.4140   27.9390   36.9300 C   0  0  0  0  0  0  0  0  0  0  0  0
   31.7960   28.2780   36.4460 C   0  0  0  0  0  0  0  0  0  0  0  0
   35.8150   31.7170   33.4000 H   0  0  0  0  0  0  0  0  0  0  0  0
   30.8480   31.3770   35.6910 H   0  0  0  0  0  0  0  0  0  0  0  0
   30.1910   30.2650   34.4660 H   0  0  0  0  0  0  0  0  0  0  0  0
   28.7000   29.3780   35.9430 H   0  0  0  0  0  0  0  0  0  0  0  0
   28.9520   30.8580   36.9080 H   0  0  0  0  0  0  0  0  0  0  0  0
   29.0630   28.9330   38.1710 H   0  0  0  0  0  0  0  0  0  0  0  0
   30.5000   27.0870   37.6410 H   0  0  0  0  0  0  0  0  0  0  0  0
   29.7800   27.6170   36.0920 H   0  0  0  0  0  0  0  0  0  0  0  0
   32.4300   28.4130   37.3710 H   0  0  0  0  0  0  0  0  0  0  0  0
   32.1960   27.4330   35.8800 H   0  0  0  0  0  0  0  0  0  0  0  0
   36.6550   28.1020   34.5820 C   0  0  0  0  0  0  0  0  0  0  0  0
   35.8950   27.8390   35.3650 H   0  0  0  0  0  0  0  0  0  0  0  0
   37.5410   28.6000   35.0210 H   0  0  0  0  0  0  0  0  0  0  0  0
   37.2930   25.1330   32.4500 C   0  0  0  0  0  0  0  0  0  0  0  0
   38.0110   24.3060   33.2980 C   0  0  0  0  0  0  0  0  0  0  0  0
   38.2790   24.7500   34.5860 C   0  0  0  0  0  0  0  0  0  0  0  0
   37.8150   25.9760   34.9350 N   0  0  0  0  0  0  0  0  0  0  0  0
   37.1190   26.7510   34.0790 C   0  0  0  0  0  0  0  0  0  0  0  0
   36.8630   26.3340   32.8560 N   0  0  0  0  0  0  0  0  0  0  0  0
   37.0990   24.7540   31.4410 H   0  0  0  0  0  0  0  0  0  0  0  0
   38.3470   23.3650   32.9770 H   0  0  0  0  0  0  0  0  0  0  0  0
   38.5770   23.6680   36.8610 C   0  0  0  0  0  0  0  0  0  0  0  0
   39.0070   24.0270   35.6090 C   0  0  0  0  0  0  0  0  0  0  0  0
   40.2960   23.6190   35.3470 C   0  0  0  0  0  0  0  0  0  0  0  0
   40.7920   23.8170   34.4120 H   0  0  0  0  0  0  0  0  0  0  0  0
   41.0750   22.9240   36.2490 C   0  0  0  0  0  3  0  0  0  0  0  0
   40.6030   22.5910   37.4790 C   0  0  0  0  0  3  0  0  0  0  0  0
   39.3200   22.9760   37.7900 C   0  0  0  0  0  0  0  0  0  0  0  0
   37.3120   24.0140   37.2460 O   0  0  0  0  0  0  0  0  0  0  0  0
   37.1320   24.7780   37.8750 H   0  0  0  0  0  0  0  0  0  0  0  0
   38.8100   22.6530   39.0330 O   0  0  0  0  0  0  0  0  0  0  0  0
   38.5890   21.7200   39.3480 H   0  0  0  0  0  0  0  0  0  0  0  0
  1  4  1  0  0  0  0
  1 25  1  0  0  0  0
  2  1  1  0  0  0  0
  3  1  1  0  0  0  0
  4  8  1  0  0  0  0
  5  4  2  0  0  0  0
  5  6  1  0  0  0  0
  6  7  1  0  0  0  0
  7  9  1  0  0  0  0
  8  7  2  0  0  0  0
  9 14  1  0  0  0  0
 10  9  1  0  0  0  0
 10 16  1  0  0  0  0
 10 11  1  0  0  0  0
 11 19  1  0  0  0  0
 11 12  1  0  0  0  0
 12 20  1  0  0  0  0
 13 12  1  0  0  0  0
 13 21  1  0  0  0  0
 14 13  1  0  0  0  0
 14 23  1  0  0  0  0
 15  5  1  0  0  0  0
 17 10  1  0  0  0  0
 18 11  1  0  0  0  0
 22 13  1  0  0  0  0
 24 14  1  0  0  0  0
 25 27  1  0  0  0  0
 25 26  1  0  0  0  0
 28 33  2  0  0  0  0
 28 29  1  0  0  0  0
 29 30  2  0  0  0  0
 30 31  1  0  0  0  0
 30 37  1  0  0  0  0
 32 25  1  0  0  0  0
 32 31  2  0  0  0  0
 33 32  1  0  0  0  0
 34 28  1  0  0  0  0
 35 29  1  0  0  0  0
 36 43  1  0  0  0  0
 36 42  1  0  0  0  0
 37 36  2  0  0  0  0
 38 37  1  0  0  0  0
 38 40  2  0  0  0  0
 39 38  1  0  0  0  0
 40 41  1  0  0  0  0
 41 42  2  0  0  0  0
 42 45  1  0  0  0  0
 43 44  1  0  0  0  0
 45 46  1  0  0  0  0
M  END
>  <minimizedAffinity>
-6.71882963

$$$$

 OpenBabel03272506103D

 46 49  0  0  0  0  0  0  0  0999 V2000
   38.0440   26.9420   35.3480 C   0  0  0  0  0  0  0  0  0  0  0  0
   37.5120   26.0090   35.6150 H   0  0  0  0  0  0  0  0  0  0  0  0
   37.7930   27.6470   36.1970 H   0  0  0  0  0  0  0  0  0  0  0  0
   37.4970   27.5410   34.0730 C   0  0  0  0  0  0  0  0  0  0  0  0
   36.2150   28.2200   34.1040 C   0  0  0  0  0  0  0  0  0  0  0  0
   36.0510   28.7110   32.4200 S   0  0  0  0  0  0  0  0  0  0  0  0
   37.6840   27.9670   31.8790 C   0  0  0  0  0  0  0  0  0  0  0  0
   38.0680   27.5150   32.9100 N   0  0  0  0  0  0  0  0  0  0  0  0
   38.3350   27.9300   30.5800 N   0  0  0  0  0  0  0  0  0  0  0  0
   38.0590   29.0060   29.6980 C   0  0  0  0  0  0  0  0  0  0  0  0
   38.4540   28.7620   28.2850 C   0  0  0  0  0  0  0  0  0  0  0  0
   38.7760   27.3590   28.0110 N   0  0  0  0  0  0  0  0  0  0  0  0
   39.8500   27.0500   28.9410 C   0  0  0  0  0  0  0  0  0  0  0  0
   39.2110   26.8070   30.2790 C   0  0  0  0  0  0  0  0  0  0  0  0
   35.6000   28.3460   34.9540 H   0  0  0  0  0  0  0  0  0  0  0  0
   36.9600   29.1920   29.7130 H   0  0  0  0  0  0  0  0  0  0  0  0
   38.5220   29.9590   30.0820 H   0  0  0  0  0  0  0  0  0  0  0  0
   39.4160   29.3020   28.0920 H   0  0  0  0  0  0  0  0  0  0  0  0
   37.7320   29.0980   27.5360 H   0  0  0  0  0  0  0  0  0  0  0  0
   39.0730   27.2950   27.0210 H   0  0  0  0  0  0  0  0  0  0  0  0
   40.3890   26.1220   28.6460 H   0  0  0  0  0  0  0  0  0  0  0  0
   40.5890   27.8620   29.0080 H   0  0  0  0  0  0  0  0  0  0  0  0
   38.6160   25.8530   30.1760 H   0  0  0  0  0  0  0  0  0  0  0  0
   39.9910   26.6440   31.0270 H   0  0  0  0  0  0  0  0  0  0  0  0
   39.5040   26.7740   35.2810 C   0  0  0  0  0  0  0  0  0  0  0  0
   39.9790   27.0120   36.2690 H   0  0  0  0  0  0  0  0  0  0  0  0
   39.9650   27.3490   34.4540 H   0  0  0  0  0  0  0  0  0  0  0  0
   41.3990   23.6370   34.7060 C   0  0  0  0  0  0  0  0  0  0  0  0
   40.3950   22.6840   34.6700 C   0  0  0  0  0  0  0  0  0  0  0  0
   39.0810   23.1000   34.8390 C   0  0  0  0  0  0  0  0  0  0  0  0
   38.8640   24.4250   35.0300 N   0  0  0  0  0  0  0  0  0  0  0  0
   39.8700   25.3220   35.0590 C   0  0  0  0  0  0  0  0  0  0  0  0
   41.1180   24.9320   34.8990 N   0  0  0  0  0  0  0  0  0  0  0  0
   42.4240   23.2770   34.5710 H   0  0  0  0  0  0  0  0  0  0  0  0
   40.6190   21.6700   34.5190 H   0  0  0  0  0  0  0  0  0  0  0  0
   37.1320   21.8630   35.8900 C   0  0  0  0  0  0  0  0  0  0  0  0
   37.9050   22.2550   34.8270 C   0  0  0  0  0  0  0  0  0  0  0  0
   37.4560   21.7540   33.6250 C   0  0  0  0  0  0  0  0  0  0  0  0
   37.9440   21.9600   32.6880 H   0  0  0  0  0  0  0  0  0  0  0  0
   36.3470   20.9430   33.5020 C   0  0  0  0  0  3  0  0  0  0  0  0
   35.6130   20.5820   34.5880 C   0  0  0  0  0  3  0  0  0  0  0  0
   36.0190   21.0570   35.8120 C   0  0  0  0  0  0  0  0  0  0  0  0
   37.4700   22.2930   37.1430 O   0  0  0  0  0  0  0  0  0  0  0  0
   37.9270   21.6950   37.8100 H   0  0  0  0  0  0  0  0  0  0  0  0
   35.2940   20.7080   36.9360 O   0  0  0  0  0  0  0  0  0  0  0  0
   34.3580   21.0210   37.1450 H   0  0  0  0  0  0  0  0  0  0  0  0
  1  2  1  0  0  0  0
  1  3  1  0  0  0  0
  4  5  2  0  0  0  0
  4  1  1  0  0  0  0
  5 15  1  0  0  0  0
  6  5  1  0  0  0  0
  7  6  1  0  0  0  0
  7  8  2  0  0  0  0
  8  4  1  0  0  0  0
  9  7  1  0  0  0  0
 10 16  1  0  0  0  0
 10 17  1  0  0  0  0
 10  9  1  0  0  0  0
 11 10  1  0  0  0  0
 12 11  1  0  0  0  0
 12 13  1  0  0  0  0
 13 22  1  0  0  0  0
 13 14  1  0  0  0  0
 14  9  1  0  0  0  0
 14 24  1  0  0  0  0
 18 11  1  0  0  0  0
 19 11  1  0  0  0  0
 20 12  1  0  0  0  0
 21 13  1  0  0  0  0
 23 14  1  0  0  0  0
 25  1  1  0  0  0  0
 25 26  1  0  0  0  0
 27 25  1  0  0  0  0
 28 33  1  0  0  0  0
 29 28  2  0  0  0  0
 29 30  1  0  0  0  0
 30 31  2  0  0  0  0
 31 32  1  0  0  0  0
 32 25  1  0  0  0  0
 33 32  2  0  0  0  0
 34 28  1  0  0  0  0
 35 29  1  0  0  0  0
 36 43  1  0  0  0  0
 37 30  1  0  0  0  0
 37 36  2  0  0  0  0
 38 37  1  0  0  0  0
 39 38  1  0  0  0  0
 40 38  2  0  0  0  0
 40 41  1  0  0  0  0
 41 42  2  0  0  0  0
 42 36  1  0  0  0  0
 42 45  1  0  0  0  0
 43 44  1  0  0  0  0
 45 46  1  0  0  0  0
M  END
>  <minimizedAffinity>
-6.44657469

$$$$

 OpenBabel03272506103D

 46 49  0  0  0  0  0  0  0  0999 V2000
   36.6470   26.4330   32.5170 C   0  0  0  0  0  0  0  0  0  0  0  0
   36.1710   26.9900   33.3460 H   0  0  0  0  0  0  0  0  0  0  0  0
   35.7730   25.9810   31.9580 H   0  0  0  0  0  0  0  0  0  0  0  0
   37.5000   25.2980   33.0350 C   0  0  0  0  0  0  0  0  0  0  0  0
   38.0930   24.3720   32.0880 C   0  0  0  0  0  0  0  0  0  0  0  0
   38.9530   23.2830   33.1740 S   0  0  0  0  0  0  0  0  0  0  0  0
   38.4300   24.1740   34.7380 C   0  0  0  0  0  0  0  0  0  0  0  0
   37.7700   25.0490   34.2780 N   0  0  0  0  0  0  0  0  0  0  0  0
   38.7260   23.9070   36.1350 N   0  0  0  0  0  0  0  0  0  0  0  0
   39.9630   23.2730   36.4150 C   0  0  0  0  0  0  0  0  0  0  0  0
   40.0720   22.7120   37.7890 C   0  0  0  0  0  0  0  0  0  0  0  0
   38.7870   22.6540   38.4910 N   0  0  0  0  0  0  0  0  0  0  0  0
   38.3210   24.0310   38.4980 C   0  0  0  0  0  0  0  0  0  0  0  0
   37.7450   24.3010   37.1360 C   0  0  0  0  0  0  0  0  0  0  0  0
   37.9900   24.4070   31.0380 H   0  0  0  0  0  0  0  0  0  0  0  0
   40.0900   22.4290   35.6970 H   0  0  0  0  0  0  0  0  0  0  0  0
   40.8210   23.9710   36.2010 H   0  0  0  0  0  0  0  0  0  0  0  0
   40.6850   23.4150   38.4070 H   0  0  0  0  0  0  0  0  0  0  0  0
   40.5390   21.7250   37.8530 H   0  0  0  0  0  0  0  0  0  0  0  0
   38.9680   22.2880   39.4420 H   0  0  0  0  0  0  0  0  0  0  0  0
   37.5120   24.1840   39.2470 H   0  0  0  0  0  0  0  0  0  0  0  0
   39.1280   24.7430   38.7230 H   0  0  0  0  0  0  0  0  0  0  0  0
   36.8140   23.6670   37.0550 H   0  0  0  0  0  0  0  0  0  0  0  0
   37.4490   25.3520   37.0720 H   0  0  0  0  0  0  0  0  0  0  0  0
   37.4040   27.2990   31.6000 C   0  0  0  0  0  0  0  0  0  0  0  0
   37.2990   26.9480   30.5400 H   0  0  0  0  0  0  0  0  0  0  0  0
   38.4670   27.4110   31.8930 H   0  0  0  0  0  0  0  0  0  0  0  0
   36.2990   30.6620   30.4880 C   0  0  0  0  0  0  0  0  0  0  0  0
   35.7170   31.1790   31.6340 C   0  0  0  0  0  0  0  0  0  0  0  0
   35.6980   30.3940   32.7790 C   0  0  0  0  0  0  0  0  0  0  0  0
   36.2570   29.1610   32.7010 N   0  0  0  0  0  0  0  0  0  0  0  0
   36.8130   28.6930   31.5650 C   0  0  0  0  0  0  0  0  0  0  0  0
   36.8330   29.4340   30.4760 N   0  0  0  0  0  0  0  0  0  0  0  0
   36.2970   31.3050   29.6020 H   0  0  0  0  0  0  0  0  0  0  0  0
   35.2990   32.1420   31.6390 H   0  0  0  0  0  0  0  0  0  0  0  0
   33.9770   30.3270   34.6400 C   0  0  0  0  0  0  0  0  0  0  0  0
   35.1420   30.7640   34.0640 C   0  0  0  0  0  0  0  0  0  0  0  0
   35.8260   31.6620   34.8530 C   0  0  0  0  0  0  0  0  0  0  0  0
   36.7600   32.1070   34.5550 H   0  0  0  0  0  0  0  0  0  0  0  0
   35.3860   32.0800   36.0920 C   0  0  0  0  0  3  0  0  0  0  0  0
   34.2230   31.6160   36.6210 C   0  0  0  0  0  3  0  0  0  0  0  0
   33.5020   30.7170   35.8720 C   0  0  0  0  0  0  0  0  0  0  0  0
   33.2020   29.4310   33.9590 O   0  0  0  0  0  0  0  0  0  0  0  0
   32.3580   29.7030   33.4840 H   0  0  0  0  0  0  0  0  0  0  0  0
   32.3140   30.2270   36.3810 O   0  0  0  0  0  0  0  0  0  0  0  0
   32.2320   29.6080   37.1730 H   0  0  0  0  0  0  0  0  0  0  0  0
  1  4  1  0  0  0  0
  1  2  1  0  0  0  0
  3  1  1  0  0  0  0
  4  8  1  0  0  0  0
  5  4  2  0  0  0  0
  5  6  1  0  0  0  0
  6  7  1  0  0  0  0
  7  9  1  0  0  0  0
  8  7  2  0  0  0  0
  9 10  1  0  0  0  0
  9 14  1  0  0  0  0
 10 11  1  0  0  0  0
 11 19  1  0  0  0  0
 11 18  1  0  0  0  0
 11 12  1  0  0  0  0
 12 13  1  0  0  0  0
 12 20  1  0  0  0  0
 13 22  1  0  0  0  0
 13 21  1  0  0  0  0
 14 13  1  0  0  0  0
 15  5  1  0  0  0  0
 16 10  1  0  0  0  0
 17 10  1  0  0  0  0
 23 14  1  0  0  0  0
 24 14  1  0  0  0  0
 25 27  1  0  0  0  0
 25  1  1  0  0  0  0
 26 25  1  0  0  0  0
 28 29  1  0  0  0  0
 29 35  1  0  0  0  0
 29 30  2  0  0  0  0
 30 37  1  0  0  0  0
 31 30  1  0  0  0  0
 32 25  1  0  0  0  0
 32 31  2  0  0  0  0
 33 28  2  0  0  0  0
 33 32  1  0  0  0  0
 34 28  1  0  0  0  0
 36 42  1  0  0  0  0
 37 36  2  0  0  0  0
 37 38  1  0  0  0  0
 38 40  2  0  0  0  0
 39 38  1  0  0  0  0
 40 41  1  0  0  0  0
 42 45  1  0  0  0  0
 42 41  2  0  0  0  0
 43 36  1  0  0  0  0
 44 43  1  0  0  0  0
 45 46  1  0  0  0  0
M  END
>  <minimizedAffinity>
-6.42741442

$$$$

 OpenBabel03272506103D

 46 49  0  0  0  0  0  0  0  0999 V2000
   36.9170   25.4780   30.9890 C   0  0  0  0  0  0  0  0  0  0  0  0
   36.0060   25.6590   30.3900 H   0  0  0  0  0  0  0  0  0  0  0  0
   37.6650   26.2200   30.5750 H   0  0  0  0  0  0  0  0  0  0  0  0
   37.4650   24.0890   30.7520 C   0  0  0  0  0  0  0  0  0  0  0  0
   38.7040   23.9350   30.0130 C   0  0  0  0  0  0  0  0  0  0  0  0
   38.8860   22.1830   30.0190 S   0  0  0  0  0  0  0  0  0  0  0  0
   37.3150   21.8640   30.9910 C   0  0  0  0  0  0  0  0  0  0  0  0
   36.9300   22.9780   31.1500 N   0  0  0  0  0  0  0  0  0  0  0  0
   36.7050   20.6260   31.4430 N   0  0  0  0  0  0  0  0  0  0  0  0
   37.5810   19.5430   31.7080 C   0  0  0  0  0  0  0  0  0  0  0  0
   36.9110   18.2210   31.8280 C   0  0  0  0  0  0  0  0  0  0  0  0
   35.5230   18.2350   31.3570 N   0  0  0  0  0  0  0  0  0  0  0  0
   34.8780   19.2510   32.1730 C   0  0  0  0  0  0  0  0  0  0  0  0
   35.2570   20.5820   31.5880 C   0  0  0  0  0  0  0  0  0  0  0  0
   39.2870   24.7180   29.6080 H   0  0  0  0  0  0  0  0  0  0  0  0
   38.3120   19.4750   30.8680 H   0  0  0  0  0  0  0  0  0  0  0  0
   38.2060   19.7560   32.6220 H   0  0  0  0  0  0  0  0  0  0  0  0
   36.8240   17.9690   32.9150 H   0  0  0  0  0  0  0  0  0  0  0  0
   37.4280   17.3910   31.3380 H   0  0  0  0  0  0  0  0  0  0  0  0
   35.1320   17.2890   31.5130 H   0  0  0  0  0  0  0  0  0  0  0  0
   33.7700   19.1630   32.1320 H   0  0  0  0  0  0  0  0  0  0  0  0
   35.1830   19.1930   33.2270 H   0  0  0  0  0  0  0  0  0  0  0  0
   34.7530   20.6390   30.5790 H   0  0  0  0  0  0  0  0  0  0  0  0
   34.8540   21.3800   32.2160 H   0  0  0  0  0  0  0  0  0  0  0  0
   36.7270   25.7430   32.4240 C   0  0  0  0  0  0  0  0  0  0  0  0
   36.3200   24.8370   32.9470 H   0  0  0  0  0  0  0  0  0  0  0  0
   36.1080   26.6410   32.6170 H   0  0  0  0  0  0  0  0  0  0  0  0
   40.0220   27.1350   33.4060 C   0  0  0  0  0  0  0  0  0  0  0  0
   40.4150   26.2810   34.4240 C   0  0  0  0  0  0  0  0  0  0  0  0
   39.5700   25.2380   34.7770 C   0  0  0  0  0  0  0  0  0  0  0  0
   38.4030   25.1210   34.0960 N   0  0  0  0  0  0  0  0  0  0  0  0
   38.0560   25.9740   33.1100 C   0  0  0  0  0  0  0  0  0  0  0  0
   38.8550   26.9650   32.7720 N   0  0  0  0  0  0  0  0  0  0  0  0
   40.7110   27.9470   33.1520 H   0  0  0  0  0  0  0  0  0  0  0  0
   41.3310   26.4180   34.9180 H   0  0  0  0  0  0  0  0  0  0  0  0
   38.9920   23.8910   36.8460 C   0  0  0  0  0  0  0  0  0  0  0  0
   39.8120   24.2490   35.8060 C   0  0  0  0  0  0  0  0  0  0  0  0
   40.9950   23.5430   35.7880 C   0  0  0  0  0  0  0  0  0  0  0  0
   41.7540   23.6970   35.0410 H   0  0  0  0  0  0  0  0  0  0  0  0
   41.3220   22.5790   36.7190 C   0  0  0  0  0  3  0  0  0  0  0  0
   40.4750   22.2590   37.7320 C   0  0  0  0  0  3  0  0  0  0  0  0
   39.2800   22.9350   37.7950 C   0  0  0  0  0  0  0  0  0  0  0  0
   37.7850   24.5170   36.9780 O   0  0  0  0  0  0  0  0  0  0  0  0
   37.6230   25.2330   37.6660 H   0  0  0  0  0  0  0  0  0  0  0  0
   38.3960   22.6340   38.8140 O   0  0  0  0  0  0  0  0  0  0  0  0
   37.8910   21.7660   38.9090 H   0  0  0  0  0  0  0  0  0  0  0  0
  1 25  1  0  0  0  0
  2  1  1  0  0  0  0
  3  1  1  0  0  0  0
  4  1  1  0  0  0  0
  4  8  1  0  0  0  0
  5  6  1  0  0  0  0
  5  4  2  0  0  0  0
  6  7  1  0  0  0  0
  7  8  2  0  0  0  0
  7  9  1  0  0  0  0
  9 14  1  0  0  0  0
  9 10  1  0  0  0  0
 10 11  1  0  0  0  0
 10 17  1  0  0  0  0
 11 18  1  0  0  0  0
 12 20  1  0  0  0  0
 12 11  1  0  0  0  0
 12 13  1  0  0  0  0
 13 22  1  0  0  0  0
 14 13  1  0  0  0  0
 14 24  1  0  0  0  0
 15  5  1  0  0  0  0
 16 10  1  0  0  0  0
 19 11  1  0  0  0  0
 21 13  1  0  0  0  0
 23 14  1  0  0  0  0
 25 27  1  0  0  0  0
 25 26  1  0  0  0  0
 25 32  1  0  0  0  0
 28 29  1  0  0  0  0
 29 30  2  0  0  0  0
 29 35  1  0  0  0  0
 30 37  1  0  0  0  0
 31 30  1  0  0  0  0
 32 31  2  0  0  0  0
 33 32  1  0  0  0  0
 33 28  2  0  0  0  0
 34 28  1  0  0  0  0
 36 43  1  0  0  0  0
 36 42  1  0  0  0  0
 37 36  2  0  0  0  0
 38 37  1  0  0  0  0
 38 40  2  0  0  0  0
 39 38  1  0  0  0  0
 40 41  1  0  0  0  0
 41 42  2  0  0  0  0
 42 45  1  0  0  0  0
 43 44  1  0  0  0  0
 45 46  1  0  0  0  0
M  END
>  <minimizedAffinity>
-6.39215183

$$$$

 OpenBabel03272506103D

 46 49  0  0  0  0  0  0  0  0999 V2000
   37.1100   27.3340   33.8570 C   0  0  0  0  0  0  0  0  0  0  0  0
   36.7720   26.6650   34.6710 H   0  0  0  0  0  0  0  0  0  0  0  0
   38.0360   27.8270   34.2810 H   0  0  0  0  0  0  0  0  0  0  0  0
   36.0950   28.4180   33.5780 C   0  0  0  0  0  0  0  0  0  0  0  0
   35.4630   28.4740   32.2730 C   0  0  0  0  0  0  0  0  0  0  0  0
   34.4080   29.8720   32.4690 S   0  0  0  0  0  0  0  0  0  0  0  0
   34.9230   30.2130   34.2380 C   0  0  0  0  0  0  0  0  0  0  0  0
   35.7120   29.3390   34.4050 N   0  0  0  0  0  0  0  0  0  0  0  0
   34.5030   31.2400   35.1760 N   0  0  0  0  0  0  0  0  0  0  0  0
   33.1830   31.7370   35.0270 C   0  0  0  0  0  0  0  0  0  0  0  0
   32.9140   33.0030   35.7610 C   0  0  0  0  0  0  0  0  0  0  0  0
   34.1320   33.6530   36.2520 N   0  0  0  0  0  0  0  0  0  0  0  0
   34.7570   32.6520   37.1000 C   0  0  0  0  0  0  0  0  0  0  0  0
   35.4520   31.6820   36.1860 C   0  0  0  0  0  0  0  0  0  0  0  0
   35.6410   27.8140   31.4680 H   0  0  0  0  0  0  0  0  0  0  0  0
   33.0070   31.9330   33.9430 H   0  0  0  0  0  0  0  0  0  0  0  0
   32.4300   30.9470   35.3080 H   0  0  0  0  0  0  0  0  0  0  0  0
   32.3480   32.7540   36.6940 H   0  0  0  0  0  0  0  0  0  0  0  0
   32.3310   33.7450   35.2100 H   0  0  0  0  0  0  0  0  0  0  0  0
   33.8440   34.4990   36.7760 H   0  0  0  0  0  0  0  0  0  0  0  0
   35.5250   33.1040   37.7670 H   0  0  0  0  0  0  0  0  0  0  0  0
   34.0260   32.1290   37.7330 H   0  0  0  0  0  0  0  0  0  0  0  0
   36.3050   32.2500   35.7120 H   0  0  0  0  0  0  0  0  0  0  0  0
   35.8750   30.8670   36.7800 H   0  0  0  0  0  0  0  0  0  0  0  0
   37.4740   26.6090   32.6290 C   0  0  0  0  0  0  0  0  0  0  0  0
   38.5320   26.8330   32.3320 H   0  0  0  0  0  0  0  0  0  0  0  0
   36.7660   26.7910   31.7970 H   0  0  0  0  0  0  0  0  0  0  0  0
   36.9020   22.9560   32.3220 C   0  0  0  0  0  0  0  0  0  0  0  0
   37.5960   22.4530   33.4110 C   0  0  0  0  0  0  0  0  0  0  0  0
   38.2540   23.3460   34.2470 C   0  0  0  0  0  0  0  0  0  0  0  0
   38.1740   24.6640   33.9400 N   0  0  0  0  0  0  0  0  0  0  0  0
   37.4890   25.1140   32.8700 C   0  0  0  0  0  0  0  0  0  0  0  0
   36.8630   24.2720   32.0740 N   0  0  0  0  0  0  0  0  0  0  0  0
   36.3940   22.2270   31.6830 H   0  0  0  0  0  0  0  0  0  0  0  0
   37.6240   21.4220   33.6020 H   0  0  0  0  0  0  0  0  0  0  0  0
   38.7510   23.3290   36.7340 C   0  0  0  0  0  0  0  0  0  0  0  0
   39.0210   23.0080   35.4280 C   0  0  0  0  0  0  0  0  0  0  0  0
   40.1750   22.2700   35.2850 C   0  0  0  0  0  0  0  0  0  0  0  0
   40.5380   21.9330   34.3290 H   0  0  0  0  0  0  0  0  0  0  0  0
   40.9760   21.8940   36.3430 C   0  0  0  0  0  3  0  0  0  0  0  0
   40.6650   22.2370   37.6210 C   0  0  0  0  0  3  0  0  0  0  0  0
   39.5220   22.9750   37.8170 C   0  0  0  0  0  0  0  0  0  0  0  0
   37.6310   24.0610   37.0130 O   0  0  0  0  0  0  0  0  0  0  0  0
   37.6710   25.0420   37.2320 H   0  0  0  0  0  0  0  0  0  0  0  0
   39.1770   23.3400   39.1050 O   0  0  0  0  0  0  0  0  0  0  0  0
   38.8720   22.7060   39.8280 H   0  0  0  0  0  0  0  0  0  0  0  0
  1  3  1  0  0  0  0
  1  2  1  0  0  0  0
  4  1  1  0  0  0  0
  4  8  1  0  0  0  0
  5  6  1  0  0  0  0
  5  4  2  0  0  0  0
  6  7  1  0  0  0  0
  7  8  2  0  0  0  0
  7  9  1  0  0  0  0
  9 14  1  0  0  0  0
 10  9  1  0  0  0  0
 10 17  1  0  0  0  0
 10 11  1  0  0  0  0
 11 12  1  0  0  0  0
 11 18  1  0  0  0  0
 12 20  1  0  0  0  0
 12 13  1  0  0  0  0
 13 22  1  0  0  0  0
 13 21  1  0  0  0  0
 14 24  1  0  0  0  0
 14 13  1  0  0  0  0
 15  5  1  0  0  0  0
 16 10  1  0  0  0  0
 19 11  1  0  0  0  0
 23 14  1  0  0  0  0
 25 32  1  0  0  0  0
 25  1  1  0  0  0  0
 26 25  1  0  0  0  0
 27 25  1  0  0  0  0
 28 29  1  0  0  0  0
 29 35  1  0  0  0  0
 29 30  2  0  0  0  0
 30 37  1  0  0  0  0
 31 30  1  0  0  0  0
 32 31  2  0  0  0  0
 33 28  2  0  0  0  0
 33 32  1  0  0  0  0
 34 28  1  0  0  0  0
 36 43  1  0  0  0  0
 36 42  1  0  0  0  0
 37 36  2  0  0  0  0
 38 37  1  0  0  0  0
 38 40  2  0  0  0  0
 39 38  1  0  0  0  0
 40 41  1  0  0  0  0
 41 42  2  0  0  0  0
 42 45  1  0  0  0  0
 43 44  1  0  0  0  0
 45 46  1  0  0  0  0
M  END
>  <minimizedAffinity>
-6.36625051

$$$$

 OpenBabel03272506103D

 46 49  0  0  0  0  0  0  0  0999 V2000
   36.8330   26.0690   32.2920 C   0  0  0  0  0  0  0  0  0  0  0  0
   35.8610   25.6800   31.9370 H   0  0  0  0  0  0  0  0  0  0  0  0
   37.3490   26.4110   31.3440 H   0  0  0  0  0  0  0  0  0  0  0  0
   37.6750   24.9730   32.9050 C   0  0  0  0  0  0  0  0  0  0  0  0
   38.3070   23.9980   32.0360 C   0  0  0  0  0  0  0  0  0  0  0  0
   39.1340   22.9820   33.2140 S   0  0  0  0  0  0  0  0  0  0  0  0
   38.5510   23.9590   34.7030 C   0  0  0  0  0  0  0  0  0  0  0  0
   37.9020   24.8000   34.1690 N   0  0  0  0  0  0  0  0  0  0  0  0
   38.7980   23.7760   36.1230 N   0  0  0  0  0  0  0  0  0  0  0  0
   40.0280   23.1700   36.4830 C   0  0  0  0  0  0  0  0  0  0  0  0
   40.0920   22.6910   37.8900 C   0  0  0  0  0  0  0  0  0  0  0  0
   38.7830   22.6650   38.5490 N   0  0  0  0  0  0  0  0  0  0  0  0
   38.3080   24.0350   38.4580 C   0  0  0  0  0  0  0  0  0  0  0  0
   37.7800   24.2210   37.0630 C   0  0  0  0  0  0  0  0  0  0  0  0
   38.2420   23.9710   30.9820 H   0  0  0  0  0  0  0  0  0  0  0  0
   40.1860   22.2870   35.8210 H   0  0  0  0  0  0  0  0  0  0  0  0
   40.8890   23.8610   36.2590 H   0  0  0  0  0  0  0  0  0  0  0  0
   40.6780   23.4350   38.4870 H   0  0  0  0  0  0  0  0  0  0  0  0
   40.5620   21.7140   38.0290 H   0  0  0  0  0  0  0  0  0  0  0  0
   38.9320   22.3560   39.5260 H   0  0  0  0  0  0  0  0  0  0  0  0
   37.4720   24.2240   39.1680 H   0  0  0  0  0  0  0  0  0  0  0  0
   39.1010   24.7660   38.6700 H   0  0  0  0  0  0  0  0  0  0  0  0
   36.8560   23.5750   36.9870 H   0  0  0  0  0  0  0  0  0  0  0  0
   37.4790   25.2630   36.9270 H   0  0  0  0  0  0  0  0  0  0  0  0
   36.6980   27.2160   33.2030 C   0  0  0  0  0  0  0  0  0  0  0  0
   37.7030   27.5630   33.5610 H   0  0  0  0  0  0  0  0  0  0  0  0
   36.0070   27.0170   34.0460 H   0  0  0  0  0  0  0  0  0  0  0  0
   34.5540   30.0420   32.1150 C   0  0  0  0  0  0  0  0  0  0  0  0
   35.2910   30.5930   31.0790 C   0  0  0  0  0  0  0  0  0  0  0  0
   36.5070   30.0120   30.7480 C   0  0  0  0  0  0  0  0  0  0  0  0
   36.9000   28.9310   31.4680 N   0  0  0  0  0  0  0  0  0  0  0  0
   36.1540   28.4240   32.4700 C   0  0  0  0  0  0  0  0  0  0  0  0
   34.9990   28.9730   32.7870 N   0  0  0  0  0  0  0  0  0  0  0  0
   33.6000   30.5240   32.3510 H   0  0  0  0  0  0  0  0  0  0  0  0
   34.9380   31.4310   30.5530 H   0  0  0  0  0  0  0  0  0  0  0  0
   37.8650   29.7210   28.6260 C   0  0  0  0  0  0  0  0  0  0  0  0
   37.4070   30.4430   29.6990 C   0  0  0  0  0  0  0  0  0  0  0  0
   37.8950   31.7310   29.7260 C   0  0  0  0  0  0  0  0  0  0  0  0
   37.6390   32.4350   30.4990 H   0  0  0  0  0  0  0  0  0  0  0  0
   38.7550   32.2420   28.7760 C   0  0  0  0  0  3  0  0  0  0  0  0
   39.1800   31.4860   27.7300 C   0  0  0  0  0  3  0  0  0  0  0  0
   38.7220   30.1920   27.6560 C   0  0  0  0  0  0  0  0  0  0  0  0
   37.4550   28.4260   28.4810 O   0  0  0  0  0  0  0  0  0  0  0  0
   38.0480   27.6460   28.7080 H   0  0  0  0  0  0  0  0  0  0  0  0
   39.1360   29.3960   26.6050 O   0  0  0  0  0  0  0  0  0  0  0  0
   38.8750   29.5260   25.6390 H   0  0  0  0  0  0  0  0  0  0  0  0
  1  4  1  0  0  0  0
  1 25  1  0  0  0  0
  2  1  1  0  0  0  0
  3  1  1  0  0  0  0
  4  8  1  0  0  0  0
  5  4  2  0  0  0  0
  5  6  1  0  0  0  0
  6  7  1  0  0  0  0
  7  9  1  0  0  0  0
  8  7  2  0  0  0  0
  9 10  1  0  0  0  0
  9 14  1  0  0  0  0
 10 11  1  0  0  0  0
 11 19  1  0  0  0  0
 11 18  1  0  0  0  0
 11 12  1  0  0  0  0
 12 20  1  0  0  0  0
 13 12  1  0  0  0  0
 13 22  1  0  0  0  0
 13 21  1  0  0  0  0
 14 13  1  0  0  0  0
 15  5  1  0  0  0  0
 16 10  1  0  0  0  0
 17 10  1  0  0  0  0
 23 14  1  0  0  0  0
 24 14  1  0  0  0  0
 25 26  1  0  0  0  0
 25 27  1  0  0  0  0
 28 34  1  0  0  0  0
 28 33  1  0  0  0  0
 29 28  2  0  0  0  0
 30 29  1  0  0  0  0
 30 31  2  0  0  0  0
 31 32  1  0  0  0  0
 32 33  2  0  0  0  0
 32 25  1  0  0  0  0
 35 29  1  0  0  0  0
 36 37  1  0  0  0  0
 37 38  2  0  0  0  0
 37 30  1  0  0  0  0
 38 39  1  0  0  0  0
 40 38  1  0  0  0  0
 41 40  2  0  0  0  0
 42 41  1  0  0  0  0
 42 36  2  0  0  0  0
 43 36  1  0  0  0  0
 43 44  1  0  0  0  0
 45 42  1  0  0  0  0
 46 45  1  0  0  0  0
M  END
>  <minimizedAffinity>
-6.34213352

$$$$

 OpenBabel03272506103D

 46 49  0  0  0  0  0  0  0  0999 V2000
   36.5450   28.3380   34.5440 C   0  0  0  0  0  0  0  0  0  0  0  0
   36.3310   27.6260   35.3630 H   0  0  0  0  0  0  0  0  0  0  0  0
   37.5940   28.6990   34.7680 H   0  0  0  0  0  0  0  0  0  0  0  0
   35.6230   29.5340   34.5990 C   0  0  0  0  0  0  0  0  0  0  0  0
   34.2220   29.3620   34.2600 C   0  0  0  0  0  0  0  0  0  0  0  0
   33.6180   31.0030   34.4750 S   0  0  0  0  0  0  0  0  0  0  0  0
   35.2760   31.7160   34.9830 C   0  0  0  0  0  0  0  0  0  0  0  0
   35.9560   30.7430   34.9250 N   0  0  0  0  0  0  0  0  0  0  0  0
   35.6630   33.0670   35.3510 N   0  0  0  0  0  0  0  0  0  0  0  0
   34.6640   33.8750   35.9510 C   0  0  0  0  0  0  0  0  0  0  0  0
   34.9870   35.3270   35.9920 C   0  0  0  0  0  0  0  0  0  0  0  0
   36.1280   35.6870   35.1460 N   0  0  0  0  0  0  0  0  0  0  0  0
   37.2190   34.8690   35.6490 C   0  0  0  0  0  0  0  0  0  0  0  0
   37.0280   33.4910   35.0800 C   0  0  0  0  0  0  0  0  0  0  0  0
   33.7600   28.4570   33.9710 H   0  0  0  0  0  0  0  0  0  0  0  0
   33.7230   33.7560   35.3640 H   0  0  0  0  0  0  0  0  0  0  0  0
   34.4150   33.4940   36.9820 H   0  0  0  0  0  0  0  0  0  0  0  0
   35.3290   35.5810   37.0280 H   0  0  0  0  0  0  0  0  0  0  0  0
   34.1570   35.9950   35.7470 H   0  0  0  0  0  0  0  0  0  0  0  0
   36.2980   36.7010   35.2680 H   0  0  0  0  0  0  0  0  0  0  0  0
   38.2060   35.2490   35.3020 H   0  0  0  0  0  0  0  0  0  0  0  0
   37.2400   34.8330   36.7480 H   0  0  0  0  0  0  0  0  0  0  0  0
   37.2060   33.5820   33.9680 H   0  0  0  0  0  0  0  0  0  0  0  0
   37.7880   32.8220   35.4930 H   0  0  0  0  0  0  0  0  0  0  0  0
   36.5310   27.7090   33.2140 C   0  0  0  0  0  0  0  0  0  0  0  0
   37.0660   28.3480   32.4640 H   0  0  0  0  0  0  0  0  0  0  0  0
   35.5100   27.4430   32.8750 H   0  0  0  0  0  0  0  0  0  0  0  0
   38.4730   24.7320   32.1490 C   0  0  0  0  0  0  0  0  0  0  0  0
   38.7740   24.1250   33.3570 C   0  0  0  0  0  0  0  0  0  0  0  0
   38.3220   24.7180   34.5280 C   0  0  0  0  0  0  0  0  0  0  0  0
   37.6070   25.8650   34.4120 N   0  0  0  0  0  0  0  0  0  0  0  0
   37.3360   26.4260   33.2170 C   0  0  0  0  0  0  0  0  0  0  0  0
   37.7630   25.8670   32.1030 N   0  0  0  0  0  0  0  0  0  0  0  0
   38.8450   24.2400   31.2450 H   0  0  0  0  0  0  0  0  0  0  0  0
   39.3310   23.2350   33.3890 H   0  0  0  0  0  0  0  0  0  0  0  0
   39.3900   23.2440   36.2940 C   0  0  0  0  0  0  0  0  0  0  0  0
   38.5330   24.2290   35.8750 C   0  0  0  0  0  0  0  0  0  0  0  0
   37.8130   24.7890   36.9080 C   0  0  0  0  0  0  0  0  0  0  0  0
   37.0940   25.5760   36.7580 H   0  0  0  0  0  0  0  0  0  0  0  0
   37.9400   24.3990   38.2250 C   0  0  0  0  0  3  0  0  0  0  0  0
   38.8040   23.4160   38.5900 C   0  0  0  0  0  3  0  0  0  0  0  0
   39.5470   22.8260   37.5960 C   0  0  0  0  0  0  0  0  0  0  0  0
   40.1640   22.6070   35.3650 O   0  0  0  0  0  0  0  0  0  0  0  0
   39.9520   21.6820   35.0330 H   0  0  0  0  0  0  0  0  0  0  0  0
   40.4360   21.8230   37.9340 O   0  0  0  0  0  0  0  0  0  0  0  0
   41.2820   21.9500   38.4670 H   0  0  0  0  0  0  0  0  0  0  0  0
  1  4  1  0  0  0  0
  1  3  1  0  0  0  0
  1  2  1  0  0  0  0
  4  8  1  0  0  0  0
  5  6  1  0  0  0  0
  5  4  2  0  0  0  0
  6  7  1  0  0  0  0
  7  9  1  0  0  0  0
  8  7  2  0  0  0  0
  9 10  1  0  0  0  0
 10 11  1  0  0  0  0
 10 17  1  0  0  0  0
 11 18  1  0  0  0  0
 12 20  1  0  0  0  0
 12 13  1  0  0  0  0
 12 11  1  0  0  0  0
 13 22  1  0  0  0  0
 14  9  1  0  0  0  0
 14 24  1  0  0  0  0
 14 13  1  0  0  0  0
 15  5  1  0  0  0  0
 16 10  1  0  0  0  0
 19 11  1  0  0  0  0
 21 13  1  0  0  0  0
 23 14  1  0  0  0  0
 25 32  1  0  0  0  0
 25  1  1  0  0  0  0
 26 25  1  0  0  0  0
 27 25  1  0  0  0  0
 28 29  1  0  0  0  0
 29 35  1  0  0  0  0
 29 30  2  0  0  0  0
 30 37  1  0  0  0  0
 31 30  1  0  0  0  0
 32 31  2  0  0  0  0
 33 28  2  0  0  0  0
 33 32  1  0  0  0  0
 34 28  1  0  0  0  0
 36 42  1  0  0  0  0
 37 36  2  0  0  0  0
 37 38  1  0  0  0  0
 38 40  2  0  0  0  0
 39 38  1  0  0  0  0
 40 41  1  0  0  0  0
 42 45  1  0  0  0  0
 42 41  2  0  0  0  0
 43 36  1  0  0  0  0
 44 43  1  0  0  0  0
 45 46  1  0  0  0  0
M  END
>  <minimizedAffinity>
-6.32266331

$$$$

 OpenBabel03272506103D

 46 49  0  0  0  0  0  0  0  0999 V2000
   36.6590   27.9310   31.9870 C   0  0  0  0  0  0  0  0  0  0  0  0
   36.0130   27.0940   31.6620 H   0  0  0  0  0  0  0  0  0  0  0  0
   35.9900   28.5370   32.6700 H   0  0  0  0  0  0  0  0  0  0  0  0
   37.0510   28.8100   30.8220 C   0  0  0  0  0  0  0  0  0  0  0  0
   36.4340   30.1160   30.6850 C   0  0  0  0  0  0  0  0  0  0  0  0
   37.2110   30.7050   29.2180 S   0  0  0  0  0  0  0  0  0  0  0  0
   38.2500   29.1660   28.9620 C   0  0  0  0  0  0  0  0  0  0  0  0
   37.9080   28.5160   29.8960 N   0  0  0  0  0  0  0  0  0  0  0  0
   39.2140   28.8240   27.9300 N   0  0  0  0  0  0  0  0  0  0  0  0
   39.9150   29.9010   27.3300 C   0  0  0  0  0  0  0  0  0  0  0  0
   40.6190   29.5520   26.0670 C   0  0  0  0  0  0  0  0  0  0  0  0
   40.2150   28.2530   25.5230 N   0  0  0  0  0  0  0  0  0  0  0  0
   40.5080   27.3100   26.5900 C   0  0  0  0  0  0  0  0  0  0  0  0
   39.3880   27.4200   27.5860 C   0  0  0  0  0  0  0  0  0  0  0  0
   35.7150   30.5350   31.3370 H   0  0  0  0  0  0  0  0  0  0  0  0
   39.1790   30.7050   27.0940 H   0  0  0  0  0  0  0  0  0  0  0  0
   40.6300   30.3650   28.0680 H   0  0  0  0  0  0  0  0  0  0  0  0
   41.7070   29.4210   26.2950 H   0  0  0  0  0  0  0  0  0  0  0  0
   40.5370   30.2950   25.2680 H   0  0  0  0  0  0  0  0  0  0  0  0
   40.7790   28.0820   24.6720 H   0  0  0  0  0  0  0  0  0  0  0  0
   40.5300   26.2630   26.2140 H   0  0  0  0  0  0  0  0  0  0  0  0
   41.4740   27.5160   27.0720 H   0  0  0  0  0  0  0  0  0  0  0  0
   38.4670   27.0170   27.0720 H   0  0  0  0  0  0  0  0  0  0  0  0
   39.6060   26.7810   28.4460 H   0  0  0  0  0  0  0  0  0  0  0  0
   37.8380   27.4870   32.7460 C   0  0  0  0  0  0  0  0  0  0  0  0
   37.8170   27.8930   33.7920 H   0  0  0  0  0  0  0  0  0  0  0  0
   38.7920   27.7210   32.2340 H   0  0  0  0  0  0  0  0  0  0  0  0
   37.5070   23.8310   32.2060 C   0  0  0  0  0  0  0  0  0  0  0  0
   37.8040   23.3170   33.4570 C   0  0  0  0  0  0  0  0  0  0  0  0
   38.1150   24.2020   34.4810 C   0  0  0  0  0  0  0  0  0  0  0  0
   38.1070   25.5260   34.1860 N   0  0  0  0  0  0  0  0  0  0  0  0
   37.8130   25.9870   32.9540 C   0  0  0  0  0  0  0  0  0  0  0  0
   37.5170   25.1510   31.9800 N   0  0  0  0  0  0  0  0  0  0  0  0
   37.2670   23.1070   31.4200 H   0  0  0  0  0  0  0  0  0  0  0  0
   37.7950   22.2810   33.6300 H   0  0  0  0  0  0  0  0  0  0  0  0
   39.3810   22.9510   36.2880 C   0  0  0  0  0  0  0  0  0  0  0  0
   38.4460   23.8520   35.8470 C   0  0  0  0  0  0  0  0  0  0  0  0
   37.7720   24.4730   36.8750 C   0  0  0  0  0  0  0  0  0  0  0  0
   37.0040   25.2080   36.7100 H   0  0  0  0  0  0  0  0  0  0  0  0
   38.0110   24.2150   38.2090 C   0  0  0  0  0  3  0  0  0  0  0  0
   38.9500   23.3120   38.5960 C   0  0  0  0  0  3  0  0  0  0  0  0
   39.6500   22.6650   37.6070 C   0  0  0  0  0  0  0  0  0  0  0  0
   40.1200   22.2660   35.3650 O   0  0  0  0  0  0  0  0  0  0  0  0
   39.9340   21.3050   35.1350 H   0  0  0  0  0  0  0  0  0  0  0  0
   40.6120   21.7400   37.9670 O   0  0  0  0  0  0  0  0  0  0  0  0
   41.4860   21.9560   38.4220 H   0  0  0  0  0  0  0  0  0  0  0  0
  1  3  1  0  0  0  0
  1 25  1  0  0  0  0
  2  1  1  0  0  0  0
  4  1  1  0  0  0  0
  5  4  2  0  0  0  0
  5 15  1  0  0  0  0
  6  5  1  0  0  0  0
  7  6  1  0  0  0  0
  7  8  2  0  0  0  0
  8  4  1  0  0  0  0
  9  7  1  0  0  0  0
 10  9  1  0  0  0  0
 10 17  1  0  0  0  0
 11 18  1  0  0  0  0
 11 10  1  0  0  0  0
 12 11  1  0  0  0  0
 12 13  1  0  0  0  0
 13 22  1  0  0  0  0
 13 14  1  0  0  0  0
 14  9  1  0  0  0  0
 14 24  1  0  0  0  0
 16 10  1  0  0  0  0
 19 11  1  0  0  0  0
 20 12  1  0  0  0  0
 21 13  1  0  0  0  0
 23 14  1  0  0  0  0
 25 32  1  0  0  0  0
 25 26  1  0  0  0  0
 27 25  1  0  0  0  0
 28 29  1  0  0  0  0
 29 35  1  0  0  0  0
 29 30  2  0  0  0  0
 30 37  1  0  0  0  0
 31 30  1  0  0  0  0
 32 31  2  0  0  0  0
 33 28  2  0  0  0  0
 33 32  1  0  0  0  0
 34 28  1  0  0  0  0
 36 42  1  0  0  0  0
 37 36  2  0  0  0  0
 37 38  1  0  0  0  0
 38 40  2  0  0  0  0
 39 38  1  0  0  0  0
 40 41  1  0  0  0  0
 42 45  1  0  0  0  0
 42 41  2  0  0  0  0
 43 36  1  0  0  0  0
 44 43  1  0  0  0  0
 45 46  1  0  0  0  0
M  END
>  <minimizedAffinity>
-6.25388432

$$$$
