
 OpenBabel03272509153D

 49 52  0  0  1  0  0  0  0  0999 V2000
   34.8000   30.0950   46.8000 C   0  0  0  0  0  0  0  0  0  0  0  0
   36.1300   30.5700   46.9010 C   0  0  0  0  0  0  0  0  0  0  0  0
   36.8460   30.7510   45.7230 C   0  0  0  0  0  0  0  0  0  0  0  0
   36.2410   30.4650   44.5370 N   0  0  0  0  0  0  0  0  0  0  0  0
   34.9750   30.0130   44.4780 C   0  0  0  0  0  0  0  0  0  0  0  0
   34.2620   29.8300   45.5880 N   0  0  0  0  0  0  0  0  0  0  0  0
   34.1750   29.9390   47.6500 H   0  0  0  0  0  0  0  0  0  0  0  0
   34.4600   29.7740   43.5460 H   0  0  0  0  0  0  0  0  0  0  0  0
   36.6040   30.8000   48.2470 N   0  0  0  0  0  0  0  0  0  0  0  0
   37.0380   31.8760   49.0890 C   0  0  0  0  0  0  0  0  0  0  0  0
   38.3430   31.3850   49.6310 C   0  0  0  0  0  0  0  0  0  0  0  0
   38.1210   29.8740   49.7690 C   0  0  0  0  0  0  0  0  0  0  0  0
   36.7660   29.6540   49.1870 C   0  0  1  0  0  0  0  0  0  0  0  0
   36.9560   32.8890   48.7600 H   0  0  0  0  0  0  0  0  0  0  0  0
   36.3340   31.8320   49.9800 H   0  0  0  0  0  0  0  0  0  0  0  0
   38.6010   31.8470   50.6100 H   0  0  0  0  0  0  0  0  0  0  0  0
   39.1880   31.5050   48.9550 H   0  0  0  0  0  0  0  0  0  0  0  0
   38.9310   29.2800   49.3340 H   0  0  0  0  0  0  0  0  0  0  0  0
   38.0860   29.6200   50.8620 H   0  0  0  0  0  0  0  0  0  0  0  0
   36.6050   28.7080   48.6770 H   0  0  0  0  0  0  0  0  0  0  0  0
   34.6890   28.9190   50.3350 C   0  0  0  0  0  0  0  0  0  0  0  0
   34.3870   28.0060   49.4980 O   0  0  0  0  0  0  0  0  0  0  0  0
   35.7790   29.8410   50.2490 N   0  0  0  0  0  0  0  0  0  0  0  0
   33.9030   28.7520   51.0490 H   0  0  0  0  0  0  0  0  0  0  0  0
   35.5660   30.4620   51.0510 H   0  0  0  0  0  0  0  0  0  0  0  0
   38.2020   31.2310   45.7090 C   0  0  0  0  0  0  0  0  0  0  0  0
   38.4580   32.4380   46.2900 C   0  0  0  0  0  0  0  0  0  0  0  0
   39.7270   32.9840   46.3560 C   0  0  0  0  0  0  0  0  0  0  0  0
   40.7740   32.2530   45.7970 C   0  0  0  0  0  0  0  0  0  0  0  0
   40.5770   31.0290   45.1930 C   0  0  0  0  0  0  0  0  0  0  0  0
   39.2590   30.5540   45.1740 C   0  0  0  0  0  0  0  0  0  0  0  0
   37.7820   33.1540   46.7200 H   0  0  0  0  0  0  0  0  0  0  0  0
   40.0630   33.8970   46.7780 H   0  0  0  0  0  0  0  0  0  0  0  0
   41.8140   32.5760   45.7890 H   0  0  0  0  0  0  0  0  0  0  0  0
   41.3870   30.4560   44.7530 H   0  0  0  0  0  0  0  0  0  0  0  0
   39.0260   29.2470   44.5210 C   0  0  0  0  0  0  0  0  0  0  0  0
   37.9100   29.0310   44.4940 H   0  0  0  0  0  0  0  0  0  0  0  0
   39.4600   28.4380   45.1530 H   0  0  0  0  0  0  0  0  0  0  0  0
   39.7320   27.9950   42.4010 C   0  0  0  0  0  0  0  0  0  0  0  0
   39.4600   29.1450   43.1140 C   0  0  0  0  0  0  0  0  0  0  0  0
   39.5970   30.3490   42.4110 C   0  0  0  0  0  0  0  0  0  0  0  0
   39.3960   31.2770   42.9180 H   0  0  0  0  0  0  0  0  0  0  0  0
   39.9810   30.4110   41.0770 C   0  0  0  0  0  3  0  0  0  0  0  0
   40.2510   29.2780   40.3610 C   0  0  0  0  0  3  0  0  0  0  0  0
   40.1160   28.0930   41.0600 C   0  0  0  0  0  0  0  0  0  0  0  0
   39.5970   26.8120   43.0860 O   0  0  0  0  0  0  0  0  0  0  0  0
   38.9960   26.0570   42.8400 H   0  0  0  0  0  0  0  0  0  0  0  0
   40.3850   26.9200   40.3560 O   0  0  0  0  0  0  0  0  0  0  0  0
   40.1730   26.8180   39.3680 H   0  0  0  0  0  0  0  0  0  0  0  0
  1  2  1  0  0  0  0
  1  7  1  0  0  0  0
  2  9  1  0  0  0  0
  3  2  2  0  0  0  0
  4  3  1  0  0  0  0
  5  4  2  0  0  0  0
  5  6  1  0  0  0  0
  6  1  2  0  0  0  0
  8  5  1  0  0  0  0
  9 10  1  0  0  0  0
  9 13  1  0  0  0  0
 10 11  1  0  0  0  0
 10 15  1  0  0  0  0
 11 12  1  0  0  0  0
 11 16  1  0  0  0  0
 12 19  1  0  0  0  0
 13 20  1  6  0  0  0
 13 12  1  0  0  0  0
 13 23  1  0  0  0  0
 14 10  1  0  0  0  0
 17 11  1  0  0  0  0
 18 12  1  0  0  0  0
 21 24  1  0  0  0  0
 22 21  2  0  0  0  0
 23 21  1  0  0  0  0
 23 25  1  0  0  0  0
 26  3  1  0  0  0  0
 26 27  1  0  0  0  0
 27 28  2  0  0  0  0
 27 32  1  0  0  0  0
 28 33  1  0  0  0  0
 29 28  1  0  0  0  0
 30 29  2  0  0  0  0
 31 30  1  0  0  0  0
 31 26  2  0  0  0  0
 34 29  1  0  0  0  0
 35 30  1  0  0  0  0
 36 38  1  0  0  0  0
 36 31  1  0  0  0  0
 37 36  1  0  0  0  0
 39 46  1  0  0  0  0
 39 40  1  0  0  0  0
 40 36  1  0  0  0  0
 41 42  1  0  0  0  0
 41 40  2  0  0  0  0
 43 41  1  0  0  0  0
 44 45  1  0  0  0  0
 44 43  2  0  0  0  0
 45 39  2  0  0  0  0
 47 46  1  0  0  0  0
 48 45  1  0  0  0  0
 49 48  1  0  0  0  0
M  END
>  <minimizedAffinity>
-6.25117683

>  <minimizedRMSD>
1.04230106

$$$$
