
 OpenBabel03272505533D

 46 49  0  0  1  0  0  0  0  0999 V2000
   39.2120   21.1720   32.0960 C   0  0  0  0  0  0  0  0  0  0  0  0
   38.0710   20.5650   32.6760 C   0  0  0  0  0  0  0  0  0  0  0  0
   37.0370   21.4070   33.0610 C   0  0  0  0  0  0  0  0  0  0  0  0
   37.1790   22.7470   32.8610 N   0  0  0  0  0  0  0  0  0  0  0  0
   38.2680   23.2750   32.3130 C   0  0  0  0  0  0  0  0  0  0  0  0
   39.2850   22.4910   31.9300 N   0  0  0  0  0  0  0  0  0  0  0  0
   38.3570   24.6780   32.1290 N   0  0  0  0  0  0  0  0  0  0  0  0
   39.1510   25.2570   31.0620 C   0  0  0  0  0  0  0  0  0  0  0  0
   38.3230   26.2040   30.2540 C   0  0  0  0  0  0  0  0  0  0  0  0
   37.1160   26.5860   30.8010 N   0  0  0  0  0  0  0  0  0  0  0  0
   36.8910   26.5560   32.2230 C   0  0  0  0  0  0  0  0  0  0  0  0
   37.6570   25.6020   33.0000 C   0  0  2  0  0  0  0  0  0  0  0  0
   40.0970   20.6220   31.7500 H   0  0  0  0  0  0  0  0  0  0  0  0
   38.0860   19.5050   32.7770 H   0  0  0  0  0  0  0  0  0  0  0  0
   36.1640   20.9660   33.5010 H   0  0  0  0  0  0  0  0  0  0  0  0
   40.1420   25.5890   31.3510 H   0  0  0  0  0  0  0  0  0  0  0  0
   39.3660   24.3820   30.3580 H   0  0  0  0  0  0  0  0  0  0  0  0
   38.1670   25.8720   29.2070 H   0  0  0  0  0  0  0  0  0  0  0  0
   38.9630   27.1290   30.1350 H   0  0  0  0  0  0  0  0  0  0  0  0
   36.2850   26.7100   30.2170 H   0  0  0  0  0  0  0  0  0  0  0  0
   35.8050   26.1930   32.2710 H   0  0  0  0  0  0  0  0  0  0  0  0
   36.7760   27.5880   32.5090 H   0  0  0  0  0  0  0  0  0  0  0  0
   37.0110   24.9710   33.6840 H   0  0  0  0  0  0  0  0  0  0  0  0
   38.6580   26.1950   33.8770 N   0  0  2  0  0  0  0  0  0  0  0  0
   39.4590   27.1910   33.1590 C   0  0  0  0  0  0  0  0  0  0  0  0
   40.8780   27.0830   33.6890 C   0  0  0  0  0  0  0  0  0  0  0  0
   40.7350   26.1530   34.8330 C   0  0  0  0  0  0  0  0  0  0  0  0
   39.5600   25.2490   34.4130 C   0  0  1  0  0  0  0  0  0  0  0  0
   39.4470   26.8960   32.0900 H   0  0  0  0  0  0  0  0  0  0  0  0
   39.0470   28.2010   33.2800 H   0  0  0  0  0  0  0  0  0  0  0  0
   41.2770   28.0840   33.9450 H   0  0  0  0  0  0  0  0  0  0  0  0
   41.5620   26.6600   32.9180 H   0  0  0  0  0  0  0  0  0  0  0  0
   41.6330   25.5410   35.0460 H   0  0  0  0  0  0  0  0  0  0  0  0
   40.3930   26.7220   35.7290 H   0  0  0  0  0  0  0  0  0  0  0  0
   40.0910   24.6150   33.6850 H   0  0  0  0  0  0  0  0  0  0  0  0
   39.8880   23.4660   36.1380 C   0  0  0  0  0  0  0  0  0  0  0  0
   39.2280   24.5990   35.6760 C   0  0  0  0  0  0  0  0  0  0  0  0
   38.2620   25.0340   36.5530 C   0  0  0  0  0  0  0  0  0  0  0  0
   37.6850   25.9170   36.3190 H   0  0  0  0  0  0  0  0  0  0  0  0
   37.9480   24.4490   37.7600 C   0  0  0  0  0  3  0  0  0  0  0  0
   38.6420   23.3260   38.1580 C   0  0  0  0  0  3  0  0  0  0  0  0
   39.6270   22.8290   37.3310 C   0  0  0  0  0  0  0  0  0  0  0  0
   40.8970   22.8770   35.3940 O   0  0  0  0  0  0  0  0  0  0  0  0
   40.6920   22.0610   34.8620 H   0  0  0  0  0  0  0  0  0  0  0  0
   40.2940   21.7110   37.7620 O   0  0  0  0  0  0  0  0  0  0  0  0
   39.7380   20.8800   37.9310 H   0  0  0  0  0  0  0  0  0  0  0  0
  1  2  1  0  0  0  0
  2 14  1  0  0  0  0
  2  3  2  0  0  0  0
  3 15  1  0  0  0  0
  4  3  1  0  0  0  0
  5  4  2  0  0  0  0
  6  1  2  0  0  0  0
  6  5  1  0  0  0  0
  7  5  1  0  0  0  0
  7 12  1  0  0  0  0
  8 16  1  0  0  0  0
  8  7  1  0  0  0  0
  9 10  1  0  0  0  0
  9  8  1  0  0  0  0
 10 11  1  0  0  0  0
 11 21  1  0  0  0  0
 11 22  1  0  0  0  0
 11 12  1  0  0  0  0
 12 23  1  1  0  0  0
 12 24  1  0  0  0  0
 13  1  1  0  0  0  0
 17  8  1  0  0  0  0
 18  9  1  0  0  0  0
 19  9  1  0  0  0  0
 20 10  1  0  0  0  0
 24 25  1  6  0  0  0
 24 28  1  0  0  0  0
 25 30  1  0  0  0  0
 25 26  1  0  0  0  0
 26 31  1  0  0  0  0
 26 27  1  0  0  0  0
 27 33  1  0  0  0  0
 27 34  1  0  0  0  0
 28 35  1  6  0  0  0
 28 27  1  0  0  0  0
 28 37  1  0  0  0  0
 29 25  1  0  0  0  0
 32 26  1  0  0  0  0
 36 42  1  0  0  0  0
 37 36  2  0  0  0  0
 37 38  1  0  0  0  0
 38 40  2  0  0  0  0
 39 38  1  0  0  0  0
 40 41  1  0  0  0  0
 42 45  1  0  0  0  0
 42 41  2  0  0  0  0
 43 36  1  0  0  0  0
 44 43  1  0  0  0  0
 45 46  1  0  0  0  0
M  END
>  <minimizedAffinity>
-6.16608334

$$$$

 OpenBabel03272505533D

 46 49  0  0  1  0  0  0  0  0999 V2000
   38.4330   28.6120   30.0330 C   0  0  0  0  0  0  0  0  0  0  0  0
   37.0930   29.0680   30.0160 C   0  0  0  0  0  0  0  0  0  0  0  0
   36.2660   28.6340   31.0430 C   0  0  0  0  0  0  0  0  0  0  0  0
   36.7860   27.8060   31.9910 N   0  0  0  0  0  0  0  0  0  0  0  0
   38.0520   27.4010   31.9690 C   0  0  0  0  0  0  0  0  0  0  0  0
   38.8760   27.8020   30.9920 N   0  0  0  0  0  0  0  0  0  0  0  0
   38.5350   26.5400   32.9860 N   0  0  0  0  0  0  0  0  0  0  0  0
   39.9310   26.5420   33.3850 C   0  0  0  0  0  0  0  0  0  0  0  0
   40.0480   26.7250   34.8630 C   0  0  0  0  0  0  0  0  0  0  0  0
   38.8910   26.5600   35.5970 N   0  0  0  0  0  0  0  0  0  0  0  0
   37.8020   25.7510   35.1140 C   0  0  0  0  0  0  0  0  0  0  0  0
   37.6580   25.6160   33.6770 C   0  0  2  0  0  0  0  0  0  0  0  0
   39.1880   28.8790   29.2810 H   0  0  0  0  0  0  0  0  0  0  0  0
   36.8120   29.7140   29.2160 H   0  0  0  0  0  0  0  0  0  0  0  0
   35.2470   28.9700   31.0480 H   0  0  0  0  0  0  0  0  0  0  0  0
   40.5410   25.7690   32.9320 H   0  0  0  0  0  0  0  0  0  0  0  0
   40.3560   27.5040   32.9360 H   0  0  0  0  0  0  0  0  0  0  0  0
   40.5370   27.6770   35.1540 H   0  0  0  0  0  0  0  0  0  0  0  0
   40.7910   25.9420   35.2010 H   0  0  0  0  0  0  0  0  0  0  0  0
   38.6850   27.1560   36.4030 H   0  0  0  0  0  0  0  0  0  0  0  0
   36.8970   26.3640   35.4590 H   0  0  0  0  0  0  0  0  0  0  0  0
   37.7540   24.9150   35.7900 H   0  0  0  0  0  0  0  0  0  0  0  0
   36.6080   25.8400   33.3170 H   0  0  0  0  0  0  0  0  0  0  0  0
   37.9530   24.2860   33.1590 N   0  0  2  0  0  0  0  0  0  0  0  0
   36.9520   23.8770   32.1700 C   0  0  0  0  0  0  0  0  0  0  0  0
   36.7310   22.3860   32.3540 C   0  0  0  0  0  0  0  0  0  0  0  0
   37.7890   22.0120   33.3210 C   0  0  0  0  0  0  0  0  0  0  0  0
   37.9750   23.2900   34.1600 C   0  0  1  0  0  0  0  0  0  0  0  0
   36.0160   24.4170   32.4230 H   0  0  0  0  0  0  0  0  0  0  0  0
   37.2700   24.1250   31.1490 H   0  0  0  0  0  0  0  0  0  0  0  0
   36.7770   21.8600   31.3810 H   0  0  0  0  0  0  0  0  0  0  0  0
   35.7210   22.1800   32.7750 H   0  0  0  0  0  0  0  0  0  0  0  0
   37.5350   21.1560   33.9760 H   0  0  0  0  0  0  0  0  0  0  0  0
   38.7470   21.8500   32.7740 H   0  0  0  0  0  0  0  0  0  0  0  0
   37.0720   23.2090   34.7870 H   0  0  0  0  0  0  0  0  0  0  0  0
   39.2900   22.5230   36.1460 C   0  0  0  0  0  0  0  0  0  0  0  0
   39.2320   23.0090   34.8440 C   0  0  0  0  0  0  0  0  0  0  0  0
   40.4800   23.1640   34.2880 C   0  0  0  0  0  0  0  0  0  0  0  0
   40.5720   23.5220   33.2730 H   0  0  0  0  0  0  0  0  0  0  0  0
   41.6780   22.8840   34.9070 C   0  0  0  0  0  3  0  0  0  0  0  0
   41.6650   22.4050   36.2000 C   0  0  0  0  0  3  0  0  0  0  0  0
   40.4500   22.2220   36.8260 C   0  0  0  0  0  0  0  0  0  0  0  0
   38.1350   22.2990   36.8740 O   0  0  0  0  0  0  0  0  0  0  0  0
   37.8560   22.9700   37.5560 H   0  0  0  0  0  0  0  0  0  0  0  0
   40.4790   21.7440   38.1110 O   0  0  0  0  0  0  0  0  0  0  0  0
   40.9750   22.2990   38.7980 H   0  0  0  0  0  0  0  0  0  0  0  0
  1  6  1  0  0  0  0
  2  1  2  0  0  0  0
  2  3  1  0  0  0  0
  3 15  1  0  0  0  0
  3  4  2  0  0  0  0
  5  4  1  0  0  0  0
  5  7  1  0  0  0  0
  6  5  2  0  0  0  0
  7  8  1  0  0  0  0
  7 12  1  0  0  0  0
  8  9  1  0  0  0  0
  9 18  1  0  0  0  0
  9 19  1  0  0  0  0
  9 10  1  0  0  0  0
 10 20  1  0  0  0  0
 11 21  1  0  0  0  0
 11 10  1  0  0  0  0
 11 22  1  0  0  0  0
 12 23  1  6  0  0  0
 12 11  1  0  0  0  0
 13  1  1  0  0  0  0
 14  2  1  0  0  0  0
 16  8  1  0  0  0  0
 17  8  1  0  0  0  0
 24 25  1  6  0  0  0
 24 12  1  0  0  0  0
 24 28  1  0  0  0  0
 25 26  1  0  0  0  0
 25 29  1  0  0  0  0
 26 32  1  0  0  0  0
 26 27  1  0  0  0  0
 27 33  1  0  0  0  0
 27 28  1  0  0  0  0
 28 35  1  1  0  0  0
 28 37  1  0  0  0  0
 30 25  1  0  0  0  0
 31 26  1  0  0  0  0
 34 27  1  0  0  0  0
 36 42  1  0  0  0  0
 36 43  1  0  0  0  0
 37 36  2  0  0  0  0
 38 37  1  0  0  0  0
 38 40  2  0  0  0  0
 39 38  1  0  0  0  0
 40 41  1  0  0  0  0
 41 42  2  0  0  0  0
 42 45  1  0  0  0  0
 43 44  1  0  0  0  0
 45 46  1  0  0  0  0
M  END
>  <minimizedAffinity>
-6.15886211

$$$$

 OpenBabel03272505533D

 46 49  0  0  1  0  0  0  0  0999 V2000
   37.1520   28.7980   29.6010 C   0  0  0  0  0  0  0  0  0  0  0  0
   38.5130   28.9240   29.2310 C   0  0  0  0  0  0  0  0  0  0  0  0
   39.3970   27.9880   29.7500 C   0  0  0  0  0  0  0  0  0  0  0  0
   38.9100   27.0180   30.5730 N   0  0  0  0  0  0  0  0  0  0  0  0
   37.6220   26.9360   30.8950 C   0  0  0  0  0  0  0  0  0  0  0  0
   36.7430   27.8240   30.4120 N   0  0  0  0  0  0  0  0  0  0  0  0
   37.1750   25.9030   31.7550 N   0  0  0  0  0  0  0  0  0  0  0  0
   35.8230   25.3790   31.6770 C   0  0  0  0  0  0  0  0  0  0  0  0
   35.8500   23.8920   31.5350 C   0  0  0  0  0  0  0  0  0  0  0  0
   37.0540   23.2700   31.7960 N   0  0  0  0  0  0  0  0  0  0  0  0
   38.0390   23.8710   32.6570 C   0  0  0  0  0  0  0  0  0  0  0  0
   38.0470   25.3180   32.7550 C   0  0  2  0  0  0  0  0  0  0  0  0
   36.3540   29.4710   29.2620 H   0  0  0  0  0  0  0  0  0  0  0  0
   38.7650   29.7290   28.5800 H   0  0  0  0  0  0  0  0  0  0  0  0
   40.4320   28.0660   29.4800 H   0  0  0  0  0  0  0  0  0  0  0  0
   35.1250   25.7950   32.3950 H   0  0  0  0  0  0  0  0  0  0  0  0
   35.4250   25.7630   30.6760 H   0  0  0  0  0  0  0  0  0  0  0  0
   35.4520   23.5340   30.5630 H   0  0  0  0  0  0  0  0  0  0  0  0
   35.0890   23.5090   32.2780 H   0  0  0  0  0  0  0  0  0  0  0  0
   37.3690   22.4710   31.2400 H   0  0  0  0  0  0  0  0  0  0  0  0
   39.0100   23.5940   32.1140 H   0  0  0  0  0  0  0  0  0  0  0  0
   38.0910   23.2240   33.5160 H   0  0  0  0  0  0  0  0  0  0  0  0
   39.0730   25.7660   32.5870 H   0  0  0  0  0  0  0  0  0  0  0  0
   37.6190   25.8420   34.0460 N   0  0  2  0  0  0  0  0  0  0  0  0
   37.0240   27.1730   33.8990 C   0  0  0  0  0  0  0  0  0  0  0  0
   37.4340   27.9790   35.1180 C   0  0  0  0  0  0  0  0  0  0  0  0
   38.0810   26.9650   35.9830 C   0  0  0  0  0  0  0  0  0  0  0  0
   38.6760   25.9630   34.9750 C   0  0  1  0  0  0  0  0  0  0  0  0
   37.4790   27.6260   32.9940 H   0  0  0  0  0  0  0  0  0  0  0  0
   35.9340   27.1160   33.7880 H   0  0  0  0  0  0  0  0  0  0  0  0
   36.5570   28.4870   35.5660 H   0  0  0  0  0  0  0  0  0  0  0  0
   38.1550   28.7820   34.8440 H   0  0  0  0  0  0  0  0  0  0  0  0
   38.8750   27.3610   36.6460 H   0  0  0  0  0  0  0  0  0  0  0  0
   37.2970   26.4130   36.5530 H   0  0  0  0  0  0  0  0  0  0  0  0
   39.5470   26.5550   34.6490 H   0  0  0  0  0  0  0  0  0  0  0  0
   40.1150   24.0370   35.6690 C   0  0  0  0  0  0  0  0  0  0  0  0
   38.9850   24.8290   35.8400 C   0  0  0  0  0  0  0  0  0  0  0  0
   38.2270   24.4340   36.9170 C   0  0  0  0  0  0  0  0  0  0  0  0
   37.3280   24.9780   37.1670 H   0  0  0  0  0  0  0  0  0  0  0  0
   38.5110   23.3810   37.7590 C   0  0  0  0  0  3  0  0  0  0  0  0
   39.6490   22.6350   37.5320 C   0  0  0  0  0  3  0  0  0  0  0  0
   40.4610   22.9700   36.4700 C   0  0  0  0  0  0  0  0  0  0  0  0
   41.0050   24.2790   34.6370 O   0  0  0  0  0  0  0  0  0  0  0  0
   40.9640   23.7100   33.8200 H   0  0  0  0  0  0  0  0  0  0  0  0
   41.5820   22.2050   36.2790 O   0  0  0  0  0  0  0  0  0  0  0  0
   41.4400   21.2140   36.1160 H   0  0  0  0  0  0  0  0  0  0  0  0
  1  6  1  0  0  0  0
  2  1  2  0  0  0  0
  2  3  1  0  0  0  0
  3  4  2  0  0  0  0
  4  5  1  0  0  0  0
  5  7  1  0  0  0  0
  6  5  2  0  0  0  0
  7 12  1  0  0  0  0
  8  7  1  0  0  0  0
  8 16  1  0  0  0  0
  9  8  1  0  0  0  0
  9 10  1  0  0  0  0
  9 19  1  0  0  0  0
 10 11  1  0  0  0  0
 11 12  1  0  0  0  0
 11 22  1  0  0  0  0
 12 23  1  6  0  0  0
 12 24  1  0  0  0  0
 13  1  1  0  0  0  0
 14  2  1  0  0  0  0
 15  3  1  0  0  0  0
 17  8  1  0  0  0  0
 18  9  1  0  0  0  0
 20 10  1  0  0  0  0
 21 11  1  0  0  0  0
 24 25  1  6  0  0  0
 24 28  1  0  0  0  0
 25 26  1  0  0  0  0
 26 31  1  0  0  0  0
 26 27  1  0  0  0  0
 27 34  1  0  0  0  0
 27 33  1  0  0  0  0
 28 35  1  6  0  0  0
 28 37  1  0  0  0  0
 28 27  1  0  0  0  0
 29 25  1  0  0  0  0
 30 25  1  0  0  0  0
 32 26  1  0  0  0  0
 36 37  2  0  0  0  0
 36 42  1  0  0  0  0
 37 38  1  0  0  0  0
 38 39  1  0  0  0  0
 38 40  2  0  0  0  0
 41 40  1  0  0  0  0
 42 41  2  0  0  0  0
 43 36  1  0  0  0  0
 44 43  1  0  0  0  0
 45 42  1  0  0  0  0
 46 45  1  0  0  0  0
M  END
>  <minimizedAffinity>
-6.11245155

$$$$

 OpenBabel03272505533D

 46 49  0  0  1  0  0  0  0  0999 V2000
   40.4460   26.8310   28.9900 C   0  0  0  0  0  0  0  0  0  0  0  0
   39.4210   27.8070   28.9440 C   0  0  0  0  0  0  0  0  0  0  0  0
   38.8180   28.1430   30.1490 C   0  0  0  0  0  0  0  0  0  0  0  0
   39.2410   27.5230   31.2850 N   0  0  0  0  0  0  0  0  0  0  0  0
   40.2080   26.6110   31.2820 C   0  0  0  0  0  0  0  0  0  0  0  0
   40.8110   26.2630   30.1370 N   0  0  0  0  0  0  0  0  0  0  0  0
   40.6060   26.0010   32.4980 N   0  0  0  0  0  0  0  0  0  0  0  0
   41.9550   25.5050   32.6950 C   0  0  0  0  0  0  0  0  0  0  0  0
   42.5420   26.0780   33.9440 C   0  0  0  0  0  0  0  0  0  0  0  0
   41.6630   26.6940   34.8100 N   0  0  0  0  0  0  0  0  0  0  0  0
   40.2640   26.3520   34.8320 C   0  0  0  0  0  0  0  0  0  0  0  0
   39.6830   25.8440   33.6050 C   0  0  2  0  0  0  0  0  0  0  0  0
   41.0020   26.4750   28.1120 H   0  0  0  0  0  0  0  0  0  0  0  0
   39.1840   28.2160   27.9890 H   0  0  0  0  0  0  0  0  0  0  0  0
   38.0400   28.8820   30.1340 H   0  0  0  0  0  0  0  0  0  0  0  0
   42.0850   24.4410   32.5300 H   0  0  0  0  0  0  0  0  0  0  0  0
   42.5590   25.9740   31.8450 H   0  0  0  0  0  0  0  0  0  0  0  0
   43.4080   26.7470   33.7590 H   0  0  0  0  0  0  0  0  0  0  0  0
   43.0080   25.2000   34.4830 H   0  0  0  0  0  0  0  0  0  0  0  0
   41.9270   27.5410   35.3190 H   0  0  0  0  0  0  0  0  0  0  0  0
   39.7850   27.3800   34.9990 H   0  0  0  0  0  0  0  0  0  0  0  0
   40.1050   25.8920   35.7920 H   0  0  0  0  0  0  0  0  0  0  0  0
   38.7330   26.3860   33.3100 H   0  0  0  0  0  0  0  0  0  0  0  0
   39.3090   24.4360   33.6460 N   0  0  2  0  0  0  0  0  0  0  0  0
   38.9590   23.9480   32.3090 C   0  0  0  0  0  0  0  0  0  0  0  0
   37.8170   22.9630   32.4820 C   0  0  0  0  0  0  0  0  0  0  0  0
   37.7320   22.8090   33.9530 C   0  0  0  0  0  0  0  0  0  0  0  0
   38.2000   24.1780   34.4830 C   0  0  1  0  0  0  0  0  0  0  0  0
   38.5970   24.8270   31.7360 H   0  0  0  0  0  0  0  0  0  0  0  0
   39.8240   23.4960   31.8070 H   0  0  0  0  0  0  0  0  0  0  0  0
   38.0180   22.0280   31.9240 H   0  0  0  0  0  0  0  0  0  0  0  0
   36.8670   23.3750   32.0730 H   0  0  0  0  0  0  0  0  0  0  0  0
   36.7200   22.5760   34.3360 H   0  0  0  0  0  0  0  0  0  0  0  0
   38.4890   22.0630   34.2900 H   0  0  0  0  0  0  0  0  0  0  0  0
   37.2860   24.7570   34.2740 H   0  0  0  0  0  0  0  0  0  0  0  0
   39.4010   22.9720   36.3170 C   0  0  0  0  0  0  0  0  0  0  0  0
   38.4380   23.8800   35.8910 C   0  0  0  0  0  0  0  0  0  0  0  0
   37.7700   24.4650   36.9410 C   0  0  0  0  0  0  0  0  0  0  0  0
   37.0040   25.2000   36.7450 H   0  0  0  0  0  0  0  0  0  0  0  0
   37.9930   24.2140   38.2770 C   0  0  0  0  0  3  0  0  0  0  0  0
   38.9640   23.3010   38.6310 C   0  0  0  0  0  3  0  0  0  0  0  0
   39.6780   22.6720   37.6330 C   0  0  0  0  0  0  0  0  0  0  0  0
   40.1810   22.2810   35.4050 O   0  0  0  0  0  0  0  0  0  0  0  0
   39.9500   21.3350   35.1920 H   0  0  0  0  0  0  0  0  0  0  0  0
   40.6350   21.7720   38.0260 O   0  0  0  0  0  0  0  0  0  0  0  0
   40.3230   20.9800   38.5770 H   0  0  0  0  0  0  0  0  0  0  0  0
  1  6  1  0  0  0  0
  2  1  2  0  0  0  0
  2  3  1  0  0  0  0
  3  4  2  0  0  0  0
  5  4  1  0  0  0  0
  5  7  1  0  0  0  0
  6  5  2  0  0  0  0
  7  8  1  0  0  0  0
  7 12  1  0  0  0  0
  8  9  1  0  0  0  0
  9 19  1  0  0  0  0
  9 10  1  0  0  0  0
 10 11  1  0  0  0  0
 10 20  1  0  0  0  0
 11 21  1  0  0  0  0
 11 22  1  0  0  0  0
 12 23  1  6  0  0  0
 12 24  1  0  0  0  0
 12 11  1  0  0  0  0
 13  1  1  0  0  0  0
 14  2  1  0  0  0  0
 15  3  1  0  0  0  0
 16  8  1  0  0  0  0
 17  8  1  0  0  0  0
 18  9  1  0  0  0  0
 24 25  1  6  0  0  0
 24 28  1  0  0  0  0
 25 26  1  0  0  0  0
 26 27  1  0  0  0  0
 27 34  1  0  0  0  0
 27 33  1  0  0  0  0
 27 28  1  0  0  0  0
 28 35  1  6  0  0  0
 28 37  1  0  0  0  0
 29 25  1  0  0  0  0
 30 25  1  0  0  0  0
 31 26  1  0  0  0  0
 32 26  1  0  0  0  0
 36 42  1  0  0  0  0
 37 36  2  0  0  0  0
 37 38  1  0  0  0  0
 38 40  2  0  0  0  0
 39 38  1  0  0  0  0
 40 41  1  0  0  0  0
 42 45  1  0  0  0  0
 42 41  2  0  0  0  0
 43 36  1  0  0  0  0
 44 43  1  0  0  0  0
 45 46  1  0  0  0  0
M  END
>  <minimizedAffinity>
-6.08662987

$$$$

 OpenBabel03272505533D

 46 49  0  0  1  0  0  0  0  0999 V2000
   40.2140   26.6980   28.1590 C   0  0  0  0  0  0  0  0  0  0  0  0
   41.0110   25.5690   27.8490 C   0  0  0  0  0  0  0  0  0  0  0  0
   40.9090   24.4740   28.6960 C   0  0  0  0  0  0  0  0  0  0  0  0
   40.0620   24.5490   29.7590 N   0  0  0  0  0  0  0  0  0  0  0  0
   39.3300   25.6290   30.0140 C   0  0  0  0  0  0  0  0  0  0  0  0
   39.4050   26.7040   29.2160 N   0  0  0  0  0  0  0  0  0  0  0  0
   38.4640   25.6470   31.1350 N   0  0  0  0  0  0  0  0  0  0  0  0
   37.2570   26.4520   31.1520 C   0  0  0  0  0  0  0  0  0  0  0  0
   36.0750   25.6080   31.5030 C   0  0  0  0  0  0  0  0  0  0  0  0
   36.3440   24.3580   32.0230 N   0  0  0  0  0  0  0  0  0  0  0  0
   37.5840   24.0760   32.6980 C   0  0  0  0  0  0  0  0  0  0  0  0
   38.7430   24.8600   32.3210 C   0  0  2  0  0  0  0  0  0  0  0  0
   40.2000   27.6260   27.5730 H   0  0  0  0  0  0  0  0  0  0  0  0
   41.6340   25.6390   26.9870 H   0  0  0  0  0  0  0  0  0  0  0  0
   41.5050   23.6090   28.4760 H   0  0  0  0  0  0  0  0  0  0  0  0
   37.3470   27.4090   31.6530 H   0  0  0  0  0  0  0  0  0  0  0  0
   37.0930   26.7450   30.0590 H   0  0  0  0  0  0  0  0  0  0  0  0
   35.3380   25.5140   30.6800 H   0  0  0  0  0  0  0  0  0  0  0  0
   35.5100   26.1980   32.2850 H   0  0  0  0  0  0  0  0  0  0  0  0
   35.7700   23.5480   31.7780 H   0  0  0  0  0  0  0  0  0  0  0  0
   37.8000   23.0100   32.3340 H   0  0  0  0  0  0  0  0  0  0  0  0
   37.3080   23.8910   33.7230 H   0  0  0  0  0  0  0  0  0  0  0  0
   39.6470   24.2220   32.0770 H   0  0  0  0  0  0  0  0  0  0  0  0
   39.2090   25.7890   33.3430 N   0  0  2  0  0  0  0  0  0  0  0  0
   39.9010   26.9300   32.7380 C   0  0  0  0  0  0  0  0  0  0  0  0
   41.0460   27.2960   33.6640 C   0  0  0  0  0  0  0  0  0  0  0  0
   40.7960   26.4470   34.8520 C   0  0  0  0  0  0  0  0  0  0  0  0
   40.1070   25.2010   34.2610 C   0  0  1  0  0  0  0  0  0  0  0  0
   40.3150   26.5730   31.7720 H   0  0  0  0  0  0  0  0  0  0  0  0
   39.2170   27.7720   32.5710 H   0  0  0  0  0  0  0  0  0  0  0  0
   41.0570   28.3870   33.8610 H   0  0  0  0  0  0  0  0  0  0  0  0
   42.0290   27.0510   33.2030 H   0  0  0  0  0  0  0  0  0  0  0  0
   41.7060   26.1540   35.4110 H   0  0  0  0  0  0  0  0  0  0  0  0
   40.0430   26.9440   35.5080 H   0  0  0  0  0  0  0  0  0  0  0  0
   40.9950   24.7120   33.8300 H   0  0  0  0  0  0  0  0  0  0  0  0
   40.1730   23.4700   36.0670 C   0  0  0  0  0  0  0  0  0  0  0  0
   39.5720   24.5690   35.4610 C   0  0  0  0  0  0  0  0  0  0  0  0
   38.4490   24.9880   36.1360 C   0  0  0  0  0  0  0  0  0  0  0  0
   37.8970   25.8430   35.7750 H   0  0  0  0  0  0  0  0  0  0  0  0
   37.9390   24.4190   37.2820 C   0  0  0  0  0  3  0  0  0  0  0  0
   38.5840   23.3310   37.8310 C   0  0  0  0  0  3  0  0  0  0  0  0
   39.7190   22.8510   37.2120 C   0  0  0  0  0  0  0  0  0  0  0  0
   41.3180   22.9030   35.5360 O   0  0  0  0  0  0  0  0  0  0  0  0
   41.2390   22.0670   34.9990 H   0  0  0  0  0  0  0  0  0  0  0  0
   40.3310   21.7690   37.7880 O   0  0  0  0  0  0  0  0  0  0  0  0
   39.7810   20.9220   37.8780 H   0  0  0  0  0  0  0  0  0  0  0  0
  1  6  1  0  0  0  0
  2  1  2  0  0  0  0
  2  3  1  0  0  0  0
  3  4  2  0  0  0  0
  4  5  1  0  0  0  0
  5  7  1  0  0  0  0
  6  5  2  0  0  0  0
  7  8  1  0  0  0  0
  7 12  1  0  0  0  0
  8  9  1  0  0  0  0
  8 16  1  0  0  0  0
  9 10  1  0  0  0  0
  9 19  1  0  0  0  0
 10 11  1  0  0  0  0
 11 22  1  0  0  0  0
 12 23  1  6  0  0  0
 12 11  1  0  0  0  0
 12 24  1  0  0  0  0
 13  1  1  0  0  0  0
 14  2  1  0  0  0  0
 15  3  1  0  0  0  0
 17  8  1  0  0  0  0
 18  9  1  0  0  0  0
 20 10  1  0  0  0  0
 21 11  1  0  0  0  0
 24 25  1  6  0  0  0
 24 28  1  0  0  0  0
 25 26  1  0  0  0  0
 26 31  1  0  0  0  0
 26 27  1  0  0  0  0
 27 33  1  0  0  0  0
 27 34  1  0  0  0  0
 28 35  1  6  0  0  0
 28 27  1  0  0  0  0
 28 37  1  0  0  0  0
 29 25  1  0  0  0  0
 30 25  1  0  0  0  0
 32 26  1  0  0  0  0
 36 42  1  0  0  0  0
 37 36  2  0  0  0  0
 37 38  1  0  0  0  0
 38 40  2  0  0  0  0
 39 38  1  0  0  0  0
 40 41  1  0  0  0  0
 42 45  1  0  0  0  0
 42 41  2  0  0  0  0
 43 36  1  0  0  0  0
 44 43  1  0  0  0  0
 45 46  1  0  0  0  0
M  END
>  <minimizedAffinity>
-5.97280788

$$$$

 OpenBabel03272505533D

 46 49  0  0  1  0  0  0  0  0999 V2000
   37.3380   27.3360   33.5240 C   0  0  0  0  0  0  0  0  0  0  0  0
   37.1340   27.4800   34.9180 C   0  0  0  0  0  0  0  0  0  0  0  0
   38.2500   27.3600   35.7350 C   0  0  0  0  0  0  0  0  0  0  0  0
   39.4580   27.1160   35.1550 N   0  0  0  0  0  0  0  0  0  0  0  0
   39.6060   26.9880   33.8400 C   0  0  0  0  0  0  0  0  0  0  0  0
   38.5490   27.0970   33.0240 N   0  0  0  0  0  0  0  0  0  0  0  0
   40.8890   26.7350   33.2960 N   0  0  0  0  0  0  0  0  0  0  0  0
   41.2480   27.1680   31.9580 C   0  0  0  0  0  0  0  0  0  0  0  0
   42.5110   27.9650   31.9910 C   0  0  0  0  0  0  0  0  0  0  0  0
   43.2480   27.9020   33.1550 N   0  0  0  0  0  0  0  0  0  0  0  0
   43.1530   26.7740   34.0450 C   0  0  0  0  0  0  0  0  0  0  0  0
   41.9080   26.0310   34.0510 C   0  0  2  0  0  0  0  0  0  0  0  0
   36.5430   27.4080   32.7710 H   0  0  0  0  0  0  0  0  0  0  0  0
   36.1370   27.6690   35.2440 H   0  0  0  0  0  0  0  0  0  0  0  0
   38.1150   27.4670   36.7940 H   0  0  0  0  0  0  0  0  0  0  0  0
   41.1610   26.4090   31.1880 H   0  0  0  0  0  0  0  0  0  0  0  0
   40.4340   27.9200   31.6730 H   0  0  0  0  0  0  0  0  0  0  0  0
   42.3720   29.0260   31.6990 H   0  0  0  0  0  0  0  0  0  0  0  0
   43.1460   27.5500   31.1520 H   0  0  0  0  0  0  0  0  0  0  0  0
   43.7290   28.7260   33.5240 H   0  0  0  0  0  0  0  0  0  0  0  0
   43.2100   27.2890   35.0680 H   0  0  0  0  0  0  0  0  0  0  0  0
   44.1190   26.3000   34.0000 H   0  0  0  0  0  0  0  0  0  0  0  0
   41.4890   25.8810   35.0920 H   0  0  0  0  0  0  0  0  0  0  0  0
   41.9970   24.6890   33.4890 N   0  0  2  0  0  0  0  0  0  0  0  0
   41.9530   24.7310   32.0240 C   0  0  0  0  0  0  0  0  0  0  0  0
   41.1710   23.5120   31.5700 C   0  0  0  0  0  0  0  0  0  0  0  0
   40.9940   22.7450   32.8240 C   0  0  0  0  0  0  0  0  0  0  0  0
   40.9500   23.8390   33.9090 C   0  0  1  0  0  0  0  0  0  0  0  0
   41.3910   25.6470   31.7500 H   0  0  0  0  0  0  0  0  0  0  0  0
   42.9620   24.7610   31.5930 H   0  0  0  0  0  0  0  0  0  0  0  0
   41.7120   22.9770   30.7650 H   0  0  0  0  0  0  0  0  0  0  0  0
   40.1850   23.8050   31.1440 H   0  0  0  0  0  0  0  0  0  0  0  0
   40.0750   22.1280   32.8640 H   0  0  0  0  0  0  0  0  0  0  0  0
   41.9120   22.1420   33.0200 H   0  0  0  0  0  0  0  0  0  0  0  0
   39.9250   24.2040   33.7330 H   0  0  0  0  0  0  0  0  0  0  0  0
   40.2950   23.1720   36.2300 C   0  0  0  0  0  0  0  0  0  0  0  0
   41.1290   23.0520   35.1240 C   0  0  0  0  0  0  0  0  0  0  0  0
   42.1050   22.1000   35.3070 C   0  0  0  0  0  0  0  0  0  0  0  0
   42.8110   21.8990   34.5140 H   0  0  0  0  0  0  0  0  0  0  0  0
   42.2780   21.3310   36.4360 C   0  0  0  0  0  3  0  0  0  0  0  0
   41.4160   21.5020   37.4980 C   0  0  0  0  0  3  0  0  0  0  0  0
   40.4090   22.4380   37.3900 C   0  0  0  0  0  0  0  0  0  0  0  0
   39.2490   24.0790   36.2370 O   0  0  0  0  0  0  0  0  0  0  0  0
   39.3610   24.9430   36.7200 H   0  0  0  0  0  0  0  0  0  0  0  0
   39.5720   22.5770   38.4670 O   0  0  0  0  0  0  0  0  0  0  0  0
   39.9970   22.8420   39.3490 H   0  0  0  0  0  0  0  0  0  0  0  0
  1  2  1  0  0  0  0
  2 14  1  0  0  0  0
  2  3  2  0  0  0  0
  3 15  1  0  0  0  0
  4  3  1  0  0  0  0
  5  4  2  0  0  0  0
  6  1  2  0  0  0  0
  6  5  1  0  0  0  0
  7  5  1  0  0  0  0
  7 12  1  0  0  0  0
  8  9  1  0  0  0  0
  8  7  1  0  0  0  0
  9 10  1  0  0  0  0
 10 20  1  0  0  0  0
 10 11  1  0  0  0  0
 11 12  1  0  0  0  0
 11 21  1  0  0  0  0
 12 23  1  1  0  0  0
 13  1  1  0  0  0  0
 16  8  1  0  0  0  0
 17  8  1  0  0  0  0
 18  9  1  0  0  0  0
 19  9  1  0  0  0  0
 22 11  1  0  0  0  0
 24 25  1  6  0  0  0
 24 28  1  0  0  0  0
 24 12  1  0  0  0  0
 26 25  1  0  0  0  0
 26 27  1  0  0  0  0
 27 33  1  0  0  0  0
 27 34  1  0  0  0  0
 27 28  1  0  0  0  0
 28 35  1  1  0  0  0
 28 37  1  0  0  0  0
 29 25  1  0  0  0  0
 30 25  1  0  0  0  0
 31 26  1  0  0  0  0
 32 26  1  0  0  0  0
 36 43  1  0  0  0  0
 36 42  1  0  0  0  0
 37 38  1  0  0  0  0
 37 36  2  0  0  0  0
 38 40  2  0  0  0  0
 39 38  1  0  0  0  0
 40 41  1  0  0  0  0
 42 41  2  0  0  0  0
 42 45  1  0  0  0  0
 43 44  1  0  0  0  0
 45 46  1  0  0  0  0
M  END
>  <minimizedAffinity>
-5.9018383

$$$$

 OpenBabel03272505533D

 46 49  0  0  1  0  0  0  0  0999 V2000
   38.4380   28.2540   30.3530 C   0  0  0  0  0  0  0  0  0  0  0  0
   37.0620   28.2870   30.0210 C   0  0  0  0  0  0  0  0  0  0  0  0
   36.1880   27.6580   30.8970 C   0  0  0  0  0  0  0  0  0  0  0  0
   36.6980   27.0550   32.0060 N   0  0  0  0  0  0  0  0  0  0  0  0
   37.9990   27.0470   32.2800 C   0  0  0  0  0  0  0  0  0  0  0  0
   38.8700   27.6450   31.4560 N   0  0  0  0  0  0  0  0  0  0  0  0
   38.4700   26.4040   33.4510 N   0  0  0  0  0  0  0  0  0  0  0  0
   39.6820   26.8370   34.1230 C   0  0  0  0  0  0  0  0  0  0  0  0
   39.4110   27.0930   35.5690 C   0  0  0  0  0  0  0  0  0  0  0  0
   38.2160   26.6130   36.0660 N   0  0  0  0  0  0  0  0  0  0  0  0
   37.5400   25.5000   35.4520 C   0  0  0  0  0  0  0  0  0  0  0  0
   37.7620   25.2820   34.0360 C   0  0  2  0  0  0  0  0  0  0  0  0
   39.2320   28.7110   29.7480 H   0  0  0  0  0  0  0  0  0  0  0  0
   36.7930   28.7930   29.1230 H   0  0  0  0  0  0  0  0  0  0  0  0
   35.1410   27.6730   30.6630 H   0  0  0  0  0  0  0  0  0  0  0  0
   40.5720   26.2680   33.8790 H   0  0  0  0  0  0  0  0  0  0  0  0
   39.9030   27.8670   33.6780 H   0  0  0  0  0  0  0  0  0  0  0  0
   39.5310   28.1570   35.8600 H   0  0  0  0  0  0  0  0  0  0  0  0
   40.2520   26.5800   36.1240 H   0  0  0  0  0  0  0  0  0  0  0  0
   37.6760   27.1450   36.7530 H   0  0  0  0  0  0  0  0  0  0  0  0
   36.4440   25.8240   35.5460 H   0  0  0  0  0  0  0  0  0  0  0  0
   37.5840   24.7090   36.1820 H   0  0  0  0  0  0  0  0  0  0  0  0
   36.8000   25.1690   33.4510 H   0  0  0  0  0  0  0  0  0  0  0  0
   38.5320   24.0860   33.7190 N   0  0  2  0  0  0  0  0  0  0  0  0
   39.9640   24.3910   33.6380 C   0  0  0  0  0  0  0  0  0  0  0  0
   40.5370   23.5330   32.5240 C   0  0  0  0  0  0  0  0  0  0  0  0
   39.4080   22.6400   32.1790 C   0  0  0  0  0  0  0  0  0  0  0  0
   38.1660   23.4980   32.4880 C   0  0  1  0  0  0  0  0  0  0  0  0
   40.0440   25.4600   33.3510 H   0  0  0  0  0  0  0  0  0  0  0  0
   40.4670   24.2150   34.5970 H   0  0  0  0  0  0  0  0  0  0  0  0
   41.4580   23.0170   32.8610 H   0  0  0  0  0  0  0  0  0  0  0  0
   40.8290   24.1560   31.6490 H   0  0  0  0  0  0  0  0  0  0  0  0
   39.3890   22.3040   31.1240 H   0  0  0  0  0  0  0  0  0  0  0  0
   39.3850   21.7820   32.8920 H   0  0  0  0  0  0  0  0  0  0  0  0
   38.1970   24.1560   31.6040 H   0  0  0  0  0  0  0  0  0  0  0  0
   36.7910   21.7200   33.5880 C   0  0  0  0  0  0  0  0  0  0  0  0
   37.1080   22.4940   32.4760 C   0  0  0  0  0  0  0  0  0  0  0  0
   36.2990   22.2170   31.3990 C   0  0  0  0  0  0  0  0  0  0  0  0
   36.4330   22.7610   30.4760 H   0  0  0  0  0  0  0  0  0  0  0  0
   35.2810   21.2890   31.3740 C   0  0  0  0  0  3  0  0  0  0  0  0
   35.0200   20.5540   32.5110 C   0  0  0  0  0  3  0  0  0  0  0  0
   35.7880   20.7760   33.6340 C   0  0  0  0  0  0  0  0  0  0  0  0
   37.4940   21.8550   34.7730 O   0  0  0  0  0  0  0  0  0  0  0  0
   38.1970   21.1850   34.9970 H   0  0  0  0  0  0  0  0  0  0  0  0
   35.4980   20.0250   34.7440 O   0  0  0  0  0  0  0  0  0  0  0  0
   35.5670   19.0180   34.6500 H   0  0  0  0  0  0  0  0  0  0  0  0
  1  6  1  0  0  0  0
  2  1  2  0  0  0  0
  2  3  1  0  0  0  0
  3  4  2  0  0  0  0
  4  5  1  0  0  0  0
  5  7  1  0  0  0  0
  6  5  2  0  0  0  0
  7 12  1  0  0  0  0
  7  8  1  0  0  0  0
  8  9  1  0  0  0  0
  9 18  1  0  0  0  0
  9 10  1  0  0  0  0
  9 19  1  0  0  0  0
 10 20  1  0  0  0  0
 11 21  1  0  0  0  0
 11 10  1  0  0  0  0
 11 22  1  0  0  0  0
 12 23  1  6  0  0  0
 12 11  1  0  0  0  0
 13  1  1  0  0  0  0
 14  2  1  0  0  0  0
 15  3  1  0  0  0  0
 16  8  1  0  0  0  0
 17  8  1  0  0  0  0
 24 25  1  6  0  0  0
 24 12  1  0  0  0  0
 25 30  1  0  0  0  0
 26 31  1  0  0  0  0
 26 25  1  0  0  0  0
 27 28  1  0  0  0  0
 27 26  1  0  0  0  0
 27 34  1  0  0  0  0
 28 35  1  6  0  0  0
 28 24  1  0  0  0  0
 29 25  1  0  0  0  0
 32 26  1  0  0  0  0
 33 27  1  0  0  0  0
 36 42  1  0  0  0  0
 36 43  1  0  0  0  0
 37 28  1  0  0  0  0
 37 36  2  0  0  0  0
 38 37  1  0  0  0  0
 39 38  1  0  0  0  0
 40 38  2  0  0  0  0
 40 41  1  0  0  0  0
 41 42  2  0  0  0  0
 42 45  1  0  0  0  0
 43 44  1  0  0  0  0
 46 45  1  0  0  0  0
M  END
>  <minimizedAffinity>
-5.8450942

$$$$

 OpenBabel03272505533D

 46 49  0  0  1  0  0  0  0  0999 V2000
   37.4560   23.4400   30.8580 C   0  0  0  0  0  0  0  0  0  0  0  0
   36.1440   22.9420   31.0410 C   0  0  0  0  0  0  0  0  0  0  0  0
   35.1420   23.8760   31.2700 C   0  0  0  0  0  0  0  0  0  0  0  0
   35.4770   25.1950   31.3030 N   0  0  0  0  0  0  0  0  0  0  0  0
   36.7240   25.6200   31.1250 C   0  0  0  0  0  0  0  0  0  0  0  0
   37.7140   24.7450   30.9030 N   0  0  0  0  0  0  0  0  0  0  0  0
   37.0110   27.0070   31.1700 N   0  0  0  0  0  0  0  0  0  0  0  0
   38.1180   27.5800   30.4270 C   0  0  0  0  0  0  0  0  0  0  0  0
   37.6440   28.7160   29.5800 C   0  0  0  0  0  0  0  0  0  0  0  0
   36.3840   29.2040   29.8550 N   0  0  0  0  0  0  0  0  0  0  0  0
   35.7860   29.0540   31.1570 C   0  0  0  0  0  0  0  0  0  0  0  0
   36.2090   27.9220   31.9590 C   0  0  2  0  0  0  0  0  0  0  0  0
   38.3360   22.8100   30.6700 H   0  0  0  0  0  0  0  0  0  0  0  0
   36.0150   21.8850   30.9920 H   0  0  0  0  0  0  0  0  0  0  0  0
   34.1400   23.5180   31.4100 H   0  0  0  0  0  0  0  0  0  0  0  0
   39.0260   27.7350   31.0000 H   0  0  0  0  0  0  0  0  0  0  0  0
   38.4170   26.7640   29.6840 H   0  0  0  0  0  0  0  0  0  0  0  0
   37.7370   28.5240   28.4910 H   0  0  0  0  0  0  0  0  0  0  0  0
   38.3890   29.5490   29.7570 H   0  0  0  0  0  0  0  0  0  0  0  0
   35.7570   29.5070   29.1050 H   0  0  0  0  0  0  0  0  0  0  0  0
   34.6940   28.8450   30.8800 H   0  0  0  0  0  0  0  0  0  0  0  0
   35.7130   30.0550   31.5470 H   0  0  0  0  0  0  0  0  0  0  0  0
   35.3390   27.3190   32.3630 H   0  0  0  0  0  0  0  0  0  0  0  0
   36.9990   28.2690   33.1330 N   0  0  2  0  0  0  0  0  0  0  0  0
   38.0530   27.2780   33.3670 C   0  0  0  0  0  0  0  0  0  0  0  0
   38.1900   27.1230   34.8700 C   0  0  0  0  0  0  0  0  0  0  0  0
   37.3250   28.2050   35.3950 C   0  0  0  0  0  0  0  0  0  0  0  0
   36.2320   28.3430   34.3180 C   0  0  1  0  0  0  0  0  0  0  0  0
   37.6910   26.3230   32.9340 H   0  0  0  0  0  0  0  0  0  0  0  0
   38.9970   27.5770   32.8930 H   0  0  0  0  0  0  0  0  0  0  0  0
   39.2540   27.1840   35.1750 H   0  0  0  0  0  0  0  0  0  0  0  0
   37.8240   26.1270   35.2050 H   0  0  0  0  0  0  0  0  0  0  0  0
   36.8670   27.9940   36.3810 H   0  0  0  0  0  0  0  0  0  0  0  0
   37.8930   29.1640   35.3950 H   0  0  0  0  0  0  0  0  0  0  0  0
   35.6380   27.4500   34.5700 H   0  0  0  0  0  0  0  0  0  0  0  0
   34.3030   29.9350   34.3830 C   0  0  0  0  0  0  0  0  0  0  0  0
   35.6240   29.6170   34.6820 C   0  0  0  0  0  0  0  0  0  0  0  0
   36.2590   30.6230   35.3710 C   0  0  0  0  0  0  0  0  0  0  0  0
   37.2870   30.4950   35.6760 H   0  0  0  0  0  0  0  0  0  0  0  0
   35.6970   31.8240   35.7440 C   0  0  0  0  0  3  0  0  0  0  0  0
   34.3820   32.0760   35.4150 C   0  0  0  0  0  3  0  0  0  0  0  0
   33.6760   31.1140   34.7240 C   0  0  0  0  0  0  0  0  0  0  0  0
   33.4960   29.0470   33.6920 O   0  0  0  0  0  0  0  0  0  0  0  0
   33.3390   29.1930   32.7190 H   0  0  0  0  0  0  0  0  0  0  0  0
   32.3720   31.4020   34.4150 O   0  0  0  0  0  0  0  0  0  0  0  0
   32.2040   32.2220   33.8430 H   0  0  0  0  0  0  0  0  0  0  0  0
  1  6  2  0  0  0  0
  1  2  1  0  0  0  0
  2  3  2  0  0  0  0
  3  4  1  0  0  0  0
  3 15  1  0  0  0  0
  5  7  1  0  0  0  0
  5  4  2  0  0  0  0
  6  5  1  0  0  0  0
  7 12  1  0  0  0  0
  8 16  1  0  0  0  0
  8  7  1  0  0  0  0
  9 19  1  0  0  0  0
  9 10  1  0  0  0  0
  9  8  1  0  0  0  0
 10 11  1  0  0  0  0
 11 22  1  0  0  0  0
 11 12  1  0  0  0  0
 12 23  1  1  0  0  0
 12 24  1  0  0  0  0
 13  1  1  0  0  0  0
 14  2  1  0  0  0  0
 17  8  1  0  0  0  0
 18  9  1  0  0  0  0
 20 10  1  0  0  0  0
 21 11  1  0  0  0  0
 24 25  1  1  0  0  0
 24 28  1  0  0  0  0
 25 26  1  0  0  0  0
 26 31  1  0  0  0  0
 26 32  1  0  0  0  0
 26 27  1  0  0  0  0
 27 33  1  0  0  0  0
 28 35  1  1  0  0  0
 28 37  1  0  0  0  0
 28 27  1  0  0  0  0
 29 25  1  0  0  0  0
 30 25  1  0  0  0  0
 34 27  1  0  0  0  0
 36 37  2  0  0  0  0
 36 42  1  0  0  0  0
 37 38  1  0  0  0  0
 38 39  1  0  0  0  0
 38 40  2  0  0  0  0
 41 40  1  0  0  0  0
 42 41  2  0  0  0  0
 43 36  1  0  0  0  0
 44 43  1  0  0  0  0
 45 42  1  0  0  0  0
 46 45  1  0  0  0  0
M  END
>  <minimizedAffinity>
-5.76233006

$$$$

 OpenBabel03272505533D

 46 49  0  0  1  0  0  0  0  0999 V2000
   38.1490   24.1600   38.1840 C   0  0  0  0  0  0  0  0  0  0  0  0
   38.9660   23.0090   38.2950 C   0  0  0  0  0  0  0  0  0  0  0  0
   39.6490   22.6090   37.1540 C   0  0  0  0  0  0  0  0  0  0  0  0
   39.4940   23.3360   36.0140 N   0  0  0  0  0  0  0  0  0  0  0  0
   38.7150   24.4130   35.9530 C   0  0  0  0  0  0  0  0  0  0  0  0
   38.0420   24.8260   37.0360 N   0  0  0  0  0  0  0  0  0  0  0  0
   38.5950   25.1300   34.7370 N   0  0  0  0  0  0  0  0  0  0  0  0
   38.3060   26.5520   34.7170 C   0  0  0  0  0  0  0  0  0  0  0  0
   39.3180   27.2770   33.8920 C   0  0  0  0  0  0  0  0  0  0  0  0
   40.1250   26.5010   33.0850 N   0  0  0  0  0  0  0  0  0  0  0  0
   39.7020   25.2030   32.6260 C   0  0  0  0  0  0  0  0  0  0  0  0
   38.7580   24.4770   33.4530 C   0  0  2  0  0  0  0  0  0  0  0  0
   37.5570   24.5810   39.0080 H   0  0  0  0  0  0  0  0  0  0  0  0
   39.0000   22.5300   39.2460 H   0  0  0  0  0  0  0  0  0  0  0  0
   40.2730   21.7390   37.2190 H   0  0  0  0  0  0  0  0  0  0  0  0
   37.2640   26.8080   34.5600 H   0  0  0  0  0  0  0  0  0  0  0  0
   38.4980   26.8980   35.7900 H   0  0  0  0  0  0  0  0  0  0  0  0
   39.9480   27.9770   34.4790 H   0  0  0  0  0  0  0  0  0  0  0  0
   38.7190   27.9690   33.2270 H   0  0  0  0  0  0  0  0  0  0  0  0
   41.1130   26.7260   32.9500 H   0  0  0  0  0  0  0  0  0  0  0  0
   40.6830   24.6130   32.6870 H   0  0  0  0  0  0  0  0  0  0  0  0
   39.5900   25.3070   31.5600 H   0  0  0  0  0  0  0  0  0  0  0  0
   39.0890   23.4160   33.6720 H   0  0  0  0  0  0  0  0  0  0  0  0
   37.4260   24.3390   32.8780 N   0  0  2  0  0  0  0  0  0  0  0  0
   37.0240   22.9310   32.8210 C   0  0  0  0  0  0  0  0  0  0  0  0
   36.2280   22.7500   31.5410 C   0  0  0  0  0  0  0  0  0  0  0  0
   36.0630   24.1380   31.0530 C   0  0  0  0  0  0  0  0  0  0  0  0
   37.3310   24.8490   31.5640 C   0  0  1  0  0  0  0  0  0  0  0  0
   37.9580   22.3370   32.7550 H   0  0  0  0  0  0  0  0  0  0  0  0
   36.4500   22.6410   33.7100 H   0  0  0  0  0  0  0  0  0  0  0  0
   35.2830   22.2070   31.7410 H   0  0  0  0  0  0  0  0  0  0  0  0
   36.7910   22.1360   30.8020 H   0  0  0  0  0  0  0  0  0  0  0  0
   35.9850   24.2360   29.9530 H   0  0  0  0  0  0  0  0  0  0  0  0
   35.2010   24.6130   31.5780 H   0  0  0  0  0  0  0  0  0  0  0  0
   38.0510   24.4480   30.8320 H   0  0  0  0  0  0  0  0  0  0  0  0
   37.5720   27.0610   30.4200 C   0  0  0  0  0  0  0  0  0  0  0  0
   36.9740   26.2510   31.3790 C   0  0  0  0  0  0  0  0  0  0  0  0
   36.0070   26.9170   32.0950 C   0  0  0  0  0  0  0  0  0  0  0  0
   35.4560   26.3940   32.8630 H   0  0  0  0  0  0  0  0  0  0  0  0
   35.6380   28.2330   31.9220 C   0  0  0  0  0  3  0  0  0  0  0  0
   36.2740   28.9810   30.9530 C   0  0  0  0  0  3  0  0  0  0  0  0
   37.2550   28.3830   30.1920 C   0  0  0  0  0  0  0  0  0  0  0  0
   38.5700   26.5710   29.5960 O   0  0  0  0  0  0  0  0  0  0  0  0
   39.5200   26.7880   29.8040 H   0  0  0  0  0  0  0  0  0  0  0  0
   37.8620   29.1600   29.2390 O   0  0  0  0  0  0  0  0  0  0  0  0
   38.3400   29.9940   29.5610 H   0  0  0  0  0  0  0  0  0  0  0  0
  1  2  1  0  0  0  0
  1 13  1  0  0  0  0
  2 14  1  0  0  0  0
  3 15  1  0  0  0  0
  3  2  2  0  0  0  0
  4  3  1  0  0  0  0
  5  4  2  0  0  0  0
  5  6  1  0  0  0  0
  6  1  2  0  0  0  0
  7  5  1  0  0  0  0
  8  7  1  0  0  0  0
  8 17  1  0  0  0  0
  9 18  1  0  0  0  0
  9  8  1  0  0  0  0
 10  9  1  0  0  0  0
 11 21  1  0  0  0  0
 11 10  1  0  0  0  0
 11 12  1  0  0  0  0
 12 23  1  1  0  0  0
 12  7  1  0  0  0  0
 16  8  1  0  0  0  0
 19  9  1  0  0  0  0
 20 10  1  0  0  0  0
 22 11  1  0  0  0  0
 24 25  1  6  0  0  0
 24 12  1  0  0  0  0
 25 30  1  0  0  0  0
 26 31  1  0  0  0  0
 26 25  1  0  0  0  0
 27 26  1  0  0  0  0
 27 28  1  0  0  0  0
 27 34  1  0  0  0  0
 28 35  1  6  0  0  0
 28 24  1  0  0  0  0
 29 25  1  0  0  0  0
 32 26  1  0  0  0  0
 33 27  1  0  0  0  0
 36 37  1  0  0  0  0
 37 28  1  0  0  0  0
 37 38  2  0  0  0  0
 38 39  1  0  0  0  0
 40 38  1  0  0  0  0
 41 40  2  0  0  0  0
 42 36  2  0  0  0  0
 42 41  1  0  0  0  0
 43 44  1  0  0  0  0
 43 36  1  0  0  0  0
 45 46  1  0  0  0  0
 45 42  1  0  0  0  0
M  END
>  <minimizedAffinity>
-5.73415995

$$$$
