
 OpenBabel03272508283D

 40 43  0  0  1  0  0  0  0  0999 V2000
   32.5330   28.8680   46.9270 C   0  0  2  0  0  0  0  0  0  0  0  0
   33.3150   27.7790   47.6530 C   0  0  2  0  0  0  0  0  0  0  0  0
   32.5100   27.3830   48.6860 O   0  0  0  0  0  0  0  0  0  0  0  0
   31.2030   27.6560   48.4160 C   0  0  0  0  0  0  0  0  0  0  0  0
   31.1270   28.2630   47.0300 C   0  0  1  0  0  0  0  0  0  0  0  0
   32.5410   29.8220   47.4700 H   0  0  0  0  0  0  0  0  0  0  0  0
   33.4660   26.9520   46.9450 H   0  0  0  0  0  0  0  0  0  0  0  0
   30.6150   26.7140   48.3910 H   0  0  0  0  0  0  0  0  0  0  0  0
   30.7430   28.4000   49.1070 H   0  0  0  0  0  0  0  0  0  0  0  0
   31.0240   27.4490   46.2960 H   0  0  0  0  0  0  0  0  0  0  0  0
   34.6420   29.6970   48.7800 C   0  0  1  0  0  0  0  0  0  0  0  0
   34.5850   28.4030   48.1390 C   0  0  1  0  0  0  0  0  0  0  0  0
   34.9420   28.4250   49.5890 C   0  0  0  0  0  0  0  0  0  0  0  0
   33.8200   30.2690   49.2470 H   0  0  0  0  0  0  0  0  0  0  0  0
   35.4470   28.1690   47.4510 H   0  0  0  0  0  0  0  0  0  0  0  0
   36.0020   28.2240   49.8800 H   0  0  0  0  0  0  0  0  0  0  0  0
   34.2370   28.1220   50.3600 H   0  0  0  0  0  0  0  0  0  0  0  0
   35.8720   30.5790   48.6480 C   0  0  0  0  0  0  0  0  0  0  0  0
   36.2460   31.3330   49.7640 C   0  0  0  0  0  0  0  0  0  0  0  0
   37.3570   32.1320   49.5950 C   0  0  0  0  0  0  0  0  0  0  0  0
   38.0290   32.1650   48.3970 N   0  0  0  0  0  0  0  0  0  0  0  0
   37.6310   31.4170   47.3400 C   0  0  0  0  0  0  0  0  0  0  0  0
   36.5420   30.6170   47.4660 N   0  0  0  0  0  0  0  0  0  0  0  0
   35.6770   31.2620   50.6760 H   0  0  0  0  0  0  0  0  0  0  0  0
   37.6840   32.7350   50.4410 H   0  0  0  0  0  0  0  0  0  0  0  0
   38.1880   31.4740   46.4150 H   0  0  0  0  0  0  0  0  0  0  0  0
   32.9080   29.0480   45.6150 O   0  0  0  0  0  0  0  0  0  0  0  0
   32.7720   28.2510   45.0710 H   0  0  0  0  0  0  0  0  0  0  0  0
   30.1530   29.2040   46.8910 O   0  0  0  0  0  0  0  0  0  0  0  0
   28.0340   28.6260   46.2800 C   0  0  0  0  0  0  0  0  0  0  0  0
   28.8630   29.0830   47.3130 C   0  0  0  0  0  0  0  0  0  0  0  0
   28.2650   29.3210   48.5290 C   0  0  0  0  0  0  0  0  0  0  0  0
   28.9610   29.6670   49.2700 H   0  0  0  0  0  0  0  0  0  0  0  0
   26.9250   29.1230   48.7260 C   0  0  0  0  0  3  0  0  0  0  0  0
   26.1100   28.6760   47.7120 C   0  0  0  0  0  3  0  0  0  0  0  0
   26.6720   28.4250   46.4770 C   0  0  0  0  0  0  0  0  0  0  0  0
   28.4420   28.3290   44.9860 O   0  0  0  0  0  0  0  0  0  0  0  0
   28.5600   29.0960   44.3310 H   0  0  0  0  0  0  0  0  0  0  0  0
   25.8080   27.9780   45.5010 O   0  0  0  0  0  0  0  0  0  0  0  0
   26.0560   27.2450   44.8270 H   0  0  0  0  0  0  0  0  0  0  0  0
  1  5  1  0  0  0  0
  1  6  1  1  0  0  0
  1  2  1  0  0  0  0
  2  7  1  6  0  0  0
  2 12  1  0  0  0  0
  2  3  1  0  0  0  0
  4  3  1  0  0  0  0
  4  9  1  0  0  0  0
  5 10  1  6  0  0  0
  5  4  1  0  0  0  0
  8  4  1  0  0  0  0
 11 14  1  1  0  0  0
 11 13  1  0  0  0  0
 12 15  1  6  0  0  0
 12 11  1  0  0  0  0
 12 13  1  0  0  0  0
 13 16  1  0  0  0  0
 13 17  1  0  0  0  0
 18 11  1  0  0  0  0
 18 19  1  0  0  0  0
 19 24  1  0  0  0  0
 20 19  2  0  0  0  0
 20 25  1  0  0  0  0
 21 20  1  0  0  0  0
 22 23  1  0  0  0  0
 22 21  2  0  0  0  0
 23 18  2  0  0  0  0
 26 22  1  0  0  0  0
 27  1  1  0  0  0  0
 28 27  1  0  0  0  0
 29  5  1  0  0  0  0
 29 31  1  0  0  0  0
 30 36  2  0  0  0  0
 30 31  1  0  0  0  0
 31 32  2  0  0  0  0
 32 34  1  0  0  0  0
 32 33  1  0  0  0  0
 35 34  2  0  0  0  0
 36 35  1  0  0  0  0
 37 30  1  0  0  0  0
 38 37  1  0  0  0  0
 39 36  1  0  0  0  0
 40 39  1  0  0  0  0
M  END
>  <minimizedAffinity>
-6.1359601

>  <minimizedRMSD>
2.74812126

$$$$
