
 OpenBabel03272509153D

 49 52  0  0  1  0  0  0  0  0999 V2000
   34.8940   30.0740   46.8260 C   0  0  0  0  0  0  0  0  0  0  0  0
   36.2050   30.5950   46.9470 C   0  0  0  0  0  0  0  0  0  0  0  0
   36.9240   30.8190   45.7770 C   0  0  0  0  0  0  0  0  0  0  0  0
   36.3400   30.5300   44.5830 N   0  0  0  0  0  0  0  0  0  0  0  0
   35.0900   30.0360   44.5050 C   0  0  0  0  0  0  0  0  0  0  0  0
   34.3750   29.8100   45.6060 N   0  0  0  0  0  0  0  0  0  0  0  0
   34.2670   29.8840   47.6680 H   0  0  0  0  0  0  0  0  0  0  0  0
   34.5920   29.7940   43.5650 H   0  0  0  0  0  0  0  0  0  0  0  0
   36.6600   30.8190   48.3000 N   0  0  0  0  0  0  0  0  0  0  0  0
   37.0900   31.8920   49.1490 C   0  0  0  0  0  0  0  0  0  0  0  0
   38.3810   31.3880   49.7120 C   0  0  0  0  0  0  0  0  0  0  0  0
   38.1440   29.8800   49.8450 C   0  0  0  0  0  0  0  0  0  0  0  0
   36.7970   29.6720   49.2420 C   0  0  1  0  0  0  0  0  0  0  0  0
   37.0220   32.9050   48.8200 H   0  0  0  0  0  0  0  0  0  0  0  0
   36.3720   31.8540   50.0290 H   0  0  0  0  0  0  0  0  0  0  0  0
   38.6280   31.8480   50.6950 H   0  0  0  0  0  0  0  0  0  0  0  0
   39.2390   31.5020   49.0500 H   0  0  0  0  0  0  0  0  0  0  0  0
   38.9560   29.2780   49.4240 H   0  0  0  0  0  0  0  0  0  0  0  0
   38.0890   29.6260   50.9380 H   0  0  0  0  0  0  0  0  0  0  0  0
   36.6350   28.7280   48.7300 H   0  0  0  0  0  0  0  0  0  0  0  0
   34.7060   28.9440   50.3690 C   0  0  0  0  0  0  0  0  0  0  0  0
   34.4170   28.0200   49.5380 O   0  0  0  0  0  0  0  0  0  0  0  0
   35.7940   29.8680   50.2880 N   0  0  0  0  0  0  0  0  0  0  0  0
   33.9110   28.7820   51.0740 H   0  0  0  0  0  0  0  0  0  0  0  0
   35.5680   30.4970   51.0810 H   0  0  0  0  0  0  0  0  0  0  0  0
   38.2630   31.3460   45.7830 C   0  0  0  0  0  0  0  0  0  0  0  0
   38.4640   32.5710   46.3480 C   0  0  0  0  0  0  0  0  0  0  0  0
   39.7110   33.1610   46.4310 C   0  0  0  0  0  0  0  0  0  0  0  0
   40.7940   32.4600   45.9050 C   0  0  0  0  0  0  0  0  0  0  0  0
   40.6530   31.2190   45.3190 C   0  0  0  0  0  0  0  0  0  0  0  0
   39.3540   30.6980   45.2810 C   0  0  0  0  0  0  0  0  0  0  0  0
   37.7540   33.2690   46.7530 H   0  0  0  0  0  0  0  0  0  0  0  0
   40.0070   34.0930   46.8440 H   0  0  0  0  0  0  0  0  0  0  0  0
   41.8220   32.8190   45.9130 H   0  0  0  0  0  0  0  0  0  0  0  0
   41.4920   30.6680   44.9050 H   0  0  0  0  0  0  0  0  0  0  0  0
   39.1800   29.3730   44.6460 C   0  0  0  0  0  0  0  0  0  0  0  0
   38.1170   29.0080   44.8170 H   0  0  0  0  0  0  0  0  0  0  0  0
   39.8260   28.6290   45.1670 H   0  0  0  0  0  0  0  0  0  0  0  0
   38.5030   28.7840   42.2470 C   0  0  0  0  0  0  0  0  0  0  0  0
   39.3580   29.3340   43.1820 C   0  0  0  0  0  0  0  0  0  0  0  0
   40.5160   29.9370   42.6740 C   0  0  0  0  0  0  0  0  0  0  0  0
   41.2180   30.3830   43.3580 H   0  0  0  0  0  0  0  0  0  0  0  0
   40.8110   29.9920   41.3170 C   0  0  0  0  0  3  0  0  0  0  0  0
   39.9720   29.4510   40.3840 C   0  0  0  0  0  3  0  0  0  0  0  0
   38.8320   28.8580   40.8890 C   0  0  0  0  0  0  0  0  0  0  0  0
   37.3670   28.1920   42.7410 O   0  0  0  0  0  0  0  0  0  0  0  0
   36.4300   28.4400   42.5090 H   0  0  0  0  0  0  0  0  0  0  0  0
   37.9540   28.2970   39.9620 O   0  0  0  0  0  0  0  0  0  0  0  0
   37.8120   28.6970   39.0390 H   0  0  0  0  0  0  0  0  0  0  0  0
  1  2  1  0  0  0  0
  1  7  1  0  0  0  0
  2  9  1  0  0  0  0
  3 26  1  0  0  0  0
  3  2  2  0  0  0  0
  4  3  1  0  0  0  0
  5  4  2  0  0  0  0
  5  6  1  0  0  0  0
  6  1  2  0  0  0  0
  8  5  1  0  0  0  0
  9 10  1  0  0  0  0
  9 13  1  0  0  0  0
 10 11  1  0  0  0  0
 10 15  1  0  0  0  0
 11 12  1  0  0  0  0
 11 16  1  0  0  0  0
 12 19  1  0  0  0  0
 13 20  1  6  0  0  0
 13 12  1  0  0  0  0
 13 23  1  0  0  0  0
 14 10  1  0  0  0  0
 17 11  1  0  0  0  0
 18 12  1  0  0  0  0
 21 24  1  0  0  0  0
 22 21  2  0  0  0  0
 23 21  1  0  0  0  0
 23 25  1  0  0  0  0
 26 27  1  0  0  0  0
 27 28  2  0  0  0  0
 27 32  1  0  0  0  0
 28 33  1  0  0  0  0
 29 34  1  0  0  0  0
 29 28  1  0  0  0  0
 30 29  2  0  0  0  0
 31 30  1  0  0  0  0
 31 26  2  0  0  0  0
 35 30  1  0  0  0  0
 36 37  1  0  0  0  0
 36 38  1  0  0  0  0
 36 31  1  0  0  0  0
 39 46  1  0  0  0  0
 39 40  1  0  0  0  0
 40 36  1  0  0  0  0
 41 40  2  0  0  0  0
 41 42  1  0  0  0  0
 43 41  1  0  0  0  0
 44 45  1  0  0  0  0
 44 43  2  0  0  0  0
 45 39  2  0  0  0  0
 47 46  1  0  0  0  0
 48 45  1  0  0  0  0
 49 48  1  0  0  0  0
M  END
>  <minimizedAffinity>
-5.92890644

>  <minimizedRMSD>
0.878335536

$$$$
