
 OpenBabel03272504583D

 35 37  0  0  1  0  0  0  0  0999 V2000
   36.9660   23.1910   31.4230 C   0  0  1  0  0  0  0  0  0  0  0  0
   36.1230   24.2630   30.9510 C   0  0  0  0  0  0  0  0  0  0  0  0
   36.8100   24.3740   32.2780 C   0  0  2  0  0  0  0  0  0  0  0  0
   38.0330   23.0320   31.0430 H   0  0  0  0  0  0  0  0  0  0  0  0
   35.0290   24.0720   30.9700 H   0  0  0  0  0  0  0  0  0  0  0  0
   36.4610   24.5290   29.9660 H   0  0  0  0  0  0  0  0  0  0  0  0
   36.0750   24.6030   33.0370 H   0  0  0  0  0  0  0  0  0  0  0  0
   36.3730   21.9090   31.9360 C   0  0  0  0  0  0  0  0  0  0  0  0
   36.0430   20.9510   30.9610 C   0  0  0  0  0  0  0  0  0  0  0  0
   35.5000   19.7870   31.4540 C   0  0  0  0  0  0  0  0  0  0  0  0
   35.3180   19.6240   32.7840 N   0  0  0  0  0  0  0  0  0  0  0  0
   35.6500   20.5720   33.6920 C   0  0  0  0  0  0  0  0  0  0  0  0
   36.1930   21.7470   33.2400 N   0  0  0  0  0  0  0  0  0  0  0  0
   35.4950   20.4110   35.0720 N   0  0  0  0  0  0  0  0  0  0  0  0
   36.1830   21.0670   29.8980 H   0  0  0  0  0  0  0  0  0  0  0  0
   35.2300   19.0160   30.7320 H   0  0  0  0  0  0  0  0  0  0  0  0
   35.6580   19.4080   35.3830 H   0  0  0  0  0  0  0  0  0  0  0  0
   35.2530   21.1700   35.7110 H   0  0  0  0  0  0  0  0  0  0  0  0
   37.9160   25.2360   32.2950 O   0  0  0  0  0  0  0  0  0  0  0  0
   40.1630   24.5870   33.3760 O   0  0  0  0  0  0  0  0  0  0  0  0
   38.7850   25.0640   33.7050 P   0  0  1  0  0  0  0  0  0  0  0  0
   38.9960   26.6050   34.4490 O   0  0  0  0  0  0  0  0  0  0  0  0
   38.8480   26.5800   35.4060 H   0  0  0  0  0  0  0  0  0  0  0  0
   37.9400   24.0270   34.7330 O   0  0  0  0  0  0  0  0  0  0  0  0
   39.3260   22.8450   36.3730 C   0  0  0  0  0  0  0  0  0  0  0  0
   38.3460   23.7780   36.0580 C   0  0  0  0  0  0  0  0  0  0  0  0
   37.7670   24.4700   37.1090 C   0  0  0  0  0  0  0  0  0  0  0  0
   36.9900   25.2200   36.9460 H   0  0  0  0  0  0  0  0  0  0  0  0
   38.0970   24.2960   38.4370 C   0  0  0  0  0  3  0  0  0  0  0  0
   39.0810   23.3560   38.7260 C   0  0  0  0  0  3  0  0  0  0  0  0
   39.6830   22.6420   37.6970 C   0  0  0  0  0  0  0  0  0  0  0  0
   39.9350   22.1240   35.3540 O   0  0  0  0  0  0  0  0  0  0  0  0
   39.5350   21.8680   34.4830 H   0  0  0  0  0  0  0  0  0  0  0  0
   40.6540   21.7200   38.0310 O   0  0  0  0  0  0  0  0  0  0  0  0
   41.1040   21.7300   38.9340 H   0  0  0  0  0  0  0  0  0  0  0  0
  1  4  1  6  0  0  0
  1  8  1  0  0  0  0
  1  3  1  0  0  0  0
  2  5  1  0  0  0  0
  2  1  1  0  0  0  0
  2  3  1  0  0  0  0
  3 19  1  0  0  0  0
  3  7  1  1  0  0  0
  6  2  1  0  0  0  0
  8 13  1  0  0  0  0
  9 10  1  0  0  0  0
  9  8  2  0  0  0  0
 10 11  2  0  0  0  0
 11 12  1  0  0  0  0
 12 14  1  0  0  0  0
 13 12  2  0  0  0  0
 14 17  1  0  0  0  0
 14 18  1  0  0  0  0
 15  9  1  0  0  0  0
 16 10  1  0  0  0  0
 19 21  1  0  0  0  0
 21 20  2  6  0  0  0
 21 22  1  0  0  0  0
 21 24  1  0  0  0  0
 22 23  1  0  0  0  0
 24 26  1  0  0  0  0
 25 31  1  0  0  0  0
 26 25  2  0  0  0  0
 26 27  1  0  0  0  0
 27 29  2  0  0  0  0
 28 27  1  0  0  0  0
 29 30  1  0  0  0  0
 31 34  1  0  0  0  0
 31 30  2  0  0  0  0
 32 25  1  0  0  0  0
 33 32  1  0  0  0  0
 34 35  1  0  0  0  0
M  END
>  <minimizedAffinity>
-6.08207464

$$$$

 OpenBabel03272504583D

 35 37  0  0  1  0  0  0  0  0999 V2000
   39.6900   25.2680   34.6050 C   0  0  1  0  0  0  0  0  0  0  0  0
   41.0380   25.2640   34.0890 C   0  0  0  0  0  0  0  0  0  0  0  0
   39.9700   24.4600   33.4120 C   0  0  2  0  0  0  0  0  0  0  0  0
   38.9600   26.1290   34.4210 H   0  0  0  0  0  0  0  0  0  0  0  0
   41.7880   24.6990   34.6800 H   0  0  0  0  0  0  0  0  0  0  0  0
   41.3330   26.2880   33.9510 H   0  0  0  0  0  0  0  0  0  0  0  0
   40.3070   23.4360   33.3170 H   0  0  0  0  0  0  0  0  0  0  0  0
   39.3400   24.5150   35.8590 C   0  0  0  0  0  0  0  0  0  0  0  0
   38.2110   24.9780   36.5580 C   0  0  0  0  0  0  0  0  0  0  0  0
   37.9120   24.2750   37.7020 C   0  0  0  0  0  0  0  0  0  0  0  0
   38.6740   23.2260   38.0830 N   0  0  0  0  0  0  0  0  0  0  0  0
   39.7550   22.8100   37.3800 C   0  0  0  0  0  0  0  0  0  0  0  0
   40.0880   23.4860   36.2340 N   0  0  0  0  0  0  0  0  0  0  0  0
   40.5390   21.7120   37.7420 N   0  0  0  0  0  0  0  0  0  0  0  0
   37.5930   25.8130   36.2660 H   0  0  0  0  0  0  0  0  0  0  0  0
   37.0430   24.6000   38.2760 H   0  0  0  0  0  0  0  0  0  0  0  0
   39.9680   20.9390   38.1950 H   0  0  0  0  0  0  0  0  0  0  0  0
   41.5480   21.6560   37.5900 H   0  0  0  0  0  0  0  0  0  0  0  0
   39.4980   25.0050   32.2100 O   0  0  0  0  0  0  0  0  0  0  0  0
   36.9340   24.8450   32.4110 O   0  0  0  0  0  0  0  0  0  0  0  0
   38.1070   24.2370   31.7110 P   0  0  1  0  0  0  0  0  0  0  0  0
   37.8480   24.5360   30.0330 O   0  0  0  0  0  0  0  0  0  0  0  0
   37.5800   23.7400   29.5510 H   0  0  0  0  0  0  0  0  0  0  0  0
   38.2780   22.5820   31.9930 O   0  0  0  0  0  0  0  0  0  0  0  0
   36.8580   21.4460   33.6360 C   0  0  0  0  0  0  0  0  0  0  0  0
   37.1880   21.7540   32.3220 C   0  0  0  0  0  0  0  0  0  0  0  0
   36.3960   21.2100   31.3240 C   0  0  0  0  0  0  0  0  0  0  0  0
   36.5890   21.4040   30.2660 H   0  0  0  0  0  0  0  0  0  0  0  0
   35.3100   20.3900   31.5470 C   0  0  0  0  0  3  0  0  0  0  0  0
   35.0000   20.0960   32.8700 C   0  0  0  0  0  3  0  0  0  0  0  0
   35.7730   20.6230   33.8980 C   0  0  0  0  0  0  0  0  0  0  0  0
   37.6220   21.9650   34.6720 O   0  0  0  0  0  0  0  0  0  0  0  0
   38.5860   22.1980   34.6440 H   0  0  0  0  0  0  0  0  0  0  0  0
   35.4270   20.3040   35.1950 O   0  0  0  0  0  0  0  0  0  0  0  0
   34.5200   19.9280   35.4240 H   0  0  0  0  0  0  0  0  0  0  0  0
  1  4  1  6  0  0  0
  1  8  1  0  0  0  0
  2  1  1  0  0  0  0
  2  5  1  0  0  0  0
  3  7  1  1  0  0  0
  3  2  1  0  0  0  0
  3  1  1  0  0  0  0
  6  2  1  0  0  0  0
  8 13  2  0  0  0  0
  8  9  1  0  0  0  0
  9 10  2  0  0  0  0
 10 11  1  0  0  0  0
 10 16  1  0  0  0  0
 12 14  1  0  0  0  0
 12 11  2  0  0  0  0
 13 12  1  0  0  0  0
 14 17  1  0  0  0  0
 15  9  1  0  0  0  0
 18 14  1  0  0  0  0
 19  3  1  0  0  0  0
 21 24  1  0  0  0  0
 21 19  1  0  0  0  0
 21 20  2  1  0  0  0
 22 21  1  0  0  0  0
 23 22  1  0  0  0  0
 24 26  1  0  0  0  0
 25 31  1  0  0  0  0
 25 32  1  0  0  0  0
 26 25  2  0  0  0  0
 27 29  2  0  0  0  0
 27 26  1  0  0  0  0
 28 27  1  0  0  0  0
 29 30  1  0  0  0  0
 30 31  2  0  0  0  0
 31 34  1  0  0  0  0
 33 32  1  0  0  0  0
 34 35  1  0  0  0  0
M  END
>  <minimizedAffinity>
-5.94091034

$$$$

 OpenBabel03272504583D

 35 37  0  0  1  0  0  0  0  0999 V2000
   38.6530   23.3320   36.4940 C   0  0  1  0  0  0  0  0  0  0  0  0
   37.9720   23.6430   37.7280 C   0  0  0  0  0  0  0  0  0  0  0  0
   38.3940   24.7440   36.8020 C   0  0  2  0  0  0  0  0  0  0  0  0
   38.1050   22.9520   35.5650 H   0  0  0  0  0  0  0  0  0  0  0  0
   38.5630   23.5210   38.6590 H   0  0  0  0  0  0  0  0  0  0  0  0
   37.0690   23.0610   37.7530 H   0  0  0  0  0  0  0  0  0  0  0  0
   38.9810   25.4640   37.3550 H   0  0  0  0  0  0  0  0  0  0  0  0
   40.0920   22.8980   36.4930 C   0  0  0  0  0  0  0  0  0  0  0  0
   40.9610   23.6510   35.6840 C   0  0  0  0  0  0  0  0  0  0  0  0
   42.2710   23.2340   35.6980 C   0  0  0  0  0  0  0  0  0  0  0  0
   42.6470   22.1760   36.4510 N   0  0  0  0  0  0  0  0  0  0  0  0
   41.7790   21.4760   37.2190 C   0  0  0  0  0  0  0  0  0  0  0  0
   40.4620   21.8590   37.2300 N   0  0  0  0  0  0  0  0  0  0  0  0
   42.1530   20.3970   38.0240 N   0  0  0  0  0  0  0  0  0  0  0  0
   40.6760   24.4980   35.0790 H   0  0  0  0  0  0  0  0  0  0  0  0
   42.9810   23.7910   35.0840 H   0  0  0  0  0  0  0  0  0  0  0  0
   43.1260   20.5160   38.4330 H   0  0  0  0  0  0  0  0  0  0  0  0
   41.5600   19.5840   38.2020 H   0  0  0  0  0  0  0  0  0  0  0  0
   37.3510   25.3230   36.0650 O   0  0  0  0  0  0  0  0  0  0  0  0
   36.8760   27.5640   34.8870 O   0  0  0  0  0  0  0  0  0  0  0  0
   37.9250   26.5110   35.0500 P   0  0  1  0  0  0  0  0  0  0  0  0
   39.2650   27.3070   35.7860 O   0  0  0  0  0  0  0  0  0  0  0  0
   39.9960   27.4560   35.1660 H   0  0  0  0  0  0  0  0  0  0  0  0
   38.3940   25.7950   33.5960 O   0  0  0  0  0  0  0  0  0  0  0  0
   36.5900   25.5920   31.9490 C   0  0  0  0  0  0  0  0  0  0  0  0
   37.5140   25.0210   32.8150 C   0  0  0  0  0  0  0  0  0  0  0  0
   37.5450   23.6380   32.8900 C   0  0  0  0  0  0  0  0  0  0  0  0
   38.2430   23.1130   33.5460 H   0  0  0  0  0  0  0  0  0  0  0  0
   36.7260   22.7970   32.1660 C   0  0  0  0  0  3  0  0  0  0  0  0
   35.8090   23.3930   31.3060 C   0  0  0  0  0  3  0  0  0  0  0  0
   35.7490   24.7770   31.2060 C   0  0  0  0  0  0  0  0  0  0  0  0
   36.5190   26.9740   31.8400 O   0  0  0  0  0  0  0  0  0  0  0  0
   36.7320   27.6400   32.5440 H   0  0  0  0  0  0  0  0  0  0  0  0
   34.8240   25.3230   30.3400 O   0  0  0  0  0  0  0  0  0  0  0  0
   34.3860   24.7720   29.6180 H   0  0  0  0  0  0  0  0  0  0  0  0
  1  4  1  6  0  0  0
  1  3  1  0  0  0  0
  1  2  1  0  0  0  0
  2  6  1  0  0  0  0
  2  5  1  0  0  0  0
  3  7  1  1  0  0  0
  3  2  1  0  0  0  0
  8  1  1  0  0  0  0
  8 13  1  0  0  0  0
  9 10  1  0  0  0  0
  9  8  2  0  0  0  0
 10 11  2  0  0  0  0
 11 12  1  0  0  0  0
 12 13  2  0  0  0  0
 12 14  1  0  0  0  0
 14 18  1  0  0  0  0
 14 17  1  0  0  0  0
 15  9  1  0  0  0  0
 16 10  1  0  0  0  0
 19  3  1  0  0  0  0
 21 20  2  6  0  0  0
 21 22  1  0  0  0  0
 21 19  1  0  0  0  0
 23 22  1  0  0  0  0
 24 21  1  0  0  0  0
 25 26  1  0  0  0  0
 26 27  2  0  0  0  0
 26 24  1  0  0  0  0
 27 28  1  0  0  0  0
 29 27  1  0  0  0  0
 30 29  2  0  0  0  0
 31 30  1  0  0  0  0
 31 25  2  0  0  0  0
 32 25  1  0  0  0  0
 32 33  1  0  0  0  0
 34 31  1  0  0  0  0
 35 34  1  0  0  0  0
M  END
>  <minimizedAffinity>
-5.93811607

$$$$

 OpenBabel03272504583D

 35 37  0  0  1  0  0  0  0  0999 V2000
   36.2740   28.3060   32.0680 C   0  0  1  0  0  0  0  0  0  0  0  0
   36.2990   26.8660   31.9650 C   0  0  0  0  0  0  0  0  0  0  0  0
   37.3660   27.5850   32.7330 C   0  0  2  0  0  0  0  0  0  0  0  0
   35.5800   28.8620   32.7870 H   0  0  0  0  0  0  0  0  0  0  0  0
   36.5890   26.4490   30.9790 H   0  0  0  0  0  0  0  0  0  0  0  0
   35.3370   26.5040   32.2800 H   0  0  0  0  0  0  0  0  0  0  0  0
   38.3340   27.2760   32.3640 H   0  0  0  0  0  0  0  0  0  0  0  0
   36.6540   29.1710   30.8990 C   0  0  0  0  0  0  0  0  0  0  0  0
   36.2730   30.5220   30.9850 C   0  0  0  0  0  0  0  0  0  0  0  0
   36.6310   31.2930   29.9030 C   0  0  0  0  0  0  0  0  0  0  0  0
   37.2980   30.7480   28.8620 N   0  0  0  0  0  0  0  0  0  0  0  0
   37.6480   29.4400   28.8180 C   0  0  0  0  0  0  0  0  0  0  0  0
   37.3080   28.6370   29.8760 N   0  0  0  0  0  0  0  0  0  0  0  0
   38.3620   28.8640   27.7630 N   0  0  0  0  0  0  0  0  0  0  0  0
   35.7410   30.9710   31.8090 H   0  0  0  0  0  0  0  0  0  0  0  0
   36.3550   32.3480   29.9270 H   0  0  0  0  0  0  0  0  0  0  0  0
   39.0650   29.5360   27.3350 H   0  0  0  0  0  0  0  0  0  0  0  0
   38.2250   27.9050   27.4380 H   0  0  0  0  0  0  0  0  0  0  0  0
   37.2460   27.4960   34.1270 O   0  0  0  0  0  0  0  0  0  0  0  0
   39.8130   27.2920   34.0370 O   0  0  0  0  0  0  0  0  0  0  0  0
   38.6150   26.8300   34.8030 P   0  0  1  0  0  0  0  0  0  0  0  0
   38.8280   27.4370   36.4020 O   0  0  0  0  0  0  0  0  0  0  0  0
   39.0750   26.7440   37.0330 H   0  0  0  0  0  0  0  0  0  0  0  0
   38.4380   25.1520   34.8310 O   0  0  0  0  0  0  0  0  0  0  0  0
   38.5960   23.8640   36.9090 C   0  0  0  0  0  0  0  0  0  0  0  0
   39.1500   24.3300   35.7240 C   0  0  0  0  0  0  0  0  0  0  0  0
   40.4530   23.9550   35.4410 C   0  0  0  0  0  0  0  0  0  0  0  0
   40.9610   24.2790   34.5300 H   0  0  0  0  0  0  0  0  0  0  0  0
   41.2300   23.1540   36.2520 C   0  0  0  0  0  3  0  0  0  0  0  0
   40.6530   22.7000   37.4330 C   0  0  0  0  0  3  0  0  0  0  0  0
   39.3480   23.0570   37.7500 C   0  0  0  0  0  0  0  0  0  0  0  0
   37.2930   24.2130   37.2390 O   0  0  0  0  0  0  0  0  0  0  0  0
   36.8160   25.0450   36.9830 H   0  0  0  0  0  0  0  0  0  0  0  0
   38.8170   22.5830   38.9320 O   0  0  0  0  0  0  0  0  0  0  0  0
   39.2350   21.8100   39.4270 H   0  0  0  0  0  0  0  0  0  0  0  0
  1  3  1  0  0  0  0
  1  4  1  1  0  0  0
  2  1  1  0  0  0  0
  2  6  1  0  0  0  0
  2  3  1  0  0  0  0
  3  7  1  6  0  0  0
  3 19  1  0  0  0  0
  5  2  1  0  0  0  0
  8  9  1  0  0  0  0
  8  1  1  0  0  0  0
  9 15  1  0  0  0  0
 10 16  1  0  0  0  0
 10  9  2  0  0  0  0
 11 10  1  0  0  0  0
 12 11  2  0  0  0  0
 12 13  1  0  0  0  0
 13  8  2  0  0  0  0
 14 12  1  0  0  0  0
 17 14  1  0  0  0  0
 18 14  1  0  0  0  0
 19 21  1  0  0  0  0
 21 20  2  6  0  0  0
 21 24  1  0  0  0  0
 21 22  1  0  0  0  0
 22 23  1  0  0  0  0
 24 26  1  0  0  0  0
 25 32  1  0  0  0  0
 25 31  1  0  0  0  0
 26 25  2  0  0  0  0
 27 26  1  0  0  0  0
 27 29  2  0  0  0  0
 28 27  1  0  0  0  0
 29 30  1  0  0  0  0
 30 31  2  0  0  0  0
 31 34  1  0  0  0  0
 33 32  1  0  0  0  0
 34 35  1  0  0  0  0
M  END
>  <minimizedAffinity>
-5.89515257

$$$$

 OpenBabel03272504583D

 35 37  0  0  1  0  0  0  0  0999 V2000
   37.6840   26.2000   35.5190 C   0  0  1  0  0  0  0  0  0  0  0  0
   38.5310   27.3560   35.6940 C   0  0  0  0  0  0  0  0  0  0  0  0
   38.2340   26.8420   34.3180 C   0  0  2  0  0  0  0  0  0  0  0  0
   36.5440   26.2530   35.5910 H   0  0  0  0  0  0  0  0  0  0  0  0
   39.5500   27.1630   36.0900 H   0  0  0  0  0  0  0  0  0  0  0  0
   37.9950   28.0580   36.3070 H   0  0  0  0  0  0  0  0  0  0  0  0
   39.1660   26.6770   33.7950 H   0  0  0  0  0  0  0  0  0  0  0  0
   38.1870   24.8190   35.8320 C   0  0  0  0  0  0  0  0  0  0  0  0
   38.5080   24.0160   34.7230 C   0  0  0  0  0  0  0  0  0  0  0  0
   38.9640   22.7560   35.0350 C   0  0  0  0  0  0  0  0  0  0  0  0
   39.0790   22.3670   36.3250 N   0  0  0  0  0  0  0  0  0  0  0  0
   38.7600   23.1720   37.3660 C   0  0  0  0  0  0  0  0  0  0  0  0
   38.2990   24.4350   37.0970 N   0  0  0  0  0  0  0  0  0  0  0  0
   38.8970   22.7970   38.7050 N   0  0  0  0  0  0  0  0  0  0  0  0
   38.4220   24.3130   33.6900 H   0  0  0  0  0  0  0  0  0  0  0  0
   39.2250   22.0980   34.2050 H   0  0  0  0  0  0  0  0  0  0  0  0
   39.7330   22.1610   38.8640 H   0  0  0  0  0  0  0  0  0  0  0  0
   38.2670   23.1000   39.4500 H   0  0  0  0  0  0  0  0  0  0  0  0
   37.3140   27.6100   33.5910 O   0  0  0  0  0  0  0  0  0  0  0  0
   38.3170   26.6770   31.4080 O   0  0  0  0  0  0  0  0  0  0  0  0
   37.0150   26.9300   32.1000 P   0  0  1  0  0  0  0  0  0  0  0  0
   36.2930   25.3790   32.3030 O   0  0  0  0  0  0  0  0  0  0  0  0
   35.5510   25.2310   31.6970 H   0  0  0  0  0  0  0  0  0  0  0  0
   35.9820   27.9510   31.2420 O   0  0  0  0  0  0  0  0  0  0  0  0
   36.9830   29.2670   29.4320 C   0  0  0  0  0  0  0  0  0  0  0  0
   36.4100   29.1750   30.6940 C   0  0  0  0  0  0  0  0  0  0  0  0
   36.2700   30.3510   31.4150 C   0  0  0  0  0  0  0  0  0  0  0  0
   35.8290   30.3640   32.4140 H   0  0  0  0  0  0  0  0  0  0  0  0
   36.6580   31.5950   30.9640 C   0  0  0  0  0  3  0  0  0  0  0  0
   37.2290   31.6600   29.6980 C   0  0  0  0  0  3  0  0  0  0  0  0
   37.3860   30.5010   28.9470 C   0  0  0  0  0  0  0  0  0  0  0  0
   37.1470   28.1160   28.6720 O   0  0  0  0  0  0  0  0  0  0  0  0
   37.2900   27.1940   29.0080 H   0  0  0  0  0  0  0  0  0  0  0  0
   37.9580   30.6140   27.6960 O   0  0  0  0  0  0  0  0  0  0  0  0
   38.0260   31.5030   27.2240 H   0  0  0  0  0  0  0  0  0  0  0  0
  1  4  1  1  0  0  0
  1  2  1  0  0  0  0
  1  8  1  0  0  0  0
  2  5  1  0  0  0  0
  2  6  1  0  0  0  0
  3  7  1  6  0  0  0
  3  1  1  0  0  0  0
  3  2  1  0  0  0  0
  8 13  1  0  0  0  0
  9 10  1  0  0  0  0
  9  8  2  0  0  0  0
 10 11  2  0  0  0  0
 11 12  1  0  0  0  0
 12 14  1  0  0  0  0
 13 12  2  0  0  0  0
 14 17  1  0  0  0  0
 14 18  1  0  0  0  0
 15  9  1  0  0  0  0
 16 10  1  0  0  0  0
 19  3  1  0  0  0  0
 21 20  2  6  0  0  0
 21 22  1  0  0  0  0
 21 19  1  0  0  0  0
 23 22  1  0  0  0  0
 24 21  1  0  0  0  0
 25 26  1  0  0  0  0
 26 24  1  0  0  0  0
 26 27  2  0  0  0  0
 27 28  1  0  0  0  0
 29 27  1  0  0  0  0
 30 29  2  0  0  0  0
 31 25  2  0  0  0  0
 31 30  1  0  0  0  0
 32 33  1  0  0  0  0
 32 25  1  0  0  0  0
 34 31  1  0  0  0  0
 35 34  1  0  0  0  0
M  END
>  <minimizedAffinity>
-5.79401541

$$$$

 OpenBabel03272504583D

 35 37  0  0  1  0  0  0  0  0999 V2000
   37.5530   27.1170   33.1450 C   0  0  1  0  0  0  0  0  0  0  0  0
   37.0180   27.7300   34.3370 C   0  0  0  0  0  0  0  0  0  0  0  0
   38.0970   26.6960   34.4420 C   0  0  2  0  0  0  0  0  0  0  0  0
   38.3150   27.6380   32.4710 H   0  0  0  0  0  0  0  0  0  0  0  0
   35.9960   27.4160   34.6340 H   0  0  0  0  0  0  0  0  0  0  0  0
   37.0830   28.7950   34.2080 H   0  0  0  0  0  0  0  0  0  0  0  0
   37.7760   25.9200   35.1230 H   0  0  0  0  0  0  0  0  0  0  0  0
   36.7630   26.0890   32.3830 C   0  0  0  0  0  0  0  0  0  0  0  0
   35.7970   26.5930   31.4940 C   0  0  0  0  0  0  0  0  0  0  0  0
   35.0860   25.6340   30.8100 C   0  0  0  0  0  0  0  0  0  0  0  0
   35.3350   24.3210   31.0110 N   0  0  0  0  0  0  0  0  0  0  0  0
   36.2770   23.8760   31.8770 C   0  0  0  0  0  0  0  0  0  0  0  0
   37.0060   24.8000   32.5800 N   0  0  0  0  0  0  0  0  0  0  0  0
   36.5670   22.5240   32.0780 N   0  0  0  0  0  0  0  0  0  0  0  0
   35.5880   27.6370   31.3230 H   0  0  0  0  0  0  0  0  0  0  0  0
   34.3250   25.9810   30.1090 H   0  0  0  0  0  0  0  0  0  0  0  0
   36.4610   21.9510   31.1890 H   0  0  0  0  0  0  0  0  0  0  0  0
   36.8500   22.1280   32.9770 H   0  0  0  0  0  0  0  0  0  0  0  0
   39.3700   27.2040   34.7370 O   0  0  0  0  0  0  0  0  0  0  0  0
   40.9620   26.5670   32.8140 O   0  0  0  0  0  0  0  0  0  0  0  0
   40.5630   26.1740   34.2000 P   0  0  1  0  0  0  0  0  0  0  0  0
   41.9800   26.3750   35.1610 O   0  0  0  0  0  0  0  0  0  0  0  0
   42.3880   25.5300   35.4040 H   0  0  0  0  0  0  0  0  0  0  0  0
   39.9960   24.5890   34.3160 O   0  0  0  0  0  0  0  0  0  0  0  0
   39.4980   23.6030   36.5030 C   0  0  0  0  0  0  0  0  0  0  0  0
   40.3220   23.7450   35.3940 C   0  0  0  0  0  0  0  0  0  0  0  0
   41.5000   23.0160   35.3800 C   0  0  0  0  0  0  0  0  0  0  0  0
   42.2020   23.0720   34.5450 H   0  0  0  0  0  0  0  0  0  0  0  0
   41.9050   22.1650   36.3870 C   0  0  0  0  0  3  0  0  0  0  0  0
   41.0630   22.0400   37.4870 C   0  0  0  0  0  3  0  0  0  0  0  0
   39.8740   22.7560   37.5360 C   0  0  0  0  0  0  0  0  0  0  0  0
   38.3070   24.3140   36.5650 O   0  0  0  0  0  0  0  0  0  0  0  0
   38.1160   25.1950   36.1520 H   0  0  0  0  0  0  0  0  0  0  0  0
   39.0700   22.6000   38.6460 O   0  0  0  0  0  0  0  0  0  0  0  0
   39.1860   21.8230   39.2780 H   0  0  0  0  0  0  0  0  0  0  0  0
  1  4  1  6  0  0  0
  1  2  1  0  0  0  0
  1  3  1  0  0  0  0
  2  3  1  0  0  0  0
  2  5  1  0  0  0  0
  3 19  1  0  0  0  0
  3  7  1  1  0  0  0
  6  2  1  0  0  0  0
  8 13  1  0  0  0  0
  8  1  1  0  0  0  0
  9  8  2  0  0  0  0
 10 11  2  0  0  0  0
 10  9  1  0  0  0  0
 11 12  1  0  0  0  0
 12 14  1  0  0  0  0
 12 13  2  0  0  0  0
 14 18  1  0  0  0  0
 15  9  1  0  0  0  0
 16 10  1  0  0  0  0
 17 14  1  0  0  0  0
 21 20  2  6  0  0  0
 21 24  1  0  0  0  0
 21 19  1  0  0  0  0
 21 22  1  0  0  0  0
 22 23  1  0  0  0  0
 24 26  1  0  0  0  0
 25 32  1  0  0  0  0
 25 31  1  0  0  0  0
 26 25  2  0  0  0  0
 27 26  1  0  0  0  0
 27 29  2  0  0  0  0
 28 27  1  0  0  0  0
 29 30  1  0  0  0  0
 30 31  2  0  0  0  0
 31 34  1  0  0  0  0
 33 32  1  0  0  0  0
 34 35  1  0  0  0  0
M  END
>  <minimizedAffinity>
-5.73663282

$$$$

 OpenBabel03272504583D

 35 37  0  0  1  0  0  0  0  0999 V2000
   37.8090   25.6510   35.2760 C   0  0  1  0  0  0  0  0  0  0  0  0
   38.4000   26.8440   34.7190 C   0  0  0  0  0  0  0  0  0  0  0  0
   37.9550   25.7330   33.8170 C   0  0  2  0  0  0  0  0  0  0  0  0
   36.7220   25.6070   35.6300 H   0  0  0  0  0  0  0  0  0  0  0  0
   39.4940   26.9620   34.8620 H   0  0  0  0  0  0  0  0  0  0  0  0
   37.8560   27.6850   35.1100 H   0  0  0  0  0  0  0  0  0  0  0  0
   38.7780   25.4510   33.1740 H   0  0  0  0  0  0  0  0  0  0  0  0
   38.6540   24.6250   35.9780 C   0  0  0  0  0  0  0  0  0  0  0  0
   39.8520   24.2700   35.3340 C   0  0  0  0  0  0  0  0  0  0  0  0
   40.6070   23.3290   35.9950 C   0  0  0  0  0  0  0  0  0  0  0  0
   40.1870   22.8150   37.1720 N   0  0  0  0  0  0  0  0  0  0  0  0
   39.0240   23.1840   37.7620 C   0  0  0  0  0  0  0  0  0  0  0  0
   38.2420   24.1190   37.1330 N   0  0  0  0  0  0  0  0  0  0  0  0
   38.5860   22.6850   38.9910 N   0  0  0  0  0  0  0  0  0  0  0  0
   40.2010   24.6720   34.3950 H   0  0  0  0  0  0  0  0  0  0  0  0
   41.5460   23.0240   35.5300 H   0  0  0  0  0  0  0  0  0  0  0  0
   39.3900   22.4880   39.6570 H   0  0  0  0  0  0  0  0  0  0  0  0
   37.6040   22.5260   39.2250 H   0  0  0  0  0  0  0  0  0  0  0  0
   36.7640   25.9840   33.1210 O   0  0  0  0  0  0  0  0  0  0  0  0
   35.2160   24.8680   31.3910 O   0  0  0  0  0  0  0  0  0  0  0  0
   36.6550   25.0290   31.7610 P   0  0  1  0  0  0  0  0  0  0  0  0
   37.3870   25.8350   30.4250 O   0  0  0  0  0  0  0  0  0  0  0  0
   37.9420   25.2460   29.8930 H   0  0  0  0  0  0  0  0  0  0  0  0
   37.4410   23.5680   32.0670 O   0  0  0  0  0  0  0  0  0  0  0  0
   35.8540   21.7010   32.0160 C   0  0  0  0  0  0  0  0  0  0  0  0
   36.7980   22.4750   32.6780 C   0  0  0  0  0  0  0  0  0  0  0  0
   37.0930   22.1330   33.9880 C   0  0  0  0  0  0  0  0  0  0  0  0
   37.8240   22.6910   34.5780 H   0  0  0  0  0  0  0  0  0  0  0  0
   36.5170   21.0830   34.6720 C   0  0  0  0  0  3  0  0  0  0  0  0
   35.5750   20.3230   33.9860 C   0  0  0  0  0  3  0  0  0  0  0  0
   35.2530   20.6370   32.6720 C   0  0  0  0  0  0  0  0  0  0  0  0
   35.5220   22.0040   30.7020 O   0  0  0  0  0  0  0  0  0  0  0  0
   35.5420   22.8990   30.2730 H   0  0  0  0  0  0  0  0  0  0  0  0
   34.3130   19.8550   32.0320 O   0  0  0  0  0  0  0  0  0  0  0  0
   34.0520   18.9470   32.3840 H   0  0  0  0  0  0  0  0  0  0  0  0
  1  4  1  1  0  0  0
  1  8  1  0  0  0  0
  2  5  1  0  0  0  0
  2  6  1  0  0  0  0
  2  1  1  0  0  0  0
  3  7  1  6  0  0  0
  3  2  1  0  0  0  0
  3  1  1  0  0  0  0
  8 13  1  0  0  0  0
  9  8  2  0  0  0  0
  9 10  1  0  0  0  0
 10 11  2  0  0  0  0
 11 12  1  0  0  0  0
 12 14  1  0  0  0  0
 13 12  2  0  0  0  0
 14 18  1  0  0  0  0
 14 17  1  0  0  0  0
 15  9  1  0  0  0  0
 16 10  1  0  0  0  0
 19  3  1  0  0  0  0
 21 20  2  6  0  0  0
 21 24  1  0  0  0  0
 21 19  1  0  0  0  0
 22 21  1  0  0  0  0
 23 22  1  0  0  0  0
 24 26  1  0  0  0  0
 25 31  2  0  0  0  0
 25 26  1  0  0  0  0
 26 27  2  0  0  0  0
 27 28  1  0  0  0  0
 27 29  1  0  0  0  0
 30 29  2  0  0  0  0
 31 30  1  0  0  0  0
 32 25  1  0  0  0  0
 33 32  1  0  0  0  0
 34 35  1  0  0  0  0
 34 31  1  0  0  0  0
M  END
>  <minimizedAffinity>
-5.73283434

$$$$

 OpenBabel03272504583D

 35 37  0  0  1  0  0  0  0  0999 V2000
   37.4940   25.7900   31.9720 C   0  0  1  0  0  0  0  0  0  0  0  0
   36.5980   26.8760   31.6560 C   0  0  0  0  0  0  0  0  0  0  0  0
   36.9720   26.5990   33.0800 C   0  0  2  0  0  0  0  0  0  0  0  0
   38.6270   25.8640   31.8380 H   0  0  0  0  0  0  0  0  0  0  0  0
   35.5710   26.5920   31.3460 H   0  0  0  0  0  0  0  0  0  0  0  0
   37.0810   27.4870   30.9150 H   0  0  0  0  0  0  0  0  0  0  0  0
   36.0700   26.4930   33.6670 H   0  0  0  0  0  0  0  0  0  0  0  0
   37.0290   24.3610   31.9070 C   0  0  0  0  0  0  0  0  0  0  0  0
   35.8550   24.1300   31.1690 C   0  0  0  0  0  0  0  0  0  0  0  0
   35.4490   22.8170   31.1250 C   0  0  0  0  0  0  0  0  0  0  0  0
   36.1590   21.8570   31.7590 N   0  0  0  0  0  0  0  0  0  0  0  0
   37.2880   22.1210   32.4600 C   0  0  0  0  0  0  0  0  0  0  0  0
   37.7250   23.4190   32.5290 N   0  0  0  0  0  0  0  0  0  0  0  0
   38.0510   21.1390   33.0980 N   0  0  0  0  0  0  0  0  0  0  0  0
   35.2780   24.8850   30.6580 H   0  0  0  0  0  0  0  0  0  0  0  0
   34.5410   22.5920   30.5630 H   0  0  0  0  0  0  0  0  0  0  0  0
   38.0510   20.2180   32.5680 H   0  0  0  0  0  0  0  0  0  0  0  0
   38.5520   21.2870   33.9760 H   0  0  0  0  0  0  0  0  0  0  0  0
   37.8930   27.5010   33.6320 O   0  0  0  0  0  0  0  0  0  0  0  0
   40.1360   26.6770   34.5930 O   0  0  0  0  0  0  0  0  0  0  0  0
   38.6870   26.8250   34.9300 P   0  0  1  0  0  0  0  0  0  0  0  0
   38.6340   27.9070   36.2710 O   0  0  0  0  0  0  0  0  0  0  0  0
   38.4320   27.4560   37.1050 H   0  0  0  0  0  0  0  0  0  0  0  0
   37.9330   25.3680   35.3210 O   0  0  0  0  0  0  0  0  0  0  0  0
   39.1810   23.4670   36.2350 C   0  0  0  0  0  0  0  0  0  0  0  0
   38.3480   24.5660   36.4010 C   0  0  0  0  0  0  0  0  0  0  0  0
   37.9290   24.8570   37.6890 C   0  0  0  0  0  0  0  0  0  0  0  0
   37.2740   25.7040   37.9040 H   0  0  0  0  0  0  0  0  0  0  0  0
   38.2820   24.1320   38.8090 C   0  0  0  0  0  3  0  0  0  0  0  0
   39.1160   23.0360   38.6160 C   0  0  0  0  0  3  0  0  0  0  0  0
   39.5560   22.7140   37.3380 C   0  0  0  0  0  0  0  0  0  0  0  0
   39.6270   23.1340   34.9630 O   0  0  0  0  0  0  0  0  0  0  0  0
   39.1560   23.2950   34.1040 H   0  0  0  0  0  0  0  0  0  0  0  0
   40.3820   21.6180   37.1940 O   0  0  0  0  0  0  0  0  0  0  0  0
   40.8650   21.2140   37.9820 H   0  0  0  0  0  0  0  0  0  0  0  0
  1  4  1  6  0  0  0
  1  3  1  0  0  0  0
  2  1  1  0  0  0  0
  2  3  1  0  0  0  0
  3 19  1  0  0  0  0
  3  7  1  1  0  0  0
  5  2  1  0  0  0  0
  6  2  1  0  0  0  0
  8  1  1  0  0  0  0
  8 13  1  0  0  0  0
  9  8  2  0  0  0  0
 10  9  1  0  0  0  0
 10 11  2  0  0  0  0
 11 12  1  0  0  0  0
 12 13  2  0  0  0  0
 12 14  1  0  0  0  0
 14 18  1  0  0  0  0
 15  9  1  0  0  0  0
 16 10  1  0  0  0  0
 17 14  1  0  0  0  0
 19 21  1  0  0  0  0
 21 20  2  6  0  0  0
 21 24  1  0  0  0  0
 21 22  1  0  0  0  0
 22 23  1  0  0  0  0
 24 26  1  0  0  0  0
 25 26  2  0  0  0  0
 25 31  1  0  0  0  0
 26 27  1  0  0  0  0
 27 28  1  0  0  0  0
 27 29  2  0  0  0  0
 30 29  1  0  0  0  0
 31 30  2  0  0  0  0
 32 25  1  0  0  0  0
 33 32  1  0  0  0  0
 34 31  1  0  0  0  0
 34 35  1  0  0  0  0
M  END
>  <minimizedAffinity>
-5.67570925

$$$$

 OpenBabel03272504583D

 35 37  0  0  1  0  0  0  0  0999 V2000
   37.7320   25.9500   35.8320 C   0  0  1  0  0  0  0  0  0  0  0  0
   38.5460   27.1410   35.7990 C   0  0  0  0  0  0  0  0  0  0  0  0
   37.7780   26.7210   34.5830 C   0  0  2  0  0  0  0  0  0  0  0  0
   36.6980   25.9210   36.3210 H   0  0  0  0  0  0  0  0  0  0  0  0
   39.6440   26.9850   35.7740 H   0  0  0  0  0  0  0  0  0  0  0  0
   38.2520   27.7550   36.6310 H   0  0  0  0  0  0  0  0  0  0  0  0
   38.4550   26.6610   33.7420 H   0  0  0  0  0  0  0  0  0  0  0  0
   38.3590   24.5840   35.8010 C   0  0  0  0  0  0  0  0  0  0  0  0
   38.3580   23.9350   34.5540 C   0  0  0  0  0  0  0  0  0  0  0  0
   38.9350   22.6870   34.5510 C   0  0  0  0  0  0  0  0  0  0  0  0
   39.4530   22.1670   35.6870 N   0  0  0  0  0  0  0  0  0  0  0  0
   39.4350   22.8250   36.8700 C   0  0  0  0  0  0  0  0  0  0  0  0
   38.8660   24.0720   36.9150 N   0  0  0  0  0  0  0  0  0  0  0  0
   39.9880   22.3160   38.0480 N   0  0  0  0  0  0  0  0  0  0  0  0
   37.9500   24.3380   33.6400 H   0  0  0  0  0  0  0  0  0  0  0  0
   38.9560   22.1470   33.6030 H   0  0  0  0  0  0  0  0  0  0  0  0
   40.8570   21.7310   37.8680 H   0  0  0  0  0  0  0  0  0  0  0  0
   39.6030   22.4860   38.9790 H   0  0  0  0  0  0  0  0  0  0  0  0
   36.6300   27.4820   34.3220 O   0  0  0  0  0  0  0  0  0  0  0  0
   37.9840   27.9300   32.1760 O   0  0  0  0  0  0  0  0  0  0  0  0
   36.5990   27.9900   32.7360 P   0  0  1  0  0  0  0  0  0  0  0  0
   35.6720   26.8860   31.7900 O   0  0  0  0  0  0  0  0  0  0  0  0
   35.0750   27.3350   31.1730 H   0  0  0  0  0  0  0  0  0  0  0  0
   35.9140   29.5300   32.6790 O   0  0  0  0  0  0  0  0  0  0  0  0
   33.7710   29.8420   33.8270 C   0  0  0  0  0  0  0  0  0  0  0  0
   35.1400   30.0540   33.7320 C   0  0  0  0  0  0  0  0  0  0  0  0
   35.7360   30.8140   34.7260 C   0  0  0  0  0  0  0  0  0  0  0  0
   36.8070   31.0270   34.7240 H   0  0  0  0  0  0  0  0  0  0  0  0
   35.0630   31.3690   35.7950 C   0  0  0  0  0  3  0  0  0  0  0  0
   33.6930   31.1420   35.8670 C   0  0  0  0  0  3  0  0  0  0  0  0
   33.0620   30.3850   34.8880 C   0  0  0  0  0  0  0  0  0  0  0  0
   33.1280   29.0870   32.8550 O   0  0  0  0  0  0  0  0  0  0  0  0
   33.3870   28.9970   31.9010 H   0  0  0  0  0  0  0  0  0  0  0  0
   31.7010   30.1850   35.0010 O   0  0  0  0  0  0  0  0  0  0  0  0
   31.2140   30.3460   35.8690 H   0  0  0  0  0  0  0  0  0  0  0  0
  1  4  1  1  0  0  0
  2  1  1  0  0  0  0
  2  6  1  0  0  0  0
  3  7  1  6  0  0  0
  3  2  1  0  0  0  0
  3  1  1  0  0  0  0
  5  2  1  0  0  0  0
  8  1  1  0  0  0  0
  8 13  1  0  0  0  0
  9  8  2  0  0  0  0
 10  9  1  0  0  0  0
 10 11  2  0  0  0  0
 11 12  1  0  0  0  0
 12 13  2  0  0  0  0
 12 14  1  0  0  0  0
 14 18  1  0  0  0  0
 15  9  1  0  0  0  0
 16 10  1  0  0  0  0
 17 14  1  0  0  0  0
 19  3  1  0  0  0  0
 21 20  2  6  0  0  0
 21 19  1  0  0  0  0
 22 21  1  0  0  0  0
 23 22  1  0  0  0  0
 24 21  1  0  0  0  0
 24 26  1  0  0  0  0
 25 31  1  0  0  0  0
 26 25  2  0  0  0  0
 26 27  1  0  0  0  0
 27 29  2  0  0  0  0
 28 27  1  0  0  0  0
 29 30  1  0  0  0  0
 31 34  1  0  0  0  0
 31 30  2  0  0  0  0
 32 25  1  0  0  0  0
 33 32  1  0  0  0  0
 34 35  1  0  0  0  0
M  END
>  <minimizedAffinity>
-5.62517548

$$$$
