
 OpenBabel03272510173D

 30 32  0  0  0  0  0  0  0  0999 V2000
   37.2130   29.3240   50.9480 Br  0  0  0  0  0  0  0  0  0  0  0  0
   35.9460   29.2970   49.5150 C   0  0  0  0  0  0  0  0  0  0  0  0
   36.0190   30.2150   48.4670 C   0  0  0  0  0  0  0  0  0  0  0  0
   35.0700   30.1290   47.4700 C   0  0  0  0  0  0  0  0  0  0  0  0
   34.0600   29.1800   47.4660 C   0  0  0  0  0  0  0  0  0  0  0  0
   34.0140   28.2900   48.5130 C   0  0  0  0  0  0  0  0  0  0  0  0
   34.9500   28.3560   49.5200 C   0  0  0  0  0  0  0  0  0  0  0  0
   35.1210   30.8410   46.6500 H   0  0  0  0  0  0  0  0  0  0  0  0
   33.2300   27.5450   48.5200 H   0  0  0  0  0  0  0  0  0  0  0  0
   34.8940   27.6370   50.3420 H   0  0  0  0  0  0  0  0  0  0  0  0
   37.9910   33.1370   49.4290 C   0  0  0  0  0  0  0  0  0  0  0  0
   39.0340   33.1500   48.4800 C   0  0  0  0  0  0  0  0  0  0  0  0
   39.0530   32.1420   47.5020 C   0  0  0  0  0  0  0  0  0  0  0  0
   38.0590   31.2010   47.5230 N   0  0  0  0  0  0  0  0  0  0  0  0
   37.0710   31.2200   48.4510 C   0  0  0  0  0  0  0  0  0  0  0  0
   37.0410   32.1800   49.3950 N   0  0  0  0  0  0  0  0  0  0  0  0
   38.0200   33.9360   50.1640 H   0  0  0  0  0  0  0  0  0  0  0  0
   39.8280   33.8590   48.4230 H   0  0  0  0  0  0  0  0  0  0  0  0
   39.7910   32.0430   46.7260 H   0  0  0  0  0  0  0  0  0  0  0  0
   33.1380   28.2020   45.3860 C   0  0  0  0  0  0  0  0  0  0  0  0
   33.1030   29.1760   46.3580 C   0  0  0  0  0  0  0  0  0  0  0  0
   32.1460   30.1560   46.2780 C   0  0  0  0  0  0  0  0  0  0  0  0
   32.0580   30.9390   46.9920 H   0  0  0  0  0  0  0  0  0  0  0  0
   31.2600   30.1030   45.2020 C   0  0  0  0  0  3  0  0  0  0  0  0
   31.2920   29.1240   44.2200 C   0  0  0  0  0  3  0  0  0  0  0  0
   32.2600   28.1510   44.3230 C   0  0  0  0  0  0  0  0  0  0  0  0
   34.1200   27.2160   45.4910 O   0  0  0  0  0  0  0  0  0  0  0  0
   34.6500   26.8820   44.6970 H   0  0  0  0  0  0  0  0  0  0  0  0
   32.3640   27.1250   43.3760 O   0  0  0  0  0  0  0  0  0  0  0  0
   32.9690   27.2570   42.5520 H   0  0  0  0  0  0  0  0  0  0  0  0
  2  7  1  0  0  0  0
  2  1  1  0  0  0  0
  3  2  2  0  0  0  0
  4  3  1  0  0  0  0
  5  4  2  0  0  0  0
  5  6  1  0  0  0  0
  6  9  1  0  0  0  0
  6  7  2  0  0  0  0
  7 10  1  0  0  0  0
  8  4  1  0  0  0  0
 11 17  1  0  0  0  0
 12 11  2  0  0  0  0
 13 14  2  0  0  0  0
 13 12  1  0  0  0  0
 14 15  1  0  0  0  0
 15  3  1  0  0  0  0
 15 16  2  0  0  0  0
 16 11  1  0  0  0  0
 18 12  1  0  0  0  0
 19 13  1  0  0  0  0
 20 27  1  0  0  0  0
 20 21  1  0  0  0  0
 21  5  1  0  0  0  0
 22 21  2  0  0  0  0
 22 23  1  0  0  0  0
 24 22  1  0  0  0  0
 25 26  1  0  0  0  0
 25 24  2  0  0  0  0
 26 20  2  0  0  0  0
 28 27  1  0  0  0  0
 29 26  1  0  0  0  0
 30 29  1  0  0  0  0
M  END
>  <minimizedAffinity>
-5.83336592

>  <minimizedRMSD>
0.297055185

$$$$
