
 OpenBabel03272506483D

 44 47  0  0  1  0  0  0  0  0999 V2000
   31.9930   28.3740   47.5140 C   0  0  2  0  0  0  0  0  0  0  0  0
   33.2530   28.1760   48.3070 C   0  0  1  0  0  0  0  0  0  0  0  0
   33.6070   26.8640   48.2140 O   0  0  0  0  0  0  0  0  0  0  0  0
   32.8500   26.2480   47.2230 C   0  0  0  0  0  0  0  0  0  0  0  0
   32.2640   27.3480   46.3740 C   0  0  1  0  0  0  0  0  0  0  0  0
   31.0730   28.0820   48.0070 H   0  0  0  0  0  0  0  0  0  0  0  0
   33.1520   28.5440   49.3560 H   0  0  0  0  0  0  0  0  0  0  0  0
   32.1200   25.6310   47.7570 H   0  0  0  0  0  0  0  0  0  0  0  0
   33.4730   25.5480   46.6140 H   0  0  0  0  0  0  0  0  0  0  0  0
   33.0100   27.7780   45.7120 H   0  0  0  0  0  0  0  0  0  0  0  0
   31.9550   29.6720   46.9660 O   0  0  0  0  0  0  0  0  0  0  0  0
   32.1390   30.2810   47.7220 H   0  0  0  0  0  0  0  0  0  0  0  0
   34.5750   29.1690   47.5060 S   0  0  0  0  0  0  0  0  0  0  0  0
   37.0140   29.2500   50.6280 C   0  0  0  0  0  0  0  0  0  0  0  0
   37.4180   30.5790   50.7400 C   0  0  0  0  0  0  0  0  0  0  0  0
   36.9190   31.4900   49.8160 C   0  0  0  0  0  0  0  0  0  0  0  0
   36.0620   31.0430   48.8480 N   0  0  0  0  0  0  0  0  0  0  0  0
   35.6980   29.7420   48.7800 C   0  0  0  0  0  0  0  0  0  0  0  0
   36.1670   28.8310   49.6640 N   0  0  0  0  0  0  0  0  0  0  0  0
   37.3920   28.5280   51.3390 H   0  0  0  0  0  0  0  0  0  0  0  0
   38.0980   30.8860   51.5230 H   0  0  0  0  0  0  0  0  0  0  0  0
   37.2090   32.5250   49.8710 H   0  0  0  0  0  0  0  0  0  0  0  0
   31.0930   26.9060   45.8110 O   0  0  0  0  0  0  0  0  0  0  0  0
   29.9420   29.1380   44.2720 Cl  0  0  0  0  0  0  0  0  0  0  0  0
   29.2280   28.2410   45.5910 C   0  0  0  0  0  0  0  0  0  0  0  0
   29.8630   27.2030   46.2310 C   0  0  0  0  0  0  0  0  0  0  0  0
   29.1780   26.5470   47.2540 C   0  0  0  0  0  0  0  0  0  0  0  0
   27.9070   26.9310   47.6120 C   0  0  0  0  0  0  0  0  0  0  0  0
   27.2580   27.9740   46.9750 C   0  0  0  0  0  0  0  0  0  0  0  0
   27.9260   28.6320   45.9580 C   0  0  0  0  0  0  0  0  0  0  0  0
   29.5740   25.7200   47.8160 H   0  0  0  0  0  0  0  0  0  0  0  0
   27.3130   26.4760   48.3900 H   0  0  0  0  0  0  0  0  0  0  0  0
   26.2510   28.2980   47.2390 H   0  0  0  0  0  0  0  0  0  0  0  0
   26.5370   29.2780   44.1730 C   0  0  0  0  0  0  0  0  0  0  0  0
   27.2620   29.7390   45.2710 C   0  0  0  0  0  0  0  0  0  0  0  0
   27.2750   31.0820   45.5700 C   0  0  0  0  0  0  0  0  0  0  0  0
   27.8690   31.3180   46.4390 H   0  0  0  0  0  0  0  0  0  0  0  0
   26.5650   31.9560   44.7700 C   0  0  0  0  0  3  0  0  0  0  0  0
   25.8430   31.5270   43.6820 C   0  0  0  0  0  3  0  0  0  0  0  0
   25.8270   30.1640   43.3740 C   0  0  0  0  0  0  0  0  0  0  0  0
   26.4270   27.9640   43.7470 O   0  0  0  0  0  0  0  0  0  0  0  0
   27.1420   27.4220   43.3170 H   0  0  0  0  0  0  0  0  0  0  0  0
   25.0800   29.7950   42.2640 O   0  0  0  0  0  0  0  0  0  0  0  0
   25.3760   28.9310   41.7870 H   0  0  0  0  0  0  0  0  0  0  0  0
  1  6  1  1  0  0  0
  1  2  1  0  0  0  0
  2  7  1  1  0  0  0
  3  2  1  0  0  0  0
  4  8  1  0  0  0  0
  4  3  1  0  0  0  0
  5 10  1  6  0  0  0
  5  4  1  0  0  0  0
  5  1  1  0  0  0  0
  9  4  1  0  0  0  0
 11  1  1  0  0  0  0
 11 12  1  0  0  0  0
 13  2  1  0  0  0  0
 13 18  1  0  0  0  0
 14 15  1  0  0  0  0
 14 20  1  0  0  0  0
 15 21  1  0  0  0  0
 16 22  1  0  0  0  0
 16 15  2  0  0  0  0
 17 16  1  0  0  0  0
 18 17  2  0  0  0  0
 18 19  1  0  0  0  0
 19 14  2  0  0  0  0
 23 26  1  0  0  0  0
 23  5  1  0  0  0  0
 24 25  1  0  0  0  0
 25 30  2  0  0  0  0
 25 26  1  0  0  0  0
 26 27  2  0  0  0  0
 27 28  1  0  0  0  0
 27 31  1  0  0  0  0
 28 32  1  0  0  0  0
 29 33  1  0  0  0  0
 29 28  2  0  0  0  0
 30 29  1  0  0  0  0
 34 35  1  0  0  0  0
 35 36  2  0  0  0  0
 35 30  1  0  0  0  0
 36 37  1  0  0  0  0
 38 36  1  0  0  0  0
 39 38  2  0  0  0  0
 40 39  1  0  0  0  0
 40 34  2  0  0  0  0
 41 34  1  0  0  0  0
 42 41  1  0  0  0  0
 43 40  1  0  0  0  0
 44 43  1  0  0  0  0
M  END
>  <minimizedAffinity>
-5.56803513

>  <minimizedRMSD>
0.407917053

$$$$
