
 OpenBabel03272506093D

 46 49  0  0  0  0  0  0  0  0999 V2000
   34.6750   28.3420   49.0690 C   0  0  0  0  0  0  0  0  0  0  0  0
   35.5530   28.2030   48.4120 H   0  0  0  0  0  0  0  0  0  0  0  0
   34.7230   27.4580   49.7740 H   0  0  0  0  0  0  0  0  0  0  0  0
   33.3830   28.2420   48.2900 C   0  0  0  0  0  0  0  0  0  0  0  0
   33.3860   28.5600   46.8740 C   0  0  0  0  0  0  0  0  0  0  0  0
   31.6930   28.2940   46.4650 S   0  0  0  0  0  0  0  0  0  0  0  0
   31.1870   27.7980   48.2000 C   0  0  0  0  0  0  0  0  0  0  0  0
   32.2300   27.8910   48.7640 N   0  0  0  0  0  0  0  0  0  0  0  0
   29.8990   27.4020   48.7450 N   0  0  0  0  0  0  0  0  0  0  0  0
   28.9990   26.7650   47.8540 C   0  0  0  0  0  0  0  0  0  0  0  0
   27.5950   26.6930   48.3410 C   0  0  0  0  0  0  0  0  0  0  0  0
   27.3450   27.5490   49.5040 N   0  0  0  0  0  0  0  0  0  0  0  0
   28.2950   27.0850   50.5020 C   0  0  0  0  0  0  0  0  0  0  0  0
   29.6260   27.6860   50.1460 C   0  0  0  0  0  0  0  0  0  0  0  0
   34.2240   28.8640   46.3080 H   0  0  0  0  0  0  0  0  0  0  0  0
   28.9940   27.3390   46.8980 H   0  0  0  0  0  0  0  0  0  0  0  0
   29.3770   25.7400   47.5780 H   0  0  0  0  0  0  0  0  0  0  0  0
   27.4100   25.6580   48.7250 H   0  0  0  0  0  0  0  0  0  0  0  0
   26.8300   26.9080   47.5900 H   0  0  0  0  0  0  0  0  0  0  0  0
   26.3610   27.4050   49.7910 H   0  0  0  0  0  0  0  0  0  0  0  0
   28.0210   27.4400   51.5200 H   0  0  0  0  0  0  0  0  0  0  0  0
   28.3630   25.9890   50.5330 H   0  0  0  0  0  0  0  0  0  0  0  0
   29.5270   28.7980   50.3170 H   0  0  0  0  0  0  0  0  0  0  0  0
   30.3880   27.3020   50.8300 H   0  0  0  0  0  0  0  0  0  0  0  0
   34.7330   29.5840   49.8550 C   0  0  0  0  0  0  0  0  0  0  0  0
   34.9900   29.3680   50.9250 H   0  0  0  0  0  0  0  0  0  0  0  0
   33.8110   30.1920   49.7680 H   0  0  0  0  0  0  0  0  0  0  0  0
   37.4560   32.1020   49.7380 C   0  0  0  0  0  0  0  0  0  0  0  0
   37.9270   31.9720   48.4410 C   0  0  0  0  0  0  0  0  0  0  0  0
   37.3260   31.0370   47.6090 C   0  0  0  0  0  0  0  0  0  0  0  0
   36.3070   30.3040   48.1240 N   0  0  0  0  0  0  0  0  0  0  0  0
   35.8780   30.4610   49.3920 C   0  0  0  0  0  0  0  0  0  0  0  0
   36.4450   31.3460   50.1850 N   0  0  0  0  0  0  0  0  0  0  0  0
   37.9510   32.8470   50.3680 H   0  0  0  0  0  0  0  0  0  0  0  0
   38.7190   32.5660   48.0930 H   0  0  0  0  0  0  0  0  0  0  0  0
   36.8420   30.6730   45.1460 C   0  0  0  0  0  0  0  0  0  0  0  0
   37.6760   30.7640   46.2300 C   0  0  0  0  0  0  0  0  0  0  0  0
   39.0000   30.5650   45.9060 C   0  0  0  0  0  0  0  0  0  0  0  0
   39.7920   30.6000   46.6360 H   0  0  0  0  0  0  0  0  0  0  0  0
   39.4410   30.3000   44.6260 C   0  0  0  0  0  3  0  0  0  0  0  0
   38.5730   30.2180   43.5840 C   0  0  0  0  0  3  0  0  0  0  0  0
   37.2390   30.4110   43.8540 C   0  0  0  0  0  0  0  0  0  0  0  0
   35.4990   30.8500   45.3320 O   0  0  0  0  0  0  0  0  0  0  0  0
   34.8520   30.0800   45.3500 H   0  0  0  0  0  0  0  0  0  0  0  0
   36.3300   30.3350   42.8170 O   0  0  0  0  0  0  0  0  0  0  0  0
   36.2540   30.9980   42.0600 H   0  0  0  0  0  0  0  0  0  0  0  0
  1  3  1  0  0  0  0
  1 25  1  0  0  0  0
  2  1  1  0  0  0  0
  4  8  1  0  0  0  0
  4  1  1  0  0  0  0
  5  4  2  0  0  0  0
  6  5  1  0  0  0  0
  6  7  1  0  0  0  0
  7  9  1  0  0  0  0
  7  8  2  0  0  0  0
  9 14  1  0  0  0  0
 10 11  1  0  0  0  0
 10  9  1  0  0  0  0
 11 18  1  0  0  0  0
 11 12  1  0  0  0  0
 12 20  1  0  0  0  0
 12 13  1  0  0  0  0
 13 22  1  0  0  0  0
 13 21  1  0  0  0  0
 14 23  1  0  0  0  0
 14 13  1  0  0  0  0
 14 24  1  0  0  0  0
 15  5  1  0  0  0  0
 16 10  1  0  0  0  0
 17 10  1  0  0  0  0
 19 11  1  0  0  0  0
 25 26  1  0  0  0  0
 27 25  1  0  0  0  0
 28 33  1  0  0  0  0
 28 34  1  0  0  0  0
 29 28  2  0  0  0  0
 30 31  2  0  0  0  0
 30 29  1  0  0  0  0
 31 32  1  0  0  0  0
 32 25  1  0  0  0  0
 32 33  2  0  0  0  0
 35 29  1  0  0  0  0
 36 43  1  0  0  0  0
 36 37  1  0  0  0  0
 37 30  1  0  0  0  0
 38 37  2  0  0  0  0
 38 39  1  0  0  0  0
 40 38  1  0  0  0  0
 41 42  1  0  0  0  0
 41 40  2  0  0  0  0
 42 36  2  0  0  0  0
 43 44  1  0  0  0  0
 45 42  1  0  0  0  0
 46 45  1  0  0  0  0
M  END
>  <minimizedAffinity>
-6.91003084

>  <minimizedRMSD>
1.39042628

$$$$
