
 OpenBabel03272509153D

 49 52  0  0  1  0  0  0  0  0999 V2000
   34.8930   30.0770   46.8310 C   0  0  0  0  0  0  0  0  0  0  0  0
   36.2050   30.5960   46.9510 C   0  0  0  0  0  0  0  0  0  0  0  0
   36.9230   30.8190   45.7810 C   0  0  0  0  0  0  0  0  0  0  0  0
   36.3380   30.5310   44.5870 N   0  0  0  0  0  0  0  0  0  0  0  0
   35.0880   30.0370   44.5100 C   0  0  0  0  0  0  0  0  0  0  0  0
   34.3730   29.8120   45.6120 N   0  0  0  0  0  0  0  0  0  0  0  0
   34.2670   29.8870   47.6740 H   0  0  0  0  0  0  0  0  0  0  0  0
   34.5890   29.7950   43.5710 H   0  0  0  0  0  0  0  0  0  0  0  0
   36.6600   30.8210   48.3040 N   0  0  0  0  0  0  0  0  0  0  0  0
   37.0910   31.8940   49.1530 C   0  0  0  0  0  0  0  0  0  0  0  0
   38.3830   31.3910   49.7140 C   0  0  0  0  0  0  0  0  0  0  0  0
   38.1460   29.8820   49.8480 C   0  0  0  0  0  0  0  0  0  0  0  0
   36.7980   29.6740   49.2450 C   0  0  1  0  0  0  0  0  0  0  0  0
   37.0220   32.9070   48.8230 H   0  0  0  0  0  0  0  0  0  0  0  0
   36.3730   31.8560   50.0330 H   0  0  0  0  0  0  0  0  0  0  0  0
   38.6290   31.8510   50.6970 H   0  0  0  0  0  0  0  0  0  0  0  0
   39.2400   31.5050   49.0510 H   0  0  0  0  0  0  0  0  0  0  0  0
   38.9580   29.2810   49.4260 H   0  0  0  0  0  0  0  0  0  0  0  0
   38.0920   29.6290   50.9400 H   0  0  0  0  0  0  0  0  0  0  0  0
   36.6370   28.7300   48.7330 H   0  0  0  0  0  0  0  0  0  0  0  0
   34.7080   28.9460   50.3730 C   0  0  0  0  0  0  0  0  0  0  0  0
   34.4180   28.0230   49.5420 O   0  0  0  0  0  0  0  0  0  0  0  0
   35.7970   29.8690   50.2920 N   0  0  0  0  0  0  0  0  0  0  0  0
   33.9130   28.7840   51.0790 H   0  0  0  0  0  0  0  0  0  0  0  0
   35.5720   30.4980   51.0860 H   0  0  0  0  0  0  0  0  0  0  0  0
   38.2620   31.3460   45.7850 C   0  0  0  0  0  0  0  0  0  0  0  0
   38.4650   32.5710   46.3510 C   0  0  0  0  0  0  0  0  0  0  0  0
   39.7120   33.1610   46.4320 C   0  0  0  0  0  0  0  0  0  0  0  0
   40.7940   32.4590   45.9060 C   0  0  0  0  0  0  0  0  0  0  0  0
   40.6520   31.2180   45.3190 C   0  0  0  0  0  0  0  0  0  0  0  0
   39.3520   30.6980   45.2830 C   0  0  0  0  0  0  0  0  0  0  0  0
   37.7550   33.2690   46.7560 H   0  0  0  0  0  0  0  0  0  0  0  0
   40.0080   34.0920   46.8460 H   0  0  0  0  0  0  0  0  0  0  0  0
   41.8220   32.8170   45.9130 H   0  0  0  0  0  0  0  0  0  0  0  0
   41.4900   30.6670   44.9050 H   0  0  0  0  0  0  0  0  0  0  0  0
   39.1780   29.3730   44.6470 C   0  0  0  0  0  0  0  0  0  0  0  0
   38.1140   29.0090   44.8180 H   0  0  0  0  0  0  0  0  0  0  0  0
   39.8230   28.6280   45.1680 H   0  0  0  0  0  0  0  0  0  0  0  0
   38.4990   28.7860   42.2470 C   0  0  0  0  0  0  0  0  0  0  0  0
   39.3550   29.3340   43.1830 C   0  0  0  0  0  0  0  0  0  0  0  0
   40.5130   29.9350   42.6750 C   0  0  0  0  0  0  0  0  0  0  0  0
   41.2170   30.3800   43.3590 H   0  0  0  0  0  0  0  0  0  0  0  0
   40.8090   29.9910   41.3180 C   0  0  0  0  0  3  0  0  0  0  0  0
   39.9680   29.4520   40.3850 C   0  0  0  0  0  3  0  0  0  0  0  0
   38.8270   28.8600   40.8910 C   0  0  0  0  0  0  0  0  0  0  0  0
   37.3620   28.1960   42.7420 O   0  0  0  0  0  0  0  0  0  0  0  0
   36.4250   28.4440   42.5110 H   0  0  0  0  0  0  0  0  0  0  0  0
   37.9490   28.3010   39.9620 O   0  0  0  0  0  0  0  0  0  0  0  0
   37.8060   28.7020   39.0410 H   0  0  0  0  0  0  0  0  0  0  0  0
  1  2  1  0  0  0  0
  1  7  1  0  0  0  0
  2  9  1  0  0  0  0
  3 26  1  0  0  0  0
  3  2  2  0  0  0  0
  4  3  1  0  0  0  0
  5  4  2  0  0  0  0
  5  6  1  0  0  0  0
  6  1  2  0  0  0  0
  8  5  1  0  0  0  0
  9 10  1  0  0  0  0
  9 13  1  0  0  0  0
 10 11  1  0  0  0  0
 10 15  1  0  0  0  0
 11 12  1  0  0  0  0
 11 16  1  0  0  0  0
 12 19  1  0  0  0  0
 13 20  1  6  0  0  0
 13 12  1  0  0  0  0
 13 23  1  0  0  0  0
 14 10  1  0  0  0  0
 17 11  1  0  0  0  0
 18 12  1  0  0  0  0
 21 24  1  0  0  0  0
 22 21  2  0  0  0  0
 23 21  1  0  0  0  0
 23 25  1  0  0  0  0
 26 27  1  0  0  0  0
 27 28  2  0  0  0  0
 27 32  1  0  0  0  0
 28 33  1  0  0  0  0
 29 34  1  0  0  0  0
 29 28  1  0  0  0  0
 30 29  2  0  0  0  0
 31 30  1  0  0  0  0
 31 26  2  0  0  0  0
 35 30  1  0  0  0  0
 36 37  1  0  0  0  0
 36 38  1  0  0  0  0
 36 31  1  0  0  0  0
 39 46  1  0  0  0  0
 39 40  1  0  0  0  0
 40 36  1  0  0  0  0
 41 40  2  0  0  0  0
 41 42  1  0  0  0  0
 43 41  1  0  0  0  0
 44 45  1  0  0  0  0
 44 43  2  0  0  0  0
 45 39  2  0  0  0  0
 47 46  1  0  0  0  0
 48 45  1  0  0  0  0
 49 48  1  0  0  0  0
M  END
>  <minimizedAffinity>
-5.92909479

>  <minimizedRMSD>
0.882565498

$$$$
