
 OpenBabel03272509153D

 49 52  0  0  1  0  0  0  0  0999 V2000
   34.7830   30.0830   46.8970 C   0  0  0  0  0  0  0  0  0  0  0  0
   36.1120   30.5670   46.9480 C   0  0  0  0  0  0  0  0  0  0  0  0
   36.7930   30.7230   45.7440 C   0  0  0  0  0  0  0  0  0  0  0  0
   36.1540   30.4060   44.5850 N   0  0  0  0  0  0  0  0  0  0  0  0
   34.8890   29.9480   44.5730 C   0  0  0  0  0  0  0  0  0  0  0  0
   34.2100   29.7880   45.7090 N   0  0  0  0  0  0  0  0  0  0  0  0
   34.1840   29.9460   47.7690 H   0  0  0  0  0  0  0  0  0  0  0  0
   34.3470   29.6840   43.6640 H   0  0  0  0  0  0  0  0  0  0  0  0
   36.6260   30.8300   48.2730 N   0  0  0  0  0  0  0  0  0  0  0  0
   37.0750   31.9290   49.0770 C   0  0  0  0  0  0  0  0  0  0  0  0
   38.4000   31.4600   49.5900 C   0  0  0  0  0  0  0  0  0  0  0  0
   38.1960   29.9510   49.7670 C   0  0  0  0  0  0  0  0  0  0  0  0
   36.8260   29.7070   49.2320 C   0  0  1  0  0  0  0  0  0  0  0  0
   36.9740   32.9330   48.7290 H   0  0  0  0  0  0  0  0  0  0  0  0
   36.4000   31.8990   49.9900 H   0  0  0  0  0  0  0  0  0  0  0  0
   38.6840   31.9460   50.5490 H   0  0  0  0  0  0  0  0  0  0  0  0
   39.2240   31.5730   48.8850 H   0  0  0  0  0  0  0  0  0  0  0  0
   38.9980   29.3540   49.3220 H   0  0  0  0  0  0  0  0  0  0  0  0
   38.1960   29.7220   50.8660 H   0  0  0  0  0  0  0  0  0  0  0  0
   36.6580   28.7490   48.7490 H   0  0  0  0  0  0  0  0  0  0  0  0
   34.7810   28.9930   50.4480 C   0  0  0  0  0  0  0  0  0  0  0  0
   34.4520   28.0700   49.6310 O   0  0  0  0  0  0  0  0  0  0  0  0
   35.8700   29.9100   50.3200 N   0  0  0  0  0  0  0  0  0  0  0  0
   34.0150   28.8360   51.1860 H   0  0  0  0  0  0  0  0  0  0  0  0
   35.6810   30.5420   51.1200 H   0  0  0  0  0  0  0  0  0  0  0  0
   38.1450   31.2080   45.6780 C   0  0  0  0  0  0  0  0  0  0  0  0
   38.4300   32.3900   46.2970 C   0  0  0  0  0  0  0  0  0  0  0  0
   39.7000   32.9360   46.3180 C   0  0  0  0  0  0  0  0  0  0  0  0
   40.7160   32.2350   45.6730 C   0  0  0  0  0  0  0  0  0  0  0  0
   40.4890   31.0370   45.0280 C   0  0  0  0  0  0  0  0  0  0  0  0
   39.1730   30.5590   45.0580 C   0  0  0  0  0  0  0  0  0  0  0  0
   37.7770   33.0840   46.7940 H   0  0  0  0  0  0  0  0  0  0  0  0
   40.0570   33.8310   46.7620 H   0  0  0  0  0  0  0  0  0  0  0  0
   41.7540   32.5620   45.6230 H   0  0  0  0  0  0  0  0  0  0  0  0
   41.2750   30.4870   44.5200 H   0  0  0  0  0  0  0  0  0  0  0  0
   38.9070   29.2800   44.3630 C   0  0  0  0  0  0  0  0  0  0  0  0
   37.7910   29.0610   44.3870 H   0  0  0  0  0  0  0  0  0  0  0  0
   39.3760   28.4460   44.9350 H   0  0  0  0  0  0  0  0  0  0  0  0
   38.7260   29.9990   41.9110 C   0  0  0  0  0  0  0  0  0  0  0  0
   39.2640   29.2410   42.9320 C   0  0  0  0  0  0  0  0  0  0  0  0
   40.2750   28.3430   42.5620 C   0  0  0  0  0  0  0  0  0  0  0  0
   40.7310   27.7260   43.3180 H   0  0  0  0  0  0  0  0  0  0  0  0
   40.7280   28.2060   41.2550 C   0  0  0  0  0  3  0  0  0  0  0  0
   40.2040   28.9540   40.2380 C   0  0  0  0  0  3  0  0  0  0  0  0
   39.2070   29.8370   40.6080 C   0  0  0  0  0  0  0  0  0  0  0  0
   37.7370   30.8810   42.2700 O   0  0  0  0  0  0  0  0  0  0  0  0
   37.7530   31.8670   42.1330 H   0  0  0  0  0  0  0  0  0  0  0  0
   38.6530   30.6140   39.5910 O   0  0  0  0  0  0  0  0  0  0  0  0
   39.1990   30.9480   38.8040 H   0  0  0  0  0  0  0  0  0  0  0  0
  1  2  1  0  0  0  0
  1  7  1  0  0  0  0
  2  9  1  0  0  0  0
  3  2  2  0  0  0  0
  4  3  1  0  0  0  0
  5  4  2  0  0  0  0
  5  6  1  0  0  0  0
  6  1  2  0  0  0  0
  8  5  1  0  0  0  0
  9 10  1  0  0  0  0
  9 13  1  0  0  0  0
 10 11  1  0  0  0  0
 10 15  1  0  0  0  0
 11 12  1  0  0  0  0
 11 16  1  0  0  0  0
 12 19  1  0  0  0  0
 13 20  1  6  0  0  0
 13 12  1  0  0  0  0
 13 23  1  0  0  0  0
 14 10  1  0  0  0  0
 17 11  1  0  0  0  0
 18 12  1  0  0  0  0
 21 24  1  0  0  0  0
 22 21  2  0  0  0  0
 23 21  1  0  0  0  0
 23 25  1  0  0  0  0
 26  3  1  0  0  0  0
 26 27  1  0  0  0  0
 27 28  2  0  0  0  0
 27 32  1  0  0  0  0
 28 33  1  0  0  0  0
 29 28  1  0  0  0  0
 30 31  1  0  0  0  0
 30 29  2  0  0  0  0
 31 26  2  0  0  0  0
 34 29  1  0  0  0  0
 35 30  1  0  0  0  0
 36 37  1  0  0  0  0
 36 38  1  0  0  0  0
 36 31  1  0  0  0  0
 39 46  1  0  0  0  0
 39 40  1  0  0  0  0
 40 36  1  0  0  0  0
 41 40  2  0  0  0  0
 41 42  1  0  0  0  0
 43 41  1  0  0  0  0
 44 45  1  0  0  0  0
 44 43  2  0  0  0  0
 45 39  2  0  0  0  0
 47 46  1  0  0  0  0
 48 45  1  0  0  0  0
 49 48  1  0  0  0  0
M  END
>  <minimizedAffinity>
-6.11393642

>  <minimizedRMSD>
0.968780994

$$$$
