
 OpenBabel03262521033D

 20 21  0  0  0  0  0  0  0  0999 V2000
   37.0910   31.2220   47.7390 C   0  0  0  0  0  0  0  0  0  0  0  0
   36.3420   30.5060   48.6500 C   0  0  0  0  0  0  0  0  0  0  0  0
   36.7860   30.6050   49.9690 C   0  0  0  0  0  0  0  0  0  0  0  0
   36.2040   30.0440   50.7050 H   0  0  0  0  0  0  0  0  0  0  0  0
   37.9030   31.3750   50.3130 C   0  0  0  0  0  3  0  0  0  0  0  0
   38.5950   32.0620   49.3220 C   0  0  0  0  0  3  0  0  0  0  0  0
   38.1790   31.9840   48.0060 C   0  0  0  0  0  0  0  0  0  0  0  0
   35.0170   28.4500   48.8820 C   0  0  0  0  0  0  0  0  0  0  0  0
   35.1970   29.7170   48.3040 C   0  0  0  0  0  0  0  0  0  0  0  0
   34.2310   30.1610   47.3950 C   0  0  0  0  0  0  0  0  0  0  0  0
   33.1730   29.3380   47.1270 N   0  0  0  0  0  0  0  0  0  0  0  0
   33.0390   28.1230   47.7090 C   0  0  0  0  0  0  0  0  0  0  0  0
   33.9630   27.6770   48.5880 N   0  0  0  0  0  0  0  0  0  0  0  0
   35.7280   28.0660   49.5810 H   0  0  0  0  0  0  0  0  0  0  0  0
   34.3280   31.1310   46.9260 H   0  0  0  0  0  0  0  0  0  0  0  0
   32.1460   27.6210   47.3750 H   0  0  0  0  0  0  0  0  0  0  0  0
   36.7180   31.1810   46.3820 O   0  0  0  0  0  0  0  0  0  0  0  0
   36.2810   32.0160   45.9670 H   0  0  0  0  0  0  0  0  0  0  0  0
   38.8920   32.6820   47.0440 O   0  0  0  0  0  0  0  0  0  0  0  0
   39.2570   32.1220   46.2580 H   0  0  0  0  0  0  0  0  0  0  0  0
  1  7  2  0  0  0  0
  1  2  1  0  0  0  0
  2  3  2  0  0  0  0
  3  5  1  0  0  0  0
  3  4  1  0  0  0  0
  6  5  2  0  0  0  0
  7  6  1  0  0  0  0
  8 14  1  0  0  0  0
  9  2  1  0  0  0  0
  9  8  2  0  0  0  0
 10  9  1  0  0  0  0
 11 10  2  0  0  0  0
 11 12  1  0  0  0  0
 12 13  2  0  0  0  0
 13  8  1  0  0  0  0
 15 10  1  0  0  0  0
 16 12  1  0  0  0  0
 17  1  1  0  0  0  0
 18 17  1  0  0  0  0
 19  7  1  0  0  0  0
 20 19  1  0  0  0  0
M  END
>  <minimizedAffinity>
-5.20634747

>  <minimizedRMSD>
3.66166615

$$$$
