
 OpenBabel03272508273D

 40 43  0  0  1  0  0  0  0  0999 V2000
   33.8760   28.9840   47.3240 C   0  0  2  0  0  0  0  0  0  0  0  0
   34.6630   28.1850   48.3570 C   0  0  2  0  0  0  0  0  0  0  0  0
   33.7940   27.9830   49.3950 O   0  0  0  0  0  0  0  0  0  0  0  0
   32.5030   28.0590   48.9710 C   0  0  0  0  0  0  0  0  0  0  0  0
   32.5140   28.2960   47.4740 C   0  0  1  0  0  0  0  0  0  0  0  0
   33.7650   30.0390   47.6070 H   0  0  0  0  0  0  0  0  0  0  0  0
   34.9380   27.2260   47.8950 H   0  0  0  0  0  0  0  0  0  0  0  0
   31.9880   27.0900   49.1430 H   0  0  0  0  0  0  0  0  0  0  0  0
   31.9280   28.9050   49.4150 H   0  0  0  0  0  0  0  0  0  0  0  0
   32.5380   27.3200   46.9660 H   0  0  0  0  0  0  0  0  0  0  0  0
   35.7430   30.4420   49.0270 C   0  0  1  0  0  0  0  0  0  0  0  0
   35.8330   29.0250   48.7600 C   0  0  1  0  0  0  0  0  0  0  0  0
   36.0350   29.4620   50.1740 C   0  0  0  0  0  0  0  0  0  0  0  0
   34.8430   31.0440   49.2490 H   0  0  0  0  0  0  0  0  0  0  0  0
   36.7760   28.6930   48.2370 H   0  0  0  0  0  0  0  0  0  0  0  0
   37.0680   29.4390   50.5970 H   0  0  0  0  0  0  0  0  0  0  0  0
   35.2730   29.3130   50.9370 H   0  0  0  0  0  0  0  0  0  0  0  0
   36.9240   31.3620   48.7640 C   0  0  0  0  0  0  0  0  0  0  0  0
   37.1490   32.3960   49.6760 C   0  0  0  0  0  0  0  0  0  0  0  0
   38.2200   33.2170   49.3910 C   0  0  0  0  0  0  0  0  0  0  0  0
   38.9920   33.0070   48.2740 N   0  0  0  0  0  0  0  0  0  0  0  0
   38.7370   31.9920   47.4150 C   0  0  0  0  0  0  0  0  0  0  0  0
   37.6930   31.1610   47.6620 N   0  0  0  0  0  0  0  0  0  0  0  0
   36.5060   32.5070   50.5340 H   0  0  0  0  0  0  0  0  0  0  0  0
   38.4320   34.0350   50.0770 H   0  0  0  0  0  0  0  0  0  0  0  0
   39.3710   31.8640   46.5480 H   0  0  0  0  0  0  0  0  0  0  0  0
   34.3590   28.8690   46.0410 O   0  0  0  0  0  0  0  0  0  0  0  0
   34.3310   27.9530   45.7080 H   0  0  0  0  0  0  0  0  0  0  0  0
   31.4920   29.0790   47.0310 O   0  0  0  0  0  0  0  0  0  0  0  0
   30.4960   28.6940   45.0170 C   0  0  0  0  0  0  0  0  0  0  0  0
   30.3630   28.6380   46.4100 C   0  0  0  0  0  0  0  0  0  0  0  0
   29.1670   28.1650   46.9010 C   0  0  0  0  0  0  0  0  0  0  0  0
   29.1380   28.1500   47.9750 H   0  0  0  0  0  0  0  0  0  0  0  0
   28.1520   27.7680   46.0710 C   0  0  0  0  0  3  0  0  0  0  0  0
   28.2820   27.8240   44.7040 C   0  0  0  0  0  3  0  0  0  0  0  0
   29.4670   28.2920   44.1720 C   0  0  0  0  0  0  0  0  0  0  0  0
   31.6180   29.1380   44.3280 O   0  0  0  0  0  0  0  0  0  0  0  0
   31.7480   30.1380   44.2180 H   0  0  0  0  0  0  0  0  0  0  0  0
   29.5400   28.3250   42.7960 O   0  0  0  0  0  0  0  0  0  0  0  0
   30.3840   28.0640   42.2750 H   0  0  0  0  0  0  0  0  0  0  0  0
  1  5  1  0  0  0  0
  1  6  1  1  0  0  0
  1  2  1  0  0  0  0
  2  7  1  6  0  0  0
  2 12  1  0  0  0  0
  2  3  1  0  0  0  0
  4  8  1  0  0  0  0
  4  3  1  0  0  0  0
  4  9  1  0  0  0  0
  5 10  1  6  0  0  0
  5  4  1  0  0  0  0
 11 14  1  6  0  0  0
 11 13  1  0  0  0  0
 12 15  1  6  0  0  0
 12 11  1  0  0  0  0
 12 13  1  0  0  0  0
 13 16  1  0  0  0  0
 13 17  1  0  0  0  0
 18 11  1  0  0  0  0
 18 19  1  0  0  0  0
 19 24  1  0  0  0  0
 20 19  2  0  0  0  0
 20 25  1  0  0  0  0
 21 20  1  0  0  0  0
 22 23  1  0  0  0  0
 22 21  2  0  0  0  0
 23 18  2  0  0  0  0
 26 22  1  0  0  0  0
 27  1  1  0  0  0  0
 28 27  1  0  0  0  0
 29  5  1  0  0  0  0
 30 31  1  0  0  0  0
 31 32  2  0  0  0  0
 31 29  1  0  0  0  0
 32 33  1  0  0  0  0
 34 32  1  0  0  0  0
 35 34  2  0  0  0  0
 36 35  1  0  0  0  0
 36 30  2  0  0  0  0
 37 30  1  0  0  0  0
 38 37  1  0  0  0  0
 39 36  1  0  0  0  0
 40 39  1  0  0  0  0
M  END
>  <minimizedAffinity>
-5.03859997

>  <minimizedRMSD>
0.654326379

$$$$
