
 OpenBabel03262523473D

 40 43  0  0  0  0  0  0  0  0999 V2000
   36.8770   32.6020   43.5040 Cl  0  0  0  0  0  0  0  0  0  0  0  0
   37.8590   31.1580   43.1960 C   0  0  0  0  0  0  0  0  0  0  0  0
   38.6020   30.7180   44.2650 C   0  0  0  0  0  0  0  0  0  0  0  0
   39.4110   29.5860   44.1290 C   0  0  0  0  0  0  0  0  0  0  0  0
   39.4640   28.9100   42.9170 C   0  0  0  0  0  0  0  0  0  0  0  0
   38.7110   29.3750   41.8690 C   0  0  0  0  0  0  0  0  0  0  0  0
   37.9090   30.4880   41.9920 C   0  0  0  0  0  0  0  0  0  0  0  0
   40.0140   29.1920   44.9190 H   0  0  0  0  0  0  0  0  0  0  0  0
   40.0780   28.0300   42.7700 H   0  0  0  0  0  0  0  0  0  0  0  0
   38.6810   28.9210   40.8880 H   0  0  0  0  0  0  0  0  0  0  0  0
   38.6530   32.9680   49.7910 Cl  0  0  0  0  0  0  0  0  0  0  0  0
   38.6380   32.3090   48.1730 C   0  0  0  0  0  0  0  0  0  0  0  0
   37.8950   31.1730   47.8770 C   0  0  0  0  0  0  0  0  0  0  0  0
   37.9240   30.7040   46.5870 C   0  0  0  0  0  0  0  0  0  0  0  0
   38.6550   31.3140   45.5940 C   0  0  0  0  0  0  0  0  0  0  0  0
   39.3930   32.4600   45.9320 C   0  0  0  0  0  0  0  0  0  0  0  0
   40.3050   33.2070   44.6510 Cl  0  0  0  0  0  0  0  0  0  0  0  0
   39.3880   32.9610   47.2170 C   0  0  0  0  0  0  0  0  0  0  0  0
   37.3410   29.8210   46.3780 H   0  0  0  0  0  0  0  0  0  0  0  0
   39.9680   33.8430   47.4330 H   0  0  0  0  0  0  0  0  0  0  0  0
   37.0200   29.3520   51.0830 C   0  0  0  0  0  0  0  0  0  0  0  0
   37.7720   29.9220   50.0460 C   0  0  0  0  0  0  0  0  0  0  0  0
   37.1340   30.5640   48.9810 C   0  0  0  0  0  0  0  0  0  0  0  0
   35.7700   30.6020   49.0100 N   0  0  0  0  0  0  0  0  0  0  0  0
   35.0870   30.0410   50.0250 C   0  0  0  0  0  0  0  0  0  0  0  0
   35.6940   29.4300   51.0410 N   0  0  0  0  0  0  0  0  0  0  0  0
   37.6500   28.8920   51.8350 H   0  0  0  0  0  0  0  0  0  0  0  0
   38.8620   29.9110   49.9900 H   0  0  0  0  0  0  0  0  0  0  0  0
   34.0000   30.0800   50.0330 H   0  0  0  0  0  0  0  0  0  0  0  0
   37.3730   32.1000   40.0810 C   0  0  0  0  0  0  0  0  0  0  0  0
   37.0620   31.0840   40.9610 C   0  0  0  0  0  0  0  0  0  0  0  0
   35.8020   30.4900   40.9380 C   0  0  0  0  0  0  0  0  0  0  0  0
   35.4420   29.7070   41.5550 H   0  0  0  0  0  0  0  0  0  0  0  0
   34.8470   30.9230   40.0190 C   0  0  0  0  0  0  0  0  0  0  0  0
   35.1740   31.9540   39.1320 C   0  0  0  0  0  0  0  0  0  0  0  0
   36.4280   32.5300   39.1710 C   0  0  0  0  0  0  0  0  0  0  0  0
   38.6670   32.5780   40.2420 O   0  0  0  0  0  0  0  0  0  0  0  0
   38.9390   33.5290   40.0900 H   0  0  0  0  0  0  0  0  0  0  0  0
   36.8470   33.5560   38.3350 O   0  0  0  0  0  0  0  0  0  0  0  0
   36.9640   33.3910   37.3280 H   0  0  0  0  0  0  0  0  0  0  0  0
  2  1  1  0  0  0  0
  2  3  1  0  0  0  0
  3 15  1  0  0  0  0
  4  3  2  0  0  0  0
  4  8  1  0  0  0  0
  5  4  1  0  0  0  0
  6  7  1  0  0  0  0
  6  5  2  0  0  0  0
  7  2  2  0  0  0  0
  9  5  1  0  0  0  0
 10  6  1  0  0  0  0
 12 11  1  0  0  0  0
 13 12  1  0  0  0  0
 13 23  1  0  0  0  0
 14 13  2  0  0  0  0
 15 16  2  0  0  0  0
 15 14  1  0  0  0  0
 16 18  1  0  0  0  0
 17 16  1  0  0  0  0
 18 20  1  0  0  0  0
 18 12  2  0  0  0  0
 19 14  1  0  0  0  0
 21 27  1  0  0  0  0
 22 21  2  0  0  0  0
 23 24  2  0  0  0  0
 23 22  1  0  0  0  0
 24 25  1  0  0  0  0
 25 29  1  0  0  0  0
 25 26  2  0  0  0  0
 26 21  1  0  0  0  0
 28 22  1  0  0  0  0
 30 37  1  0  0  0  0
 30 31  1  0  0  0  0
 31  7  1  0  0  0  0
 32 31  2  0  0  0  0
 32 33  1  0  0  0  0
 34 32  1  0  0  0  0
 35 36  1  0  0  0  0
 35 34  2  0  0  0  0
 36 30  2  0  0  0  0
 38 37  1  0  0  0  0
 39 36  1  0  0  0  0
 40 39  1  0  0  0  0
M  END
>  <minimizedAffinity>
-6.53062057

>  <minimizedRMSD>
0.277058214

$$$$
