
 OpenBabel03272505313D

 42 45  0  0  0  0  0  0  0  0999 V2000
   37.3740   31.2300   47.0070 N   0  0  0  0  0  0  0  0  0  0  0  0
   36.6880   31.0390   45.8490 C   0  0  0  0  0  0  0  0  0  0  0  0
   37.1140   31.5800   44.6400 C   0  0  0  0  0  0  0  0  0  0  0  0
   38.2890   32.3400   44.6510 C   0  0  0  0  0  0  0  0  0  0  0  0
   38.7130   32.8470   43.5900 O   0  0  0  0  0  0  0  0  0  0  0  0
   38.9780   32.5290   45.8250 N   0  0  0  0  0  0  0  0  0  0  0  0
   38.4690   31.9610   46.9110 C   0  0  0  0  0  0  0  0  0  0  0  0
   39.1290   32.1600   47.9580 O   0  0  0  0  0  0  0  0  0  0  0  0
   35.7800   30.4500   45.8460 H   0  0  0  0  0  0  0  0  0  0  0  0
   37.3690   29.5280   50.3030 C   0  0  0  0  0  0  0  0  0  0  0  0
   37.8110   30.0760   49.0930 C   0  0  0  0  0  0  0  0  0  0  0  0
   36.9380   30.6840   48.2100 C   0  0  0  0  0  0  0  0  0  0  0  0
   35.6470   30.7180   48.5720 N   0  0  0  0  0  0  0  0  0  0  0  0
   35.1780   30.1970   49.7390 C   0  0  0  0  0  0  0  0  0  0  0  0
   36.0690   29.5980   50.6000 N   0  0  0  0  0  0  0  0  0  0  0  0
   38.1140   29.0740   50.9320 H   0  0  0  0  0  0  0  0  0  0  0  0
   38.8670   30.0280   48.8360 H   0  0  0  0  0  0  0  0  0  0  0  0
   34.1160   30.2460   49.9970 H   0  0  0  0  0  0  0  0  0  0  0  0
   36.4140   31.4020   43.3770 C   0  0  0  0  0  0  0  0  0  0  0  0
   36.6100   30.3380   42.5460 C   0  0  0  0  0  0  0  0  0  0  0  0
   35.9590   30.1460   41.3450 C   0  0  0  0  0  0  0  0  0  0  0  0
   35.0260   31.1160   40.9500 C   0  0  0  0  0  0  0  0  0  0  0  0
   34.8540   32.1780   41.8170 C   0  0  0  0  0  0  0  0  0  0  0  0
   35.5240   32.2860   42.9580 N   0  0  0  0  0  0  0  0  0  0  0  0
   37.3260   29.5610   42.8120 H   0  0  0  0  0  0  0  0  0  0  0  0
   36.1540   29.2910   40.7320 H   0  0  0  0  0  0  0  0  0  0  0  0
   34.5190   30.9810   40.0290 H   0  0  0  0  0  0  0  0  0  0  0  0
   34.2800   34.5600   41.4370 C   0  0  0  0  0  0  0  0  0  0  0  0
   33.9030   33.2300   41.4810 C   0  0  0  0  0  0  0  0  0  0  0  0
   32.5720   33.0360   41.1840 C   0  0  0  0  0  0  0  0  0  0  0  0
   32.1850   32.0290   41.1930 H   0  0  0  0  0  0  0  0  0  0  0  0
   31.7080   34.0630   40.8720 C   0  0  0  0  0  3  0  0  0  0  0  0
   32.1610   35.3670   40.8480 C   0  0  0  0  0  3  0  0  0  0  0  0
   33.4820   35.6400   41.1360 C   0  0  0  0  0  0  0  0  0  0  0  0
   35.6250   34.8550   41.7290 O   0  0  0  0  0  0  0  0  0  0  0  0
   36.2290   34.8880   40.8930 H   0  0  0  0  0  0  0  0  0  0  0  0
   33.9950   36.9300   41.1280 O   0  0  0  0  0  0  0  0  0  0  0  0
   33.7680   37.5060   40.3150 H   0  0  0  0  0  0  0  0  0  0  0  0
   40.1870   33.3130   45.8240 C   0  0  0  0  0  0  0  0  0  0  0  0
   40.1470   34.2620   44.8600 F   0  0  0  0  0  0  0  0  0  0  0  0
   41.3260   32.5630   45.5880 F   0  0  0  0  0  0  0  0  0  0  0  0
   40.2960   33.9570   47.0630 F   0  0  0  0  0  0  0  0  0  0  0  0
  1 12  1  0  0  0  0
  2  1  1  0  0  0  0
  3  4  1  0  0  0  0
  3  2  2  0  0  0  0
  4  6  1  0  0  0  0
  5  4  2  0  0  0  0
  6  7  1  0  0  0  0
  7  1  1  0  0  0  0
  7  8  2  0  0  0  0
  9  2  1  0  0  0  0
 10 15  1  0  0  0  0
 10 16  1  0  0  0  0
 11 10  2  0  0  0  0
 12 13  2  0  0  0  0
 12 11  1  0  0  0  0
 13 14  1  0  0  0  0
 14 18  1  0  0  0  0
 14 15  2  0  0  0  0
 17 11  1  0  0  0  0
 19  3  1  0  0  0  0
 20 25  1  0  0  0  0
 20 19  2  0  0  0  0
 21 20  1  0  0  0  0
 22 21  2  0  0  0  0
 22 23  1  0  0  0  0
 23 24  2  0  0  0  0
 24 19  1  0  0  0  0
 26 21  1  0  0  0  0
 27 22  1  0  0  0  0
 28 29  1  0  0  0  0
 28 35  1  0  0  0  0
 29 23  1  0  0  0  0
 30 31  1  0  0  0  0
 30 29  2  0  0  0  0
 32 30  1  0  0  0  0
 33 32  2  0  0  0  0
 33 34  1  0  0  0  0
 34 28  2  0  0  0  0
 36 35  1  0  0  0  0
 37 34  1  0  0  0  0
 38 37  1  0  0  0  0
 39  6  1  0  0  0  0
 39 42  1  0  0  0  0
 40 39  1  0  0  0  0
 41 39  1  0  0  0  0
M  END
>  <minimizedAffinity>
-6.97178793

>  <minimizedRMSD>
0.887615383

$$$$
