
 OpenBabel03272505593D

 46 49  0  0  1  0  0  0  0  0999 V2000
   35.2200   30.3720   49.8280 C   0  0  2  0  0  0  0  0  0  0  0  0
   36.1360   31.1750   48.9830 C   0  0  0  0  0  0  0  0  0  0  0  0
   37.5850   30.6840   49.0420 C   0  0  2  0  0  0  0  0  0  0  0  0
   38.1390   30.6150   50.3950 C   0  0  0  0  0  0  0  0  0  0  0  0
   37.1450   30.1050   51.4330 C   0  0  0  0  0  0  0  0  0  0  0  0
   35.9500   29.4640   50.7930 C   0  0  0  0  0  0  0  0  0  0  0  0
   34.5640   31.0100   50.4870 H   0  0  0  0  0  0  0  0  0  0  0  0
   35.9670   31.3240   47.9450 H   0  0  0  0  0  0  0  0  0  0  0  0
   36.1880   32.2150   49.4490 H   0  0  0  0  0  0  0  0  0  0  0  0
   37.5830   29.7390   48.4950 H   0  0  0  0  0  0  0  0  0  0  0  0
   39.0740   30.0190   50.4000 H   0  0  0  0  0  0  0  0  0  0  0  0
   38.4310   31.6190   50.7500 H   0  0  0  0  0  0  0  0  0  0  0  0
   37.6640   29.2980   51.9910 H   0  0  0  0  0  0  0  0  0  0  0  0
   36.8730   30.8580   52.1850 H   0  0  0  0  0  0  0  0  0  0  0  0
   36.2650   28.5730   50.2240 H   0  0  0  0  0  0  0  0  0  0  0  0
   35.2600   29.1550   51.5810 H   0  0  0  0  0  0  0  0  0  0  0  0
   37.6680   30.1190   46.1490 Cl  0  0  0  0  0  0  0  0  0  0  0  0
   38.4710   31.5090   46.8620 C   0  0  0  0  0  0  0  0  0  0  0  0
   38.3370   31.6860   48.2330 C   0  0  0  0  0  0  0  0  0  0  0  0
   38.9830   32.8070   48.6880 C   0  0  0  0  0  0  0  0  0  0  0  0
   39.6870   33.6600   47.8640 C   0  0  0  0  0  0  0  0  0  0  0  0
   39.7730   33.4130   46.4990 C   0  0  0  0  0  0  0  0  0  0  0  0
   39.1360   32.2910   45.9860 C   0  0  0  0  0  0  0  0  0  0  0  0
   38.9300   33.0280   49.7450 H   0  0  0  0  0  0  0  0  0  0  0  0
   40.1700   34.5300   48.3170 H   0  0  0  0  0  0  0  0  0  0  0  0
   40.3340   34.1100   45.9010 H   0  0  0  0  0  0  0  0  0  0  0  0
   38.2990   32.3120   43.5590 C   0  0  0  0  0  0  0  0  0  0  0  0
   39.2200   32.0230   44.5530 C   0  0  0  0  0  0  0  0  0  0  0  0
   40.4100   31.3880   44.1940 C   0  0  0  0  0  0  0  0  0  0  0  0
   41.2020   31.1180   44.9100 H   0  0  0  0  0  0  0  0  0  0  0  0
   40.7160   31.0360   42.9100 C   0  0  0  0  0  3  0  0  0  0  0  0
   39.7650   31.3430   41.9370 C   0  0  0  0  0  3  0  0  0  0  0  0
   38.5720   31.9730   42.2590 C   0  0  0  0  0  0  0  0  0  0  0  0
   37.1610   32.9410   44.0470 O   0  0  0  0  0  0  0  0  0  0  0  0
   36.4610   33.1640   43.3270 H   0  0  0  0  0  0  0  0  0  0  0  0
   37.5970   32.2980   41.3300 O   0  0  0  0  0  0  0  0  0  0  0  0
   37.3640   31.6710   40.5700 H   0  0  0  0  0  0  0  0  0  0  0  0
   34.3010   29.5300   49.0450 C   0  0  0  0  0  0  0  0  0  0  0  0
   34.2910   29.7790   47.6720 C   0  0  0  0  0  0  0  0  0  0  0  0
   33.4450   28.9950   46.8750 C   0  0  0  0  0  0  0  0  0  0  0  0
   32.6660   28.0180   47.4850 N   0  0  0  0  0  0  0  0  0  0  0  0
   32.7100   27.8150   48.8140 C   0  0  0  0  0  0  0  0  0  0  0  0
   33.5230   28.5730   49.5560 N   0  0  0  0  0  0  0  0  0  0  0  0
   34.7490   30.4310   46.9500 H   0  0  0  0  0  0  0  0  0  0  0  0
   33.2490   28.9730   45.8280 H   0  0  0  0  0  0  0  0  0  0  0  0
   32.1090   27.0620   49.2960 H   0  0  0  0  0  0  0  0  0  0  0  0
  1  7  1  1  0  0  0
  1  6  1  0  0  0  0
  2  3  1  0  0  0  0
  2  9  1  0  0  0  0
  2  1  1  0  0  0  0
  3 10  1  6  0  0  0
  3  4  1  0  0  0  0
  4 11  1  0  0  0  0
  4 12  1  0  0  0  0
  4  5  1  0  0  0  0
  5 13  1  0  0  0  0
  5 14  1  0  0  0  0
  6  5  1  0  0  0  0
  6 16  1  0  0  0  0
  8  2  1  0  0  0  0
 15  6  1  0  0  0  0
 17 18  1  0  0  0  0
 18 19  1  0  0  0  0
 19 20  2  0  0  0  0
 19  3  1  0  0  0  0
 20 24  1  0  0  0  0
 21 25  1  0  0  0  0
 21 20  1  0  0  0  0
 22 21  2  0  0  0  0
 23 22  1  0  0  0  0
 23 18  2  0  0  0  0
 26 22  1  0  0  0  0
 27 34  1  0  0  0  0
 27 28  1  0  0  0  0
 28 23  1  0  0  0  0
 29 28  2  0  0  0  0
 29 30  1  0  0  0  0
 31 29  1  0  0  0  0
 32 33  1  0  0  0  0
 32 31  2  0  0  0  0
 33 27  2  0  0  0  0
 35 34  1  0  0  0  0
 36 33  1  0  0  0  0
 37 36  1  0  0  0  0
 38 43  1  0  0  0  0
 38  1  1  0  0  0  0
 39 38  2  0  0  0  0
 40 41  2  0  0  0  0
 40 39  1  0  0  0  0
 41 42  1  0  0  0  0
 42 46  1  0  0  0  0
 42 43  2  0  0  0  0
 44 39  1  0  0  0  0
 45 40  1  0  0  0  0
M  END
>  <minimizedAffinity>
-7.8620944

>  <minimizedRMSD>
1.16752613

$$$$
