
 OpenBabel03272505523D

 46 49  0  0  1  0  0  0  0  0999 V2000
   37.1660   29.2150   50.3940 C   0  0  0  0  0  0  0  0  0  0  0  0
   37.3010   30.5770   50.7540 C   0  0  0  0  0  0  0  0  0  0  0  0
   36.5320   31.4950   50.0500 C   0  0  0  0  0  0  0  0  0  0  0  0
   35.7060   31.0360   49.0700 N   0  0  0  0  0  0  0  0  0  0  0  0
   35.6090   29.7450   48.7640 C   0  0  0  0  0  0  0  0  0  0  0  0
   36.3370   28.8340   49.4230 N   0  0  0  0  0  0  0  0  0  0  0  0
   34.7290   29.3280   47.7340 N   0  0  0  0  0  0  0  0  0  0  0  0
   34.1200   28.0110   47.7400 C   0  0  0  0  0  0  0  0  0  0  0  0
   32.6370   28.1230   47.6000 C   0  0  0  0  0  0  0  0  0  0  0  0
   32.1480   29.3510   47.2020 N   0  0  0  0  0  0  0  0  0  0  0  0
   32.9570   30.2740   46.4490 C   0  0  0  0  0  0  0  0  0  0  0  0
   34.3940   30.1990   46.6240 C   0  0  2  0  0  0  0  0  0  0  0  0
   37.7140   28.3910   50.8690 H   0  0  0  0  0  0  0  0  0  0  0  0
   37.9840   30.8050   51.5390 H   0  0  0  0  0  0  0  0  0  0  0  0
   36.6210   32.5320   50.3090 H   0  0  0  0  0  0  0  0  0  0  0  0
   34.6200   27.2690   47.1280 H   0  0  0  0  0  0  0  0  0  0  0  0
   34.2860   27.6240   48.8030 H   0  0  0  0  0  0  0  0  0  0  0  0
   32.0810   27.7760   48.4950 H   0  0  0  0  0  0  0  0  0  0  0  0
   32.3550   27.3620   46.8130 H   0  0  0  0  0  0  0  0  0  0  0  0
   31.2790   29.7260   47.5910 H   0  0  0  0  0  0  0  0  0  0  0  0
   32.6410   31.2760   46.9100 H   0  0  0  0  0  0  0  0  0  0  0  0
   32.4860   30.3350   45.4830 H   0  0  0  0  0  0  0  0  0  0  0  0
   34.8630   31.2050   46.8530 H   0  0  0  0  0  0  0  0  0  0  0  0
   35.1230   29.7040   45.4640 N   0  0  2  0  0  0  0  0  0  0  0  0
   36.4630   30.2930   45.3970 C   0  0  0  0  0  0  0  0  0  0  0  0
   36.7760   30.5170   43.9290 C   0  0  0  0  0  0  0  0  0  0  0  0
   35.6500   29.8420   43.2440 C   0  0  0  0  0  0  0  0  0  0  0  0
   34.4830   29.9940   44.2380 C   0  0  1  0  0  0  0  0  0  0  0  0
   36.4040   31.2750   45.9100 H   0  0  0  0  0  0  0  0  0  0  0  0
   37.2090   29.6530   45.8870 H   0  0  0  0  0  0  0  0  0  0  0  0
   37.7810   30.1250   43.6780 H   0  0  0  0  0  0  0  0  0  0  0  0
   36.7930   31.6040   43.6840 H   0  0  0  0  0  0  0  0  0  0  0  0
   35.3770   30.2780   42.2630 H   0  0  0  0  0  0  0  0  0  0  0  0
   35.8640   28.7500   43.1710 H   0  0  0  0  0  0  0  0  0  0  0  0
   34.2450   31.0540   44.0520 H   0  0  0  0  0  0  0  0  0  0  0  0
   33.6570   27.6630   43.8580 C   0  0  0  0  0  0  0  0  0  0  0  0
   33.5200   29.0380   43.7050 C   0  0  0  0  0  0  0  0  0  0  0  0
   32.3730   29.3760   43.0250 C   0  0  0  0  0  0  0  0  0  0  0  0
   32.1410   30.4160   42.8520 H   0  0  0  0  0  0  0  0  0  0  0  0
   31.4390   28.4920   42.5330 C   0  0  0  0  0  3  0  0  0  0  0  0
   31.6360   27.1400   42.7200 C   0  0  0  0  0  3  0  0  0  0  0  0
   32.7640   26.7220   43.3940 C   0  0  0  0  0  0  0  0  0  0  0  0
   34.7490   27.1260   44.5190 O   0  0  0  0  0  0  0  0  0  0  0  0
   35.4980   26.7450   43.9840 H   0  0  0  0  0  0  0  0  0  0  0  0
   32.9240   25.3710   43.5590 O   0  0  0  0  0  0  0  0  0  0  0  0
   32.9740   24.8070   42.7190 H   0  0  0  0  0  0  0  0  0  0  0  0
  1  2  1  0  0  0  0
  1 13  1  0  0  0  0
  2 14  1  0  0  0  0
  3 15  1  0  0  0  0
  3  2  2  0  0  0  0
  4  3  1  0  0  0  0
  5  4  2  0  0  0  0
  5  6  1  0  0  0  0
  6  1  2  0  0  0  0
  7  8  1  0  0  0  0
  7  5  1  0  0  0  0
  8 17  1  0  0  0  0
  9  8  1  0  0  0  0
  9 18  1  0  0  0  0
 10 20  1  0  0  0  0
 10  9  1  0  0  0  0
 11 12  1  0  0  0  0
 11 21  1  0  0  0  0
 11 10  1  0  0  0  0
 12 23  1  1  0  0  0
 12  7  1  0  0  0  0
 16  8  1  0  0  0  0
 19  9  1  0  0  0  0
 22 11  1  0  0  0  0
 24 25  1  6  0  0  0
 24 12  1  0  0  0  0
 25 30  1  0  0  0  0
 25 29  1  0  0  0  0
 26 25  1  0  0  0  0
 27 26  1  0  0  0  0
 27 28  1  0  0  0  0
 28 35  1  6  0  0  0
 28 24  1  0  0  0  0
 31 26  1  0  0  0  0
 32 26  1  0  0  0  0
 33 27  1  0  0  0  0
 34 27  1  0  0  0  0
 36 43  1  0  0  0  0
 37 36  1  0  0  0  0
 37 28  1  0  0  0  0
 38 37  2  0  0  0  0
 39 38  1  0  0  0  0
 40 41  2  0  0  0  0
 40 38  1  0  0  0  0
 41 42  1  0  0  0  0
 42 45  1  0  0  0  0
 42 36  2  0  0  0  0
 44 43  1  0  0  0  0
 46 45  1  0  0  0  0
M  END
>  <minimizedAffinity>
-4.46311426

>  <minimizedRMSD>
0.829197645

$$$$
