
 OpenBabel03272505523D

 46 49  0  0  1  0  0  0  0  0999 V2000
   37.1620   29.2100   50.3950 C   0  0  0  0  0  0  0  0  0  0  0  0
   37.2990   30.5720   50.7560 C   0  0  0  0  0  0  0  0  0  0  0  0
   36.5320   31.4900   50.0520 C   0  0  0  0  0  0  0  0  0  0  0  0
   35.7050   31.0330   49.0710 N   0  0  0  0  0  0  0  0  0  0  0  0
   35.6070   29.7430   48.7650 C   0  0  0  0  0  0  0  0  0  0  0  0
   36.3340   28.8310   49.4240 N   0  0  0  0  0  0  0  0  0  0  0  0
   34.7280   29.3270   47.7340 N   0  0  0  0  0  0  0  0  0  0  0  0
   34.1180   28.0110   47.7390 C   0  0  0  0  0  0  0  0  0  0  0  0
   32.6350   28.1250   47.5980 C   0  0  0  0  0  0  0  0  0  0  0  0
   32.1470   29.3520   47.2000 N   0  0  0  0  0  0  0  0  0  0  0  0
   32.9570   30.2760   46.4490 C   0  0  0  0  0  0  0  0  0  0  0  0
   34.3940   30.2000   46.6250 C   0  0  2  0  0  0  0  0  0  0  0  0
   37.7100   28.3850   50.8700 H   0  0  0  0  0  0  0  0  0  0  0  0
   37.9820   30.7980   51.5420 H   0  0  0  0  0  0  0  0  0  0  0  0
   36.6210   32.5270   50.3120 H   0  0  0  0  0  0  0  0  0  0  0  0
   34.6170   27.2680   47.1260 H   0  0  0  0  0  0  0  0  0  0  0  0
   34.2820   27.6220   48.8020 H   0  0  0  0  0  0  0  0  0  0  0  0
   32.0780   27.7770   48.4920 H   0  0  0  0  0  0  0  0  0  0  0  0
   32.3520   27.3640   46.8100 H   0  0  0  0  0  0  0  0  0  0  0  0
   31.2780   29.7290   47.5890 H   0  0  0  0  0  0  0  0  0  0  0  0
   32.6420   31.2770   46.9100 H   0  0  0  0  0  0  0  0  0  0  0  0
   32.4860   30.3370   45.4820 H   0  0  0  0  0  0  0  0  0  0  0  0
   34.8640   31.2040   46.8540 H   0  0  0  0  0  0  0  0  0  0  0  0
   35.1230   29.7040   45.4650 N   0  0  2  0  0  0  0  0  0  0  0  0
   36.4640   30.2940   45.3980 C   0  0  0  0  0  0  0  0  0  0  0  0
   36.7760   30.5180   43.9300 C   0  0  0  0  0  0  0  0  0  0  0  0
   35.6510   29.8420   43.2440 C   0  0  0  0  0  0  0  0  0  0  0  0
   34.4840   29.9940   44.2390 C   0  0  1  0  0  0  0  0  0  0  0  0
   36.4040   31.2760   45.9110 H   0  0  0  0  0  0  0  0  0  0  0  0
   37.2090   29.6540   45.8870 H   0  0  0  0  0  0  0  0  0  0  0  0
   37.7820   30.1260   43.6790 H   0  0  0  0  0  0  0  0  0  0  0  0
   36.7930   31.6040   43.6850 H   0  0  0  0  0  0  0  0  0  0  0  0
   35.3780   30.2780   42.2630 H   0  0  0  0  0  0  0  0  0  0  0  0
   35.8650   28.7500   43.1720 H   0  0  0  0  0  0  0  0  0  0  0  0
   34.2450   31.0540   44.0520 H   0  0  0  0  0  0  0  0  0  0  0  0
   33.6580   27.6620   43.8590 C   0  0  0  0  0  0  0  0  0  0  0  0
   33.5200   29.0370   43.7060 C   0  0  0  0  0  0  0  0  0  0  0  0
   32.3730   29.3750   43.0260 C   0  0  0  0  0  0  0  0  0  0  0  0
   32.1410   30.4150   42.8530 H   0  0  0  0  0  0  0  0  0  0  0  0
   31.4390   28.4910   42.5340 C   0  0  0  0  0  3  0  0  0  0  0  0
   31.6380   27.1390   42.7200 C   0  0  0  0  0  3  0  0  0  0  0  0
   32.7650   26.7220   43.3940 C   0  0  0  0  0  0  0  0  0  0  0  0
   34.7500   27.1250   44.5190 O   0  0  0  0  0  0  0  0  0  0  0  0
   35.4990   26.7450   43.9850 H   0  0  0  0  0  0  0  0  0  0  0  0
   32.9260   25.3700   43.5590 O   0  0  0  0  0  0  0  0  0  0  0  0
   32.9770   24.8060   42.7180 H   0  0  0  0  0  0  0  0  0  0  0  0
  1  2  1  0  0  0  0
  1 13  1  0  0  0  0
  2 14  1  0  0  0  0
  3 15  1  0  0  0  0
  3  2  2  0  0  0  0
  4  3  1  0  0  0  0
  5  4  2  0  0  0  0
  5  6  1  0  0  0  0
  6  1  2  0  0  0  0
  7  8  1  0  0  0  0
  7  5  1  0  0  0  0
  8 17  1  0  0  0  0
  9  8  1  0  0  0  0
  9 18  1  0  0  0  0
 10 20  1  0  0  0  0
 10  9  1  0  0  0  0
 11 12  1  0  0  0  0
 11 21  1  0  0  0  0
 11 10  1  0  0  0  0
 12 23  1  1  0  0  0
 12  7  1  0  0  0  0
 16  8  1  0  0  0  0
 19  9  1  0  0  0  0
 22 11  1  0  0  0  0
 24 25  1  6  0  0  0
 24 12  1  0  0  0  0
 25 30  1  0  0  0  0
 25 29  1  0  0  0  0
 26 25  1  0  0  0  0
 27 26  1  0  0  0  0
 27 28  1  0  0  0  0
 28 35  1  6  0  0  0
 28 24  1  0  0  0  0
 31 26  1  0  0  0  0
 32 26  1  0  0  0  0
 33 27  1  0  0  0  0
 34 27  1  0  0  0  0
 36 43  1  0  0  0  0
 37 36  1  0  0  0  0
 37 28  1  0  0  0  0
 38 37  2  0  0  0  0
 39 38  1  0  0  0  0
 40 41  2  0  0  0  0
 40 38  1  0  0  0  0
 41 42  1  0  0  0  0
 42 45  1  0  0  0  0
 42 36  2  0  0  0  0
 44 43  1  0  0  0  0
 46 45  1  0  0  0  0
M  END
>  <minimizedAffinity>
-4.46271849

>  <minimizedRMSD>
0.791644275

$$$$
