
 OpenBabel03272510173D

 30 32  0  0  0  0  0  0  0  0999 V2000
   37.3050   29.6250   51.3420 Br  0  0  0  0  0  0  0  0  0  0  0  0
   36.0920   29.3360   49.8920 C   0  0  0  0  0  0  0  0  0  0  0  0
   36.1480   30.1150   48.7350 C   0  0  0  0  0  0  0  0  0  0  0  0
   35.2410   29.8440   47.7330 C   0  0  0  0  0  0  0  0  0  0  0  0
   34.2880   28.8410   47.8250 C   0  0  0  0  0  0  0  0  0  0  0  0
   34.2580   28.0920   48.9770 C   0  0  0  0  0  0  0  0  0  0  0  0
   35.1530   28.3440   49.9920 C   0  0  0  0  0  0  0  0  0  0  0  0
   35.2780   30.4460   46.8290 H   0  0  0  0  0  0  0  0  0  0  0  0
   33.5190   27.3060   49.0600 H   0  0  0  0  0  0  0  0  0  0  0  0
   35.1100   27.7340   50.8980 H   0  0  0  0  0  0  0  0  0  0  0  0
   37.9520   33.2210   49.4080 C   0  0  0  0  0  0  0  0  0  0  0  0
   38.9870   33.2080   48.4500 C   0  0  0  0  0  0  0  0  0  0  0  0
   39.0590   32.1180   47.5670 C   0  0  0  0  0  0  0  0  0  0  0  0
   38.1220   31.1270   47.6840 N   0  0  0  0  0  0  0  0  0  0  0  0
   37.1400   31.1730   48.6170 C   0  0  0  0  0  0  0  0  0  0  0  0
   37.0590   32.2120   49.4710 N   0  0  0  0  0  0  0  0  0  0  0  0
   37.9390   34.0840   50.0680 H   0  0  0  0  0  0  0  0  0  0  0  0
   39.7380   33.9530   48.3210 H   0  0  0  0  0  0  0  0  0  0  0  0
   39.7980   31.9910   46.7950 H   0  0  0  0  0  0  0  0  0  0  0  0
   32.0150   28.5040   46.9010 C   0  0  0  0  0  0  0  0  0  0  0  0
   33.3720   28.6360   46.7020 C   0  0  0  0  0  0  0  0  0  0  0  0
   33.8620   28.5710   45.4230 C   0  0  0  0  0  0  0  0  0  0  0  0
   34.8950   28.6640   45.1930 H   0  0  0  0  0  0  0  0  0  0  0  0
   32.9440   28.3740   44.3910 C   0  0  0  0  0  3  0  0  0  0  0  0
   31.5780   28.2410   44.5850 C   0  0  0  0  0  3  0  0  0  0  0  0
   31.1100   28.3090   45.8790 C   0  0  0  0  0  0  0  0  0  0  0  0
   31.5410   28.5740   48.2110 O   0  0  0  0  0  0  0  0  0  0  0  0
   30.8320   27.9510   48.5720 H   0  0  0  0  0  0  0  0  0  0  0  0
   29.7440   28.1850   46.1670 O   0  0  0  0  0  0  0  0  0  0  0  0
   29.3510   27.2540   46.3610 H   0  0  0  0  0  0  0  0  0  0  0  0
  2  7  1  0  0  0  0
  2  1  1  0  0  0  0
  3  2  2  0  0  0  0
  4  5  2  0  0  0  0
  4  3  1  0  0  0  0
  5  6  1  0  0  0  0
  6  9  1  0  0  0  0
  6  7  2  0  0  0  0
  7 10  1  0  0  0  0
  8  4  1  0  0  0  0
 11 16  1  0  0  0  0
 11 17  1  0  0  0  0
 12 11  2  0  0  0  0
 13 14  2  0  0  0  0
 13 12  1  0  0  0  0
 14 15  1  0  0  0  0
 15  3  1  0  0  0  0
 15 16  2  0  0  0  0
 18 12  1  0  0  0  0
 19 13  1  0  0  0  0
 20 27  1  0  0  0  0
 21 20  1  0  0  0  0
 21  5  1  0  0  0  0
 22 21  2  0  0  0  0
 23 22  1  0  0  0  0
 24 25  2  0  0  0  0
 24 22  1  0  0  0  0
 25 26  1  0  0  0  0
 26 29  1  0  0  0  0
 26 20  2  0  0  0  0
 27 28  1  0  0  0  0
 29 30  1  0  0  0  0
M  END
>  <minimizedAffinity>
-6.33977127

>  <minimizedRMSD>
0.760363698

$$$$
