
 OpenBabel03272509153D

 49 52  0  0  1  0  0  0  0  0999 V2000
   34.9470   29.9580   46.6110 C   0  0  0  0  0  0  0  0  0  0  0  0
   36.2470   30.5130   46.6940 C   0  0  0  0  0  0  0  0  0  0  0  0
   36.9510   30.6980   45.5080 C   0  0  0  0  0  0  0  0  0  0  0  0
   36.3630   30.3410   44.3340 N   0  0  0  0  0  0  0  0  0  0  0  0
   35.1250   29.8150   44.2920 C   0  0  0  0  0  0  0  0  0  0  0  0
   34.4240   29.6260   45.4100 N   0  0  0  0  0  0  0  0  0  0  0  0
   34.3330   29.7940   47.4670 H   0  0  0  0  0  0  0  0  0  0  0  0
   34.6240   29.5180   43.3700 H   0  0  0  0  0  0  0  0  0  0  0  0
   36.7090   30.8110   48.0310 N   0  0  0  0  0  0  0  0  0  0  0  0
   37.2180   31.9120   48.7960 C   0  0  0  0  0  0  0  0  0  0  0  0
   38.4600   31.3550   49.4160 C   0  0  0  0  0  0  0  0  0  0  0  0
   38.1000   29.8860   49.6680 C   0  0  0  0  0  0  0  0  0  0  0  0
   36.7450   29.7380   49.0650 C   0  0  1  0  0  0  0  0  0  0  0  0
   37.2340   32.8970   48.3840 H   0  0  0  0  0  0  0  0  0  0  0  0
   36.4920   32.0040   49.6660 H   0  0  0  0  0  0  0  0  0  0  0  0
   38.7350   31.8730   50.3610 H   0  0  0  0  0  0  0  0  0  0  0  0
   39.3290   31.3450   48.7590 H   0  0  0  0  0  0  0  0  0  0  0  0
   38.8640   29.1890   49.3080 H   0  0  0  0  0  0  0  0  0  0  0  0
   38.0170   29.7290   50.7770 H   0  0  0  0  0  0  0  0  0  0  0  0
   36.5120   28.7710   48.6290 H   0  0  0  0  0  0  0  0  0  0  0  0
   34.6490   29.2180   50.2910 C   0  0  0  0  0  0  0  0  0  0  0  0
   34.3370   28.1930   49.6000 O   0  0  0  0  0  0  0  0  0  0  0  0
   35.7540   30.0990   50.0770 N   0  0  0  0  0  0  0  0  0  0  0  0
   33.8550   29.1720   51.0160 H   0  0  0  0  0  0  0  0  0  0  0  0
   35.5460   30.8370   50.7750 H   0  0  0  0  0  0  0  0  0  0  0  0
   38.2770   31.2550   45.4760 C   0  0  0  0  0  0  0  0  0  0  0  0
   38.4960   32.4230   46.1470 C   0  0  0  0  0  0  0  0  0  0  0  0
   39.7350   33.0330   46.2040 C   0  0  0  0  0  0  0  0  0  0  0  0
   40.7910   32.4130   45.5380 C   0  0  0  0  0  0  0  0  0  0  0  0
   40.6310   31.2340   44.8410 C   0  0  0  0  0  0  0  0  0  0  0  0
   39.3420   30.6870   44.8390 C   0  0  0  0  0  0  0  0  0  0  0  0
   37.8030   33.0600   46.6670 H   0  0  0  0  0  0  0  0  0  0  0  0
   40.0420   33.9250   46.6880 H   0  0  0  0  0  0  0  0  0  0  0  0
   41.8100   32.7950   45.5120 H   0  0  0  0  0  0  0  0  0  0  0  0
   41.4490   30.7470   44.3180 H   0  0  0  0  0  0  0  0  0  0  0  0
   39.1480   29.4270   44.0870 C   0  0  0  0  0  0  0  0  0  0  0  0
   38.0680   29.0860   44.1940 H   0  0  0  0  0  0  0  0  0  0  0  0
   39.7530   28.6200   44.5610 H   0  0  0  0  0  0  0  0  0  0  0  0
   40.5010   29.1320   41.9320 C   0  0  0  0  0  0  0  0  0  0  0  0
   39.3720   29.5070   42.6310 C   0  0  0  0  0  0  0  0  0  0  0  0
   38.3110   30.0070   41.8610 C   0  0  0  0  0  0  0  0  0  0  0  0
   37.4060   30.3140   42.3530 H   0  0  0  0  0  0  0  0  0  0  0  0
   38.3690   30.1260   40.4770 C   0  0  0  0  0  3  0  0  0  0  0  0
   39.4830   29.7560   39.7760 C   0  0  0  0  0  3  0  0  0  0  0  0
   40.5250   29.2640   40.5410 C   0  0  0  0  0  0  0  0  0  0  0  0
   41.5410   28.6410   42.6840 O   0  0  0  0  0  0  0  0  0  0  0  0
   41.9610   27.7420   42.5870 H   0  0  0  0  0  0  0  0  0  0  0  0
   41.6740   28.8780   39.8540 O   0  0  0  0  0  0  0  0  0  0  0  0
   41.6410   28.4650   38.9270 H   0  0  0  0  0  0  0  0  0  0  0  0
  1  2  1  0  0  0  0
  1  7  1  0  0  0  0
  2  9  1  0  0  0  0
  3  2  2  0  0  0  0
  4  3  1  0  0  0  0
  5  4  2  0  0  0  0
  5  6  1  0  0  0  0
  6  1  2  0  0  0  0
  8  5  1  0  0  0  0
  9 10  1  0  0  0  0
  9 13  1  0  0  0  0
 10 11  1  0  0  0  0
 10 15  1  0  0  0  0
 11 12  1  0  0  0  0
 11 16  1  0  0  0  0
 12 19  1  0  0  0  0
 13 20  1  6  0  0  0
 13 12  1  0  0  0  0
 13 23  1  0  0  0  0
 14 10  1  0  0  0  0
 17 11  1  0  0  0  0
 18 12  1  0  0  0  0
 21 24  1  0  0  0  0
 22 21  2  0  0  0  0
 23 21  1  0  0  0  0
 23 25  1  0  0  0  0
 26  3  1  0  0  0  0
 26 27  1  0  0  0  0
 27 28  2  0  0  0  0
 27 32  1  0  0  0  0
 28 33  1  0  0  0  0
 29 28  1  0  0  0  0
 30 29  2  0  0  0  0
 31 30  1  0  0  0  0
 31 26  2  0  0  0  0
 34 29  1  0  0  0  0
 35 30  1  0  0  0  0
 36 37  1  0  0  0  0
 36 38  1  0  0  0  0
 36 31  1  0  0  0  0
 39 40  1  0  0  0  0
 39 46  1  0  0  0  0
 40 36  1  0  0  0  0
 41 42  1  0  0  0  0
 41 40  2  0  0  0  0
 43 41  1  0  0  0  0
 44 43  2  0  0  0  0
 44 45  1  0  0  0  0
 45 39  2  0  0  0  0
 47 46  1  0  0  0  0
 48 45  1  0  0  0  0
 49 48  1  0  0  0  0
M  END
>  <minimizedAffinity>
-6.54748964

>  <minimizedRMSD>
1.35756481

$$$$
