
 OpenBabel03272510173D

 30 32  0  0  0  0  0  0  0  0999 V2000
   37.2230   29.5690   51.1910 Br  0  0  0  0  0  0  0  0  0  0  0  0
   36.0130   29.3780   49.7220 C   0  0  0  0  0  0  0  0  0  0  0  0
   36.1070   30.1980   48.5960 C   0  0  0  0  0  0  0  0  0  0  0  0
   35.2000   29.9970   47.5780 C   0  0  0  0  0  0  0  0  0  0  0  0
   34.2120   29.0260   47.6240 C   0  0  0  0  0  0  0  0  0  0  0  0
   34.1450   28.2350   48.7470 C   0  0  0  0  0  0  0  0  0  0  0  0
   35.0390   28.4170   49.7770 C   0  0  0  0  0  0  0  0  0  0  0  0
   35.2660   30.6310   46.6970 H   0  0  0  0  0  0  0  0  0  0  0  0
   33.3780   27.4740   48.7950 H   0  0  0  0  0  0  0  0  0  0  0  0
   34.9670   27.7750   50.6590 H   0  0  0  0  0  0  0  0  0  0  0  0
   38.0230   33.2020   49.4100 C   0  0  0  0  0  0  0  0  0  0  0  0
   39.0560   33.1950   48.4500 C   0  0  0  0  0  0  0  0  0  0  0  0
   39.0890   32.1460   47.5180 C   0  0  0  0  0  0  0  0  0  0  0  0
   38.1160   31.1850   47.5900 N   0  0  0  0  0  0  0  0  0  0  0  0
   37.1370   31.2240   48.5260 C   0  0  0  0  0  0  0  0  0  0  0  0
   37.0930   32.2240   49.4270 N   0  0  0  0  0  0  0  0  0  0  0  0
   38.0400   34.0330   50.1080 H   0  0  0  0  0  0  0  0  0  0  0  0
   39.8340   33.9180   48.3550 H   0  0  0  0  0  0  0  0  0  0  0  0
   39.8230   32.0280   46.7390 H   0  0  0  0  0  0  0  0  0  0  0  0
   32.5760   29.9720   46.0230 C   0  0  0  0  0  0  0  0  0  0  0  0
   33.2990   28.8950   46.4870 C   0  0  0  0  0  0  0  0  0  0  0  0
   33.1510   27.6820   45.8660 C   0  0  0  0  0  0  0  0  0  0  0  0
   33.6740   26.8080   46.1700 H   0  0  0  0  0  0  0  0  0  0  0  0
   32.2670   27.6140   44.7880 C   0  0  0  0  0  0  0  0  0  0  0  0
   31.5390   28.6930   44.3160 C   0  0  0  0  0  0  0  0  0  0  0  0
   31.7040   29.9010   44.9560 C   0  0  0  0  0  0  0  0  0  0  0  0
   32.7430   31.1950   46.6710 O   0  0  0  0  0  0  0  0  0  0  0  0
   31.9720   31.8090   46.8930 H   0  0  0  0  0  0  0  0  0  0  0  0
   31.0050   31.0460   44.5450 O   0  0  0  0  0  0  0  0  0  0  0  0
   30.0890   31.2560   44.9640 H   0  0  0  0  0  0  0  0  0  0  0  0
  2  7  1  0  0  0  0
  2  1  1  0  0  0  0
  3  2  2  0  0  0  0
  4  5  2  0  0  0  0
  4  3  1  0  0  0  0
  5  6  1  0  0  0  0
  6  9  1  0  0  0  0
  6  7  2  0  0  0  0
  7 10  1  0  0  0  0
  8  4  1  0  0  0  0
 11 16  1  0  0  0  0
 11 17  1  0  0  0  0
 12 11  2  0  0  0  0
 13 14  2  0  0  0  0
 13 12  1  0  0  0  0
 14 15  1  0  0  0  0
 15  3  1  0  0  0  0
 15 16  2  0  0  0  0
 18 12  1  0  0  0  0
 19 13  1  0  0  0  0
 20 21  1  0  0  0  0
 20 27  1  0  0  0  0
 21  5  1  0  0  0  0
 22 23  1  0  0  0  0
 22 21  2  0  0  0  0
 24 22  1  0  0  0  0
 25 24  2  0  0  0  0
 25 26  1  0  0  0  0
 26 20  2  0  0  0  0
 27 28  1  0  0  0  0
 29 26  1  0  0  0  0
 29 30  1  0  0  0  0
M  END
>  <minimizedAffinity>
-6.61402988

>  <minimizedRMSD>
0.370094925

$$$$
