
 OpenBabel03272504093D

 35 37  0  0  0  0  0  0  0  0999 V2000
   37.8430   30.5310   50.1280 C   0  0  0  0  0  0  0  0  0  0  0  0
   37.3240   30.6560   48.8520 C   0  0  0  0  0  0  0  0  0  0  0  0
   36.0040   30.2320   48.5660 C   0  0  0  0  0  0  0  0  0  0  0  0
   35.2920   29.7030   49.5940 N   0  0  0  0  0  0  0  0  0  0  0  0
   35.8400   29.5920   50.8510 C   0  0  0  0  0  0  0  0  0  0  0  0
   37.1060   30.0050   51.1110 N   0  0  0  0  0  0  0  0  0  0  0  0
   35.0170   29.0240   51.8760 N   0  0  0  0  0  0  0  0  0  0  0  0
   38.8520   30.8660   50.3080 H   0  0  0  0  0  0  0  0  0  0  0  0
   34.6660   28.0330   51.8140 H   0  0  0  0  0  0  0  0  0  0  0  0
   34.7190   29.5360   52.7240 H   0  0  0  0  0  0  0  0  0  0  0  0
   38.3510   33.5060   49.0770 Cl  0  0  0  0  0  0  0  0  0  0  0  0
   38.7410   32.4960   47.7310 C   0  0  0  0  0  0  0  0  0  0  0  0
   38.1960   31.2480   47.8060 C   0  0  0  0  0  0  0  0  0  0  0  0
   38.4650   30.3450   46.7540 C   0  0  0  0  0  0  0  0  0  0  0  0
   39.2370   30.6860   45.6940 C   0  0  0  0  0  0  0  0  0  0  0  0
   39.7760   31.9650   45.6490 C   0  0  0  0  0  0  0  0  0  0  0  0
   40.7780   32.4470   44.3050 Cl  0  0  0  0  0  0  0  0  0  0  0  0
   39.5200   32.8370   46.6590 C   0  0  0  0  0  0  0  0  0  0  0  0
   38.0990   29.3290   46.7130 H   0  0  0  0  0  0  0  0  0  0  0  0
   39.4740   30.0320   44.8630 H   0  0  0  0  0  0  0  0  0  0  0  0
   39.9180   33.8480   46.6720 H   0  0  0  0  0  0  0  0  0  0  0  0
   35.4780   30.3840   47.2210 C   0  0  0  0  0  0  0  0  0  0  0  0
   36.1680   30.2590   46.3850 H   0  0  0  0  0  0  0  0  0  0  0  0
   35.1250   31.4550   47.1380 H   0  0  0  0  0  0  0  0  0  0  0  0
   33.0280   30.0580   46.7150 C   0  0  0  0  0  0  0  0  0  0  0  0
   34.2930   29.5160   46.9710 C   0  0  0  0  0  0  0  0  0  0  0  0
   34.3550   28.1400   46.9730 C   0  0  0  0  0  0  0  0  0  0  0  0
   35.3480   27.7410   47.1760 H   0  0  0  0  0  0  0  0  0  0  0  0
   33.3140   27.2650   46.7510 C   0  0  0  0  0  0  0  0  0  0  0  0
   32.0780   27.8650   46.5000 C   0  0  0  0  0  0  0  0  0  0  0  0
   31.9540   29.2180   46.4860 C   0  0  0  0  0  0  0  0  0  0  0  0
   32.8980   31.4580   46.7000 O   0  0  0  0  0  0  0  0  0  0  0  0
   32.8440   31.9850   45.8390 H   0  0  0  0  0  0  0  0  0  0  0  0
   30.7200   29.8140   46.2350 O   0  0  0  0  0  0  0  0  0  0  0  0
   29.8870   29.2810   46.3970 H   0  0  0  0  0  0  0  0  0  0  0  0
  1  8  1  0  0  0  0
  1  6  1  0  0  0  0
  2  1  2  0  0  0  0
  3  2  1  0  0  0  0
  3  4  2  0  0  0  0
  4  5  1  0  0  0  0
  5  6  2  0  0  0  0
  5  7  1  0  0  0  0
  7 10  1  0  0  0  0
  9  7  1  0  0  0  0
 12 13  1  0  0  0  0
 12 11  1  0  0  0  0
 13  2  1  0  0  0  0
 14 13  2  0  0  0  0
 15 14  1  0  0  0  0
 16 15  2  0  0  0  0
 16 18  1  0  0  0  0
 17 16  1  0  0  0  0
 18 21  1  0  0  0  0
 18 12  2  0  0  0  0
 19 14  1  0  0  0  0
 20 15  1  0  0  0  0
 22  3  1  0  0  0  0
 23 22  1  0  0  0  0
 24 22  1  0  0  0  0
 25 26  1  0  0  0  0
 26 27  2  0  0  0  0
 26 22  1  0  0  0  0
 27 28  1  0  0  0  0
 29 27  1  0  0  0  0
 30 29  2  0  0  0  0
 31 30  1  0  0  0  0
 31 25  2  0  0  0  0
 32 25  1  0  0  0  0
 33 32  1  0  0  0  0
 34 35  1  0  0  0  0
 34 31  1  0  0  0  0
M  END
>  <minimizedAffinity>
-6.56877136

>  <minimizedRMSD>
0.8934834

$$$$
