
 OpenBabel03272507353D

 38 41  0  0  1  0  0  0  0  0999 V2000
   38.0570   26.6740   33.0560 C   0  0  0  0  0  0  0  0  0  0  0  0
   39.1310   26.5560   32.3750 O   0  0  0  0  0  0  0  0  0  0  0  0
   35.4770   29.1440   32.8690 C   0  0  0  0  0  0  0  0  0  0  0  0
   36.0770   29.3730   31.6480 C   0  0  0  0  0  0  0  0  0  0  0  0
   37.1470   28.4740   31.5310 C   0  0  0  0  0  0  0  0  0  0  0  0
   37.1300   27.7480   32.7010 C   0  0  0  0  0  0  0  0  0  0  0  0
   36.1370   28.1740   33.4540 O   0  0  0  0  0  0  0  0  0  0  0  0
   35.7860   30.1100   30.9000 H   0  0  0  0  0  0  0  0  0  0  0  0
   37.8220   28.3920   30.6930 H   0  0  0  0  0  0  0  0  0  0  0  0
   34.3240   29.9050   33.3200 C   0  0  0  0  0  0  0  0  0  0  0  0
   33.3000   29.9230   32.6250 O   0  0  0  0  0  0  0  0  0  0  0  0
   34.4520   30.6020   34.5690 C   0  0  0  0  0  0  0  0  0  0  0  0
   35.6800   31.1830   34.8490 C   0  0  0  0  0  0  0  0  0  0  0  0
   35.8300   31.8660   36.0570 C   0  0  0  0  0  0  0  0  0  0  0  0
   34.7530   31.9280   36.9090 N   0  0  0  0  0  0  0  0  0  0  0  0
   33.5850   31.3560   36.6050 C   0  0  0  0  0  0  0  0  0  0  0  0
   33.4270   30.6970   35.4460 N   0  0  0  0  0  0  0  0  0  0  0  0
   36.5020   31.1070   34.1420 H   0  0  0  0  0  0  0  0  0  0  0  0
   36.7800   32.3180   36.2760 H   0  0  0  0  0  0  0  0  0  0  0  0
   32.7420   31.4090   37.2800 H   0  0  0  0  0  0  0  0  0  0  0  0
   37.7430   25.7340   34.1850 C   0  0  1  0  0  0  0  0  0  0  0  0
   37.9350   24.2430   33.7070 C   0  0  0  0  0  0  0  0  0  0  0  0
   38.7920   24.8780   34.7380 C   0  0  2  0  0  0  0  0  0  0  0  0
   36.7040   25.8630   34.5580 H   0  0  0  0  0  0  0  0  0  0  0  0
   37.1660   23.5500   34.0980 H   0  0  0  0  0  0  0  0  0  0  0  0
   38.3670   24.0810   32.7240 H   0  0  0  0  0  0  0  0  0  0  0  0
   39.8310   25.1750   34.4000 H   0  0  0  0  0  0  0  0  0  0  0  0
   39.6410   23.3180   36.4420 C   0  0  0  0  0  0  0  0  0  0  0  0
   38.7750   24.3650   36.1080 C   0  0  0  0  0  0  0  0  0  0  0  0
   37.9750   24.8160   37.1330 C   0  0  0  0  0  0  0  0  0  0  0  0
   37.2930   25.6200   36.9210 H   0  0  0  0  0  0  0  0  0  0  0  0
   38.0000   24.3000   38.3940 C   0  0  0  0  0  3  0  0  0  0  0  0
   38.8640   23.2630   38.7040 C   0  0  0  0  0  3  0  0  0  0  0  0
   39.6970   22.7620   37.7240 C   0  0  0  0  0  0  0  0  0  0  0  0
   40.4760   22.8150   35.4540 O   0  0  0  0  0  0  0  0  0  0  0  0
   40.9630   21.9330   35.6020 H   0  0  0  0  0  0  0  0  0  0  0  0
   40.6000   21.7250   37.9300 O   0  0  0  0  0  0  0  0  0  0  0  0
   40.2250   20.7820   37.9020 H   0  0  0  0  0  0  0  0  0  0  0  0
  1 21  1  0  0  0  0
  2  1  2  0  0  0  0
  3 10  1  0  0  0  0
  3  7  1  0  0  0  0
  4  3  2  0  0  0  0
  5  4  1  0  0  0  0
  5  6  2  0  0  0  0
  6  1  1  0  0  0  0
  6  7  1  0  0  0  0
  8  4  1  0  0  0  0
  9  5  1  0  0  0  0
 10 12  1  0  0  0  0
 11 10  2  0  0  0  0
 12 13  2  0  0  0  0
 12 17  1  0  0  0  0
 13 14  1  0  0  0  0
 14 19  1  0  0  0  0
 14 15  2  0  0  0  0
 16 15  1  0  0  0  0
 16 20  1  0  0  0  0
 17 16  2  0  0  0  0
 18 13  1  0  0  0  0
 21 24  1  1  0  0  0
 21 23  1  0  0  0  0
 22 25  1  0  0  0  0
 22 21  1  0  0  0  0
 22 23  1  0  0  0  0
 23 27  1  6  0  0  0
 23 29  1  0  0  0  0
 26 22  1  0  0  0  0
 28 34  1  0  0  0  0
 29 28  2  0  0  0  0
 29 30  1  0  0  0  0
 30 32  2  0  0  0  0
 31 30  1  0  0  0  0
 32 33  1  0  0  0  0
 34 37  1  0  0  0  0
 34 33  2  0  0  0  0
 35 36  1  0  0  0  0
 35 28  1  0  0  0  0
 38 37  1  0  0  0  0
M  END
>  <minimizedAffinity>
-6.55034256

$$$$

 OpenBabel03272507353D

 38 41  0  0  1  0  0  0  0  0999 V2000
   39.6160   27.0520   33.4020 C   0  0  0  0  0  0  0  0  0  0  0  0
   40.6470   27.5950   32.8790 O   0  0  0  0  0  0  0  0  0  0  0  0
   36.8260   25.8210   31.5330 C   0  0  0  0  0  0  0  0  0  0  0  0
   36.7310   27.1560   31.1970 C   0  0  0  0  0  0  0  0  0  0  0  0
   37.7720   27.8270   31.8550 C   0  0  0  0  0  0  0  0  0  0  0  0
   38.4400   26.8480   32.5550 C   0  0  0  0  0  0  0  0  0  0  0  0
   37.8520   25.6910   32.3390 O   0  0  0  0  0  0  0  0  0  0  0  0
   35.9930   27.6190   30.5440 H   0  0  0  0  0  0  0  0  0  0  0  0
   37.9800   28.8860   31.8040 H   0  0  0  0  0  0  0  0  0  0  0  0
   35.8960   24.8270   31.0230 C   0  0  0  0  0  0  0  0  0  0  0  0
   34.8190   25.1960   30.5390 O   0  0  0  0  0  0  0  0  0  0  0  0
   36.2970   23.4510   31.1180 C   0  0  0  0  0  0  0  0  0  0  0  0
   35.4100   22.5710   31.7200 C   0  0  0  0  0  0  0  0  0  0  0  0
   35.7760   21.2290   31.8250 C   0  0  0  0  0  0  0  0  0  0  0  0
   36.9990   20.8460   31.3270 N   0  0  0  0  0  0  0  0  0  0  0  0
   37.8280   21.7220   30.7530 C   0  0  0  0  0  0  0  0  0  0  0  0
   37.4870   23.0160   30.6450 N   0  0  0  0  0  0  0  0  0  0  0  0
   34.4540   22.9230   32.0990 H   0  0  0  0  0  0  0  0  0  0  0  0
   35.0920   20.5440   32.2910 H   0  0  0  0  0  0  0  0  0  0  0  0
   38.7880   21.4140   30.3630 H   0  0  0  0  0  0  0  0  0  0  0  0
   39.6060   26.6220   34.8410 C   0  0  1  0  0  0  0  0  0  0  0  0
   38.4740   27.3970   35.6210 C   0  0  0  0  0  0  0  0  0  0  0  0
   38.4390   25.9310   35.3900 C   0  0  2  0  0  0  0  0  0  0  0  0
   40.5810   26.8090   35.3390 H   0  0  0  0  0  0  0  0  0  0  0  0
   38.7710   27.7040   36.6420 H   0  0  0  0  0  0  0  0  0  0  0  0
   37.7950   28.0130   35.0410 H   0  0  0  0  0  0  0  0  0  0  0  0
   37.7190   25.5760   34.5930 H   0  0  0  0  0  0  0  0  0  0  0  0
   39.1770   23.8000   36.3750 C   0  0  0  0  0  0  0  0  0  0  0  0
   38.5070   25.0190   36.5310 C   0  0  0  0  0  0  0  0  0  0  0  0
   37.9660   25.2360   37.7770 C   0  0  0  0  0  0  0  0  0  0  0  0
   37.4400   26.1590   37.9420 H   0  0  0  0  0  0  0  0  0  0  0  0
   38.0590   24.3480   38.8070 C   0  0  0  0  0  3  0  0  0  0  0  0
   38.7270   23.1470   38.6320 C   0  0  0  0  0  3  0  0  0  0  0  0
   39.2950   22.8640   37.4060 C   0  0  0  0  0  0  0  0  0  0  0  0
   39.7480   23.5170   35.1410 O   0  0  0  0  0  0  0  0  0  0  0  0
   40.0590   22.5700   34.9310 H   0  0  0  0  0  0  0  0  0  0  0  0
   39.9870   21.6900   37.1260 O   0  0  0  0  0  0  0  0  0  0  0  0
   39.4260   20.8740   36.9020 H   0  0  0  0  0  0  0  0  0  0  0  0
  1 21  1  0  0  0  0
  2  1  2  0  0  0  0
  3  7  1  0  0  0  0
  4  3  2  0  0  0  0
  4  5  1  0  0  0  0
  5  6  2  0  0  0  0
  6  1  1  0  0  0  0
  7  6  1  0  0  0  0
  8  4  1  0  0  0  0
  9  5  1  0  0  0  0
 10 12  1  0  0  0  0
 10  3  1  0  0  0  0
 11 10  2  0  0  0  0
 12 13  1  0  0  0  0
 13 14  2  0  0  0  0
 13 18  1  0  0  0  0
 14 19  1  0  0  0  0
 15 14  1  0  0  0  0
 16 15  2  0  0  0  0
 17 16  1  0  0  0  0
 17 12  2  0  0  0  0
 20 16  1  0  0  0  0
 21 24  1  1  0  0  0
 21 23  1  0  0  0  0
 21 22  1  0  0  0  0
 22 25  1  0  0  0  0
 23 27  1  6  0  0  0
 23 22  1  0  0  0  0
 23 29  1  0  0  0  0
 26 22  1  0  0  0  0
 28 29  2  0  0  0  0
 28 34  1  0  0  0  0
 29 30  1  0  0  0  0
 30 31  1  0  0  0  0
 30 32  2  0  0  0  0
 33 32  1  0  0  0  0
 34 33  2  0  0  0  0
 35 28  1  0  0  0  0
 36 35  1  0  0  0  0
 37 34  1  0  0  0  0
 38 37  1  0  0  0  0
M  END
>  <minimizedAffinity>
-6.4537611

$$$$

 OpenBabel03272507353D

 38 41  0  0  1  0  0  0  0  0999 V2000
   37.9910   26.1740   32.6720 C   0  0  0  0  0  0  0  0  0  0  0  0
   37.9890   27.3500   32.1720 O   0  0  0  0  0  0  0  0  0  0  0  0
   36.1080   23.2810   31.7400 C   0  0  0  0  0  0  0  0  0  0  0  0
   35.3570   24.2380   31.0900 C   0  0  0  0  0  0  0  0  0  0  0  0
   35.9540   25.4820   31.3450 C   0  0  0  0  0  0  0  0  0  0  0  0
   37.0400   25.1980   32.1410 C   0  0  0  0  0  0  0  0  0  0  0  0
   37.0920   23.8990   32.3470 O   0  0  0  0  0  0  0  0  0  0  0  0
   34.4640   24.0770   30.4870 H   0  0  0  0  0  0  0  0  0  0  0  0
   35.6120   26.4390   30.9810 H   0  0  0  0  0  0  0  0  0  0  0  0
   35.7720   21.8670   31.6890 C   0  0  0  0  0  0  0  0  0  0  0  0
   34.7960   21.4530   32.3280 O   0  0  0  0  0  0  0  0  0  0  0  0
   36.6120   21.0270   30.8850 C   0  0  0  0  0  0  0  0  0  0  0  0
   36.0990   19.7980   30.4980 C   0  0  0  0  0  0  0  0  0  0  0  0
   36.8970   18.9610   29.7170 C   0  0  0  0  0  0  0  0  0  0  0  0
   38.1530   19.3980   29.3680 N   0  0  0  0  0  0  0  0  0  0  0  0
   38.6150   20.5900   29.7590 C   0  0  0  0  0  0  0  0  0  0  0  0
   37.8570   21.4030   30.5110 N   0  0  0  0  0  0  0  0  0  0  0  0
   35.0980   19.4970   30.8000 H   0  0  0  0  0  0  0  0  0  0  0  0
   36.5020   18.0090   29.4160 H   0  0  0  0  0  0  0  0  0  0  0  0
   39.6030   20.9260   29.4810 H   0  0  0  0  0  0  0  0  0  0  0  0
   38.9460   25.7950   33.7680 C   0  0  1  0  0  0  0  0  0  0  0  0
   38.6350   26.6400   35.0630 C   0  0  0  0  0  0  0  0  0  0  0  0
   38.4440   25.1700   34.9920 C   0  0  2  0  0  0  0  0  0  0  0  0
   40.0050   25.9600   33.4740 H   0  0  0  0  0  0  0  0  0  0  0  0
   39.5420   26.9700   35.6050 H   0  0  0  0  0  0  0  0  0  0  0  0
   37.7460   27.2630   35.0560 H   0  0  0  0  0  0  0  0  0  0  0  0
   37.3730   24.8170   34.9020 H   0  0  0  0  0  0  0  0  0  0  0  0
   38.6930   23.8040   37.0240 C   0  0  0  0  0  0  0  0  0  0  0  0
   39.2530   24.2950   35.8390 C   0  0  0  0  0  0  0  0  0  0  0  0
   40.5440   23.8890   35.5880 C   0  0  0  0  0  0  0  0  0  0  0  0
   41.0150   24.2430   34.6890 H   0  0  0  0  0  0  0  0  0  0  0  0
   41.2530   23.0700   36.4150 C   0  0  0  0  0  3  0  0  0  0  0  0
   40.6800   22.5960   37.5840 C   0  0  0  0  0  3  0  0  0  0  0  0
   39.3870   22.9620   37.8980 C   0  0  0  0  0  0  0  0  0  0  0  0
   37.3920   24.1740   37.3380 O   0  0  0  0  0  0  0  0  0  0  0  0
   37.0290   24.0080   38.2750 H   0  0  0  0  0  0  0  0  0  0  0  0
   38.7190   22.5420   39.0430 O   0  0  0  0  0  0  0  0  0  0  0  0
   38.9250   23.0460   39.9000 H   0  0  0  0  0  0  0  0  0  0  0  0
  1 21  1  0  0  0  0
  2  1  2  0  0  0  0
  3  7  1  0  0  0  0
  4  5  1  0  0  0  0
  4  3  2  0  0  0  0
  5  6  2  0  0  0  0
  6  7  1  0  0  0  0
  6  1  1  0  0  0  0
  8  4  1  0  0  0  0
  9  5  1  0  0  0  0
 10  3  1  0  0  0  0
 10 11  2  0  0  0  0
 12 10  1  0  0  0  0
 13 18  1  0  0  0  0
 13 12  2  0  0  0  0
 14 13  1  0  0  0  0
 15 14  2  0  0  0  0
 15 16  1  0  0  0  0
 16 17  2  0  0  0  0
 17 12  1  0  0  0  0
 19 14  1  0  0  0  0
 20 16  1  0  0  0  0
 21 24  1  6  0  0  0
 21 23  1  0  0  0  0
 21 22  1  0  0  0  0
 22 25  1  0  0  0  0
 23 27  1  6  0  0  0
 23 22  1  0  0  0  0
 23 29  1  0  0  0  0
 26 22  1  0  0  0  0
 28 35  1  0  0  0  0
 28 34  1  0  0  0  0
 29 28  2  0  0  0  0
 30 29  1  0  0  0  0
 30 32  2  0  0  0  0
 31 30  1  0  0  0  0
 32 33  1  0  0  0  0
 33 34  2  0  0  0  0
 34 37  1  0  0  0  0
 35 36  1  0  0  0  0
 37 38  1  0  0  0  0
M  END
>  <minimizedAffinity>
-6.24581575

$$$$

 OpenBabel03272507353D

 38 41  0  0  1  0  0  0  0  0999 V2000
   37.9250   27.1450   34.8370 C   0  0  0  0  0  0  0  0  0  0  0  0
   37.3540   28.1880   35.3060 O   0  0  0  0  0  0  0  0  0  0  0  0
   36.6640   25.5880   31.8750 C   0  0  0  0  0  0  0  0  0  0  0  0
   37.4530   26.5530   31.2850 C   0  0  0  0  0  0  0  0  0  0  0  0
   38.0510   27.2930   32.3160 C   0  0  0  0  0  0  0  0  0  0  0  0
   37.5820   26.7240   33.4790 C   0  0  0  0  0  0  0  0  0  0  0  0
   36.7740   25.7310   33.1730 O   0  0  0  0  0  0  0  0  0  0  0  0
   37.5980   26.7240   30.2190 H   0  0  0  0  0  0  0  0  0  0  0  0
   38.7290   28.1240   32.1940 H   0  0  0  0  0  0  0  0  0  0  0  0
   35.8920   24.6350   31.0940 C   0  0  0  0  0  0  0  0  0  0  0  0
   34.8670   25.0160   30.5150 O   0  0  0  0  0  0  0  0  0  0  0  0
   36.3810   23.2860   31.0450 C   0  0  0  0  0  0  0  0  0  0  0  0
   35.5010   22.2780   31.4100 C   0  0  0  0  0  0  0  0  0  0  0  0
   35.9510   20.9580   31.3720 C   0  0  0  0  0  0  0  0  0  0  0  0
   37.2460   20.7230   30.9740 N   0  0  0  0  0  0  0  0  0  0  0  0
   38.0660   21.7200   30.6280 C   0  0  0  0  0  0  0  0  0  0  0  0
   37.6440   22.9940   30.6610 N   0  0  0  0  0  0  0  0  0  0  0  0
   34.4850   22.5160   31.7180 H   0  0  0  0  0  0  0  0  0  0  0  0
   35.2720   20.1750   31.6550 H   0  0  0  0  0  0  0  0  0  0  0  0
   39.0820   21.5270   30.3160 H   0  0  0  0  0  0  0  0  0  0  0  0
   38.9270   26.3740   35.6470 C   0  0  1  0  0  0  0  0  0  0  0  0
   38.1780   25.4540   36.6870 C   0  0  0  0  0  0  0  0  0  0  0  0
   38.9740   24.9140   35.5570 C   0  0  2  0  0  0  0  0  0  0  0  0
   39.6250   27.0440   36.1940 H   0  0  0  0  0  0  0  0  0  0  0  0
   38.6740   25.4060   37.6750 H   0  0  0  0  0  0  0  0  0  0  0  0
   37.0970   25.3900   36.6160 H   0  0  0  0  0  0  0  0  0  0  0  0
   38.3770   24.5050   34.6860 H   0  0  0  0  0  0  0  0  0  0  0  0
   40.0790   23.0340   36.6970 C   0  0  0  0  0  0  0  0  0  0  0  0
   40.1760   24.1290   35.8300 C   0  0  0  0  0  0  0  0  0  0  0  0
   41.4300   24.3570   35.3100 C   0  0  0  0  0  0  0  0  0  0  0  0
   41.5510   25.1880   34.6400 H   0  0  0  0  0  0  0  0  0  0  0  0
   42.5190   23.5910   35.6000 C   0  0  0  0  0  3  0  0  0  0  0  0
   42.4010   22.5120   36.4610 C   0  0  0  0  0  3  0  0  0  0  0  0
   41.1720   22.2240   37.0190 C   0  0  0  0  0  0  0  0  0  0  0  0
   38.8410   22.7480   37.2570 O   0  0  0  0  0  0  0  0  0  0  0  0
   38.7760   22.0970   38.0390 H   0  0  0  0  0  0  0  0  0  0  0  0
   40.9460   21.1660   37.8930 O   0  0  0  0  0  0  0  0  0  0  0  0
   41.1990   21.3170   38.8640 H   0  0  0  0  0  0  0  0  0  0  0  0
  1  2  2  0  0  0  0
  1 21  1  0  0  0  0
  3  7  1  0  0  0  0
  4  3  2  0  0  0  0
  4  5  1  0  0  0  0
  5  6  2  0  0  0  0
  6  1  1  0  0  0  0
  7  6  1  0  0  0  0
  8  4  1  0  0  0  0
  9  5  1  0  0  0  0
 10  3  1  0  0  0  0
 11 10  2  0  0  0  0
 12 10  1  0  0  0  0
 12 13  1  0  0  0  0
 13 18  1  0  0  0  0
 14 13  2  0  0  0  0
 14 19  1  0  0  0  0
 15 14  1  0  0  0  0
 16 17  1  0  0  0  0
 16 15  2  0  0  0  0
 17 12  2  0  0  0  0
 20 16  1  0  0  0  0
 21 24  1  1  0  0  0
 21 22  1  0  0  0  0
 22 25  1  0  0  0  0
 23 27  1  6  0  0  0
 23 21  1  0  0  0  0
 23 29  1  0  0  0  0
 23 22  1  0  0  0  0
 26 22  1  0  0  0  0
 28 34  1  0  0  0  0
 28 35  1  0  0  0  0
 29 28  2  0  0  0  0
 30 32  2  0  0  0  0
 30 29  1  0  0  0  0
 31 30  1  0  0  0  0
 32 33  1  0  0  0  0
 33 34  2  0  0  0  0
 34 37  1  0  0  0  0
 35 36  1  0  0  0  0
 37 38  1  0  0  0  0
M  END
>  <minimizedAffinity>
-6.244277

$$$$

 OpenBabel03272507353D

 38 41  0  0  1  0  0  0  0  0999 V2000
   37.4460   25.9750   33.5440 C   0  0  0  0  0  0  0  0  0  0  0  0
   36.7590   27.0510   33.5950 O   0  0  0  0  0  0  0  0  0  0  0  0
   37.0990   23.1020   31.4420 C   0  0  0  0  0  0  0  0  0  0  0  0
   36.0670   23.8620   30.9310 C   0  0  0  0  0  0  0  0  0  0  0  0
   36.0380   25.0660   31.6500 C   0  0  0  0  0  0  0  0  0  0  0  0
   37.0650   24.9600   32.5610 C   0  0  0  0  0  0  0  0  0  0  0  0
   37.6580   23.7960   32.4040 O   0  0  0  0  0  0  0  0  0  0  0  0
   35.3910   23.5930   30.1200 H   0  0  0  0  0  0  0  0  0  0  0  0
   35.3480   25.8820   31.4980 H   0  0  0  0  0  0  0  0  0  0  0  0
   37.4170   21.7810   30.9250 C   0  0  0  0  0  0  0  0  0  0  0  0
   38.3390   21.6560   30.1090 O   0  0  0  0  0  0  0  0  0  0  0  0
   36.6230   20.6860   31.4040 C   0  0  0  0  0  0  0  0  0  0  0  0
   35.2830   20.9370   31.6610 C   0  0  0  0  0  0  0  0  0  0  0  0
   34.4890   19.8890   32.1290 C   0  0  0  0  0  0  0  0  0  0  0  0
   35.0750   18.6590   32.3110 N   0  0  0  0  0  0  0  0  0  0  0  0
   36.3700   18.4540   32.0530 C   0  0  0  0  0  0  0  0  0  0  0  0
   37.1440   19.4530   31.6030 N   0  0  0  0  0  0  0  0  0  0  0  0
   34.8660   21.9280   31.5000 H   0  0  0  0  0  0  0  0  0  0  0  0
   33.4510   20.0800   32.3290 H   0  0  0  0  0  0  0  0  0  0  0  0
   36.8240   17.4840   32.1990 H   0  0  0  0  0  0  0  0  0  0  0  0
   38.6170   25.7530   34.4580 C   0  0  1  0  0  0  0  0  0  0  0  0
   38.1180   25.6630   35.9520 C   0  0  0  0  0  0  0  0  0  0  0  0
   38.7190   24.5140   35.2290 C   0  0  2  0  0  0  0  0  0  0  0  0
   39.3690   26.5670   34.3760 H   0  0  0  0  0  0  0  0  0  0  0  0
   38.7890   26.1650   36.6740 H   0  0  0  0  0  0  0  0  0  0  0  0
   37.0470   25.6420   36.1250 H   0  0  0  0  0  0  0  0  0  0  0  0
   37.9940   23.7160   34.8840 H   0  0  0  0  0  0  0  0  0  0  0  0
   39.9630   22.8930   36.6020 C   0  0  0  0  0  0  0  0  0  0  0  0
   39.9890   23.9550   35.6900 C   0  0  0  0  0  0  0  0  0  0  0  0
   41.2450   24.3730   35.3120 C   0  0  0  0  0  0  0  0  0  0  0  0
   41.3130   25.1870   34.6130 H   0  0  0  0  0  0  0  0  0  0  0  0
   42.3980   23.8150   35.7750 C   0  0  0  0  0  3  0  0  0  0  0  0
   42.3500   22.7650   36.6770 C   0  0  0  0  0  3  0  0  0  0  0  0
   41.1230   22.2930   37.0990 C   0  0  0  0  0  0  0  0  0  0  0  0
   38.7270   22.4210   37.0240 O   0  0  0  0  0  0  0  0  0  0  0  0
   38.6700   21.7990   37.8300 H   0  0  0  0  0  0  0  0  0  0  0  0
   40.9630   21.2460   38.0000 O   0  0  0  0  0  0  0  0  0  0  0  0
   41.0620   21.4740   38.9840 H   0  0  0  0  0  0  0  0  0  0  0  0
  1  2  2  0  0  0  0
  1 21  1  0  0  0  0
  3  7  1  0  0  0  0
  4  3  2  0  0  0  0
  4  5  1  0  0  0  0
  5  6  2  0  0  0  0
  6  1  1  0  0  0  0
  7  6  1  0  0  0  0
  8  4  1  0  0  0  0
  9  5  1  0  0  0  0
 10 12  1  0  0  0  0
 10  3  1  0  0  0  0
 11 10  2  0  0  0  0
 12 17  2  0  0  0  0
 12 13  1  0  0  0  0
 13 14  2  0  0  0  0
 14 15  1  0  0  0  0
 14 19  1  0  0  0  0
 16 20  1  0  0  0  0
 16 15  2  0  0  0  0
 17 16  1  0  0  0  0
 18 13  1  0  0  0  0
 21 24  1  6  0  0  0
 21 23  1  0  0  0  0
 21 22  1  0  0  0  0
 22 26  1  0  0  0  0
 22 25  1  0  0  0  0
 23 27  1  6  0  0  0
 23 29  1  0  0  0  0
 23 22  1  0  0  0  0
 28 35  1  0  0  0  0
 28 34  1  0  0  0  0
 29 28  2  0  0  0  0
 30 29  1  0  0  0  0
 30 32  2  0  0  0  0
 31 30  1  0  0  0  0
 32 33  1  0  0  0  0
 33 34  2  0  0  0  0
 34 37  1  0  0  0  0
 35 36  1  0  0  0  0
 37 38  1  0  0  0  0
M  END
>  <minimizedAffinity>
-6.21192741

$$$$

 OpenBabel03272507353D

 38 41  0  0  1  0  0  0  0  0999 V2000
   37.3850   26.0960   33.6030 C   0  0  0  0  0  0  0  0  0  0  0  0
   36.9000   25.1740   32.8640 O   0  0  0  0  0  0  0  0  0  0  0  0
   35.8800   29.2950   34.1480 C   0  0  0  0  0  0  0  0  0  0  0  0
   36.0040   29.3520   32.7750 C   0  0  0  0  0  0  0  0  0  0  0  0
   36.5940   28.1500   32.3570 C   0  0  0  0  0  0  0  0  0  0  0  0
   36.7940   27.4320   33.5150 C   0  0  0  0  0  0  0  0  0  0  0  0
   36.3620   28.1400   34.5370 O   0  0  0  0  0  0  0  0  0  0  0  0
   35.7040   30.1700   32.1200 H   0  0  0  0  0  0  0  0  0  0  0  0
   36.8300   27.8750   31.3400 H   0  0  0  0  0  0  0  0  0  0  0  0
   35.3020   30.3830   34.9180 C   0  0  0  0  0  0  0  0  0  0  0  0
   36.0300   31.0530   35.6620 O   0  0  0  0  0  0  0  0  0  0  0  0
   33.8930   30.6140   34.7640 C   0  0  0  0  0  0  0  0  0  0  0  0
   33.0430   29.5480   35.0170 C   0  0  0  0  0  0  0  0  0  0  0  0
   31.6700   29.7450   34.8730 C   0  0  0  0  0  0  0  0  0  0  0  0
   31.2270   30.9890   34.4880 N   0  0  0  0  0  0  0  0  0  0  0  0
   32.0760   31.9940   34.2530 C   0  0  0  0  0  0  0  0  0  0  0  0
   33.3990   31.8160   34.3880 N   0  0  0  0  0  0  0  0  0  0  0  0
   33.4430   28.5820   35.3190 H   0  0  0  0  0  0  0  0  0  0  0  0
   31.0090   28.9210   35.0680 H   0  0  0  0  0  0  0  0  0  0  0  0
   31.7210   32.9680   33.9510 H   0  0  0  0  0  0  0  0  0  0  0  0
   38.5220   25.8240   34.5460 C   0  0  1  0  0  0  0  0  0  0  0  0
   37.9580   25.5210   35.9880 C   0  0  0  0  0  0  0  0  0  0  0  0
   38.6590   24.5050   35.1650 C   0  0  2  0  0  0  0  0  0  0  0  0
   39.2280   26.6800   34.6060 H   0  0  0  0  0  0  0  0  0  0  0  0
   38.5630   25.9640   36.8020 H   0  0  0  0  0  0  0  0  0  0  0  0
   36.8820   25.4240   36.0980 H   0  0  0  0  0  0  0  0  0  0  0  0
   38.0000   23.7200   34.6850 H   0  0  0  0  0  0  0  0  0  0  0  0
   39.9240   22.9080   36.5460 C   0  0  0  0  0  0  0  0  0  0  0  0
   39.9360   23.9600   35.6230 C   0  0  0  0  0  0  0  0  0  0  0  0
   41.1860   24.3830   35.2320 C   0  0  0  0  0  0  0  0  0  0  0  0
   41.2440   25.1900   34.5240 H   0  0  0  0  0  0  0  0  0  0  0  0
   42.3470   23.8380   35.6930 C   0  0  0  0  0  3  0  0  0  0  0  0
   42.3120   22.7970   36.6070 C   0  0  0  0  0  3  0  0  0  0  0  0
   41.0920   22.3220   37.0420 C   0  0  0  0  0  0  0  0  0  0  0  0
   38.6950   22.4320   36.9820 O   0  0  0  0  0  0  0  0  0  0  0  0
   38.6470   21.8190   37.7940 H   0  0  0  0  0  0  0  0  0  0  0  0
   40.9450   21.2830   37.9550 O   0  0  0  0  0  0  0  0  0  0  0  0
   41.0490   21.5220   38.9360 H   0  0  0  0  0  0  0  0  0  0  0  0
  1 21  1  0  0  0  0
  2  1  2  0  0  0  0
  3  7  1  0  0  0  0
  3 10  1  0  0  0  0
  4  3  2  0  0  0  0
  5  4  1  0  0  0  0
  5  6  2  0  0  0  0
  6  1  1  0  0  0  0
  6  7  1  0  0  0  0
  8  4  1  0  0  0  0
  9  5  1  0  0  0  0
 10 11  2  0  0  0  0
 12 10  1  0  0  0  0
 12 13  1  0  0  0  0
 13 18  1  0  0  0  0
 14 13  2  0  0  0  0
 14 19  1  0  0  0  0
 15 14  1  0  0  0  0
 16 17  1  0  0  0  0
 16 15  2  0  0  0  0
 17 12  2  0  0  0  0
 20 16  1  0  0  0  0
 21 24  1  6  0  0  0
 21 23  1  0  0  0  0
 21 22  1  0  0  0  0
 22 26  1  0  0  0  0
 22 25  1  0  0  0  0
 23 27  1  6  0  0  0
 23 29  1  0  0  0  0
 23 22  1  0  0  0  0
 28 35  1  0  0  0  0
 28 34  1  0  0  0  0
 29 28  2  0  0  0  0
 30 29  1  0  0  0  0
 30 32  2  0  0  0  0
 31 30  1  0  0  0  0
 32 33  1  0  0  0  0
 33 34  2  0  0  0  0
 34 37  1  0  0  0  0
 35 36  1  0  0  0  0
 37 38  1  0  0  0  0
M  END
>  <minimizedAffinity>
-6.13936043

$$$$

 OpenBabel03272507353D

 38 41  0  0  1  0  0  0  0  0999 V2000
   37.3360   25.9650   33.0890 C   0  0  0  0  0  0  0  0  0  0  0  0
   36.7410   24.9530   32.5830 O   0  0  0  0  0  0  0  0  0  0  0  0
   35.6570   29.0960   32.6740 C   0  0  0  0  0  0  0  0  0  0  0  0
   36.6560   29.2670   31.7370 C   0  0  0  0  0  0  0  0  0  0  0  0
   37.4460   28.1090   31.7510 C   0  0  0  0  0  0  0  0  0  0  0  0
   36.8720   27.2990   32.7050 C   0  0  0  0  0  0  0  0  0  0  0  0
   35.8290   27.9160   33.2190 O   0  0  0  0  0  0  0  0  0  0  0  0
   36.8150   30.1340   31.0970 H   0  0  0  0  0  0  0  0  0  0  0  0
   38.3120   27.9210   31.1350 H   0  0  0  0  0  0  0  0  0  0  0  0
   34.6490   30.1120   32.9250 C   0  0  0  0  0  0  0  0  0  0  0  0
   33.9000   30.4630   32.0050 O   0  0  0  0  0  0  0  0  0  0  0  0
   34.5880   30.6550   34.2530 C   0  0  0  0  0  0  0  0  0  0  0  0
   35.7660   31.1480   34.7930 C   0  0  0  0  0  0  0  0  0  0  0  0
   35.7340   31.6800   36.0830 C   0  0  0  0  0  0  0  0  0  0  0  0
   34.5340   31.6890   36.7540 N   0  0  0  0  0  0  0  0  0  0  0  0
   33.4170   31.2050   36.2010 C   0  0  0  0  0  0  0  0  0  0  0  0
   33.4360   30.6910   34.9610 N   0  0  0  0  0  0  0  0  0  0  0  0
   36.6910   31.1180   34.2210 H   0  0  0  0  0  0  0  0  0  0  0  0
   36.6450   32.0620   36.5040 H   0  0  0  0  0  0  0  0  0  0  0  0
   32.4780   31.2150   36.7350 H   0  0  0  0  0  0  0  0  0  0  0  0
   38.4730   25.8000   34.0560 C   0  0  1  0  0  0  0  0  0  0  0  0
   37.9230   25.8210   35.5340 C   0  0  0  0  0  0  0  0  0  0  0  0
   38.5350   24.6180   34.9170 C   0  0  2  0  0  0  0  0  0  0  0  0
   39.2360   26.5990   33.9420 H   0  0  0  0  0  0  0  0  0  0  0  0
   38.5740   26.3680   36.2410 H   0  0  0  0  0  0  0  0  0  0  0  0
   36.8460   25.8230   35.6710 H   0  0  0  0  0  0  0  0  0  0  0  0
   37.8130   23.8040   34.6040 H   0  0  0  0  0  0  0  0  0  0  0  0
   39.7130   23.0880   36.4420 C   0  0  0  0  0  0  0  0  0  0  0  0
   39.7820   24.0830   35.4600 C   0  0  0  0  0  0  0  0  0  0  0  0
   41.0550   24.4630   35.0990 C   0  0  0  0  0  0  0  0  0  0  0  0
   41.1560   25.2250   34.3480 H   0  0  0  0  0  0  0  0  0  0  0  0
   42.1850   23.9290   35.6400 C   0  0  0  0  0  3  0  0  0  0  0  0
   42.0950   22.9460   36.6110 C   0  0  0  0  0  3  0  0  0  0  0  0
   40.8490   22.5150   37.0210 C   0  0  0  0  0  0  0  0  0  0  0  0
   38.4590   22.6570   36.8530 O   0  0  0  0  0  0  0  0  0  0  0  0
   38.3670   22.0940   37.6970 H   0  0  0  0  0  0  0  0  0  0  0  0
   40.6470   21.5350   37.9870 O   0  0  0  0  0  0  0  0  0  0  0  0
   40.7140   21.8300   38.9560 H   0  0  0  0  0  0  0  0  0  0  0  0
  1 21  1  0  0  0  0
  2  1  2  0  0  0  0
  3 10  1  0  0  0  0
  3  7  1  0  0  0  0
  4  5  1  0  0  0  0
  4  3  2  0  0  0  0
  5  6  2  0  0  0  0
  6  1  1  0  0  0  0
  6  7  1  0  0  0  0
  8  4  1  0  0  0  0
  9  5  1  0  0  0  0
 10 12  1  0  0  0  0
 11 10  2  0  0  0  0
 12 13  2  0  0  0  0
 12 17  1  0  0  0  0
 13 14  1  0  0  0  0
 14 19  1  0  0  0  0
 14 15  2  0  0  0  0
 16 20  1  0  0  0  0
 16 15  1  0  0  0  0
 17 16  2  0  0  0  0
 18 13  1  0  0  0  0
 21 24  1  6  0  0  0
 21 23  1  0  0  0  0
 21 22  1  0  0  0  0
 22 26  1  0  0  0  0
 22 25  1  0  0  0  0
 23 27  1  6  0  0  0
 23 29  1  0  0  0  0
 23 22  1  0  0  0  0
 28 35  1  0  0  0  0
 28 34  1  0  0  0  0
 29 28  2  0  0  0  0
 30 29  1  0  0  0  0
 30 32  2  0  0  0  0
 31 30  1  0  0  0  0
 32 33  1  0  0  0  0
 33 34  2  0  0  0  0
 34 37  1  0  0  0  0
 35 36  1  0  0  0  0
 37 38  1  0  0  0  0
M  END
>  <minimizedAffinity>
-6.11997843

$$$$

 OpenBabel03272507353D

 38 41  0  0  1  0  0  0  0  0999 V2000
   38.0570   26.6050   32.9710 C   0  0  0  0  0  0  0  0  0  0  0  0
   39.0710   26.3950   32.2220 O   0  0  0  0  0  0  0  0  0  0  0  0
   35.8610   29.4290   32.9980 C   0  0  0  0  0  0  0  0  0  0  0  0
   36.1060   29.3660   31.6420 C   0  0  0  0  0  0  0  0  0  0  0  0
   36.9770   28.2880   31.4230 C   0  0  0  0  0  0  0  0  0  0  0  0
   37.2080   27.7590   32.6730 C   0  0  0  0  0  0  0  0  0  0  0  0
   36.5360   28.4570   33.5640 O   0  0  0  0  0  0  0  0  0  0  0  0
   35.7070   30.0230   30.8700 H   0  0  0  0  0  0  0  0  0  0  0  0
   37.3660   27.9670   30.4680 H   0  0  0  0  0  0  0  0  0  0  0  0
   34.9910   30.4360   33.5820 C   0  0  0  0  0  0  0  0  0  0  0  0
   35.4920   31.3970   34.1780 O   0  0  0  0  0  0  0  0  0  0  0  0
   33.5770   30.2450   33.4260 C   0  0  0  0  0  0  0  0  0  0  0  0
   32.9180   31.0750   32.5310 C   0  0  0  0  0  0  0  0  0  0  0  0
   31.5430   30.9100   32.3620 C   0  0  0  0  0  0  0  0  0  0  0  0
   30.9100   29.9320   33.0910 N   0  0  0  0  0  0  0  0  0  0  0  0
   31.5770   29.1490   33.9440 C   0  0  0  0  0  0  0  0  0  0  0  0
   32.9000   29.2980   34.1150 N   0  0  0  0  0  0  0  0  0  0  0  0
   33.4640   31.8350   31.9780 H   0  0  0  0  0  0  0  0  0  0  0  0
   31.0300   31.5520   31.6700 H   0  0  0  0  0  0  0  0  0  0  0  0
   31.0730   28.3820   34.5130 H   0  0  0  0  0  0  0  0  0  0  0  0
   37.7340   25.6950   34.1210 C   0  0  1  0  0  0  0  0  0  0  0  0
   37.8870   24.1910   33.6690 C   0  0  0  0  0  0  0  0  0  0  0  0
   38.7700   24.8250   34.6790 C   0  0  2  0  0  0  0  0  0  0  0  0
   36.7030   25.8550   34.5020 H   0  0  0  0  0  0  0  0  0  0  0  0
   37.1060   23.5230   34.0820 H   0  0  0  0  0  0  0  0  0  0  0  0
   38.3040   24.0010   32.6850 H   0  0  0  0  0  0  0  0  0  0  0  0
   39.8110   25.0920   34.3240 H   0  0  0  0  0  0  0  0  0  0  0  0
   39.6240   23.2990   36.4110 C   0  0  0  0  0  0  0  0  0  0  0  0
   38.7560   24.3390   36.0580 C   0  0  0  0  0  0  0  0  0  0  0  0
   37.9580   24.8090   37.0760 C   0  0  0  0  0  0  0  0  0  0  0  0
   37.2750   25.6070   36.8500 H   0  0  0  0  0  0  0  0  0  0  0  0
   37.9860   24.3170   38.3460 C   0  0  0  0  0  3  0  0  0  0  0  0
   38.8520   23.2870   38.6750 C   0  0  0  0  0  3  0  0  0  0  0  0
   39.6830   22.7680   37.7030 C   0  0  0  0  0  0  0  0  0  0  0  0
   40.4580   22.7790   35.4310 O   0  0  0  0  0  0  0  0  0  0  0  0
   40.9470   21.9000   35.5940 H   0  0  0  0  0  0  0  0  0  0  0  0
   40.5880   21.7370   37.9270 O   0  0  0  0  0  0  0  0  0  0  0  0
   40.2140   20.7930   37.9180 H   0  0  0  0  0  0  0  0  0  0  0  0
  1 21  1  0  0  0  0
  2  1  2  0  0  0  0
  3  7  1  0  0  0  0
  3 10  1  0  0  0  0
  4  3  2  0  0  0  0
  5  4  1  0  0  0  0
  5  6  2  0  0  0  0
  6  1  1  0  0  0  0
  6  7  1  0  0  0  0
  8  4  1  0  0  0  0
  9  5  1  0  0  0  0
 10 11  2  0  0  0  0
 12 10  1  0  0  0  0
 12 17  1  0  0  0  0
 13 12  2  0  0  0  0
 14 13  1  0  0  0  0
 14 15  2  0  0  0  0
 15 16  1  0  0  0  0
 16 17  2  0  0  0  0
 16 20  1  0  0  0  0
 18 13  1  0  0  0  0
 19 14  1  0  0  0  0
 21 24  1  1  0  0  0
 21 23  1  0  0  0  0
 22 25  1  0  0  0  0
 22 21  1  0  0  0  0
 22 23  1  0  0  0  0
 23 27  1  6  0  0  0
 23 29  1  0  0  0  0
 26 22  1  0  0  0  0
 28 34  1  0  0  0  0
 29 28  2  0  0  0  0
 29 30  1  0  0  0  0
 30 32  2  0  0  0  0
 31 30  1  0  0  0  0
 32 33  1  0  0  0  0
 34 37  1  0  0  0  0
 34 33  2  0  0  0  0
 35 36  1  0  0  0  0
 35 28  1  0  0  0  0
 38 37  1  0  0  0  0
M  END
>  <minimizedAffinity>
-6.009624

$$$$

 OpenBabel03272507353D

 38 41  0  0  1  0  0  0  0  0999 V2000
   36.3450   28.7400   31.8470 C   0  0  0  0  0  0  0  0  0  0  0  0
   36.2810   28.7400   30.5700 O   0  0  0  0  0  0  0  0  0  0  0  0
   38.2910   26.4830   33.8260 C   0  0  0  0  0  0  0  0  0  0  0  0
   37.5530   25.5580   33.1170 C   0  0  0  0  0  0  0  0  0  0  0  0
   36.7010   26.2700   32.2590 C   0  0  0  0  0  0  0  0  0  0  0  0
   36.9790   27.5960   32.5040 C   0  0  0  0  0  0  0  0  0  0  0  0
   37.9140   27.6740   33.4270 O   0  0  0  0  0  0  0  0  0  0  0  0
   37.6090   24.4730   33.1950 H   0  0  0  0  0  0  0  0  0  0  0  0
   35.9910   25.8430   31.5670 H   0  0  0  0  0  0  0  0  0  0  0  0
   39.2830   26.0900   34.8130 C   0  0  0  0  0  0  0  0  0  0  0  0
   40.3380   26.7300   34.9000 O   0  0  0  0  0  0  0  0  0  0  0  0
   38.9670   24.9600   35.6390 C   0  0  0  0  0  0  0  0  0  0  0  0
   38.0910   25.1690   36.6940 C   0  0  0  0  0  0  0  0  0  0  0  0
   37.7680   24.0860   37.5130 C   0  0  0  0  0  0  0  0  0  0  0  0
   38.3340   22.8650   37.2320 N   0  0  0  0  0  0  0  0  0  0  0  0
   39.1740   22.7010   36.2050 C   0  0  0  0  0  0  0  0  0  0  0  0
   39.4920   23.7340   35.4110 N   0  0  0  0  0  0  0  0  0  0  0  0
   37.6690   26.1540   36.8750 H   0  0  0  0  0  0  0  0  0  0  0  0
   37.0910   24.2440   38.3310 H   0  0  0  0  0  0  0  0  0  0  0  0
   39.6150   21.7380   35.9910 H   0  0  0  0  0  0  0  0  0  0  0  0
   35.7980   29.8810   32.6550 C   0  0  1  0  0  0  0  0  0  0  0  0
   34.2450   30.0120   32.4100 C   0  0  0  0  0  0  0  0  0  0  0  0
   34.8270   29.6240   33.7200 C   0  0  2  0  0  0  0  0  0  0  0  0
   36.2870   30.8450   32.4000 H   0  0  0  0  0  0  0  0  0  0  0  0
   33.8940   31.0590   32.3450 H   0  0  0  0  0  0  0  0  0  0  0  0
   33.7610   29.2360   31.8270 H   0  0  0  0  0  0  0  0  0  0  0  0
   34.7450   28.5280   33.9890 H   0  0  0  0  0  0  0  0  0  0  0  0
   33.4670   30.4020   35.6170 C   0  0  0  0  0  0  0  0  0  0  0  0
   34.6500   30.5000   34.8760 C   0  0  0  0  0  0  0  0  0  0  0  0
   35.5500   31.4390   35.3290 C   0  0  0  0  0  0  0  0  0  0  0  0
   36.4730   31.5490   34.7900 H   0  0  0  0  0  0  0  0  0  0  0  0
   35.3320   32.2310   36.4160 C   0  0  0  0  0  3  0  0  0  0  0  0
   34.1540   32.1180   37.1350 C   0  0  0  0  0  3  0  0  0  0  0  0
   33.2070   31.1960   36.7380 C   0  0  0  0  0  0  0  0  0  0  0  0
   32.5160   29.4740   35.2150 O   0  0  0  0  0  0  0  0  0  0  0  0
   31.5720   29.5160   35.5970 H   0  0  0  0  0  0  0  0  0  0  0  0
   31.9930   31.0020   37.3880 O   0  0  0  0  0  0  0  0  0  0  0  0
   31.2490   31.6580   37.1680 H   0  0  0  0  0  0  0  0  0  0  0  0
  1  6  1  0  0  0  0
  1 21  1  0  0  0  0
  2  1  2  0  0  0  0
  3 10  1  0  0  0  0
  4  8  1  0  0  0  0
  4  3  2  0  0  0  0
  5  6  2  0  0  0  0
  5  4  1  0  0  0  0
  6  7  1  0  0  0  0
  7  3  1  0  0  0  0
  9  5  1  0  0  0  0
 10 11  2  0  0  0  0
 10 12  1  0  0  0  0
 12 13  1  0  0  0  0
 13 18  1  0  0  0  0
 13 14  2  0  0  0  0
 14 19  1  0  0  0  0
 15 14  1  0  0  0  0
 16 15  2  0  0  0  0
 17 12  2  0  0  0  0
 17 16  1  0  0  0  0
 20 16  1  0  0  0  0
 21 24  1  1  0  0  0
 21 23  1  0  0  0  0
 22 21  1  0  0  0  0
 22 23  1  0  0  0  0
 23 27  1  1  0  0  0
 23 29  1  0  0  0  0
 25 22  1  0  0  0  0
 26 22  1  0  0  0  0
 28 34  1  0  0  0  0
 29 30  1  0  0  0  0
 29 28  2  0  0  0  0
 30 32  2  0  0  0  0
 31 30  1  0  0  0  0
 32 33  1  0  0  0  0
 34 33  2  0  0  0  0
 34 37  1  0  0  0  0
 35 36  1  0  0  0  0
 35 28  1  0  0  0  0
 38 37  1  0  0  0  0
M  END
>  <minimizedAffinity>
-6.00940323

$$$$
