
 OpenBabel03272505593D

 46 49  0  0  1  0  0  0  0  0999 V2000
   35.2160   30.3710   49.8220 C   0  0  2  0  0  0  0  0  0  0  0  0
   36.1320   31.1730   48.9780 C   0  0  0  0  0  0  0  0  0  0  0  0
   37.5820   30.6820   49.0390 C   0  0  2  0  0  0  0  0  0  0  0  0
   38.1340   30.6130   50.3920 C   0  0  0  0  0  0  0  0  0  0  0  0
   37.1390   30.1030   51.4290 C   0  0  0  0  0  0  0  0  0  0  0  0
   35.9450   29.4620   50.7880 C   0  0  0  0  0  0  0  0  0  0  0  0
   34.5590   31.0080   50.4800 H   0  0  0  0  0  0  0  0  0  0  0  0
   35.9650   31.3230   47.9400 H   0  0  0  0  0  0  0  0  0  0  0  0
   36.1850   32.2130   49.4440 H   0  0  0  0  0  0  0  0  0  0  0  0
   37.5800   29.7370   48.4920 H   0  0  0  0  0  0  0  0  0  0  0  0
   39.0690   30.0170   50.3980 H   0  0  0  0  0  0  0  0  0  0  0  0
   38.4260   31.6170   50.7470 H   0  0  0  0  0  0  0  0  0  0  0  0
   37.6570   29.2960   51.9880 H   0  0  0  0  0  0  0  0  0  0  0  0
   36.8660   30.8560   52.1810 H   0  0  0  0  0  0  0  0  0  0  0  0
   36.2600   28.5710   50.2190 H   0  0  0  0  0  0  0  0  0  0  0  0
   35.2540   29.1540   51.5750 H   0  0  0  0  0  0  0  0  0  0  0  0
   37.6650   30.1190   46.1450 Cl  0  0  0  0  0  0  0  0  0  0  0  0
   38.4690   31.5070   46.8590 C   0  0  0  0  0  0  0  0  0  0  0  0
   38.3350   31.6840   48.2310 C   0  0  0  0  0  0  0  0  0  0  0  0
   38.9820   32.8040   48.6860 C   0  0  0  0  0  0  0  0  0  0  0  0
   39.6870   33.6570   47.8620 C   0  0  0  0  0  0  0  0  0  0  0  0
   39.7730   33.4110   46.4980 C   0  0  0  0  0  0  0  0  0  0  0  0
   39.1350   32.2900   45.9840 C   0  0  0  0  0  0  0  0  0  0  0  0
   38.9280   33.0250   49.7440 H   0  0  0  0  0  0  0  0  0  0  0  0
   40.1700   34.5270   48.3170 H   0  0  0  0  0  0  0  0  0  0  0  0
   40.3350   34.1080   45.9000 H   0  0  0  0  0  0  0  0  0  0  0  0
   38.2980   32.3120   43.5570 C   0  0  0  0  0  0  0  0  0  0  0  0
   39.2190   32.0220   44.5510 C   0  0  0  0  0  0  0  0  0  0  0  0
   40.4090   31.3870   44.1920 C   0  0  0  0  0  0  0  0  0  0  0  0
   41.2010   31.1150   44.9080 H   0  0  0  0  0  0  0  0  0  0  0  0
   40.7150   31.0350   42.9080 C   0  0  0  0  0  3  0  0  0  0  0  0
   39.7640   31.3430   41.9340 C   0  0  0  0  0  3  0  0  0  0  0  0
   38.5710   31.9730   42.2570 C   0  0  0  0  0  0  0  0  0  0  0  0
   37.1610   32.9410   44.0450 O   0  0  0  0  0  0  0  0  0  0  0  0
   36.4610   33.1650   43.3240 H   0  0  0  0  0  0  0  0  0  0  0  0
   37.5970   32.2990   41.3270 O   0  0  0  0  0  0  0  0  0  0  0  0
   37.3630   31.6720   40.5670 H   0  0  0  0  0  0  0  0  0  0  0  0
   34.2980   29.5290   49.0380 C   0  0  0  0  0  0  0  0  0  0  0  0
   34.2820   29.7840   47.6660 C   0  0  0  0  0  0  0  0  0  0  0  0
   33.4370   29.0010   46.8690 C   0  0  0  0  0  0  0  0  0  0  0  0
   32.6630   28.0180   47.4760 N   0  0  0  0  0  0  0  0  0  0  0  0
   32.7130   27.8090   48.8040 C   0  0  0  0  0  0  0  0  0  0  0  0
   33.5250   28.5670   49.5470 N   0  0  0  0  0  0  0  0  0  0  0  0
   34.7350   30.4420   46.9460 H   0  0  0  0  0  0  0  0  0  0  0  0
   33.2370   28.9830   45.8220 H   0  0  0  0  0  0  0  0  0  0  0  0
   32.1160   27.0510   49.2850 H   0  0  0  0  0  0  0  0  0  0  0  0
  1  7  1  1  0  0  0
  1  6  1  0  0  0  0
  2  3  1  0  0  0  0
  2  9  1  0  0  0  0
  2  1  1  0  0  0  0
  3 10  1  6  0  0  0
  3  4  1  0  0  0  0
  4 11  1  0  0  0  0
  4 12  1  0  0  0  0
  4  5  1  0  0  0  0
  5 13  1  0  0  0  0
  5 14  1  0  0  0  0
  6  5  1  0  0  0  0
  6 16  1  0  0  0  0
  8  2  1  0  0  0  0
 15  6  1  0  0  0  0
 17 18  1  0  0  0  0
 18 19  1  0  0  0  0
 19 20  2  0  0  0  0
 19  3  1  0  0  0  0
 20 24  1  0  0  0  0
 21 25  1  0  0  0  0
 21 20  1  0  0  0  0
 22 21  2  0  0  0  0
 23 22  1  0  0  0  0
 23 18  2  0  0  0  0
 26 22  1  0  0  0  0
 27 34  1  0  0  0  0
 27 28  1  0  0  0  0
 28 23  1  0  0  0  0
 29 28  2  0  0  0  0
 29 30  1  0  0  0  0
 31 29  1  0  0  0  0
 32 33  1  0  0  0  0
 32 31  2  0  0  0  0
 33 27  2  0  0  0  0
 35 34  1  0  0  0  0
 36 33  1  0  0  0  0
 37 36  1  0  0  0  0
 38 43  1  0  0  0  0
 38  1  1  0  0  0  0
 39 38  2  0  0  0  0
 40 41  2  0  0  0  0
 40 39  1  0  0  0  0
 41 42  1  0  0  0  0
 42 46  1  0  0  0  0
 42 43  2  0  0  0  0
 44 39  1  0  0  0  0
 45 40  1  0  0  0  0
M  END
>  <minimizedAffinity>
-7.86000061

>  <minimizedRMSD>
1.2506181

$$$$
