
 OpenBabel03272505593D

 46 49  0  0  1  0  0  0  0  0999 V2000
   35.2410   30.3430   49.7350 C   0  0  2  0  0  0  0  0  0  0  0  0
   36.1640   31.1410   48.8950 C   0  0  0  0  0  0  0  0  0  0  0  0
   37.6200   30.6780   49.0030 C   0  0  2  0  0  0  0  0  0  0  0  0
   38.1390   30.6530   50.3710 C   0  0  0  0  0  0  0  0  0  0  0  0
   37.1280   30.1500   51.3960 C   0  0  0  0  0  0  0  0  0  0  0  0
   35.9610   29.4710   50.7420 C   0  0  0  0  0  0  0  0  0  0  0  0
   34.5570   30.9840   50.3620 H   0  0  0  0  0  0  0  0  0  0  0  0
   36.0200   31.2630   47.8500 H   0  0  0  0  0  0  0  0  0  0  0  0
   36.1860   32.1930   49.3360 H   0  0  0  0  0  0  0  0  0  0  0  0
   37.6480   29.7200   48.4800 H   0  0  0  0  0  0  0  0  0  0  0  0
   39.0840   30.0740   50.4150 H   0  0  0  0  0  0  0  0  0  0  0  0
   38.4050   31.6700   50.7090 H   0  0  0  0  0  0  0  0  0  0  0  0
   37.6460   29.3660   51.9870 H   0  0  0  0  0  0  0  0  0  0  0  0
   36.8230   30.9160   52.1220 H   0  0  0  0  0  0  0  0  0  0  0  0
   36.3070   28.5730   50.2020 H   0  0  0  0  0  0  0  0  0  0  0  0
   35.2570   29.1690   51.5190 H   0  0  0  0  0  0  0  0  0  0  0  0
   37.8290   30.0210   46.1360 Cl  0  0  0  0  0  0  0  0  0  0  0  0
   38.5660   31.4560   46.8310 C   0  0  0  0  0  0  0  0  0  0  0  0
   38.3750   31.6740   48.1900 C   0  0  0  0  0  0  0  0  0  0  0  0
   38.9720   32.8280   48.6300 C   0  0  0  0  0  0  0  0  0  0  0  0
   39.6840   33.6730   47.8040 C   0  0  0  0  0  0  0  0  0  0  0  0
   39.8290   33.3830   46.4530 C   0  0  0  0  0  0  0  0  0  0  0  0
   39.2430   32.2270   45.9550 C   0  0  0  0  0  0  0  0  0  0  0  0
   38.8720   33.0820   49.6760 H   0  0  0  0  0  0  0  0  0  0  0  0
   40.1250   34.5710   48.2450 H   0  0  0  0  0  0  0  0  0  0  0  0
   40.3940   34.0760   45.8530 H   0  0  0  0  0  0  0  0  0  0  0  0
   38.5590   32.2570   43.4810 C   0  0  0  0  0  0  0  0  0  0  0  0
   39.3890   31.9140   44.5360 C   0  0  0  0  0  0  0  0  0  0  0  0
   40.5380   31.1690   44.2650 C   0  0  0  0  0  0  0  0  0  0  0  0
   41.2590   30.8490   45.0340 H   0  0  0  0  0  0  0  0  0  0  0  0
   40.8870   30.7570   43.0100 C   0  0  0  0  0  3  0  0  0  0  0  0
   40.0280   31.1200   41.9730 C   0  0  0  0  0  3  0  0  0  0  0  0
   38.8780   31.8600   42.2070 C   0  0  0  0  0  0  0  0  0  0  0  0
   37.4550   32.9950   43.8840 O   0  0  0  0  0  0  0  0  0  0  0  0
   36.8220   33.2600   43.1160 H   0  0  0  0  0  0  0  0  0  0  0  0
   37.9940   32.2440   41.2130 O   0  0  0  0  0  0  0  0  0  0  0  0
   37.7510   31.6200   40.4530 H   0  0  0  0  0  0  0  0  0  0  0  0
   34.3580   29.4660   48.9500 C   0  0  0  0  0  0  0  0  0  0  0  0
   34.4660   29.5990   47.5660 C   0  0  0  0  0  0  0  0  0  0  0  0
   33.6590   28.7760   46.7680 C   0  0  0  0  0  0  0  0  0  0  0  0
   32.7990   27.8770   47.3880 N   0  0  0  0  0  0  0  0  0  0  0  0
   32.7290   27.7850   48.7290 C   0  0  0  0  0  0  0  0  0  0  0  0
   33.5070   28.5780   49.4710 N   0  0  0  0  0  0  0  0  0  0  0  0
   35.0030   30.1750   46.8340 H   0  0  0  0  0  0  0  0  0  0  0  0
   33.5460   28.6730   45.7140 H   0  0  0  0  0  0  0  0  0  0  0  0
   32.0650   27.0920   49.2190 H   0  0  0  0  0  0  0  0  0  0  0  0
  1  7  1  1  0  0  0
  1  6  1  0  0  0  0
  2  3  1  0  0  0  0
  2  9  1  0  0  0  0
  2  1  1  0  0  0  0
  3 10  1  6  0  0  0
  3  4  1  0  0  0  0
  4 11  1  0  0  0  0
  4 12  1  0  0  0  0
  4  5  1  0  0  0  0
  5 13  1  0  0  0  0
  5 14  1  0  0  0  0
  6  5  1  0  0  0  0
  6 16  1  0  0  0  0
  8  2  1  0  0  0  0
 15  6  1  0  0  0  0
 17 18  1  0  0  0  0
 18 19  1  0  0  0  0
 19 20  2  0  0  0  0
 19  3  1  0  0  0  0
 20 24  1  0  0  0  0
 21 25  1  0  0  0  0
 21 20  1  0  0  0  0
 22 21  2  0  0  0  0
 23 22  1  0  0  0  0
 23 18  2  0  0  0  0
 26 22  1  0  0  0  0
 27 34  1  0  0  0  0
 27 28  1  0  0  0  0
 28 23  1  0  0  0  0
 29 28  2  0  0  0  0
 29 30  1  0  0  0  0
 31 29  1  0  0  0  0
 32 33  1  0  0  0  0
 32 31  2  0  0  0  0
 33 27  2  0  0  0  0
 35 34  1  0  0  0  0
 36 33  1  0  0  0  0
 37 36  1  0  0  0  0
 38 43  1  0  0  0  0
 38  1  1  0  0  0  0
 39 38  2  0  0  0  0
 40 41  2  0  0  0  0
 40 39  1  0  0  0  0
 41 42  1  0  0  0  0
 42 46  1  0  0  0  0
 42 43  2  0  0  0  0
 44 39  1  0  0  0  0
 45 40  1  0  0  0  0
M  END
>  <minimizedAffinity>
-7.74385929

>  <minimizedRMSD>
1.48240173

$$$$
