
 OpenBabel03262521033D

 20 21  0  0  0  0  0  0  0  0999 V2000
   38.7710   31.8910   47.7090 C   0  0  0  0  0  0  0  0  0  0  0  0
   38.2980   32.1140   48.9860 C   0  0  0  0  0  0  0  0  0  0  0  0
   38.6960   33.3280   49.5460 C   0  0  0  0  0  0  0  0  0  0  0  0
   38.3290   33.5210   50.5580 H   0  0  0  0  0  0  0  0  0  0  0  0
   39.5080   34.2290   48.8490 C   0  0  0  0  0  3  0  0  0  0  0  0
   39.9360   33.9150   47.5630 C   0  0  0  0  0  3  0  0  0  0  0  0
   39.5580   32.7200   46.9810 C   0  0  0  0  0  0  0  0  0  0  0  0
   37.9870   30.4830   50.7970 C   0  0  0  0  0  0  0  0  0  0  0  0
   37.4660   31.1950   49.7050 C   0  0  0  0  0  0  0  0  0  0  0  0
   36.1300   30.9700   49.3590 C   0  0  0  0  0  0  0  0  0  0  0  0
   35.4140   30.0750   50.1030 N   0  0  0  0  0  0  0  0  0  0  0  0
   35.9570   29.4100   51.1500 C   0  0  0  0  0  0  0  0  0  0  0  0
   37.2470   29.6140   51.4980 N   0  0  0  0  0  0  0  0  0  0  0  0
   39.0020   30.6200   51.1000 H   0  0  0  0  0  0  0  0  0  0  0  0
   35.6860   31.4970   48.5250 H   0  0  0  0  0  0  0  0  0  0  0  0
   35.2430   28.7500   51.6130 H   0  0  0  0  0  0  0  0  0  0  0  0
   38.4210   30.6910   47.0630 O   0  0  0  0  0  0  0  0  0  0  0  0
   37.7370   30.7270   46.2930 H   0  0  0  0  0  0  0  0  0  0  0  0
   40.0030   32.4390   45.6980 O   0  0  0  0  0  0  0  0  0  0  0  0
   40.5210   31.5570   45.5840 H   0  0  0  0  0  0  0  0  0  0  0  0
  1  2  1  0  0  0  0
  2  3  2  0  0  0  0
  2  9  1  0  0  0  0
  3  4  1  0  0  0  0
  5  3  1  0  0  0  0
  6  5  2  0  0  0  0
  7  6  1  0  0  0  0
  7  1  2  0  0  0  0
  8 14  1  0  0  0  0
  8 13  1  0  0  0  0
  9  8  2  0  0  0  0
 10  9  1  0  0  0  0
 10 11  2  0  0  0  0
 11 12  1  0  0  0  0
 12 13  2  0  0  0  0
 12 16  1  0  0  0  0
 15 10  1  0  0  0  0
 17  1  1  0  0  0  0
 18 17  1  0  0  0  0
 19  7  1  0  0  0  0
 20 19  1  0  0  0  0
M  END
>  <minimizedAffinity>
-5.39782763

>  <minimizedRMSD>
2.54789948

$$$$
