
 OpenBabel03272504573D

 35 37  0  0  1  0  0  0  0  0999 V2000
   37.0340   31.5490   48.6840 C   0  0  1  0  0  0  0  0  0  0  0  0
   36.2400   30.9240   47.6530 C   0  0  0  0  0  0  0  0  0  0  0  0
   37.2300   30.1150   48.4350 C   0  0  2  0  0  0  0  0  0  0  0  0
   36.6190   31.7850   49.7240 H   0  0  0  0  0  0  0  0  0  0  0  0
   36.5140   31.1710   46.6060 H   0  0  0  0  0  0  0  0  0  0  0  0
   35.2100   31.1510   47.8570 H   0  0  0  0  0  0  0  0  0  0  0  0
   37.8890   29.6040   47.7470 H   0  0  0  0  0  0  0  0  0  0  0  0
   38.1810   32.4550   48.3350 C   0  0  0  0  0  0  0  0  0  0  0  0
   38.5400   33.3970   49.3150 C   0  0  0  0  0  0  0  0  0  0  0  0
   39.5910   34.2160   48.9720 C   0  0  0  0  0  0  0  0  0  0  0  0
   40.2010   34.0850   47.7730 N   0  0  0  0  0  0  0  0  0  0  0  0
   39.8250   33.1620   46.8550 C   0  0  0  0  0  0  0  0  0  0  0  0
   38.7800   32.3280   47.1580 N   0  0  0  0  0  0  0  0  0  0  0  0
   40.4600   32.9930   45.6210 N   0  0  0  0  0  0  0  0  0  0  0  0
   38.0640   33.5130   50.2760 H   0  0  0  0  0  0  0  0  0  0  0  0
   39.9030   34.9620   49.7040 H   0  0  0  0  0  0  0  0  0  0  0  0
   41.5040   33.1800   45.6750 H   0  0  0  0  0  0  0  0  0  0  0  0
   39.9760   32.7210   44.7630 H   0  0  0  0  0  0  0  0  0  0  0  0
   36.6650   29.2690   49.4000 O   0  0  0  0  0  0  0  0  0  0  0  0
   34.6230   27.7400   49.7590 O   0  0  0  0  0  0  0  0  0  0  0  0
   35.0490   29.0090   49.0920 P   0  0  1  0  0  0  0  0  0  0  0  0
   34.1100   30.2530   49.8280 O   0  0  0  0  0  0  0  0  0  0  0  0
   33.4090   30.5830   49.2460 H   0  0  0  0  0  0  0  0  0  0  0  0
   34.8140   29.0060   47.4220 O   0  0  0  0  0  0  0  0  0  0  0  0
   32.8780   27.6910   46.6970 C   0  0  0  0  0  0  0  0  0  0  0  0
   33.5380   28.9030   46.8370 C   0  0  0  0  0  0  0  0  0  0  0  0
   32.8900   30.0380   46.3720 C   0  0  0  0  0  0  0  0  0  0  0  0
   33.3420   31.0290   46.4440 H   0  0  0  0  0  0  0  0  0  0  0  0
   31.6410   30.0390   45.7840 C   0  0  0  0  0  3  0  0  0  0  0  0
   31.0010   28.8120   45.6570 C   0  0  0  0  0  3  0  0  0  0  0  0
   31.6210   27.6540   46.1120 C   0  0  0  0  0  0  0  0  0  0  0  0
   33.4850   26.5260   47.1470 O   0  0  0  0  0  0  0  0  0  0  0  0
   34.4590   26.3420   47.1940 H   0  0  0  0  0  0  0  0  0  0  0  0
   30.9470   26.4600   45.9630 O   0  0  0  0  0  0  0  0  0  0  0  0
   29.9560   26.4300   45.7790 H   0  0  0  0  0  0  0  0  0  0  0  0
  1  4  1  1  0  0  0
  2  6  1  0  0  0  0
  2  3  1  0  0  0  0
  2  1  1  0  0  0  0
  3  7  1  6  0  0  0
  3  1  1  0  0  0  0
  3 19  1  0  0  0  0
  5  2  1  0  0  0  0
  8  1  1  0  0  0  0
  8  9  1  0  0  0  0
  9 15  1  0  0  0  0
 10  9  2  0  0  0  0
 10 16  1  0  0  0  0
 11 10  1  0  0  0  0
 12 13  1  0  0  0  0
 12 11  2  0  0  0  0
 13  8  2  0  0  0  0
 14 17  1  0  0  0  0
 14 12  1  0  0  0  0
 18 14  1  0  0  0  0
 21 19  1  0  0  0  0
 21 20  2  1  0  0  0
 21 22  1  0  0  0  0
 23 22  1  0  0  0  0
 24 21  1  0  0  0  0
 25 26  1  0  0  0  0
 25 32  1  0  0  0  0
 26 24  1  0  0  0  0
 27 28  1  0  0  0  0
 27 26  2  0  0  0  0
 29 27  1  0  0  0  0
 30 29  2  0  0  0  0
 30 31  1  0  0  0  0
 31 25  2  0  0  0  0
 32 33  1  0  0  0  0
 34 31  1  0  0  0  0
 35 34  1  0  0  0  0
M  END
>  <minimizedAffinity>
-4.96564627

>  <minimizedRMSD>
0.496852458

$$$$
