
 OpenBabel03272506093D

 46 49  0  0  0  0  0  0  0  0999 V2000
   34.1810   28.1840   48.9710 C   0  0  0  0  0  0  0  0  0  0  0  0
   35.0220   28.2950   48.2610 H   0  0  0  0  0  0  0  0  0  0  0  0
   34.3500   27.1640   49.4310 H   0  0  0  0  0  0  0  0  0  0  0  0
   32.8530   28.1520   48.2500 C   0  0  0  0  0  0  0  0  0  0  0  0
   32.7930   28.5710   46.8620 C   0  0  0  0  0  0  0  0  0  0  0  0
   31.0790   28.3520   46.5170 S   0  0  0  0  0  0  0  0  0  0  0  0
   30.6490   27.7380   48.2350 C   0  0  0  0  0  0  0  0  0  0  0  0
   31.7190   27.7800   48.7530 N   0  0  0  0  0  0  0  0  0  0  0  0
   29.3840   27.3180   48.8120 N   0  0  0  0  0  0  0  0  0  0  0  0
   28.4340   26.7540   47.9230 C   0  0  0  0  0  0  0  0  0  0  0  0
   27.0540   26.6620   48.4700 C   0  0  0  0  0  0  0  0  0  0  0  0
   26.8710   27.4360   49.7010 N   0  0  0  0  0  0  0  0  0  0  0  0
   27.8600   26.8930   50.6170 C   0  0  0  0  0  0  0  0  0  0  0  0
   29.1810   27.5040   50.2410 C   0  0  0  0  0  0  0  0  0  0  0  0
   33.6070   28.9060   46.2790 H   0  0  0  0  0  0  0  0  0  0  0  0
   28.3910   27.3950   47.0100 H   0  0  0  0  0  0  0  0  0  0  0  0
   28.7850   25.7480   47.5570 H   0  0  0  0  0  0  0  0  0  0  0  0
   26.8730   25.6040   48.7880 H   0  0  0  0  0  0  0  0  0  0  0  0
   26.2570   26.9370   47.7740 H   0  0  0  0  0  0  0  0  0  0  0  0
   25.8990   27.2820   50.0240 H   0  0  0  0  0  0  0  0  0  0  0  0
   27.6400   27.1770   51.6700 H   0  0  0  0  0  0  0  0  0  0  0  0
   27.9150   25.7960   50.5680 H   0  0  0  0  0  0  0  0  0  0  0  0
   29.1050   28.6020   50.4950 H   0  0  0  0  0  0  0  0  0  0  0  0
   29.9690   27.0650   50.8580 H   0  0  0  0  0  0  0  0  0  0  0  0
   34.1900   29.1960   50.0380 C   0  0  0  0  0  0  0  0  0  0  0  0
   33.8540   28.7530   51.0130 H   0  0  0  0  0  0  0  0  0  0  0  0
   33.6070   30.1020   49.7760 H   0  0  0  0  0  0  0  0  0  0  0  0
   37.3980   29.9460   51.7440 C   0  0  0  0  0  0  0  0  0  0  0  0
   38.1470   30.5230   50.7310 C   0  0  0  0  0  0  0  0  0  0  0  0
   37.5690   30.6590   49.4760 C   0  0  0  0  0  0  0  0  0  0  0  0
   36.2970   30.2140   49.3210 N   0  0  0  0  0  0  0  0  0  0  0  0
   35.6020   29.6570   50.3330 C   0  0  0  0  0  0  0  0  0  0  0  0
   36.1460   29.5260   51.5250 N   0  0  0  0  0  0  0  0  0  0  0  0
   37.8820   29.8530   52.7220 H   0  0  0  0  0  0  0  0  0  0  0  0
   39.1280   30.8510   50.9060 H   0  0  0  0  0  0  0  0  0  0  0  0
   38.8110   32.4560   48.1880 C   0  0  0  0  0  0  0  0  0  0  0  0
   38.1910   31.2380   48.3030 C   0  0  0  0  0  0  0  0  0  0  0  0
   38.1950   30.5200   47.1280 C   0  0  0  0  0  0  0  0  0  0  0  0
   37.7520   29.5440   47.0380 H   0  0  0  0  0  0  0  0  0  0  0  0
   38.7620   30.9780   45.9560 C   0  0  0  0  0  3  0  0  0  0  0  0
   39.3660   32.1940   45.8920 C   0  0  0  0  0  3  0  0  0  0  0  0
   39.3890   32.9500   47.0400 C   0  0  0  0  0  0  0  0  0  0  0  0
   38.8760   33.2680   49.2850 O   0  0  0  0  0  0  0  0  0  0  0  0
   38.2780   34.0680   49.3970 H   0  0  0  0  0  0  0  0  0  0  0  0
   39.9950   34.1920   47.0090 O   0  0  0  0  0  0  0  0  0  0  0  0
   40.9850   34.3540   46.9030 H   0  0  0  0  0  0  0  0  0  0  0  0
  1  3  1  0  0  0  0
  1 25  1  0  0  0  0
  2  1  1  0  0  0  0
  4  8  1  0  0  0  0
  4  1  1  0  0  0  0
  5  4  2  0  0  0  0
  6  5  1  0  0  0  0
  6  7  1  0  0  0  0
  7  8  2  0  0  0  0
  7  9  1  0  0  0  0
  9 14  1  0  0  0  0
 10 11  1  0  0  0  0
 10  9  1  0  0  0  0
 11 18  1  0  0  0  0
 11 12  1  0  0  0  0
 12 20  1  0  0  0  0
 12 13  1  0  0  0  0
 13 21  1  0  0  0  0
 14 23  1  0  0  0  0
 14 13  1  0  0  0  0
 14 24  1  0  0  0  0
 15  5  1  0  0  0  0
 16 10  1  0  0  0  0
 17 10  1  0  0  0  0
 19 11  1  0  0  0  0
 22 13  1  0  0  0  0
 25 32  1  0  0  0  0
 25 26  1  0  0  0  0
 27 25  1  0  0  0  0
 28 34  1  0  0  0  0
 29 35  1  0  0  0  0
 29 28  2  0  0  0  0
 30 29  1  0  0  0  0
 31 30  2  0  0  0  0
 31 32  1  0  0  0  0
 32 33  2  0  0  0  0
 33 28  1  0  0  0  0
 36 37  1  0  0  0  0
 36 43  1  0  0  0  0
 37 30  1  0  0  0  0
 38 37  2  0  0  0  0
 39 38  1  0  0  0  0
 40 38  1  0  0  0  0
 41 40  2  0  0  0  0
 41 42  1  0  0  0  0
 42 36  2  0  0  0  0
 43 44  1  0  0  0  0
 45 42  1  0  0  0  0
 46 45  1  0  0  0  0
M  END
>  <minimizedAffinity>
-8.2284832

>  <minimizedRMSD>
2.25959134

$$$$
