
 OpenBabel03262523553D

 36 38  0  0  1  0  0  0  0  0999 V2000
   37.9200   23.9940   33.3770 C   0  0  1  0  0  0  0  0  0  0  0  0
   38.6340   23.7090   32.1270 C   0  0  0  0  0  0  0  0  0  0  0  0
   37.8150   22.7700   31.2860 C   0  0  0  0  0  0  0  0  0  0  0  0
   37.1900   21.7170   32.1260 C   0  0  0  0  0  0  0  0  0  0  0  0
   37.7550   21.5100   33.4790 C   0  0  0  0  0  0  0  0  0  0  0  0
   37.8900   22.7860   34.2530 C   0  0  1  0  0  0  0  0  0  0  0  0
   36.8640   24.2750   33.0390 H   0  0  0  0  0  0  0  0  0  0  0  0
   39.6710   23.4110   32.1460 H   0  0  0  0  0  0  0  0  0  0  0  0
   38.6420   24.6780   31.5320 H   0  0  0  0  0  0  0  0  0  0  0  0
   38.5320   22.2980   30.5500 H   0  0  0  0  0  0  0  0  0  0  0  0
   37.0480   23.3340   30.7060 H   0  0  0  0  0  0  0  0  0  0  0  0
   37.1300   20.7750   31.5600 H   0  0  0  0  0  0  0  0  0  0  0  0
   36.1100   22.0160   32.2760 H   0  0  0  0  0  0  0  0  0  0  0  0
   37.1000   20.7830   34.0100 H   0  0  0  0  0  0  0  0  0  0  0  0
   38.7810   21.0330   33.4360 H   0  0  0  0  0  0  0  0  0  0  0  0
   36.8630   22.8740   34.7490 H   0  0  0  0  0  0  0  0  0  0  0  0
   40.0920   26.6780   34.6930 C   0  0  0  0  0  0  0  0  0  0  0  0
   39.6550   25.5750   33.9040 C   0  0  0  0  0  0  0  0  0  0  0  0
   38.3620   25.1340   34.1460 C   0  0  0  0  0  0  0  0  0  0  0  0
   37.5970   25.7650   35.1040 N   0  0  0  0  0  0  0  0  0  0  0  0
   38.0370   26.7970   35.8270 C   0  0  0  0  0  0  0  0  0  0  0  0
   39.2980   27.2630   35.6240 N   0  0  0  0  0  0  0  0  0  0  0  0
   41.0670   27.1470   34.6350 H   0  0  0  0  0  0  0  0  0  0  0  0
   40.4180   25.2260   33.2400 H   0  0  0  0  0  0  0  0  0  0  0  0
   37.2920   27.1470   36.5200 H   0  0  0  0  0  0  0  0  0  0  0  0
   38.6020   22.9640   36.7100 C   0  0  0  0  0  0  0  0  0  0  0  0
   38.8530   22.6840   35.3540 C   0  0  0  0  0  0  0  0  0  0  0  0
   40.1790   22.3080   35.2010 C   0  0  0  0  0  0  0  0  0  0  0  0
   40.5680   22.0510   34.2260 H   0  0  0  0  0  0  0  0  0  0  0  0
   41.1180   22.2200   36.2060 C   0  0  0  0  0  3  0  0  0  0  0  0
   40.7530   22.5170   37.4780 C   0  0  0  0  0  3  0  0  0  0  0  0
   39.4770   22.8960   37.7380 C   0  0  0  0  0  0  0  0  0  0  0  0
   37.2870   23.3590   37.0350 O   0  0  0  0  0  0  0  0  0  0  0  0
   36.5690   22.6490   37.2380 H   0  0  0  0  0  0  0  0  0  0  0  0
   39.0960   23.2030   39.0370 O   0  0  0  0  0  0  0  0  0  0  0  0
   39.5720   23.9790   39.4790 H   0  0  0  0  0  0  0  0  0  0  0  0
  1  7  1  6  0  0  0
  1 19  1  0  0  0  0
  1  6  1  0  0  0  0
  2  8  1  0  0  0  0
  2  1  1  0  0  0  0
  3  4  1  0  0  0  0
  3  2  1  0  0  0  0
  4 13  1  0  0  0  0
  4  5  1  0  0  0  0
  5 14  1  0  0  0  0
  5  6  1  0  0  0  0
  6 16  1  1  0  0  0
  6 27  1  0  0  0  0
  9  2  1  0  0  0  0
 10  3  1  0  0  0  0
 11  3  1  0  0  0  0
 12  4  1  0  0  0  0
 15  5  1  0  0  0  0
 17 22  1  0  0  0  0
 18 19  1  0  0  0  0
 18 17  2  0  0  0  0
 19 20  2  0  0  0  0
 20 21  1  0  0  0  0
 21 25  1  0  0  0  0
 22 21  2  0  0  0  0
 23 17  1  0  0  0  0
 24 18  1  0  0  0  0
 26 33  1  0  0  0  0
 26 32  1  0  0  0  0
 27 26  2  0  0  0  0
 28 27  1  0  0  0  0
 28 30  2  0  0  0  0
 29 28  1  0  0  0  0
 30 31  1  0  0  0  0
 31 32  2  0  0  0  0
 32 35  1  0  0  0  0
 33 34  1  0  0  0  0
 35 36  1  0  0  0  0
M  END
>  <minimizedAffinity>
-5.3347311

$$$$

 OpenBabel03262523553D

 36 38  0  0  1  0  0  0  0  0999 V2000
   39.7180   24.9140   32.9920 C   0  0  1  0  0  0  0  0  0  0  0  0
   38.8610   26.0420   32.6070 C   0  0  0  0  0  0  0  0  0  0  0  0
   39.7180   27.2350   32.2920 C   0  0  0  0  0  0  0  0  0  0  0  0
   40.8350   27.3550   33.2640 C   0  0  0  0  0  0  0  0  0  0  0  0
   40.7080   26.6030   34.5330 C   0  0  0  0  0  0  0  0  0  0  0  0
   40.3500   25.1630   34.3200 C   0  0  1  0  0  0  0  0  0  0  0  0
   40.5100   24.8690   32.1680 H   0  0  0  0  0  0  0  0  0  0  0  0
   38.0150   26.3180   33.2170 H   0  0  0  0  0  0  0  0  0  0  0  0
   38.3950   25.7650   31.6080 H   0  0  0  0  0  0  0  0  0  0  0  0
   39.0430   28.1380   32.3720 H   0  0  0  0  0  0  0  0  0  0  0  0
   40.0960   27.1790   31.2450 H   0  0  0  0  0  0  0  0  0  0  0  0
   41.0640   28.4170   33.4390 H   0  0  0  0  0  0  0  0  0  0  0  0
   41.7600   26.9550   32.7500 H   0  0  0  0  0  0  0  0  0  0  0  0
   41.6720   26.7030   35.0810 H   0  0  0  0  0  0  0  0  0  0  0  0
   39.9170   27.0500   35.2070 H   0  0  0  0  0  0  0  0  0  0  0  0
   41.3780   24.6780   34.1930 H   0  0  0  0  0  0  0  0  0  0  0  0
   37.1600   22.2460   33.0270 C   0  0  0  0  0  0  0  0  0  0  0  0
   37.7360   23.5500   33.0010 C   0  0  0  0  0  0  0  0  0  0  0  0
   39.1230   23.5970   32.9830 C   0  0  0  0  0  0  0  0  0  0  0  0
   39.8430   22.4210   32.9920 N   0  0  0  0  0  0  0  0  0  0  0  0
   39.2720   21.2160   33.0180 C   0  0  0  0  0  0  0  0  0  0  0  0
   37.9160   21.1200   33.0350 N   0  0  0  0  0  0  0  0  0  0  0  0
   36.1000   22.0270   33.0430 H   0  0  0  0  0  0  0  0  0  0  0  0
   36.9930   24.3200   33.0230 H   0  0  0  0  0  0  0  0  0  0  0  0
   40.0040   20.4260   33.0220 H   0  0  0  0  0  0  0  0  0  0  0  0
   40.2710   23.4250   36.2040 C   0  0  0  0  0  0  0  0  0  0  0  0
   39.7650   24.5410   35.5130 C   0  0  0  0  0  0  0  0  0  0  0  0
   38.5950   24.9680   36.1220 C   0  0  0  0  0  0  0  0  0  0  0  0
   38.0530   25.8180   35.7370 H   0  0  0  0  0  0  0  0  0  0  0  0
   38.0040   24.3980   37.2300 C   0  0  0  0  0  3  0  0  0  0  0  0
   38.5900   23.3200   37.8100 C   0  0  0  0  0  3  0  0  0  0  0  0
   39.7400   22.8240   37.2920 C   0  0  0  0  0  0  0  0  0  0  0  0
   41.4700   22.8710   35.7070 O   0  0  0  0  0  0  0  0  0  0  0  0
   42.3790   23.2440   36.0170 H   0  0  0  0  0  0  0  0  0  0  0  0
   40.3450   21.7200   37.8790 O   0  0  0  0  0  0  0  0  0  0  0  0
   39.8090   20.8620   37.8950 H   0  0  0  0  0  0  0  0  0  0  0  0
  1  7  1  6  0  0  0
  1  6  1  0  0  0  0
  2  1  1  0  0  0  0
  2  8  1  0  0  0  0
  3 10  1  0  0  0  0
  3  2  1  0  0  0  0
  3  4  1  0  0  0  0
  4 12  1  0  0  0  0
  4  5  1  0  0  0  0
  5 14  1  0  0  0  0
  5 15  1  0  0  0  0
  6 16  1  6  0  0  0
  6  5  1  0  0  0  0
  6 27  1  0  0  0  0
  9  2  1  0  0  0  0
 11  3  1  0  0  0  0
 13  4  1  0  0  0  0
 17 22  1  0  0  0  0
 17 23  1  0  0  0  0
 18 24  1  0  0  0  0
 18 17  2  0  0  0  0
 19  1  1  0  0  0  0
 19 20  2  0  0  0  0
 19 18  1  0  0  0  0
 20 21  1  0  0  0  0
 21 25  1  0  0  0  0
 21 22  2  0  0  0  0
 26 32  1  0  0  0  0
 27 28  1  0  0  0  0
 27 26  2  0  0  0  0
 28 30  2  0  0  0  0
 29 28  1  0  0  0  0
 30 31  1  0  0  0  0
 32 31  2  0  0  0  0
 32 35  1  0  0  0  0
 33 34  1  0  0  0  0
 33 26  1  0  0  0  0
 35 36  1  0  0  0  0
M  END
>  <minimizedAffinity>
-5.25802231

$$$$

 OpenBabel03262523553D

 36 38  0  0  1  0  0  0  0  0999 V2000
   38.7300   24.9470   33.5430 C   0  0  1  0  0  0  0  0  0  0  0  0
   37.4010   25.4770   33.8680 C   0  0  0  0  0  0  0  0  0  0  0  0
   37.4300   26.9780   33.7960 C   0  0  0  0  0  0  0  0  0  0  0  0
   38.6860   27.5110   34.3820 C   0  0  0  0  0  0  0  0  0  0  0  0
   39.4610   26.6020   35.2560 C   0  0  0  0  0  0  0  0  0  0  0  0
   39.7020   25.2620   34.6300 C   0  0  1  0  0  0  0  0  0  0  0  0
   39.0180   25.4840   32.5750 H   0  0  0  0  0  0  0  0  0  0  0  0
   36.8790   25.1390   34.7500 H   0  0  0  0  0  0  0  0  0  0  0  0
   36.7150   25.1720   33.0140 H   0  0  0  0  0  0  0  0  0  0  0  0
   36.5420   27.3390   34.3950 H   0  0  0  0  0  0  0  0  0  0  0  0
   37.2970   27.3200   32.7430 H   0  0  0  0  0  0  0  0  0  0  0  0
   38.4880   28.4770   34.8710 H   0  0  0  0  0  0  0  0  0  0  0  0
   39.3650   27.7740   33.5170 H   0  0  0  0  0  0  0  0  0  0  0  0
   40.4190   27.1100   35.5060 H   0  0  0  0  0  0  0  0  0  0  0  0
   38.9360   26.4210   36.2430 H   0  0  0  0  0  0  0  0  0  0  0  0
   40.6680   25.4420   34.0460 H   0  0  0  0  0  0  0  0  0  0  0  0
   37.8880   21.3540   33.3350 C   0  0  0  0  0  0  0  0  0  0  0  0
   37.7720   22.7420   33.6400 C   0  0  0  0  0  0  0  0  0  0  0  0
   38.8200   23.5440   33.2090 C   0  0  0  0  0  0  0  0  0  0  0  0
   39.8800   22.9740   32.5360 N   0  0  0  0  0  0  0  0  0  0  0  0
   39.9590   21.6700   32.2680 C   0  0  0  0  0  0  0  0  0  0  0  0
   38.9550   20.8450   32.6700 N   0  0  0  0  0  0  0  0  0  0  0  0
   37.1660   20.5900   33.5950 H   0  0  0  0  0  0  0  0  0  0  0  0
   36.8810   22.9610   34.1890 H   0  0  0  0  0  0  0  0  0  0  0  0
   40.8620   21.4230   31.7370 H   0  0  0  0  0  0  0  0  0  0  0  0
   39.2380   23.8470   36.7180 C   0  0  0  0  0  0  0  0  0  0  0  0
   40.0260   24.2240   35.6160 C   0  0  0  0  0  0  0  0  0  0  0  0
   41.1900   23.4710   35.6040 C   0  0  0  0  0  0  0  0  0  0  0  0
   41.9290   23.6130   34.8290 H   0  0  0  0  0  0  0  0  0  0  0  0
   41.5380   22.5030   36.5220 C   0  0  0  0  0  3  0  0  0  0  0  0
   40.6910   22.2290   37.5450 C   0  0  0  0  0  3  0  0  0  0  0  0
   39.5230   22.9080   37.6480 C   0  0  0  0  0  0  0  0  0  0  0  0
   38.0080   24.5230   36.8700 O   0  0  0  0  0  0  0  0  0  0  0  0
   37.1670   24.1800   36.3840 H   0  0  0  0  0  0  0  0  0  0  0  0
   38.6520   22.6340   38.6940 O   0  0  0  0  0  0  0  0  0  0  0  0
   38.9990   22.7970   39.6300 H   0  0  0  0  0  0  0  0  0  0  0  0
  1  7  1  6  0  0  0
  1  2  1  0  0  0  0
  1  6  1  0  0  0  0
  2  8  1  0  0  0  0
  3  2  1  0  0  0  0
  3  4  1  0  0  0  0
  3 10  1  0  0  0  0
  4 12  1  0  0  0  0
  4  5  1  0  0  0  0
  5 14  1  0  0  0  0
  5 15  1  0  0  0  0
  6 16  1  6  0  0  0
  6  5  1  0  0  0  0
  6 27  1  0  0  0  0
  9  2  1  0  0  0  0
 11  3  1  0  0  0  0
 13  4  1  0  0  0  0
 17 23  1  0  0  0  0
 17 18  1  0  0  0  0
 18 24  1  0  0  0  0
 19  1  1  0  0  0  0
 19 18  2  0  0  0  0
 20 19  1  0  0  0  0
 21 20  2  0  0  0  0
 21 22  1  0  0  0  0
 22 17  2  0  0  0  0
 25 21  1  0  0  0  0
 26 33  1  0  0  0  0
 26 32  1  0  0  0  0
 27 26  2  0  0  0  0
 28 27  1  0  0  0  0
 28 30  2  0  0  0  0
 29 28  1  0  0  0  0
 30 31  1  0  0  0  0
 31 32  2  0  0  0  0
 32 35  1  0  0  0  0
 34 33  1  0  0  0  0
 35 36  1  0  0  0  0
M  END
>  <minimizedAffinity>
-5.05149651

$$$$

 OpenBabel03262523553D

 36 38  0  0  1  0  0  0  0  0999 V2000
   38.3060   21.8920   34.4320 C   0  0  1  0  0  0  0  0  0  0  0  0
   36.8790   21.6410   34.1970 C   0  0  0  0  0  0  0  0  0  0  0  0
   36.7110   20.8700   32.9180 C   0  0  0  0  0  0  0  0  0  0  0  0
   37.6320   21.3780   31.8700 C   0  0  0  0  0  0  0  0  0  0  0  0
   38.2220   22.7190   32.0830 C   0  0  0  0  0  0  0  0  0  0  0  0
   38.8380   22.8720   33.4410 C   0  0  1  0  0  0  0  0  0  0  0  0
   38.7980   20.8680   34.2920 H   0  0  0  0  0  0  0  0  0  0  0  0
   36.1650   22.4470   34.2640 H   0  0  0  0  0  0  0  0  0  0  0  0
   36.5430   20.9140   35.0040 H   0  0  0  0  0  0  0  0  0  0  0  0
   35.6390   21.0260   32.5940 H   0  0  0  0  0  0  0  0  0  0  0  0
   36.8620   19.7800   33.0960 H   0  0  0  0  0  0  0  0  0  0  0  0
   37.1550   21.2940   30.8810 H   0  0  0  0  0  0  0  0  0  0  0  0
   38.5000   20.6550   31.8180 H   0  0  0  0  0  0  0  0  0  0  0  0
   38.9720   22.8890   31.2780 H   0  0  0  0  0  0  0  0  0  0  0  0
   37.4500   23.5390   31.9700 H   0  0  0  0  0  0  0  0  0  0  0  0
   39.9000   22.4870   33.2660 H   0  0  0  0  0  0  0  0  0  0  0  0
   38.1240   23.3280   37.8320 C   0  0  0  0  0  0  0  0  0  0  0  0
   37.7180   22.9050   36.5330 C   0  0  0  0  0  0  0  0  0  0  0  0
   38.6980   22.2930   35.7630 C   0  0  0  0  0  0  0  0  0  0  0  0
   39.9670   22.1360   36.2780 N   0  0  0  0  0  0  0  0  0  0  0  0
   40.3160   22.5450   37.4990 C   0  0  0  0  0  0  0  0  0  0  0  0
   39.3890   23.1490   38.2900 N   0  0  0  0  0  0  0  0  0  0  0  0
   37.4920   23.8190   38.5600 H   0  0  0  0  0  0  0  0  0  0  0  0
   36.6960   23.1480   36.3310 H   0  0  0  0  0  0  0  0  0  0  0  0
   41.3490   22.3320   37.7130 H   0  0  0  0  0  0  0  0  0  0  0  0
   40.1820   24.9080   34.2310 C   0  0  0  0  0  0  0  0  0  0  0  0
   38.9880   24.2760   33.8420 C   0  0  0  0  0  0  0  0  0  0  0  0
   37.9430   25.1840   33.9120 C   0  0  0  0  0  0  0  0  0  0  0  0
   36.9380   24.8880   33.6500 H   0  0  0  0  0  0  0  0  0  0  0  0
   38.0400   26.5030   34.3020 C   0  0  0  0  0  3  0  0  0  0  0  0
   39.2520   26.9980   34.6570 C   0  0  0  0  0  3  0  0  0  0  0  0
   40.3410   26.1930   34.6220 C   0  0  0  0  0  0  0  0  0  0  0  0
   41.3480   24.1130   34.2090 O   0  0  0  0  0  0  0  0  0  0  0  0
   41.8950   24.0210   33.3420 H   0  0  0  0  0  0  0  0  0  0  0  0
   41.5850   26.6920   34.9840 O   0  0  0  0  0  0  0  0  0  0  0  0
   41.6810   27.0280   35.9340 H   0  0  0  0  0  0  0  0  0  0  0  0
  1  7  1  6  0  0  0
  1 19  1  0  0  0  0
  2  8  1  0  0  0  0
  2  1  1  0  0  0  0
  2  9  1  0  0  0  0
  3 11  1  0  0  0  0
  3  2  1  0  0  0  0
  4  5  1  0  0  0  0
  4  3  1  0  0  0  0
  5  6  1  0  0  0  0
  6 16  1  6  0  0  0
  6 27  1  0  0  0  0
  6  1  1  0  0  0  0
 10  3  1  0  0  0  0
 12  4  1  0  0  0  0
 13  4  1  0  0  0  0
 14  5  1  0  0  0  0
 15  5  1  0  0  0  0
 17 22  1  0  0  0  0
 17 23  1  0  0  0  0
 18 17  2  0  0  0  0
 19 20  2  0  0  0  0
 19 18  1  0  0  0  0
 20 21  1  0  0  0  0
 21 25  1  0  0  0  0
 21 22  2  0  0  0  0
 24 18  1  0  0  0  0
 26 32  1  0  0  0  0
 27 28  1  0  0  0  0
 27 26  2  0  0  0  0
 28 30  2  0  0  0  0
 29 28  1  0  0  0  0
 30 31  1  0  0  0  0
 32 31  2  0  0  0  0
 32 35  1  0  0  0  0
 33 26  1  0  0  0  0
 34 33  1  0  0  0  0
 35 36  1  0  0  0  0
M  END
>  <minimizedAffinity>
-5.0510869

$$$$

 OpenBabel03262523553D

 36 38  0  0  1  0  0  0  0  0999 V2000
   34.8340   29.6830   32.5010 C   0  0  1  0  0  0  0  0  0  0  0  0
   36.1470   30.0100   31.9320 C   0  0  0  0  0  0  0  0  0  0  0  0
   36.9540   28.7510   31.7800 C   0  0  0  0  0  0  0  0  0  0  0  0
   36.7740   27.8630   32.9550 C   0  0  0  0  0  0  0  0  0  0  0  0
   36.2180   28.4740   34.1840 C   0  0  0  0  0  0  0  0  0  0  0  0
   34.9690   29.2610   33.9260 C   0  0  1  0  0  0  0  0  0  0  0  0
   34.4570   28.8160   31.8560 H   0  0  0  0  0  0  0  0  0  0  0  0
   36.7410   30.8060   32.3540 H   0  0  0  0  0  0  0  0  0  0  0  0
   35.9590   30.3500   30.8630 H   0  0  0  0  0  0  0  0  0  0  0  0
   38.0340   29.0760   31.7060 H   0  0  0  0  0  0  0  0  0  0  0  0
   36.6860   28.2290   30.8320 H   0  0  0  0  0  0  0  0  0  0  0  0
   37.7090   27.3180   33.1580 H   0  0  0  0  0  0  0  0  0  0  0  0
   36.0460   27.0540   32.6470 H   0  0  0  0  0  0  0  0  0  0  0  0
   36.0360   27.6550   34.9150 H   0  0  0  0  0  0  0  0  0  0  0  0
   36.9590   29.1740   34.6760 H   0  0  0  0  0  0  0  0  0  0  0  0
   34.1590   28.4590   34.0180 H   0  0  0  0  0  0  0  0  0  0  0  0
   33.1920   32.9780   32.1830 C   0  0  0  0  0  0  0  0  0  0  0  0
   34.2230   31.9960   32.2550 C   0  0  0  0  0  0  0  0  0  0  0  0
   33.7970   30.6820   32.3910 C   0  0  0  0  0  0  0  0  0  0  0  0
   32.4470   30.4080   32.4490 N   0  0  0  0  0  0  0  0  0  0  0  0
   31.5060   31.3510   32.3800 C   0  0  0  0  0  0  0  0  0  0  0  0
   31.8760   32.6530   32.2450 N   0  0  0  0  0  0  0  0  0  0  0  0
   33.3440   34.0450   32.0760 H   0  0  0  0  0  0  0  0  0  0  0  0
   35.1980   32.4330   32.2150 H   0  0  0  0  0  0  0  0  0  0  0  0
   30.5160   30.9340   32.4440 H   0  0  0  0  0  0  0  0  0  0  0  0
   33.4730   30.3630   35.6930 C   0  0  0  0  0  0  0  0  0  0  0  0
   34.6810   30.2350   34.9840 C   0  0  0  0  0  0  0  0  0  0  0  0
   35.5770   31.1970   35.4240 C   0  0  0  0  0  0  0  0  0  0  0  0
   36.5680   31.2620   34.9990 H   0  0  0  0  0  0  0  0  0  0  0  0
   35.3370   32.1410   36.4010 C   0  0  0  0  0  3  0  0  0  0  0  0
   34.1280   32.1640   37.0140 C   0  0  0  0  0  3  0  0  0  0  0  0
   33.1800   31.2630   36.6580 C   0  0  0  0  0  0  0  0  0  0  0  0
   32.4520   29.4460   35.3630 O   0  0  0  0  0  0  0  0  0  0  0  0
   32.4140   28.5270   35.8260 H   0  0  0  0  0  0  0  0  0  0  0  0
   31.9390   31.2810   37.2810 O   0  0  0  0  0  0  0  0  0  0  0  0
   31.3880   32.1230   37.1740 H   0  0  0  0  0  0  0  0  0  0  0  0
  1  7  1  6  0  0  0
  1  6  1  0  0  0  0
  2  8  1  0  0  0  0
  2  1  1  0  0  0  0
  3  2  1  0  0  0  0
  3  4  1  0  0  0  0
  4 12  1  0  0  0  0
  4  5  1  0  0  0  0
  5 15  1  0  0  0  0
  5 14  1  0  0  0  0
  6 16  1  1  0  0  0
  6  5  1  0  0  0  0
  6 27  1  0  0  0  0
  9  2  1  0  0  0  0
 10  3  1  0  0  0  0
 11  3  1  0  0  0  0
 13  4  1  0  0  0  0
 17 22  2  0  0  0  0
 17 18  1  0  0  0  0
 18 19  2  0  0  0  0
 19 20  1  0  0  0  0
 19  1  1  0  0  0  0
 21 25  1  0  0  0  0
 21 20  2  0  0  0  0
 22 21  1  0  0  0  0
 23 17  1  0  0  0  0
 24 18  1  0  0  0  0
 26 32  1  0  0  0  0
 27 28  1  0  0  0  0
 27 26  2  0  0  0  0
 28 30  2  0  0  0  0
 29 28  1  0  0  0  0
 30 31  1  0  0  0  0
 32 31  2  0  0  0  0
 32 35  1  0  0  0  0
 33 26  1  0  0  0  0
 33 34  1  0  0  0  0
 36 35  1  0  0  0  0
M  END
>  <minimizedAffinity>
-4.97464561

$$$$

 OpenBabel03262523553D

 36 38  0  0  1  0  0  0  0  0999 V2000
   38.8940   24.8010   36.1620 C   0  0  1  0  0  0  0  0  0  0  0  0
   37.6500   24.4630   36.8620 C   0  0  0  0  0  0  0  0  0  0  0  0
   37.9630   24.0890   38.2840 C   0  0  0  0  0  0  0  0  0  0  0  0
   39.1900   23.2550   38.3530 C   0  0  0  0  0  0  0  0  0  0  0  0
   39.6430   22.6160   37.0970 C   0  0  0  0  0  0  0  0  0  0  0  0
   39.7290   23.5820   35.9540 C   0  0  1  0  0  0  0  0  0  0  0  0
   39.4200   25.5370   36.8620 H   0  0  0  0  0  0  0  0  0  0  0  0
   36.9460   23.7730   36.4230 H   0  0  0  0  0  0  0  0  0  0  0  0
   37.0600   25.4300   36.9540 H   0  0  0  0  0  0  0  0  0  0  0  0
   37.0750   23.4970   38.6570 H   0  0  0  0  0  0  0  0  0  0  0  0
   38.0580   25.0020   38.9160 H   0  0  0  0  0  0  0  0  0  0  0  0
   39.0990   22.5250   39.1730 H   0  0  0  0  0  0  0  0  0  0  0  0
   40.0300   23.9350   38.6830 H   0  0  0  0  0  0  0  0  0  0  0  0
   40.6280   22.1390   37.2980 H   0  0  0  0  0  0  0  0  0  0  0  0
   38.9490   21.7800   36.7780 H   0  0  0  0  0  0  0  0  0  0  0  0
   40.7900   23.9930   36.0690 H   0  0  0  0  0  0  0  0  0  0  0  0
   39.6750   27.1190   33.3910 C   0  0  0  0  0  0  0  0  0  0  0  0
   39.8170   26.3880   34.6070 C   0  0  0  0  0  0  0  0  0  0  0  0
   38.7770   25.5210   34.9150 C   0  0  0  0  0  0  0  0  0  0  0  0
   37.7010   25.4190   34.0590 N   0  0  0  0  0  0  0  0  0  0  0  0
   37.5980   26.1190   32.9280 C   0  0  0  0  0  0  0  0  0  0  0  0
   38.5930   26.9810   32.5840 N   0  0  0  0  0  0  0  0  0  0  0  0
   40.3870   27.8350   33.0000 H   0  0  0  0  0  0  0  0  0  0  0  0
   40.7170   26.6400   35.1260 H   0  0  0  0  0  0  0  0  0  0  0  0
   36.6850   25.8990   32.4020 H   0  0  0  0  0  0  0  0  0  0  0  0
   38.6950   22.0630   34.1650 C   0  0  0  0  0  0  0  0  0  0  0  0
   39.7030   22.9180   34.6460 C   0  0  0  0  0  0  0  0  0  0  0  0
   40.7030   23.0310   33.6920 C   0  0  0  0  0  0  0  0  0  0  0  0
   41.5700   23.6490   33.8750 H   0  0  0  0  0  0  0  0  0  0  0  0
   40.7240   22.4090   32.4620 C   0  0  0  0  0  3  0  0  0  0  0  0
   39.6890   21.6040   32.1120 C   0  0  0  0  0  3  0  0  0  0  0  0
   38.6580   21.4260   32.9730 C   0  0  0  0  0  0  0  0  0  0  0  0
   37.5950   21.8460   35.0230 O   0  0  0  0  0  0  0  0  0  0  0  0
   36.7960   22.4950   35.0120 H   0  0  0  0  0  0  0  0  0  0  0  0
   37.5960   20.6040   32.6220 O   0  0  0  0  0  0  0  0  0  0  0  0
   37.8120   19.6300   32.4500 H   0  0  0  0  0  0  0  0  0  0  0  0
  1  2  1  0  0  0  0
  1  7  1  1  0  0  0
  2  9  1  0  0  0  0
  2  3  1  0  0  0  0
  3  4  1  0  0  0  0
  3 10  1  0  0  0  0
  3 11  1  0  0  0  0
  4 13  1  0  0  0  0
  4 12  1  0  0  0  0
  5 14  1  0  0  0  0
  5  4  1  0  0  0  0
  6 16  1  1  0  0  0
  6  1  1  0  0  0  0
  6  5  1  0  0  0  0
  8  2  1  0  0  0  0
 15  5  1  0  0  0  0
 17 18  1  0  0  0  0
 18 19  2  0  0  0  0
 18 24  1  0  0  0  0
 19  1  1  0  0  0  0
 20 19  1  0  0  0  0
 21 20  2  0  0  0  0
 22 21  1  0  0  0  0
 22 17  2  0  0  0  0
 23 17  1  0  0  0  0
 25 21  1  0  0  0  0
 26 27  1  0  0  0  0
 26 33  1  0  0  0  0
 27  6  1  0  0  0  0
 28 29  1  0  0  0  0
 28 27  2  0  0  0  0
 30 28  1  0  0  0  0
 31 30  2  0  0  0  0
 31 32  1  0  0  0  0
 32 26  2  0  0  0  0
 34 33  1  0  0  0  0
 35 32  1  0  0  0  0
 36 35  1  0  0  0  0
M  END
>  <minimizedAffinity>
-4.88130808

$$$$

 OpenBabel03262523553D

 36 38  0  0  1  0  0  0  0  0999 V2000
   38.4400   23.3730   35.9420 C   0  0  1  0  0  0  0  0  0  0  0  0
   39.3890   23.0350   37.0080 C   0  0  0  0  0  0  0  0  0  0  0  0
   38.7320   23.2360   38.3450 C   0  0  0  0  0  0  0  0  0  0  0  0
   37.9080   24.4720   38.3480 C   0  0  0  0  0  0  0  0  0  0  0  0
   38.1690   25.4590   37.2770 C   0  0  0  0  0  0  0  0  0  0  0  0
   38.1840   24.8430   35.9110 C   0  0  1  0  0  0  0  0  0  0  0  0
   37.4880   22.8030   36.2210 H   0  0  0  0  0  0  0  0  0  0  0  0
   40.3880   23.4440   37.0000 H   0  0  0  0  0  0  0  0  0  0  0  0
   39.5550   21.9120   36.9470 H   0  0  0  0  0  0  0  0  0  0  0  0
   39.5700   23.3320   39.0970 H   0  0  0  0  0  0  0  0  0  0  0  0
   38.1230   22.3420   38.6190 H   0  0  0  0  0  0  0  0  0  0  0  0
   37.9350   24.9350   39.3470 H   0  0  0  0  0  0  0  0  0  0  0  0
   36.8320   24.1480   38.2250 H   0  0  0  0  0  0  0  0  0  0  0  0
   37.3930   26.2530   37.3540 H   0  0  0  0  0  0  0  0  0  0  0  0
   39.1640   25.9800   37.4210 H   0  0  0  0  0  0  0  0  0  0  0  0
   37.0800   24.8900   35.6170 H   0  0  0  0  0  0  0  0  0  0  0  0
   40.3770   22.1580   33.0390 C   0  0  0  0  0  0  0  0  0  0  0  0
   40.0760   22.5790   34.3670 C   0  0  0  0  0  0  0  0  0  0  0  0
   38.7500   22.9120   34.6080 C   0  0  0  0  0  0  0  0  0  0  0  0
   37.8290   22.8220   33.5860 N   0  0  0  0  0  0  0  0  0  0  0  0
   38.1450   22.4250   32.3520 C   0  0  0  0  0  0  0  0  0  0  0  0
   39.4310   22.0880   32.0680 N   0  0  0  0  0  0  0  0  0  0  0  0
   41.3550   21.8630   32.6780 H   0  0  0  0  0  0  0  0  0  0  0  0
   40.9440   22.5980   34.9910 H   0  0  0  0  0  0  0  0  0  0  0  0
   37.2880   22.4220   31.7000 H   0  0  0  0  0  0  0  0  0  0  0  0
   38.3690   26.1390   33.7060 C   0  0  0  0  0  0  0  0  0  0  0  0
   38.8910   25.6660   34.9240 C   0  0  0  0  0  0  0  0  0  0  0  0
   40.2080   26.0810   35.0510 C   0  0  0  0  0  0  0  0  0  0  0  0
   40.7850   25.8160   35.9250 H   0  0  0  0  0  0  0  0  0  0  0  0
   40.9120   26.8360   34.1380 C   0  0  0  0  0  3  0  0  0  0  0  0
   40.2960   27.2340   32.9960 C   0  0  0  0  0  3  0  0  0  0  0  0
   39.0060   26.8820   32.7740 C   0  0  0  0  0  0  0  0  0  0  0  0
   37.0260   25.8040   33.4270 O   0  0  0  0  0  0  0  0  0  0  0  0
   36.2620   26.4000   33.7760 H   0  0  0  0  0  0  0  0  0  0  0  0
   38.3700   27.2850   31.6070 O   0  0  0  0  0  0  0  0  0  0  0  0
   38.7640   26.9530   30.7360 H   0  0  0  0  0  0  0  0  0  0  0  0
  1  7  1  1  0  0  0
  1  2  1  0  0  0  0
  2  3  1  0  0  0  0
  3  4  1  0  0  0  0
  3 11  1  0  0  0  0
  3 10  1  0  0  0  0
  4 12  1  0  0  0  0
  5 14  1  0  0  0  0
  5 15  1  0  0  0  0
  5  4  1  0  0  0  0
  6 16  1  6  0  0  0
  6  1  1  0  0  0  0
  6  5  1  0  0  0  0
  8  2  1  0  0  0  0
  9  2  1  0  0  0  0
 13  4  1  0  0  0  0
 17 18  1  0  0  0  0
 18 19  2  0  0  0  0
 18 24  1  0  0  0  0
 19  1  1  0  0  0  0
 20 19  1  0  0  0  0
 21 20  2  0  0  0  0
 22 21  1  0  0  0  0
 22 17  2  0  0  0  0
 23 17  1  0  0  0  0
 25 21  1  0  0  0  0
 26 27  1  0  0  0  0
 27 28  2  0  0  0  0
 27  6  1  0  0  0  0
 28 29  1  0  0  0  0
 30 28  1  0  0  0  0
 31 30  2  0  0  0  0
 32 31  1  0  0  0  0
 32 26  2  0  0  0  0
 33 26  1  0  0  0  0
 33 34  1  0  0  0  0
 35 32  1  0  0  0  0
 36 35  1  0  0  0  0
M  END
>  <minimizedAffinity>
-4.8803196

$$$$

 OpenBabel03262523553D

 36 38  0  0  1  0  0  0  0  0999 V2000
   41.1330   24.5510   35.2280 C   0  0  1  0  0  0  0  0  0  0  0  0
   41.9780   23.9010   34.2200 C   0  0  0  0  0  0  0  0  0  0  0  0
   43.3680   24.4700   34.2900 C   0  0  0  0  0  0  0  0  0  0  0  0
   43.3270   25.9400   34.4940 C   0  0  0  0  0  0  0  0  0  0  0  0
   42.0490   26.6270   34.1980 C   0  0  0  0  0  0  0  0  0  0  0  0
   40.8730   25.9730   34.8590 C   0  0  1  0  0  0  0  0  0  0  0  0
   41.7460   24.4880   36.1910 H   0  0  0  0  0  0  0  0  0  0  0  0
   41.6430   23.8170   33.1970 H   0  0  0  0  0  0  0  0  0  0  0  0
   42.1040   22.8210   34.5530 H   0  0  0  0  0  0  0  0  0  0  0  0
   43.8560   24.2330   33.2990 H   0  0  0  0  0  0  0  0  0  0  0  0
   43.9550   23.9650   35.0930 H   0  0  0  0  0  0  0  0  0  0  0  0
   44.1740   26.4120   33.9750 H   0  0  0  0  0  0  0  0  0  0  0  0
   43.5390   26.1240   35.5890 H   0  0  0  0  0  0  0  0  0  0  0  0
   42.1540   27.6870   34.5190 H   0  0  0  0  0  0  0  0  0  0  0  0
   41.8370   26.6550   33.0870 H   0  0  0  0  0  0  0  0  0  0  0  0
   40.8560   26.4880   35.8790 H   0  0  0  0  0  0  0  0  0  0  0  0
   38.2930   22.1880   35.1120 C   0  0  0  0  0  0  0  0  0  0  0  0
   39.5440   22.7960   34.7980 C   0  0  0  0  0  0  0  0  0  0  0  0
   39.8840   23.9050   35.5610 C   0  0  0  0  0  0  0  0  0  0  0  0
   39.0230   24.3430   36.5450 N   0  0  0  0  0  0  0  0  0  0  0  0
   37.8580   23.7510   36.8130 C   0  0  0  0  0  0  0  0  0  0  0  0
   37.4830   22.6610   36.0920 N   0  0  0  0  0  0  0  0  0  0  0  0
   37.8750   21.3190   34.6200 H   0  0  0  0  0  0  0  0  0  0  0  0
   40.0370   22.3080   33.9840 H   0  0  0  0  0  0  0  0  0  0  0  0
   37.3340   24.2430   37.6140 H   0  0  0  0  0  0  0  0  0  0  0  0
   38.5690   27.0960   34.7820 C   0  0  0  0  0  0  0  0  0  0  0  0
   39.5980   26.3190   34.2200 C   0  0  0  0  0  0  0  0  0  0  0  0
   39.2180   25.8990   32.9550 C   0  0  0  0  0  0  0  0  0  0  0  0
   39.8780   25.2870   32.3570 H   0  0  0  0  0  0  0  0  0  0  0  0
   38.0230   26.1860   32.3310 C   0  0  0  0  0  3  0  0  0  0  0  0
   37.1070   26.9490   32.9780 C   0  0  0  0  0  3  0  0  0  0  0  0
   37.3800   27.4120   34.2220 C   0  0  0  0  0  0  0  0  0  0  0  0
   38.8040   27.6070   36.0770 O   0  0  0  0  0  0  0  0  0  0  0  0
   39.2970   28.5030   36.1970 H   0  0  0  0  0  0  0  0  0  0  0  0
   36.4460   28.1920   34.8910 O   0  0  0  0  0  0  0  0  0  0  0  0
   35.5520   27.7630   35.0880 H   0  0  0  0  0  0  0  0  0  0  0  0
  1 19  1  0  0  0  0
  1  7  1  1  0  0  0
  2  3  1  0  0  0  0
  2  9  1  0  0  0  0
  2  1  1  0  0  0  0
  3  4  1  0  0  0  0
  3 11  1  0  0  0  0
  4 13  1  0  0  0  0
  5  4  1  0  0  0  0
  5 14  1  0  0  0  0
  5  6  1  0  0  0  0
  6  1  1  0  0  0  0
  6 16  1  1  0  0  0
  8  2  1  0  0  0  0
 10  3  1  0  0  0  0
 12  4  1  0  0  0  0
 15  5  1  0  0  0  0
 17 22  1  0  0  0  0
 18 17  2  0  0  0  0
 18 19  1  0  0  0  0
 19 20  2  0  0  0  0
 20 21  1  0  0  0  0
 21 25  1  0  0  0  0
 22 21  2  0  0  0  0
 23 17  1  0  0  0  0
 24 18  1  0  0  0  0
 26 33  1  0  0  0  0
 27 26  2  0  0  0  0
 27  6  1  0  0  0  0
 28 27  1  0  0  0  0
 29 28  1  0  0  0  0
 30 28  2  0  0  0  0
 30 31  1  0  0  0  0
 31 32  2  0  0  0  0
 32 26  1  0  0  0  0
 32 35  1  0  0  0  0
 33 34  1  0  0  0  0
 35 36  1  0  0  0  0
M  END
>  <minimizedAffinity>
-4.8720355

$$$$

 OpenBabel03262523553D

 36 38  0  0  1  0  0  0  0  0999 V2000
   38.7290   22.0030   34.3790 C   0  0  1  0  0  0  0  0  0  0  0  0
   37.3930   21.7100   33.8490 C   0  0  0  0  0  0  0  0  0  0  0  0
   37.5200   20.8890   32.5970 C   0  0  0  0  0  0  0  0  0  0  0  0
   38.6410   21.3780   31.7560 C   0  0  0  0  0  0  0  0  0  0  0  0
   39.1500   22.7400   32.0360 C   0  0  0  0  0  0  0  0  0  0  0  0
   39.4510   22.9580   33.4880 C   0  0  1  0  0  0  0  0  0  0  0  0
   39.2550   20.9870   34.3930 H   0  0  0  0  0  0  0  0  0  0  0  0
   36.6690   22.5020   33.7250 H   0  0  0  0  0  0  0  0  0  0  0  0
   36.8980   21.0070   34.5930 H   0  0  0  0  0  0  0  0  0  0  0  0
   36.5430   21.0070   32.0420 H   0  0  0  0  0  0  0  0  0  0  0  0
   37.6440   19.8100   32.8500 H   0  0  0  0  0  0  0  0  0  0  0  0
   38.3930   21.2460   30.6910 H   0  0  0  0  0  0  0  0  0  0  0  0
   39.5090   20.6740   31.9250 H   0  0  0  0  0  0  0  0  0  0  0  0
   40.0560   22.8960   31.4080 H   0  0  0  0  0  0  0  0  0  0  0  0
   38.4100   23.5370   31.7230 H   0  0  0  0  0  0  0  0  0  0  0  0
   40.5310   22.5910   33.5660 H   0  0  0  0  0  0  0  0  0  0  0  0
   40.0600   22.6210   37.7710 C   0  0  0  0  0  0  0  0  0  0  0  0
   40.0010   22.1930   36.4130 C   0  0  0  0  0  0  0  0  0  0  0  0
   38.8140   22.4640   35.7460 C   0  0  0  0  0  0  0  0  0  0  0  0
   37.7920   23.1080   36.4110 N   0  0  0  0  0  0  0  0  0  0  0  0
   37.8800   23.4950   37.6850 C   0  0  0  0  0  0  0  0  0  0  0  0
   39.0240   23.2520   38.3780 N   0  0  0  0  0  0  0  0  0  0  0  0
   40.9060   22.4920   38.4350 H   0  0  0  0  0  0  0  0  0  0  0  0
   40.8960   21.6930   36.1070 H   0  0  0  0  0  0  0  0  0  0  0  0
   36.9780   23.9780   38.0190 H   0  0  0  0  0  0  0  0  0  0  0  0
   38.4540   25.3130   33.6730 C   0  0  0  0  0  0  0  0  0  0  0  0
   39.4890   24.3780   33.8530 C   0  0  0  0  0  0  0  0  0  0  0  0
   40.5860   25.0110   34.4190 C   0  0  0  0  0  0  0  0  0  0  0  0
   41.4880   24.4570   34.6370 H   0  0  0  0  0  0  0  0  0  0  0  0
   40.6660   26.3450   34.7570 C   0  0  0  0  0  3  0  0  0  0  0  0
   39.5970   27.1480   34.5340 C   0  0  0  0  0  3  0  0  0  0  0  0
   38.4720   26.6290   33.9840 C   0  0  0  0  0  0  0  0  0  0  0  0
   37.2580   24.8220   33.1070 O   0  0  0  0  0  0  0  0  0  0  0  0
   36.5320   24.4090   33.7090 H   0  0  0  0  0  0  0  0  0  0  0  0
   37.3740   27.4450   33.7520 O   0  0  0  0  0  0  0  0  0  0  0  0
   37.5070   28.2160   33.1100 H   0  0  0  0  0  0  0  0  0  0  0  0
  1  7  1  6  0  0  0
  1 19  1  0  0  0  0
  2  1  1  0  0  0  0
  2  9  1  0  0  0  0
  3 11  1  0  0  0  0
  3  2  1  0  0  0  0
  4 13  1  0  0  0  0
  4  5  1  0  0  0  0
  4  3  1  0  0  0  0
  5  6  1  0  0  0  0
  6 16  1  1  0  0  0
  6 27  1  0  0  0  0
  6  1  1  0  0  0  0
  8  2  1  0  0  0  0
 10  3  1  0  0  0  0
 12  4  1  0  0  0  0
 14  5  1  0  0  0  0
 15  5  1  0  0  0  0
 17 22  1  0  0  0  0
 17 23  1  0  0  0  0
 18 17  2  0  0  0  0
 19 20  2  0  0  0  0
 19 18  1  0  0  0  0
 20 21  1  0  0  0  0
 21 25  1  0  0  0  0
 21 22  2  0  0  0  0
 24 18  1  0  0  0  0
 26 27  2  0  0  0  0
 26 32  1  0  0  0  0
 27 28  1  0  0  0  0
 28 29  1  0  0  0  0
 28 30  2  0  0  0  0
 31 30  1  0  0  0  0
 32 31  2  0  0  0  0
 33 26  1  0  0  0  0
 33 34  1  0  0  0  0
 35 32  1  0  0  0  0
 36 35  1  0  0  0  0
M  END
>  <minimizedAffinity>
-4.87025023

$$$$
