
 OpenBabel03272505523D

 46 49  0  0  1  0  0  0  0  0999 V2000
   37.1720   29.2170   50.3920 C   0  0  0  0  0  0  0  0  0  0  0  0
   37.3070   30.5800   50.7520 C   0  0  0  0  0  0  0  0  0  0  0  0
   36.5360   31.4960   50.0480 C   0  0  0  0  0  0  0  0  0  0  0  0
   35.7090   31.0370   49.0690 N   0  0  0  0  0  0  0  0  0  0  0  0
   35.6130   29.7460   48.7630 C   0  0  0  0  0  0  0  0  0  0  0  0
   36.3430   28.8360   49.4220 N   0  0  0  0  0  0  0  0  0  0  0  0
   34.7330   29.3290   47.7340 N   0  0  0  0  0  0  0  0  0  0  0  0
   34.1250   28.0110   47.7410 C   0  0  0  0  0  0  0  0  0  0  0  0
   32.6410   28.1220   47.6020 C   0  0  0  0  0  0  0  0  0  0  0  0
   32.1510   29.3490   47.2050 N   0  0  0  0  0  0  0  0  0  0  0  0
   32.9580   30.2730   46.4510 C   0  0  0  0  0  0  0  0  0  0  0  0
   34.3960   30.1990   46.6250 C   0  0  2  0  0  0  0  0  0  0  0  0
   37.7220   28.3940   50.8670 H   0  0  0  0  0  0  0  0  0  0  0  0
   37.9900   30.8080   51.5370 H   0  0  0  0  0  0  0  0  0  0  0  0
   36.6240   32.5340   50.3070 H   0  0  0  0  0  0  0  0  0  0  0  0
   34.6250   27.2690   47.1280 H   0  0  0  0  0  0  0  0  0  0  0  0
   34.2920   27.6240   48.8040 H   0  0  0  0  0  0  0  0  0  0  0  0
   32.0860   27.7740   48.4980 H   0  0  0  0  0  0  0  0  0  0  0  0
   32.3590   27.3600   46.8160 H   0  0  0  0  0  0  0  0  0  0  0  0
   31.2820   29.7240   47.5940 H   0  0  0  0  0  0  0  0  0  0  0  0
   32.6420   31.2740   46.9120 H   0  0  0  0  0  0  0  0  0  0  0  0
   32.4860   30.3330   45.4860 H   0  0  0  0  0  0  0  0  0  0  0  0
   34.8640   31.2050   46.8530 H   0  0  0  0  0  0  0  0  0  0  0  0
   35.1240   29.7040   45.4640 N   0  0  2  0  0  0  0  0  0  0  0  0
   36.4640   30.2950   45.3970 C   0  0  0  0  0  0  0  0  0  0  0  0
   36.7760   30.5190   43.9280 C   0  0  0  0  0  0  0  0  0  0  0  0
   35.6500   29.8430   43.2430 C   0  0  0  0  0  0  0  0  0  0  0  0
   34.4830   29.9950   44.2390 C   0  0  1  0  0  0  0  0  0  0  0  0
   36.4040   31.2770   45.9100 H   0  0  0  0  0  0  0  0  0  0  0  0
   37.2100   29.6550   45.8850 H   0  0  0  0  0  0  0  0  0  0  0  0
   37.7810   30.1270   43.6760 H   0  0  0  0  0  0  0  0  0  0  0  0
   36.7920   31.6050   43.6840 H   0  0  0  0  0  0  0  0  0  0  0  0
   35.3760   30.2800   42.2630 H   0  0  0  0  0  0  0  0  0  0  0  0
   35.8640   28.7520   43.1700 H   0  0  0  0  0  0  0  0  0  0  0  0
   34.2440   31.0550   44.0530 H   0  0  0  0  0  0  0  0  0  0  0  0
   33.6580   27.6630   43.8590 C   0  0  0  0  0  0  0  0  0  0  0  0
   33.5200   29.0380   43.7070 C   0  0  0  0  0  0  0  0  0  0  0  0
   32.3720   29.3750   43.0280 C   0  0  0  0  0  0  0  0  0  0  0  0
   32.1400   30.4150   42.8540 H   0  0  0  0  0  0  0  0  0  0  0  0
   31.4380   28.4910   42.5350 C   0  0  0  0  0  3  0  0  0  0  0  0
   31.6370   27.1390   42.7210 C   0  0  0  0  0  3  0  0  0  0  0  0
   32.7660   26.7220   43.3940 C   0  0  0  0  0  0  0  0  0  0  0  0
   34.7510   27.1270   44.5190 O   0  0  0  0  0  0  0  0  0  0  0  0
   35.5010   26.7470   43.9830 H   0  0  0  0  0  0  0  0  0  0  0  0
   32.9270   25.3710   43.5580 O   0  0  0  0  0  0  0  0  0  0  0  0
   32.9780   24.8070   42.7180 H   0  0  0  0  0  0  0  0  0  0  0  0
  1  2  1  0  0  0  0
  1 13  1  0  0  0  0
  2 14  1  0  0  0  0
  3 15  1  0  0  0  0
  3  2  2  0  0  0  0
  4  3  1  0  0  0  0
  5  4  2  0  0  0  0
  5  6  1  0  0  0  0
  6  1  2  0  0  0  0
  7  8  1  0  0  0  0
  7  5  1  0  0  0  0
  8 17  1  0  0  0  0
  9  8  1  0  0  0  0
  9 18  1  0  0  0  0
 10 20  1  0  0  0  0
 10  9  1  0  0  0  0
 11 12  1  0  0  0  0
 11 21  1  0  0  0  0
 11 10  1  0  0  0  0
 12 23  1  1  0  0  0
 12  7  1  0  0  0  0
 16  8  1  0  0  0  0
 19  9  1  0  0  0  0
 22 11  1  0  0  0  0
 24 25  1  6  0  0  0
 24 12  1  0  0  0  0
 25 30  1  0  0  0  0
 25 29  1  0  0  0  0
 26 25  1  0  0  0  0
 27 26  1  0  0  0  0
 27 28  1  0  0  0  0
 28 35  1  6  0  0  0
 28 24  1  0  0  0  0
 31 26  1  0  0  0  0
 32 26  1  0  0  0  0
 33 27  1  0  0  0  0
 34 27  1  0  0  0  0
 36 43  1  0  0  0  0
 37 36  1  0  0  0  0
 37 28  1  0  0  0  0
 38 37  2  0  0  0  0
 39 38  1  0  0  0  0
 40 41  2  0  0  0  0
 40 38  1  0  0  0  0
 41 42  1  0  0  0  0
 42 45  1  0  0  0  0
 42 36  2  0  0  0  0
 44 43  1  0  0  0  0
 46 45  1  0  0  0  0
M  END
>  <minimizedAffinity>
-4.4659338

>  <minimizedRMSD>
0.882091343

$$$$
