
 OpenBabel03272505313D

 42 45  0  0  0  0  0  0  0  0999 V2000
   37.3940   31.2410   47.0480 N   0  0  0  0  0  0  0  0  0  0  0  0
   36.6840   31.0560   45.9040 C   0  0  0  0  0  0  0  0  0  0  0  0
   37.0880   31.5970   44.6870 C   0  0  0  0  0  0  0  0  0  0  0  0
   38.2680   32.3510   44.6750 C   0  0  0  0  0  0  0  0  0  0  0  0
   38.6730   32.8570   43.6070 O   0  0  0  0  0  0  0  0  0  0  0  0
   38.9820   32.5340   45.8360 N   0  0  0  0  0  0  0  0  0  0  0  0
   38.4910   31.9660   46.9310 C   0  0  0  0  0  0  0  0  0  0  0  0
   39.1730   32.1590   47.9650 O   0  0  0  0  0  0  0  0  0  0  0  0
   35.7730   30.4720   45.9180 H   0  0  0  0  0  0  0  0  0  0  0  0
   37.4510   29.5580   50.3520 C   0  0  0  0  0  0  0  0  0  0  0  0
   37.8710   30.1060   49.1360 C   0  0  0  0  0  0  0  0  0  0  0  0
   36.9800   30.6950   48.2580 C   0  0  0  0  0  0  0  0  0  0  0  0
   35.6930   30.7120   48.6350 N   0  0  0  0  0  0  0  0  0  0  0  0
   35.2440   30.1900   49.8090 C   0  0  0  0  0  0  0  0  0  0  0  0
   36.1530   29.6100   50.6640 N   0  0  0  0  0  0  0  0  0  0  0  0
   38.2100   29.1190   50.9760 H   0  0  0  0  0  0  0  0  0  0  0  0
   38.9250   30.0720   48.8670 H   0  0  0  0  0  0  0  0  0  0  0  0
   34.1850   30.2250   50.0780 H   0  0  0  0  0  0  0  0  0  0  0  0
   36.3610   31.4260   43.4390 C   0  0  0  0  0  0  0  0  0  0  0  0
   36.5110   30.3450   42.6190 C   0  0  0  0  0  0  0  0  0  0  0  0
   35.8340   30.1600   41.4310 C   0  0  0  0  0  0  0  0  0  0  0  0
   34.9240   31.1530   41.0380 C   0  0  0  0  0  0  0  0  0  0  0  0
   34.8010   32.2300   41.8950 C   0  0  0  0  0  0  0  0  0  0  0  0
   35.4930   32.3320   43.0230 N   0  0  0  0  0  0  0  0  0  0  0  0
   37.2060   29.5500   42.8830 H   0  0  0  0  0  0  0  0  0  0  0  0
   35.9910   29.2910   40.8260 H   0  0  0  0  0  0  0  0  0  0  0  0
   34.3990   31.0220   40.1280 H   0  0  0  0  0  0  0  0  0  0  0  0
   32.9360   33.7620   42.4660 C   0  0  0  0  0  0  0  0  0  0  0  0
   33.8770   33.3080   41.5610 C   0  0  0  0  0  0  0  0  0  0  0  0
   33.8330   33.9740   40.3550 C   0  0  0  0  0  0  0  0  0  0  0  0
   34.5300   33.6880   39.5830 H   0  0  0  0  0  0  0  0  0  0  0  0
   32.9400   34.9880   40.0830 C   0  0  0  0  0  0  0  0  0  0  0  0
   32.0300   35.3860   41.0410 C   0  0  0  0  0  0  0  0  0  0  0  0
   32.0150   34.7650   42.2730 C   0  0  0  0  0  0  0  0  0  0  0  0
   32.9090   33.1390   43.7280 O   0  0  0  0  0  0  0  0  0  0  0  0
   33.4890   33.6150   44.4340 H   0  0  0  0  0  0  0  0  0  0  0  0
   31.1230   35.1220   43.2750 O   0  0  0  0  0  0  0  0  0  0  0  0
   31.0300   36.1210   43.4710 H   0  0  0  0  0  0  0  0  0  0  0  0
   40.1940   33.3110   45.8120 C   0  0  0  0  0  0  0  0  0  0  0  0
   40.1520   34.2420   44.8310 F   0  0  0  0  0  0  0  0  0  0  0  0
   41.3270   32.5510   45.5810 F   0  0  0  0  0  0  0  0  0  0  0  0
   40.3160   33.9770   47.0370 F   0  0  0  0  0  0  0  0  0  0  0  0
  1 12  1  0  0  0  0
  2  9  1  0  0  0  0
  2  1  1  0  0  0  0
  3  2  2  0  0  0  0
  4  3  1  0  0  0  0
  4  6  1  0  0  0  0
  5  4  2  0  0  0  0
  6  7  1  0  0  0  0
  7  1  1  0  0  0  0
  7  8  2  0  0  0  0
 10 15  1  0  0  0  0
 10 16  1  0  0  0  0
 11 10  2  0  0  0  0
 12 13  2  0  0  0  0
 12 11  1  0  0  0  0
 13 14  1  0  0  0  0
 14 18  1  0  0  0  0
 14 15  2  0  0  0  0
 17 11  1  0  0  0  0
 19  3  1  0  0  0  0
 20 25  1  0  0  0  0
 20 19  2  0  0  0  0
 21 20  1  0  0  0  0
 22 21  2  0  0  0  0
 22 23  1  0  0  0  0
 23 24  2  0  0  0  0
 24 19  1  0  0  0  0
 26 21  1  0  0  0  0
 27 22  1  0  0  0  0
 28 35  1  0  0  0  0
 29 23  1  0  0  0  0
 29 28  2  0  0  0  0
 30 29  1  0  0  0  0
 31 30  1  0  0  0  0
 32 30  2  0  0  0  0
 32 33  1  0  0  0  0
 33 34  2  0  0  0  0
 34 28  1  0  0  0  0
 34 37  1  0  0  0  0
 35 36  1  0  0  0  0
 37 38  1  0  0  0  0
 39  6  1  0  0  0  0
 39 42  1  0  0  0  0
 40 39  1  0  0  0  0
 41 39  1  0  0  0  0
M  END
>  <minimizedAffinity>
-7.27720022

>  <minimizedRMSD>
1.53742588

$$$$
