
 OpenBabel03272508283D

 40 43  0  0  1  0  0  0  0  0999 V2000
   33.9710   29.0140   47.3350 C   0  0  2  0  0  0  0  0  0  0  0  0
   34.7330   28.2380   48.4030 C   0  0  2  0  0  0  0  0  0  0  0  0
   33.8350   28.0450   49.4180 O   0  0  0  0  0  0  0  0  0  0  0  0
   32.5570   28.1030   48.9540 C   0  0  0  0  0  0  0  0  0  0  0  0
   32.6110   28.3170   47.4550 C   0  0  1  0  0  0  0  0  0  0  0  0
   33.8430   30.0730   47.5970 H   0  0  0  0  0  0  0  0  0  0  0  0
   35.0290   27.2750   47.9650 H   0  0  0  0  0  0  0  0  0  0  0  0
   32.0450   27.1320   49.1270 H   0  0  0  0  0  0  0  0  0  0  0  0
   31.9620   28.9510   49.3680 H   0  0  0  0  0  0  0  0  0  0  0  0
   32.6570   27.3340   46.9630 H   0  0  0  0  0  0  0  0  0  0  0  0
   35.7820   30.5190   49.0370 C   0  0  1  0  0  0  0  0  0  0  0  0
   35.8840   29.0940   48.8280 C   0  0  1  0  0  0  0  0  0  0  0  0
   36.0210   29.5830   50.2320 C   0  0  0  0  0  0  0  0  0  0  0  0
   34.8730   31.1280   49.1960 H   0  0  0  0  0  0  0  0  0  0  0  0
   36.8500   28.7450   48.3600 H   0  0  0  0  0  0  0  0  0  0  0  0
   37.0350   29.5770   50.7020 H   0  0  0  0  0  0  0  0  0  0  0  0
   35.2260   29.4610   50.9640 H   0  0  0  0  0  0  0  0  0  0  0  0
   36.9740   31.4310   48.7940 C   0  0  0  0  0  0  0  0  0  0  0  0
   37.1720   32.4840   49.6920 C   0  0  0  0  0  0  0  0  0  0  0  0
   38.2540   33.2970   49.4240 C   0  0  0  0  0  0  0  0  0  0  0  0
   39.0620   33.0610   48.3390 N   0  0  0  0  0  0  0  0  0  0  0  0
   38.8330   32.0280   47.4940 C   0  0  0  0  0  0  0  0  0  0  0  0
   37.7780   31.2050   47.7230 N   0  0  0  0  0  0  0  0  0  0  0  0
   36.5010   32.6150   50.5250 H   0  0  0  0  0  0  0  0  0  0  0  0
   38.4450   34.1280   50.1000 H   0  0  0  0  0  0  0  0  0  0  0  0
   39.4950   31.8800   46.6510 H   0  0  0  0  0  0  0  0  0  0  0  0
   34.4930   28.8830   46.0680 O   0  0  0  0  0  0  0  0  0  0  0  0
   34.4820   27.9620   45.7490 H   0  0  0  0  0  0  0  0  0  0  0  0
   31.5960   29.0850   46.9690 O   0  0  0  0  0  0  0  0  0  0  0  0
   31.1260   29.4190   44.7630 C   0  0  0  0  0  0  0  0  0  0  0  0
   30.7680   28.7510   45.9410 C   0  0  0  0  0  0  0  0  0  0  0  0
   29.6860   27.9030   45.8680 C   0  0  0  0  0  0  0  0  0  0  0  0
   29.4710   27.4270   46.8060 H   0  0  0  0  0  0  0  0  0  0  0  0
   28.9900   27.7180   44.7030 C   0  0  0  0  0  3  0  0  0  0  0  0
   29.3420   28.3750   43.5460 C   0  0  0  0  0  3  0  0  0  0  0  0
   30.4220   29.2340   43.5790 C   0  0  0  0  0  0  0  0  0  0  0  0
   32.1830   30.3120   44.6290 O   0  0  0  0  0  0  0  0  0  0  0  0
   32.0430   31.2690   44.9380 H   0  0  0  0  0  0  0  0  0  0  0  0
   30.7280   29.8640   42.3910 O   0  0  0  0  0  0  0  0  0  0  0  0
   31.6910   30.0100   42.0690 H   0  0  0  0  0  0  0  0  0  0  0  0
  1  5  1  0  0  0  0
  1  6  1  1  0  0  0
  1  2  1  0  0  0  0
  2  7  1  6  0  0  0
  2 12  1  0  0  0  0
  2  3  1  0  0  0  0
  4  8  1  0  0  0  0
  4  9  1  0  0  0  0
  4  3  1  0  0  0  0
  5 10  1  6  0  0  0
  5  4  1  0  0  0  0
 11 14  1  6  0  0  0
 11 13  1  0  0  0  0
 12 15  1  6  0  0  0
 12 11  1  0  0  0  0
 12 13  1  0  0  0  0
 13 16  1  0  0  0  0
 13 17  1  0  0  0  0
 18 11  1  0  0  0  0
 18 19  1  0  0  0  0
 19 24  1  0  0  0  0
 20 19  2  0  0  0  0
 20 25  1  0  0  0  0
 21 20  1  0  0  0  0
 22 23  1  0  0  0  0
 22 21  2  0  0  0  0
 23 18  2  0  0  0  0
 26 22  1  0  0  0  0
 27  1  1  0  0  0  0
 28 27  1  0  0  0  0
 29  5  1  0  0  0  0
 30 31  1  0  0  0  0
 31 29  1  0  0  0  0
 32 31  2  0  0  0  0
 32 33  1  0  0  0  0
 34 32  1  0  0  0  0
 35 36  1  0  0  0  0
 35 34  2  0  0  0  0
 36 30  2  0  0  0  0
 37 30  1  0  0  0  0
 37 38  1  0  0  0  0
 39 36  1  0  0  0  0
 40 39  1  0  0  0  0
M  END
>  <minimizedAffinity>
-4.91176176

>  <minimizedRMSD>
0.169144854

$$$$
