
 OpenBabel03272510173D

 30 32  0  0  0  0  0  0  0  0999 V2000
   37.2130   29.5390   51.1890 Br  0  0  0  0  0  0  0  0  0  0  0  0
   35.9690   29.3730   49.7450 C   0  0  0  0  0  0  0  0  0  0  0  0
   36.0500   30.1980   48.6230 C   0  0  0  0  0  0  0  0  0  0  0  0
   35.1170   30.0160   47.6230 C   0  0  0  0  0  0  0  0  0  0  0  0
   34.1170   29.0590   47.6860 C   0  0  0  0  0  0  0  0  0  0  0  0
   34.0640   28.2620   48.8060 C   0  0  0  0  0  0  0  0  0  0  0  0
   34.9830   28.4250   49.8170 C   0  0  0  0  0  0  0  0  0  0  0  0
   35.1730   30.6550   46.7450 H   0  0  0  0  0  0  0  0  0  0  0  0
   33.2870   27.5110   48.8660 H   0  0  0  0  0  0  0  0  0  0  0  0
   34.9210   27.7800   50.6970 H   0  0  0  0  0  0  0  0  0  0  0  0
   38.0110   33.1830   49.3970 C   0  0  0  0  0  0  0  0  0  0  0  0
   39.0360   33.1560   48.4280 C   0  0  0  0  0  0  0  0  0  0  0  0
   39.0460   32.0990   47.5030 C   0  0  0  0  0  0  0  0  0  0  0  0
   38.0620   31.1520   47.5910 N   0  0  0  0  0  0  0  0  0  0  0  0
   37.0920   31.2100   48.5360 C   0  0  0  0  0  0  0  0  0  0  0  0
   37.0690   32.2180   49.4290 N   0  0  0  0  0  0  0  0  0  0  0  0
   38.0450   34.0190   50.0890 H   0  0  0  0  0  0  0  0  0  0  0  0
   39.8220   33.8680   48.3200 H   0  0  0  0  0  0  0  0  0  0  0  0
   39.7710   31.9670   46.7190 H   0  0  0  0  0  0  0  0  0  0  0  0
   33.1090   27.8070   45.8020 C   0  0  0  0  0  0  0  0  0  0  0  0
   33.1770   28.9480   46.5690 C   0  0  0  0  0  0  0  0  0  0  0  0
   32.3440   29.9960   46.2710 C   0  0  0  0  0  0  0  0  0  0  0  0
   32.3400   30.9070   46.8190 H   0  0  0  0  0  0  0  0  0  0  0  0
   31.4680   29.8360   45.1960 C   0  0  0  0  0  3  0  0  0  0  0  0
   31.3960   28.6900   44.4210 C   0  0  0  0  0  3  0  0  0  0  0  0
   32.2430   27.6510   44.7400 C   0  0  0  0  0  0  0  0  0  0  0  0
   33.9670   26.7550   46.1240 O   0  0  0  0  0  0  0  0  0  0  0  0
   34.4630   26.2180   45.4280 H   0  0  0  0  0  0  0  0  0  0  0  0
   32.2370   26.4550   44.0080 O   0  0  0  0  0  0  0  0  0  0  0  0
   32.8610   26.3580   43.1950 H   0  0  0  0  0  0  0  0  0  0  0  0
  2  7  1  0  0  0  0
  2  1  1  0  0  0  0
  3  2  2  0  0  0  0
  4  5  2  0  0  0  0
  4  3  1  0  0  0  0
  5  6  1  0  0  0  0
  6  9  1  0  0  0  0
  6  7  2  0  0  0  0
  7 10  1  0  0  0  0
  8  4  1  0  0  0  0
 11 16  1  0  0  0  0
 11 17  1  0  0  0  0
 12 11  2  0  0  0  0
 13 14  2  0  0  0  0
 13 12  1  0  0  0  0
 14 15  1  0  0  0  0
 15  3  1  0  0  0  0
 15 16  2  0  0  0  0
 18 12  1  0  0  0  0
 19 13  1  0  0  0  0
 20 27  1  0  0  0  0
 20 21  1  0  0  0  0
 21  5  1  0  0  0  0
 22 21  2  0  0  0  0
 22 23  1  0  0  0  0
 24 22  1  0  0  0  0
 25 26  1  0  0  0  0
 25 24  2  0  0  0  0
 26 20  2  0  0  0  0
 28 27  1  0  0  0  0
 29 26  1  0  0  0  0
 30 29  1  0  0  0  0
M  END
>  <minimizedAffinity>
-6.00322104

>  <minimizedRMSD>
1.34695196

$$$$
