
 OpenBabel03272504573D

 35 37  0  0  1  0  0  0  0  0999 V2000
   36.1610   30.2360   49.7280 C   0  0  1  0  0  0  0  0  0  0  0  0
   34.7740   30.6250   49.8180 C   0  0  0  0  0  0  0  0  0  0  0  0
   35.2130   29.6360   48.7810 C   0  0  2  0  0  0  0  0  0  0  0  0
   36.6390   29.4840   50.4450 H   0  0  0  0  0  0  0  0  0  0  0  0
   34.5270   31.6460   49.4600 H   0  0  0  0  0  0  0  0  0  0  0  0
   34.4630   30.4770   50.8360 H   0  0  0  0  0  0  0  0  0  0  0  0
   34.8790   29.9730   47.8100 H   0  0  0  0  0  0  0  0  0  0  0  0
   37.1900   31.1670   49.1490 C   0  0  0  0  0  0  0  0  0  0  0  0
   37.2660   32.4410   49.7400 C   0  0  0  0  0  0  0  0  0  0  0  0
   38.2130   33.2760   49.1930 C   0  0  0  0  0  0  0  0  0  0  0  0
   38.9880   32.8570   48.1670 N   0  0  0  0  0  0  0  0  0  0  0  0
   38.8830   31.6200   47.6260 C   0  0  0  0  0  0  0  0  0  0  0  0
   37.9500   30.7580   48.1430 N   0  0  0  0  0  0  0  0  0  0  0  0
   39.6930   31.1590   46.5840 N   0  0  0  0  0  0  0  0  0  0  0  0
   36.6560   32.7890   50.5590 H   0  0  0  0  0  0  0  0  0  0  0  0
   38.3070   34.2750   49.6210 H   0  0  0  0  0  0  0  0  0  0  0  0
   40.6790   31.5500   46.6350 H   0  0  0  0  0  0  0  0  0  0  0  0
   39.3740   30.5180   45.8540 H   0  0  0  0  0  0  0  0  0  0  0  0
   34.8710   28.3050   49.0580 O   0  0  0  0  0  0  0  0  0  0  0  0
   33.7240   26.3110   47.8980 O   0  0  0  0  0  0  0  0  0  0  0  0
   33.6270   27.7920   48.0770 P   0  0  1  0  0  0  0  0  0  0  0  0
   32.1170   28.0630   48.8630 O   0  0  0  0  0  0  0  0  0  0  0  0
   31.4490   28.4340   48.2670 H   0  0  0  0  0  0  0  0  0  0  0  0
   33.6970   28.6530   46.6280 O   0  0  0  0  0  0  0  0  0  0  0  0
   32.0850   30.3160   45.8250 C   0  0  0  0  0  0  0  0  0  0  0  0
   32.5440   29.0070   45.9010 C   0  0  0  0  0  0  0  0  0  0  0  0
   31.8190   28.0390   45.2260 C   0  0  0  0  0  0  0  0  0  0  0  0
   32.1140   26.9880   45.2350 H   0  0  0  0  0  0  0  0  0  0  0  0
   30.6800   28.2880   44.4880 C   0  0  0  0  0  0  0  0  0  0  0  0
   30.2400   29.6060   44.4290 C   0  0  0  0  0  0  0  0  0  0  0  0
   30.9420   30.6030   45.0940 C   0  0  0  0  0  0  0  0  0  0  0  0
   32.7770   31.3220   46.4860 O   0  0  0  0  0  0  0  0  0  0  0  0
   33.3120   31.2320   47.3170 H   0  0  0  0  0  0  0  0  0  0  0  0
   30.4690   31.8960   45.0060 O   0  0  0  0  0  0  0  0  0  0  0  0
   29.8080   32.1700   44.2960 H   0  0  0  0  0  0  0  0  0  0  0  0
  1  2  1  0  0  0  0
  1  4  1  1  0  0  0
  2  6  1  0  0  0  0
  3  7  1  6  0  0  0
  3 19  1  0  0  0  0
  3  1  1  0  0  0  0
  3  2  1  0  0  0  0
  5  2  1  0  0  0  0
  8  1  1  0  0  0  0
  8  9  1  0  0  0  0
  9 15  1  0  0  0  0
 10 16  1  0  0  0  0
 10  9  2  0  0  0  0
 11 10  1  0  0  0  0
 12 13  1  0  0  0  0
 12 11  2  0  0  0  0
 13  8  2  0  0  0  0
 14 17  1  0  0  0  0
 14 12  1  0  0  0  0
 18 14  1  0  0  0  0
 21 20  2  6  0  0  0
 21 22  1  0  0  0  0
 21 19  1  0  0  0  0
 23 22  1  0  0  0  0
 24 21  1  0  0  0  0
 25 26  1  0  0  0  0
 25 32  1  0  0  0  0
 26 24  1  0  0  0  0
 27 28  1  0  0  0  0
 27 26  2  0  0  0  0
 29 27  1  0  0  0  0
 30 29  2  0  0  0  0
 30 31  1  0  0  0  0
 31 25  2  0  0  0  0
 32 33  1  0  0  0  0
 34 31  1  0  0  0  0
 35 34  1  0  0  0  0
M  END
>  <minimizedAffinity>
-5.71920013

>  <minimizedRMSD>
2.08038163

$$$$
