
 OpenBabel03262522103D

 31 33  0  0  0  0  0  0  0  0999 V2000
   37.2560   25.0900   32.7770 C   0  0  0  0  0  0  0  0  0  0  0  0
   37.4220   26.4450   32.6580 C   0  0  0  0  0  0  0  0  0  0  0  0
   38.2730   27.1060   33.5230 C   0  0  0  0  0  0  0  0  0  0  0  0
   38.9100   26.3030   34.4750 C   0  0  0  0  0  0  0  0  0  0  0  0
   38.7260   24.9480   34.5730 C   0  0  0  0  0  0  0  0  0  0  0  0
   37.8850   24.3370   33.7080 N   0  0  0  0  0  0  0  0  0  0  0  0
   36.8940   27.0020   31.8940 H   0  0  0  0  0  0  0  0  0  0  0  0
   38.4420   28.1780   33.4730 H   0  0  0  0  0  0  0  0  0  0  0  0
   39.5710   26.8410   35.1400 H   0  0  0  0  0  0  0  0  0  0  0  0
   38.7600   23.7640   36.7340 C   0  0  0  0  0  0  0  0  0  0  0  0
   39.4060   24.1420   35.5780 C   0  0  0  0  0  0  0  0  0  0  0  0
   40.7050   23.6920   35.4800 C   0  0  0  0  0  0  0  0  0  0  0  0
   41.2770   23.9460   34.6040 H   0  0  0  0  0  0  0  0  0  0  0  0
   41.3200   22.9310   36.4470 C   0  0  0  0  0  3  0  0  0  0  0  0
   40.6200   22.5760   37.6010 C   0  0  0  0  0  3  0  0  0  0  0  0
   39.3350   23.0090   37.7200 C   0  0  0  0  0  0  0  0  0  0  0  0
   37.4280   24.1950   36.8920 O   0  0  0  0  0  0  0  0  0  0  0  0
   37.2490   24.7790   37.6780 H   0  0  0  0  0  0  0  0  0  0  0  0
   38.6090   22.6640   38.8740 O   0  0  0  0  0  0  0  0  0  0  0  0
   39.1260   22.8160   39.7490 H   0  0  0  0  0  0  0  0  0  0  0  0
   36.3380   24.4420   31.8300 C   0  0  0  0  0  0  0  0  0  0  0  0
   35.4700   25.0590   31.2350 O   0  0  0  0  0  0  0  0  0  0  0  0
   35.4100   22.1420   31.9800 C   0  0  0  0  0  0  0  0  0  0  0  0
   36.4220   23.0040   31.5510 C   0  0  0  0  0  0  0  0  0  0  0  0
   37.4830   22.4320   30.8660 C   0  0  0  0  0  0  0  0  0  0  0  0
   37.4970   21.0850   30.6420 N   0  0  0  0  0  0  0  0  0  0  0  0
   36.4920   20.2930   31.0770 C   0  0  0  0  0  0  0  0  0  0  0  0
   35.4630   20.8130   31.7370 N   0  0  0  0  0  0  0  0  0  0  0  0
   34.5710   22.5910   32.5220 H   0  0  0  0  0  0  0  0  0  0  0  0
   38.2810   23.0720   30.5220 H   0  0  0  0  0  0  0  0  0  0  0  0
   36.4650   19.2250   30.9210 H   0  0  0  0  0  0  0  0  0  0  0  0
  1  6  1  0  0  0  0
  2  1  2  0  0  0  0
  2  3  1  0  0  0  0
  3  4  2  0  0  0  0
  4  5  1  0  0  0  0
  4  9  1  0  0  0  0
  5 11  1  0  0  0  0
  6  5  2  0  0  0  0
  7  2  1  0  0  0  0
  8  3  1  0  0  0  0
 10 17  1  0  0  0  0
 10 16  1  0  0  0  0
 11 10  2  0  0  0  0
 12 11  1  0  0  0  0
 12 14  2  0  0  0  0
 13 12  1  0  0  0  0
 14 15  1  0  0  0  0
 15 16  2  0  0  0  0
 16 19  1  0  0  0  0
 17 18  1  0  0  0  0
 19 20  1  0  0  0  0
 21  1  1  0  0  0  0
 22 21  2  0  0  0  0
 23 29  1  0  0  0  0
 24 21  1  0  0  0  0
 24 23  2  0  0  0  0
 25 24  1  0  0  0  0
 26 25  2  0  0  0  0
 26 27  1  0  0  0  0
 27 28  2  0  0  0  0
 28 23  1  0  0  0  0
 30 25  1  0  0  0  0
 31 27  1  0  0  0  0
M  END
>  <minimizedAffinity>
-6.05660105

$$$$

 OpenBabel03262522103D

 31 33  0  0  0  0  0  0  0  0999 V2000
   38.0140   24.6370   32.5310 C   0  0  0  0  0  0  0  0  0  0  0  0
   38.2940   25.9400   32.2100 C   0  0  0  0  0  0  0  0  0  0  0  0
   38.6900   26.8160   33.2030 C   0  0  0  0  0  0  0  0  0  0  0  0
   38.7710   26.2740   34.4900 C   0  0  0  0  0  0  0  0  0  0  0  0
   38.4860   24.9660   34.7850 C   0  0  0  0  0  0  0  0  0  0  0  0
   38.1010   24.1390   33.7850 N   0  0  0  0  0  0  0  0  0  0  0  0
   38.2090   26.2890   31.1890 H   0  0  0  0  0  0  0  0  0  0  0  0
   38.9240   27.8580   33.0040 H   0  0  0  0  0  0  0  0  0  0  0  0
   39.0840   26.9770   35.2500 H   0  0  0  0  0  0  0  0  0  0  0  0
   39.4310   23.3890   36.4250 C   0  0  0  0  0  0  0  0  0  0  0  0
   38.5810   24.4340   36.1380 C   0  0  0  0  0  0  0  0  0  0  0  0
   37.8670   24.9000   37.2190 C   0  0  0  0  0  0  0  0  0  0  0  0
   37.1810   25.7180   37.0740 H   0  0  0  0  0  0  0  0  0  0  0  0
   37.9790   24.3770   38.4870 C   0  0  0  0  0  3  0  0  0  0  0  0
   38.8550   23.3170   38.7240 C   0  0  0  0  0  3  0  0  0  0  0  0
   39.5720   22.8380   37.6700 C   0  0  0  0  0  0  0  0  0  0  0  0
   40.1890   22.8690   35.3570 O   0  0  0  0  0  0  0  0  0  0  0  0
   40.0300   21.9100   35.1380 H   0  0  0  0  0  0  0  0  0  0  0  0
   40.4610   21.7710   37.8850 O   0  0  0  0  0  0  0  0  0  0  0  0
   40.0550   20.9980   38.4290 H   0  0  0  0  0  0  0  0  0  0  0  0
   37.5980   23.7520   31.4350 C   0  0  0  0  0  0  0  0  0  0  0  0
   37.7860   24.0320   30.2620 O   0  0  0  0  0  0  0  0  0  0  0  0
   37.6580   21.2830   31.7070 C   0  0  0  0  0  0  0  0  0  0  0  0
   36.9280   22.4740   31.7000 C   0  0  0  0  0  0  0  0  0  0  0  0
   35.5680   22.3760   31.9510 C   0  0  0  0  0  0  0  0  0  0  0  0
   35.0100   21.1530   32.1890 N   0  0  0  0  0  0  0  0  0  0  0  0
   35.7600   20.0290   32.1850 C   0  0  0  0  0  0  0  0  0  0  0  0
   37.0650   20.0920   31.9480 N   0  0  0  0  0  0  0  0  0  0  0  0
   38.7320   21.3570   31.5090 H   0  0  0  0  0  0  0  0  0  0  0  0
   34.9760   23.2790   31.9510 H   0  0  0  0  0  0  0  0  0  0  0  0
   35.3580   19.0440   32.3690 H   0  0  0  0  0  0  0  0  0  0  0  0
  1  6  1  0  0  0  0
  2  1  2  0  0  0  0
  2  3  1  0  0  0  0
  3  4  2  0  0  0  0
  4  5  1  0  0  0  0
  4  9  1  0  0  0  0
  5 11  1  0  0  0  0
  6  5  2  0  0  0  0
  7  2  1  0  0  0  0
  8  3  1  0  0  0  0
 10 16  1  0  0  0  0
 11 10  2  0  0  0  0
 11 12  1  0  0  0  0
 12 14  2  0  0  0  0
 13 12  1  0  0  0  0
 14 15  1  0  0  0  0
 16 19  1  0  0  0  0
 16 15  2  0  0  0  0
 17 10  1  0  0  0  0
 18 17  1  0  0  0  0
 19 20  1  0  0  0  0
 21 24  1  0  0  0  0
 21  1  1  0  0  0  0
 22 21  2  0  0  0  0
 23 28  1  0  0  0  0
 24 23  2  0  0  0  0
 24 25  1  0  0  0  0
 25 26  2  0  0  0  0
 27 26  1  0  0  0  0
 27 31  1  0  0  0  0
 28 27  2  0  0  0  0
 29 23  1  0  0  0  0
 30 25  1  0  0  0  0
M  END
>  <minimizedAffinity>
-5.95212507

$$$$

 OpenBabel03262522103D

 31 33  0  0  0  0  0  0  0  0999 V2000
   37.2550   24.7990   32.3630 C   0  0  0  0  0  0  0  0  0  0  0  0
   36.3370   23.9850   31.7520 C   0  0  0  0  0  0  0  0  0  0  0  0
   35.2920   24.5490   31.0430 C   0  0  0  0  0  0  0  0  0  0  0  0
   35.2690   25.9470   31.0130 C   0  0  0  0  0  0  0  0  0  0  0  0
   36.2010   26.7380   31.6320 C   0  0  0  0  0  0  0  0  0  0  0  0
   37.2080   26.1490   32.3170 N   0  0  0  0  0  0  0  0  0  0  0  0
   36.4200   22.9080   31.8200 H   0  0  0  0  0  0  0  0  0  0  0  0
   34.5370   23.9520   30.5400 H   0  0  0  0  0  0  0  0  0  0  0  0
   34.4440   26.3660   30.4520 H   0  0  0  0  0  0  0  0  0  0  0  0
   36.4480   28.8680   30.4180 C   0  0  0  0  0  0  0  0  0  0  0  0
   36.1450   28.1930   31.5790 C   0  0  0  0  0  0  0  0  0  0  0  0
   35.8000   29.0070   32.6360 C   0  0  0  0  0  0  0  0  0  0  0  0
   35.5480   28.5530   33.5800 H   0  0  0  0  0  0  0  0  0  0  0  0
   35.7560   30.3800   32.5550 C   0  0  0  0  0  3  0  0  0  0  0  0
   36.0730   31.0140   31.3530 C   0  0  0  0  0  3  0  0  0  0  0  0
   36.4180   30.2310   30.2950 C   0  0  0  0  0  0  0  0  0  0  0  0
   36.8100   28.0890   29.3010 O   0  0  0  0  0  0  0  0  0  0  0  0
   37.7240   28.2470   28.9390 H   0  0  0  0  0  0  0  0  0  0  0  0
   36.7420   30.8480   29.0740 O   0  0  0  0  0  0  0  0  0  0  0  0
   37.3930   31.6370   29.1690 H   0  0  0  0  0  0  0  0  0  0  0  0
   38.3420   24.1430   33.1020 C   0  0  0  0  0  0  0  0  0  0  0  0
   39.3670   23.7630   32.5590 O   0  0  0  0  0  0  0  0  0  0  0  0
   38.1010   22.6130   35.0450 C   0  0  0  0  0  0  0  0  0  0  0  0
   38.2480   23.9100   34.5480 C   0  0  0  0  0  0  0  0  0  0  0  0
   38.2970   24.9360   35.4790 C   0  0  0  0  0  0  0  0  0  0  0  0
   38.2020   24.6470   36.8100 N   0  0  0  0  0  0  0  0  0  0  0  0
   38.0600   23.3740   37.2420 C   0  0  0  0  0  0  0  0  0  0  0  0
   38.0100   22.3710   36.3730 N   0  0  0  0  0  0  0  0  0  0  0  0
   38.0620   21.8010   34.3130 H   0  0  0  0  0  0  0  0  0  0  0  0
   38.4090   25.9490   35.1260 H   0  0  0  0  0  0  0  0  0  0  0  0
   37.9820   23.1040   38.2840 H   0  0  0  0  0  0  0  0  0  0  0  0
  1 21  1  0  0  0  0
  2  7  1  0  0  0  0
  2  1  2  0  0  0  0
  3  2  1  0  0  0  0
  4  3  2  0  0  0  0
  4  5  1  0  0  0  0
  5  6  2  0  0  0  0
  6  1  1  0  0  0  0
  8  3  1  0  0  0  0
  9  4  1  0  0  0  0
 10 11  1  0  0  0  0
 11  5  1  0  0  0  0
 11 12  2  0  0  0  0
 12 13  1  0  0  0  0
 14 12  1  0  0  0  0
 15 14  2  0  0  0  0
 16 10  2  0  0  0  0
 16 15  1  0  0  0  0
 17 10  1  0  0  0  0
 18 17  1  0  0  0  0
 19 20  1  0  0  0  0
 19 16  1  0  0  0  0
 21 24  1  0  0  0  0
 22 21  2  0  0  0  0
 23 28  1  0  0  0  0
 24 23  2  0  0  0  0
 24 25  1  0  0  0  0
 25 26  2  0  0  0  0
 26 27  1  0  0  0  0
 27 31  1  0  0  0  0
 28 27  2  0  0  0  0
 29 23  1  0  0  0  0
 30 25  1  0  0  0  0
M  END
>  <minimizedAffinity>
-5.73685026

$$$$

 OpenBabel03262522103D

 31 33  0  0  0  0  0  0  0  0999 V2000
   37.8910   24.1330   33.2020 C   0  0  0  0  0  0  0  0  0  0  0  0
   37.1390   25.1500   32.6750 C   0  0  0  0  0  0  0  0  0  0  0  0
   36.1420   24.8580   31.7630 C   0  0  0  0  0  0  0  0  0  0  0  0
   35.9880   23.5030   31.4510 C   0  0  0  0  0  0  0  0  0  0  0  0
   36.7540   22.5040   31.9930 C   0  0  0  0  0  0  0  0  0  0  0  0
   37.7200   22.8310   32.8820 N   0  0  0  0  0  0  0  0  0  0  0  0
   37.3170   26.1780   32.9640 H   0  0  0  0  0  0  0  0  0  0  0  0
   35.5160   25.6240   31.3140 H   0  0  0  0  0  0  0  0  0  0  0  0
   35.2020   23.2980   30.7360 H   0  0  0  0  0  0  0  0  0  0  0  0
   35.8620   20.2590   32.4770 C   0  0  0  0  0  0  0  0  0  0  0  0
   36.5650   21.1020   31.6450 C   0  0  0  0  0  0  0  0  0  0  0  0
   37.0460   20.5030   30.5030 C   0  0  0  0  0  0  0  0  0  0  0  0
   37.6070   21.0980   29.8010 H   0  0  0  0  0  0  0  0  0  0  0  0
   36.8510   19.1740   30.2020 C   0  0  0  0  0  3  0  0  0  0  0  0
   36.1310   18.3630   31.0790 C   0  0  0  0  0  3  0  0  0  0  0  0
   35.6450   18.9330   32.2160 C   0  0  0  0  0  0  0  0  0  0  0  0
   35.3440   20.8160   33.6630 O   0  0  0  0  0  0  0  0  0  0  0  0
   35.6800   20.4190   34.5120 H   0  0  0  0  0  0  0  0  0  0  0  0
   34.9170   18.1350   33.1150 O   0  0  0  0  0  0  0  0  0  0  0  0
   35.3640   17.2330   33.3230 H   0  0  0  0  0  0  0  0  0  0  0  0
   38.9360   24.5050   34.1660 C   0  0  0  0  0  0  0  0  0  0  0  0
   39.9380   25.1200   33.8390 O   0  0  0  0  0  0  0  0  0  0  0  0
   39.7370   23.2640   36.1640 C   0  0  0  0  0  0  0  0  0  0  0  0
   38.8240   24.1490   35.5850 C   0  0  0  0  0  0  0  0  0  0  0  0
   37.8330   24.6550   36.4110 C   0  0  0  0  0  0  0  0  0  0  0  0
   37.7870   24.2800   37.7230 N   0  0  0  0  0  0  0  0  0  0  0  0
   38.6940   23.4200   38.2370 C   0  0  0  0  0  0  0  0  0  0  0  0
   39.6550   22.9190   37.4700 N   0  0  0  0  0  0  0  0  0  0  0  0
   40.5210   22.8630   35.5150 H   0  0  0  0  0  0  0  0  0  0  0  0
   37.1120   25.3410   35.9920 H   0  0  0  0  0  0  0  0  0  0  0  0
   38.6940   23.0990   39.2670 H   0  0  0  0  0  0  0  0  0  0  0  0
  1 21  1  0  0  0  0
  2  7  1  0  0  0  0
  2  1  2  0  0  0  0
  3  2  1  0  0  0  0
  4  3  2  0  0  0  0
  4  5  1  0  0  0  0
  5  6  2  0  0  0  0
  6  1  1  0  0  0  0
  8  3  1  0  0  0  0
  9  4  1  0  0  0  0
 10 17  1  0  0  0  0
 11  5  1  0  0  0  0
 11 10  2  0  0  0  0
 12 11  1  0  0  0  0
 13 12  1  0  0  0  0
 14 12  2  0  0  0  0
 14 15  1  0  0  0  0
 15 16  2  0  0  0  0
 16 10  1  0  0  0  0
 16 19  1  0  0  0  0
 17 18  1  0  0  0  0
 19 20  1  0  0  0  0
 21 24  1  0  0  0  0
 22 21  2  0  0  0  0
 23 28  1  0  0  0  0
 24 23  2  0  0  0  0
 24 25  1  0  0  0  0
 25 26  2  0  0  0  0
 26 27  1  0  0  0  0
 27 31  1  0  0  0  0
 28 27  2  0  0  0  0
 29 23  1  0  0  0  0
 30 25  1  0  0  0  0
M  END
>  <minimizedAffinity>
-5.70745516

$$$$

 OpenBabel03262522103D

 31 33  0  0  0  0  0  0  0  0999 V2000
   36.6130   28.6160   32.6590 C   0  0  0  0  0  0  0  0  0  0  0  0
   36.3630   29.1060   31.4040 C   0  0  0  0  0  0  0  0  0  0  0  0
   35.3740   30.0560   31.2270 C   0  0  0  0  0  0  0  0  0  0  0  0
   34.6950   30.4430   32.3870 C   0  0  0  0  0  0  0  0  0  0  0  0
   34.9650   29.9370   33.6320 C   0  0  0  0  0  0  0  0  0  0  0  0
   35.9400   29.0090   33.7640 N   0  0  0  0  0  0  0  0  0  0  0  0
   36.9310   28.7580   30.5500 H   0  0  0  0  0  0  0  0  0  0  0  0
   35.1350   30.4780   30.2550 H   0  0  0  0  0  0  0  0  0  0  0  0
   33.9270   31.1870   32.2250 H   0  0  0  0  0  0  0  0  0  0  0  0
   34.8110   31.2310   35.7240 C   0  0  0  0  0  0  0  0  0  0  0  0
   34.2370   30.3640   34.8200 C   0  0  0  0  0  0  0  0  0  0  0  0
   32.9600   29.9650   35.1470 C   0  0  0  0  0  0  0  0  0  0  0  0
   32.4440   29.2870   34.4880 H   0  0  0  0  0  0  0  0  0  0  0  0
   32.2980   30.3860   36.2770 C   0  0  0  0  0  3  0  0  0  0  0  0
   32.9250   31.2650   37.1610 C   0  0  0  0  0  3  0  0  0  0  0  0
   34.1880   31.6730   36.8600 C   0  0  0  0  0  0  0  0  0  0  0  0
   36.1180   31.6740   35.4430 O   0  0  0  0  0  0  0  0  0  0  0  0
   36.8110   31.4390   36.1190 H   0  0  0  0  0  0  0  0  0  0  0  0
   34.8410   32.5580   37.7350 O   0  0  0  0  0  0  0  0  0  0  0  0
   34.7730   32.2870   38.7240 H   0  0  0  0  0  0  0  0  0  0  0  0
   37.6750   27.6090   32.7850 C   0  0  0  0  0  0  0  0  0  0  0  0
   38.4530   27.3620   31.8770 O   0  0  0  0  0  0  0  0  0  0  0  0
   38.2210   27.4900   35.2060 C   0  0  0  0  0  0  0  0  0  0  0  0
   37.8550   26.8430   34.0230 C   0  0  0  0  0  0  0  0  0  0  0  0
   37.6780   25.4700   34.0900 C   0  0  0  0  0  0  0  0  0  0  0  0
   37.8630   24.8200   35.2760 N   0  0  0  0  0  0  0  0  0  0  0  0
   38.2170   25.4910   36.3940 C   0  0  0  0  0  0  0  0  0  0  0  0
   38.3940   26.8070   36.3610 N   0  0  0  0  0  0  0  0  0  0  0  0
   38.3610   28.5740   35.1570 H   0  0  0  0  0  0  0  0  0  0  0  0
   37.3950   24.9410   33.1920 H   0  0  0  0  0  0  0  0  0  0  0  0
   38.3730   25.0160   37.3510 H   0  0  0  0  0  0  0  0  0  0  0  0
  1 21  1  0  0  0  0
  1  6  1  0  0  0  0
  2  1  2  0  0  0  0
  3  2  1  0  0  0  0
  3  4  2  0  0  0  0
  4  5  1  0  0  0  0
  5  6  2  0  0  0  0
  5 11  1  0  0  0  0
  7  2  1  0  0  0  0
  8  3  1  0  0  0  0
  9  4  1  0  0  0  0
 10 16  1  0  0  0  0
 11 12  1  0  0  0  0
 11 10  2  0  0  0  0
 12 14  2  0  0  0  0
 13 12  1  0  0  0  0
 14 15  1  0  0  0  0
 16 15  2  0  0  0  0
 16 19  1  0  0  0  0
 17 10  1  0  0  0  0
 17 18  1  0  0  0  0
 19 20  1  0  0  0  0
 21 24  1  0  0  0  0
 22 21  2  0  0  0  0
 23 28  1  0  0  0  0
 24 25  1  0  0  0  0
 24 23  2  0  0  0  0
 25 26  2  0  0  0  0
 26 27  1  0  0  0  0
 27 31  1  0  0  0  0
 28 27  2  0  0  0  0
 29 23  1  0  0  0  0
 30 25  1  0  0  0  0
M  END
>  <minimizedAffinity>
-5.6863513

$$$$

 OpenBabel03262522103D

 31 33  0  0  0  0  0  0  0  0999 V2000
   38.6170   26.1980   33.3100 C   0  0  0  0  0  0  0  0  0  0  0  0
   39.5520   27.1340   32.9530 C   0  0  0  0  0  0  0  0  0  0  0  0
   40.8220   27.0700   33.4930 C   0  0  0  0  0  0  0  0  0  0  0  0
   41.0450   26.0170   34.3870 C   0  0  0  0  0  0  0  0  0  0  0  0
   40.0930   25.0920   34.7270 C   0  0  0  0  0  0  0  0  0  0  0  0
   38.8610   25.1890   34.1770 N   0  0  0  0  0  0  0  0  0  0  0  0
   39.3060   27.9230   32.2530 H   0  0  0  0  0  0  0  0  0  0  0  0
   41.6010   27.7850   33.2450 H   0  0  0  0  0  0  0  0  0  0  0  0
   42.0460   25.9850   34.7960 H   0  0  0  0  0  0  0  0  0  0  0  0
   39.5350   23.7900   36.7430 C   0  0  0  0  0  0  0  0  0  0  0  0
   40.3600   24.0070   35.6620 C   0  0  0  0  0  0  0  0  0  0  0  0
   41.4150   23.1270   35.5670 C   0  0  0  0  0  0  0  0  0  0  0  0
   42.1050   23.2320   34.7470 H   0  0  0  0  0  0  0  0  0  0  0  0
   41.6410   22.1110   36.4660 C   0  0  0  0  0  3  0  0  0  0  0  0
   40.7730   21.9340   37.5450 C   0  0  0  0  0  3  0  0  0  0  0  0
   39.7230   22.7920   37.6610 C   0  0  0  0  0  0  0  0  0  0  0  0
   38.4360   24.6600   36.8950 O   0  0  0  0  0  0  0  0  0  0  0  0
   38.4190   25.1960   37.7340 H   0  0  0  0  0  0  0  0  0  0  0  0
   38.8360   22.6340   38.7400 O   0  0  0  0  0  0  0  0  0  0  0  0
   39.3050   22.5090   39.6460 H   0  0  0  0  0  0  0  0  0  0  0  0
   37.2840   26.3180   32.7040 C   0  0  0  0  0  0  0  0  0  0  0  0
   36.7070   25.3680   32.2010 O   0  0  0  0  0  0  0  0  0  0  0  0
   36.2530   28.2590   33.8630 C   0  0  0  0  0  0  0  0  0  0  0  0
   36.5740   27.6020   32.6730 C   0  0  0  0  0  0  0  0  0  0  0  0
   36.1900   28.2200   31.4930 C   0  0  0  0  0  0  0  0  0  0  0  0
   35.5310   29.4150   31.5380 N   0  0  0  0  0  0  0  0  0  0  0  0
   35.2430   30.0110   32.7160 C   0  0  0  0  0  0  0  0  0  0  0  0
   35.5980   29.4430   33.8620 N   0  0  0  0  0  0  0  0  0  0  0  0
   36.5550   27.7730   34.7960 H   0  0  0  0  0  0  0  0  0  0  0  0
   36.4230   27.7370   30.5570 H   0  0  0  0  0  0  0  0  0  0  0  0
   34.7240   30.9540   32.7950 H   0  0  0  0  0  0  0  0  0  0  0  0
  1  6  1  0  0  0  0
  2  1  2  0  0  0  0
  2  3  1  0  0  0  0
  3  4  2  0  0  0  0
  4  5  1  0  0  0  0
  4  9  1  0  0  0  0
  5 11  1  0  0  0  0
  6  5  2  0  0  0  0
  7  2  1  0  0  0  0
  8  3  1  0  0  0  0
 10 17  1  0  0  0  0
 10 16  1  0  0  0  0
 11 10  2  0  0  0  0
 12 11  1  0  0  0  0
 12 14  2  0  0  0  0
 13 12  1  0  0  0  0
 14 15  1  0  0  0  0
 15 16  2  0  0  0  0
 16 19  1  0  0  0  0
 17 18  1  0  0  0  0
 19 20  1  0  0  0  0
 21  1  1  0  0  0  0
 22 21  2  0  0  0  0
 23 29  1  0  0  0  0
 24 21  1  0  0  0  0
 24 23  2  0  0  0  0
 25 26  2  0  0  0  0
 25 24  1  0  0  0  0
 26 27  1  0  0  0  0
 27 31  1  0  0  0  0
 27 28  2  0  0  0  0
 28 23  1  0  0  0  0
 30 25  1  0  0  0  0
M  END
>  <minimizedAffinity>
-5.60869122

$$$$

 OpenBabel03262522103D

 31 33  0  0  0  0  0  0  0  0999 V2000
   38.5160   24.6700   35.4220 C   0  0  0  0  0  0  0  0  0  0  0  0
   38.3660   25.5020   36.5000 C   0  0  0  0  0  0  0  0  0  0  0  0
   38.3200   26.8700   36.3040 C   0  0  0  0  0  0  0  0  0  0  0  0
   38.4330   27.2930   34.9760 C   0  0  0  0  0  0  0  0  0  0  0  0
   38.5820   26.4400   33.9140 C   0  0  0  0  0  0  0  0  0  0  0  0
   38.6230   25.1080   34.1470 N   0  0  0  0  0  0  0  0  0  0  0  0
   38.2840   25.1010   37.5030 H   0  0  0  0  0  0  0  0  0  0  0  0
   38.2030   27.5750   37.1230 H   0  0  0  0  0  0  0  0  0  0  0  0
   38.3940   28.3660   34.8470 H   0  0  0  0  0  0  0  0  0  0  0  0
   37.5800   27.0570   31.7490 C   0  0  0  0  0  0  0  0  0  0  0  0
   38.6970   26.9160   32.5420 C   0  0  0  0  0  0  0  0  0  0  0  0
   39.8790   27.2600   31.9250 C   0  0  0  0  0  0  0  0  0  0  0  0
   40.7980   27.1770   32.4810 H   0  0  0  0  0  0  0  0  0  0  0  0
   39.9570   27.7070   30.6260 C   0  0  0  0  0  3  0  0  0  0  0  0
   38.7930   27.8310   29.8660 C   0  0  0  0  0  3  0  0  0  0  0  0
   37.6120   27.4970   30.4540 C   0  0  0  0  0  0  0  0  0  0  0  0
   36.3400   26.7190   32.3260 O   0  0  0  0  0  0  0  0  0  0  0  0
   35.8410   25.9800   31.8830 H   0  0  0  0  0  0  0  0  0  0  0  0
   36.4270   27.6140   29.7070 O   0  0  0  0  0  0  0  0  0  0  0  0
   36.4910   27.2090   28.7640 H   0  0  0  0  0  0  0  0  0  0  0  0
   38.5580   23.2260   35.6920 C   0  0  0  0  0  0  0  0  0  0  0  0
   37.5540   22.5340   35.7090 O   0  0  0  0  0  0  0  0  0  0  0  0
   40.2100   22.2470   37.2680 C   0  0  0  0  0  0  0  0  0  0  0  0
   39.8270   22.5390   35.9570 C   0  0  0  0  0  0  0  0  0  0  0  0
   40.6960   22.1500   34.9500 C   0  0  0  0  0  0  0  0  0  0  0  0
   41.8620   21.5140   35.2690 N   0  0  0  0  0  0  0  0  0  0  0  0
   42.1880   21.2540   36.5540 C   0  0  0  0  0  0  0  0  0  0  0  0
   41.3750   21.6140   37.5400 N   0  0  0  0  0  0  0  0  0  0  0  0
   39.5260   22.5520   38.0660 H   0  0  0  0  0  0  0  0  0  0  0  0
   40.4290   22.3620   33.9260 H   0  0  0  0  0  0  0  0  0  0  0  0
   43.0980   20.7540   36.8480 H   0  0  0  0  0  0  0  0  0  0  0  0
  1 21  1  0  0  0  0
  1  2  1  0  0  0  0
  2  7  1  0  0  0  0
  3  2  2  0  0  0  0
  3  8  1  0  0  0  0
  4  3  1  0  0  0  0
  5  6  1  0  0  0  0
  5  4  2  0  0  0  0
  6  1  2  0  0  0  0
  9  4  1  0  0  0  0
 10 17  1  0  0  0  0
 10 11  1  0  0  0  0
 11  5  1  0  0  0  0
 12 13  1  0  0  0  0
 12 11  2  0  0  0  0
 14 12  1  0  0  0  0
 15 16  1  0  0  0  0
 15 14  2  0  0  0  0
 16 10  2  0  0  0  0
 18 17  1  0  0  0  0
 19 16  1  0  0  0  0
 20 19  1  0  0  0  0
 21 22  2  0  0  0  0
 21 24  1  0  0  0  0
 23 28  1  0  0  0  0
 23 29  1  0  0  0  0
 24 23  2  0  0  0  0
 25 26  2  0  0  0  0
 25 24  1  0  0  0  0
 26 27  1  0  0  0  0
 27 31  1  0  0  0  0
 27 28  2  0  0  0  0
 30 25  1  0  0  0  0
M  END
>  <minimizedAffinity>
-5.57706881

$$$$

 OpenBabel03262522103D

 31 33  0  0  0  0  0  0  0  0999 V2000
   37.1730   26.0630   33.2410 C   0  0  0  0  0  0  0  0  0  0  0  0
   36.9280   27.3630   33.5980 C   0  0  0  0  0  0  0  0  0  0  0  0
   37.2710   27.7980   34.8640 C   0  0  0  0  0  0  0  0  0  0  0  0
   37.8580   26.8370   35.6940 C   0  0  0  0  0  0  0  0  0  0  0  0
   38.0930   25.5420   35.3120 C   0  0  0  0  0  0  0  0  0  0  0  0
   37.7430   25.1540   34.0640 N   0  0  0  0  0  0  0  0  0  0  0  0
   36.4690   28.0520   32.9000 H   0  0  0  0  0  0  0  0  0  0  0  0
   37.0990   28.8170   35.2000 H   0  0  0  0  0  0  0  0  0  0  0  0
   38.1190   27.1990   36.6790 H   0  0  0  0  0  0  0  0  0  0  0  0
   39.8450   23.8880   35.8280 C   0  0  0  0  0  0  0  0  0  0  0  0
   38.7070   24.5660   36.2030 C   0  0  0  0  0  0  0  0  0  0  0  0
   38.2360   24.2370   37.4550 C   0  0  0  0  0  0  0  0  0  0  0  0
   37.3490   24.7260   37.8210 H   0  0  0  0  0  0  0  0  0  0  0  0
   38.8390   23.3110   38.2740 C   0  0  0  0  0  3  0  0  0  0  0  0
   39.9910   22.6510   37.8450 C   0  0  0  0  0  3  0  0  0  0  0  0
   40.4760   22.9590   36.6110 C   0  0  0  0  0  0  0  0  0  0  0  0
   40.3750   24.1820   34.5560 O   0  0  0  0  0  0  0  0  0  0  0  0
   40.4160   23.4200   33.9150 H   0  0  0  0  0  0  0  0  0  0  0  0
   41.6350   22.3070   36.1570 O   0  0  0  0  0  0  0  0  0  0  0  0
   41.6190   21.2890   36.2970 H   0  0  0  0  0  0  0  0  0  0  0  0
   36.7870   25.6580   31.8820 C   0  0  0  0  0  0  0  0  0  0  0  0
   35.6220   25.5950   31.5250 O   0  0  0  0  0  0  0  0  0  0  0  0
   37.8850   23.9970   30.3950 C   0  0  0  0  0  0  0  0  0  0  0  0
   37.7960   25.3060   30.8770 C   0  0  0  0  0  0  0  0  0  0  0  0
   38.6970   26.2250   30.3610 C   0  0  0  0  0  0  0  0  0  0  0  0
   39.6110   25.8270   29.4280 N   0  0  0  0  0  0  0  0  0  0  0  0
   39.6560   24.5480   28.9930 C   0  0  0  0  0  0  0  0  0  0  0  0
   38.8060   23.6460   29.4690 N   0  0  0  0  0  0  0  0  0  0  0  0
   37.1750   23.2690   30.8000 H   0  0  0  0  0  0  0  0  0  0  0  0
   38.6540   27.2440   30.7140 H   0  0  0  0  0  0  0  0  0  0  0  0
   40.3620   24.1930   28.2580 H   0  0  0  0  0  0  0  0  0  0  0  0
  1  2  2  0  0  0  0
  1  6  1  0  0  0  0
  2  3  1  0  0  0  0
  3  8  1  0  0  0  0
  3  4  2  0  0  0  0
  4  9  1  0  0  0  0
  5  4  1  0  0  0  0
  5 11  1  0  0  0  0
  6  5  2  0  0  0  0
  7  2  1  0  0  0  0
 10 11  2  0  0  0  0
 10 16  1  0  0  0  0
 11 12  1  0  0  0  0
 12 13  1  0  0  0  0
 12 14  2  0  0  0  0
 15 14  1  0  0  0  0
 16 15  2  0  0  0  0
 17 10  1  0  0  0  0
 18 17  1  0  0  0  0
 19 20  1  0  0  0  0
 19 16  1  0  0  0  0
 21  1  1  0  0  0  0
 22 21  2  0  0  0  0
 23 29  1  0  0  0  0
 23 24  1  0  0  0  0
 24 21  1  0  0  0  0
 25 30  1  0  0  0  0
 25 24  2  0  0  0  0
 26 25  1  0  0  0  0
 27 26  2  0  0  0  0
 27 28  1  0  0  0  0
 28 23  2  0  0  0  0
 31 27  1  0  0  0  0
M  END
>  <minimizedAffinity>
-5.55394983

$$$$

 OpenBabel03262522103D

 31 33  0  0  0  0  0  0  0  0999 V2000
   37.3730   25.3730   33.0440 C   0  0  0  0  0  0  0  0  0  0  0  0
   36.7810   24.5360   32.1350 C   0  0  0  0  0  0  0  0  0  0  0  0
   36.9670   23.1710   32.2440 C   0  0  0  0  0  0  0  0  0  0  0  0
   37.7700   22.7540   33.3100 C   0  0  0  0  0  0  0  0  0  0  0  0
   38.3510   23.6120   34.2070 C   0  0  0  0  0  0  0  0  0  0  0  0
   38.1460   24.9420   34.0660 N   0  0  0  0  0  0  0  0  0  0  0  0
   36.1700   24.9330   31.3330 H   0  0  0  0  0  0  0  0  0  0  0  0
   36.5210   22.4620   31.5510 H   0  0  0  0  0  0  0  0  0  0  0  0
   37.9010   21.6830   33.3760 H   0  0  0  0  0  0  0  0  0  0  0  0
   38.7370   23.2150   36.6080 C   0  0  0  0  0  0  0  0  0  0  0  0
   39.1830   23.1430   35.3070 C   0  0  0  0  0  0  0  0  0  0  0  0
   40.4430   22.6030   35.1670 C   0  0  0  0  0  0  0  0  0  0  0  0
   40.8610   22.5130   34.1780 H   0  0  0  0  0  0  0  0  0  0  0  0
   41.2050   22.1680   36.2260 C   0  0  0  0  0  3  0  0  0  0  0  0
   40.7050   22.2640   37.5260 C   0  0  0  0  0  3  0  0  0  0  0  0
   39.4630   22.7950   37.6900 C   0  0  0  0  0  0  0  0  0  0  0  0
   37.4540   23.7600   36.8150 O   0  0  0  0  0  0  0  0  0  0  0  0
   37.4160   24.5830   37.3740 H   0  0  0  0  0  0  0  0  0  0  0  0
   38.9380   22.9030   38.9890 O   0  0  0  0  0  0  0  0  0  0  0  0
   39.5970   23.3030   39.6690 H   0  0  0  0  0  0  0  0  0  0  0  0
   37.1400   26.8140   32.8770 C   0  0  0  0  0  0  0  0  0  0  0  0
   36.6540   27.5040   33.7590 O   0  0  0  0  0  0  0  0  0  0  0  0
   38.8170   27.5830   31.2120 C   0  0  0  0  0  0  0  0  0  0  0  0
   37.4860   27.5020   31.6280 C   0  0  0  0  0  0  0  0  0  0  0  0
   36.5370   28.0970   30.8110 C   0  0  0  0  0  0  0  0  0  0  0  0
   36.9300   28.7220   29.6620 N   0  0  0  0  0  0  0  0  0  0  0  0
   38.2310   28.7730   29.3020 C   0  0  0  0  0  0  0  0  0  0  0  0
   39.1620   28.2120   30.0650 N   0  0  0  0  0  0  0  0  0  0  0  0
   39.5680   27.1140   31.8550 H   0  0  0  0  0  0  0  0  0  0  0  0
   35.5000   28.0520   31.1050 H   0  0  0  0  0  0  0  0  0  0  0  0
   38.5830   29.2560   28.4030 H   0  0  0  0  0  0  0  0  0  0  0  0
  1  6  1  0  0  0  0
  2  3  1  0  0  0  0
  2  1  2  0  0  0  0
  3  4  2  0  0  0  0
  4  9  1  0  0  0  0
  4  5  1  0  0  0  0
  5 11  1  0  0  0  0
  6  5  2  0  0  0  0
  7  2  1  0  0  0  0
  8  3  1  0  0  0  0
 10 17  1  0  0  0  0
 10 16  1  0  0  0  0
 11 10  2  0  0  0  0
 12 11  1  0  0  0  0
 12 14  2  0  0  0  0
 13 12  1  0  0  0  0
 14 15  1  0  0  0  0
 15 16  2  0  0  0  0
 16 19  1  0  0  0  0
 17 18  1  0  0  0  0
 19 20  1  0  0  0  0
 21  1  1  0  0  0  0
 21 22  2  0  0  0  0
 23 24  1  0  0  0  0
 23 29  1  0  0  0  0
 24 21  1  0  0  0  0
 25 30  1  0  0  0  0
 25 24  2  0  0  0  0
 26 25  1  0  0  0  0
 27 26  2  0  0  0  0
 27 28  1  0  0  0  0
 28 23  2  0  0  0  0
 31 27  1  0  0  0  0
M  END
>  <minimizedAffinity>
-5.53358126

$$$$
