
 OpenBabel03272501193D

 32 34  0  0  0  0  0  0  0  0999 V2000
   38.2930   31.7330   47.7160 C   0  0  0  0  0  0  0  0  0  0  0  0
   37.2980   31.5170   48.6400 C   0  0  0  0  0  0  0  0  0  0  0  0
   37.2270   32.4960   49.6450 C   0  0  0  0  0  0  0  0  0  0  0  0
   38.1030   33.5850   49.6790 C   0  0  0  0  0  0  0  0  0  0  0  0
   39.0790   33.7060   48.6870 C   0  0  0  0  0  0  0  0  0  0  0  0
   39.1740   32.7520   47.6800 C   0  0  0  0  0  0  0  0  0  0  0  0
   36.4880   32.4460   50.4360 H   0  0  0  0  0  0  0  0  0  0  0  0
   38.0160   34.3220   50.4740 H   0  0  0  0  0  0  0  0  0  0  0  0
   39.7400   34.5640   48.7470 H   0  0  0  0  0  0  0  0  0  0  0  0
   35.3760   30.3640   47.6610 C   0  0  0  0  0  0  0  0  0  0  0  0
   36.3990   30.4130   48.6170 C   0  0  0  0  0  0  0  0  0  0  0  0
   36.4810   29.3500   49.5170 C   0  0  0  0  0  0  0  0  0  0  0  0
   35.5660   28.3440   49.4040 N   0  0  0  0  0  0  0  0  0  0  0  0
   34.5990   28.3420   48.4650 C   0  0  0  0  0  0  0  0  0  0  0  0
   34.4950   29.3650   47.5760 N   0  0  0  0  0  0  0  0  0  0  0  0
   35.2430   31.1490   46.9260 H   0  0  0  0  0  0  0  0  0  0  0  0
   37.2610   29.3730   50.2580 H   0  0  0  0  0  0  0  0  0  0  0  0
   33.9630   27.4670   48.5220 H   0  0  0  0  0  0  0  0  0  0  0  0
   38.4420   30.8070   46.6720 O   0  0  0  0  0  0  0  0  0  0  0  0
   39.0400   30.0090   46.8660 H   0  0  0  0  0  0  0  0  0  0  0  0
   40.1570   32.9310   46.7320 O   0  0  0  0  0  0  0  0  0  0  0  0
   40.7370   31.3220   44.9420 C   0  0  0  0  0  0  0  0  0  0  0  0
   40.1290   32.4580   45.4500 C   0  0  0  0  0  0  0  0  0  0  0  0
   39.3830   33.2470   44.5690 C   0  0  0  0  0  0  0  0  0  0  0  0
   38.8580   34.1670   44.8570 H   0  0  0  0  0  0  0  0  0  0  0  0
   39.2440   32.9220   43.2290 C   0  0  0  0  0  0  0  0  0  0  0  0
   39.8500   31.7890   42.7250 C   0  0  0  0  0  0  0  0  0  0  0  0
   40.5800   31.0270   43.6110 C   0  0  0  0  0  0  0  0  0  0  0  0
   41.4590   30.5810   45.8470 O   0  0  0  0  0  0  0  0  0  0  0  0
   41.6580   29.6230   45.6090 H   0  0  0  0  0  0  0  0  0  0  0  0
   41.2090   29.8680   43.1250 O   0  0  0  0  0  0  0  0  0  0  0  0
   40.6900   29.2440   42.4960 H   0  0  0  0  0  0  0  0  0  0  0  0
  1  2  1  0  0  0  0
  2  3  2  0  0  0  0
  3  4  1  0  0  0  0
  3  7  1  0  0  0  0
  4  8  1  0  0  0  0
  5  9  1  0  0  0  0
  5  4  2  0  0  0  0
  6  1  2  0  0  0  0
  6  5  1  0  0  0  0
 10 11  1  0  0  0  0
 11  2  1  0  0  0  0
 11 12  2  0  0  0  0
 12 17  1  0  0  0  0
 13 12  1  0  0  0  0
 14 18  1  0  0  0  0
 14 13  2  0  0  0  0
 15 10  2  0  0  0  0
 15 14  1  0  0  0  0
 16 10  1  0  0  0  0
 19 20  1  0  0  0  0
 19  1  1  0  0  0  0
 21  6  1  0  0  0  0
 22 23  1  0  0  0  0
 22 29  1  0  0  0  0
 23 21  1  0  0  0  0
 24 25  1  0  0  0  0
 24 23  2  0  0  0  0
 26 24  1  0  0  0  0
 27 26  2  0  0  0  0
 27 28  1  0  0  0  0
 28 22  2  0  0  0  0
 30 29  1  0  0  0  0
 31 28  1  0  0  0  0
 32 31  1  0  0  0  0
M  END
>  <minimizedAffinity>
-7.16541529

>  <minimizedRMSD>
2.38668919

$$$$
