
 OpenBabel03272507303D

 32 35  0  0  0  0  0  0  0  0999 V2000
   35.8590   29.2130   49.7980 C   0  0  0  0  0  0  0  0  0  0  0  0
   34.8070   29.6580   50.5590 C   0  0  0  0  0  0  0  0  0  0  0  0
   33.6490   29.0420   50.0590 C   0  0  0  0  0  0  0  0  0  0  0  0
   34.0950   28.2480   49.0060 C   0  0  0  0  0  0  0  0  0  0  0  0
   35.3750   28.3960   48.9120 O   0  0  0  0  0  0  0  0  0  0  0  0
   34.6960   30.3410   51.4050 H   0  0  0  0  0  0  0  0  0  0  0  0
   32.6390   29.1360   50.3860 H   0  0  0  0  0  0  0  0  0  0  0  0
   37.2130   29.6570   50.0470 C   0  0  0  0  0  0  0  0  0  0  0  0
   37.8250   29.1900   51.0330 O   0  0  0  0  0  0  0  0  0  0  0  0
   37.7750   30.6240   49.1250 C   0  0  0  0  0  0  0  0  0  0  0  0
   38.1450   31.8600   49.6740 C   0  0  0  0  0  0  0  0  0  0  0  0
   38.6910   32.8140   48.8030 C   0  0  0  0  0  0  0  0  0  0  0  0
   38.8270   32.4790   47.4790 N   0  0  0  0  0  0  0  0  0  0  0  0
   38.4590   31.2850   47.0030 C   0  0  0  0  0  0  0  0  0  0  0  0
   37.9370   30.3630   47.8140 N   0  0  0  0  0  0  0  0  0  0  0  0
   38.0120   32.0570   50.7210 H   0  0  0  0  0  0  0  0  0  0  0  0
   38.9730   33.7540   49.2210 H   0  0  0  0  0  0  0  0  0  0  0  0
   38.6260   31.1690   45.9410 H   0  0  0  0  0  0  0  0  0  0  0  0
   33.2130   27.4140   48.1840 C   0  0  0  0  0  0  0  0  0  0  0  0
   32.0000   27.2430   48.5260 O   0  0  0  0  0  0  0  0  0  0  0  0
   33.6460   26.7490   46.9700 C   0  0  0  0  0  0  0  0  0  0  0  0
   33.8880   25.3730   47.0570 C   0  0  0  0  0  0  0  0  0  0  0  0
   33.7750   24.7770   47.9640 H   0  0  0  0  0  0  0  0  0  0  0  0
   34.3080   24.6780   45.9160 C   0  0  0  0  0  3  0  0  0  0  0  0
   34.4830   25.3370   44.7180 C   0  0  0  0  0  0  0  0  0  0  0  0
   34.8880   24.6220   43.6550 N   0  0  0  0  0  0  0  0  0  0  0  0
   35.0900   25.1810   42.4280 C   0  0  0  0  0  0  0  0  0  0  0  0
   35.4160   24.6280   41.5620 H   0  0  0  0  0  0  0  0  0  0  0  0
   34.8600   26.5260   42.3160 C   0  0  0  0  0  3  0  0  0  0  0  0
   34.4420   27.2790   43.4010 C   0  0  0  0  0  3  0  0  0  0  0  0
   34.2400   26.7050   44.6390 C   0  0  0  0  0  0  0  0  0  0  0  0
   33.8290   27.3820   45.7580 C   0  0  0  0  0  3  0  0  0  0  0  0
  1  8  1  0  0  0  0
  1  2  2  0  0  0  0
  2  6  1  0  0  0  0
  3  7  1  0  0  0  0
  3  2  1  0  0  0  0
  4  3  2  0  0  0  0
  5  4  1  0  0  0  0
  5  1  1  0  0  0  0
  8  9  2  0  0  0  0
 10 11  1  0  0  0  0
 10  8  1  0  0  0  0
 11 16  1  0  0  0  0
 12 17  1  0  0  0  0
 12 11  2  0  0  0  0
 13 12  1  0  0  0  0
 14 13  2  0  0  0  0
 14 15  1  0  0  0  0
 15 10  2  0  0  0  0
 18 14  1  0  0  0  0
 19 20  2  0  0  0  0
 19  4  1  0  0  0  0
 21 22  1  0  0  0  0
 21 19  1  0  0  0  0
 22 23  1  0  0  0  0
 24 22  2  0  0  0  0
 25 24  1  0  0  0  0
 26 25  2  0  0  0  0
 27 26  1  0  0  0  0
 28 27  1  0  0  0  0
 29 27  2  0  0  0  0
 29 30  1  0  0  0  0
 30 31  2  0  0  0  0
 31 25  1  0  0  0  0
 31 32  1  0  0  0  0
 32 21  2  0  0  0  0
M  END
>  <minimizedAffinity>
-5.53416395

>  <minimizedRMSD>
1.59301078

$$$$
