
 OpenBabel03272507313D

 32 35  0  0  0  0  0  0  0  0999 V2000
   35.9030   29.2230   49.8350 C   0  0  0  0  0  0  0  0  0  0  0  0
   34.8840   29.6890   50.6290 C   0  0  0  0  0  0  0  0  0  0  0  0
   33.6950   29.1220   50.1440 C   0  0  0  0  0  0  0  0  0  0  0  0
   34.0900   28.3350   49.0660 C   0  0  0  0  0  0  0  0  0  0  0  0
   35.3720   28.4400   48.9450 O   0  0  0  0  0  0  0  0  0  0  0  0
   34.8160   30.3570   51.4910 H   0  0  0  0  0  0  0  0  0  0  0  0
   32.6970   29.2440   50.4950 H   0  0  0  0  0  0  0  0  0  0  0  0
   37.2770   29.6150   50.0620 C   0  0  0  0  0  0  0  0  0  0  0  0
   37.9140   29.0620   50.9850 O   0  0  0  0  0  0  0  0  0  0  0  0
   37.8280   30.6360   49.1930 C   0  0  0  0  0  0  0  0  0  0  0  0
   38.1660   31.8520   49.8020 C   0  0  0  0  0  0  0  0  0  0  0  0
   38.7020   32.8560   48.9830 C   0  0  0  0  0  0  0  0  0  0  0  0
   38.8590   32.5860   47.6460 N   0  0  0  0  0  0  0  0  0  0  0  0
   38.5200   31.4090   47.1110 C   0  0  0  0  0  0  0  0  0  0  0  0
   38.0090   30.4400   47.8730 N   0  0  0  0  0  0  0  0  0  0  0  0
   38.0180   31.9970   50.8550 H   0  0  0  0  0  0  0  0  0  0  0  0
   38.9590   33.7820   49.4470 H   0  0  0  0  0  0  0  0  0  0  0  0
   38.7000   31.3460   46.0470 H   0  0  0  0  0  0  0  0  0  0  0  0
   33.1620   27.5470   48.2480 C   0  0  0  0  0  0  0  0  0  0  0  0
   31.9170   27.5660   48.5060 O   0  0  0  0  0  0  0  0  0  0  0  0
   33.5830   26.7230   47.1320 C   0  0  0  0  0  0  0  0  0  0  0  0
   33.5320   27.3090   45.8610 C   0  0  0  0  0  0  0  0  0  0  0  0
   33.2010   28.3300   45.6610 H   0  0  0  0  0  0  0  0  0  0  0  0
   33.9250   26.5620   44.7450 C   0  0  0  0  0  3  0  0  0  0  0  0
   34.3610   25.2610   44.8920 C   0  0  0  0  0  0  0  0  0  0  0  0
   34.7250   24.5890   43.7850 N   0  0  0  0  0  0  0  0  0  0  0  0
   35.1690   23.2990   43.8240 C   0  0  0  0  0  0  0  0  0  0  0  0
   35.4660   22.7410   42.9530 H   0  0  0  0  0  0  0  0  0  0  0  0
   35.2290   22.7030   45.0550 C   0  0  0  0  0  3  0  0  0  0  0  0
   34.8570   23.3800   46.2040 C   0  0  0  0  0  3  0  0  0  0  0  0
   34.4090   24.6850   46.1550 C   0  0  0  0  0  0  0  0  0  0  0  0
   34.0220   25.4210   47.2460 C   0  0  0  0  0  3  0  0  0  0  0  0
  1  8  1  0  0  0  0
  1  2  2  0  0  0  0
  2  6  1  0  0  0  0
  3  7  1  0  0  0  0
  3  2  1  0  0  0  0
  4  3  2  0  0  0  0
  5  4  1  0  0  0  0
  5  1  1  0  0  0  0
  8  9  2  0  0  0  0
 10 11  1  0  0  0  0
 10  8  1  0  0  0  0
 11 16  1  0  0  0  0
 12 17  1  0  0  0  0
 12 11  2  0  0  0  0
 13 12  1  0  0  0  0
 14 13  2  0  0  0  0
 14 15  1  0  0  0  0
 15 10  2  0  0  0  0
 18 14  1  0  0  0  0
 19 20  2  0  0  0  0
 19  4  1  0  0  0  0
 21 32  1  0  0  0  0
 21 19  1  0  0  0  0
 22 21  2  0  0  0  0
 23 22  1  0  0  0  0
 24 25  2  0  0  0  0
 24 22  1  0  0  0  0
 25 31  1  0  0  0  0
 26 27  2  0  0  0  0
 26 25  1  0  0  0  0
 27 29  1  0  0  0  0
 28 27  1  0  0  0  0
 29 30  2  0  0  0  0
 31 30  1  0  0  0  0
 31 32  2  0  0  0  0
M  END
>  <minimizedAffinity>
-5.62343979

>  <minimizedRMSD>
1.45066333

$$$$
