
 OpenBabel03272508583D

 43 47  0  0  1  0  0  0  0  0999 V2000
   39.1330   31.4210   43.3310 C   0  0  0  0  0  0  0  0  0  0  0  0
   40.1340   30.5020   43.4850 C   0  0  0  0  0  0  0  0  0  0  0  0
   40.8760   30.1620   42.3630 C   0  0  0  0  0  0  0  0  0  0  0  0
   40.5490   30.7790   41.1650 C   0  0  0  0  0  0  0  0  0  0  0  0
   39.5370   31.7090   41.0060 C   0  0  0  0  0  0  0  0  0  0  0  0
   38.8560   31.9960   42.1290 N   0  0  0  0  0  0  0  0  0  0  0  0
   40.3590   30.0390   44.4350 H   0  0  0  0  0  0  0  0  0  0  0  0
   41.6870   29.4470   42.3800 H   0  0  0  0  0  0  0  0  0  0  0  0
   41.1240   30.5200   40.2860 H   0  0  0  0  0  0  0  0  0  0  0  0
   38.3320   31.8380   44.5030 C   0  0  0  0  0  0  0  0  0  0  0  0
   37.2390   32.4010   44.3970 O   0  0  0  0  0  0  0  0  0  0  0  0
   38.9110   31.5430   45.8080 N   0  0  0  0  0  0  0  0  0  0  0  0
   39.8840   31.2480   45.9810 H   0  0  0  0  0  0  0  0  0  0  0  0
   38.4060   31.0740   48.1990 C   0  0  2  0  0  0  0  0  0  0  0  0
   38.6660   32.5340   48.0970 C   0  0  0  0  0  0  0  0  0  0  0  0
   38.0430   31.6770   46.9590 C   0  0  1  0  0  0  0  0  0  0  0  0
   39.3470   30.4800   48.2920 H   0  0  0  0  0  0  0  0  0  0  0  0
   39.6920   32.9010   47.9540 H   0  0  0  0  0  0  0  0  0  0  0  0
   37.9960   33.2940   48.5250 H   0  0  0  0  0  0  0  0  0  0  0  0
   36.9600   31.9130   46.7560 H   0  0  0  0  0  0  0  0  0  0  0  0
   35.0540   30.2360   49.5410 C   0  0  0  0  0  0  0  0  0  0  0  0
   35.3910   29.5700   50.7620 C   0  0  0  0  0  0  0  0  0  0  0  0
   36.7740   29.4290   51.1050 C   0  0  0  0  0  0  0  0  0  0  0  0
   37.7320   29.9330   50.2580 N   0  0  0  0  0  0  0  0  0  0  0  0
   37.3320   30.5530   49.1160 C   0  0  0  0  0  0  0  0  0  0  0  0
   36.0170   30.7230   48.7250 N   0  0  0  0  0  0  0  0  0  0  0  0
   33.9990   30.3220   49.3180 H   0  0  0  0  0  0  0  0  0  0  0  0
   34.6420   29.1790   51.4190 H   0  0  0  0  0  0  0  0  0  0  0  0
   37.0690   28.9420   52.0010 H   0  0  0  0  0  0  0  0  0  0  0  0
   39.2800   32.2890   39.7090 C   0  0  0  0  0  0  0  0  0  0  0  0
   38.6320   33.3620   39.6640 O   0  0  0  0  0  0  0  0  0  0  0  0
   39.7090   31.7360   38.4500 C   0  0  0  0  0  0  0  0  0  0  0  0
   38.9070   30.7680   37.8570 C   0  0  0  0  0  0  0  0  0  0  0  0
   37.9850   30.4580   38.3620 H   0  0  0  0  0  0  0  0  0  0  0  0
   39.1540   30.1280   36.6550 C   0  0  0  0  0  3  0  0  0  0  0  0
   40.3020   30.4780   35.9750 C   0  0  0  0  0  0  0  0  0  0  0  0
   40.5530   29.8660   34.8060 N   0  0  0  0  0  0  0  0  0  0  0  0
   41.6830   30.2040   34.1240 C   0  0  0  0  0  0  0  0  0  0  0  0
   41.8410   29.6790   33.1830 H   0  0  0  0  0  0  0  0  0  0  0  0
   42.5710   31.1640   34.6150 C   0  0  0  0  0  3  0  0  0  0  0  0
   42.2810   31.7850   35.8360 C   0  0  0  0  0  3  0  0  0  0  0  0
   41.1200   31.4350   36.5350 C   0  0  0  0  0  0  0  0  0  0  0  0
   40.8650   32.0680   37.7340 C   0  0  0  0  0  3  0  0  0  0  0  0
  1  2  1  0  0  0  0
  1 10  1  0  0  0  0
  2  7  1  0  0  0  0
  3  8  1  0  0  0  0
  3  2  2  0  0  0  0
  4  3  1  0  0  0  0
  5  4  2  0  0  0  0
  5  6  1  0  0  0  0
  6  1  2  0  0  0  0
  9  4  1  0  0  0  0
 10 12  1  0  0  0  0
 11 10  2  0  0  0  0
 12 13  1  0  0  0  0
 12 16  1  0  0  0  0
 14 17  1  6  0  0  0
 14 25  1  0  0  0  0
 15 14  1  0  0  0  0
 15 19  1  0  0  0  0
 16 20  1  6  0  0  0
 16 15  1  0  0  0  0
 16 14  1  0  0  0  0
 18 15  1  0  0  0  0
 21 22  1  0  0  0  0
 22 23  2  0  0  0  0
 22 28  1  0  0  0  0
 23 29  1  0  0  0  0
 24 23  1  0  0  0  0
 25 24  2  0  0  0  0
 26 25  1  0  0  0  0
 26 21  2  0  0  0  0
 27 21  1  0  0  0  0
 30  5  1  0  0  0  0
 31 30  2  0  0  0  0
 32 30  1  0  0  0  0
 33 34  1  0  0  0  0
 33 32  1  0  0  0  0
 35 33  2  0  0  0  0
 36 42  1  0  0  0  0
 36 35  1  0  0  0  0
 37 36  2  0  0  0  0
 38 40  2  0  0  0  0
 38 37  1  0  0  0  0
 39 38  1  0  0  0  0
 40 41  1  0  0  0  0
 41 42  2  0  0  0  0
 42 43  1  0  0  0  0
 43 32  2  0  0  0  0
M  END
>  <minimizedAffinity>
-4.97272396

>  <minimizedRMSD>
1.01251423

$$$$
