
 OpenBabel03272507313D

 32 35  0  0  0  0  0  0  0  0999 V2000
   35.8130   29.1450   49.8090 C   0  0  0  0  0  0  0  0  0  0  0  0
   34.7390   29.6340   50.5110 C   0  0  0  0  0  0  0  0  0  0  0  0
   33.5910   29.0230   49.9830 C   0  0  0  0  0  0  0  0  0  0  0  0
   34.0640   28.1870   48.9750 C   0  0  0  0  0  0  0  0  0  0  0  0
   35.3500   28.3080   48.9300 O   0  0  0  0  0  0  0  0  0  0  0  0
   34.6070   30.3460   51.3300 H   0  0  0  0  0  0  0  0  0  0  0  0
   32.5710   29.1460   50.2640 H   0  0  0  0  0  0  0  0  0  0  0  0
   37.1640   29.5710   50.0990 C   0  0  0  0  0  0  0  0  0  0  0  0
   37.7610   29.0520   51.0690 O   0  0  0  0  0  0  0  0  0  0  0  0
   37.7410   30.5840   49.2380 C   0  0  0  0  0  0  0  0  0  0  0  0
   38.0700   31.8020   49.8480 C   0  0  0  0  0  0  0  0  0  0  0  0
   38.6300   32.7990   49.0360 C   0  0  0  0  0  0  0  0  0  0  0  0
   38.8170   32.5200   47.7050 N   0  0  0  0  0  0  0  0  0  0  0  0
   38.4860   31.3410   47.1690 C   0  0  0  0  0  0  0  0  0  0  0  0
   37.9520   30.3790   47.9240 N   0  0  0  0  0  0  0  0  0  0  0  0
   37.8970   31.9550   50.8970 H   0  0  0  0  0  0  0  0  0  0  0  0
   38.8800   33.7260   49.5010 H   0  0  0  0  0  0  0  0  0  0  0  0
   38.6920   31.2710   46.1100 H   0  0  0  0  0  0  0  0  0  0  0  0
   33.2010   27.3420   48.1440 C   0  0  0  0  0  0  0  0  0  0  0  0
   31.9590   27.2530   48.4050 O   0  0  0  0  0  0  0  0  0  0  0  0
   33.6830   26.5790   47.0100 C   0  0  0  0  0  0  0  0  0  0  0  0
   33.6830   27.2260   45.7680 C   0  0  0  0  0  0  0  0  0  0  0  0
   33.3490   28.2510   45.6010 H   0  0  0  0  0  0  0  0  0  0  0  0
   34.1370   26.5380   44.6360 C   0  0  0  0  0  3  0  0  0  0  0  0
   34.5810   25.2360   44.7400 C   0  0  0  0  0  0  0  0  0  0  0  0
   35.0060   24.6230   43.6210 N   0  0  0  0  0  0  0  0  0  0  0  0
   35.4630   23.3390   43.6180 C   0  0  0  0  0  0  0  0  0  0  0  0
   35.8080   22.8260   42.7350 H   0  0  0  0  0  0  0  0  0  0  0  0
   35.4750   22.6830   44.8200 C   0  0  0  0  0  3  0  0  0  0  0  0
   35.0410   23.2990   45.9820 C   0  0  0  0  0  3  0  0  0  0  0  0
   34.5800   24.6000   45.9760 C   0  0  0  0  0  0  0  0  0  0  0  0
   34.1330   25.2770   47.0830 C   0  0  0  0  0  3  0  0  0  0  0  0
  1  8  1  0  0  0  0
  1  2  2  0  0  0  0
  2  6  1  0  0  0  0
  3  7  1  0  0  0  0
  3  2  1  0  0  0  0
  4  3  2  0  0  0  0
  5  4  1  0  0  0  0
  5  1  1  0  0  0  0
  8  9  2  0  0  0  0
 10 11  1  0  0  0  0
 10  8  1  0  0  0  0
 11 16  1  0  0  0  0
 12 17  1  0  0  0  0
 12 11  2  0  0  0  0
 13 12  1  0  0  0  0
 14 13  2  0  0  0  0
 14 15  1  0  0  0  0
 15 10  2  0  0  0  0
 18 14  1  0  0  0  0
 19 20  2  0  0  0  0
 19  4  1  0  0  0  0
 21 32  1  0  0  0  0
 21 19  1  0  0  0  0
 22 21  2  0  0  0  0
 23 22  1  0  0  0  0
 24 25  2  0  0  0  0
 24 22  1  0  0  0  0
 25 31  1  0  0  0  0
 26 25  1  0  0  0  0
 27 26  2  0  0  0  0
 27 29  1  0  0  0  0
 28 27  1  0  0  0  0
 29 30  2  0  0  0  0
 31 30  1  0  0  0  0
 31 32  2  0  0  0  0
M  END
>  <minimizedAffinity>
-5.61478901

>  <minimizedRMSD>
1.15829015

$$$$
