
 OpenBabel03272507303D

 32 35  0  0  0  0  0  0  0  0999 V2000
   35.8590   29.2130   49.7970 C   0  0  0  0  0  0  0  0  0  0  0  0
   34.8070   29.6570   50.5590 C   0  0  0  0  0  0  0  0  0  0  0  0
   33.6500   29.0400   50.0590 C   0  0  0  0  0  0  0  0  0  0  0  0
   34.0950   28.2470   49.0060 C   0  0  0  0  0  0  0  0  0  0  0  0
   35.3750   28.3950   48.9110 O   0  0  0  0  0  0  0  0  0  0  0  0
   34.6970   30.3390   51.4060 H   0  0  0  0  0  0  0  0  0  0  0  0
   32.6400   29.1340   50.3860 H   0  0  0  0  0  0  0  0  0  0  0  0
   37.2130   29.6560   50.0460 C   0  0  0  0  0  0  0  0  0  0  0  0
   37.8260   29.1890   51.0320 O   0  0  0  0  0  0  0  0  0  0  0  0
   37.7750   30.6230   49.1240 C   0  0  0  0  0  0  0  0  0  0  0  0
   38.1460   31.8580   49.6730 C   0  0  0  0  0  0  0  0  0  0  0  0
   38.6920   32.8130   48.8030 C   0  0  0  0  0  0  0  0  0  0  0  0
   38.8270   32.4790   47.4780 N   0  0  0  0  0  0  0  0  0  0  0  0
   38.4560   31.2850   47.0020 C   0  0  0  0  0  0  0  0  0  0  0  0
   37.9350   30.3630   47.8130 N   0  0  0  0  0  0  0  0  0  0  0  0
   38.0140   32.0550   50.7200 H   0  0  0  0  0  0  0  0  0  0  0  0
   38.9740   33.7530   49.2210 H   0  0  0  0  0  0  0  0  0  0  0  0
   38.6220   31.1700   45.9400 H   0  0  0  0  0  0  0  0  0  0  0  0
   33.2130   27.4130   48.1830 C   0  0  0  0  0  0  0  0  0  0  0  0
   32.0000   27.2430   48.5260 O   0  0  0  0  0  0  0  0  0  0  0  0
   33.6460   26.7490   46.9700 C   0  0  0  0  0  0  0  0  0  0  0  0
   33.8880   25.3720   47.0570 C   0  0  0  0  0  0  0  0  0  0  0  0
   33.7740   24.7770   47.9640 H   0  0  0  0  0  0  0  0  0  0  0  0
   34.3080   24.6770   45.9160 C   0  0  0  0  0  3  0  0  0  0  0  0
   34.4830   25.3370   44.7180 C   0  0  0  0  0  0  0  0  0  0  0  0
   34.8880   24.6210   43.6540 N   0  0  0  0  0  0  0  0  0  0  0  0
   35.0900   25.1810   42.4270 C   0  0  0  0  0  0  0  0  0  0  0  0
   35.4150   24.6280   41.5620 H   0  0  0  0  0  0  0  0  0  0  0  0
   34.8600   26.5260   42.3150 C   0  0  0  0  0  3  0  0  0  0  0  0
   34.4410   27.2780   43.4000 C   0  0  0  0  0  3  0  0  0  0  0  0
   34.2410   26.7040   44.6380 C   0  0  0  0  0  0  0  0  0  0  0  0
   33.8290   27.3820   45.7580 C   0  0  0  0  0  3  0  0  0  0  0  0
  1  8  1  0  0  0  0
  1  2  2  0  0  0  0
  2  6  1  0  0  0  0
  3  7  1  0  0  0  0
  3  2  1  0  0  0  0
  4  3  2  0  0  0  0
  5  4  1  0  0  0  0
  5  1  1  0  0  0  0
  8  9  2  0  0  0  0
 10 11  1  0  0  0  0
 10  8  1  0  0  0  0
 11 16  1  0  0  0  0
 12 17  1  0  0  0  0
 12 11  2  0  0  0  0
 13 12  1  0  0  0  0
 14 13  2  0  0  0  0
 14 15  1  0  0  0  0
 15 10  2  0  0  0  0
 18 14  1  0  0  0  0
 19 20  2  0  0  0  0
 19  4  1  0  0  0  0
 21 22  1  0  0  0  0
 21 19  1  0  0  0  0
 22 23  1  0  0  0  0
 24 22  2  0  0  0  0
 25 24  1  0  0  0  0
 26 25  2  0  0  0  0
 27 26  1  0  0  0  0
 28 27  1  0  0  0  0
 29 27  2  0  0  0  0
 29 30  1  0  0  0  0
 30 31  2  0  0  0  0
 31 25  1  0  0  0  0
 31 32  1  0  0  0  0
 32 21  2  0  0  0  0
M  END
>  <minimizedAffinity>
-5.53206396

>  <minimizedRMSD>
1.4242599

$$$$
