
 OpenBabel03272508583D

 43 47  0  0  1  0  0  0  0  0999 V2000
   39.1410   31.3840   43.3540 C   0  0  0  0  0  0  0  0  0  0  0  0
   40.1490   30.4760   43.5210 C   0  0  0  0  0  0  0  0  0  0  0  0
   40.8960   30.1290   42.4050 C   0  0  0  0  0  0  0  0  0  0  0  0
   40.5670   30.7290   41.1990 C   0  0  0  0  0  0  0  0  0  0  0  0
   39.5480   31.6490   41.0270 C   0  0  0  0  0  0  0  0  0  0  0  0
   38.8610   31.9430   42.1450 N   0  0  0  0  0  0  0  0  0  0  0  0
   40.3770   30.0260   44.4770 H   0  0  0  0  0  0  0  0  0  0  0  0
   41.7130   29.4210   42.4310 H   0  0  0  0  0  0  0  0  0  0  0  0
   41.1450   30.4650   40.3240 H   0  0  0  0  0  0  0  0  0  0  0  0
   38.3340   31.8090   44.5200 C   0  0  0  0  0  0  0  0  0  0  0  0
   37.2400   32.3680   44.4050 O   0  0  0  0  0  0  0  0  0  0  0  0
   38.9090   31.5240   45.8300 N   0  0  0  0  0  0  0  0  0  0  0  0
   39.8810   31.2340   46.0090 H   0  0  0  0  0  0  0  0  0  0  0  0
   38.3960   31.0760   48.2230 C   0  0  2  0  0  0  0  0  0  0  0  0
   38.6490   32.5360   48.1080 C   0  0  0  0  0  0  0  0  0  0  0  0
   38.0350   31.6650   46.9750 C   0  0  1  0  0  0  0  0  0  0  0  0
   39.3400   30.4880   48.3250 H   0  0  0  0  0  0  0  0  0  0  0  0
   39.6730   32.9070   47.9650 H   0  0  0  0  0  0  0  0  0  0  0  0
   37.9740   33.2970   48.5260 H   0  0  0  0  0  0  0  0  0  0  0  0
   36.9520   31.8940   46.7660 H   0  0  0  0  0  0  0  0  0  0  0  0
   35.0440   30.2110   49.5490 C   0  0  0  0  0  0  0  0  0  0  0  0
   35.3790   29.5820   50.7900 C   0  0  0  0  0  0  0  0  0  0  0  0
   36.7610   29.4740   51.1510 C   0  0  0  0  0  0  0  0  0  0  0  0
   37.7190   29.9750   50.3020 N   0  0  0  0  0  0  0  0  0  0  0  0
   37.3210   30.5590   49.1400 C   0  0  0  0  0  0  0  0  0  0  0  0
   36.0080   30.6950   48.7310 N   0  0  0  0  0  0  0  0  0  0  0  0
   33.9910   30.2730   49.3120 H   0  0  0  0  0  0  0  0  0  0  0  0
   34.6300   29.1930   51.4470 H   0  0  0  0  0  0  0  0  0  0  0  0
   37.0540   29.0150   52.0620 H   0  0  0  0  0  0  0  0  0  0  0  0
   39.2880   32.2110   39.7230 C   0  0  0  0  0  0  0  0  0  0  0  0
   38.6870   33.3100   39.6660 O   0  0  0  0  0  0  0  0  0  0  0  0
   39.6650   31.6120   38.4680 C   0  0  0  0  0  0  0  0  0  0  0  0
   40.7360   32.1670   37.7770 C   0  0  0  0  0  0  0  0  0  0  0  0
   41.2520   33.0340   38.2050 H   0  0  0  0  0  0  0  0  0  0  0  0
   41.2410   31.7300   36.5660 C   0  0  0  0  0  3  0  0  0  0  0  0
   40.6300   30.6410   35.9800 C   0  0  0  0  0  0  0  0  0  0  0  0
   41.1100   30.2060   34.8040 N   0  0  0  0  0  0  0  0  0  0  0  0
   40.5140   29.1300   34.2170 C   0  0  0  0  0  0  0  0  0  0  0  0
   40.9410   28.8160   33.2650 H   0  0  0  0  0  0  0  0  0  0  0  0
   39.4280   28.4840   34.8110 C   0  0  0  0  0  3  0  0  0  0  0  0
   38.9490   28.9610   36.0360 C   0  0  0  0  0  3  0  0  0  0  0  0
   39.5630   30.0660   36.6390 C   0  0  0  0  0  0  0  0  0  0  0  0
   39.0670   30.5090   37.8460 C   0  0  0  0  0  3  0  0  0  0  0  0
  1  2  1  0  0  0  0
  1 10  1  0  0  0  0
  2  7  1  0  0  0  0
  3  8  1  0  0  0  0
  3  2  2  0  0  0  0
  4  3  1  0  0  0  0
  5  4  2  0  0  0  0
  5  6  1  0  0  0  0
  6  1  2  0  0  0  0
  9  4  1  0  0  0  0
 10 12  1  0  0  0  0
 11 10  2  0  0  0  0
 12 13  1  0  0  0  0
 12 16  1  0  0  0  0
 14 17  1  6  0  0  0
 14 25  1  0  0  0  0
 15 14  1  0  0  0  0
 15 19  1  0  0  0  0
 16 20  1  6  0  0  0
 16 15  1  0  0  0  0
 16 14  1  0  0  0  0
 18 15  1  0  0  0  0
 21 22  1  0  0  0  0
 22 23  2  0  0  0  0
 22 28  1  0  0  0  0
 23 29  1  0  0  0  0
 24 23  1  0  0  0  0
 25 24  2  0  0  0  0
 26 25  1  0  0  0  0
 26 21  2  0  0  0  0
 27 21  1  0  0  0  0
 30  5  1  0  0  0  0
 31 30  2  0  0  0  0
 32 30  1  0  0  0  0
 33 34  1  0  0  0  0
 33 32  2  0  0  0  0
 35 33  1  0  0  0  0
 36 35  2  0  0  0  0
 36 42  1  0  0  0  0
 37 36  1  0  0  0  0
 38 37  2  0  0  0  0
 38 40  1  0  0  0  0
 39 38  1  0  0  0  0
 40 41  2  0  0  0  0
 41 42  1  0  0  0  0
 42 43  2  0  0  0  0
 43 32  1  0  0  0  0
M  END
>  <minimizedAffinity>
-4.93317032

>  <minimizedRMSD>
0.699232221

$$$$
