
 OpenBabel03272508583D

 43 47  0  0  1  0  0  0  0  0999 V2000
   39.1310   31.4060   43.3320 C   0  0  0  0  0  0  0  0  0  0  0  0
   40.1330   30.4890   43.4890 C   0  0  0  0  0  0  0  0  0  0  0  0
   40.8770   30.1490   42.3690 C   0  0  0  0  0  0  0  0  0  0  0  0
   40.5520   30.7650   41.1700 C   0  0  0  0  0  0  0  0  0  0  0  0
   39.5390   31.6930   41.0080 C   0  0  0  0  0  0  0  0  0  0  0  0
   38.8550   31.9800   42.1290 N   0  0  0  0  0  0  0  0  0  0  0  0
   40.3570   30.0280   44.4410 H   0  0  0  0  0  0  0  0  0  0  0  0
   41.6900   29.4360   42.3880 H   0  0  0  0  0  0  0  0  0  0  0  0
   41.1290   30.5050   40.2920 H   0  0  0  0  0  0  0  0  0  0  0  0
   38.3260   31.8230   44.5020 C   0  0  0  0  0  0  0  0  0  0  0  0
   37.2290   32.3760   44.3940 O   0  0  0  0  0  0  0  0  0  0  0  0
   38.9090   31.5410   45.8090 N   0  0  0  0  0  0  0  0  0  0  0  0
   39.8840   31.2560   45.9830 H   0  0  0  0  0  0  0  0  0  0  0  0
   38.4050   31.0740   48.2010 C   0  0  2  0  0  0  0  0  0  0  0  0
   38.6610   32.5350   48.0970 C   0  0  0  0  0  0  0  0  0  0  0  0
   38.0410   31.6740   46.9590 C   0  0  1  0  0  0  0  0  0  0  0  0
   39.3480   30.4830   48.2940 H   0  0  0  0  0  0  0  0  0  0  0  0
   39.6850   32.9050   47.9530 H   0  0  0  0  0  0  0  0  0  0  0  0
   37.9890   33.2930   48.5230 H   0  0  0  0  0  0  0  0  0  0  0  0
   36.9570   31.9070   46.7560 H   0  0  0  0  0  0  0  0  0  0  0  0
   35.0560   30.2240   49.5420 C   0  0  0  0  0  0  0  0  0  0  0  0
   35.3940   29.5660   50.7660 C   0  0  0  0  0  0  0  0  0  0  0  0
   36.7780   29.4340   51.1120 C   0  0  0  0  0  0  0  0  0  0  0  0
   37.7340   29.9390   50.2640 N   0  0  0  0  0  0  0  0  0  0  0  0
   37.3330   30.5520   49.1180 C   0  0  0  0  0  0  0  0  0  0  0  0
   36.0170   30.7130   48.7240 N   0  0  0  0  0  0  0  0  0  0  0  0
   34.0010   30.3040   49.3160 H   0  0  0  0  0  0  0  0  0  0  0  0
   34.6470   29.1730   51.4230 H   0  0  0  0  0  0  0  0  0  0  0  0
   37.0740   28.9520   52.0100 H   0  0  0  0  0  0  0  0  0  0  0  0
   39.2820   32.2700   39.7100 C   0  0  0  0  0  0  0  0  0  0  0  0
   38.6310   33.3400   39.6620 O   0  0  0  0  0  0  0  0  0  0  0  0
   39.7180   31.7180   38.4520 C   0  0  0  0  0  0  0  0  0  0  0  0
   38.9100   30.7600   37.8490 C   0  0  0  0  0  0  0  0  0  0  0  0
   37.9800   30.4590   38.3440 H   0  0  0  0  0  0  0  0  0  0  0  0
   39.1600   30.1230   36.6470 C   0  0  0  0  0  3  0  0  0  0  0  0
   40.3160   30.4620   35.9770 C   0  0  0  0  0  0  0  0  0  0  0  0
   40.5710   29.8520   34.8080 N   0  0  0  0  0  0  0  0  0  0  0  0
   41.7110   30.1800   34.1380 C   0  0  0  0  0  0  0  0  0  0  0  0
   41.8700   29.6570   33.1960 H   0  0  0  0  0  0  0  0  0  0  0  0
   42.6050   31.1280   34.6400 C   0  0  0  0  0  3  0  0  0  0  0  0
   42.3130   31.7470   35.8610 C   0  0  0  0  0  3  0  0  0  0  0  0
   41.1410   31.4090   36.5490 C   0  0  0  0  0  0  0  0  0  0  0  0
   40.8830   32.0390   37.7480 C   0  0  0  0  0  3  0  0  0  0  0  0
  1  2  1  0  0  0  0
  1 10  1  0  0  0  0
  2  7  1  0  0  0  0
  3  8  1  0  0  0  0
  3  2  2  0  0  0  0
  4  3  1  0  0  0  0
  5  4  2  0  0  0  0
  5  6  1  0  0  0  0
  6  1  2  0  0  0  0
  9  4  1  0  0  0  0
 10 12  1  0  0  0  0
 11 10  2  0  0  0  0
 12 13  1  0  0  0  0
 12 16  1  0  0  0  0
 14 17  1  6  0  0  0
 14 25  1  0  0  0  0
 15 14  1  0  0  0  0
 15 19  1  0  0  0  0
 16 20  1  6  0  0  0
 16 15  1  0  0  0  0
 16 14  1  0  0  0  0
 18 15  1  0  0  0  0
 21 22  1  0  0  0  0
 22 23  2  0  0  0  0
 22 28  1  0  0  0  0
 23 29  1  0  0  0  0
 24 23  1  0  0  0  0
 25 24  2  0  0  0  0
 26 25  1  0  0  0  0
 26 21  2  0  0  0  0
 27 21  1  0  0  0  0
 30  5  1  0  0  0  0
 31 30  2  0  0  0  0
 32 30  1  0  0  0  0
 33 34  1  0  0  0  0
 33 32  1  0  0  0  0
 35 33  2  0  0  0  0
 36 42  1  0  0  0  0
 36 35  1  0  0  0  0
 37 36  2  0  0  0  0
 38 40  2  0  0  0  0
 38 37  1  0  0  0  0
 39 38  1  0  0  0  0
 40 41  1  0  0  0  0
 41 42  2  0  0  0  0
 42 43  1  0  0  0  0
 43 32  2  0  0  0  0
M  END
>  <minimizedAffinity>
-4.97117138

>  <minimizedRMSD>
0.564221859

$$$$
