
 OpenBabel03272508583D

 43 47  0  0  1  0  0  0  0  0999 V2000
   39.1720   31.4180   43.3580 C   0  0  0  0  0  0  0  0  0  0  0  0
   40.1760   30.4930   43.4380 C   0  0  0  0  0  0  0  0  0  0  0  0
   40.8710   30.1930   42.2770 C   0  0  0  0  0  0  0  0  0  0  0  0
   40.4990   30.8530   41.1160 C   0  0  0  0  0  0  0  0  0  0  0  0
   39.4840   31.7900   41.0310 C   0  0  0  0  0  0  0  0  0  0  0  0
   38.8490   32.0370   42.1890 N   0  0  0  0  0  0  0  0  0  0  0  0
   40.4370   29.9960   44.3620 H   0  0  0  0  0  0  0  0  0  0  0  0
   41.6800   29.4760   42.2350 H   0  0  0  0  0  0  0  0  0  0  0  0
   41.0370   30.6250   40.2060 H   0  0  0  0  0  0  0  0  0  0  0  0
   38.4200   31.7950   44.5750 C   0  0  0  0  0  0  0  0  0  0  0  0
   37.3400   32.3900   44.5340 O   0  0  0  0  0  0  0  0  0  0  0  0
   39.0320   31.4190   45.8440 N   0  0  0  0  0  0  0  0  0  0  0  0
   40.0010   31.0920   45.9700 H   0  0  0  0  0  0  0  0  0  0  0  0
   38.7170   31.0970   48.2910 C   0  0  2  0  0  0  0  0  0  0  0  0
   38.7230   32.5640   48.0520 C   0  0  0  0  0  0  0  0  0  0  0  0
   38.2050   31.5150   47.0280 C   0  0  1  0  0  0  0  0  0  0  0  0
   39.7480   30.6760   48.3790 H   0  0  0  0  0  0  0  0  0  0  0  0
   39.6650   33.0790   47.8190 H   0  0  0  0  0  0  0  0  0  0  0  0
   37.9540   33.2410   48.4530 H   0  0  0  0  0  0  0  0  0  0  0  0
   37.0900   31.5510   46.8690 H   0  0  0  0  0  0  0  0  0  0  0  0
   35.9000   29.1880   49.7610 C   0  0  0  0  0  0  0  0  0  0  0  0
   36.1280   29.3720   51.1620 C   0  0  0  0  0  0  0  0  0  0  0  0
   37.2490   30.1620   51.5750 C   0  0  0  0  0  0  0  0  0  0  0  0
   38.0690   30.7160   50.6210 N   0  0  0  0  0  0  0  0  0  0  0  0
   37.7870   30.4950   49.3100 C   0  0  0  0  0  0  0  0  0  0  0  0
   36.7230   29.7440   48.8430 N   0  0  0  0  0  0  0  0  0  0  0  0
   35.0440   28.5850   49.4900 H   0  0  0  0  0  0  0  0  0  0  0  0
   35.4870   28.9380   51.9010 H   0  0  0  0  0  0  0  0  0  0  0  0
   37.4550   30.3240   52.6040 H   0  0  0  0  0  0  0  0  0  0  0  0
   39.1770   32.4160   39.7660 C   0  0  0  0  0  0  0  0  0  0  0  0
   38.6690   33.5620   39.7870 O   0  0  0  0  0  0  0  0  0  0  0  0
   39.4080   31.8320   38.4700 C   0  0  0  0  0  0  0  0  0  0  0  0
   40.4290   32.3630   37.6900 C   0  0  0  0  0  0  0  0  0  0  0  0
   41.0150   33.2010   38.0800 H   0  0  0  0  0  0  0  0  0  0  0  0
   40.7960   31.9340   36.4260 C   0  0  0  0  0  3  0  0  0  0  0  0
   40.0910   30.8810   35.8840 C   0  0  0  0  0  0  0  0  0  0  0  0
   40.4380   30.4540   34.6580 N   0  0  0  0  0  0  0  0  0  0  0  0
   39.7480   29.4140   34.1120 C   0  0  0  0  0  0  0  0  0  0  0  0
   40.0690   29.1060   33.1180 H   0  0  0  0  0  0  0  0  0  0  0  0
   38.7010   28.7940   34.7970 C   0  0  0  0  0  3  0  0  0  0  0  0
   38.3620   29.2610   36.0720 C   0  0  0  0  0  3  0  0  0  0  0  0
   39.0720   30.3310   36.6320 C   0  0  0  0  0  0  0  0  0  0  0  0
   38.7120   30.7650   37.8910 C   0  0  0  0  0  3  0  0  0  0  0  0
  1  2  1  0  0  0  0
  1 10  1  0  0  0  0
  2  7  1  0  0  0  0
  3  2  2  0  0  0  0
  4  3  1  0  0  0  0
  5  4  2  0  0  0  0
  5  6  1  0  0  0  0
  6  1  2  0  0  0  0
  8  3  1  0  0  0  0
  9  4  1  0  0  0  0
 10 12  1  0  0  0  0
 11 10  2  0  0  0  0
 12 13  1  0  0  0  0
 12 16  1  0  0  0  0
 14 17  1  6  0  0  0
 14 25  1  0  0  0  0
 15 14  1  0  0  0  0
 15 19  1  0  0  0  0
 16 20  1  6  0  0  0
 16 15  1  0  0  0  0
 16 14  1  0  0  0  0
 18 15  1  0  0  0  0
 21 22  1  0  0  0  0
 22 23  2  0  0  0  0
 22 28  1  0  0  0  0
 23 29  1  0  0  0  0
 24 23  1  0  0  0  0
 25 24  2  0  0  0  0
 26 25  1  0  0  0  0
 26 21  2  0  0  0  0
 27 21  1  0  0  0  0
 30 31  2  0  0  0  0
 30  5  1  0  0  0  0
 32 30  1  0  0  0  0
 33 34  1  0  0  0  0
 33 32  2  0  0  0  0
 35 33  1  0  0  0  0
 36 35  2  0  0  0  0
 36 42  1  0  0  0  0
 37 36  1  0  0  0  0
 38 37  2  0  0  0  0
 38 40  1  0  0  0  0
 39 38  1  0  0  0  0
 40 41  2  0  0  0  0
 41 42  1  0  0  0  0
 42 43  2  0  0  0  0
 43 32  1  0  0  0  0
M  END
>  <minimizedAffinity>
-5.05244017

>  <minimizedRMSD>
0.949997902

$$$$
