
 OpenBabel03272508583D

 43 47  0  0  1  0  0  0  0  0999 V2000
   39.1680   31.3900   43.3500 C   0  0  0  0  0  0  0  0  0  0  0  0
   40.1710   30.4760   43.5120 C   0  0  0  0  0  0  0  0  0  0  0  0
   40.9080   30.1200   42.3920 C   0  0  0  0  0  0  0  0  0  0  0  0
   40.5730   30.7190   41.1860 C   0  0  0  0  0  0  0  0  0  0  0  0
   39.5590   31.6440   41.0190 C   0  0  0  0  0  0  0  0  0  0  0  0
   38.8830   31.9470   42.1400 N   0  0  0  0  0  0  0  0  0  0  0  0
   40.4030   30.0280   44.4680 H   0  0  0  0  0  0  0  0  0  0  0  0
   41.7200   29.4070   42.4150 H   0  0  0  0  0  0  0  0  0  0  0  0
   41.1440   30.4470   40.3080 H   0  0  0  0  0  0  0  0  0  0  0  0
   38.3720   31.8240   44.5200 C   0  0  0  0  0  0  0  0  0  0  0  0
   37.3100   32.4430   44.4110 O   0  0  0  0  0  0  0  0  0  0  0  0
   38.9190   31.4760   45.8260 N   0  0  0  0  0  0  0  0  0  0  0  0
   39.8730   31.1300   46.0050 H   0  0  0  0  0  0  0  0  0  0  0  0
   38.3990   31.0540   48.2230 C   0  0  2  0  0  0  0  0  0  0  0  0
   38.6550   32.5120   48.0930 C   0  0  0  0  0  0  0  0  0  0  0  0
   38.0430   31.6300   46.9680 C   0  0  1  0  0  0  0  0  0  0  0  0
   39.3420   30.4650   48.3340 H   0  0  0  0  0  0  0  0  0  0  0  0
   39.6810   32.8800   47.9490 H   0  0  0  0  0  0  0  0  0  0  0  0
   37.9810   33.2790   48.5010 H   0  0  0  0  0  0  0  0  0  0  0  0
   36.9610   31.8590   46.7530 H   0  0  0  0  0  0  0  0  0  0  0  0
   35.0420   30.2170   49.5530 C   0  0  0  0  0  0  0  0  0  0  0  0
   35.3730   29.5930   50.7970 C   0  0  0  0  0  0  0  0  0  0  0  0
   36.7540   29.4790   51.1600 C   0  0  0  0  0  0  0  0  0  0  0  0
   37.7150   29.9690   50.3080 N   0  0  0  0  0  0  0  0  0  0  0  0
   37.3210   30.5480   49.1430 C   0  0  0  0  0  0  0  0  0  0  0  0
   36.0080   30.6910   48.7320 N   0  0  0  0  0  0  0  0  0  0  0  0
   33.9890   30.2830   49.3150 H   0  0  0  0  0  0  0  0  0  0  0  0
   34.6210   29.2130   51.4570 H   0  0  0  0  0  0  0  0  0  0  0  0
   37.0440   29.0230   52.0730 H   0  0  0  0  0  0  0  0  0  0  0  0
   39.2940   32.2030   39.7140 C   0  0  0  0  0  0  0  0  0  0  0  0
   38.6820   33.2970   39.6580 O   0  0  0  0  0  0  0  0  0  0  0  0
   39.6760   31.6080   38.4600 C   0  0  0  0  0  0  0  0  0  0  0  0
   40.7510   32.1680   37.7760 C   0  0  0  0  0  0  0  0  0  0  0  0
   41.2630   33.0330   38.2080 H   0  0  0  0  0  0  0  0  0  0  0  0
   41.2610   31.7340   36.5650 C   0  0  0  0  0  3  0  0  0  0  0  0
   40.6540   30.6480   35.9730 C   0  0  0  0  0  0  0  0  0  0  0  0
   41.1400   30.2160   34.7980 N   0  0  0  0  0  0  0  0  0  0  0  0
   40.5490   29.1430   34.2040 C   0  0  0  0  0  0  0  0  0  0  0  0
   40.9800   28.8320   33.2530 H   0  0  0  0  0  0  0  0  0  0  0  0
   39.4600   28.4930   34.7900 C   0  0  0  0  0  3  0  0  0  0  0  0
   38.9750   28.9650   36.0150 C   0  0  0  0  0  3  0  0  0  0  0  0
   39.5850   30.0690   36.6240 C   0  0  0  0  0  0  0  0  0  0  0  0
   39.0820   30.5070   37.8310 C   0  0  0  0  0  3  0  0  0  0  0  0
  1  2  1  0  0  0  0
  1 10  1  0  0  0  0
  2  7  1  0  0  0  0
  3  8  1  0  0  0  0
  3  2  2  0  0  0  0
  4  3  1  0  0  0  0
  5  4  2  0  0  0  0
  5  6  1  0  0  0  0
  6  1  2  0  0  0  0
  9  4  1  0  0  0  0
 10 12  1  0  0  0  0
 11 10  2  0  0  0  0
 12 13  1  0  0  0  0
 12 16  1  0  0  0  0
 14 17  1  6  0  0  0
 14 25  1  0  0  0  0
 15 14  1  0  0  0  0
 15 19  1  0  0  0  0
 16 20  1  6  0  0  0
 16 15  1  0  0  0  0
 16 14  1  0  0  0  0
 18 15  1  0  0  0  0
 21 22  1  0  0  0  0
 22 23  2  0  0  0  0
 22 28  1  0  0  0  0
 23 29  1  0  0  0  0
 24 23  1  0  0  0  0
 25 24  2  0  0  0  0
 26 25  1  0  0  0  0
 26 21  2  0  0  0  0
 27 21  1  0  0  0  0
 30  5  1  0  0  0  0
 31 30  2  0  0  0  0
 32 30  1  0  0  0  0
 33 34  1  0  0  0  0
 33 32  2  0  0  0  0
 35 33  1  0  0  0  0
 36 35  2  0  0  0  0
 36 42  1  0  0  0  0
 37 36  1  0  0  0  0
 38 40  1  0  0  0  0
 38 37  2  0  0  0  0
 39 38  1  0  0  0  0
 40 41  2  0  0  0  0
 41 42  1  0  0  0  0
 42 43  2  0  0  0  0
 43 32  1  0  0  0  0
M  END
>  <minimizedAffinity>
-4.93567324

>  <minimizedRMSD>
0.667502999

$$$$
