
 OpenBabel03272508583D

 43 47  0  0  1  0  0  0  0  0999 V2000
   39.1220   31.4630   43.3050 C   0  0  0  0  0  0  0  0  0  0  0  0
   40.1220   30.5410   43.4440 C   0  0  0  0  0  0  0  0  0  0  0  0
   40.8540   30.2070   42.3140 C   0  0  0  0  0  0  0  0  0  0  0  0
   40.5180   30.8330   41.1230 C   0  0  0  0  0  0  0  0  0  0  0  0
   39.5080   31.7670   40.9790 C   0  0  0  0  0  0  0  0  0  0  0  0
   38.8360   32.0470   42.1090 N   0  0  0  0  0  0  0  0  0  0  0  0
   40.3540   30.0710   44.3900 H   0  0  0  0  0  0  0  0  0  0  0  0
   41.6630   29.4900   42.3190 H   0  0  0  0  0  0  0  0  0  0  0  0
   41.0860   30.5790   40.2370 H   0  0  0  0  0  0  0  0  0  0  0  0
   38.3310   31.8740   44.4860 C   0  0  0  0  0  0  0  0  0  0  0  0
   37.2450   32.4510   44.3930 O   0  0  0  0  0  0  0  0  0  0  0  0
   38.9140   31.5550   45.7850 N   0  0  0  0  0  0  0  0  0  0  0  0
   39.8830   31.2470   45.9490 H   0  0  0  0  0  0  0  0  0  0  0  0
   38.4170   31.0640   48.1730 C   0  0  2  0  0  0  0  0  0  0  0  0
   38.6880   32.5230   48.0850 C   0  0  0  0  0  0  0  0  0  0  0  0
   38.0530   31.6840   46.9410 C   0  0  1  0  0  0  0  0  0  0  0  0
   39.3540   30.4620   48.2550 H   0  0  0  0  0  0  0  0  0  0  0  0
   39.7160   32.8840   47.9400 H   0  0  0  0  0  0  0  0  0  0  0  0
   38.0270   33.2840   48.5250 H   0  0  0  0  0  0  0  0  0  0  0  0
   36.9710   31.9310   46.7470 H   0  0  0  0  0  0  0  0  0  0  0  0
   35.0660   30.2280   49.5190 C   0  0  0  0  0  0  0  0  0  0  0  0
   35.4040   29.5580   50.7370 C   0  0  0  0  0  0  0  0  0  0  0  0
   36.7880   29.4130   51.0770 C   0  0  0  0  0  0  0  0  0  0  0  0
   37.7450   29.9180   50.2300 N   0  0  0  0  0  0  0  0  0  0  0  0
   37.3440   30.5430   49.0900 C   0  0  0  0  0  0  0  0  0  0  0  0
   36.0280   30.7160   48.7020 N   0  0  0  0  0  0  0  0  0  0  0  0
   34.0110   30.3170   49.2980 H   0  0  0  0  0  0  0  0  0  0  0  0
   34.6560   29.1660   51.3930 H   0  0  0  0  0  0  0  0  0  0  0  0
   37.0830   28.9220   51.9710 H   0  0  0  0  0  0  0  0  0  0  0  0
   39.2410   32.3550   39.6880 C   0  0  0  0  0  0  0  0  0  0  0  0
   38.6860   33.4800   39.6590 O   0  0  0  0  0  0  0  0  0  0  0  0
   39.5620   31.7570   38.4170 C   0  0  0  0  0  0  0  0  0  0  0  0
   40.6250   32.2900   37.6980 C   0  0  0  0  0  0  0  0  0  0  0  0
   41.1760   33.1400   38.1150 H   0  0  0  0  0  0  0  0  0  0  0  0
   41.0790   31.8510   36.4670 C   0  0  0  0  0  3  0  0  0  0  0  0
   40.4210   30.7830   35.8930 C   0  0  0  0  0  0  0  0  0  0  0  0
   40.8520   30.3450   34.6980 N   0  0  0  0  0  0  0  0  0  0  0  0
   40.2100   29.2910   34.1220 C   0  0  0  0  0  0  0  0  0  0  0  0
   40.5980   28.9750   33.1540 H   0  0  0  0  0  0  0  0  0  0  0  0
   39.1270   28.6670   34.7450 C   0  0  0  0  0  3  0  0  0  0  0  0
   38.7010   29.1460   35.9890 C   0  0  0  0  0  3  0  0  0  0  0  0
   39.3620   30.2300   36.5800 C   0  0  0  0  0  0  0  0  0  0  0  0
   38.9160   30.6760   37.8070 C   0  0  0  0  0  3  0  0  0  0  0  0
  1  2  1  0  0  0  0
  1 10  1  0  0  0  0
  2  7  1  0  0  0  0
  3  8  1  0  0  0  0
  3  2  2  0  0  0  0
  4  3  1  0  0  0  0
  5  4  2  0  0  0  0
  5  6  1  0  0  0  0
  6  1  2  0  0  0  0
  9  4  1  0  0  0  0
 10 12  1  0  0  0  0
 11 10  2  0  0  0  0
 12 13  1  0  0  0  0
 12 16  1  0  0  0  0
 14 17  1  6  0  0  0
 14 25  1  0  0  0  0
 15 14  1  0  0  0  0
 15 19  1  0  0  0  0
 16 20  1  6  0  0  0
 16 15  1  0  0  0  0
 16 14  1  0  0  0  0
 18 15  1  0  0  0  0
 21 22  1  0  0  0  0
 22 23  2  0  0  0  0
 22 28  1  0  0  0  0
 23 29  1  0  0  0  0
 24 23  1  0  0  0  0
 25 24  2  0  0  0  0
 26 25  1  0  0  0  0
 26 21  2  0  0  0  0
 27 21  1  0  0  0  0
 30  5  1  0  0  0  0
 31 30  2  0  0  0  0
 32 30  1  0  0  0  0
 33 34  1  0  0  0  0
 33 32  2  0  0  0  0
 35 33  1  0  0  0  0
 36 35  2  0  0  0  0
 36 42  1  0  0  0  0
 37 36  1  0  0  0  0
 38 37  2  0  0  0  0
 38 40  1  0  0  0  0
 39 38  1  0  0  0  0
 40 41  2  0  0  0  0
 41 42  1  0  0  0  0
 42 43  2  0  0  0  0
 43 32  1  0  0  0  0
M  END
>  <minimizedAffinity>
-4.92845488

>  <minimizedRMSD>
0.304690272

$$$$
