
 OpenBabel03272503253D

 35 38  0  0  1  0  0  0  0  0999 V2000
   37.6110   26.6080   32.4280 N   0  0  0  0  0  0  0  0  0  0  0  0
   36.3660   26.5300   31.7490 C   0  0  1  0  0  0  0  0  0  0  0  0
   36.4030   27.6670   30.7400 C   0  0  0  0  0  0  0  0  0  0  0  0
   37.8060   28.2850   30.9230 C   0  0  0  0  0  0  0  0  0  0  0  0
   38.5540   27.1110   31.4770 C   0  0  0  0  0  0  0  0  0  0  0  0
   35.5480   26.9500   32.5070 H   0  0  0  0  0  0  0  0  0  0  0  0
   36.3100   27.2830   29.7050 H   0  0  0  0  0  0  0  0  0  0  0  0
   35.6100   28.4130   30.8670 H   0  0  0  0  0  0  0  0  0  0  0  0
   37.8060   29.1120   31.6240 H   0  0  0  0  0  0  0  0  0  0  0  0
   38.1960   28.5050   29.9080 H   0  0  0  0  0  0  0  0  0  0  0  0
   38.8810   26.3860   30.7200 H   0  0  0  0  0  0  0  0  0  0  0  0
   39.4530   27.5260   32.0040 H   0  0  0  0  0  0  0  0  0  0  0  0
   37.8720   26.2720   33.7650 C   0  0  0  0  0  0  0  0  0  0  0  0
   38.0140   27.3070   34.7010 C   0  0  0  0  0  0  0  0  0  0  0  0
   38.2300   27.0560   36.0530 C   0  0  0  0  0  0  0  0  0  0  0  0
   38.2920   25.7320   36.3890 N   0  0  0  0  0  0  0  0  0  0  0  0
   38.1560   24.7360   35.4810 C   0  0  0  0  0  0  0  0  0  0  0  0
   37.9420   24.9920   34.1440 N   0  0  0  0  0  0  0  0  0  0  0  0
   37.9610   28.3260   34.4060 H   0  0  0  0  0  0  0  0  0  0  0  0
   38.3320   27.8610   36.7320 H   0  0  0  0  0  0  0  0  0  0  0  0
   38.2130   23.7090   35.7890 H   0  0  0  0  0  0  0  0  0  0  0  0
   35.8950   25.2630   31.2890 C   0  0  0  0  0  0  0  0  0  0  0  0
   34.8170   25.2430   30.7020 O   0  0  0  0  0  0  0  0  0  0  0  0
   36.2120   23.8490   31.2540 C   0  0  0  0  0  0  0  0  0  0  0  0
   37.4150   23.3350   30.8480 C   0  0  0  0  0  0  0  0  0  0  0  0
   38.2400   23.9640   30.4830 H   0  0  0  0  0  0  0  0  0  0  0  0
   37.7480   21.9810   30.8400 C   0  0  0  0  0  3  0  0  0  0  0  0
   36.8030   21.0890   31.2690 C   0  0  0  0  0  0  0  0  0  0  0  0
   37.1600   19.7950   31.2470 N   0  0  0  0  0  0  0  0  0  0  0  0
   36.3210   18.8250   31.6440 C   0  0  0  0  0  0  0  0  0  0  0  0
   36.4980   17.7620   31.6700 H   0  0  0  0  0  0  0  0  0  0  0  0
   35.0660   19.1950   32.0810 C   0  0  0  0  0  3  0  0  0  0  0  0
   34.6920   20.5310   32.1060 C   0  0  0  0  0  3  0  0  0  0  0  0
   35.5650   21.5090   31.6960 C   0  0  0  0  0  0  0  0  0  0  0  0
   35.3510   22.8660   31.6590 C   0  0  0  0  0  3  0  0  0  0  0  0
  1 13  1  0  0  0  0
  2  1  1  0  0  0  0
  2  6  1  1  0  0  0
  3  8  1  0  0  0  0
  3  4  1  0  0  0  0
  3  2  1  0  0  0  0
  4  5  1  0  0  0  0
  4  9  1  0  0  0  0
  5 12  1  0  0  0  0
  5  1  1  0  0  0  0
  7  3  1  0  0  0  0
 10  4  1  0  0  0  0
 11  5  1  0  0  0  0
 13 18  2  0  0  0  0
 13 14  1  0  0  0  0
 14 15  2  0  0  0  0
 15 16  1  0  0  0  0
 15 20  1  0  0  0  0
 17 21  1  0  0  0  0
 17 16  2  0  0  0  0
 18 17  1  0  0  0  0
 19 14  1  0  0  0  0
 22  2  1  0  0  0  0
 23 22  2  0  0  0  0
 24 22  1  0  0  0  0
 24 35  1  0  0  0  0
 25 24  2  0  0  0  0
 26 25  1  0  0  0  0
 27 25  1  0  0  0  0
 27 28  2  0  0  0  0
 28 34  1  0  0  0  0
 29 28  1  0  0  0  0
 29 30  2  0  0  0  0
 30 31  1  0  0  0  0
 30 32  1  0  0  0  0
 32 33  2  0  0  0  0
 34 33  1  0  0  0  0
 35 34  2  0  0  0  0
M  END
>  <minimizedAffinity>
-6.0879631

$$$$

 OpenBabel03272503253D

 35 38  0  0  1  0  0  0  0  0999 V2000
   38.2210   23.1660   36.3660 N   0  0  0  0  0  0  0  0  0  0  0  0
   37.6870   24.3920   36.8440 C   0  0  1  0  0  0  0  0  0  0  0  0
   38.0830   24.4410   38.3110 C   0  0  0  0  0  0  0  0  0  0  0  0
   38.9230   23.1610   38.5160 C   0  0  0  0  0  0  0  0  0  0  0  0
   39.4130   22.9280   37.1200 C   0  0  0  0  0  0  0  0  0  0  0  0
   36.5120   24.2230   36.9500 H   0  0  0  0  0  0  0  0  0  0  0  0
   38.7150   25.3250   38.5230 H   0  0  0  0  0  0  0  0  0  0  0  0
   37.2370   24.4880   39.0090 H   0  0  0  0  0  0  0  0  0  0  0  0
   38.3260   22.3260   38.8630 H   0  0  0  0  0  0  0  0  0  0  0  0
   39.7870   23.4420   39.1520 H   0  0  0  0  0  0  0  0  0  0  0  0
   40.2740   23.5470   36.8340 H   0  0  0  0  0  0  0  0  0  0  0  0
   39.7010   21.8460   37.0600 H   0  0  0  0  0  0  0  0  0  0  0  0
   37.6890   22.3410   35.3640 C   0  0  0  0  0  0  0  0  0  0  0  0
   36.5440   21.5840   35.6560 C   0  0  0  0  0  0  0  0  0  0  0  0
   35.9310   20.7750   34.7030 C   0  0  0  0  0  0  0  0  0  0  0  0
   36.5290   20.7800   33.4740 N   0  0  0  0  0  0  0  0  0  0  0  0
   37.6350   21.5120   33.1970 C   0  0  0  0  0  0  0  0  0  0  0  0
   38.2370   22.3100   34.1450 N   0  0  0  0  0  0  0  0  0  0  0  0
   36.1050   21.6020   36.6230 H   0  0  0  0  0  0  0  0  0  0  0  0
   35.0680   20.2180   34.9580 H   0  0  0  0  0  0  0  0  0  0  0  0
   38.0730   21.4850   32.2170 H   0  0  0  0  0  0  0  0  0  0  0  0
   37.8690   25.5840   36.0780 C   0  0  0  0  0  0  0  0  0  0  0  0
   38.4020   26.5370   36.6390 O   0  0  0  0  0  0  0  0  0  0  0  0
   37.6320   26.1750   34.7760 C   0  0  0  0  0  0  0  0  0  0  0  0
   38.0450   25.6270   33.5900 C   0  0  0  0  0  0  0  0  0  0  0  0
   38.6240   24.6930   33.5340 H   0  0  0  0  0  0  0  0  0  0  0  0
   37.7960   26.1640   32.3280 C   0  0  0  0  0  3  0  0  0  0  0  0
   37.0860   27.3320   32.2600 C   0  0  0  0  0  0  0  0  0  0  0  0
   36.8670   27.8180   31.0280 N   0  0  0  0  0  0  0  0  0  0  0  0
   36.1820   28.9570   30.8310 C   0  0  0  0  0  0  0  0  0  0  0  0
   35.9470   29.4380   29.8950 H   0  0  0  0  0  0  0  0  0  0  0  0
   35.7030   29.6220   31.9390 C   0  0  0  0  0  3  0  0  0  0  0  0
   35.9260   29.1230   33.2150 C   0  0  0  0  0  3  0  0  0  0  0  0
   36.6290   27.9580   33.3960 C   0  0  0  0  0  0  0  0  0  0  0  0
   36.9340   27.3350   34.5830 C   0  0  0  0  0  3  0  0  0  0  0  0
  1  2  1  0  0  0  0
  1  5  1  0  0  0  0
  2  6  1  1  0  0  0
  2  3  1  0  0  0  0
  3  4  1  0  0  0  0
  3  7  1  0  0  0  0
  3  8  1  0  0  0  0
  4  9  1  0  0  0  0
  4 10  1  0  0  0  0
  5  4  1  0  0  0  0
 11  5  1  0  0  0  0
 12  5  1  0  0  0  0
 13 14  1  0  0  0  0
 13  1  1  0  0  0  0
 14 19  1  0  0  0  0
 15 20  1  0  0  0  0
 15 14  2  0  0  0  0
 16 15  1  0  0  0  0
 17 16  2  0  0  0  0
 17 18  1  0  0  0  0
 18 13  2  0  0  0  0
 21 17  1  0  0  0  0
 22 23  2  0  0  0  0
 22  2  1  0  0  0  0
 24 22  1  0  0  0  0
 25 24  2  0  0  0  0
 26 25  1  0  0  0  0
 27 25  1  0  0  0  0
 28 27  2  0  0  0  0
 28 34  1  0  0  0  0
 29 28  1  0  0  0  0
 30 29  2  0  0  0  0
 30 32  1  0  0  0  0
 31 30  1  0  0  0  0
 32 33  2  0  0  0  0
 33 34  1  0  0  0  0
 34 35  2  0  0  0  0
 35 24  1  0  0  0  0
M  END
>  <minimizedAffinity>
-5.98424149

$$$$

 OpenBabel03272503253D

 35 38  0  0  1  0  0  0  0  0999 V2000
   37.6720   26.5810   33.4690 N   0  0  0  0  0  0  0  0  0  0  0  0
   37.0520   27.3860   34.4600 C   0  0  1  0  0  0  0  0  0  0  0  0
   38.1380   27.6250   35.4980 C   0  0  0  0  0  0  0  0  0  0  0  0
   39.3810   26.9240   34.9090 C   0  0  0  0  0  0  0  0  0  0  0  0
   39.0510   26.9600   33.4480 C   0  0  0  0  0  0  0  0  0  0  0  0
   36.3320   26.6620   35.0740 H   0  0  0  0  0  0  0  0  0  0  0  0
   38.3510   28.7070   35.6080 H   0  0  0  0  0  0  0  0  0  0  0  0
   37.8980   27.2520   36.5010 H   0  0  0  0  0  0  0  0  0  0  0  0
   39.4850   25.9040   35.2580 H   0  0  0  0  0  0  0  0  0  0  0  0
   40.2460   27.5950   35.0920 H   0  0  0  0  0  0  0  0  0  0  0  0
   39.2600   27.9220   32.9610 H   0  0  0  0  0  0  0  0  0  0  0  0
   39.6670   26.1590   32.9620 H   0  0  0  0  0  0  0  0  0  0  0  0
   37.0650   25.5980   32.6700 C   0  0  0  0  0  0  0  0  0  0  0  0
   37.4690   24.2640   32.8260 C   0  0  0  0  0  0  0  0  0  0  0  0
   36.8860   23.2270   32.1040 C   0  0  0  0  0  0  0  0  0  0  0  0
   35.8970   23.6120   31.2410 N   0  0  0  0  0  0  0  0  0  0  0  0
   35.5100   24.9020   31.0940 C   0  0  0  0  0  0  0  0  0  0  0  0
   36.0930   25.9240   31.8120 N   0  0  0  0  0  0  0  0  0  0  0  0
   38.2420   23.9990   33.5050 H   0  0  0  0  0  0  0  0  0  0  0  0
   37.2150   22.2310   32.2460 H   0  0  0  0  0  0  0  0  0  0  0  0
   34.7300   25.1600   30.4040 H   0  0  0  0  0  0  0  0  0  0  0  0
   36.2690   28.5120   34.0620 C   0  0  0  0  0  0  0  0  0  0  0  0
   36.3750   28.8890   32.8990 O   0  0  0  0  0  0  0  0  0  0  0  0
   35.3170   29.4930   34.5450 C   0  0  0  0  0  0  0  0  0  0  0  0
   33.9770   29.4760   34.2630 C   0  0  0  0  0  0  0  0  0  0  0  0
   33.5140   28.7190   33.6120 H   0  0  0  0  0  0  0  0  0  0  0  0
   33.0430   30.3910   34.7460 C   0  0  0  0  0  3  0  0  0  0  0  0
   33.4930   31.3890   35.5670 C   0  0  0  0  0  0  0  0  0  0  0  0
   32.5640   32.2500   36.0120 N   0  0  0  0  0  0  0  0  0  0  0  0
   32.8820   33.2720   36.8250 C   0  0  0  0  0  0  0  0  0  0  0  0
   32.2260   34.0190   37.2410 H   0  0  0  0  0  0  0  0  0  0  0  0
   34.2020   33.4160   37.1960 C   0  0  0  0  0  3  0  0  0  0  0  0
   35.1660   32.5270   36.7390 C   0  0  0  0  0  3  0  0  0  0  0  0
   34.8210   31.4890   35.9080 C   0  0  0  0  0  0  0  0  0  0  0  0
   35.6480   30.5310   35.3720 C   0  0  0  0  0  3  0  0  0  0  0  0
  1  2  1  0  0  0  0
  2  6  1  1  0  0  0
  2  3  1  0  0  0  0
  3  7  1  0  0  0  0
  3  8  1  0  0  0  0
  4 10  1  0  0  0  0
  4  9  1  0  0  0  0
  4  3  1  0  0  0  0
  5  1  1  0  0  0  0
  5  4  1  0  0  0  0
 11  5  1  0  0  0  0
 12  5  1  0  0  0  0
 13 14  1  0  0  0  0
 13  1  1  0  0  0  0
 14 19  1  0  0  0  0
 15 20  1  0  0  0  0
 15 14  2  0  0  0  0
 16 15  1  0  0  0  0
 17 16  2  0  0  0  0
 17 18  1  0  0  0  0
 18 13  2  0  0  0  0
 21 17  1  0  0  0  0
 22  2  1  0  0  0  0
 22 24  1  0  0  0  0
 23 22  2  0  0  0  0
 24 35  1  0  0  0  0
 25 24  2  0  0  0  0
 25 27  1  0  0  0  0
 26 25  1  0  0  0  0
 27 28  2  0  0  0  0
 28 34  1  0  0  0  0
 28 29  1  0  0  0  0
 29 30  2  0  0  0  0
 30 32  1  0  0  0  0
 30 31  1  0  0  0  0
 33 32  2  0  0  0  0
 34 33  1  0  0  0  0
 35 34  2  0  0  0  0
M  END
>  <minimizedAffinity>
-5.982481

$$$$

 OpenBabel03272503253D

 35 38  0  0  1  0  0  0  0  0999 V2000
   38.4560   24.2560   36.4440 N   0  0  0  0  0  0  0  0  0  0  0  0
   39.6280   23.4620   36.3390 C   0  0  1  0  0  0  0  0  0  0  0  0
   39.8370   22.8940   37.7350 C   0  0  0  0  0  0  0  0  0  0  0  0
   38.6270   23.4190   38.5380 C   0  0  0  0  0  0  0  0  0  0  0  0
   37.6350   23.6310   37.4350 C   0  0  0  0  0  0  0  0  0  0  0  0
   40.5430   24.2240   36.2850 H   0  0  0  0  0  0  0  0  0  0  0  0
   39.8080   21.7870   37.7220 H   0  0  0  0  0  0  0  0  0  0  0  0
   40.7880   23.1750   38.2020 H   0  0  0  0  0  0  0  0  0  0  0  0
   38.8430   24.3500   39.0500 H   0  0  0  0  0  0  0  0  0  0  0  0
   38.2750   22.5810   39.1730 H   0  0  0  0  0  0  0  0  0  0  0  0
   37.1250   22.7160   37.1050 H   0  0  0  0  0  0  0  0  0  0  0  0
   36.8760   24.3580   37.8250 H   0  0  0  0  0  0  0  0  0  0  0  0
   38.1570   25.4270   35.7310 C   0  0  0  0  0  0  0  0  0  0  0  0
   37.6360   25.3080   34.4340 C   0  0  0  0  0  0  0  0  0  0  0  0
   37.2730   26.4200   33.6790 C   0  0  0  0  0  0  0  0  0  0  0  0
   37.4640   27.6240   34.2990 N   0  0  0  0  0  0  0  0  0  0  0  0
   37.9680   27.7340   35.5510 C   0  0  0  0  0  0  0  0  0  0  0  0
   38.3260   26.6290   36.2930 N   0  0  0  0  0  0  0  0  0  0  0  0
   37.5000   24.3570   33.9810 H   0  0  0  0  0  0  0  0  0  0  0  0
   36.8820   26.2930   32.7030 H   0  0  0  0  0  0  0  0  0  0  0  0
   38.1030   28.6990   36.0000 H   0  0  0  0  0  0  0  0  0  0  0  0
   39.7710   22.5610   35.2400 C   0  0  0  0  0  0  0  0  0  0  0  0
   40.8970   22.1270   35.0110 O   0  0  0  0  0  0  0  0  0  0  0  0
   39.0410   21.9070   34.1720 C   0  0  0  0  0  0  0  0  0  0  0  0
   39.6170   21.4000   33.0370 C   0  0  0  0  0  0  0  0  0  0  0  0
   40.6950   21.4780   32.8290 H   0  0  0  0  0  0  0  0  0  0  0  0
   38.9340   20.7380   32.0170 C   0  0  0  0  0  3  0  0  0  0  0  0
   37.5820   20.5790   32.1530 C   0  0  0  0  0  0  0  0  0  0  0  0
   36.9600   19.9370   31.1510 N   0  0  0  0  0  0  0  0  0  0  0  0
   35.6350   19.7180   31.1690 C   0  0  0  0  0  0  0  0  0  0  0  0
   35.0340   19.2180   30.4270 H   0  0  0  0  0  0  0  0  0  0  0  0
   34.9200   20.1750   32.2560 C   0  0  0  0  0  3  0  0  0  0  0  0
   35.5580   20.8390   33.2950 C   0  0  0  0  0  3  0  0  0  0  0  0
   36.9140   21.0530   33.2580 C   0  0  0  0  0  0  0  0  0  0  0  0
   37.6920   21.6880   34.1970 C   0  0  0  0  0  3  0  0  0  0  0  0
  1  5  1  0  0  0  0
  2  6  1  6  0  0  0
  2  1  1  0  0  0  0
  2  3  1  0  0  0  0
  3  8  1  0  0  0  0
  3  4  1  0  0  0  0
  4  9  1  0  0  0  0
  4 10  1  0  0  0  0
  5 12  1  0  0  0  0
  5  4  1  0  0  0  0
  7  3  1  0  0  0  0
 11  5  1  0  0  0  0
 13 18  1  0  0  0  0
 13  1  1  0  0  0  0
 14 13  2  0  0  0  0
 15 16  2  0  0  0  0
 15 14  1  0  0  0  0
 16 17  1  0  0  0  0
 17 21  1  0  0  0  0
 17 18  2  0  0  0  0
 19 14  1  0  0  0  0
 20 15  1  0  0  0  0
 22  2  1  0  0  0  0
 23 22  2  0  0  0  0
 24 35  1  0  0  0  0
 24 22  1  0  0  0  0
 25 24  2  0  0  0  0
 26 25  1  0  0  0  0
 27 28  2  0  0  0  0
 27 25  1  0  0  0  0
 28 34  1  0  0  0  0
 29 30  2  0  0  0  0
 29 28  1  0  0  0  0
 30 32  1  0  0  0  0
 31 30  1  0  0  0  0
 32 33  2  0  0  0  0
 34 33  1  0  0  0  0
 34 35  2  0  0  0  0
M  END
>  <minimizedAffinity>
-5.71819592

$$$$

 OpenBabel03272503253D

 35 38  0  0  1  0  0  0  0  0999 V2000
   36.3920   28.5610   32.1830 N   0  0  0  0  0  0  0  0  0  0  0  0
   36.9090   28.0660   33.4090 C   0  0  1  0  0  0  0  0  0  0  0  0
   36.0190   28.6800   34.4790 C   0  0  0  0  0  0  0  0  0  0  0  0
   34.9650   29.4770   33.6790 C   0  0  0  0  0  0  0  0  0  0  0  0
   34.9860   28.7320   32.3800 C   0  0  0  0  0  0  0  0  0  0  0  0
   37.9200   28.6640   33.6100 H   0  0  0  0  0  0  0  0  0  0  0  0
   35.5070   27.8950   35.0690 H   0  0  0  0  0  0  0  0  0  0  0  0
   36.5480   29.3150   35.2000 H   0  0  0  0  0  0  0  0  0  0  0  0
   35.2500   30.5130   33.5380 H   0  0  0  0  0  0  0  0  0  0  0  0
   33.9870   29.3000   34.1720 H   0  0  0  0  0  0  0  0  0  0  0  0
   34.4020   27.8020   32.3830 H   0  0  0  0  0  0  0  0  0  0  0  0
   34.5670   29.4280   31.6070 H   0  0  0  0  0  0  0  0  0  0  0  0
   37.1100   28.8410   31.0100 C   0  0  0  0  0  0  0  0  0  0  0  0
   36.6630   29.8810   30.1810 C   0  0  0  0  0  0  0  0  0  0  0  0
   37.3440   30.2480   29.0240 C   0  0  0  0  0  0  0  0  0  0  0  0
   38.4730   29.5210   28.7660 N   0  0  0  0  0  0  0  0  0  0  0  0
   38.9000   28.5170   29.5680 C   0  0  0  0  0  0  0  0  0  0  0  0
   38.2210   28.1580   30.7120 N   0  0  0  0  0  0  0  0  0  0  0  0
   35.7810   30.4260   30.4110 H   0  0  0  0  0  0  0  0  0  0  0  0
   36.9780   31.0380   28.4220 H   0  0  0  0  0  0  0  0  0  0  0  0
   39.7920   27.9710   29.3270 H   0  0  0  0  0  0  0  0  0  0  0  0
   37.2160   26.6770   33.5330 C   0  0  0  0  0  0  0  0  0  0  0  0
   36.7180   25.9150   32.7100 O   0  0  0  0  0  0  0  0  0  0  0  0
   37.9420   25.7160   34.3390 C   0  0  0  0  0  0  0  0  0  0  0  0
   39.0100   24.9820   33.8940 C   0  0  0  0  0  0  0  0  0  0  0  0
   39.3880   25.0440   32.8630 H   0  0  0  0  0  0  0  0  0  0  0  0
   39.7410   24.0790   34.6660 C   0  0  0  0  0  3  0  0  0  0  0  0
   39.3670   23.9070   35.9710 C   0  0  0  0  0  0  0  0  0  0  0  0
   40.0940   23.0290   36.6810 N   0  0  0  0  0  0  0  0  0  0  0  0
   39.8270   22.7740   37.9720 C   0  0  0  0  0  0  0  0  0  0  0  0
   40.3390   22.0960   38.6360 H   0  0  0  0  0  0  0  0  0  0  0  0
   38.7730   23.4430   38.5580 C   0  0  0  0  0  3  0  0  0  0  0  0
   38.0180   24.3510   37.8280 C   0  0  0  0  0  3  0  0  0  0  0  0
   38.3080   24.5990   36.5090 C   0  0  0  0  0  0  0  0  0  0  0  0
   37.6640   25.4610   35.6530 C   0  0  0  0  0  3  0  0  0  0  0  0
  1  5  1  0  0  0  0
  1  2  1  0  0  0  0
  2 22  1  0  0  0  0
  2  6  1  1  0  0  0
  2  3  1  0  0  0  0
  3  7  1  0  0  0  0
  3  8  1  0  0  0  0
  4 10  1  0  0  0  0
  4  3  1  0  0  0  0
  5 11  1  0  0  0  0
  5  4  1  0  0  0  0
  9  4  1  0  0  0  0
 12  5  1  0  0  0  0
 13  1  1  0  0  0  0
 14 19  1  0  0  0  0
 14 13  2  0  0  0  0
 15 14  1  0  0  0  0
 16 15  2  0  0  0  0
 16 17  1  0  0  0  0
 17 18  2  0  0  0  0
 18 13  1  0  0  0  0
 20 15  1  0  0  0  0
 21 17  1  0  0  0  0
 22 24  1  0  0  0  0
 23 22  2  0  0  0  0
 24 35  1  0  0  0  0
 25 24  2  0  0  0  0
 25 27  1  0  0  0  0
 26 25  1  0  0  0  0
 27 28  2  0  0  0  0
 28 34  1  0  0  0  0
 28 29  1  0  0  0  0
 29 30  2  0  0  0  0
 30 32  1  0  0  0  0
 30 31  1  0  0  0  0
 33 32  2  0  0  0  0
 34 33  1  0  0  0  0
 35 34  2  0  0  0  0
M  END
>  <minimizedAffinity>
-5.70808935

$$$$

 OpenBabel03272503253D

 35 38  0  0  1  0  0  0  0  0999 V2000
   38.8050   22.3610   35.7590 N   0  0  0  0  0  0  0  0  0  0  0  0
   38.6150   23.2070   36.8830 C   0  0  1  0  0  0  0  0  0  0  0  0
   39.8080   22.9260   37.7840 C   0  0  0  0  0  0  0  0  0  0  0  0
   40.6530   21.9120   36.9830 C   0  0  0  0  0  0  0  0  0  0  0  0
   40.2200   22.2350   35.5860 C   0  0  0  0  0  0  0  0  0  0  0  0
   37.7450   22.7120   37.5290 H   0  0  0  0  0  0  0  0  0  0  0  0
   40.4070   23.8440   37.9490 H   0  0  0  0  0  0  0  0  0  0  0  0
   39.5470   22.5430   38.7780 H   0  0  0  0  0  0  0  0  0  0  0  0
   40.4150   20.8850   37.2360 H   0  0  0  0  0  0  0  0  0  0  0  0
   41.7140   22.2120   37.1030 H   0  0  0  0  0  0  0  0  0  0  0  0
   40.7140   23.1150   35.1520 H   0  0  0  0  0  0  0  0  0  0  0  0
   40.4560   21.3340   34.9620 H   0  0  0  0  0  0  0  0  0  0  0  0
   37.8120   21.7550   34.9740 C   0  0  0  0  0  0  0  0  0  0  0  0
   36.6400   21.3080   35.6030 C   0  0  0  0  0  0  0  0  0  0  0  0
   35.5910   20.7370   34.8880 C   0  0  0  0  0  0  0  0  0  0  0  0
   35.7940   20.6510   33.5390 N   0  0  0  0  0  0  0  0  0  0  0  0
   36.9270   21.0830   32.9360 C   0  0  0  0  0  0  0  0  0  0  0  0
   37.9630   21.6470   33.6500 N   0  0  0  0  0  0  0  0  0  0  0  0
   36.5150   21.3900   36.6540 H   0  0  0  0  0  0  0  0  0  0  0  0
   34.7210   20.4110   35.3950 H   0  0  0  0  0  0  0  0  0  0  0  0
   37.0450   20.9950   31.8740 H   0  0  0  0  0  0  0  0  0  0  0  0
   38.2570   24.5750   36.6820 C   0  0  0  0  0  0  0  0  0  0  0  0
   38.1980   25.2930   37.6750 O   0  0  0  0  0  0  0  0  0  0  0  0
   37.8810   25.5390   35.6670 C   0  0  0  0  0  0  0  0  0  0  0  0
   37.9030   26.8970   35.8430 C   0  0  0  0  0  0  0  0  0  0  0  0
   38.1840   27.3710   36.7960 H   0  0  0  0  0  0  0  0  0  0  0  0
   37.5780   27.8390   34.8670 C   0  0  0  0  0  3  0  0  0  0  0  0
   37.2060   27.3770   33.6340 C   0  0  0  0  0  0  0  0  0  0  0  0
   36.9000   28.3140   32.7220 N   0  0  0  0  0  0  0  0  0  0  0  0
   36.5210   27.9870   31.4750 C   0  0  0  0  0  0  0  0  0  0  0  0
   36.2550   28.6470   30.6660 H   0  0  0  0  0  0  0  0  0  0  0  0
   36.4530   26.6480   31.1510 C   0  0  0  0  0  3  0  0  0  0  0  0
   36.7680   25.6760   32.0910 C   0  0  0  0  0  3  0  0  0  0  0  0
   37.1530   26.0310   33.3610 C   0  0  0  0  0  0  0  0  0  0  0  0
   37.4960   25.1980   34.4000 C   0  0  0  0  0  3  0  0  0  0  0  0
  1  2  1  0  0  0  0
  2  6  1  1  0  0  0
  2  3  1  0  0  0  0
  3  7  1  0  0  0  0
  3  8  1  0  0  0  0
  4 10  1  0  0  0  0
  4  9  1  0  0  0  0
  4  3  1  0  0  0  0
  5  1  1  0  0  0  0
  5  4  1  0  0  0  0
 11  5  1  0  0  0  0
 12  5  1  0  0  0  0
 13 14  1  0  0  0  0
 13  1  1  0  0  0  0
 14 19  1  0  0  0  0
 15 20  1  0  0  0  0
 15 14  2  0  0  0  0
 16 15  1  0  0  0  0
 17 16  2  0  0  0  0
 17 18  1  0  0  0  0
 18 13  2  0  0  0  0
 21 17  1  0  0  0  0
 22  2  1  0  0  0  0
 22 23  2  0  0  0  0
 24 25  1  0  0  0  0
 24 22  1  0  0  0  0
 25 26  1  0  0  0  0
 27 25  2  0  0  0  0
 28 27  1  0  0  0  0
 29 28  2  0  0  0  0
 30 29  1  0  0  0  0
 31 30  1  0  0  0  0
 32 30  2  0  0  0  0
 32 33  1  0  0  0  0
 33 34  2  0  0  0  0
 34 28  1  0  0  0  0
 34 35  1  0  0  0  0
 35 24  2  0  0  0  0
M  END
>  <minimizedAffinity>
-5.70382214

$$$$

 OpenBabel03272503253D

 35 38  0  0  1  0  0  0  0  0999 V2000
   38.5210   23.5930   35.6220 N   0  0  0  0  0  0  0  0  0  0  0  0
   37.7860   24.6440   36.2310 C   0  0  1  0  0  0  0  0  0  0  0  0
   38.0230   24.4670   37.7230 C   0  0  0  0  0  0  0  0  0  0  0  0
   38.9980   23.2730   37.8090 C   0  0  0  0  0  0  0  0  0  0  0  0
   39.6530   23.3540   36.4640 C   0  0  0  0  0  0  0  0  0  0  0  0
   36.6390   24.3300   36.1640 H   0  0  0  0  0  0  0  0  0  0  0  0
   38.5100   25.3620   38.1570 H   0  0  0  0  0  0  0  0  0  0  0  0
   37.1140   24.2920   38.3100 H   0  0  0  0  0  0  0  0  0  0  0  0
   38.4840   22.3270   37.9340 H   0  0  0  0  0  0  0  0  0  0  0  0
   39.7510   23.5270   38.5830 H   0  0  0  0  0  0  0  0  0  0  0  0
   40.4500   24.1070   36.3940 H   0  0  0  0  0  0  0  0  0  0  0  0
   40.0840   22.3400   36.2570 H   0  0  0  0  0  0  0  0  0  0  0  0
   38.2040   22.9100   34.4370 C   0  0  0  0  0  0  0  0  0  0  0  0
   38.8520   23.2880   33.2520 C   0  0  0  0  0  0  0  0  0  0  0  0
   38.6260   22.6330   32.0450 C   0  0  0  0  0  0  0  0  0  0  0  0
   37.7300   21.6010   32.1100 N   0  0  0  0  0  0  0  0  0  0  0  0
   37.1070   21.2410   33.2570 C   0  0  0  0  0  0  0  0  0  0  0  0
   37.3350   21.8940   34.4480 N   0  0  0  0  0  0  0  0  0  0  0  0
   39.5430   24.0960   33.2350 H   0  0  0  0  0  0  0  0  0  0  0  0
   39.1330   22.9440   31.1690 H   0  0  0  0  0  0  0  0  0  0  0  0
   36.4100   20.4250   33.2630 H   0  0  0  0  0  0  0  0  0  0  0  0
   37.8860   25.9680   35.7060 C   0  0  0  0  0  0  0  0  0  0  0  0
   38.4560   26.8060   36.3990 O   0  0  0  0  0  0  0  0  0  0  0  0
   37.5300   26.7980   34.5720 C   0  0  0  0  0  0  0  0  0  0  0  0
   36.5180   27.7210   34.5760 C   0  0  0  0  0  0  0  0  0  0  0  0
   35.8650   27.8860   35.4460 H   0  0  0  0  0  0  0  0  0  0  0  0
   36.1840   28.5500   33.5060 C   0  0  0  0  0  3  0  0  0  0  0  0
   36.9210   28.4390   32.3590 C   0  0  0  0  0  0  0  0  0  0  0  0
   36.5700   29.2540   31.3510 N   0  0  0  0  0  0  0  0  0  0  0  0
   37.2170   29.2400   30.1740 C   0  0  0  0  0  0  0  0  0  0  0  0
   37.0250   29.8440   29.3020 H   0  0  0  0  0  0  0  0  0  0  0  0
   38.2650   28.3560   30.0240 C   0  0  0  0  0  3  0  0  0  0  0  0
   38.6320   27.5120   31.0630 C   0  0  0  0  0  3  0  0  0  0  0  0
   37.9580   27.5410   32.2590 C   0  0  0  0  0  0  0  0  0  0  0  0
   38.1940   26.7780   33.3770 C   0  0  0  0  0  3  0  0  0  0  0  0
  1  2  1  0  0  0  0
  1  5  1  0  0  0  0
  2  6  1  6  0  0  0
  2  3  1  0  0  0  0
  3  4  1  0  0  0  0
  3  7  1  0  0  0  0
  3  8  1  0  0  0  0
  4  9  1  0  0  0  0
  4 10  1  0  0  0  0
  5  4  1  0  0  0  0
 11  5  1  0  0  0  0
 12  5  1  0  0  0  0
 13 18  1  0  0  0  0
 13  1  1  0  0  0  0
 14 13  2  0  0  0  0
 15 16  2  0  0  0  0
 15 14  1  0  0  0  0
 16 17  1  0  0  0  0
 17 21  1  0  0  0  0
 17 18  2  0  0  0  0
 19 14  1  0  0  0  0
 20 15  1  0  0  0  0
 22  2  1  0  0  0  0
 22 23  2  0  0  0  0
 24 25  1  0  0  0  0
 24 22  1  0  0  0  0
 25 26  1  0  0  0  0
 27 25  2  0  0  0  0
 28 27  1  0  0  0  0
 29 28  2  0  0  0  0
 30 29  1  0  0  0  0
 31 30  1  0  0  0  0
 32 30  2  0  0  0  0
 32 33  1  0  0  0  0
 33 34  2  0  0  0  0
 34 28  1  0  0  0  0
 34 35  1  0  0  0  0
 35 24  2  0  0  0  0
M  END
>  <minimizedAffinity>
-5.6678772

$$$$

 OpenBabel03272503253D

 35 38  0  0  1  0  0  0  0  0999 V2000
   38.6310   24.0520   34.6280 N   0  0  0  0  0  0  0  0  0  0  0  0
   39.3430   25.0480   33.9100 C   0  0  1  0  0  0  0  0  0  0  0  0
   39.5960   24.4320   32.5420 C   0  0  0  0  0  0  0  0  0  0  0  0
   38.8890   23.0610   32.6120 C   0  0  0  0  0  0  0  0  0  0  0  0
   37.8560   23.3360   33.6620 C   0  0  0  0  0  0  0  0  0  0  0  0
   40.4510   25.0460   34.3480 H   0  0  0  0  0  0  0  0  0  0  0  0
   39.1290   25.0380   31.7410 H   0  0  0  0  0  0  0  0  0  0  0  0
   40.6550   24.3310   32.2790 H   0  0  0  0  0  0  0  0  0  0  0  0
   39.5570   22.2660   32.9240 H   0  0  0  0  0  0  0  0  0  0  0  0
   38.3750   22.9140   31.6410 H   0  0  0  0  0  0  0  0  0  0  0  0
   36.9690   23.8680   33.2930 H   0  0  0  0  0  0  0  0  0  0  0  0
   37.5460   22.3410   34.0730 H   0  0  0  0  0  0  0  0  0  0  0  0
   38.6780   23.8030   36.0090 C   0  0  0  0  0  0  0  0  0  0  0  0
   39.7490   23.0540   36.5190 C   0  0  0  0  0  0  0  0  0  0  0  0
   39.8910   22.8010   37.8800 C   0  0  0  0  0  0  0  0  0  0  0  0
   38.9130   23.3390   38.6700 N   0  0  0  0  0  0  0  0  0  0  0  0
   37.8800   24.0610   38.1730 C   0  0  0  0  0  0  0  0  0  0  0  0
   37.7450   24.3070   36.8240 N   0  0  0  0  0  0  0  0  0  0  0  0
   40.4920   22.6500   35.8770 H   0  0  0  0  0  0  0  0  0  0  0  0
   40.7120   22.2320   38.2310 H   0  0  0  0  0  0  0  0  0  0  0  0
   37.1330   24.4640   38.8290 H   0  0  0  0  0  0  0  0  0  0  0  0
   38.8850   26.4010   33.9420 C   0  0  0  0  0  0  0  0  0  0  0  0
   39.4020   27.1500   34.7650 O   0  0  0  0  0  0  0  0  0  0  0  0
   37.9450   27.3230   33.3360 C   0  0  0  0  0  0  0  0  0  0  0  0
   37.9700   27.7020   32.0200 C   0  0  0  0  0  0  0  0  0  0  0  0
   38.7370   27.3520   31.3130 H   0  0  0  0  0  0  0  0  0  0  0  0
   37.0530   28.5610   31.4140 C   0  0  0  0  0  3  0  0  0  0  0  0
   36.0480   29.0700   32.1900 C   0  0  0  0  0  0  0  0  0  0  0  0
   35.1860   29.8930   31.5710 N   0  0  0  0  0  0  0  0  0  0  0  0
   34.1560   30.4560   32.2250 C   0  0  0  0  0  0  0  0  0  0  0  0
   33.4070   31.1260   31.8350 H   0  0  0  0  0  0  0  0  0  0  0  0
   34.0040   30.1650   33.5640 C   0  0  0  0  0  3  0  0  0  0  0  0
   34.8930   29.3140   34.2080 C   0  0  0  0  0  3  0  0  0  0  0  0
   35.9390   28.7490   33.5220 C   0  0  0  0  0  0  0  0  0  0  0  0
   36.8990   27.8930   34.0080 C   0  0  0  0  0  3  0  0  0  0  0  0
  1 13  1  0  0  0  0
  2 22  1  0  0  0  0
  2  6  1  1  0  0  0
  2  1  1  0  0  0  0
  3  4  1  0  0  0  0
  3  2  1  0  0  0  0
  4  9  1  0  0  0  0
  4  5  1  0  0  0  0
  5 12  1  0  0  0  0
  5  1  1  0  0  0  0
  7  3  1  0  0  0  0
  8  3  1  0  0  0  0
 10  4  1  0  0  0  0
 11  5  1  0  0  0  0
 13 14  2  0  0  0  0
 13 18  1  0  0  0  0
 14 15  1  0  0  0  0
 15 20  1  0  0  0  0
 15 16  2  0  0  0  0
 17 16  1  0  0  0  0
 17 21  1  0  0  0  0
 18 17  2  0  0  0  0
 19 14  1  0  0  0  0
 22 23  2  0  0  0  0
 24 22  1  0  0  0  0
 24 35  1  0  0  0  0
 25 24  2  0  0  0  0
 26 25  1  0  0  0  0
 27 25  1  0  0  0  0
 27 28  2  0  0  0  0
 28 34  1  0  0  0  0
 29 28  1  0  0  0  0
 29 30  2  0  0  0  0
 30 32  1  0  0  0  0
 31 30  1  0  0  0  0
 32 33  2  0  0  0  0
 34 35  2  0  0  0  0
 34 33  1  0  0  0  0
M  END
>  <minimizedAffinity>
-5.61892891

$$$$

 OpenBabel03272503253D

 35 38  0  0  1  0  0  0  0  0999 V2000
   38.4620   23.4550   36.2870 N   0  0  0  0  0  0  0  0  0  0  0  0
   37.9920   24.7290   36.7030 C   0  0  1  0  0  0  0  0  0  0  0  0
   38.0620   24.6890   38.2220 C   0  0  0  0  0  0  0  0  0  0  0  0
   38.6720   23.3060   38.5340 C   0  0  0  0  0  0  0  0  0  0  0  0
   39.4220   23.0430   37.2640 C   0  0  0  0  0  0  0  0  0  0  0  0
   36.8100   24.7140   36.5480 H   0  0  0  0  0  0  0  0  0  0  0  0
   38.7370   25.4770   38.6090 H   0  0  0  0  0  0  0  0  0  0  0  0
   37.0980   24.8310   38.7250 H   0  0  0  0  0  0  0  0  0  0  0  0
   37.9160   22.5480   38.7020 H   0  0  0  0  0  0  0  0  0  0  0  0
   39.4060   23.4550   39.3520 H   0  0  0  0  0  0  0  0  0  0  0  0
   40.3950   23.5510   37.2000 H   0  0  0  0  0  0  0  0  0  0  0  0
   39.5800   21.9340   37.2100 H   0  0  0  0  0  0  0  0  0  0  0  0
   38.0620   22.7310   35.1530 C   0  0  0  0  0  0  0  0  0  0  0  0
   37.0640   21.7560   35.2960 C   0  0  0  0  0  0  0  0  0  0  0  0
   36.5830   21.0260   34.2130 C   0  0  0  0  0  0  0  0  0  0  0  0
   37.1560   21.3360   33.0110 N   0  0  0  0  0  0  0  0  0  0  0  0
   38.1200   22.2780   32.8770 C   0  0  0  0  0  0  0  0  0  0  0  0
   38.5930   22.9970   33.9540 N   0  0  0  0  0  0  0  0  0  0  0  0
   36.6400   21.5390   36.2460 H   0  0  0  0  0  0  0  0  0  0  0  0
   35.8290   20.2980   34.3570 H   0  0  0  0  0  0  0  0  0  0  0  0
   38.5440   22.4890   31.9140 H   0  0  0  0  0  0  0  0  0  0  0  0
   38.4820   25.9040   36.0570 C   0  0  0  0  0  0  0  0  0  0  0  0
   38.1680   26.9860   36.5440 O   0  0  0  0  0  0  0  0  0  0  0  0
   39.2670   26.3680   34.9300 C   0  0  0  0  0  0  0  0  0  0  0  0
   40.6290   26.5130   34.9430 C   0  0  0  0  0  0  0  0  0  0  0  0
   41.2420   26.3130   35.8340 H   0  0  0  0  0  0  0  0  0  0  0  0
   41.4030   26.9250   33.8580 C   0  0  0  0  0  3  0  0  0  0  0  0
   40.7570   27.2100   32.6860 C   0  0  0  0  0  0  0  0  0  0  0  0
   41.5350   27.6040   31.6650 N   0  0  0  0  0  0  0  0  0  0  0  0
   41.0200   27.9120   30.4630 C   0  0  0  0  0  0  0  0  0  0  0  0
   41.5430   28.2360   29.5780 H   0  0  0  0  0  0  0  0  0  0  0  0
   39.6540   27.8120   30.3020 C   0  0  0  0  0  3  0  0  0  0  0  0
   38.8450   27.4050   31.3540 C   0  0  0  0  0  3  0  0  0  0  0  0
   39.3910   27.0950   32.5750 C   0  0  0  0  0  0  0  0  0  0  0  0
   38.7350   26.6800   33.7100 C   0  0  0  0  0  3  0  0  0  0  0  0
  1  2  1  0  0  0  0
  1  5  1  0  0  0  0
  2  6  1  6  0  0  0
  2  3  1  0  0  0  0
  3  4  1  0  0  0  0
  3  7  1  0  0  0  0
  3  8  1  0  0  0  0
  4  9  1  0  0  0  0
  4 10  1  0  0  0  0
  5  4  1  0  0  0  0
 11  5  1  0  0  0  0
 12  5  1  0  0  0  0
 13 14  1  0  0  0  0
 13  1  1  0  0  0  0
 14 19  1  0  0  0  0
 15 20  1  0  0  0  0
 15 14  2  0  0  0  0
 16 15  1  0  0  0  0
 17 16  2  0  0  0  0
 17 18  1  0  0  0  0
 18 13  2  0  0  0  0
 21 17  1  0  0  0  0
 22 23  2  0  0  0  0
 22  2  1  0  0  0  0
 24 25  1  0  0  0  0
 24 22  1  0  0  0  0
 25 26  1  0  0  0  0
 27 25  2  0  0  0  0
 28 27  1  0  0  0  0
 29 28  2  0  0  0  0
 30 29  1  0  0  0  0
 31 30  1  0  0  0  0
 32 30  2  0  0  0  0
 32 33  1  0  0  0  0
 33 34  2  0  0  0  0
 34 28  1  0  0  0  0
 34 35  1  0  0  0  0
 35 24  2  0  0  0  0
M  END
>  <minimizedAffinity>
-5.57383013

$$$$
