
 OpenBabel03272508593D

 43 47  0  0  1  0  0  0  0  0999 V2000
   37.8770   25.4090   34.1510 C   0  0  0  0  0  0  0  0  0  0  0  0
   38.5560   25.5450   35.3290 C   0  0  0  0  0  0  0  0  0  0  0  0
   38.4770   26.7660   35.9830 C   0  0  0  0  0  0  0  0  0  0  0  0
   37.7130   27.7620   35.3930 C   0  0  0  0  0  0  0  0  0  0  0  0
   37.0240   27.6270   34.2010 C   0  0  0  0  0  0  0  0  0  0  0  0
   37.1400   26.4220   33.6170 N   0  0  0  0  0  0  0  0  0  0  0  0
   39.1440   24.7460   35.7590 H   0  0  0  0  0  0  0  0  0  0  0  0
   38.9770   26.9740   36.9190 H   0  0  0  0  0  0  0  0  0  0  0  0
   37.6460   28.7170   35.8970 H   0  0  0  0  0  0  0  0  0  0  0  0
   37.9060   24.1170   33.4300 C   0  0  0  0  0  0  0  0  0  0  0  0
   38.5750   23.1540   33.8150 O   0  0  0  0  0  0  0  0  0  0  0  0
   37.0910   24.0420   32.2230 N   0  0  0  0  0  0  0  0  0  0  0  0
   36.6580   24.8430   31.7410 H   0  0  0  0  0  0  0  0  0  0  0  0
   35.9390   21.8370   32.2610 C   0  0  2  0  0  0  0  0  0  0  0  0
   35.4530   22.5510   31.0510 C   0  0  0  0  0  0  0  0  0  0  0  0
   36.8740   22.7280   31.6560 C   0  0  1  0  0  0  0  0  0  0  0  0
   35.3810   22.1330   33.1820 H   0  0  0  0  0  0  0  0  0  0  0  0
   34.7490   23.3880   31.1530 H   0  0  0  0  0  0  0  0  0  0  0  0
   35.4280   22.0910   30.0530 H   0  0  0  0  0  0  0  0  0  0  0  0
   37.6960   22.3100   31.0090 H   0  0  0  0  0  0  0  0  0  0  0  0
   35.3890   18.1840   32.5640 C   0  0  0  0  0  0  0  0  0  0  0  0
   36.6410   17.6650   32.1050 C   0  0  0  0  0  0  0  0  0  0  0  0
   37.6600   18.5890   31.7050 C   0  0  0  0  0  0  0  0  0  0  0  0
   37.4070   19.9390   31.7730 N   0  0  0  0  0  0  0  0  0  0  0  0
   36.1910   20.3540   32.2200 C   0  0  0  0  0  0  0  0  0  0  0  0
   35.1660   19.5170   32.6210 N   0  0  0  0  0  0  0  0  0  0  0  0
   34.6470   17.4540   32.8560 H   0  0  0  0  0  0  0  0  0  0  0  0
   36.8340   16.6140   32.0530 H   0  0  0  0  0  0  0  0  0  0  0  0
   38.6030   18.2480   31.3580 H   0  0  0  0  0  0  0  0  0  0  0  0
   36.2600   28.7330   33.6740 C   0  0  0  0  0  0  0  0  0  0  0  0
   36.3310   28.9620   32.4430 O   0  0  0  0  0  0  0  0  0  0  0  0
   35.4130   29.6040   34.4490 C   0  0  0  0  0  0  0  0  0  0  0  0
   34.0560   29.3090   34.5070 C   0  0  0  0  0  0  0  0  0  0  0  0
   33.6780   28.4350   33.9650 H   0  0  0  0  0  0  0  0  0  0  0  0
   33.0950   30.0250   35.1980 C   0  0  0  0  0  3  0  0  0  0  0  0
   33.5130   31.1370   35.8980 C   0  0  0  0  0  0  0  0  0  0  0  0
   32.5900   31.8410   36.5750 N   0  0  0  0  0  0  0  0  0  0  0  0
   32.9930   32.9400   37.2700 C   0  0  0  0  0  0  0  0  0  0  0  0
   32.2070   33.4760   37.8010 H   0  0  0  0  0  0  0  0  0  0  0  0
   34.3310   33.3420   37.2900 C   0  0  0  0  0  3  0  0  0  0  0  0
   35.2690   32.5880   36.5760 C   0  0  0  0  0  3  0  0  0  0  0  0
   34.8530   31.4580   35.8610 C   0  0  0  0  0  0  0  0  0  0  0  0
   35.8050   30.7390   35.1700 C   0  0  0  0  0  3  0  0  0  0  0  0
  1  2  1  0  0  0  0
  2  7  1  0  0  0  0
  2  3  2  0  0  0  0
  3  8  1  0  0  0  0
  4  9  1  0  0  0  0
  4  3  1  0  0  0  0
  5  4  2  0  0  0  0
  6  1  2  0  0  0  0
  6  5  1  0  0  0  0
 10 11  2  0  0  0  0
 10  1  1  0  0  0  0
 12 10  1  0  0  0  0
 13 12  1  0  0  0  0
 14 17  1  1  0  0  0
 15 18  1  0  0  0  0
 15 16  1  0  0  0  0
 15 14  1  0  0  0  0
 16 20  1  6  0  0  0
 16 12  1  0  0  0  0
 16 14  1  0  0  0  0
 19 15  1  0  0  0  0
 21 26  1  0  0  0  0
 21 27  1  0  0  0  0
 22 21  2  0  0  0  0
 23 24  2  0  0  0  0
 23 22  1  0  0  0  0
 24 25  1  0  0  0  0
 25 14  1  0  0  0  0
 25 26  2  0  0  0  0
 28 22  1  0  0  0  0
 29 23  1  0  0  0  0
 30  5  1  0  0  0  0
 30 32  1  0  0  0  0
 31 30  2  0  0  0  0
 32 33  2  0  0  0  0
 32 43  1  0  0  0  0
 33 35  1  0  0  0  0
 34 33  1  0  0  0  0
 35 36  2  0  0  0  0
 36 37  1  0  0  0  0
 37 38  2  0  0  0  0
 38 40  1  0  0  0  0
 38 39  1  0  0  0  0
 41 40  2  0  0  0  0
 42 36  1  0  0  0  0
 42 41  1  0  0  0  0
 43 42  2  0  0  0  0
M  END
>  <minimizedAffinity>
-6.8883667

$$$$

 OpenBabel03272508593D

 43 47  0  0  1  0  0  0  0  0999 V2000
   38.2340   27.5140   31.7990 C   0  0  0  0  0  0  0  0  0  0  0  0
   38.6630   27.3280   30.5140 C   0  0  0  0  0  0  0  0  0  0  0  0
   38.1020   28.1220   29.5250 C   0  0  0  0  0  0  0  0  0  0  0  0
   37.1450   29.0480   29.9100 C   0  0  0  0  0  0  0  0  0  0  0  0
   36.7080   29.2390   31.2090 C   0  0  0  0  0  0  0  0  0  0  0  0
   37.2890   28.4400   32.1200 N   0  0  0  0  0  0  0  0  0  0  0  0
   39.4110   26.5930   30.2500 H   0  0  0  0  0  0  0  0  0  0  0  0
   38.3730   28.0520   28.4800 H   0  0  0  0  0  0  0  0  0  0  0  0
   36.7030   29.6710   29.1440 H   0  0  0  0  0  0  0  0  0  0  0  0
   38.8220   26.7110   32.8940 C   0  0  0  0  0  0  0  0  0  0  0  0
   39.1540   27.2030   33.9760 O   0  0  0  0  0  0  0  0  0  0  0  0
   38.9900   25.2880   32.6220 N   0  0  0  0  0  0  0  0  0  0  0  0
   38.9120   24.8410   31.6970 H   0  0  0  0  0  0  0  0  0  0  0  0
   38.2380   23.9330   34.5690 C   0  0  2  0  0  0  0  0  0  0  0  0
   38.7830   22.9770   33.5690 C   0  0  0  0  0  0  0  0  0  0  0  0
   39.2930   24.4340   33.7510 C   0  0  1  0  0  0  0  0  0  0  0  0
   37.1750   24.2060   34.3610 H   0  0  0  0  0  0  0  0  0  0  0  0
   38.2120   22.7490   32.6580 H   0  0  0  0  0  0  0  0  0  0  0  0
   39.5130   22.1950   33.8220 H   0  0  0  0  0  0  0  0  0  0  0  0
   40.3360   24.4990   34.1730 H   0  0  0  0  0  0  0  0  0  0  0  0
   39.8020   22.7930   37.7300 C   0  0  0  0  0  0  0  0  0  0  0  0
   38.9220   23.3590   38.7070 C   0  0  0  0  0  0  0  0  0  0  0  0
   37.7960   24.1200   38.2540 C   0  0  0  0  0  0  0  0  0  0  0  0
   37.5940   24.2840   36.9040 N   0  0  0  0  0  0  0  0  0  0  0  0
   38.4750   23.7150   36.0390 C   0  0  0  0  0  0  0  0  0  0  0  0
   39.5800   22.9700   36.4070 N   0  0  0  0  0  0  0  0  0  0  0  0
   40.6400   22.2270   38.1120 H   0  0  0  0  0  0  0  0  0  0  0  0
   39.0830   23.2290   39.7570 H   0  0  0  0  0  0  0  0  0  0  0  0
   37.1180   24.5580   38.9440 H   0  0  0  0  0  0  0  0  0  0  0  0
   35.7010   30.2320   31.4980 C   0  0  0  0  0  0  0  0  0  0  0  0
   35.3570   31.0060   30.5730 O   0  0  0  0  0  0  0  0  0  0  0  0
   35.0500   30.4110   32.7700 C   0  0  0  0  0  0  0  0  0  0  0  0
   33.8960   29.6750   33.0210 C   0  0  0  0  0  0  0  0  0  0  0  0
   33.5240   28.9930   32.2490 H   0  0  0  0  0  0  0  0  0  0  0  0
   33.1410   29.7120   34.1790 C   0  0  0  0  0  3  0  0  0  0  0  0
   33.5630   30.5550   35.1850 C   0  0  0  0  0  0  0  0  0  0  0  0
   32.8390   30.6010   36.3160 N   0  0  0  0  0  0  0  0  0  0  0  0
   33.2470   31.4290   37.3160 C   0  0  0  0  0  0  0  0  0  0  0  0
   32.6260   31.4290   38.2110 H   0  0  0  0  0  0  0  0  0  0  0  0
   34.3910   32.2210   37.1870 C   0  0  0  0  0  3  0  0  0  0  0  0
   35.1250   32.1520   35.9970 C   0  0  0  0  0  3  0  0  0  0  0  0
   34.7030   31.3000   34.9690 C   0  0  0  0  0  0  0  0  0  0  0  0
   35.4510   31.2570   33.8120 C   0  0  0  0  0  3  0  0  0  0  0  0
  1  6  1  0  0  0  0
  1 10  1  0  0  0  0
  2  1  2  0  0  0  0
  3  4  2  0  0  0  0
  3  2  1  0  0  0  0
  4  5  1  0  0  0  0
  5 30  1  0  0  0  0
  5  6  2  0  0  0  0
  7  2  1  0  0  0  0
  8  3  1  0  0  0  0
  9  4  1  0  0  0  0
 10 11  2  0  0  0  0
 12 10  1  0  0  0  0
 12 16  1  0  0  0  0
 13 12  1  0  0  0  0
 14 17  1  6  0  0  0
 14 25  1  0  0  0  0
 15 16  1  0  0  0  0
 15 19  1  0  0  0  0
 15 14  1  0  0  0  0
 16 20  1  1  0  0  0
 16 14  1  0  0  0  0
 18 15  1  0  0  0  0
 21 27  1  0  0  0  0
 21 22  1  0  0  0  0
 22 28  1  0  0  0  0
 23 22  2  0  0  0  0
 23 29  1  0  0  0  0
 24 23  1  0  0  0  0
 25 26  1  0  0  0  0
 25 24  2  0  0  0  0
 26 21  2  0  0  0  0
 30 32  1  0  0  0  0
 31 30  2  0  0  0  0
 32 33  2  0  0  0  0
 32 43  1  0  0  0  0
 33 35  1  0  0  0  0
 34 33  1  0  0  0  0
 35 36  2  0  0  0  0
 36 37  1  0  0  0  0
 37 38  2  0  0  0  0
 38 39  1  0  0  0  0
 40 38  1  0  0  0  0
 41 40  2  0  0  0  0
 42 36  1  0  0  0  0
 42 41  1  0  0  0  0
 43 42  2  0  0  0  0
M  END
>  <minimizedAffinity>
-6.43821955

$$$$

 OpenBabel03272508593D

 43 47  0  0  1  0  0  0  0  0999 V2000
   37.0470   25.4090   32.6180 C   0  0  0  0  0  0  0  0  0  0  0  0
   37.7370   25.1340   33.7660 C   0  0  0  0  0  0  0  0  0  0  0  0
   37.8790   26.1560   34.6940 C   0  0  0  0  0  0  0  0  0  0  0  0
   37.3120   27.3840   34.3900 C   0  0  0  0  0  0  0  0  0  0  0  0
   36.6130   27.6650   33.2290 C   0  0  0  0  0  0  0  0  0  0  0  0
   36.5090   26.6360   32.3720 N   0  0  0  0  0  0  0  0  0  0  0  0
   38.1680   24.1640   33.9690 H   0  0  0  0  0  0  0  0  0  0  0  0
   38.4060   26.0400   35.6310 H   0  0  0  0  0  0  0  0  0  0  0  0
   37.4180   28.1850   35.1090 H   0  0  0  0  0  0  0  0  0  0  0  0
   36.8420   24.3450   31.6100 C   0  0  0  0  0  0  0  0  0  0  0  0
   37.5150   24.2650   30.5790 O   0  0  0  0  0  0  0  0  0  0  0  0
   35.7870   23.3820   31.9060 N   0  0  0  0  0  0  0  0  0  0  0  0
   35.0700   23.4830   32.6390 H   0  0  0  0  0  0  0  0  0  0  0  0
   36.5820   21.0740   31.4250 C   0  0  2  0  0  0  0  0  0  0  0  0
   35.1630   20.9550   31.8540 C   0  0  0  0  0  0  0  0  0  0  0  0
   35.7460   22.1820   31.0980 C   0  0  1  0  0  0  0  0  0  0  0  0
   37.2850   21.1250   32.2910 H   0  0  0  0  0  0  0  0  0  0  0  0
   34.8950   21.0900   32.9110 H   0  0  0  0  0  0  0  0  0  0  0  0
   34.4130   20.3790   31.2940 H   0  0  0  0  0  0  0  0  0  0  0  0
   35.3600   22.2900   30.0450 H   0  0  0  0  0  0  0  0  0  0  0  0
   36.8550   18.3150   28.9640 C   0  0  0  0  0  0  0  0  0  0  0  0
   38.0840   18.6380   28.3050 C   0  0  0  0  0  0  0  0  0  0  0  0
   38.8030   19.8020   28.7300 C   0  0  0  0  0  0  0  0  0  0  0  0
   38.2950   20.5710   29.7500 N   0  0  0  0  0  0  0  0  0  0  0  0
   37.1210   20.1980   30.3270 C   0  0  0  0  0  0  0  0  0  0  0  0
   36.3780   19.0890   29.9660 N   0  0  0  0  0  0  0  0  0  0  0  0
   36.3430   17.4300   28.6150 H   0  0  0  0  0  0  0  0  0  0  0  0
   38.4750   18.0370   27.5110 H   0  0  0  0  0  0  0  0  0  0  0  0
   39.7180   20.0780   28.2690 H   0  0  0  0  0  0  0  0  0  0  0  0
   36.0650   28.9830   33.0130 C   0  0  0  0  0  0  0  0  0  0  0  0
   36.2750   29.5310   31.9040 O   0  0  0  0  0  0  0  0  0  0  0  0
   35.2880   29.7300   33.9690 C   0  0  0  0  0  0  0  0  0  0  0  0
   33.9500   29.3880   34.1300 C   0  0  0  0  0  0  0  0  0  0  0  0
   33.5340   28.5730   33.5290 H   0  0  0  0  0  0  0  0  0  0  0  0
   33.0540   29.9870   34.9980 C   0  0  0  0  0  3  0  0  0  0  0  0
   33.5240   31.0210   35.7800 C   0  0  0  0  0  0  0  0  0  0  0  0
   32.6640   31.6110   36.6280 N   0  0  0  0  0  0  0  0  0  0  0  0
   33.1170   32.6320   37.4060 C   0  0  0  0  0  0  0  0  0  0  0  0
   32.3820   33.0770   38.0750 H   0  0  0  0  0  0  0  0  0  0  0  0
   34.4420   33.0700   37.3380 C   0  0  0  0  0  3  0  0  0  0  0  0
   35.3140   32.4350   36.4450 C   0  0  0  0  0  3  0  0  0  0  0  0
   34.8460   31.3850   35.6450 C   0  0  0  0  0  0  0  0  0  0  0  0
   35.7330   30.7830   34.7780 C   0  0  0  0  0  3  0  0  0  0  0  0
  1  2  1  0  0  0  0
  2  7  1  0  0  0  0
  2  3  2  0  0  0  0
  3  8  1  0  0  0  0
  4  3  1  0  0  0  0
  4  9  1  0  0  0  0
  5  4  2  0  0  0  0
  6  1  2  0  0  0  0
  6  5  1  0  0  0  0
 10 12  1  0  0  0  0
 10  1  1  0  0  0  0
 11 10  2  0  0  0  0
 12 13  1  0  0  0  0
 14 15  1  0  0  0  0
 14 17  1  1  0  0  0
 15 18  1  0  0  0  0
 16 20  1  6  0  0  0
 16 14  1  0  0  0  0
 16 15  1  0  0  0  0
 16 12  1  0  0  0  0
 19 15  1  0  0  0  0
 21 26  1  0  0  0  0
 22 23  1  0  0  0  0
 22 21  2  0  0  0  0
 23 24  2  0  0  0  0
 24 25  1  0  0  0  0
 25 14  1  0  0  0  0
 26 25  2  0  0  0  0
 27 21  1  0  0  0  0
 28 22  1  0  0  0  0
 29 23  1  0  0  0  0
 30  5  1  0  0  0  0
 30 32  1  0  0  0  0
 31 30  2  0  0  0  0
 32 33  2  0  0  0  0
 32 43  1  0  0  0  0
 33 35  1  0  0  0  0
 34 33  1  0  0  0  0
 35 36  2  0  0  0  0
 36 37  1  0  0  0  0
 37 38  2  0  0  0  0
 38 39  1  0  0  0  0
 40 38  1  0  0  0  0
 41 40  2  0  0  0  0
 42 36  1  0  0  0  0
 42 41  1  0  0  0  0
 43 42  2  0  0  0  0
M  END
>  <minimizedAffinity>
-6.41682529

$$$$

 OpenBabel03272508593D

 43 47  0  0  1  0  0  0  0  0999 V2000
   36.5230   28.0780   32.9240 C   0  0  0  0  0  0  0  0  0  0  0  0
   36.6670   28.7310   31.7320 C   0  0  0  0  0  0  0  0  0  0  0  0
   36.2450   30.0510   31.6640 C   0  0  0  0  0  0  0  0  0  0  0  0
   35.7080   30.6130   32.8120 C   0  0  0  0  0  0  0  0  0  0  0  0
   35.5610   29.9550   34.0200 C   0  0  0  0  0  0  0  0  0  0  0  0
   35.9880   28.6800   34.0210 N   0  0  0  0  0  0  0  0  0  0  0  0
   37.0900   28.2590   30.8560 H   0  0  0  0  0  0  0  0  0  0  0  0
   36.3150   30.6530   30.7690 H   0  0  0  0  0  0  0  0  0  0  0  0
   35.3770   31.6420   32.7670 H   0  0  0  0  0  0  0  0  0  0  0  0
   36.9840   26.6770   33.0560 C   0  0  0  0  0  0  0  0  0  0  0  0
   37.2280   26.1560   34.1470 O   0  0  0  0  0  0  0  0  0  0  0  0
   37.1370   25.9370   31.8080 N   0  0  0  0  0  0  0  0  0  0  0  0
   37.1320   26.3470   30.8630 H   0  0  0  0  0  0  0  0  0  0  0  0
   36.3770   23.6270   31.2810 C   0  0  2  0  0  0  0  0  0  0  0  0
   37.6570   23.8320   30.5530 C   0  0  0  0  0  0  0  0  0  0  0  0
   37.3090   24.5040   31.9110 C   0  0  1  0  0  0  0  0  0  0  0  0
   35.5000   24.0320   30.7210 H   0  0  0  0  0  0  0  0  0  0  0  0
   37.6850   24.4730   29.6610 H   0  0  0  0  0  0  0  0  0  0  0  0
   38.4900   23.1150   30.5890 H   0  0  0  0  0  0  0  0  0  0  0  0
   37.9270   24.1250   32.7740 H   0  0  0  0  0  0  0  0  0  0  0  0
   35.0830   20.1820   31.7230 C   0  0  0  0  0  0  0  0  0  0  0  0
   35.5350   19.8720   33.0450 C   0  0  0  0  0  0  0  0  0  0  0  0
   36.2740   20.8650   33.7660 C   0  0  0  0  0  0  0  0  0  0  0  0
   36.5260   22.0790   33.1710 N   0  0  0  0  0  0  0  0  0  0  0  0
   36.0640   22.2970   31.9110 C   0  0  0  0  0  0  0  0  0  0  0  0
   35.3460   21.3840   31.1610 N   0  0  0  0  0  0  0  0  0  0  0  0
   34.5300   19.4060   31.2130 H   0  0  0  0  0  0  0  0  0  0  0  0
   35.3360   18.9260   33.5040 H   0  0  0  0  0  0  0  0  0  0  0  0
   36.6280   20.6780   34.7490 H   0  0  0  0  0  0  0  0  0  0  0  0
   34.9830   30.6370   35.1530 C   0  0  0  0  0  0  0  0  0  0  0  0
   35.7560   31.2660   35.9150 O   0  0  0  0  0  0  0  0  0  0  0  0
   33.5820   30.6590   35.4870 C   0  0  0  0  0  0  0  0  0  0  0  0
   33.1150   31.7100   36.2690 C   0  0  0  0  0  0  0  0  0  0  0  0
   33.8210   32.4770   36.6040 H   0  0  0  0  0  0  0  0  0  0  0  0
   31.8100   31.8990   36.6850 C   0  0  0  0  0  3  0  0  0  0  0  0
   30.8770   30.9620   36.2920 C   0  0  0  0  0  0  0  0  0  0  0  0
   29.6040   31.1340   36.6890 N   0  0  0  0  0  0  0  0  0  0  0  0
   28.6750   30.2160   36.3060 C   0  0  0  0  0  0  0  0  0  0  0  0
   27.6590   30.4010   36.6530 H   0  0  0  0  0  0  0  0  0  0  0  0
   29.0180   29.1140   35.5190 C   0  0  0  0  0  3  0  0  0  0  0  0
   30.3520   28.9620   35.1210 C   0  0  0  0  0  3  0  0  0  0  0  0
   31.3060   29.9070   35.5170 C   0  0  0  0  0  0  0  0  0  0  0  0
   32.6100   29.7260   35.1050 C   0  0  0  0  0  3  0  0  0  0  0  0
  1 10  1  0  0  0  0
  1  6  1  0  0  0  0
  2  1  2  0  0  0  0
  3  2  1  0  0  0  0
  3  4  2  0  0  0  0
  4  5  1  0  0  0  0
  5  6  2  0  0  0  0
  5 30  1  0  0  0  0
  7  2  1  0  0  0  0
  8  3  1  0  0  0  0
  9  4  1  0  0  0  0
 10 11  2  0  0  0  0
 12 16  1  0  0  0  0
 12 10  1  0  0  0  0
 13 12  1  0  0  0  0
 14 17  1  6  0  0  0
 14 16  1  0  0  0  0
 14 25  1  0  0  0  0
 15 19  1  0  0  0  0
 15 14  1  0  0  0  0
 15 16  1  0  0  0  0
 16 20  1  1  0  0  0
 18 15  1  0  0  0  0
 21 22  1  0  0  0  0
 22 28  1  0  0  0  0
 22 23  2  0  0  0  0
 23 29  1  0  0  0  0
 24 23  1  0  0  0  0
 25 24  2  0  0  0  0
 26 21  2  0  0  0  0
 26 25  1  0  0  0  0
 27 21  1  0  0  0  0
 30 32  1  0  0  0  0
 30 31  2  0  0  0  0
 32 33  1  0  0  0  0
 33 34  1  0  0  0  0
 33 35  2  0  0  0  0
 36 35  1  0  0  0  0
 36 37  1  0  0  0  0
 38 39  1  0  0  0  0
 38 37  2  0  0  0  0
 40 38  1  0  0  0  0
 41 42  1  0  0  0  0
 41 40  2  0  0  0  0
 42 36  2  0  0  0  0
 43 32  2  0  0  0  0
 43 42  1  0  0  0  0
M  END
>  <minimizedAffinity>
-6.29526615

$$$$

 OpenBabel03272508593D

 43 47  0  0  1  0  0  0  0  0999 V2000
   37.4770   27.6740   32.2620 C   0  0  0  0  0  0  0  0  0  0  0  0
   37.7800   28.1810   31.0290 C   0  0  0  0  0  0  0  0  0  0  0  0
   36.9300   29.1400   30.4990 C   0  0  0  0  0  0  0  0  0  0  0  0
   35.8320   29.5160   31.2580 C   0  0  0  0  0  0  0  0  0  0  0  0
   35.5230   29.0050   32.5060 C   0  0  0  0  0  0  0  0  0  0  0  0
   36.3840   28.0810   32.9640 N   0  0  0  0  0  0  0  0  0  0  0  0
   38.6450   27.8620   30.4640 H   0  0  0  0  0  0  0  0  0  0  0  0
   37.0820   29.6020   29.5330 H   0  0  0  0  0  0  0  0  0  0  0  0
   35.1650   30.2640   30.8520 H   0  0  0  0  0  0  0  0  0  0  0  0
   38.3680   26.6690   32.8830 C   0  0  0  0  0  0  0  0  0  0  0  0
   39.2140   26.9620   33.7320 O   0  0  0  0  0  0  0  0  0  0  0  0
   38.1900   25.2940   32.4310 N   0  0  0  0  0  0  0  0  0  0  0  0
   37.6460   24.9980   31.6080 H   0  0  0  0  0  0  0  0  0  0  0  0
   38.1810   23.7070   34.3480 C   0  0  2  0  0  0  0  0  0  0  0  0
   38.1170   22.8830   33.1130 C   0  0  0  0  0  0  0  0  0  0  0  0
   38.8370   24.2570   33.2080 C   0  0  1  0  0  0  0  0  0  0  0  0
   37.1760   24.0790   34.6640 H   0  0  0  0  0  0  0  0  0  0  0  0
   37.1860   22.8360   32.5300 H   0  0  0  0  0  0  0  0  0  0  0  0
   38.7780   22.0240   32.9290 H   0  0  0  0  0  0  0  0  0  0  0  0
   39.9590   24.1860   33.1290 H   0  0  0  0  0  0  0  0  0  0  0  0
   39.2670   23.1560   37.8490 C   0  0  0  0  0  0  0  0  0  0  0  0
   40.4560   22.3820   37.6630 C   0  0  0  0  0  0  0  0  0  0  0  0
   40.8670   22.0700   36.3270 C   0  0  0  0  0  0  0  0  0  0  0  0
   40.1130   22.5190   35.2690 N   0  0  0  0  0  0  0  0  0  0  0  0
   38.9960   23.2500   35.5280 C   0  0  0  0  0  0  0  0  0  0  0  0
   38.5430   23.5860   36.7900 N   0  0  0  0  0  0  0  0  0  0  0  0
   38.9910   23.3700   38.8720 H   0  0  0  0  0  0  0  0  0  0  0  0
   41.0400   22.0340   38.4890 H   0  0  0  0  0  0  0  0  0  0  0  0
   41.7420   21.4980   36.1430 H   0  0  0  0  0  0  0  0  0  0  0  0
   34.3500   29.4670   33.2100 C   0  0  0  0  0  0  0  0  0  0  0  0
   33.2420   28.9730   32.8900 O   0  0  0  0  0  0  0  0  0  0  0  0
   34.3430   30.4530   34.2590 C   0  0  0  0  0  0  0  0  0  0  0  0
   35.5430   30.7230   34.9070 C   0  0  0  0  0  0  0  0  0  0  0  0
   36.4450   30.1810   34.6040 H   0  0  0  0  0  0  0  0  0  0  0  0
   35.7300   31.6350   35.9310 C   0  0  0  0  0  3  0  0  0  0  0  0
   34.6280   32.3460   36.3560 C   0  0  0  0  0  0  0  0  0  0  0  0
   34.7960   33.2360   37.3490 N   0  0  0  0  0  0  0  0  0  0  0  0
   33.7150   33.9450   37.7750 C   0  0  0  0  0  0  0  0  0  0  0  0
   33.9030   34.6520   38.5820 H   0  0  0  0  0  0  0  0  0  0  0  0
   32.4520   33.7660   37.2040 C   0  0  0  0  0  3  0  0  0  0  0  0
   32.3090   32.8320   36.1710 C   0  0  0  0  0  3  0  0  0  0  0  0
   33.4220   32.1030   35.7350 C   0  0  0  0  0  0  0  0  0  0  0  0
   33.2440   31.1930   34.7140 C   0  0  0  0  0  3  0  0  0  0  0  0
  1 10  1  0  0  0  0
  1  6  1  0  0  0  0
  2  1  2  0  0  0  0
  3  2  1  0  0  0  0
  3  4  2  0  0  0  0
  4  5  1  0  0  0  0
  5  6  2  0  0  0  0
  5 30  1  0  0  0  0
  7  2  1  0  0  0  0
  8  3  1  0  0  0  0
  9  4  1  0  0  0  0
 10 11  2  0  0  0  0
 12 10  1  0  0  0  0
 12 16  1  0  0  0  0
 13 12  1  0  0  0  0
 14 17  1  1  0  0  0
 14 25  1  0  0  0  0
 15 16  1  0  0  0  0
 15 14  1  0  0  0  0
 16 20  1  1  0  0  0
 16 14  1  0  0  0  0
 18 15  1  0  0  0  0
 19 15  1  0  0  0  0
 21 27  1  0  0  0  0
 22 21  1  0  0  0  0
 22 28  1  0  0  0  0
 23 22  2  0  0  0  0
 24 25  2  0  0  0  0
 24 23  1  0  0  0  0
 25 26  1  0  0  0  0
 26 21  2  0  0  0  0
 29 23  1  0  0  0  0
 30 32  1  0  0  0  0
 31 30  2  0  0  0  0
 32 43  2  0  0  0  0
 32 33  1  0  0  0  0
 33 35  2  0  0  0  0
 34 33  1  0  0  0  0
 35 36  1  0  0  0  0
 36 37  1  0  0  0  0
 37 38  2  0  0  0  0
 38 39  1  0  0  0  0
 40 38  1  0  0  0  0
 41 40  2  0  0  0  0
 42 41  1  0  0  0  0
 42 36  2  0  0  0  0
 43 42  1  0  0  0  0
M  END
>  <minimizedAffinity>
-6.29173565

$$$$

 OpenBabel03272508593D

 43 47  0  0  1  0  0  0  0  0999 V2000
   36.4410   28.2000   34.0790 C   0  0  0  0  0  0  0  0  0  0  0  0
   37.1850   27.8890   35.1830 C   0  0  0  0  0  0  0  0  0  0  0  0
   38.0720   26.8270   35.0860 C   0  0  0  0  0  0  0  0  0  0  0  0
   38.1410   26.1560   33.8740 C   0  0  0  0  0  0  0  0  0  0  0  0
   37.3900   26.4690   32.7550 C   0  0  0  0  0  0  0  0  0  0  0  0
   36.5500   27.5060   32.9120 N   0  0  0  0  0  0  0  0  0  0  0  0
   37.1030   28.4340   36.1130 H   0  0  0  0  0  0  0  0  0  0  0  0
   38.7040   26.5030   35.9010 H   0  0  0  0  0  0  0  0  0  0  0  0
   38.8320   25.3280   33.7900 H   0  0  0  0  0  0  0  0  0  0  0  0
   35.5010   29.3420   34.1230 C   0  0  0  0  0  0  0  0  0  0  0  0
   34.4610   29.3750   33.4610 O   0  0  0  0  0  0  0  0  0  0  0  0
   35.8770   30.4420   35.0040 N   0  0  0  0  0  0  0  0  0  0  0  0
   36.8010   30.5730   35.4400 H   0  0  0  0  0  0  0  0  0  0  0  0
   34.1330   31.3790   36.5110 C   0  0  2  0  0  0  0  0  0  0  0  0
   35.2370   32.3730   36.4680 C   0  0  0  0  0  0  0  0  0  0  0  0
   34.8620   31.4340   35.2870 C   0  0  1  0  0  0  0  0  0  0  0  0
   34.3220   30.5650   37.2520 H   0  0  0  0  0  0  0  0  0  0  0  0
   36.1790   32.1720   36.9970 H   0  0  0  0  0  0  0  0  0  0  0  0
   35.0740   33.4440   36.2800 H   0  0  0  0  0  0  0  0  0  0  0  0
   34.4170   31.9750   34.4030 H   0  0  0  0  0  0  0  0  0  0  0  0
   31.1640   33.5710   36.8600 C   0  0  0  0  0  0  0  0  0  0  0  0
   30.0990   32.6630   36.5630 C   0  0  0  0  0  0  0  0  0  0  0  0
   30.4260   31.3030   36.2550 C   0  0  0  0  0  0  0  0  0  0  0  0
   31.7440   30.9120   36.2520 N   0  0  0  0  0  0  0  0  0  0  0  0
   32.6990   31.8340   36.5450 C   0  0  0  0  0  0  0  0  0  0  0  0
   32.4540   33.1600   36.8500 N   0  0  0  0  0  0  0  0  0  0  0  0
   30.8770   34.5880   37.0870 H   0  0  0  0  0  0  0  0  0  0  0  0
   29.0750   32.9720   36.5650 H   0  0  0  0  0  0  0  0  0  0  0  0
   29.6670   30.5960   36.0280 H   0  0  0  0  0  0  0  0  0  0  0  0
   37.5400   25.7000   31.5420 C   0  0  0  0  0  0  0  0  0  0  0  0
   37.9130   26.3020   30.5070 O   0  0  0  0  0  0  0  0  0  0  0  0
   37.2970   24.2850   31.4170 C   0  0  0  0  0  0  0  0  0  0  0  0
   38.2450   23.5180   30.7500 C   0  0  0  0  0  0  0  0  0  0  0  0
   39.1350   24.0090   30.3420 H   0  0  0  0  0  0  0  0  0  0  0  0
   38.1850   22.1530   30.5360 C   0  0  0  0  0  3  0  0  0  0  0  0
   37.0850   21.4810   31.0270 C   0  0  0  0  0  0  0  0  0  0  0  0
   37.0150   20.1540   30.8260 N   0  0  0  0  0  0  0  0  0  0  0  0
   35.9340   19.4810   31.3080 C   0  0  0  0  0  0  0  0  0  0  0  0
   35.9240   18.4080   31.1190 H   0  0  0  0  0  0  0  0  0  0  0  0
   34.9110   20.1380   31.9970 C   0  0  0  0  0  3  0  0  0  0  0  0
   35.0130   21.5210   32.1900 C   0  0  0  0  0  3  0  0  0  0  0  0
   36.1260   22.2120   31.6940 C   0  0  0  0  0  0  0  0  0  0  0  0
   36.1930   23.5730   31.9040 C   0  0  0  0  0  3  0  0  0  0  0  0
  1 10  1  0  0  0  0
  1  2  1  0  0  0  0
  2  7  1  0  0  0  0
  3  2  2  0  0  0  0
  3  8  1  0  0  0  0
  4  3  1  0  0  0  0
  5  6  1  0  0  0  0
  5  4  2  0  0  0  0
  6  1  2  0  0  0  0
  9  4  1  0  0  0  0
 10 12  1  0  0  0  0
 11 10  2  0  0  0  0
 12 16  1  0  0  0  0
 12 13  1  0  0  0  0
 14 25  1  0  0  0  0
 14 17  1  1  0  0  0
 15 14  1  0  0  0  0
 15 18  1  0  0  0  0
 16 20  1  6  0  0  0
 16 15  1  0  0  0  0
 16 14  1  0  0  0  0
 19 15  1  0  0  0  0
 21 27  1  0  0  0  0
 22 28  1  0  0  0  0
 22 21  2  0  0  0  0
 23 22  1  0  0  0  0
 24 23  2  0  0  0  0
 24 25  1  0  0  0  0
 25 26  2  0  0  0  0
 26 21  1  0  0  0  0
 29 23  1  0  0  0  0
 30  5  1  0  0  0  0
 31 30  2  0  0  0  0
 32 30  1  0  0  0  0
 32 43  1  0  0  0  0
 33 32  2  0  0  0  0
 34 33  1  0  0  0  0
 35 33  1  0  0  0  0
 35 36  2  0  0  0  0
 36 42  1  0  0  0  0
 37 36  1  0  0  0  0
 37 38  2  0  0  0  0
 38 40  1  0  0  0  0
 39 38  1  0  0  0  0
 40 41  2  0  0  0  0
 42 43  2  0  0  0  0
 42 41  1  0  0  0  0
M  END
>  <minimizedAffinity>
-6.26024008

$$$$

 OpenBabel03272508593D

 43 47  0  0  1  0  0  0  0  0999 V2000
   37.7640   27.8520   31.9540 C   0  0  0  0  0  0  0  0  0  0  0  0
   38.3050   27.9170   30.7000 C   0  0  0  0  0  0  0  0  0  0  0  0
   37.7010   28.7610   29.7800 C   0  0  0  0  0  0  0  0  0  0  0  0
   36.5910   29.4790   30.1990 C   0  0  0  0  0  0  0  0  0  0  0  0
   36.0420   29.4160   31.4660 C   0  0  0  0  0  0  0  0  0  0  0  0
   36.6710   28.5810   32.3110 N   0  0  0  0  0  0  0  0  0  0  0  0
   39.1720   27.3400   30.4090 H   0  0  0  0  0  0  0  0  0  0  0  0
   38.0520   28.8830   28.7650 H   0  0  0  0  0  0  0  0  0  0  0  0
   36.1150   30.1400   29.4870 H   0  0  0  0  0  0  0  0  0  0  0  0
   38.3890   26.9880   32.9810 C   0  0  0  0  0  0  0  0  0  0  0  0
   38.6190   27.3770   34.1290 O   0  0  0  0  0  0  0  0  0  0  0  0
   38.7230   25.6340   32.5560 N   0  0  0  0  0  0  0  0  0  0  0  0
   38.7330   25.2950   31.5830 H   0  0  0  0  0  0  0  0  0  0  0  0
   38.0600   24.1910   34.4720 C   0  0  2  0  0  0  0  0  0  0  0  0
   38.4490   23.2780   33.3650 C   0  0  0  0  0  0  0  0  0  0  0  0
   39.0690   24.6850   33.5930 C   0  0  1  0  0  0  0  0  0  0  0  0
   37.0030   24.5400   34.3820 H   0  0  0  0  0  0  0  0  0  0  0  0
   37.7850   23.1490   32.4990 H   0  0  0  0  0  0  0  0  0  0  0  0
   39.1460   22.4370   33.4980 H   0  0  0  0  0  0  0  0  0  0  0  0
   40.1470   24.6580   33.9190 H   0  0  0  0  0  0  0  0  0  0  0  0
   37.8530   23.9530   38.1650 C   0  0  0  0  0  0  0  0  0  0  0  0
   39.0360   23.2090   38.4720 C   0  0  0  0  0  0  0  0  0  0  0  0
   39.8910   22.8080   37.3950 C   0  0  0  0  0  0  0  0  0  0  0  0
   39.5530   23.1470   36.1070 N   0  0  0  0  0  0  0  0  0  0  0  0
   38.4120   23.8560   35.8960 C   0  0  0  0  0  0  0  0  0  0  0  0
   37.5440   24.2740   36.8870 N   0  0  0  0  0  0  0  0  0  0  0  0
   37.2340   24.2370   39.0050 H   0  0  0  0  0  0  0  0  0  0  0  0
   39.2950   22.9470   39.4770 H   0  0  0  0  0  0  0  0  0  0  0  0
   40.7790   22.2550   37.5780 H   0  0  0  0  0  0  0  0  0  0  0  0
   34.8790   30.2060   31.7950 C   0  0  0  0  0  0  0  0  0  0  0  0
   34.5480   31.1210   31.0030 O   0  0  0  0  0  0  0  0  0  0  0  0
   34.0570   30.0320   32.9650 C   0  0  0  0  0  0  0  0  0  0  0  0
   34.4630   30.6480   34.1440 C   0  0  0  0  0  0  0  0  0  0  0  0
   35.3860   31.2380   34.1450 H   0  0  0  0  0  0  0  0  0  0  0  0
   33.8050   30.5960   35.3590 C   0  0  0  0  0  3  0  0  0  0  0  0
   32.6360   29.8660   35.4170 C   0  0  0  0  0  0  0  0  0  0  0  0
   31.9860   29.8080   36.5920 N   0  0  0  0  0  0  0  0  0  0  0  0
   30.8310   29.0910   36.6600 C   0  0  0  0  0  0  0  0  0  0  0  0
   30.3420   29.0750   37.6340 H   0  0  0  0  0  0  0  0  0  0  0  0
   30.3170   28.4250   35.5450 C   0  0  0  0  0  3  0  0  0  0  0  0
   31.0160   28.5050   34.3340 C   0  0  0  0  0  3  0  0  0  0  0  0
   32.2050   29.2420   34.2670 C   0  0  0  0  0  0  0  0  0  0  0  0
   32.8670   29.3000   33.0580 C   0  0  0  0  0  3  0  0  0  0  0  0
  1  6  1  0  0  0  0
  1 10  1  0  0  0  0
  2  1  2  0  0  0  0
  3  4  2  0  0  0  0
  3  2  1  0  0  0  0
  4  5  1  0  0  0  0
  5 30  1  0  0  0  0
  5  6  2  0  0  0  0
  7  2  1  0  0  0  0
  8  3  1  0  0  0  0
  9  4  1  0  0  0  0
 10 11  2  0  0  0  0
 12 10  1  0  0  0  0
 12 16  1  0  0  0  0
 13 12  1  0  0  0  0
 14 17  1  6  0  0  0
 14 25  1  0  0  0  0
 15 19  1  0  0  0  0
 15 16  1  0  0  0  0
 15 14  1  0  0  0  0
 16 20  1  1  0  0  0
 16 14  1  0  0  0  0
 18 15  1  0  0  0  0
 21 22  1  0  0  0  0
 21 27  1  0  0  0  0
 22 28  1  0  0  0  0
 23 29  1  0  0  0  0
 23 22  2  0  0  0  0
 24 23  1  0  0  0  0
 25 24  2  0  0  0  0
 25 26  1  0  0  0  0
 26 21  2  0  0  0  0
 30 32  1  0  0  0  0
 31 30  2  0  0  0  0
 32 43  2  0  0  0  0
 32 33  1  0  0  0  0
 33 34  1  0  0  0  0
 33 35  2  0  0  0  0
 35 36  1  0  0  0  0
 36 37  1  0  0  0  0
 37 38  2  0  0  0  0
 38 39  1  0  0  0  0
 40 38  1  0  0  0  0
 41 40  2  0  0  0  0
 42 41  1  0  0  0  0
 42 36  2  0  0  0  0
 43 42  1  0  0  0  0
M  END
>  <minimizedAffinity>
-6.21680832

$$$$

 OpenBabel03272508593D

 43 47  0  0  1  0  0  0  0  0999 V2000
   37.4390   27.5910   34.0480 C   0  0  0  0  0  0  0  0  0  0  0  0
   37.4770   27.4800   32.6860 C   0  0  0  0  0  0  0  0  0  0  0  0
   36.5270   28.1790   31.9550 C   0  0  0  0  0  0  0  0  0  0  0  0
   35.6080   28.9410   32.6590 C   0  0  0  0  0  0  0  0  0  0  0  0
   35.5670   29.0550   34.0370 C   0  0  0  0  0  0  0  0  0  0  0  0
   36.5120   28.3550   34.6880 N   0  0  0  0  0  0  0  0  0  0  0  0
   38.2090   26.8740   32.1700 H   0  0  0  0  0  0  0  0  0  0  0  0
   36.4730   28.1570   30.8750 H   0  0  0  0  0  0  0  0  0  0  0  0
   34.8650   29.4900   32.0960 H   0  0  0  0  0  0  0  0  0  0  0  0
   38.4480   26.8870   34.8710 C   0  0  0  0  0  0  0  0  0  0  0  0
   38.1700   26.3340   35.9380 O   0  0  0  0  0  0  0  0  0  0  0  0
   39.8090   26.8840   34.3450 N   0  0  0  0  0  0  0  0  0  0  0  0
   40.1550   27.4690   33.5710 H   0  0  0  0  0  0  0  0  0  0  0  0
   40.8320   24.6240   34.5330 C   0  0  2  0  0  0  0  0  0  0  0  0
   41.8900   25.5280   34.0090 C   0  0  0  0  0  0  0  0  0  0  0  0
   40.7520   25.9800   34.9680 C   0  0  1  0  0  0  0  0  0  0  0  0
   40.1610   24.2420   33.7260 H   0  0  0  0  0  0  0  0  0  0  0  0
   41.8470   25.8790   32.9690 H   0  0  0  0  0  0  0  0  0  0  0  0
   42.9020   25.5770   34.4340 H   0  0  0  0  0  0  0  0  0  0  0  0
   41.1120   26.2500   36.0010 H   0  0  0  0  0  0  0  0  0  0  0  0
   40.5330   22.2390   37.3540 C   0  0  0  0  0  0  0  0  0  0  0  0
   41.7890   21.5560   37.2880 C   0  0  0  0  0  0  0  0  0  0  0  0
   42.7230   21.9380   36.2720 C   0  0  0  0  0  0  0  0  0  0  0  0
   42.3890   22.9420   35.3960 N   0  0  0  0  0  0  0  0  0  0  0  0
   41.1760   23.5440   35.5230 C   0  0  0  0  0  0  0  0  0  0  0  0
   40.2290   23.2240   36.4780 N   0  0  0  0  0  0  0  0  0  0  0  0
   39.8550   21.9210   38.1350 H   0  0  0  0  0  0  0  0  0  0  0  0
   42.0440   20.7740   37.9730 H   0  0  0  0  0  0  0  0  0  0  0  0
   43.6660   21.4580   36.1870 H   0  0  0  0  0  0  0  0  0  0  0  0
   34.5610   29.8760   34.6690 C   0  0  0  0  0  0  0  0  0  0  0  0
   33.4070   29.4000   34.7920 O   0  0  0  0  0  0  0  0  0  0  0  0
   34.7710   31.2070   35.1780 C   0  0  0  0  0  0  0  0  0  0  0  0
   35.7410   31.9930   34.5640 C   0  0  0  0  0  0  0  0  0  0  0  0
   36.3090   31.5780   33.7250 H   0  0  0  0  0  0  0  0  0  0  0  0
   36.0790   33.2890   34.9100 C   0  0  0  0  0  3  0  0  0  0  0  0
   35.3960   33.8630   35.9620 C   0  0  0  0  0  0  0  0  0  0  0  0
   35.7140   35.1220   36.3090 N   0  0  0  0  0  0  0  0  0  0  0  0
   35.0460   35.6990   37.3450 C   0  0  0  0  0  0  0  0  0  0  0  0
   35.3410   36.7200   37.5860 H   0  0  0  0  0  0  0  0  0  0  0  0
   34.0490   35.0140   38.0430 C   0  0  0  0  0  3  0  0  0  0  0  0
   33.7390   33.7030   37.6590 C   0  0  0  0  0  3  0  0  0  0  0  0
   34.4290   33.1120   36.5930 C   0  0  0  0  0  0  0  0  0  0  0  0
   34.0970   31.8200   36.2410 C   0  0  0  0  0  3  0  0  0  0  0  0
  1  6  1  0  0  0  0
  1 10  1  0  0  0  0
  2  1  2  0  0  0  0
  3  4  2  0  0  0  0
  3  2  1  0  0  0  0
  4  5  1  0  0  0  0
  5 30  1  0  0  0  0
  5  6  2  0  0  0  0
  7  2  1  0  0  0  0
  8  3  1  0  0  0  0
  9  4  1  0  0  0  0
 10 11  2  0  0  0  0
 12 10  1  0  0  0  0
 12 16  1  0  0  0  0
 13 12  1  0  0  0  0
 14 17  1  6  0  0  0
 14 16  1  0  0  0  0
 14 25  1  0  0  0  0
 15 19  1  0  0  0  0
 15 14  1  0  0  0  0
 15 16  1  0  0  0  0
 16 20  1  1  0  0  0
 18 15  1  0  0  0  0
 21 27  1  0  0  0  0
 22 21  1  0  0  0  0
 22 28  1  0  0  0  0
 23 22  2  0  0  0  0
 24 25  2  0  0  0  0
 24 23  1  0  0  0  0
 25 26  1  0  0  0  0
 26 21  2  0  0  0  0
 29 23  1  0  0  0  0
 30 31  2  0  0  0  0
 30 32  1  0  0  0  0
 32 43  1  0  0  0  0
 33 35  1  0  0  0  0
 33 32  2  0  0  0  0
 34 33  1  0  0  0  0
 35 36  2  0  0  0  0
 36 37  1  0  0  0  0
 36 42  1  0  0  0  0
 37 38  2  0  0  0  0
 38 39  1  0  0  0  0
 38 40  1  0  0  0  0
 41 40  2  0  0  0  0
 42 41  1  0  0  0  0
 43 42  2  0  0  0  0
M  END
>  <minimizedAffinity>
-6.19732094

$$$$

 OpenBabel03272508593D

 43 47  0  0  1  0  0  0  0  0999 V2000
   38.0720   25.3120   34.6490 C   0  0  0  0  0  0  0  0  0  0  0  0
   38.6820   25.7180   35.8040 C   0  0  0  0  0  0  0  0  0  0  0  0
   38.4870   27.0310   36.2090 C   0  0  0  0  0  0  0  0  0  0  0  0
   37.6870   27.8370   35.4130 C   0  0  0  0  0  0  0  0  0  0  0  0
   37.0690   27.4290   34.2450 C   0  0  0  0  0  0  0  0  0  0  0  0
   37.2960   26.1480   33.9060 N   0  0  0  0  0  0  0  0  0  0  0  0
   39.3000   25.0610   36.3980 H   0  0  0  0  0  0  0  0  0  0  0  0
   38.9240   27.4480   37.1050 H   0  0  0  0  0  0  0  0  0  0  0  0
   37.5300   28.8610   35.7240 H   0  0  0  0  0  0  0  0  0  0  0  0
   38.2250   23.9140   34.1890 C   0  0  0  0  0  0  0  0  0  0  0  0
   38.2250   22.9540   34.9640 O   0  0  0  0  0  0  0  0  0  0  0  0
   38.3780   23.7300   32.7510 N   0  0  0  0  0  0  0  0  0  0  0  0
   38.5710   24.4760   32.0670 H   0  0  0  0  0  0  0  0  0  0  0  0
   37.0170   21.9540   31.6630 C   0  0  2  0  0  0  0  0  0  0  0  0
   38.0860   22.3230   30.6970 C   0  0  0  0  0  0  0  0  0  0  0  0
   38.2480   22.3810   32.2430 C   0  0  1  0  0  0  0  0  0  0  0  0
   36.1400   22.6430   31.6110 H   0  0  0  0  0  0  0  0  0  0  0  0
   38.0320   23.2770   30.1560 H   0  0  0  0  0  0  0  0  0  0  0  0
   38.7200   21.5810   30.1920 H   0  0  0  0  0  0  0  0  0  0  0  0
   38.9630   21.6110   32.6510 H   0  0  0  0  0  0  0  0  0  0  0  0
   37.1600   18.2530   31.8110 C   0  0  0  0  0  0  0  0  0  0  0  0
   35.8010   17.9240   32.1140 C   0  0  0  0  0  0  0  0  0  0  0  0
   34.8550   18.9890   32.2540 C   0  0  0  0  0  0  0  0  0  0  0  0
   35.2760   20.2880   32.0950 N   0  0  0  0  0  0  0  0  0  0  0  0
   36.5850   20.5200   31.8080 C   0  0  0  0  0  0  0  0  0  0  0  0
   37.5490   19.5400   31.6600 N   0  0  0  0  0  0  0  0  0  0  0  0
   37.8440   17.4200   31.7140 H   0  0  0  0  0  0  0  0  0  0  0  0
   35.4780   16.9110   32.2380 H   0  0  0  0  0  0  0  0  0  0  0  0
   33.8360   18.7910   32.4790 H   0  0  0  0  0  0  0  0  0  0  0  0
   36.2580   28.3550   33.4900 C   0  0  0  0  0  0  0  0  0  0  0  0
   35.1720   28.7290   33.9930 O   0  0  0  0  0  0  0  0  0  0  0  0
   36.5940   28.8940   32.1970 C   0  0  0  0  0  0  0  0  0  0  0  0
   35.9820   30.0790   31.8060 C   0  0  0  0  0  0  0  0  0  0  0  0
   35.2690   30.5580   32.4850 H   0  0  0  0  0  0  0  0  0  0  0  0
   36.1810   30.7430   30.6090 C   0  0  0  0  0  3  0  0  0  0  0  0
   37.0680   30.1840   29.7130 C   0  0  0  0  0  0  0  0  0  0  0  0
   37.2710   30.8200   28.5470 N   0  0  0  0  0  0  0  0  0  0  0  0
   38.1460   30.2780   27.6550 C   0  0  0  0  0  0  0  0  0  0  0  0
   38.2750   30.8300   26.7260 H   0  0  0  0  0  0  0  0  0  0  0  0
   38.8260   29.0890   27.9300 C   0  0  0  0  0  3  0  0  0  0  0  0
   38.5930   28.4500   29.1540 C   0  0  0  0  0  3  0  0  0  0  0  0
   37.6930   29.0090   30.0690 C   0  0  0  0  0  0  0  0  0  0  0  0
   37.4890   28.3530   31.2650 C   0  0  0  0  0  3  0  0  0  0  0  0
  1  2  1  0  0  0  0
  2  3  2  0  0  0  0
  2  7  1  0  0  0  0
  3  8  1  0  0  0  0
  4  9  1  0  0  0  0
  4  3  1  0  0  0  0
  5  4  2  0  0  0  0
  6  5  1  0  0  0  0
  6  1  2  0  0  0  0
 10  1  1  0  0  0  0
 10 11  2  0  0  0  0
 12 10  1  0  0  0  0
 13 12  1  0  0  0  0
 14 17  1  1  0  0  0
 14 25  1  0  0  0  0
 14 16  1  0  0  0  0
 15 14  1  0  0  0  0
 15 16  1  0  0  0  0
 16 20  1  1  0  0  0
 16 12  1  0  0  0  0
 18 15  1  0  0  0  0
 19 15  1  0  0  0  0
 21 22  1  0  0  0  0
 22 28  1  0  0  0  0
 22 23  2  0  0  0  0
 23 29  1  0  0  0  0
 24 23  1  0  0  0  0
 25 24  2  0  0  0  0
 26 25  1  0  0  0  0
 26 21  2  0  0  0  0
 27 21  1  0  0  0  0
 30 31  2  0  0  0  0
 30  5  1  0  0  0  0
 32 30  1  0  0  0  0
 33 32  1  0  0  0  0
 33 34  1  0  0  0  0
 35 33  2  0  0  0  0
 36 42  1  0  0  0  0
 36 35  1  0  0  0  0
 37 36  2  0  0  0  0
 38 40  2  0  0  0  0
 38 37  1  0  0  0  0
 39 38  1  0  0  0  0
 40 41  1  0  0  0  0
 41 42  2  0  0  0  0
 42 43  1  0  0  0  0
 43 32  2  0  0  0  0
M  END
>  <minimizedAffinity>
-6.16899014

$$$$
