
 OpenBabel03272508563D

 41 45  0  0  1  0  0  0  0  0999 V2000
   37.4660   26.8210   32.6540 C   0  0  0  0  0  0  0  0  0  0  0  0
   37.9350   27.2820   31.4540 C   0  0  0  0  0  0  0  0  0  0  0  0
   37.4980   28.5210   31.0010 C   0  0  0  0  0  0  0  0  0  0  0  0
   36.6250   29.2060   31.7880 C   0  0  0  0  0  0  0  0  0  0  0  0
   36.1440   28.7550   33.0040 C   0  0  0  0  0  0  0  0  0  0  0  0
   36.6120   27.5490   33.3710 N   0  0  0  0  0  0  0  0  0  0  0  0
   38.6320   26.7620   30.7990 H   0  0  0  0  0  0  0  0  0  0  0  0
   37.8520   28.9140   30.0510 H   0  0  0  0  0  0  0  0  0  0  0  0
   36.2920   30.1680   31.4260 H   0  0  0  0  0  0  0  0  0  0  0  0
   35.2100   29.4850   33.8490 C   0  0  0  0  0  0  0  0  0  0  0  0
   33.8480   29.2840   33.8040 C   0  0  0  0  0  0  0  0  0  0  0  0
   33.4140   28.5630   33.1260 H   0  0  0  0  0  0  0  0  0  0  0  0
   32.9380   29.9570   34.5890 C   0  0  0  0  0  3  0  0  0  0  0  0
   33.4690   30.8980   35.4780 C   0  0  0  0  0  0  0  0  0  0  0  0
   32.6800   31.6260   36.3030 N   0  0  0  0  0  0  0  0  0  0  0  0
   33.1640   32.5340   37.1640 C   0  0  0  0  0  0  0  0  0  0  0  0
   32.4360   33.0690   37.7880 H   0  0  0  0  0  0  0  0  0  0  0  0
   34.5300   32.7810   37.2550 C   0  0  0  0  0  3  0  0  0  0  0  0
   35.3660   32.0570   36.4270 C   0  0  0  0  0  3  0  0  0  0  0  0
   34.8370   31.1320   35.5550 C   0  0  0  0  0  0  0  0  0  0  0  0
   35.7070   30.4170   34.7320 C   0  0  0  0  0  3  0  0  0  0  0  0
   37.9250   25.5030   33.1160 C   0  0  0  0  0  0  0  0  0  0  0  0
   38.4250   24.6630   32.3090 O   0  0  0  0  0  0  0  0  0  0  0  0
   37.7980   25.1820   34.5100 N   0  0  0  0  0  0  0  0  0  0  0  0
   37.2550   25.7570   35.1930 H   0  0  0  0  0  0  0  0  0  0  0  0
   39.2060   24.0410   36.2210 C   0  0  2  0  0  0  0  0  0  0  0  0
   37.8710   23.4310   36.3080 C   0  0  0  0  0  0  0  0  0  0  0  0
   38.4690   23.9830   34.9870 C   0  0  1  0  0  0  0  0  0  0  0  0
   39.2760   25.0030   36.8020 H   0  0  0  0  0  0  0  0  0  0  0  0
   37.0320   23.9780   36.7350 H   0  0  0  0  0  0  0  0  0  0  0  0
   37.8600   22.3170   36.4020 H   0  0  0  0  0  0  0  0  0  0  0  0
   38.7060   23.1970   34.2340 H   0  0  0  0  0  0  0  0  0  0  0  0
   41.5740   21.4370   37.3290 C   0  0  0  0  0  0  0  0  0  0  0  0
   42.7640   21.7760   36.6080 C   0  0  0  0  0  0  0  0  0  0  0  0
   42.7060   22.9330   35.7420 C   0  0  0  0  0  0  0  0  0  0  0  0
   41.5480   23.6390   35.6490 N   0  0  0  0  0  0  0  0  0  0  0  0
   40.4560   23.2490   36.3720 C   0  0  0  0  0  0  0  0  0  0  0  0
   40.4350   22.1580   37.2180 N   0  0  0  0  0  0  0  0  0  0  0  0
   41.6020   20.5840   37.9740 H   0  0  0  0  0  0  0  0  0  0  0  0
   43.6540   21.1930   36.7110 H   0  0  0  0  0  0  0  0  0  0  0  0
   43.5940   23.1790   35.2070 H   0  0  0  0  0  0  0  0  0  0  0  0
  1 22  1  0  0  0  0
  1  6  1  0  0  0  0
  2  1  2  0  0  0  0
  3  2  1  0  0  0  0
  3  4  2  0  0  0  0
  4  5  1  0  0  0  0
  5  6  2  0  0  0  0
  5 10  1  0  0  0  0
  7  2  1  0  0  0  0
  8  3  1  0  0  0  0
  9  4  1  0  0  0  0
 10 21  1  0  0  0  0
 11 10  2  0  0  0  0
 11 13  1  0  0  0  0
 12 11  1  0  0  0  0
 13 14  2  0  0  0  0
 14 20  1  0  0  0  0
 14 15  1  0  0  0  0
 15 16  2  0  0  0  0
 16 18  1  0  0  0  0
 16 17  1  0  0  0  0
 19 18  2  0  0  0  0
 20 19  1  0  0  0  0
 21 20  2  0  0  0  0
 22 24  1  0  0  0  0
 23 22  2  0  0  0  0
 24 28  1  0  0  0  0
 24 25  1  0  0  0  0
 26 27  1  0  0  0  0
 26 37  1  0  0  0  0
 26 29  1  1  0  0  0
 27 31  1  0  0  0  0
 27 30  1  0  0  0  0
 28 32  1  6  0  0  0
 28 26  1  0  0  0  0
 28 27  1  0  0  0  0
 33 39  1  0  0  0  0
 34 40  1  0  0  0  0
 34 33  2  0  0  0  0
 35 34  1  0  0  0  0
 36 35  2  0  0  0  0
 36 37  1  0  0  0  0
 37 38  2  0  0  0  0
 38 33  1  0  0  0  0
 41 35  1  0  0  0  0
M  END
>  <minimizedAffinity>
-6.52863836

$$$$

 OpenBabel03272508563D

 41 45  0  0  1  0  0  0  0  0999 V2000
   36.1910   28.2510   32.8620 C   0  0  0  0  0  0  0  0  0  0  0  0
   35.6490   27.8130   31.6850 C   0  0  0  0  0  0  0  0  0  0  0  0
   35.8850   26.5030   31.2910 C   0  0  0  0  0  0  0  0  0  0  0  0
   36.6480   25.7280   32.1090 C   0  0  0  0  0  0  0  0  0  0  0  0
   37.2010   26.1540   33.3020 C   0  0  0  0  0  0  0  0  0  0  0  0
   36.9280   27.4340   33.6130 N   0  0  0  0  0  0  0  0  0  0  0  0
   35.0360   28.4050   31.0070 H   0  0  0  0  0  0  0  0  0  0  0  0
   35.4680   26.1260   30.3600 H   0  0  0  0  0  0  0  0  0  0  0  0
   36.8260   24.7100   31.7920 H   0  0  0  0  0  0  0  0  0  0  0  0
   38.0170   25.3280   34.1810 C   0  0  0  0  0  0  0  0  0  0  0  0
   39.1750   24.7110   33.7630 C   0  0  0  0  0  0  0  0  0  0  0  0
   39.5280   24.8190   32.7470 H   0  0  0  0  0  0  0  0  0  0  0  0
   39.9690   23.9230   34.5680 C   0  0  0  0  0  3  0  0  0  0  0  0
   39.5390   23.7640   35.8890 C   0  0  0  0  0  0  0  0  0  0  0  0
   40.2300   23.0140   36.7800 N   0  0  0  0  0  0  0  0  0  0  0  0
   39.8390   22.8450   38.0520 C   0  0  0  0  0  0  0  0  0  0  0  0
   40.4740   22.2170   38.6910 H   0  0  0  0  0  0  0  0  0  0  0  0
   38.6780   23.4430   38.5320 C   0  0  0  0  0  3  0  0  0  0  0  0
   37.9470   24.2150   37.6520 C   0  0  0  0  0  3  0  0  0  0  0  0
   38.3760   24.3690   36.3520 C   0  0  0  0  0  0  0  0  0  0  0  0
   37.6150   25.1550   35.4870 C   0  0  0  0  0  3  0  0  0  0  0  0
   35.9450   29.6440   33.2630 C   0  0  0  0  0  0  0  0  0  0  0  0
   35.9320   30.5800   32.4070 O   0  0  0  0  0  0  0  0  0  0  0  0
   35.7160   29.9290   34.6520 N   0  0  0  0  0  0  0  0  0  0  0  0
   35.8700   29.2380   35.4210 H   0  0  0  0  0  0  0  0  0  0  0  0
   34.9950   31.5770   36.3770 C   0  0  2  0  0  0  0  0  0  0  0  0
   36.2630   32.0790   35.8260 C   0  0  0  0  0  0  0  0  0  0  0  0
   35.2410   31.2600   34.9950 C   0  0  1  0  0  0  0  0  0  0  0  0
   35.1530   30.8040   37.1790 H   0  0  0  0  0  0  0  0  0  0  0  0
   37.2080   31.5920   36.0640 H   0  0  0  0  0  0  0  0  0  0  0  0
   36.2900   33.1760   35.6110 H   0  0  0  0  0  0  0  0  0  0  0  0
   34.7380   31.8450   34.1920 H   0  0  0  0  0  0  0  0  0  0  0  0
   33.1380   34.5080   37.6340 C   0  0  0  0  0  0  0  0  0  0  0  0
   31.7780   34.1510   37.3600 C   0  0  0  0  0  0  0  0  0  0  0  0
   31.5430   32.8670   36.7380 C   0  0  0  0  0  0  0  0  0  0  0  0
   32.6010   32.0660   36.4430 N   0  0  0  0  0  0  0  0  0  0  0  0
   33.8700   32.4810   36.7370 C   0  0  0  0  0  0  0  0  0  0  0  0
   34.1720   33.6910   37.3300 N   0  0  0  0  0  0  0  0  0  0  0  0
   33.3280   35.4550   38.0940 H   0  0  0  0  0  0  0  0  0  0  0  0
   30.9760   34.8130   37.6090 H   0  0  0  0  0  0  0  0  0  0  0  0
   30.5300   32.6090   36.5360 H   0  0  0  0  0  0  0  0  0  0  0  0
  1 22  1  0  0  0  0
  1  6  1  0  0  0  0
  2  1  2  0  0  0  0
  3  2  1  0  0  0  0
  3  4  2  0  0  0  0
  4  5  1  0  0  0  0
  5  6  2  0  0  0  0
  5 10  1  0  0  0  0
  7  2  1  0  0  0  0
  8  3  1  0  0  0  0
  9  4  1  0  0  0  0
 10 21  1  0  0  0  0
 11 10  2  0  0  0  0
 11 13  1  0  0  0  0
 12 11  1  0  0  0  0
 13 14  2  0  0  0  0
 14 20  1  0  0  0  0
 14 15  1  0  0  0  0
 15 16  2  0  0  0  0
 16 18  1  0  0  0  0
 16 17  1  0  0  0  0
 19 18  2  0  0  0  0
 20 19  1  0  0  0  0
 21 20  2  0  0  0  0
 22 24  1  0  0  0  0
 23 22  2  0  0  0  0
 24 28  1  0  0  0  0
 24 25  1  0  0  0  0
 26 37  1  0  0  0  0
 26 29  1  1  0  0  0
 27 30  1  0  0  0  0
 27 26  1  0  0  0  0
 28 32  1  6  0  0  0
 28 27  1  0  0  0  0
 28 26  1  0  0  0  0
 31 27  1  0  0  0  0
 33 39  1  0  0  0  0
 34 40  1  0  0  0  0
 34 33  1  0  0  0  0
 35 34  2  0  0  0  0
 36 37  2  0  0  0  0
 36 35  1  0  0  0  0
 37 38  1  0  0  0  0
 38 33  2  0  0  0  0
 41 35  1  0  0  0  0
M  END
>  <minimizedAffinity>
-6.52438545

$$$$

 OpenBabel03272508563D

 41 45  0  0  1  0  0  0  0  0999 V2000
   37.0750   26.8890   32.9450 C   0  0  0  0  0  0  0  0  0  0  0  0
   37.3090   27.2290   31.6410 C   0  0  0  0  0  0  0  0  0  0  0  0
   36.9080   28.4830   31.1980 C   0  0  0  0  0  0  0  0  0  0  0  0
   36.3030   29.3040   32.0990 C   0  0  0  0  0  0  0  0  0  0  0  0
   36.0610   28.9760   33.4200 C   0  0  0  0  0  0  0  0  0  0  0  0
   36.4770   27.7460   33.7700 N   0  0  0  0  0  0  0  0  0  0  0  0
   37.7890   26.5990   30.8940 H   0  0  0  0  0  0  0  0  0  0  0  0
   37.0800   28.7810   30.1670 H   0  0  0  0  0  0  0  0  0  0  0  0
   35.9950   30.2770   31.7430 H   0  0  0  0  0  0  0  0  0  0  0  0
   35.4140   29.8520   34.3870 C   0  0  0  0  0  0  0  0  0  0  0  0
   36.1170   30.6960   35.2170 C   0  0  0  0  0  0  0  0  0  0  0  0
   37.1960   30.7410   35.1810 H   0  0  0  0  0  0  0  0  0  0  0  0
   35.5370   31.5370   36.1420 C   0  0  0  0  0  3  0  0  0  0  0  0
   34.1400   31.5020   36.2130 C   0  0  0  0  0  0  0  0  0  0  0  0
   33.4490   32.2790   37.0810 N   0  0  0  0  0  0  0  0  0  0  0  0
   32.1110   32.2650   37.1690 C   0  0  0  0  0  0  0  0  0  0  0  0
   31.6510   32.9360   37.9070 H   0  0  0  0  0  0  0  0  0  0  0  0
   31.3460   31.4330   36.3570 C   0  0  0  0  0  3  0  0  0  0  0  0
   32.0170   30.6250   35.4600 C   0  0  0  0  0  3  0  0  0  0  0  0
   33.3920   30.6640   35.3940 C   0  0  0  0  0  0  0  0  0  0  0  0
   34.0400   29.8360   34.4770 C   0  0  0  0  0  3  0  0  0  0  0  0
   37.4920   25.5540   33.3990 C   0  0  0  0  0  0  0  0  0  0  0  0
   37.5760   24.5830   32.5880 O   0  0  0  0  0  0  0  0  0  0  0  0
   37.8070   25.3680   34.7880 N   0  0  0  0  0  0  0  0  0  0  0  0
   37.6070   26.0760   35.5300 H   0  0  0  0  0  0  0  0  0  0  0  0
   39.2180   24.0720   36.3820 C   0  0  2  0  0  0  0  0  0  0  0  0
   37.8620   23.5110   36.4750 C   0  0  0  0  0  0  0  0  0  0  0  0
   38.4420   24.1170   35.1700 C   0  0  1  0  0  0  0  0  0  0  0  0
   39.3450   24.9930   37.0160 H   0  0  0  0  0  0  0  0  0  0  0  0
   37.0590   24.0640   36.9620 H   0  0  0  0  0  0  0  0  0  0  0  0
   37.8080   22.3950   36.5050 H   0  0  0  0  0  0  0  0  0  0  0  0
   38.6230   23.3690   34.3660 H   0  0  0  0  0  0  0  0  0  0  0  0
   41.5690   21.4100   37.3840 C   0  0  0  0  0  0  0  0  0  0  0  0
   42.6860   21.6440   36.5180 C   0  0  0  0  0  0  0  0  0  0  0  0
   42.5860   22.7510   35.5940 C   0  0  0  0  0  0  0  0  0  0  0  0
   41.4590   23.5120   35.5840 N   0  0  0  0  0  0  0  0  0  0  0  0
   40.4370   23.2230   36.4440 C   0  0  0  0  0  0  0  0  0  0  0  0
   40.4600   22.1840   37.3530 N   0  0  0  0  0  0  0  0  0  0  0  0
   41.6280   20.5940   38.0740 H   0  0  0  0  0  0  0  0  0  0  0  0
   43.5530   21.0190   36.5600 H   0  0  0  0  0  0  0  0  0  0  0  0
   43.4190   22.9190   34.9520 H   0  0  0  0  0  0  0  0  0  0  0  0
  1 22  1  0  0  0  0
  1  6  1  0  0  0  0
  2  1  2  0  0  0  0
  3  2  1  0  0  0  0
  3  4  2  0  0  0  0
  4  5  1  0  0  0  0
  5  6  2  0  0  0  0
  5 10  1  0  0  0  0
  7  2  1  0  0  0  0
  8  3  1  0  0  0  0
  9  4  1  0  0  0  0
 10 21  2  0  0  0  0
 10 11  1  0  0  0  0
 11 13  2  0  0  0  0
 12 11  1  0  0  0  0
 13 14  1  0  0  0  0
 14 15  1  0  0  0  0
 15 16  2  0  0  0  0
 16 17  1  0  0  0  0
 18 16  1  0  0  0  0
 19 18  2  0  0  0  0
 20 19  1  0  0  0  0
 20 14  2  0  0  0  0
 21 20  1  0  0  0  0
 22 24  1  0  0  0  0
 23 22  2  0  0  0  0
 24 28  1  0  0  0  0
 24 25  1  0  0  0  0
 26 37  1  0  0  0  0
 26 27  1  0  0  0  0
 26 29  1  1  0  0  0
 27 31  1  0  0  0  0
 27 30  1  0  0  0  0
 28 32  1  6  0  0  0
 28 26  1  0  0  0  0
 28 27  1  0  0  0  0
 33 39  1  0  0  0  0
 34 40  1  0  0  0  0
 34 33  2  0  0  0  0
 35 34  1  0  0  0  0
 36 35  2  0  0  0  0
 36 37  1  0  0  0  0
 37 38  2  0  0  0  0
 38 33  1  0  0  0  0
 41 35  1  0  0  0  0
M  END
>  <minimizedAffinity>
-6.40963316

$$$$

 OpenBabel03272508563D

 41 45  0  0  1  0  0  0  0  0999 V2000
   37.0910   27.1580   32.2480 C   0  0  0  0  0  0  0  0  0  0  0  0
   37.5750   27.7450   31.1110 C   0  0  0  0  0  0  0  0  0  0  0  0
   37.2190   29.0590   30.8370 C   0  0  0  0  0  0  0  0  0  0  0  0
   36.4040   29.6880   31.7270 C   0  0  0  0  0  0  0  0  0  0  0  0
   35.9080   29.1110   32.8820 C   0  0  0  0  0  0  0  0  0  0  0  0
   36.2970   27.8380   33.0740 N   0  0  0  0  0  0  0  0  0  0  0  0
   38.2270   27.2720   30.3780 H   0  0  0  0  0  0  0  0  0  0  0  0
   37.5870   29.5510   29.9400 H   0  0  0  0  0  0  0  0  0  0  0  0
   36.1330   30.7100   31.5040 H   0  0  0  0  0  0  0  0  0  0  0  0
   35.0380   29.7800   33.8360 C   0  0  0  0  0  0  0  0  0  0  0  0
   33.6980   29.4850   33.9610 C   0  0  0  0  0  0  0  0  0  0  0  0
   33.2350   28.7300   33.3410 H   0  0  0  0  0  0  0  0  0  0  0  0
   32.8470   30.1000   34.8530 C   0  0  0  0  0  3  0  0  0  0  0  0
   33.4170   31.0820   35.6700 C   0  0  0  0  0  0  0  0  0  0  0  0
   32.6870   31.7600   36.5870 N   0  0  0  0  0  0  0  0  0  0  0  0
   33.2090   32.7070   37.3820 C   0  0  0  0  0  0  0  0  0  0  0  0
   32.5280   33.1950   38.0920 H   0  0  0  0  0  0  0  0  0  0  0  0
   34.5550   33.0480   37.3030 C   0  0  0  0  0  3  0  0  0  0  0  0
   35.3310   32.3780   36.3780 C   0  0  0  0  0  3  0  0  0  0  0  0
   34.7640   31.4120   35.5770 C   0  0  0  0  0  0  0  0  0  0  0  0
   35.5740   30.7520   34.6520 C   0  0  0  0  0  3  0  0  0  0  0  0
   37.4640   25.7620   32.5210 C   0  0  0  0  0  0  0  0  0  0  0  0
   37.7410   25.3750   33.6960 O   0  0  0  0  0  0  0  0  0  0  0  0
   37.5070   24.8370   31.4230 N   0  0  0  0  0  0  0  0  0  0  0  0
   37.4480   25.1210   30.4200 H   0  0  0  0  0  0  0  0  0  0  0  0
   36.8950   22.4630   30.9740 C   0  0  2  0  0  0  0  0  0  0  0  0
   38.3120   22.6030   30.6090 C   0  0  0  0  0  0  0  0  0  0  0  0
   37.6420   23.4240   31.7420 C   0  0  1  0  0  0  0  0  0  0  0  0
   36.2050   22.7980   30.1510 H   0  0  0  0  0  0  0  0  0  0  0  0
   38.6090   23.1480   29.7130 H   0  0  0  0  0  0  0  0  0  0  0  0
   38.9770   21.7700   30.9470 H   0  0  0  0  0  0  0  0  0  0  0  0
   38.0010   23.1630   32.7630 H   0  0  0  0  0  0  0  0  0  0  0  0
   35.7770   18.9880   31.5130 C   0  0  0  0  0  0  0  0  0  0  0  0
   35.4040   18.9950   32.8960 C   0  0  0  0  0  0  0  0  0  0  0  0
   35.5520   20.2420   33.6140 C   0  0  0  0  0  0  0  0  0  0  0  0
   36.0280   21.3350   32.9610 N   0  0  0  0  0  0  0  0  0  0  0  0
   36.3600   21.2450   31.6390 C   0  0  0  0  0  0  0  0  0  0  0  0
   36.2470   20.0910   30.8890 N   0  0  0  0  0  0  0  0  0  0  0  0
   35.6730   18.0730   30.9680 H   0  0  0  0  0  0  0  0  0  0  0  0
   35.0340   18.1110   33.3700 H   0  0  0  0  0  0  0  0  0  0  0  0
   35.2740   20.2400   34.6430 H   0  0  0  0  0  0  0  0  0  0  0  0
  1 22  1  0  0  0  0
  1  6  1  0  0  0  0
  2  1  2  0  0  0  0
  3  2  1  0  0  0  0
  3  4  2  0  0  0  0
  4  5  1  0  0  0  0
  5  6  2  0  0  0  0
  5 10  1  0  0  0  0
  7  2  1  0  0  0  0
  8  3  1  0  0  0  0
  9  4  1  0  0  0  0
 10 11  2  0  0  0  0
 10 21  1  0  0  0  0
 11 13  1  0  0  0  0
 12 11  1  0  0  0  0
 13 14  2  0  0  0  0
 14 15  1  0  0  0  0
 15 16  2  0  0  0  0
 16 17  1  0  0  0  0
 18 16  1  0  0  0  0
 19 18  2  0  0  0  0
 20 14  1  0  0  0  0
 20 19  1  0  0  0  0
 21 20  2  0  0  0  0
 22 23  2  0  0  0  0
 24 28  1  0  0  0  0
 24 22  1  0  0  0  0
 25 24  1  0  0  0  0
 26 29  1  6  0  0  0
 26 37  1  0  0  0  0
 26 28  1  0  0  0  0
 27 31  1  0  0  0  0
 27 26  1  0  0  0  0
 27 28  1  0  0  0  0
 28 32  1  1  0  0  0
 30 27  1  0  0  0  0
 33 34  1  0  0  0  0
 34 40  1  0  0  0  0
 34 35  2  0  0  0  0
 35 41  1  0  0  0  0
 36 35  1  0  0  0  0
 37 36  2  0  0  0  0
 38 33  2  0  0  0  0
 38 37  1  0  0  0  0
 39 33  1  0  0  0  0
M  END
>  <minimizedAffinity>
-6.39460135

$$$$

 OpenBabel03272508563D

 41 45  0  0  1  0  0  0  0  0999 V2000
   36.7350   27.3780   32.3170 C   0  0  0  0  0  0  0  0  0  0  0  0
   36.8370   27.8160   31.0240 C   0  0  0  0  0  0  0  0  0  0  0  0
   36.4000   29.0980   30.7200 C   0  0  0  0  0  0  0  0  0  0  0  0
   35.8950   29.8490   31.7370 C   0  0  0  0  0  0  0  0  0  0  0  0
   35.7870   29.4230   33.0480 C   0  0  0  0  0  0  0  0  0  0  0  0
   36.2290   28.1710   33.2610 N   0  0  0  0  0  0  0  0  0  0  0  0
   37.2340   27.2440   30.1880 H   0  0  0  0  0  0  0  0  0  0  0  0
   36.4670   29.4740   29.7020 H   0  0  0  0  0  0  0  0  0  0  0  0
   35.5580   30.8450   31.4890 H   0  0  0  0  0  0  0  0  0  0  0  0
   35.2480   30.2220   34.1380 C   0  0  0  0  0  0  0  0  0  0  0  0
   36.0360   30.7590   35.1320 C   0  0  0  0  0  0  0  0  0  0  0  0
   37.1060   30.6040   35.1390 H   0  0  0  0  0  0  0  0  0  0  0  0
   35.5580   31.5200   36.1770 C   0  0  0  0  0  3  0  0  0  0  0  0
   34.1770   31.7390   36.1960 C   0  0  0  0  0  0  0  0  0  0  0  0
   33.5830   32.4690   37.1700 N   0  0  0  0  0  0  0  0  0  0  0  0
   32.2610   32.6940   37.2120 C   0  0  0  0  0  0  0  0  0  0  0  0
   31.8830   33.3000   38.0460 H   0  0  0  0  0  0  0  0  0  0  0  0
   31.4130   32.1780   36.2360 C   0  0  0  0  0  3  0  0  0  0  0  0
   31.9840   31.4270   35.2270 C   0  0  0  0  0  3  0  0  0  0  0  0
   33.3440   31.2150   35.2130 C   0  0  0  0  0  0  0  0  0  0  0  0
   33.8910   30.4530   34.1810 C   0  0  0  0  0  3  0  0  0  0  0  0
   37.1880   26.0140   32.6240 C   0  0  0  0  0  0  0  0  0  0  0  0
   37.6740   25.7250   33.7590 O   0  0  0  0  0  0  0  0  0  0  0  0
   37.0690   25.0060   31.6080 N   0  0  0  0  0  0  0  0  0  0  0  0
   36.8310   25.2090   30.6120 H   0  0  0  0  0  0  0  0  0  0  0  0
   36.8290   22.5690   31.1440 C   0  0  2  0  0  0  0  0  0  0  0  0
   38.2660   22.8690   31.0570 C   0  0  0  0  0  0  0  0  0  0  0  0
   37.2970   23.6250   32.0030 C   0  0  1  0  0  0  0  0  0  0  0  0
   36.2830   22.8060   30.1890 H   0  0  0  0  0  0  0  0  0  0  0  0
   38.6710   23.4310   30.2150 H   0  0  0  0  0  0  0  0  0  0  0  0
   38.9400   22.1270   31.5510 H   0  0  0  0  0  0  0  0  0  0  0  0
   37.4730   23.4260   33.0840 H   0  0  0  0  0  0  0  0  0  0  0  0
   35.7610   19.0540   31.4880 C   0  0  0  0  0  0  0  0  0  0  0  0
   35.3940   18.9770   32.8700 C   0  0  0  0  0  0  0  0  0  0  0  0
   35.5270   20.1830   33.6580 C   0  0  0  0  0  0  0  0  0  0  0  0
   35.9860   21.3180   33.0670 N   0  0  0  0  0  0  0  0  0  0  0  0
   36.3140   21.3080   31.7400 C   0  0  0  0  0  0  0  0  0  0  0  0
   36.2140   20.1970   30.9260 N   0  0  0  0  0  0  0  0  0  0  0  0
   35.6680   18.1700   30.8920 H   0  0  0  0  0  0  0  0  0  0  0  0
   35.0380   18.0630   33.2940 H   0  0  0  0  0  0  0  0  0  0  0  0
   35.2530   20.1190   34.6850 H   0  0  0  0  0  0  0  0  0  0  0  0
  1 22  1  0  0  0  0
  1  6  1  0  0  0  0
  2  1  2  0  0  0  0
  3  2  1  0  0  0  0
  3  4  2  0  0  0  0
  4  5  1  0  0  0  0
  5  6  2  0  0  0  0
  5 10  1  0  0  0  0
  7  2  1  0  0  0  0
  8  3  1  0  0  0  0
  9  4  1  0  0  0  0
 10 21  2  0  0  0  0
 10 11  1  0  0  0  0
 11 12  1  0  0  0  0
 11 13  2  0  0  0  0
 13 14  1  0  0  0  0
 14 15  1  0  0  0  0
 15 16  2  0  0  0  0
 16 17  1  0  0  0  0
 18 16  1  0  0  0  0
 19 18  2  0  0  0  0
 20 19  1  0  0  0  0
 20 14  2  0  0  0  0
 21 20  1  0  0  0  0
 22 23  2  0  0  0  0
 24 28  1  0  0  0  0
 24 22  1  0  0  0  0
 25 24  1  0  0  0  0
 26 29  1  6  0  0  0
 26 37  1  0  0  0  0
 26 28  1  0  0  0  0
 27 26  1  0  0  0  0
 27 31  1  0  0  0  0
 27 28  1  0  0  0  0
 28 32  1  1  0  0  0
 30 27  1  0  0  0  0
 33 34  1  0  0  0  0
 34 40  1  0  0  0  0
 34 35  2  0  0  0  0
 35 41  1  0  0  0  0
 36 35  1  0  0  0  0
 37 36  2  0  0  0  0
 38 33  2  0  0  0  0
 38 37  1  0  0  0  0
 39 33  1  0  0  0  0
M  END
>  <minimizedAffinity>
-6.19977236

$$$$

 OpenBabel03272508563D

 41 45  0  0  1  0  0  0  0  0999 V2000
   35.6150   29.9810   33.5040 C   0  0  0  0  0  0  0  0  0  0  0  0
   35.7710   30.8730   32.4780 C   0  0  0  0  0  0  0  0  0  0  0  0
   36.0530   30.3840   31.2090 C   0  0  0  0  0  0  0  0  0  0  0  0
   36.1550   29.0350   31.0640 C   0  0  0  0  0  0  0  0  0  0  0  0
   35.9980   28.1200   32.0900 C   0  0  0  0  0  0  0  0  0  0  0  0
   35.7290   28.6720   33.2860 N   0  0  0  0  0  0  0  0  0  0  0  0
   35.6970   31.9560   32.5580 H   0  0  0  0  0  0  0  0  0  0  0  0
   36.1830   31.0670   30.3740 H   0  0  0  0  0  0  0  0  0  0  0  0
   36.3750   28.6650   30.0720 H   0  0  0  0  0  0  0  0  0  0  0  0
   36.1060   26.6770   31.9380 C   0  0  0  0  0  0  0  0  0  0  0  0
   35.2950   25.9510   31.0940 C   0  0  0  0  0  0  0  0  0  0  0  0
   34.5320   26.4370   30.5010 H   0  0  0  0  0  0  0  0  0  0  0  0
   35.3710   24.5860   30.9270 C   0  0  0  0  0  3  0  0  0  0  0  0
   36.3480   23.9280   31.6810 C   0  0  0  0  0  0  0  0  0  0  0  0
   36.5240   22.5870   31.6090 N   0  0  0  0  0  0  0  0  0  0  0  0
   37.4530   21.9320   32.3210 C   0  0  0  0  0  0  0  0  0  0  0  0
   37.5110   20.8430   32.1860 H   0  0  0  0  0  0  0  0  0  0  0  0
   38.3020   22.6100   33.1900 C   0  0  0  0  0  3  0  0  0  0  0  0
   38.1510   23.9790   33.2910 C   0  0  0  0  0  3  0  0  0  0  0  0
   37.1880   24.6210   32.5460 C   0  0  0  0  0  0  0  0  0  0  0  0
   37.0600   26.0050   32.6700 C   0  0  0  0  0  3  0  0  0  0  0  0
   35.3300   30.5120   34.8450 C   0  0  0  0  0  0  0  0  0  0  0  0
   36.2670   30.8080   35.6460 O   0  0  0  0  0  0  0  0  0  0  0  0
   33.9590   30.6920   35.2360 N   0  0  0  0  0  0  0  0  0  0  0  0
   33.1460   30.3220   34.6930 H   0  0  0  0  0  0  0  0  0  0  0  0
   32.5470   32.2910   36.5240 C   0  0  2  0  0  0  0  0  0  0  0  0
   32.4070   30.9850   37.1860 C   0  0  0  0  0  0  0  0  0  0  0  0
   33.7020   31.4340   36.4590 C   0  0  1  0  0  0  0  0  0  0  0  0
   31.8620   32.3970   35.6380 H   0  0  0  0  0  0  0  0  0  0  0  0
   31.8350   30.1810   36.7230 H   0  0  0  0  0  0  0  0  0  0  0  0
   32.4490   31.0090   38.3030 H   0  0  0  0  0  0  0  0  0  0  0  0
   34.5650   31.6110   37.1400 H   0  0  0  0  0  0  0  0  0  0  0  0
   33.8700   35.0780   38.5480 C   0  0  0  0  0  0  0  0  0  0  0  0
   32.7350   35.9450   38.6570 C   0  0  0  0  0  0  0  0  0  0  0  0
   31.5130   35.5190   38.0120 C   0  0  0  0  0  0  0  0  0  0  0  0
   31.4900   34.3370   37.3420 N   0  0  0  0  0  0  0  0  0  0  0  0
   32.6170   33.5660   37.2860 C   0  0  0  0  0  0  0  0  0  0  0  0
   33.8190   33.9060   37.8750 N   0  0  0  0  0  0  0  0  0  0  0  0
   34.7820   35.3790   39.0200 H   0  0  0  0  0  0  0  0  0  0  0  0
   32.7990   36.8680   39.1940 H   0  0  0  0  0  0  0  0  0  0  0  0
   30.6730   36.1690   38.0960 H   0  0  0  0  0  0  0  0  0  0  0  0
  1 22  1  0  0  0  0
  2  7  1  0  0  0  0
  2  1  2  0  0  0  0
  3  2  1  0  0  0  0
  4  3  2  0  0  0  0
  4  5  1  0  0  0  0
  5  6  2  0  0  0  0
  6  1  1  0  0  0  0
  8  3  1  0  0  0  0
  9  4  1  0  0  0  0
 10  5  1  0  0  0  0
 10 21  1  0  0  0  0
 11 10  2  0  0  0  0
 12 11  1  0  0  0  0
 13 11  1  0  0  0  0
 13 14  2  0  0  0  0
 14 20  1  0  0  0  0
 15 14  1  0  0  0  0
 15 16  2  0  0  0  0
 16 18  1  0  0  0  0
 17 16  1  0  0  0  0
 18 19  2  0  0  0  0
 20 21  2  0  0  0  0
 20 19  1  0  0  0  0
 22 24  1  0  0  0  0
 22 23  2  0  0  0  0
 24 28  1  0  0  0  0
 25 24  1  0  0  0  0
 26 29  1  6  0  0  0
 26 27  1  0  0  0  0
 26 37  1  0  0  0  0
 27 31  1  0  0  0  0
 28 26  1  0  0  0  0
 28 32  1  1  0  0  0
 28 27  1  0  0  0  0
 30 27  1  0  0  0  0
 33 34  1  0  0  0  0
 33 39  1  0  0  0  0
 34 40  1  0  0  0  0
 35 41  1  0  0  0  0
 35 34  2  0  0  0  0
 36 35  1  0  0  0  0
 37 36  2  0  0  0  0
 37 38  1  0  0  0  0
 38 33  2  0  0  0  0
M  END
>  <minimizedAffinity>
-6.15912676

$$$$

 OpenBabel03272508563D

 41 45  0  0  1  0  0  0  0  0999 V2000
   36.3840   28.2530   32.7720 C   0  0  0  0  0  0  0  0  0  0  0  0
   36.4210   28.0850   31.4140 C   0  0  0  0  0  0  0  0  0  0  0  0
   37.1340   27.0120   30.8960 C   0  0  0  0  0  0  0  0  0  0  0  0
   37.7570   26.1850   31.7790 C   0  0  0  0  0  0  0  0  0  0  0  0
   37.7280   26.3390   33.1530 C   0  0  0  0  0  0  0  0  0  0  0  0
   37.0190   27.4010   33.5760 N   0  0  0  0  0  0  0  0  0  0  0  0
   35.9360   28.7260   30.6790 H   0  0  0  0  0  0  0  0  0  0  0  0
   37.1830   26.8530   29.8210 H   0  0  0  0  0  0  0  0  0  0  0  0
   38.3090   25.3530   31.3650 H   0  0  0  0  0  0  0  0  0  0  0  0
   38.3910   25.4560   34.1010 C   0  0  0  0  0  0  0  0  0  0  0  0
   39.5120   24.7230   33.7810 C   0  0  0  0  0  0  0  0  0  0  0  0
   39.9480   24.7750   32.7930 H   0  0  0  0  0  0  0  0  0  0  0  0
   40.1640   23.8790   34.6530 C   0  0  0  0  0  3  0  0  0  0  0  0
   39.6230   23.7880   35.9400 C   0  0  0  0  0  0  0  0  0  0  0  0
   40.1700   22.9930   36.8910 N   0  0  0  0  0  0  0  0  0  0  0  0
   39.6710   22.8880   38.1320 C   0  0  0  0  0  0  0  0  0  0  0  0
   40.1930   22.2150   38.8250 H   0  0  0  0  0  0  0  0  0  0  0  0
   38.5420   23.6050   38.5150 C   0  0  0  0  0  3  0  0  0  0  0  0
   37.9560   24.4260   37.5710 C   0  0  0  0  0  3  0  0  0  0  0  0
   38.4930   24.5110   36.3060 C   0  0  0  0  0  0  0  0  0  0  0  0
   37.8790   25.3490   35.3750 C   0  0  0  0  0  3  0  0  0  0  0  0
   35.6370   29.3990   33.3080 C   0  0  0  0  0  0  0  0  0  0  0  0
   34.8090   29.2560   34.2570 O   0  0  0  0  0  0  0  0  0  0  0  0
   35.8650   30.6960   32.7340 N   0  0  0  0  0  0  0  0  0  0  0  0
   36.4070   30.8570   31.8550 H   0  0  0  0  0  0  0  0  0  0  0  0
   35.9940   32.3720   34.5750 C   0  0  2  0  0  0  0  0  0  0  0  0
   36.1870   33.1160   33.3210 C   0  0  0  0  0  0  0  0  0  0  0  0
   35.3040   31.8450   33.4270 C   0  0  1  0  0  0  0  0  0  0  0  0
   36.9460   31.8950   34.9400 H   0  0  0  0  0  0  0  0  0  0  0  0
   37.1130   33.0260   32.7530 H   0  0  0  0  0  0  0  0  0  0  0  0
   35.6320   34.0830   33.2490 H   0  0  0  0  0  0  0  0  0  0  0  0
   34.2150   32.0380   33.2960 H   0  0  0  0  0  0  0  0  0  0  0  0
   34.7040   34.7260   37.1060 C   0  0  0  0  0  0  0  0  0  0  0  0
   33.7380   33.9300   37.8030 C   0  0  0  0  0  0  0  0  0  0  0  0
   33.5660   32.5630   37.3630 C   0  0  0  0  0  0  0  0  0  0  0  0
   34.3130   32.0970   36.3270 N   0  0  0  0  0  0  0  0  0  0  0  0
   35.2150   32.9220   35.7150 C   0  0  0  0  0  0  0  0  0  0  0  0
   35.4340   34.2360   36.0790 N   0  0  0  0  0  0  0  0  0  0  0  0
   34.8430   35.7390   37.4200 H   0  0  0  0  0  0  0  0  0  0  0  0
   33.1710   34.3380   38.6120 H   0  0  0  0  0  0  0  0  0  0  0  0
   32.8450   31.9770   37.8840 H   0  0  0  0  0  0  0  0  0  0  0  0
  1 22  1  0  0  0  0
  1  6  1  0  0  0  0
  2  1  2  0  0  0  0
  3  2  1  0  0  0  0
  3  4  2  0  0  0  0
  4  5  1  0  0  0  0
  5  6  2  0  0  0  0
  5 10  1  0  0  0  0
  7  2  1  0  0  0  0
  8  3  1  0  0  0  0
  9  4  1  0  0  0  0
 10 21  1  0  0  0  0
 11 10  2  0  0  0  0
 11 13  1  0  0  0  0
 12 11  1  0  0  0  0
 13 14  2  0  0  0  0
 14 20  1  0  0  0  0
 14 15  1  0  0  0  0
 15 16  2  0  0  0  0
 16 18  1  0  0  0  0
 16 17  1  0  0  0  0
 19 18  2  0  0  0  0
 20 19  1  0  0  0  0
 21 20  2  0  0  0  0
 22 23  2  0  0  0  0
 24 22  1  0  0  0  0
 24 28  1  0  0  0  0
 25 24  1  0  0  0  0
 26 29  1  1  0  0  0
 26 37  1  0  0  0  0
 27 28  1  0  0  0  0
 27 26  1  0  0  0  0
 28 32  1  6  0  0  0
 28 26  1  0  0  0  0
 30 27  1  0  0  0  0
 31 27  1  0  0  0  0
 33 39  1  0  0  0  0
 33 34  1  0  0  0  0
 34 40  1  0  0  0  0
 35 34  2  0  0  0  0
 35 41  1  0  0  0  0
 36 35  1  0  0  0  0
 37 38  1  0  0  0  0
 37 36  2  0  0  0  0
 38 33  2  0  0  0  0
M  END
>  <minimizedAffinity>
-6.1385951

$$$$

 OpenBabel03272508563D

 41 45  0  0  1  0  0  0  0  0999 V2000
   37.6460   27.5220   34.1630 C   0  0  0  0  0  0  0  0  0  0  0  0
   37.6030   27.2390   32.8250 C   0  0  0  0  0  0  0  0  0  0  0  0
   36.6110   27.8290   32.0520 C   0  0  0  0  0  0  0  0  0  0  0  0
   35.7370   28.6620   32.6790 C   0  0  0  0  0  0  0  0  0  0  0  0
   35.7690   28.9610   34.0290 C   0  0  0  0  0  0  0  0  0  0  0  0
   36.7560   28.3500   34.7080 N   0  0  0  0  0  0  0  0  0  0  0  0
   38.2840   26.5780   32.2910 H   0  0  0  0  0  0  0  0  0  0  0  0
   36.5500   27.6220   30.9860 H   0  0  0  0  0  0  0  0  0  0  0  0
   34.9690   29.1150   32.0680 H   0  0  0  0  0  0  0  0  0  0  0  0
   34.8360   29.8520   34.7040 C   0  0  0  0  0  0  0  0  0  0  0  0
   33.4710   29.6740   34.6640 C   0  0  0  0  0  0  0  0  0  0  0  0
   33.0330   28.8500   34.1190 H   0  0  0  0  0  0  0  0  0  0  0  0
   32.5620   30.4980   35.2910 C   0  0  0  0  0  3  0  0  0  0  0  0
   33.0980   31.5740   36.0050 C   0  0  0  0  0  0  0  0  0  0  0  0
   32.3110   32.4570   36.6650 N   0  0  0  0  0  0  0  0  0  0  0  0
   32.7990   33.4980   37.3560 C   0  0  0  0  0  0  0  0  0  0  0  0
   32.0720   34.1530   37.8550 H   0  0  0  0  0  0  0  0  0  0  0  0
   34.1690   33.7290   37.4330 C   0  0  0  0  0  3  0  0  0  0  0  0
   35.0030   32.8500   36.7720 C   0  0  0  0  0  3  0  0  0  0  0  0
   34.4700   31.7910   36.0710 C   0  0  0  0  0  0  0  0  0  0  0  0
   35.3390   30.9200   35.4140 C   0  0  0  0  0  3  0  0  0  0  0  0
   38.6930   26.8820   34.9730 C   0  0  0  0  0  0  0  0  0  0  0  0
   38.4690   26.5240   36.1680 O   0  0  0  0  0  0  0  0  0  0  0  0
   39.9830   26.6650   34.3810 N   0  0  0  0  0  0  0  0  0  0  0  0
   40.2800   27.0750   33.4670 H   0  0  0  0  0  0  0  0  0  0  0  0
   41.2120   24.5080   34.6000 C   0  0  2  0  0  0  0  0  0  0  0  0
   42.2240   25.5350   34.3130 C   0  0  0  0  0  0  0  0  0  0  0  0
   40.9220   25.8240   35.1060 C   0  0  1  0  0  0  0  0  0  0  0  0
   40.7100   24.1290   33.6670 H   0  0  0  0  0  0  0  0  0  0  0  0
   42.3060   25.9790   33.3220 H   0  0  0  0  0  0  0  0  0  0  0  0
   43.1560   25.4720   34.9270 H   0  0  0  0  0  0  0  0  0  0  0  0
   41.0890   26.0550   36.1820 H   0  0  0  0  0  0  0  0  0  0  0  0
   42.8750   21.7150   36.3470 C   0  0  0  0  0  0  0  0  0  0  0  0
   41.9070   21.3540   37.3390 C   0  0  0  0  0  0  0  0  0  0  0  0
   40.6730   22.1070   37.3660 C   0  0  0  0  0  0  0  0  0  0  0  0
   40.4840   23.1080   36.4670 N   0  0  0  0  0  0  0  0  0  0  0  0
   41.4580   23.3910   35.5500 C   0  0  0  0  0  0  0  0  0  0  0  0
   42.6590   22.7160   35.4630 N   0  0  0  0  0  0  0  0  0  0  0  0
   43.7930   21.1670   36.3140 H   0  0  0  0  0  0  0  0  0  0  0  0
   42.0990   20.5590   38.0280 H   0  0  0  0  0  0  0  0  0  0  0  0
   39.9590   21.8340   38.1070 H   0  0  0  0  0  0  0  0  0  0  0  0
  1  6  1  0  0  0  0
  1 22  1  0  0  0  0
  2  1  2  0  0  0  0
  3  4  2  0  0  0  0
  3  2  1  0  0  0  0
  4  5  1  0  0  0  0
  5 10  1  0  0  0  0
  5  6  2  0  0  0  0
  7  2  1  0  0  0  0
  8  3  1  0  0  0  0
  9  4  1  0  0  0  0
 10 21  1  0  0  0  0
 11 10  2  0  0  0  0
 11 13  1  0  0  0  0
 12 11  1  0  0  0  0
 13 14  2  0  0  0  0
 14 20  1  0  0  0  0
 14 15  1  0  0  0  0
 15 16  2  0  0  0  0
 16 18  1  0  0  0  0
 16 17  1  0  0  0  0
 19 18  2  0  0  0  0
 20 19  1  0  0  0  0
 21 20  2  0  0  0  0
 22 23  2  0  0  0  0
 24 22  1  0  0  0  0
 24 28  1  0  0  0  0
 25 24  1  0  0  0  0
 26 29  1  6  0  0  0
 26 28  1  0  0  0  0
 26 37  1  0  0  0  0
 27 26  1  0  0  0  0
 27 31  1  0  0  0  0
 27 28  1  0  0  0  0
 28 32  1  1  0  0  0
 30 27  1  0  0  0  0
 33 34  1  0  0  0  0
 34 35  2  0  0  0  0
 34 40  1  0  0  0  0
 35 41  1  0  0  0  0
 36 35  1  0  0  0  0
 37 36  2  0  0  0  0
 38 37  1  0  0  0  0
 38 33  2  0  0  0  0
 39 33  1  0  0  0  0
M  END
>  <minimizedAffinity>
-6.11383915

$$$$

 OpenBabel03272508563D

 41 45  0  0  1  0  0  0  0  0999 V2000
   36.6730   28.1100   32.8840 C   0  0  0  0  0  0  0  0  0  0  0  0
   37.4160   28.2980   31.7500 C   0  0  0  0  0  0  0  0  0  0  0  0
   38.5790   27.5570   31.5870 C   0  0  0  0  0  0  0  0  0  0  0  0
   38.9100   26.6800   32.5730 C   0  0  0  0  0  0  0  0  0  0  0  0
   38.1700   26.4760   33.7230 C   0  0  0  0  0  0  0  0  0  0  0  0
   37.0600   27.2320   33.8080 N   0  0  0  0  0  0  0  0  0  0  0  0
   37.1820   28.9900   30.9430 H   0  0  0  0  0  0  0  0  0  0  0  0
   39.1910   27.6850   30.6970 H   0  0  0  0  0  0  0  0  0  0  0  0
   39.8170   26.1090   32.4350 H   0  0  0  0  0  0  0  0  0  0  0  0
   38.5200   25.5390   34.7800 C   0  0  0  0  0  0  0  0  0  0  0  0
   37.7520   25.3660   35.9100 C   0  0  0  0  0  0  0  0  0  0  0  0
   36.8420   25.9310   36.0560 H   0  0  0  0  0  0  0  0  0  0  0  0
   38.0540   24.4880   36.9280 C   0  0  0  0  0  3  0  0  0  0  0  0
   39.2260   23.7410   36.7680 C   0  0  0  0  0  0  0  0  0  0  0  0
   39.6350   22.8440   37.6970 N   0  0  0  0  0  0  0  0  0  0  0  0
   40.7540   22.1160   37.5680 C   0  0  0  0  0  0  0  0  0  0  0  0
   40.9920   21.4170   38.3810 H   0  0  0  0  0  0  0  0  0  0  0  0
   41.5700   22.2470   36.4490 C   0  0  0  0  0  3  0  0  0  0  0  0
   41.1860   23.1530   35.4800 C   0  0  0  0  0  3  0  0  0  0  0  0
   40.0310   23.8850   35.6430 C   0  0  0  0  0  0  0  0  0  0  0  0
   39.6690   24.7910   34.6470 C   0  0  0  0  0  3  0  0  0  0  0  0
   35.4510   28.9090   33.0520 C   0  0  0  0  0  0  0  0  0  0  0  0
   34.4080   28.6620   32.3760 O   0  0  0  0  0  0  0  0  0  0  0  0
   35.4590   29.9840   34.0050 N   0  0  0  0  0  0  0  0  0  0  0  0
   36.3230   30.3400   34.4730 H   0  0  0  0  0  0  0  0  0  0  0  0
   33.3990   30.0610   35.4060 C   0  0  2  0  0  0  0  0  0  0  0  0
   34.1670   31.2730   35.7280 C   0  0  0  0  0  0  0  0  0  0  0  0
   34.1850   30.6040   34.3280 C   0  0  1  0  0  0  0  0  0  0  0  0
   33.7580   29.1620   35.9800 H   0  0  0  0  0  0  0  0  0  0  0  0
   35.0840   31.2170   36.3130 H   0  0  0  0  0  0  0  0  0  0  0  0
   33.5660   32.2130   35.8040 H   0  0  0  0  0  0  0  0  0  0  0  0
   33.6940   31.2080   33.5320 H   0  0  0  0  0  0  0  0  0  0  0  0
   29.8400   29.8950   36.3650 C   0  0  0  0  0  0  0  0  0  0  0  0
   29.1740   30.0990   35.1130 C   0  0  0  0  0  0  0  0  0  0  0  0
   30.0050   30.2860   33.9440 C   0  0  0  0  0  0  0  0  0  0  0  0
   31.3580   30.2610   34.0770 N   0  0  0  0  0  0  0  0  0  0  0  0
   31.9150   30.0600   35.3090 C   0  0  0  0  0  0  0  0  0  0  0  0
   31.1880   29.8750   36.4680 N   0  0  0  0  0  0  0  0  0  0  0  0
   29.2390   29.7550   37.2390 H   0  0  0  0  0  0  0  0  0  0  0  0
   28.1070   30.1110   35.0540 H   0  0  0  0  0  0  0  0  0  0  0  0
   29.5040   30.4370   33.0170 H   0  0  0  0  0  0  0  0  0  0  0  0
  1 22  1  0  0  0  0
  1  6  1  0  0  0  0
  2  1  2  0  0  0  0
  3  2  1  0  0  0  0
  3  4  2  0  0  0  0
  4  5  1  0  0  0  0
  5  6  2  0  0  0  0
  5 10  1  0  0  0  0
  7  2  1  0  0  0  0
  8  3  1  0  0  0  0
  9  4  1  0  0  0  0
 10 11  1  0  0  0  0
 11 12  1  0  0  0  0
 11 13  2  0  0  0  0
 14 13  1  0  0  0  0
 14 15  1  0  0  0  0
 16 15  2  0  0  0  0
 16 17  1  0  0  0  0
 18 16  1  0  0  0  0
 19 20  1  0  0  0  0
 19 18  2  0  0  0  0
 20 14  2  0  0  0  0
 21 10  2  0  0  0  0
 21 20  1  0  0  0  0
 22 24  1  0  0  0  0
 23 22  2  0  0  0  0
 24 28  1  0  0  0  0
 24 25  1  0  0  0  0
 26 27  1  0  0  0  0
 26 29  1  1  0  0  0
 27 31  1  0  0  0  0
 27 30  1  0  0  0  0
 28 32  1  6  0  0  0
 28 26  1  0  0  0  0
 28 27  1  0  0  0  0
 33 38  1  0  0  0  0
 33 39  1  0  0  0  0
 34 33  2  0  0  0  0
 35 36  2  0  0  0  0
 35 34  1  0  0  0  0
 36 37  1  0  0  0  0
 37 26  1  0  0  0  0
 37 38  2  0  0  0  0
 40 34  1  0  0  0  0
 41 35  1  0  0  0  0
M  END
>  <minimizedAffinity>
-6.05581045

$$$$
