
 OpenBabel03272503133D

 49 54  0  0  0  0  0  0  0  0999 V2000
   39.1280   32.1610   42.5600 C   0  0  0  0  0  0  0  0  0  0  0  0
   39.6970   31.4730   43.6190 C   0  0  0  0  0  0  0  0  0  0  0  0
   40.6070   30.4770   43.4540 C   0  0  0  0  0  0  0  0  0  0  0  0
   41.0070   30.1080   42.1740 C   0  0  0  0  0  0  0  0  0  0  0  0
   41.8600   29.1920   41.7240 N   0  0  0  0  0  0  0  0  0  0  0  0
   41.8560   29.2730   40.3880 C   0  0  0  0  0  0  0  0  0  0  0  0
   41.0020   30.2380   40.0030 N   0  0  0  0  0  0  0  0  0  0  0  0
   40.4420   30.7930   41.1120 C   0  0  0  0  0  0  0  0  0  0  0  0
   39.5130   31.8100   41.2570 C   0  0  0  0  0  0  0  0  0  0  0  0
   38.4150   32.9420   42.6890 H   0  0  0  0  0  0  0  0  0  0  0  0
   41.0330   29.9590   44.2970 H   0  0  0  0  0  0  0  0  0  0  0  0
   42.4480   28.5120   42.2600 H   0  0  0  0  0  0  0  0  0  0  0  0
   42.3730   28.7450   39.6170 H   0  0  0  0  0  0  0  0  0  0  0  0
   39.2480   31.8930   44.9320 C   0  0  0  0  0  0  0  0  0  0  0  0
   38.1630   32.5460   45.0600 O   0  0  0  0  0  0  0  0  0  0  0  0
   39.9550   31.6240   46.1480 N   0  0  0  0  0  0  0  0  0  0  0  0
   40.8310   31.0990   46.0950 H   0  0  0  0  0  0  0  0  0  0  0  0
   38.1210   30.1450   47.4940 F   0  0  0  0  0  0  0  0  0  0  0  0
   38.3860   31.3990   47.9800 C   0  0  0  0  0  0  0  0  0  0  0  0
   37.7260   31.8320   49.0960 C   0  0  0  0  0  0  0  0  0  0  0  0
   38.0330   33.0900   49.5330 C   0  0  0  0  0  0  0  0  0  0  0  0
   38.9480   33.8940   48.9040 C   0  0  0  0  0  0  0  0  0  0  0  0
   39.6060   33.4290   47.7700 C   0  0  0  0  0  0  0  0  0  0  0  0
   39.3050   32.1520   47.3130 C   0  0  0  0  0  0  0  0  0  0  0  0
   37.5180   33.4590   50.4240 H   0  0  0  0  0  0  0  0  0  0  0  0
   39.1980   34.8780   49.2330 H   0  0  0  0  0  0  0  0  0  0  0  0
   40.3480   33.9640   47.1850 H   0  0  0  0  0  0  0  0  0  0  0  0
   36.0840   29.3670   51.4500 C   0  0  0  0  0  0  0  0  0  0  0  0
   37.0550   30.2200   50.8660 C   0  0  0  0  0  0  0  0  0  0  0  0
   36.7600   30.9430   49.7310 C   0  0  0  0  0  0  0  0  0  0  0  0
   35.4970   30.7940   49.2020 N   0  0  0  0  0  0  0  0  0  0  0  0
   34.5860   29.9810   49.7670 C   0  0  0  0  0  0  0  0  0  0  0  0
   34.8750   29.2860   50.8640 N   0  0  0  0  0  0  0  0  0  0  0  0
   36.3060   28.7970   52.3400 H   0  0  0  0  0  0  0  0  0  0  0  0
   38.0380   30.3100   51.3110 H   0  0  0  0  0  0  0  0  0  0  0  0
   33.6590   30.0060   49.2010 H   0  0  0  0  0  0  0  0  0  0  0  0
   38.9570   32.4850   40.1940 O   0  0  0  0  0  0  0  0  0  0  0  0
   37.6540   32.8570   40.0410 C   0  0  0  0  0  0  0  0  0  0  0  0
   37.3570   34.1410   39.5810 C   0  0  0  0  0  0  0  0  0  0  0  0
   38.1660   34.8440   39.3450 H   0  0  0  0  0  0  0  0  0  0  0  0
   36.0640   34.5690   39.4080 C   0  0  0  0  0  3  0  0  0  0  0  0
   34.9900   33.7460   39.6810 C   0  0  0  0  0  0  0  0  0  0  0  0
   33.7140   34.1150   39.5300 N   0  0  0  0  0  0  0  0  0  0  0  0
   32.6760   33.3100   39.7990 C   0  0  0  0  0  0  0  0  0  0  0  0
   31.6350   33.6190   39.6720 H   0  0  0  0  0  0  0  0  0  0  0  0
   32.8760   32.0110   40.2620 C   0  0  0  0  0  3  0  0  0  0  0  0
   34.1920   31.6060   40.4270 C   0  0  0  0  0  3  0  0  0  0  0  0
   35.2400   32.4510   40.1450 C   0  0  0  0  0  0  0  0  0  0  0  0
   36.5670   32.0770   40.2990 C   0  0  0  0  0  3  0  0  0  0  0  0
  1 10  1  0  0  0  0
  1  2  1  0  0  0  0
  2 14  1  0  0  0  0
  3  2  2  0  0  0  0
  3 11  1  0  0  0  0
  4  3  1  0  0  0  0
  5  4  1  0  0  0  0
  5 12  1  0  0  0  0
  6  5  1  0  0  0  0
  7  6  2  0  0  0  0
  7  8  1  0  0  0  0
  8  9  1  0  0  0  0
  8  4  2  0  0  0  0
  9  1  2  0  0  0  0
 13  6  1  0  0  0  0
 14 15  2  0  0  0  0
 14 16  1  0  0  0  0
 16 24  1  0  0  0  0
 17 16  1  0  0  0  0
 18 19  1  0  0  0  0
 19 20  1  0  0  0  0
 20 21  2  0  0  0  0
 20 30  1  0  0  0  0
 21 25  1  0  0  0  0
 22 26  1  0  0  0  0
 22 21  1  0  0  0  0
 23 22  2  0  0  0  0
 24 23  1  0  0  0  0
 24 19  2  0  0  0  0
 27 23  1  0  0  0  0
 28 34  1  0  0  0  0
 29 35  1  0  0  0  0
 29 28  1  0  0  0  0
 30 29  2  0  0  0  0
 31 30  1  0  0  0  0
 31 32  2  0  0  0  0
 32 33  1  0  0  0  0
 33 28  2  0  0  0  0
 36 32  1  0  0  0  0
 37  9  1  0  0  0  0
 38 37  1  0  0  0  0
 38 49  1  0  0  0  0
 39 38  2  0  0  0  0
 40 39  1  0  0  0  0
 41 39  1  0  0  0  0
 41 42  2  0  0  0  0
 42 48  1  0  0  0  0
 43 42  1  0  0  0  0
 43 44  2  0  0  0  0
 44 46  1  0  0  0  0
 45 44  1  0  0  0  0
 46 47  2  0  0  0  0
 48 49  2  0  0  0  0
 48 47  1  0  0  0  0
M  END
>  <minimizedAffinity>
-7.5741148

>  <minimizedRMSD>
2.60763407

$$$$
