
 OpenBabel03272505313D

 43 47  0  0  0  0  0  0  0  0999 V2000
   37.3990   31.2420   47.0300 N   0  0  0  0  0  0  0  0  0  0  0  0
   36.6910   31.0620   45.8820 C   0  0  0  0  0  0  0  0  0  0  0  0
   37.0950   31.6020   44.6780 C   0  0  0  0  0  0  0  0  0  0  0  0
   38.2790   32.3550   44.6830 C   0  0  0  0  0  0  0  0  0  0  0  0
   38.6920   32.8720   43.6100 O   0  0  0  0  0  0  0  0  0  0  0  0
   38.9890   32.5350   45.8380 N   0  0  0  0  0  0  0  0  0  0  0  0
   38.4940   31.9630   46.9250 C   0  0  0  0  0  0  0  0  0  0  0  0
   39.1690   32.1480   47.9650 O   0  0  0  0  0  0  0  0  0  0  0  0
   35.7830   30.4810   45.8940 H   0  0  0  0  0  0  0  0  0  0  0  0
   37.4430   29.5290   50.3330 C   0  0  0  0  0  0  0  0  0  0  0  0
   37.8570   30.0920   49.1180 C   0  0  0  0  0  0  0  0  0  0  0  0
   36.9700   30.6830   48.2400 C   0  0  0  0  0  0  0  0  0  0  0  0
   35.6840   30.6950   48.6040 N   0  0  0  0  0  0  0  0  0  0  0  0
   35.2380   30.1610   49.7730 C   0  0  0  0  0  0  0  0  0  0  0  0
   36.1300   29.5810   50.6270 N   0  0  0  0  0  0  0  0  0  0  0  0
   38.1370   29.0670   51.0200 H   0  0  0  0  0  0  0  0  0  0  0  0
   38.9010   30.0340   48.9180 H   0  0  0  0  0  0  0  0  0  0  0  0
   34.1920   30.1800   50.0500 H   0  0  0  0  0  0  0  0  0  0  0  0
   36.3810   31.4440   43.4180 C   0  0  0  0  0  0  0  0  0  0  0  0
   36.5860   30.3960   42.5670 C   0  0  0  0  0  0  0  0  0  0  0  0
   35.9230   30.2240   41.3700 C   0  0  0  0  0  0  0  0  0  0  0  0
   34.9780   31.1870   41.0000 C   0  0  0  0  0  0  0  0  0  0  0  0
   34.8020   32.2310   41.8890 C   0  0  0  0  0  0  0  0  0  0  0  0
   35.4750   32.3350   43.0290 N   0  0  0  0  0  0  0  0  0  0  0  0
   37.3050   29.6250   42.8080 H   0  0  0  0  0  0  0  0  0  0  0  0
   36.0950   29.3850   40.7000 H   0  0  0  0  0  0  0  0  0  0  0  0
   34.4500   31.0820   40.0810 H   0  0  0  0  0  0  0  0  0  0  0  0
   33.8370   33.2870   41.5940 C   0  0  0  0  0  0  0  0  0  0  0  0
   32.8920   33.6480   42.5420 C   0  0  0  0  0  0  0  0  0  0  0  0
   32.8790   33.1350   43.5080 H   0  0  0  0  0  0  0  0  0  0  0  0
   31.9260   34.6240   42.4000 C   0  0  0  0  0  3  0  0  0  0  0  0
   31.8960   35.3060   41.2010 C   0  0  0  0  0  0  0  0  0  0  0  0
   30.9840   36.2710   40.9850 N   0  0  0  0  0  0  0  0  0  0  0  0
   30.9270   36.9580   39.8230 C   0  0  0  0  0  0  0  0  0  0  0  0
   30.1890   37.7340   39.6560 H   0  0  0  0  0  0  0  0  0  0  0  0
   31.8620   36.6240   38.8420 C   0  0  0  0  0  3  0  0  0  0  0  0
   32.8240   35.6410   39.0060 C   0  0  0  0  0  3  0  0  0  0  0  0
   32.8140   34.9860   40.2220 C   0  0  0  0  0  0  0  0  0  0  0  0
   33.7610   34.0000   40.4170 C   0  0  0  0  0  3  0  0  0  0  0  0
   40.2020   33.3080   45.8300 C   0  0  0  0  0  0  0  0  0  0  0  0
   40.1750   34.2360   44.8510 F   0  0  0  0  0  0  0  0  0  0  0  0
   41.3450   32.5450   45.5930 F   0  0  0  0  0  0  0  0  0  0  0  0
   40.3280   33.9640   47.0490 F   0  0  0  0  0  0  0  0  0  0  0  0
  1 12  1  0  0  0  0
  2  9  1  0  0  0  0
  2  1  1  0  0  0  0
  3  4  1  0  0  0  0
  3  2  2  0  0  0  0
  4  6  1  0  0  0  0
  5  4  2  0  0  0  0
  6  7  1  0  0  0  0
  7  1  1  0  0  0  0
  7  8  2  0  0  0  0
 10 15  1  0  0  0  0
 10 16  1  0  0  0  0
 11 10  2  0  0  0  0
 12 13  2  0  0  0  0
 12 11  1  0  0  0  0
 13 14  1  0  0  0  0
 14 18  1  0  0  0  0
 14 15  2  0  0  0  0
 17 11  1  0  0  0  0
 19  3  1  0  0  0  0
 20 25  1  0  0  0  0
 20 19  2  0  0  0  0
 21 20  1  0  0  0  0
 22 21  2  0  0  0  0
 22 23  1  0  0  0  0
 23 24  2  0  0  0  0
 24 19  1  0  0  0  0
 26 21  1  0  0  0  0
 27 22  1  0  0  0  0
 28 23  1  0  0  0  0
 28 29  1  0  0  0  0
 29 30  1  0  0  0  0
 31 29  2  0  0  0  0
 32 31  1  0  0  0  0
 33 32  1  0  0  0  0
 34 33  2  0  0  0  0
 35 34  1  0  0  0  0
 36 37  2  0  0  0  0
 36 34  1  0  0  0  0
 37 38  1  0  0  0  0
 38 39  1  0  0  0  0
 38 32  2  0  0  0  0
 39 28  2  0  0  0  0
 40  6  1  0  0  0  0
 40 43  1  0  0  0  0
 41 40  1  0  0  0  0
 42 40  1  0  0  0  0
M  END
>  <minimizedAffinity>
-7.05437803

>  <minimizedRMSD>
0.841302872

$$$$
