
 OpenBabel03272503133D

 49 54  0  0  0  0  0  0  0  0999 V2000
   39.0980   32.2620   42.6230 C   0  0  0  0  0  0  0  0  0  0  0  0
   39.6580   31.5460   43.6690 C   0  0  0  0  0  0  0  0  0  0  0  0
   40.5540   30.5410   43.4850 C   0  0  0  0  0  0  0  0  0  0  0  0
   40.9500   30.1920   42.1980 C   0  0  0  0  0  0  0  0  0  0  0  0
   41.7910   29.2730   41.7300 N   0  0  0  0  0  0  0  0  0  0  0  0
   41.7890   29.3800   40.3960 C   0  0  0  0  0  0  0  0  0  0  0  0
   40.9480   30.3640   40.0300 N   0  0  0  0  0  0  0  0  0  0  0  0
   40.3940   30.9050   41.1500 C   0  0  0  0  0  0  0  0  0  0  0  0
   39.4790   31.9310   41.3140 C   0  0  0  0  0  0  0  0  0  0  0  0
   38.3960   33.0500   42.7670 H   0  0  0  0  0  0  0  0  0  0  0  0
   40.9720   30.0010   44.3170 H   0  0  0  0  0  0  0  0  0  0  0  0
   42.3690   28.5760   42.2540 H   0  0  0  0  0  0  0  0  0  0  0  0
   42.2990   28.8600   39.6160 H   0  0  0  0  0  0  0  0  0  0  0  0
   39.2130   31.9470   44.9900 C   0  0  0  0  0  0  0  0  0  0  0  0
   38.1170   32.5770   45.1340 O   0  0  0  0  0  0  0  0  0  0  0  0
   39.9360   31.6810   46.1970 N   0  0  0  0  0  0  0  0  0  0  0  0
   40.8220   31.1730   46.1310 H   0  0  0  0  0  0  0  0  0  0  0  0
   38.1060   30.1760   47.5170 F   0  0  0  0  0  0  0  0  0  0  0  0
   38.3710   31.4200   48.0260 C   0  0  0  0  0  0  0  0  0  0  0  0
   37.7120   31.8320   49.1510 C   0  0  0  0  0  0  0  0  0  0  0  0
   38.0190   33.0820   49.6110 C   0  0  0  0  0  0  0  0  0  0  0  0
   38.9320   33.8980   48.9960 C   0  0  0  0  0  0  0  0  0  0  0  0
   39.5890   33.4550   47.8530 C   0  0  0  0  0  0  0  0  0  0  0  0
   39.2880   32.1870   47.3730 C   0  0  0  0  0  0  0  0  0  0  0  0
   37.5040   33.4340   50.5090 H   0  0  0  0  0  0  0  0  0  0  0  0
   39.1820   34.8760   49.3430 H   0  0  0  0  0  0  0  0  0  0  0  0
   40.3290   34.0010   47.2760 H   0  0  0  0  0  0  0  0  0  0  0  0
   36.0710   29.3300   51.4670 C   0  0  0  0  0  0  0  0  0  0  0  0
   37.0410   30.1950   50.8980 C   0  0  0  0  0  0  0  0  0  0  0  0
   36.7480   30.9310   49.7710 C   0  0  0  0  0  0  0  0  0  0  0  0
   35.4870   30.7820   49.2340 N   0  0  0  0  0  0  0  0  0  0  0  0
   34.5780   29.9580   49.7860 C   0  0  0  0  0  0  0  0  0  0  0  0
   34.8650   29.2500   50.8750 N   0  0  0  0  0  0  0  0  0  0  0  0
   36.2930   28.7500   52.3510 H   0  0  0  0  0  0  0  0  0  0  0  0
   38.0220   30.2840   51.3490 H   0  0  0  0  0  0  0  0  0  0  0  0
   33.6530   29.9860   49.2160 H   0  0  0  0  0  0  0  0  0  0  0  0
   38.9330   32.6340   40.2640 O   0  0  0  0  0  0  0  0  0  0  0  0
   37.6220   32.9660   40.0830 C   0  0  0  0  0  0  0  0  0  0  0  0
   36.8870   32.3340   39.0790 C   0  0  0  0  0  0  0  0  0  0  0  0
   37.3610   31.5770   38.4400 H   0  0  0  0  0  0  0  0  0  0  0  0
   35.5660   32.6290   38.8520 C   0  0  0  0  0  3  0  0  0  0  0  0
   34.8980   33.5690   39.6100 C   0  0  0  0  0  0  0  0  0  0  0  0
   33.6120   33.8930   39.4300 N   0  0  0  0  0  0  0  0  0  0  0  0
   32.9700   34.8070   40.1700 C   0  0  0  0  0  0  0  0  0  0  0  0
   31.9180   35.0650   40.0160 H   0  0  0  0  0  0  0  0  0  0  0  0
   33.6240   35.4880   41.1950 C   0  0  0  0  0  3  0  0  0  0  0  0
   34.9570   35.1700   41.4010 C   0  0  0  0  0  3  0  0  0  0  0  0
   35.5950   34.2280   40.6280 C   0  0  0  0  0  0  0  0  0  0  0  0
   36.9270   33.8860   40.8080 C   0  0  0  0  0  3  0  0  0  0  0  0
  1 10  1  0  0  0  0
  1  2  1  0  0  0  0
  2 14  1  0  0  0  0
  3  2  2  0  0  0  0
  3 11  1  0  0  0  0
  4  3  1  0  0  0  0
  5  4  1  0  0  0  0
  5 12  1  0  0  0  0
  6  5  1  0  0  0  0
  7  6  2  0  0  0  0
  7  8  1  0  0  0  0
  8  9  1  0  0  0  0
  8  4  2  0  0  0  0
  9  1  2  0  0  0  0
 13  6  1  0  0  0  0
 14 15  2  0  0  0  0
 14 16  1  0  0  0  0
 16 24  1  0  0  0  0
 17 16  1  0  0  0  0
 18 19  1  0  0  0  0
 19 20  1  0  0  0  0
 20 21  2  0  0  0  0
 20 30  1  0  0  0  0
 21 25  1  0  0  0  0
 22 26  1  0  0  0  0
 22 21  1  0  0  0  0
 23 22  2  0  0  0  0
 24 23  1  0  0  0  0
 24 19  2  0  0  0  0
 27 23  1  0  0  0  0
 28 34  1  0  0  0  0
 29 35  1  0  0  0  0
 29 28  1  0  0  0  0
 30 29  2  0  0  0  0
 31 30  1  0  0  0  0
 31 32  2  0  0  0  0
 32 33  1  0  0  0  0
 33 28  2  0  0  0  0
 36 32  1  0  0  0  0
 37  9  1  0  0  0  0
 38 37  1  0  0  0  0
 38 49  1  0  0  0  0
 39 38  2  0  0  0  0
 40 39  1  0  0  0  0
 41 39  1  0  0  0  0
 41 42  2  0  0  0  0
 42 48  1  0  0  0  0
 43 42  1  0  0  0  0
 43 44  2  0  0  0  0
 44 46  1  0  0  0  0
 45 44  1  0  0  0  0
 46 47  2  0  0  0  0
 48 49  2  0  0  0  0
 48 47  1  0  0  0  0
M  END
>  <minimizedAffinity>
-7.82674313

>  <minimizedRMSD>
2.71909165

$$$$
