
 OpenBabel03262522533D

 36 40  0  0  0  0  0  0  0  0999 V2000
   35.8280   29.1240   34.0560 C   0  0  0  0  0  0  0  0  0  0  0  0
   35.4720   29.0370   32.7630 C   0  0  0  0  0  0  0  0  0  0  0  0
   35.9210   27.9400   32.0580 C   0  0  0  0  0  0  0  0  0  0  0  0
   36.6890   26.9830   32.6300 N   0  0  0  0  0  0  0  0  0  0  0  0
   37.0010   27.1590   33.9550 C   0  0  0  0  0  0  0  0  0  0  0  0
   36.5960   28.2040   34.6990 N   0  0  0  0  0  0  0  0  0  0  0  0
   34.8610   29.7830   32.2760 H   0  0  0  0  0  0  0  0  0  0  0  0
   35.6710   27.8100   31.0140 H   0  0  0  0  0  0  0  0  0  0  0  0
   37.8280   26.1410   34.6000 C   0  0  0  0  0  0  0  0  0  0  0  0
   38.9250   25.5930   33.9600 C   0  0  0  0  0  0  0  0  0  0  0  0
   39.1870   25.9160   32.9620 H   0  0  0  0  0  0  0  0  0  0  0  0
   39.7460   24.6300   34.5080 C   0  0  0  0  0  3  0  0  0  0  0  0
   39.4410   24.1950   35.7800 C   0  0  0  0  0  0  0  0  0  0  0  0
   40.1770   23.2490   36.4270 N   0  0  0  0  0  0  0  0  0  0  0  0
   39.8310   22.8550   37.6840 C   0  0  0  0  0  0  0  0  0  0  0  0
   40.4650   22.1130   38.1050 H   0  0  0  0  0  0  0  0  0  0  0  0
   38.7540   23.3590   38.3760 C   0  0  0  0  0  3  0  0  0  0  0  0
   37.9950   24.3210   37.7320 C   0  0  0  0  0  3  0  0  0  0  0  0
   38.3550   24.7150   36.4540 C   0  0  0  0  0  0  0  0  0  0  0  0
   37.5540   25.6780   35.8750 C   0  0  0  0  0  3  0  0  0  0  0  0
   34.1270   32.1830   36.1420 C   0  0  0  0  0  0  0  0  0  0  0  0
   35.4400   32.0740   36.3300 C   0  0  0  0  0  0  0  0  0  0  0  0
   36.1300   31.0760   35.6760 C   0  0  0  0  0  0  0  0  0  0  0  0
   35.3910   30.2610   34.8700 C   0  0  0  0  0  0  0  0  0  0  0  0
   33.7170   30.9330   35.0580 S   0  0  0  0  0  0  0  0  0  0  0  0
   35.9680   32.7750   37.0010 H   0  0  0  0  0  0  0  0  0  0  0  0
   37.2020   30.8970   35.7560 H   0  0  0  0  0  0  0  0  0  0  0  0
   32.8600   35.0380   38.0280 C   0  0  0  0  0  0  0  0  0  0  0  0
   31.4790   34.9880   37.8080 C   0  0  0  0  0  0  0  0  0  0  0  0
   30.9820   33.9580   37.0030 C   0  0  0  0  0  0  0  0  0  0  0  0
   31.8590   33.0510   36.4680 N   0  0  0  0  0  0  0  0  0  0  0  0
   33.1980   33.1660   36.7280 C   0  0  0  0  0  0  0  0  0  0  0  0
   33.7090   34.1250   37.4850 N   0  0  0  0  0  0  0  0  0  0  0  0
   33.3460   35.7970   38.6370 H   0  0  0  0  0  0  0  0  0  0  0  0
   30.8810   35.7510   38.2770 H   0  0  0  0  0  0  0  0  0  0  0  0
   29.9340   33.9150   36.8320 H   0  0  0  0  0  0  0  0  0  0  0  0
  1  6  1  0  0  0  0
  1 24  1  0  0  0  0
  2  1  2  0  0  0  0
  3  4  2  0  0  0  0
  3  2  1  0  0  0  0
  4  5  1  0  0  0  0
  5  9  1  0  0  0  0
  5  6  2  0  0  0  0
  7  2  1  0  0  0  0
  8  3  1  0  0  0  0
  9 20  1  0  0  0  0
 10 12  1  0  0  0  0
 10  9  2  0  0  0  0
 11 10  1  0  0  0  0
 12 13  2  0  0  0  0
 13 14  1  0  0  0  0
 13 19  1  0  0  0  0
 14 15  2  0  0  0  0
 15 16  1  0  0  0  0
 15 17  1  0  0  0  0
 18 17  2  0  0  0  0
 19 18  1  0  0  0  0
 20 19  2  0  0  0  0
 21 22  2  0  0  0  0
 21 32  1  0  0  0  0
 22 26  1  0  0  0  0
 23 27  1  0  0  0  0
 23 22  1  0  0  0  0
 24 25  1  0  0  0  0
 24 23  2  0  0  0  0
 25 21  1  0  0  0  0
 28 34  1  0  0  0  0
 29 28  1  0  0  0  0
 29 35  1  0  0  0  0
 30 29  2  0  0  0  0
 31 32  2  0  0  0  0
 31 30  1  0  0  0  0
 32 33  1  0  0  0  0
 33 28  2  0  0  0  0
 36 30  1  0  0  0  0
M  END
>  <minimizedAffinity>
-6.8893919

$$$$

 OpenBabel03262522533D

 36 40  0  0  0  0  0  0  0  0999 V2000
   36.5360   27.2480   31.0590 C   0  0  0  0  0  0  0  0  0  0  0  0
   37.0300   28.0050   30.0650 C   0  0  0  0  0  0  0  0  0  0  0  0
   36.8010   29.3640   30.1330 C   0  0  0  0  0  0  0  0  0  0  0  0
   36.1090   29.9250   31.1520 N   0  0  0  0  0  0  0  0  0  0  0  0
   35.6440   29.0710   32.1210 C   0  0  0  0  0  0  0  0  0  0  0  0
   35.8330   27.7390   32.1140 N   0  0  0  0  0  0  0  0  0  0  0  0
   37.5850   27.5890   29.2360 H   0  0  0  0  0  0  0  0  0  0  0  0
   37.1710   30.0280   29.3650 H   0  0  0  0  0  0  0  0  0  0  0  0
   34.8950   29.6500   33.2350 C   0  0  0  0  0  0  0  0  0  0  0  0
   33.5470   29.3900   33.4080 C   0  0  0  0  0  0  0  0  0  0  0  0
   33.0250   28.7470   32.7120 H   0  0  0  0  0  0  0  0  0  0  0  0
   32.7800   29.9030   34.4330 C   0  0  0  0  0  3  0  0  0  0  0  0
   33.4130   30.7260   35.3390 C   0  0  0  0  0  0  0  0  0  0  0  0
   32.7640   31.2920   36.3940 N   0  0  0  0  0  0  0  0  0  0  0  0
   33.4380   32.1000   37.2600 C   0  0  0  0  0  0  0  0  0  0  0  0
   32.8460   32.4930   38.0500 H   0  0  0  0  0  0  0  0  0  0  0  0
   34.7770   32.3980   37.1450 C   0  0  0  0  0  3  0  0  0  0  0  0
   35.4520   31.8310   36.0780 C   0  0  0  0  0  3  0  0  0  0  0  0
   34.7570   31.0110   35.2030 C   0  0  0  0  0  0  0  0  0  0  0  0
   35.4940   30.4810   34.1640 C   0  0  0  0  0  3  0  0  0  0  0  0
   36.5800   23.1750   31.1550 C   0  0  0  0  0  0  0  0  0  0  0  0
   37.7650   23.7160   30.8810 C   0  0  0  0  0  0  0  0  0  0  0  0
   37.8780   25.0870   30.8220 C   0  0  0  0  0  0  0  0  0  0  0  0
   36.7370   25.7960   31.0550 C   0  0  0  0  0  0  0  0  0  0  0  0
   35.5150   24.4910   31.3560 S   0  0  0  0  0  0  0  0  0  0  0  0
   38.6450   23.0710   30.7030 H   0  0  0  0  0  0  0  0  0  0  0  0
   38.7960   25.6330   30.6060 H   0  0  0  0  0  0  0  0  0  0  0  0
   34.8450   20.1120   32.1190 C   0  0  0  0  0  0  0  0  0  0  0  0
   35.5810   19.1070   31.4830 C   0  0  0  0  0  0  0  0  0  0  0  0
   36.6870   19.4900   30.7170 C   0  0  0  0  0  0  0  0  0  0  0  0
   37.0000   20.8210   30.6210 N   0  0  0  0  0  0  0  0  0  0  0  0
   36.2310   21.7480   31.2720 C   0  0  0  0  0  0  0  0  0  0  0  0
   35.1760   21.4270   32.0070 N   0  0  0  0  0  0  0  0  0  0  0  0
   33.9700   19.9220   32.7360 H   0  0  0  0  0  0  0  0  0  0  0  0
   35.2480   18.0930   31.6260 H   0  0  0  0  0  0  0  0  0  0  0  0
   37.2490   18.7290   30.2330 H   0  0  0  0  0  0  0  0  0  0  0  0
  1  6  1  0  0  0  0
  2  3  1  0  0  0  0
  2  1  2  0  0  0  0
  3  4  2  0  0  0  0
  4  5  1  0  0  0  0
  5  9  1  0  0  0  0
  6  5  2  0  0  0  0
  7  2  1  0  0  0  0
  8  3  1  0  0  0  0
  9 10  2  0  0  0  0
  9 20  1  0  0  0  0
 10 12  1  0  0  0  0
 11 10  1  0  0  0  0
 12 13  2  0  0  0  0
 13 14  1  0  0  0  0
 14 15  2  0  0  0  0
 15 16  1  0  0  0  0
 17 15  1  0  0  0  0
 18 17  2  0  0  0  0
 19 13  1  0  0  0  0
 19 18  1  0  0  0  0
 20 19  2  0  0  0  0
 21 32  1  0  0  0  0
 21 25  1  0  0  0  0
 22 21  2  0  0  0  0
 23 22  1  0  0  0  0
 23 24  2  0  0  0  0
 24  1  1  0  0  0  0
 24 25  1  0  0  0  0
 26 22  1  0  0  0  0
 27 23  1  0  0  0  0
 28 34  1  0  0  0  0
 29 35  1  0  0  0  0
 29 28  2  0  0  0  0
 30 29  1  0  0  0  0
 31 30  2  0  0  0  0
 31 32  1  0  0  0  0
 32 33  2  0  0  0  0
 33 28  1  0  0  0  0
 36 30  1  0  0  0  0
M  END
>  <minimizedAffinity>
-6.66995573

$$$$

 OpenBabel03262522533D

 36 40  0  0  0  0  0  0  0  0999 V2000
   37.5780   27.2050   33.1800 C   0  0  0  0  0  0  0  0  0  0  0  0
   37.3920   27.0830   31.8550 C   0  0  0  0  0  0  0  0  0  0  0  0
   36.3690   27.8170   31.2920 C   0  0  0  0  0  0  0  0  0  0  0  0
   35.5760   28.6290   32.0300 N   0  0  0  0  0  0  0  0  0  0  0  0
   35.8430   28.6880   33.3750 C   0  0  0  0  0  0  0  0  0  0  0  0
   36.8250   27.9990   33.9860 N   0  0  0  0  0  0  0  0  0  0  0  0
   38.0050   26.4430   31.2370 H   0  0  0  0  0  0  0  0  0  0  0  0
   36.1660   27.7630   30.2310 H   0  0  0  0  0  0  0  0  0  0  0  0
   35.0050   29.5580   34.1970 C   0  0  0  0  0  0  0  0  0  0  0  0
   33.6320   29.3970   34.2490 C   0  0  0  0  0  0  0  0  0  0  0  0
   33.1570   28.6140   33.6730 H   0  0  0  0  0  0  0  0  0  0  0  0
   32.7830   30.1810   35.0000 C   0  0  0  0  0  3  0  0  0  0  0  0
   33.3550   31.1890   35.7460 C   0  0  0  0  0  0  0  0  0  0  0  0
   32.6220   32.0290   36.5290 N   0  0  0  0  0  0  0  0  0  0  0  0
   33.2390   33.0090   37.2450 C   0  0  0  0  0  0  0  0  0  0  0  0
   32.5830   33.6120   37.8250 H   0  0  0  0  0  0  0  0  0  0  0  0
   34.5980   33.2240   37.2390 C   0  0  0  0  0  3  0  0  0  0  0  0
   35.3580   32.3790   36.4480 C   0  0  0  0  0  3  0  0  0  0  0  0
   34.7210   31.3850   35.7240 C   0  0  0  0  0  0  0  0  0  0  0  0
   35.5420   30.5810   34.9590 C   0  0  0  0  0  3  0  0  0  0  0  0
   40.1980   24.7230   35.0720 C   0  0  0  0  0  0  0  0  0  0  0  0
   40.7080   25.9180   34.7820 C   0  0  0  0  0  0  0  0  0  0  0  0
   39.9170   26.8470   34.1420 C   0  0  0  0  0  0  0  0  0  0  0  0
   38.6440   26.4550   33.8500 C   0  0  0  0  0  0  0  0  0  0  0  0
   38.5930   24.7610   34.4950 S   0  0  0  0  0  0  0  0  0  0  0  0
   41.7520   26.1590   35.0530 H   0  0  0  0  0  0  0  0  0  0  0  0
   40.2320   27.8510   33.8590 H   0  0  0  0  0  0  0  0  0  0  0  0
   40.8060   21.9700   37.3890 C   0  0  0  0  0  0  0  0  0  0  0  0
   42.0590   21.4860   36.9990 C   0  0  0  0  0  0  0  0  0  0  0  0
   42.7000   22.1170   35.9280 C   0  0  0  0  0  0  0  0  0  0  0  0
   42.0800   23.1720   35.3100 N   0  0  0  0  0  0  0  0  0  0  0  0
   40.8510   23.5890   35.7490 C   0  0  0  0  0  0  0  0  0  0  0  0
   40.2110   23.0190   36.7600 N   0  0  0  0  0  0  0  0  0  0  0  0
   40.2250   21.5510   38.2080 H   0  0  0  0  0  0  0  0  0  0  0  0
   42.4550   20.6510   37.5530 H   0  0  0  0  0  0  0  0  0  0  0  0
   43.6520   21.7530   35.6270 H   0  0  0  0  0  0  0  0  0  0  0  0
  1 24  1  0  0  0  0
  1  6  1  0  0  0  0
  2  1  2  0  0  0  0
  3  2  1  0  0  0  0
  3  4  2  0  0  0  0
  4  5  1  0  0  0  0
  5  6  2  0  0  0  0
  5  9  1  0  0  0  0
  7  2  1  0  0  0  0
  8  3  1  0  0  0  0
  9 10  2  0  0  0  0
  9 20  1  0  0  0  0
 10 12  1  0  0  0  0
 11 10  1  0  0  0  0
 12 13  2  0  0  0  0
 13 14  1  0  0  0  0
 14 15  2  0  0  0  0
 15 16  1  0  0  0  0
 17 15  1  0  0  0  0
 18 17  2  0  0  0  0
 19 13  1  0  0  0  0
 19 18  1  0  0  0  0
 20 19  2  0  0  0  0
 21 32  1  0  0  0  0
 22 26  1  0  0  0  0
 22 21  2  0  0  0  0
 23 22  1  0  0  0  0
 24 23  2  0  0  0  0
 24 25  1  0  0  0  0
 25 21  1  0  0  0  0
 27 23  1  0  0  0  0
 28 34  1  0  0  0  0
 29 28  1  0  0  0  0
 29 35  1  0  0  0  0
 30 29  2  0  0  0  0
 31 32  2  0  0  0  0
 31 30  1  0  0  0  0
 32 33  1  0  0  0  0
 33 28  2  0  0  0  0
 36 30  1  0  0  0  0
M  END
>  <minimizedAffinity>
-6.55097866

$$$$

 OpenBabel03262522533D

 36 40  0  0  0  0  0  0  0  0999 V2000
   37.2700   27.3170   33.5760 C   0  0  0  0  0  0  0  0  0  0  0  0
   36.8330   27.0750   32.3290 C   0  0  0  0  0  0  0  0  0  0  0  0
   35.7820   27.8410   31.8700 C   0  0  0  0  0  0  0  0  0  0  0  0
   35.2040   28.7990   32.6310 N   0  0  0  0  0  0  0  0  0  0  0  0
   35.7190   28.9720   33.8920 C   0  0  0  0  0  0  0  0  0  0  0  0
   36.7410   28.2610   34.4000 N   0  0  0  0  0  0  0  0  0  0  0  0
   37.2710   26.3170   31.6950 H   0  0  0  0  0  0  0  0  0  0  0  0
   35.3830   27.6960   30.8750 H   0  0  0  0  0  0  0  0  0  0  0  0
   35.1160   30.0010   34.7370 C   0  0  0  0  0  0  0  0  0  0  0  0
   35.8940   30.8680   35.4830 C   0  0  0  0  0  0  0  0  0  0  0  0
   36.9730   30.7930   35.4490 H   0  0  0  0  0  0  0  0  0  0  0  0
   35.3930   31.8580   36.3010 C   0  0  0  0  0  3  0  0  0  0  0  0
   34.0210   31.9820   36.3680 C   0  0  0  0  0  0  0  0  0  0  0  0
   33.4070   32.9220   37.1390 N   0  0  0  0  0  0  0  0  0  0  0  0
   32.0470   33.0000   37.1690 C   0  0  0  0  0  0  0  0  0  0  0  0
   31.6620   33.7640   37.7990 H   0  0  0  0  0  0  0  0  0  0  0  0
   31.2150   32.1700   36.4520 C   0  0  0  0  0  3  0  0  0  0  0  0
   31.8240   31.2090   35.6630 C   0  0  0  0  0  3  0  0  0  0  0  0
   33.2070   31.1380   35.6390 C   0  0  0  0  0  0  0  0  0  0  0  0
   33.7440   30.1560   34.8310 C   0  0  0  0  0  3  0  0  0  0  0  0
   40.0000   24.7990   35.2550 C   0  0  0  0  0  0  0  0  0  0  0  0
   40.5330   25.9170   34.7670 C   0  0  0  0  0  0  0  0  0  0  0  0
   39.7090   26.8500   34.1750 C   0  0  0  0  0  0  0  0  0  0  0  0
   38.3810   26.5420   34.1360 C   0  0  0  0  0  0  0  0  0  0  0  0
   38.3270   24.9220   34.9470 S   0  0  0  0  0  0  0  0  0  0  0  0
   41.6220   26.0930   34.8380 H   0  0  0  0  0  0  0  0  0  0  0  0
   40.0380   27.7960   33.7440 H   0  0  0  0  0  0  0  0  0  0  0  0
   40.5860   21.8840   37.3700 C   0  0  0  0  0  0  0  0  0  0  0  0
   41.9410   21.6000   37.1660 C   0  0  0  0  0  0  0  0  0  0  0  0
   42.6580   22.4240   36.2910 C   0  0  0  0  0  0  0  0  0  0  0  0
   42.0100   23.4640   35.6770 N   0  0  0  0  0  0  0  0  0  0  0  0
   40.6810   23.6790   35.9270 C   0  0  0  0  0  0  0  0  0  0  0  0
   39.9670   22.9230   36.7470 N   0  0  0  0  0  0  0  0  0  0  0  0
   39.9410   21.3070   38.0270 H   0  0  0  0  0  0  0  0  0  0  0  0
   42.3500   20.7590   37.6990 H   0  0  0  0  0  0  0  0  0  0  0  0
   43.6870   22.2130   36.1330 H   0  0  0  0  0  0  0  0  0  0  0  0
  1 24  1  0  0  0  0
  1  6  1  0  0  0  0
  2  1  2  0  0  0  0
  3  2  1  0  0  0  0
  3  4  2  0  0  0  0
  4  5  1  0  0  0  0
  5  6  2  0  0  0  0
  5  9  1  0  0  0  0
  7  2  1  0  0  0  0
  8  3  1  0  0  0  0
  9 20  2  0  0  0  0
  9 10  1  0  0  0  0
 10 12  2  0  0  0  0
 11 10  1  0  0  0  0
 12 13  1  0  0  0  0
 13 14  1  0  0  0  0
 14 15  2  0  0  0  0
 15 16  1  0  0  0  0
 17 15  1  0  0  0  0
 18 17  2  0  0  0  0
 19 18  1  0  0  0  0
 19 13  2  0  0  0  0
 20 19  1  0  0  0  0
 21 32  1  0  0  0  0
 22 26  1  0  0  0  0
 22 21  2  0  0  0  0
 23 22  1  0  0  0  0
 24 23  2  0  0  0  0
 24 25  1  0  0  0  0
 25 21  1  0  0  0  0
 27 23  1  0  0  0  0
 28 34  1  0  0  0  0
 29 28  1  0  0  0  0
 29 35  1  0  0  0  0
 30 29  2  0  0  0  0
 31 32  2  0  0  0  0
 31 30  1  0  0  0  0
 32 33  1  0  0  0  0
 33 28  2  0  0  0  0
 36 30  1  0  0  0  0
M  END
>  <minimizedAffinity>
-6.42752886

$$$$

 OpenBabel03262522533D

 36 40  0  0  0  0  0  0  0  0999 V2000
   37.1930   25.8270   33.2740 C   0  0  0  0  0  0  0  0  0  0  0  0
   36.6930   25.2600   32.1630 C   0  0  0  0  0  0  0  0  0  0  0  0
   35.9170   26.0550   31.3450 C   0  0  0  0  0  0  0  0  0  0  0  0
   35.6610   27.3520   31.6350 N   0  0  0  0  0  0  0  0  0  0  0  0
   36.2150   27.8410   32.7910 C   0  0  0  0  0  0  0  0  0  0  0  0
   36.9800   27.1210   33.6320 N   0  0  0  0  0  0  0  0  0  0  0  0
   36.8760   24.2280   31.9020 H   0  0  0  0  0  0  0  0  0  0  0  0
   35.4840   25.6590   30.4360 H   0  0  0  0  0  0  0  0  0  0  0  0
   35.9570   29.2400   33.1300 C   0  0  0  0  0  0  0  0  0  0  0  0
   35.7920   30.2000   32.1480 C   0  0  0  0  0  0  0  0  0  0  0  0
   35.8530   29.9230   31.1040 H   0  0  0  0  0  0  0  0  0  0  0  0
   35.5480   31.5340   32.3960 C   0  0  0  0  0  3  0  0  0  0  0  0
   35.4650   31.9220   33.7170 C   0  0  0  0  0  0  0  0  0  0  0  0
   35.2270   33.2100   34.0890 N   0  0  0  0  0  0  0  0  0  0  0  0
   35.1550   33.5390   35.4090 C   0  0  0  0  0  0  0  0  0  0  0  0
   34.9660   34.5680   35.5980 H   0  0  0  0  0  0  0  0  0  0  0  0
   35.3090   32.6340   36.4340 C   0  0  0  0  0  3  0  0  0  0  0  0
   35.5520   31.3200   36.0730 C   0  0  0  0  0  3  0  0  0  0  0  0
   35.6230   30.9960   34.7280 C   0  0  0  0  0  0  0  0  0  0  0  0
   35.8670   29.6680   34.4430 C   0  0  0  0  0  3  0  0  0  0  0  0
   39.7130   23.4340   35.4020 C   0  0  0  0  0  0  0  0  0  0  0  0
   38.9600   24.2260   36.1610 C   0  0  0  0  0  0  0  0  0  0  0  0
   38.0650   25.0820   35.5570 C   0  0  0  0  0  0  0  0  0  0  0  0
   38.0250   25.0460   34.1940 C   0  0  0  0  0  0  0  0  0  0  0  0
   39.2670   23.7880   33.7940 S   0  0  0  0  0  0  0  0  0  0  0  0
   39.0520   24.1950   37.2620 H   0  0  0  0  0  0  0  0  0  0  0  0
   37.4020   25.7700   36.0800 H   0  0  0  0  0  0  0  0  0  0  0  0
   42.4310   21.0020   35.2790 C   0  0  0  0  0  0  0  0  0  0  0  0
   42.5940   20.6270   36.6170 C   0  0  0  0  0  0  0  0  0  0  0  0
   41.7560   21.2180   37.5690 C   0  0  0  0  0  0  0  0  0  0  0  0
   40.8210   22.1310   37.1560 N   0  0  0  0  0  0  0  0  0  0  0  0
   40.7220   22.4470   35.8270 C   0  0  0  0  0  0  0  0  0  0  0  0
   41.4950   21.9110   34.8950 N   0  0  0  0  0  0  0  0  0  0  0  0
   43.0300   20.6030   34.4630 H   0  0  0  0  0  0  0  0  0  0  0  0
   43.3590   19.9000   36.8310 H   0  0  0  0  0  0  0  0  0  0  0  0
   41.8760   20.9360   38.5870 H   0  0  0  0  0  0  0  0  0  0  0  0
  1  6  1  0  0  0  0
  1 24  1  0  0  0  0
  2  1  2  0  0  0  0
  3  4  2  0  0  0  0
  3  2  1  0  0  0  0
  4  5  1  0  0  0  0
  5  9  1  0  0  0  0
  5  6  2  0  0  0  0
  7  2  1  0  0  0  0
  8  3  1  0  0  0  0
  9 20  1  0  0  0  0
 10 12  1  0  0  0  0
 10  9  2  0  0  0  0
 11 10  1  0  0  0  0
 12 13  2  0  0  0  0
 13 14  1  0  0  0  0
 13 19  1  0  0  0  0
 14 15  2  0  0  0  0
 15 16  1  0  0  0  0
 15 17  1  0  0  0  0
 18 17  2  0  0  0  0
 19 18  1  0  0  0  0
 20 19  2  0  0  0  0
 21 32  1  0  0  0  0
 21 22  2  0  0  0  0
 22 26  1  0  0  0  0
 23 27  1  0  0  0  0
 23 22  1  0  0  0  0
 24 23  2  0  0  0  0
 25 24  1  0  0  0  0
 25 21  1  0  0  0  0
 28 29  1  0  0  0  0
 29 35  1  0  0  0  0
 29 30  2  0  0  0  0
 30 36  1  0  0  0  0
 31 30  1  0  0  0  0
 32 31  2  0  0  0  0
 33 28  2  0  0  0  0
 33 32  1  0  0  0  0
 34 28  1  0  0  0  0
M  END
>  <minimizedAffinity>
-6.37401342

$$$$

 OpenBabel03262522533D

 36 40  0  0  0  0  0  0  0  0999 V2000
   36.1010   28.4130   32.9420 C   0  0  0  0  0  0  0  0  0  0  0  0
   35.6180   27.9870   31.7630 C   0  0  0  0  0  0  0  0  0  0  0  0
   35.9050   26.6880   31.3970 C   0  0  0  0  0  0  0  0  0  0  0  0
   36.6410   25.8660   32.1810 N   0  0  0  0  0  0  0  0  0  0  0  0
   37.0900   26.3910   33.3660 C   0  0  0  0  0  0  0  0  0  0  0  0
   36.8460   27.6470   33.7830 N   0  0  0  0  0  0  0  0  0  0  0  0
   35.0280   28.6170   31.1130 H   0  0  0  0  0  0  0  0  0  0  0  0
   35.5460   26.2840   30.4590 H   0  0  0  0  0  0  0  0  0  0  0  0
   37.8860   25.5260   34.2350 C   0  0  0  0  0  0  0  0  0  0  0  0
   38.9950   24.8500   33.7570 C   0  0  0  0  0  0  0  0  0  0  0  0
   39.2900   24.9570   32.7220 H   0  0  0  0  0  0  0  0  0  0  0  0
   39.7890   24.0190   34.5190 C   0  0  0  0  0  3  0  0  0  0  0  0
   39.4420   23.8600   35.8440 C   0  0  0  0  0  0  0  0  0  0  0  0
   40.1480   23.0670   36.6960 N   0  0  0  0  0  0  0  0  0  0  0  0
   39.7600   22.9450   37.9960 C   0  0  0  0  0  0  0  0  0  0  0  0
   40.3730   22.3050   38.5820 H   0  0  0  0  0  0  0  0  0  0  0  0
   38.6690   23.5880   38.5350 C   0  0  0  0  0  3  0  0  0  0  0  0
   37.9400   24.3990   37.6810 C   0  0  0  0  0  3  0  0  0  0  0  0
   38.3430   24.5160   36.3610 C   0  0  0  0  0  0  0  0  0  0  0  0
   37.5700   25.3410   35.5690 C   0  0  0  0  0  3  0  0  0  0  0  0
   35.3670   32.0160   34.6990 C   0  0  0  0  0  0  0  0  0  0  0  0
   35.4810   32.0800   33.3750 C   0  0  0  0  0  0  0  0  0  0  0  0
   35.7290   30.9250   32.6660 C   0  0  0  0  0  0  0  0  0  0  0  0
   35.8390   29.7810   33.3990 C   0  0  0  0  0  0  0  0  0  0  0  0
   35.5880   30.3720   35.0950 S   0  0  0  0  0  0  0  0  0  0  0  0
   35.3780   33.0490   32.8530 H   0  0  0  0  0  0  0  0  0  0  0  0
   35.8400   30.8640   31.5830 H   0  0  0  0  0  0  0  0  0  0  0  0
   35.3310   35.3300   36.2250 C   0  0  0  0  0  0  0  0  0  0  0  0
   34.6040   35.1390   37.4050 C   0  0  0  0  0  0  0  0  0  0  0  0
   34.1240   33.8530   37.6760 C   0  0  0  0  0  0  0  0  0  0  0  0
   34.3820   32.8450   36.7840 N   0  0  0  0  0  0  0  0  0  0  0  0
   35.1010   33.1110   35.6490 C   0  0  0  0  0  0  0  0  0  0  0  0
   35.5740   34.3130   35.3550 N   0  0  0  0  0  0  0  0  0  0  0  0
   35.7470   36.2880   35.9210 H   0  0  0  0  0  0  0  0  0  0  0  0
   34.4600   35.9990   38.0350 H   0  0  0  0  0  0  0  0  0  0  0  0
   33.5710   33.7020   38.5710 H   0  0  0  0  0  0  0  0  0  0  0  0
  1 24  1  0  0  0  0
  1  6  1  0  0  0  0
  2  1  2  0  0  0  0
  3  2  1  0  0  0  0
  3  4  2  0  0  0  0
  4  5  1  0  0  0  0
  5  6  2  0  0  0  0
  5  9  1  0  0  0  0
  7  2  1  0  0  0  0
  8  3  1  0  0  0  0
  9 20  1  0  0  0  0
 10  9  2  0  0  0  0
 10 12  1  0  0  0  0
 11 10  1  0  0  0  0
 12 13  2  0  0  0  0
 13 19  1  0  0  0  0
 13 14  1  0  0  0  0
 14 15  2  0  0  0  0
 15 17  1  0  0  0  0
 15 16  1  0  0  0  0
 18 17  2  0  0  0  0
 19 18  1  0  0  0  0
 20 19  2  0  0  0  0
 21 25  1  0  0  0  0
 21 32  1  0  0  0  0
 22 21  2  0  0  0  0
 23 22  1  0  0  0  0
 23 24  2  0  0  0  0
 24 25  1  0  0  0  0
 26 22  1  0  0  0  0
 27 23  1  0  0  0  0
 28 29  1  0  0  0  0
 29 30  2  0  0  0  0
 29 35  1  0  0  0  0
 30 36  1  0  0  0  0
 31 30  1  0  0  0  0
 32 31  2  0  0  0  0
 33 32  1  0  0  0  0
 33 28  2  0  0  0  0
 34 28  1  0  0  0  0
M  END
>  <minimizedAffinity>
-6.18466759

$$$$

 OpenBabel03262522533D

 36 40  0  0  0  0  0  0  0  0999 V2000
   37.2780   27.3050   31.8370 C   0  0  0  0  0  0  0  0  0  0  0  0
   38.3990   27.8280   31.3130 C   0  0  0  0  0  0  0  0  0  0  0  0
   39.2750   26.9560   30.7000 C   0  0  0  0  0  0  0  0  0  0  0  0
   39.0290   25.6270   30.6220 N   0  0  0  0  0  0  0  0  0  0  0  0
   37.8580   25.1870   31.1860 C   0  0  0  0  0  0  0  0  0  0  0  0
   36.9620   25.9830   31.7980 N   0  0  0  0  0  0  0  0  0  0  0  0
   38.6270   28.8840   31.3590 H   0  0  0  0  0  0  0  0  0  0  0  0
   40.1960   27.3130   30.2590 H   0  0  0  0  0  0  0  0  0  0  0  0
   37.5650   23.7570   31.1160 C   0  0  0  0  0  0  0  0  0  0  0  0
   38.4150   22.8780   30.4680 C   0  0  0  0  0  0  0  0  0  0  0  0
   39.3180   23.2450   30.0000 H   0  0  0  0  0  0  0  0  0  0  0  0
   38.2000   21.5200   30.3630 C   0  0  0  0  0  3  0  0  0  0  0  0
   37.0570   21.0190   30.9480 C   0  0  0  0  0  0  0  0  0  0  0  0
   36.7350   19.6960   30.9130 N   0  0  0  0  0  0  0  0  0  0  0  0
   35.5920   19.2540   31.5080 C   0  0  0  0  0  0  0  0  0  0  0  0
   35.4280   18.2070   31.4260 H   0  0  0  0  0  0  0  0  0  0  0  0
   34.7050   20.0730   32.1670 C   0  0  0  0  0  3  0  0  0  0  0  0
   35.0170   21.4210   32.2120 C   0  0  0  0  0  3  0  0  0  0  0  0
   36.1810   21.8600   31.6050 C   0  0  0  0  0  0  0  0  0  0  0  0
   36.4280   23.2160   31.6900 C   0  0  0  0  0  3  0  0  0  0  0  0
   34.8360   29.6180   34.1380 C   0  0  0  0  0  0  0  0  0  0  0  0
   34.4770   29.5720   32.8570 C   0  0  0  0  0  0  0  0  0  0  0  0
   35.2250   28.8200   31.9770 C   0  0  0  0  0  0  0  0  0  0  0  0
   36.3000   28.1680   32.5060 C   0  0  0  0  0  0  0  0  0  0  0  0
   36.2280   28.6390   34.2550 S   0  0  0  0  0  0  0  0  0  0  0  0
   33.5900   30.1300   32.5060 H   0  0  0  0  0  0  0  0  0  0  0  0
   35.0220   28.7130   30.9120 H   0  0  0  0  0  0  0  0  0  0  0  0
   32.3340   30.6910   36.5670 C   0  0  0  0  0  0  0  0  0  0  0  0
   32.9920   31.6880   37.2950 C   0  0  0  0  0  0  0  0  0  0  0  0
   34.3110   31.9930   36.9420 C   0  0  0  0  0  0  0  0  0  0  0  0
   34.8980   31.3090   35.9090 N   0  0  0  0  0  0  0  0  0  0  0  0
   34.1880   30.3460   35.2440 C   0  0  0  0  0  0  0  0  0  0  0  0
   32.9390   30.0270   35.5460 N   0  0  0  0  0  0  0  0  0  0  0  0
   31.3100   30.3790   36.7600 H   0  0  0  0  0  0  0  0  0  0  0  0
   32.4370   32.1630   38.0870 H   0  0  0  0  0  0  0  0  0  0  0  0
   34.8150   32.7500   37.4920 H   0  0  0  0  0  0  0  0  0  0  0  0
  1 24  1  0  0  0  0
  2  7  1  0  0  0  0
  2  1  2  0  0  0  0
  3  2  1  0  0  0  0
  4  3  2  0  0  0  0
  4  5  1  0  0  0  0
  5  6  2  0  0  0  0
  6  1  1  0  0  0  0
  8  3  1  0  0  0  0
  9  5  1  0  0  0  0
  9 20  1  0  0  0  0
 10  9  2  0  0  0  0
 11 10  1  0  0  0  0
 12 10  1  0  0  0  0
 12 13  2  0  0  0  0
 13 19  1  0  0  0  0
 14 13  1  0  0  0  0
 14 15  2  0  0  0  0
 15 17  1  0  0  0  0
 16 15  1  0  0  0  0
 17 18  2  0  0  0  0
 19 20  2  0  0  0  0
 19 18  1  0  0  0  0
 21 25  1  0  0  0  0
 21 32  1  0  0  0  0
 22 21  2  0  0  0  0
 23 24  2  0  0  0  0
 23 22  1  0  0  0  0
 24 25  1  0  0  0  0
 26 22  1  0  0  0  0
 27 23  1  0  0  0  0
 28 34  1  0  0  0  0
 28 29  1  0  0  0  0
 29 35  1  0  0  0  0
 30 29  2  0  0  0  0
 30 36  1  0  0  0  0
 31 30  1  0  0  0  0
 32 33  1  0  0  0  0
 32 31  2  0  0  0  0
 33 28  2  0  0  0  0
M  END
>  <minimizedAffinity>
-6.15466833

$$$$

 OpenBabel03262522533D

 36 40  0  0  0  0  0  0  0  0999 V2000
   37.5510   27.1430   33.0350 C   0  0  0  0  0  0  0  0  0  0  0  0
   37.4840   27.1720   31.6930 C   0  0  0  0  0  0  0  0  0  0  0  0
   36.5680   28.0320   31.1260 C   0  0  0  0  0  0  0  0  0  0  0  0
   35.7610   28.8190   31.8760 N   0  0  0  0  0  0  0  0  0  0  0  0
   35.9020   28.7190   33.2370 C   0  0  0  0  0  0  0  0  0  0  0  0
   36.7760   27.9020   33.8540 N   0  0  0  0  0  0  0  0  0  0  0  0
   38.1120   26.5560   31.0650 H   0  0  0  0  0  0  0  0  0  0  0  0
   36.4630   28.1030   30.0520 H   0  0  0  0  0  0  0  0  0  0  0  0
   35.0460   29.5590   34.0730 C   0  0  0  0  0  0  0  0  0  0  0  0
   33.6700   29.4130   34.0700 C   0  0  0  0  0  0  0  0  0  0  0  0
   33.2060   28.6650   33.4400 H   0  0  0  0  0  0  0  0  0  0  0  0
   32.8040   30.1700   34.8300 C   0  0  0  0  0  3  0  0  0  0  0  0
   33.3610   31.1320   35.6450 C   0  0  0  0  0  0  0  0  0  0  0  0
   32.6110   31.9410   36.4430 N   0  0  0  0  0  0  0  0  0  0  0  0
   33.2130   32.8770   37.2280 C   0  0  0  0  0  0  0  0  0  0  0  0
   32.5450   33.4590   37.8140 H   0  0  0  0  0  0  0  0  0  0  0  0
   34.5740   33.0740   37.2790 C   0  0  0  0  0  3  0  0  0  0  0  0
   35.3520   32.2600   36.4730 C   0  0  0  0  0  3  0  0  0  0  0  0
   34.7300   31.3120   35.6780 C   0  0  0  0  0  0  0  0  0  0  0  0
   35.5670   30.5350   34.9030 C   0  0  0  0  0  3  0  0  0  0  0  0
   40.5480   25.0420   34.8270 C   0  0  0  0  0  0  0  0  0  0  0  0
   39.3740   24.4140   34.8380 C   0  0  0  0  0  0  0  0  0  0  0  0
   38.2820   25.0230   34.2600 C   0  0  0  0  0  0  0  0  0  0  0  0
   38.4990   26.2520   33.7100 C   0  0  0  0  0  0  0  0  0  0  0  0
   40.2640   26.5210   34.0270 S   0  0  0  0  0  0  0  0  0  0  0  0
   39.2800   23.4170   35.3050 H   0  0  0  0  0  0  0  0  0  0  0  0
   37.2780   24.6010   34.2130 H   0  0  0  0  0  0  0  0  0  0  0  0
   43.0700   22.9390   36.4170 C   0  0  0  0  0  0  0  0  0  0  0  0
   44.2230   23.7310   36.3850 C   0  0  0  0  0  0  0  0  0  0  0  0
   44.1270   25.0030   35.8120 C   0  0  0  0  0  0  0  0  0  0  0  0
   42.9210   25.4160   35.3090 N   0  0  0  0  0  0  0  0  0  0  0  0
   41.8360   24.5830   35.3760 C   0  0  0  0  0  0  0  0  0  0  0  0
   41.8850   23.3720   35.9110 N   0  0  0  0  0  0  0  0  0  0  0  0
   43.0380   21.9370   36.8390 H   0  0  0  0  0  0  0  0  0  0  0  0
   45.1180   23.3090   36.8090 H   0  0  0  0  0  0  0  0  0  0  0  0
   45.0000   25.6090   35.7860 H   0  0  0  0  0  0  0  0  0  0  0  0
  1 24  1  0  0  0  0
  1  6  1  0  0  0  0
  2  1  2  0  0  0  0
  3  2  1  0  0  0  0
  3  4  2  0  0  0  0
  4  5  1  0  0  0  0
  5  6  2  0  0  0  0
  5  9  1  0  0  0  0
  7  2  1  0  0  0  0
  8  3  1  0  0  0  0
  9 20  1  0  0  0  0
 10  9  2  0  0  0  0
 10 12  1  0  0  0  0
 11 10  1  0  0  0  0
 12 13  2  0  0  0  0
 13 19  1  0  0  0  0
 13 14  1  0  0  0  0
 14 15  2  0  0  0  0
 15 17  1  0  0  0  0
 15 16  1  0  0  0  0
 18 17  2  0  0  0  0
 19 18  1  0  0  0  0
 20 19  2  0  0  0  0
 21 22  2  0  0  0  0
 21 32  1  0  0  0  0
 22 26  1  0  0  0  0
 23 22  1  0  0  0  0
 24 25  1  0  0  0  0
 24 23  2  0  0  0  0
 25 21  1  0  0  0  0
 27 23  1  0  0  0  0
 28 34  1  0  0  0  0
 29 28  1  0  0  0  0
 29 35  1  0  0  0  0
 30 29  2  0  0  0  0
 31 32  2  0  0  0  0
 31 30  1  0  0  0  0
 32 33  1  0  0  0  0
 33 28  2  0  0  0  0
 36 30  1  0  0  0  0
M  END
>  <minimizedAffinity>
-6.13168621

$$$$

 OpenBabel03262522533D

 36 40  0  0  0  0  0  0  0  0999 V2000
   37.5500   27.2100   31.6060 C   0  0  0  0  0  0  0  0  0  0  0  0
   38.6880   27.4980   30.9540 C   0  0  0  0  0  0  0  0  0  0  0  0
   39.3440   26.4510   30.3390 C   0  0  0  0  0  0  0  0  0  0  0  0
   38.8740   25.1830   30.3830 N   0  0  0  0  0  0  0  0  0  0  0  0
   37.7040   24.9880   31.0730 C   0  0  0  0  0  0  0  0  0  0  0  0
   37.0150   25.9630   31.6940 N   0  0  0  0  0  0  0  0  0  0  0  0
   39.0920   28.4990   30.9000 H   0  0  0  0  0  0  0  0  0  0  0  0
   40.2660   26.6160   29.7970 H   0  0  0  0  0  0  0  0  0  0  0  0
   37.1710   23.6280   31.1370 C   0  0  0  0  0  0  0  0  0  0  0  0
   35.9110   23.3710   31.6480 C   0  0  0  0  0  0  0  0  0  0  0  0
   35.2980   24.1850   32.0110 H   0  0  0  0  0  0  0  0  0  0  0  0
   35.3470   22.1160   31.7390 C   0  0  0  0  0  3  0  0  0  0  0  0
   36.1020   21.0550   31.2850 C   0  0  0  0  0  0  0  0  0  0  0  0
   35.6550   19.7690   31.3200 N   0  0  0  0  0  0  0  0  0  0  0  0
   36.4430   18.7580   30.8590 C   0  0  0  0  0  0  0  0  0  0  0  0
   36.0070   17.7910   30.9290 H   0  0  0  0  0  0  0  0  0  0  0  0
   37.7030   18.9440   30.3390 C   0  0  0  0  0  3  0  0  0  0  0  0
   38.1730   20.2460   30.2950 C   0  0  0  0  0  3  0  0  0  0  0  0
   37.3640   21.2670   30.7670 C   0  0  0  0  0  0  0  0  0  0  0  0
   37.8970   22.5380   30.6920 C   0  0  0  0  0  3  0  0  0  0  0  0
   35.5200   29.8680   33.9350 C   0  0  0  0  0  0  0  0  0  0  0  0
   35.6160   30.2380   32.6600 C   0  0  0  0  0  0  0  0  0  0  0  0
   36.2800   29.4200   31.7720 C   0  0  0  0  0  0  0  0  0  0  0  0
   36.7970   28.2680   32.2860 C   0  0  0  0  0  0  0  0  0  0  0  0
   36.3290   28.3690   34.0350 S   0  0  0  0  0  0  0  0  0  0  0  0
   35.1680   31.1900   32.3210 H   0  0  0  0  0  0  0  0  0  0  0  0
   36.4160   29.6260   30.7110 H   0  0  0  0  0  0  0  0  0  0  0  0
   35.0060   32.0100   36.8440 C   0  0  0  0  0  0  0  0  0  0  0  0
   33.6360   31.8900   37.1000 C   0  0  0  0  0  0  0  0  0  0  0  0
   32.8840   31.0600   36.2610 C   0  0  0  0  0  0  0  0  0  0  0  0
   33.5140   30.4070   35.2340 N   0  0  0  0  0  0  0  0  0  0  0  0
   34.8600   30.5750   35.0470 C   0  0  0  0  0  0  0  0  0  0  0  0
   35.6080   31.3500   35.8180 N   0  0  0  0  0  0  0  0  0  0  0  0
   35.6790   32.6280   37.4350 H   0  0  0  0  0  0  0  0  0  0  0  0
   33.2440   32.4470   37.9330 H   0  0  0  0  0  0  0  0  0  0  0  0
   31.8430   30.9660   36.4510 H   0  0  0  0  0  0  0  0  0  0  0  0
  1  6  1  0  0  0  0
  1 24  1  0  0  0  0
  2  1  2  0  0  0  0
  3  4  2  0  0  0  0
  3  2  1  0  0  0  0
  4  5  1  0  0  0  0
  5  9  1  0  0  0  0
  5  6  2  0  0  0  0
  7  2  1  0  0  0  0
  8  3  1  0  0  0  0
  9 10  1  0  0  0  0
 10 12  2  0  0  0  0
 10 11  1  0  0  0  0
 13 14  1  0  0  0  0
 13 12  1  0  0  0  0
 15 16  1  0  0  0  0
 15 14  2  0  0  0  0
 17 15  1  0  0  0  0
 18 17  2  0  0  0  0
 18 19  1  0  0  0  0
 19 13  2  0  0  0  0
 20 19  1  0  0  0  0
 20  9  2  0  0  0  0
 21 25  1  0  0  0  0
 21 32  1  0  0  0  0
 22 21  2  0  0  0  0
 23 24  2  0  0  0  0
 23 22  1  0  0  0  0
 24 25  1  0  0  0  0
 26 22  1  0  0  0  0
 27 23  1  0  0  0  0
 28 29  1  0  0  0  0
 28 34  1  0  0  0  0
 29 35  1  0  0  0  0
 30 36  1  0  0  0  0
 30 29  2  0  0  0  0
 31 30  1  0  0  0  0
 32 31  2  0  0  0  0
 32 33  1  0  0  0  0
 33 28  2  0  0  0  0
M  END
>  <minimizedAffinity>
-6.12182617

$$$$
