
 OpenBabel03272509573D

 49 53  0  0  0  0  0  0  0  0999 V2000
   33.4910   27.5890   47.6410 C   0  0  0  0  0  0  0  0  0  0  0  0
   33.7030   26.6740   48.1920 H   0  0  0  0  0  0  0  0  0  0  0  0
   33.6930   27.3640   46.5710 H   0  0  0  0  0  0  0  0  0  0  0  0
   32.0400   27.9150   47.7280 C   0  0  0  0  0  0  0  0  0  0  0  0
   31.3470   27.4340   48.8220 C   0  0  0  0  0  0  0  0  0  0  0  0
   30.0000   27.6790   48.9960 C   0  0  0  0  0  0  0  0  0  0  0  0
   29.3510   28.4020   48.0830 N   0  0  0  0  0  0  0  0  0  0  0  0
   30.0410   28.8700   47.0120 C   0  0  0  0  0  0  0  0  0  0  0  0
   31.3520   28.6400   46.8260 N   0  0  0  0  0  0  0  0  0  0  0  0
   31.8310   26.8440   49.5880 H   0  0  0  0  0  0  0  0  0  0  0  0
   29.4400   27.3030   49.8580 H   0  0  0  0  0  0  0  0  0  0  0  0
   29.2940   29.6720   46.0060 C   0  0  0  0  0  0  0  0  0  0  0  0
   28.8370   30.5780   46.4540 H   0  0  0  0  0  0  0  0  0  0  0  0
   30.0430   30.0440   45.2760 H   0  0  0  0  0  0  0  0  0  0  0  0
   28.2570   28.8390   45.3130 C   0  0  0  0  0  0  0  0  0  0  0  0
   26.9320   29.2110   45.2210 C   0  0  0  0  0  0  0  0  0  0  0  0
   26.6180   30.1440   45.6690 H   0  0  0  0  0  0  0  0  0  0  0  0
   26.0810   28.3480   44.5520 C   0  0  0  0  0  3  0  0  0  0  0  0
   26.5260   27.1570   43.9910 C   0  0  0  0  0  0  0  0  0  0  0  0
   25.6980   26.3270   43.3460 N   0  0  0  0  0  0  0  0  0  0  0  0
   26.1800   25.1820   42.8200 C   0  0  0  0  0  0  0  0  0  0  0  0
   25.5560   24.4670   42.2830 H   0  0  0  0  0  0  0  0  0  0  0  0
   27.5190   24.7990   42.9060 C   0  0  0  0  0  3  0  0  0  0  0  0
   28.3810   25.6270   43.5590 C   0  0  0  0  0  3  0  0  0  0  0  0
   27.8690   26.7950   44.0930 C   0  0  0  0  0  0  0  0  0  0  0  0
   28.7070   27.6450   44.7510 C   0  0  0  0  0  3  0  0  0  0  0  0
   34.3670   28.6900   48.1450 C   0  0  0  0  0  0  0  0  0  0  0  0
   33.8470   29.6670   48.2020 H   0  0  0  0  0  0  0  0  0  0  0  0
   35.2030   28.8210   47.4270 H   0  0  0  0  0  0  0  0  0  0  0  0
   34.9670   28.3560   49.3820 O   0  0  0  0  0  0  0  0  0  0  0  0
   37.2880   30.1440   51.4820 C   0  0  0  0  0  0  0  0  0  0  0  0
   38.0370   30.8410   50.5020 C   0  0  0  0  0  0  0  0  0  0  0  0
   37.6810   30.6380   49.1710 C   0  0  0  0  0  0  0  0  0  0  0  0
   36.6380   29.7820   48.9450 N   0  0  0  0  0  0  0  0  0  0  0  0
   35.9490   29.1410   49.8830 C   0  0  0  0  0  0  0  0  0  0  0  0
   36.2850   29.3280   51.1740 N   0  0  0  0  0  0  0  0  0  0  0  0
   37.6190   30.3510   52.4880 H   0  0  0  0  0  0  0  0  0  0  0  0
   38.8510   31.5050   50.7080 H   0  0  0  0  0  0  0  0  0  0  0  0
   38.8740   33.2690   49.0040 F   0  0  0  0  0  0  0  0  0  0  0  0
   38.8870   32.4750   47.9410 C   0  0  0  0  0  0  0  0  0  0  0  0
   38.3270   31.2580   48.0440 C   0  0  0  0  0  0  0  0  0  0  0  0
   38.3960   30.5010   46.8680 C   0  0  0  0  0  0  0  0  0  0  0  0
   38.9830   30.9710   45.7270 C   0  0  0  0  0  0  0  0  0  0  0  0
   39.5430   32.2280   45.6750 C   0  0  0  0  0  0  0  0  0  0  0  0
   39.4840   32.9730   46.8070 C   0  0  0  0  0  0  0  0  0  0  0  0
   37.9850   29.5000   46.8070 H   0  0  0  0  0  0  0  0  0  0  0  0
   39.0330   30.3720   44.8090 H   0  0  0  0  0  0  0  0  0  0  0  0
   40.0010   32.5800   44.7660 H   0  0  0  0  0  0  0  0  0  0  0  0
   39.9200   33.9650   46.7850 H   0  0  0  0  0  0  0  0  0  0  0  0
  1  4  1  0  0  0  0
  1 27  1  0  0  0  0
  1  2  1  0  0  0  0
  3  1  1  0  0  0  0
  4  5  1  0  0  0  0
  5  6  2  0  0  0  0
  5 10  1  0  0  0  0
  6 11  1  0  0  0  0
  7  6  1  0  0  0  0
  8  7  2  0  0  0  0
  9  8  1  0  0  0  0
  9  4  2  0  0  0  0
 12 13  1  0  0  0  0
 12  8  1  0  0  0  0
 14 12  1  0  0  0  0
 15 12  1  0  0  0  0
 16 15  1  0  0  0  0
 16 17  1  0  0  0  0
 18 16  2  0  0  0  0
 19 25  1  0  0  0  0
 19 18  1  0  0  0  0
 20 19  2  0  0  0  0
 21 23  2  0  0  0  0
 21 20  1  0  0  0  0
 22 21  1  0  0  0  0
 23 24  1  0  0  0  0
 24 25  2  0  0  0  0
 25 26  1  0  0  0  0
 26 15  2  0  0  0  0
 27 28  1  0  0  0  0
 27 30  1  0  0  0  0
 29 27  1  0  0  0  0
 30 35  1  0  0  0  0
 31 37  1  0  0  0  0
 32 38  1  0  0  0  0
 32 31  2  0  0  0  0
 33 32  1  0  0  0  0
 34 33  2  0  0  0  0
 34 35  1  0  0  0  0
 35 36  2  0  0  0  0
 36 31  1  0  0  0  0
 40 41  1  0  0  0  0
 40 39  1  0  0  0  0
 41 33  1  0  0  0  0
 42 41  2  0  0  0  0
 43 42  1  0  0  0  0
 44 43  2  0  0  0  0
 44 45  1  0  0  0  0
 45 40  2  0  0  0  0
 46 42  1  0  0  0  0
 47 43  1  0  0  0  0
 48 44  1  0  0  0  0
 49 45  1  0  0  0  0
M  END
>  <minimizedAffinity>
-6.95891476

>  <minimizedRMSD>
0.955311358

$$$$
