
 OpenBabel03272500053D

 32 35  0  0  0  0  0  0  0  0999 V2000
   35.0020   28.9150   49.1780 C   0  0  0  0  0  0  0  0  0  0  0  0
   35.1160   30.0400   48.3230 C   0  0  0  0  0  0  0  0  0  0  0  0
   34.1690   30.1820   47.3280 C   0  0  0  0  0  0  0  0  0  0  0  0
   33.1820   29.2610   47.2050 N   0  0  0  0  0  0  0  0  0  0  0  0
   33.0840   28.2080   48.0130 C   0  0  0  0  0  0  0  0  0  0  0  0
   33.9990   28.0270   49.0130 N   0  0  0  0  0  0  0  0  0  0  0  0
   35.7390   28.8010   49.9540 H   0  0  0  0  0  0  0  0  0  0  0  0
   34.2490   31.0350   46.6730 H   0  0  0  0  0  0  0  0  0  0  0  0
   36.1920   30.9320   48.5540 N   0  0  0  0  0  0  0  0  0  0  0  0
   36.3650   31.5720   49.7120 C   0  0  0  0  0  0  0  0  0  0  0  0
   37.4460   32.4380   49.8760 C   0  0  0  0  0  0  0  0  0  0  0  0
   38.2610   32.5550   48.7920 C   0  0  0  0  0  0  0  0  0  0  0  0
   39.2440   33.3410   48.9420 O   0  0  0  0  0  0  0  0  0  0  0  0
   38.1290   31.9310   47.6080 N   0  0  0  0  0  0  0  0  0  0  0  0
   37.0570   31.1070   47.5230 C   0  0  0  0  0  0  0  0  0  0  0  0
   36.9190   30.5090   46.4030 O   0  0  0  0  0  0  0  0  0  0  0  0
   35.6600   31.4140   50.5200 H   0  0  0  0  0  0  0  0  0  0  0  0
   37.6190   32.9740   50.8000 H   0  0  0  0  0  0  0  0  0  0  0  0
   38.7840   32.0610   46.8190 H   0  0  0  0  0  0  0  0  0  0  0  0
   32.0930   27.2410   47.9260 O   0  0  0  0  0  0  0  0  0  0  0  0
   30.7850   27.6230   48.1970 C   0  0  0  0  0  0  0  0  0  0  0  0
   29.9820   28.3600   47.3450 C   0  0  0  0  0  0  0  0  0  0  0  0
   30.3990   28.6590   46.4010 H   0  0  0  0  0  0  0  0  0  0  0  0
   28.7040   28.6480   47.7840 C   0  0  0  0  0  0  0  0  0  0  0  0
   28.2260   28.2340   49.0100 C   0  0  0  0  0  0  0  0  0  0  0  0
   26.9800   28.5500   49.3690 N   0  0  0  0  0  0  0  0  0  0  0  0
   26.5190   28.1460   50.5610 C   0  0  0  0  0  0  0  0  0  0  0  0
   25.5010   28.4370   50.7890 H   0  0  0  0  0  0  0  0  0  0  0  0
   27.3070   27.4190   51.4070 C   0  0  0  0  0  0  0  0  0  0  0  0
   28.6030   27.0600   51.0970 C   0  0  0  0  0  0  0  0  0  0  0  0
   29.0370   27.5050   49.8460 C   0  0  0  0  0  0  0  0  0  0  0  0
   30.3370   27.1900   49.4400 C   0  0  0  0  0  0  0  0  0  0  0  0
  1  7  1  0  0  0  0
  2  9  1  0  0  0  0
  2  1  2  0  0  0  0
  3  2  1  0  0  0  0
  4  3  2  0  0  0  0
  4  5  1  0  0  0  0
  5  6  2  0  0  0  0
  6  1  1  0  0  0  0
  8  3  1  0  0  0  0
  9 10  1  0  0  0  0
 10 11  2  0  0  0  0
 10 17  1  0  0  0  0
 11 18  1  0  0  0  0
 12 13  2  0  0  0  0
 12 11  1  0  0  0  0
 14 12  1  0  0  0  0
 15 14  1  0  0  0  0
 15  9  1  0  0  0  0
 16 15  2  0  0  0  0
 19 14  1  0  0  0  0
 20  5  1  0  0  0  0
 20 21  1  0  0  0  0
 21 32  1  0  0  0  0
 22 24  1  0  0  0  0
 22 21  2  0  0  0  0
 23 22  1  0  0  0  0
 24 25  2  0  0  0  0
 25 26  1  0  0  0  0
 25 31  1  0  0  0  0
 26 27  2  0  0  0  0
 27 28  1  0  0  0  0
 27 29  1  0  0  0  0
 30 29  2  0  0  0  0
 31 30  1  0  0  0  0
 32 31  2  0  0  0  0
M  END
>  <minimizedAffinity>
-7.20252037

>  <minimizedRMSD>
2.32443953

$$$$
