
 OpenBabel03272505313D

 43 47  0  0  0  0  0  0  0  0999 V2000
   37.3980   31.2460   47.0240 N   0  0  0  0  0  0  0  0  0  0  0  0
   36.6970   31.0600   45.8730 C   0  0  0  0  0  0  0  0  0  0  0  0
   37.1070   31.5990   44.6700 C   0  0  0  0  0  0  0  0  0  0  0  0
   38.2890   32.3560   44.6800 C   0  0  0  0  0  0  0  0  0  0  0  0
   38.7070   32.8710   43.6080 O   0  0  0  0  0  0  0  0  0  0  0  0
   38.9910   32.5410   45.8390 N   0  0  0  0  0  0  0  0  0  0  0  0
   38.4910   31.9700   46.9240 C   0  0  0  0  0  0  0  0  0  0  0  0
   39.1600   32.1600   47.9680 O   0  0  0  0  0  0  0  0  0  0  0  0
   35.7920   30.4770   45.8810 H   0  0  0  0  0  0  0  0  0  0  0  0
   37.4260   29.5320   50.3270 C   0  0  0  0  0  0  0  0  0  0  0  0
   37.8460   30.0930   49.1130 C   0  0  0  0  0  0  0  0  0  0  0  0
   36.9650   30.6890   48.2340 C   0  0  0  0  0  0  0  0  0  0  0  0
   35.6770   30.7070   48.5950 N   0  0  0  0  0  0  0  0  0  0  0  0
   35.2260   30.1750   49.7630 C   0  0  0  0  0  0  0  0  0  0  0  0
   36.1140   29.5900   50.6180 N   0  0  0  0  0  0  0  0  0  0  0  0
   38.1170   29.0660   51.0160 H   0  0  0  0  0  0  0  0  0  0  0  0
   38.8910   30.0300   48.9150 H   0  0  0  0  0  0  0  0  0  0  0  0
   34.1800   30.1990   50.0380 H   0  0  0  0  0  0  0  0  0  0  0  0
   36.4010   31.4350   43.4070 C   0  0  0  0  0  0  0  0  0  0  0  0
   36.5810   30.3620   42.5820 C   0  0  0  0  0  0  0  0  0  0  0  0
   35.9250   30.1840   41.3810 C   0  0  0  0  0  0  0  0  0  0  0  0
   35.0150   31.1690   40.9790 C   0  0  0  0  0  0  0  0  0  0  0  0
   34.8630   32.2380   41.8430 C   0  0  0  0  0  0  0  0  0  0  0  0
   35.5290   32.3450   42.9880 N   0  0  0  0  0  0  0  0  0  0  0  0
   37.2730   29.5740   42.8470 H   0  0  0  0  0  0  0  0  0  0  0  0
   36.0770   29.3260   40.7320 H   0  0  0  0  0  0  0  0  0  0  0  0
   34.4930   31.0600   40.0580 H   0  0  0  0  0  0  0  0  0  0  0  0
   33.9370   33.3170   41.5140 C   0  0  0  0  0  0  0  0  0  0  0  0
   32.5780   33.0580   41.4130 C   0  0  0  0  0  0  0  0  0  0  0  0
   32.2120   32.0410   41.5810 H   0  0  0  0  0  0  0  0  0  0  0  0
   31.5940   33.9770   41.1110 C   0  0  0  0  0  3  0  0  0  0  0  0
   31.9970   35.2770   40.8880 C   0  0  0  0  0  0  0  0  0  0  0  0
   31.0990   36.2330   40.5890 N   0  0  0  0  0  0  0  0  0  0  0  0
   31.4610   37.5160   40.3650 C   0  0  0  0  0  0  0  0  0  0  0  0
   30.7290   38.2790   40.1240 H   0  0  0  0  0  0  0  0  0  0  0  0
   32.8210   37.8160   40.4590 C   0  0  0  0  0  3  0  0  0  0  0  0
   33.7920   36.8760   40.7640 C   0  0  0  0  0  3  0  0  0  0  0  0
   33.3390   35.5910   40.9770 C   0  0  0  0  0  0  0  0  0  0  0  0
   34.2840   34.6310   41.2830 C   0  0  0  0  0  3  0  0  0  0  0  0
   40.2020   33.3180   45.8360 C   0  0  0  0  0  0  0  0  0  0  0  0
   40.1720   34.2520   44.8630 F   0  0  0  0  0  0  0  0  0  0  0  0
   41.3480   32.5600   45.5950 F   0  0  0  0  0  0  0  0  0  0  0  0
   40.3250   33.9670   47.0590 F   0  0  0  0  0  0  0  0  0  0  0  0
  1 12  1  0  0  0  0
  2  9  1  0  0  0  0
  2  1  1  0  0  0  0
  3  4  1  0  0  0  0
  3  2  2  0  0  0  0
  4  6  1  0  0  0  0
  5  4  2  0  0  0  0
  6  7  1  0  0  0  0
  7  1  1  0  0  0  0
  7  8  2  0  0  0  0
 10 15  1  0  0  0  0
 10 16  1  0  0  0  0
 11 10  2  0  0  0  0
 12 13  2  0  0  0  0
 12 11  1  0  0  0  0
 13 14  1  0  0  0  0
 14 18  1  0  0  0  0
 14 15  2  0  0  0  0
 17 11  1  0  0  0  0
 19  3  1  0  0  0  0
 20 25  1  0  0  0  0
 20 19  2  0  0  0  0
 21 20  1  0  0  0  0
 22 21  2  0  0  0  0
 22 23  1  0  0  0  0
 23 24  2  0  0  0  0
 24 19  1  0  0  0  0
 26 21  1  0  0  0  0
 27 22  1  0  0  0  0
 28 23  1  0  0  0  0
 29 28  1  0  0  0  0
 29 30  1  0  0  0  0
 31 29  2  0  0  0  0
 32 38  1  0  0  0  0
 32 31  1  0  0  0  0
 33 32  2  0  0  0  0
 34 36  2  0  0  0  0
 34 33  1  0  0  0  0
 35 34  1  0  0  0  0
 36 37  1  0  0  0  0
 37 38  2  0  0  0  0
 38 39  1  0  0  0  0
 39 28  2  0  0  0  0
 40  6  1  0  0  0  0
 40 43  1  0  0  0  0
 41 40  1  0  0  0  0
 42 40  1  0  0  0  0
M  END
>  <minimizedAffinity>
-7.34452534

>  <minimizedRMSD>
0.841393113

$$$$
