
 OpenBabel03272508553D

 41 45  0  0  1  0  0  0  0  0999 V2000
   39.0690   31.5140   43.4950 C   0  0  0  0  0  0  0  0  0  0  0  0
   40.0550   30.5750   43.6250 C   0  0  0  0  0  0  0  0  0  0  0  0
   40.7900   30.2220   42.5010 C   0  0  0  0  0  0  0  0  0  0  0  0
   40.4820   30.8400   41.3290 C   0  0  0  0  0  0  0  0  0  0  0  0
   39.4900   31.7930   41.1810 C   0  0  0  0  0  0  0  0  0  0  0  0
   38.8240   32.0780   42.3140 N   0  0  0  0  0  0  0  0  0  0  0  0
   40.3280   30.0600   44.5460 H   0  0  0  0  0  0  0  0  0  0  0  0
   41.5800   29.4780   42.5730 H   0  0  0  0  0  0  0  0  0  0  0  0
   41.0590   30.5580   40.4600 H   0  0  0  0  0  0  0  0  0  0  0  0
   39.1570   32.4570   39.9290 C   0  0  0  0  0  0  0  0  0  0  0  0
   38.3080   33.5380   39.8600 C   0  0  0  0  0  0  0  0  0  0  0  0
   37.8480   33.9420   40.7500 H   0  0  0  0  0  0  0  0  0  0  0  0
   37.9730   34.1890   38.6930 C   0  0  0  0  0  3  0  0  0  0  0  0
   38.5520   33.6900   37.5220 C   0  0  0  0  0  0  0  0  0  0  0  0
   38.3030   34.2410   36.3100 N   0  0  0  0  0  0  0  0  0  0  0  0
   38.8450   33.7800   35.1730 C   0  0  0  0  0  0  0  0  0  0  0  0
   38.5760   34.3010   34.2440 H   0  0  0  0  0  0  0  0  0  0  0  0
   39.7110   32.6910   35.1790 C   0  0  0  0  0  3  0  0  0  0  0  0
   39.9880   32.1030   36.3960 C   0  0  0  0  0  3  0  0  0  0  0  0
   39.4150   32.5990   37.5460 C   0  0  0  0  0  0  0  0  0  0  0  0
   39.7150   31.9830   38.7610 C   0  0  0  0  0  3  0  0  0  0  0  0
   38.2890   31.8700   44.6900 C   0  0  0  0  0  0  0  0  0  0  0  0
   37.1220   32.3550   44.5900 O   0  0  0  0  0  0  0  0  0  0  0  0
   38.8770   31.6540   45.9830 N   0  0  0  0  0  0  0  0  0  0  0  0
   39.8820   31.4110   46.1320 H   0  0  0  0  0  0  0  0  0  0  0  0
   38.4090   31.1680   48.3820 C   0  0  2  0  0  0  0  0  0  0  0  0
   38.6450   32.6160   48.2900 C   0  0  0  0  0  0  0  0  0  0  0  0
   38.0110   31.7840   47.1440 C   0  0  1  0  0  0  0  0  0  0  0  0
   39.3670   30.5810   48.4480 H   0  0  0  0  0  0  0  0  0  0  0  0
   39.6460   33.0100   48.1170 H   0  0  0  0  0  0  0  0  0  0  0  0
   37.9350   33.2540   48.8710 H   0  0  0  0  0  0  0  0  0  0  0  0
   36.9380   32.0160   46.9570 H   0  0  0  0  0  0  0  0  0  0  0  0
   35.1550   29.9650   49.6400 C   0  0  0  0  0  0  0  0  0  0  0  0
   35.4930   29.4700   50.9410 C   0  0  0  0  0  0  0  0  0  0  0  0
   36.8750   29.5790   51.3530 C   0  0  0  0  0  0  0  0  0  0  0  0
   37.7800   30.1350   50.5060 N   0  0  0  0  0  0  0  0  0  0  0  0
   37.3770   30.5850   49.2800 C   0  0  0  0  0  0  0  0  0  0  0  0
   36.0780   30.5150   48.8180 N   0  0  0  0  0  0  0  0  0  0  0  0
   34.1360   29.8910   49.3210 H   0  0  0  0  0  0  0  0  0  0  0  0
   34.7470   29.0390   51.5750 H   0  0  0  0  0  0  0  0  0  0  0  0
   37.1190   29.2080   52.3210 H   0  0  0  0  0  0  0  0  0  0  0  0
  1  2  1  0  0  0  0
  1 22  1  0  0  0  0
  2  7  1  0  0  0  0
  3  8  1  0  0  0  0
  3  2  2  0  0  0  0
  4  3  1  0  0  0  0
  5  4  2  0  0  0  0
  5  6  1  0  0  0  0
  6  1  2  0  0  0  0
  9  4  1  0  0  0  0
 10  5  1  0  0  0  0
 11 10  1  0  0  0  0
 11 12  1  0  0  0  0
 13 11  2  0  0  0  0
 14 20  1  0  0  0  0
 14 13  1  0  0  0  0
 15 14  2  0  0  0  0
 16 18  2  0  0  0  0
 16 15  1  0  0  0  0
 17 16  1  0  0  0  0
 18 19  1  0  0  0  0
 19 20  2  0  0  0  0
 20 21  1  0  0  0  0
 21 10  2  0  0  0  0
 22 24  1  0  0  0  0
 23 22  2  0  0  0  0
 24 25  1  0  0  0  0
 24 28  1  0  0  0  0
 26 29  1  6  0  0  0
 26 37  1  0  0  0  0
 27 26  1  0  0  0  0
 27 31  1  0  0  0  0
 28 32  1  6  0  0  0
 28 27  1  0  0  0  0
 28 26  1  0  0  0  0
 30 27  1  0  0  0  0
 33 34  1  0  0  0  0
 34 35  2  0  0  0  0
 34 40  1  0  0  0  0
 35 41  1  0  0  0  0
 36 35  1  0  0  0  0
 37 36  2  0  0  0  0
 38 37  1  0  0  0  0
 38 33  2  0  0  0  0
 39 33  1  0  0  0  0
M  END
>  <minimizedAffinity>
-5.30847979

>  <minimizedRMSD>
1.06510627

$$$$
