
 OpenBabel03272508543D

 41 45  0  0  1  0  0  0  0  0999 V2000
   39.1680   31.4490   43.3500 C   0  0  0  0  0  0  0  0  0  0  0  0
   40.1460   30.5030   43.5000 C   0  0  0  0  0  0  0  0  0  0  0  0
   40.8720   30.1160   42.3810 C   0  0  0  0  0  0  0  0  0  0  0  0
   40.5650   30.7080   41.1950 C   0  0  0  0  0  0  0  0  0  0  0  0
   39.5810   31.6660   41.0280 C   0  0  0  0  0  0  0  0  0  0  0  0
   38.9230   31.9850   42.1560 N   0  0  0  0  0  0  0  0  0  0  0  0
   40.4180   30.0100   44.4310 H   0  0  0  0  0  0  0  0  0  0  0  0
   41.6550   29.3670   42.4680 H   0  0  0  0  0  0  0  0  0  0  0  0
   41.1360   30.3980   40.3320 H   0  0  0  0  0  0  0  0  0  0  0  0
   39.2490   32.3010   39.7610 C   0  0  0  0  0  0  0  0  0  0  0  0
   39.8960   32.0010   38.5840 C   0  0  0  0  0  0  0  0  0  0  0  0
   40.6890   31.2680   38.5550 H   0  0  0  0  0  0  0  0  0  0  0  0
   39.6060   32.5830   37.3690 C   0  0  0  0  0  3  0  0  0  0  0  0
   38.5820   33.5380   37.3720 C   0  0  0  0  0  0  0  0  0  0  0  0
   38.2030   34.1820   36.2430 N   0  0  0  0  0  0  0  0  0  0  0  0
   37.2250   35.1010   36.2200 C   0  0  0  0  0  0  0  0  0  0  0  0
   36.9960   35.5630   35.2500 H   0  0  0  0  0  0  0  0  0  0  0  0
   36.5360   35.4460   37.3780 C   0  0  0  0  0  3  0  0  0  0  0  0
   36.8950   34.8090   38.5490 C   0  0  0  0  0  3  0  0  0  0  0  0
   37.9040   33.8710   38.5390 C   0  0  0  0  0  0  0  0  0  0  0  0
   38.2450   33.2440   39.7380 C   0  0  0  0  0  3  0  0  0  0  0  0
   38.3970   31.8410   44.5390 C   0  0  0  0  0  0  0  0  0  0  0  0
   37.2870   32.4450   44.4300 O   0  0  0  0  0  0  0  0  0  0  0  0
   38.9260   31.5240   45.8360 N   0  0  0  0  0  0  0  0  0  0  0  0
   39.8970   31.1760   45.9990 H   0  0  0  0  0  0  0  0  0  0  0  0
   38.4140   31.1090   48.2400 C   0  0  2  0  0  0  0  0  0  0  0  0
   38.6840   32.5490   48.1150 C   0  0  0  0  0  0  0  0  0  0  0  0
   38.0480   31.7030   46.9810 C   0  0  1  0  0  0  0  0  0  0  0  0
   39.3580   30.5030   48.3340 H   0  0  0  0  0  0  0  0  0  0  0  0
   39.6960   32.9170   47.9470 H   0  0  0  0  0  0  0  0  0  0  0  0
   37.9800   33.2170   48.6700 H   0  0  0  0  0  0  0  0  0  0  0  0
   36.9820   31.9530   46.7740 H   0  0  0  0  0  0  0  0  0  0  0  0
   35.0940   30.1850   49.5580 C   0  0  0  0  0  0  0  0  0  0  0  0
   35.4230   29.5380   50.7930 C   0  0  0  0  0  0  0  0  0  0  0  0
   36.8240   29.4470   51.1410 C   0  0  0  0  0  0  0  0  0  0  0  0
   37.7540   29.9690   50.2980 N   0  0  0  0  0  0  0  0  0  0  0  0
   37.3580   30.5720   49.1370 C   0  0  0  0  0  0  0  0  0  0  0  0
   36.0410   30.6960   48.7390 N   0  0  0  0  0  0  0  0  0  0  0  0
   34.0620   30.2600   49.2880 H   0  0  0  0  0  0  0  0  0  0  0  0
   34.6570   29.1420   51.4260 H   0  0  0  0  0  0  0  0  0  0  0  0
   37.0610   28.9650   52.0600 H   0  0  0  0  0  0  0  0  0  0  0  0
  1  2  1  0  0  0  0
  1 22  1  0  0  0  0
  2  7  1  0  0  0  0
  3  8  1  0  0  0  0
  3  2  2  0  0  0  0
  4  3  1  0  0  0  0
  5  4  2  0  0  0  0
  5  6  1  0  0  0  0
  6  1  2  0  0  0  0
  9  4  1  0  0  0  0
 10  5  1  0  0  0  0
 11 10  2  0  0  0  0
 12 11  1  0  0  0  0
 13 14  2  0  0  0  0
 13 11  1  0  0  0  0
 14 20  1  0  0  0  0
 15 14  1  0  0  0  0
 16 15  2  0  0  0  0
 16 18  1  0  0  0  0
 17 16  1  0  0  0  0
 18 19  2  0  0  0  0
 20 19  1  0  0  0  0
 20 21  2  0  0  0  0
 21 10  1  0  0  0  0
 22 24  1  0  0  0  0
 23 22  2  0  0  0  0
 24 25  1  0  0  0  0
 24 28  1  0  0  0  0
 26 29  1  6  0  0  0
 26 37  1  0  0  0  0
 27 26  1  0  0  0  0
 27 31  1  0  0  0  0
 28 32  1  6  0  0  0
 28 27  1  0  0  0  0
 28 26  1  0  0  0  0
 30 27  1  0  0  0  0
 33 34  1  0  0  0  0
 34 35  2  0  0  0  0
 34 40  1  0  0  0  0
 35 41  1  0  0  0  0
 36 35  1  0  0  0  0
 37 36  2  0  0  0  0
 38 37  1  0  0  0  0
 38 33  2  0  0  0  0
 39 33  1  0  0  0  0
M  END
>  <minimizedAffinity>
-5.45059204

>  <minimizedRMSD>
0.265986383

$$$$
