
 OpenBabel03272505283D

 34 37  0  0  0  0  0  0  0  0999 V2000
   38.0340   23.4890   34.2170 N   0  0  0  0  0  0  0  0  0  0  0  0
   38.0580   24.7160   33.6280 C   0  0  0  0  0  0  0  0  0  0  0  0
   37.3950   24.9840   32.4420 C   0  0  0  0  0  0  0  0  0  0  0  0
   36.6790   23.9220   31.8550 C   0  0  0  0  0  0  0  0  0  0  0  0
   36.0640   24.1200   30.7840 O   0  0  0  0  0  0  0  0  0  0  0  0
   36.6540   22.6930   32.4430 N   0  0  0  0  0  0  0  0  0  0  0  0
   37.3350   22.5610   33.5860 C   0  0  0  0  0  0  0  0  0  0  0  0
   37.2890   21.4170   34.0950 O   0  0  0  0  0  0  0  0  0  0  0  0
   38.5950   25.5260   34.0630 H   0  0  0  0  0  0  0  0  0  0  0  0
   37.4230   26.3010   31.8110 C   0  0  0  0  0  0  0  0  0  0  0  0
   38.4980   26.5270   30.9460 C   0  0  0  0  0  0  0  0  0  0  0  0
   39.2710   25.7950   30.7390 H   0  0  0  0  0  0  0  0  0  0  0  0
   38.6530   27.7350   30.2760 C   0  0  0  0  0  3  0  0  0  0  0  0
   37.7150   28.7270   30.4780 C   0  0  0  0  0  0  0  0  0  0  0  0
   37.8160   29.9330   29.8470 N   0  0  0  0  0  0  0  0  0  0  0  0
   36.9010   30.9000   30.0450 C   0  0  0  0  0  0  0  0  0  0  0  0
   37.1210   31.8010   29.4710 H   0  0  0  0  0  0  0  0  0  0  0  0
   35.8300   30.6960   30.8970 C   0  0  0  0  0  3  0  0  0  0  0  0
   35.7050   29.4830   31.5490 C   0  0  0  0  0  3  0  0  0  0  0  0
   36.6440   28.4950   31.3430 C   0  0  0  0  0  0  0  0  0  0  0  0
   36.4840   27.2970   32.0120 C   0  0  0  0  0  3  0  0  0  0  0  0
   38.8530   23.2790   37.8300 C   0  0  0  0  0  0  0  0  0  0  0  0
   38.1690   23.5440   36.6360 C   0  0  0  0  0  0  0  0  0  0  0  0
   38.7100   23.2340   35.4130 C   0  0  0  0  0  0  0  0  0  0  0  0
   39.9380   22.6590   35.3960 N   0  0  0  0  0  0  0  0  0  0  0  0
   40.6290   22.3890   36.5380 C   0  0  0  0  0  0  0  0  0  0  0  0
   40.0890   22.6970   37.7550 N   0  0  0  0  0  0  0  0  0  0  0  0
   38.4820   23.4980   38.8200 H   0  0  0  0  0  0  0  0  0  0  0  0
   37.2370   24.0040   36.8450 H   0  0  0  0  0  0  0  0  0  0  0  0
   41.5990   21.9300   36.4180 H   0  0  0  0  0  0  0  0  0  0  0  0
   35.9160   21.6080   31.8360 C   0  0  0  0  0  0  0  0  0  0  0  0
   35.2610   22.0570   30.7260 F   0  0  0  0  0  0  0  0  0  0  0  0
   34.9560   21.0650   32.6790 F   0  0  0  0  0  0  0  0  0  0  0  0
   36.8130   20.6260   31.4360 F   0  0  0  0  0  0  0  0  0  0  0  0
  1 24  1  0  0  0  0
  2  9  1  0  0  0  0
  2  1  1  0  0  0  0
  3  2  2  0  0  0  0
  4  3  1  0  0  0  0
  4  6  1  0  0  0  0
  5  4  2  0  0  0  0
  6  7  1  0  0  0  0
  7  8  2  0  0  0  0
  7  1  1  0  0  0  0
 10 21  1  0  0  0  0
 10  3  1  0  0  0  0
 11 10  2  0  0  0  0
 12 11  1  0  0  0  0
 13 14  2  0  0  0  0
 13 11  1  0  0  0  0
 14 20  1  0  0  0  0
 15 16  2  0  0  0  0
 15 14  1  0  0  0  0
 16 18  1  0  0  0  0
 17 16  1  0  0  0  0
 18 19  2  0  0  0  0
 20 19  1  0  0  0  0
 20 21  2  0  0  0  0
 22 28  1  0  0  0  0
 23 29  1  0  0  0  0
 23 22  2  0  0  0  0
 24 23  1  0  0  0  0
 25 24  2  0  0  0  0
 25 26  1  0  0  0  0
 26 27  2  0  0  0  0
 27 22  1  0  0  0  0
 30 26  1  0  0  0  0
 31  6  1  0  0  0  0
 31 33  1  0  0  0  0
 32 31  1  0  0  0  0
 34 31  1  0  0  0  0
M  END
>  <minimizedAffinity>
-6.40054083

$$$$

 OpenBabel03272505283D

 34 37  0  0  0  0  0  0  0  0999 V2000
   38.0210   23.6400   34.3170 N   0  0  0  0  0  0  0  0  0  0  0  0
   38.0090   24.8890   33.7770 C   0  0  0  0  0  0  0  0  0  0  0  0
   37.3830   25.1730   32.5750 C   0  0  0  0  0  0  0  0  0  0  0  0
   36.7450   24.1030   31.9180 C   0  0  0  0  0  0  0  0  0  0  0  0
   36.1650   24.3150   30.8300 O   0  0  0  0  0  0  0  0  0  0  0  0
   36.7550   22.8520   32.4570 N   0  0  0  0  0  0  0  0  0  0  0  0
   37.3950   22.7060   33.6220 C   0  0  0  0  0  0  0  0  0  0  0  0
   37.3840   21.5420   34.0840 O   0  0  0  0  0  0  0  0  0  0  0  0
   38.4880   25.7060   34.2650 H   0  0  0  0  0  0  0  0  0  0  0  0
   37.3720   26.5150   31.9970 C   0  0  0  0  0  0  0  0  0  0  0  0
   36.3720   27.3650   32.4790 C   0  0  0  0  0  0  0  0  0  0  0  0
   35.6430   27.0770   33.2290 H   0  0  0  0  0  0  0  0  0  0  0  0
   36.2420   28.6710   32.0190 C   0  0  0  0  0  3  0  0  0  0  0  0
   37.1270   29.1260   31.0630 C   0  0  0  0  0  0  0  0  0  0  0  0
   37.0470   30.3980   30.5760 N   0  0  0  0  0  0  0  0  0  0  0  0
   37.9110   30.8400   29.6430 C   0  0  0  0  0  0  0  0  0  0  0  0
   37.7160   31.8750   29.3570 H   0  0  0  0  0  0  0  0  0  0  0  0
   38.9070   30.0140   29.1530 C   0  0  0  0  0  3  0  0  0  0  0  0
   39.0100   28.7200   29.6310 C   0  0  0  0  0  3  0  0  0  0  0  0
   38.1230   28.2710   30.5860 C   0  0  0  0  0  0  0  0  0  0  0  0
   38.2580   26.9730   31.0390 C   0  0  0  0  0  3  0  0  0  0  0  0
   38.7150   23.3580   37.9510 C   0  0  0  0  0  0  0  0  0  0  0  0
   38.0690   23.6390   36.7400 C   0  0  0  0  0  0  0  0  0  0  0  0
   38.6590   23.3690   35.5310 C   0  0  0  0  0  0  0  0  0  0  0  0
   39.8980   22.8190   35.5440 N   0  0  0  0  0  0  0  0  0  0  0  0
   40.5530   22.5350   36.7040 C   0  0  0  0  0  0  0  0  0  0  0  0
   39.9650   22.8030   37.9080 N   0  0  0  0  0  0  0  0  0  0  0  0
   38.3050   23.5460   38.9320 H   0  0  0  0  0  0  0  0  0  0  0  0
   37.1200   24.0750   36.9260 H   0  0  0  0  0  0  0  0  0  0  0  0
   41.5360   22.0970   36.6090 H   0  0  0  0  0  0  0  0  0  0  0  0
   36.0960   21.7590   31.7780 C   0  0  0  0  0  0  0  0  0  0  0  0
   35.3350   22.2410   30.7530 F   0  0  0  0  0  0  0  0  0  0  0  0
   35.2480   21.0370   32.6060 F   0  0  0  0  0  0  0  0  0  0  0  0
   37.0630   20.9220   31.2350 F   0  0  0  0  0  0  0  0  0  0  0  0
  1 24  1  0  0  0  0
  2  9  1  0  0  0  0
  2  1  1  0  0  0  0
  3  2  2  0  0  0  0
  4  6  1  0  0  0  0
  4  3  1  0  0  0  0
  5  4  2  0  0  0  0
  6  7  1  0  0  0  0
  7  8  2  0  0  0  0
  7  1  1  0  0  0  0
 10 11  1  0  0  0  0
 10  3  1  0  0  0  0
 11 12  1  0  0  0  0
 13 11  2  0  0  0  0
 14 13  1  0  0  0  0
 15 14  2  0  0  0  0
 16 15  1  0  0  0  0
 17 16  1  0  0  0  0
 18 19  1  0  0  0  0
 18 16  2  0  0  0  0
 19 20  2  0  0  0  0
 20 21  1  0  0  0  0
 20 14  1  0  0  0  0
 21 10  2  0  0  0  0
 22 28  1  0  0  0  0
 23 29  1  0  0  0  0
 23 22  2  0  0  0  0
 24 25  2  0  0  0  0
 24 23  1  0  0  0  0
 25 26  1  0  0  0  0
 26 27  2  0  0  0  0
 27 22  1  0  0  0  0
 30 26  1  0  0  0  0
 31  6  1  0  0  0  0
 31 33  1  0  0  0  0
 32 31  1  0  0  0  0
 34 31  1  0  0  0  0
M  END
>  <minimizedAffinity>
-6.34937191

$$$$

 OpenBabel03272505283D

 34 37  0  0  0  0  0  0  0  0999 V2000
   36.1960   28.7260   34.0900 N   0  0  0  0  0  0  0  0  0  0  0  0
   36.7760   27.7340   34.8190 C   0  0  0  0  0  0  0  0  0  0  0  0
   37.5850   26.7670   34.2460 C   0  0  0  0  0  0  0  0  0  0  0  0
   37.7920   26.8480   32.8550 C   0  0  0  0  0  0  0  0  0  0  0  0
   38.5170   25.9960   32.2960 O   0  0  0  0  0  0  0  0  0  0  0  0
   37.2120   27.8410   32.1230 N   0  0  0  0  0  0  0  0  0  0  0  0
   36.4510   28.7130   32.7930 C   0  0  0  0  0  0  0  0  0  0  0  0
   35.9340   29.6090   32.0870 O   0  0  0  0  0  0  0  0  0  0  0  0
   36.6270   27.6640   35.8710 H   0  0  0  0  0  0  0  0  0  0  0  0
   38.2070   25.7030   35.0300 C   0  0  0  0  0  0  0  0  0  0  0  0
   37.3990   25.1460   36.0270 C   0  0  0  0  0  0  0  0  0  0  0  0
   36.3800   25.4600   36.2250 H   0  0  0  0  0  0  0  0  0  0  0  0
   37.8590   24.1240   36.8500 C   0  0  0  0  0  3  0  0  0  0  0  0
   39.1450   23.6580   36.6690 C   0  0  0  0  0  0  0  0  0  0  0  0
   39.6490   22.6570   37.4480 N   0  0  0  0  0  0  0  0  0  0  0  0
   40.9040   22.2040   37.2700 C   0  0  0  0  0  0  0  0  0  0  0  0
   41.1570   21.4050   37.9690 H   0  0  0  0  0  0  0  0  0  0  0  0
   41.7180   22.7420   36.2900 C   0  0  0  0  0  3  0  0  0  0  0  0
   41.2320   23.7570   35.4880 C   0  0  0  0  0  3  0  0  0  0  0  0
   39.9460   24.2190   35.6730 C   0  0  0  0  0  0  0  0  0  0  0  0
   39.4960   25.2340   34.8510 C   0  0  0  0  0  3  0  0  0  0  0  0
   35.0720   31.7520   35.9190 C   0  0  0  0  0  0  0  0  0  0  0  0
   35.8990   30.7850   35.3340 C   0  0  0  0  0  0  0  0  0  0  0  0
   35.3790   29.6940   34.6830 C   0  0  0  0  0  0  0  0  0  0  0  0
   34.0290   29.5790   34.6260 N   0  0  0  0  0  0  0  0  0  0  0  0
   33.1980   30.5010   35.1860 C   0  0  0  0  0  0  0  0  0  0  0  0
   33.7160   31.5880   35.8320 N   0  0  0  0  0  0  0  0  0  0  0  0
   35.4180   32.6310   36.4430 H   0  0  0  0  0  0  0  0  0  0  0  0
   36.9180   31.0350   35.4890 H   0  0  0  0  0  0  0  0  0  0  0  0
   32.1390   30.3200   35.0860 H   0  0  0  0  0  0  0  0  0  0  0  0
   37.4300   27.9190   30.6960 C   0  0  0  0  0  0  0  0  0  0  0  0
   38.4380   27.0730   30.3350 F   0  0  0  0  0  0  0  0  0  0  0  0
   37.7950   29.1880   30.2710 F   0  0  0  0  0  0  0  0  0  0  0  0
   36.2740   27.5090   30.0450 F   0  0  0  0  0  0  0  0  0  0  0  0
  1 24  1  0  0  0  0
  1  2  1  0  0  0  0
  2  9  1  0  0  0  0
  3  2  2  0  0  0  0
  3 10  1  0  0  0  0
  4  3  1  0  0  0  0
  5  4  2  0  0  0  0
  6  7  1  0  0  0  0
  6  4  1  0  0  0  0
  7  1  1  0  0  0  0
  8  7  2  0  0  0  0
 10 11  1  0  0  0  0
 11 12  1  0  0  0  0
 11 13  2  0  0  0  0
 14 13  1  0  0  0  0
 14 15  1  0  0  0  0
 16 15  2  0  0  0  0
 16 17  1  0  0  0  0
 18 16  1  0  0  0  0
 19 20  1  0  0  0  0
 19 18  2  0  0  0  0
 20 14  2  0  0  0  0
 21 10  2  0  0  0  0
 21 20  1  0  0  0  0
 22 28  1  0  0  0  0
 23 29  1  0  0  0  0
 23 22  2  0  0  0  0
 24 23  1  0  0  0  0
 25 24  2  0  0  0  0
 25 26  1  0  0  0  0
 26 27  2  0  0  0  0
 27 22  1  0  0  0  0
 30 26  1  0  0  0  0
 31  6  1  0  0  0  0
 32 31  1  0  0  0  0
 33 31  1  0  0  0  0
 34 31  1  0  0  0  0
M  END
>  <minimizedAffinity>
-6.3313508

$$$$

 OpenBabel03272505283D

 34 37  0  0  0  0  0  0  0  0999 V2000
   38.2990   23.9800   34.1770 N   0  0  0  0  0  0  0  0  0  0  0  0
   38.0360   25.2940   33.9440 C   0  0  0  0  0  0  0  0  0  0  0  0
   37.1860   25.7150   32.9340 C   0  0  0  0  0  0  0  0  0  0  0  0
   36.5910   24.7140   32.1420 C   0  0  0  0  0  0  0  0  0  0  0  0
   35.8150   25.0490   31.2190 O   0  0  0  0  0  0  0  0  0  0  0  0
   36.8520   23.3970   32.3730 N   0  0  0  0  0  0  0  0  0  0  0  0
   37.6920   23.1200   33.3770 C   0  0  0  0  0  0  0  0  0  0  0  0
   37.9090   21.9000   33.5570 O   0  0  0  0  0  0  0  0  0  0  0  0
   38.4800   26.0590   34.5370 H   0  0  0  0  0  0  0  0  0  0  0  0
   36.9050   27.1270   32.6860 C   0  0  0  0  0  0  0  0  0  0  0  0
   37.3500   27.6160   31.4540 C   0  0  0  0  0  0  0  0  0  0  0  0
   37.8680   27.0140   30.7150 H   0  0  0  0  0  0  0  0  0  0  0  0
   37.1520   28.9410   31.0820 C   0  0  0  0  0  3  0  0  0  0  0  0
   36.4990   29.7830   31.9590 C   0  0  0  0  0  0  0  0  0  0  0  0
   36.2770   31.0930   31.6480 N   0  0  0  0  0  0  0  0  0  0  0  0
   35.6410   31.9130   32.5050 C   0  0  0  0  0  0  0  0  0  0  0  0
   35.5420   32.9260   32.1110 H   0  0  0  0  0  0  0  0  0  0  0  0
   35.1940   31.4480   33.7290 C   0  0  0  0  0  3  0  0  0  0  0  0
   35.4070   30.1250   34.0690 C   0  0  0  0  0  3  0  0  0  0  0  0
   36.0590   29.2880   33.1890 C   0  0  0  0  0  0  0  0  0  0  0  0
   36.2520   27.9730   33.5640 C   0  0  0  0  0  3  0  0  0  0  0  0
   41.3560   22.9530   36.0120 C   0  0  0  0  0  0  0  0  0  0  0  0
   40.4990   23.3560   34.9800 C   0  0  0  0  0  0  0  0  0  0  0  0
   39.1610   23.5720   35.1980 C   0  0  0  0  0  0  0  0  0  0  0  0
   38.6910   23.3810   36.4560 N   0  0  0  0  0  0  0  0  0  0  0  0
   39.4970   22.9880   37.4800 C   0  0  0  0  0  0  0  0  0  0  0  0
   40.8290   22.7740   37.2620 N   0  0  0  0  0  0  0  0  0  0  0  0
   42.4140   22.7670   35.9040 H   0  0  0  0  0  0  0  0  0  0  0  0
   41.0390   23.4420   34.0710 H   0  0  0  0  0  0  0  0  0  0  0  0
   39.0270   22.8640   38.4440 H   0  0  0  0  0  0  0  0  0  0  0  0
   36.2360   22.3750   31.5570 C   0  0  0  0  0  0  0  0  0  0  0  0
   35.3090   22.9400   30.7300 F   0  0  0  0  0  0  0  0  0  0  0  0
   35.5770   21.4090   32.3020 F   0  0  0  0  0  0  0  0  0  0  0  0
   37.2130   21.7870   30.7650 F   0  0  0  0  0  0  0  0  0  0  0  0
  1 24  1  0  0  0  0
  2  1  1  0  0  0  0
  2  9  1  0  0  0  0
  3  2  2  0  0  0  0
  4  6  1  0  0  0  0
  4  3  1  0  0  0  0
  5  4  2  0  0  0  0
  6  7  1  0  0  0  0
  7  8  2  0  0  0  0
  7  1  1  0  0  0  0
 10  3  1  0  0  0  0
 10 21  1  0  0  0  0
 11 10  2  0  0  0  0
 12 11  1  0  0  0  0
 13 11  1  0  0  0  0
 13 14  2  0  0  0  0
 14 20  1  0  0  0  0
 15 14  1  0  0  0  0
 15 16  2  0  0  0  0
 16 18  1  0  0  0  0
 17 16  1  0  0  0  0
 18 19  2  0  0  0  0
 20 21  2  0  0  0  0
 20 19  1  0  0  0  0
 22 27  1  0  0  0  0
 23 24  1  0  0  0  0
 23 22  2  0  0  0  0
 24 25  2  0  0  0  0
 25 26  1  0  0  0  0
 26 30  1  0  0  0  0
 27 26  2  0  0  0  0
 28 22  1  0  0  0  0
 29 23  1  0  0  0  0
 31 33  1  0  0  0  0
 31  6  1  0  0  0  0
 32 31  1  0  0  0  0
 34 31  1  0  0  0  0
M  END
>  <minimizedAffinity>
-6.27093935

$$$$

 OpenBabel03272505283D

 34 37  0  0  0  0  0  0  0  0999 V2000
   37.2490   22.6660   33.2380 N   0  0  0  0  0  0  0  0  0  0  0  0
   37.2750   23.8020   32.4900 C   0  0  0  0  0  0  0  0  0  0  0  0
   37.7540   25.0050   32.9810 C   0  0  0  0  0  0  0  0  0  0  0  0
   38.2250   25.0110   34.3080 C   0  0  0  0  0  0  0  0  0  0  0  0
   38.6690   26.0760   34.7930 O   0  0  0  0  0  0  0  0  0  0  0  0
   38.2000   23.8750   35.0590 N   0  0  0  0  0  0  0  0  0  0  0  0
   37.7120   22.7780   34.4710 C   0  0  0  0  0  0  0  0  0  0  0  0
   37.7040   21.7540   35.1930 O   0  0  0  0  0  0  0  0  0  0  0  0
   36.9220   23.8100   31.4840 H   0  0  0  0  0  0  0  0  0  0  0  0
   37.7810   26.2240   32.1760 C   0  0  0  0  0  0  0  0  0  0  0  0
   38.8860   26.3570   31.3290 C   0  0  0  0  0  0  0  0  0  0  0  0
   39.6810   25.6240   31.2540 H   0  0  0  0  0  0  0  0  0  0  0  0
   39.0430   27.4660   30.5050 C   0  0  0  0  0  3  0  0  0  0  0  0
   38.0770   28.4520   30.5330 C   0  0  0  0  0  0  0  0  0  0  0  0
   38.1790   29.5620   29.7460 N   0  0  0  0  0  0  0  0  0  0  0  0
   37.2370   30.5230   29.7760 C   0  0  0  0  0  0  0  0  0  0  0  0
   37.4620   31.3420   29.0910 H   0  0  0  0  0  0  0  0  0  0  0  0
   36.1360   30.4090   30.6060 C   0  0  0  0  0  3  0  0  0  0  0  0
   36.0100   29.2940   31.4140 C   0  0  0  0  0  3  0  0  0  0  0  0
   36.9770   28.3130   31.3820 C   0  0  0  0  0  0  0  0  0  0  0  0
   36.8150   27.2130   32.2030 C   0  0  0  0  0  3  0  0  0  0  0  0
   34.9360   19.9670   32.1740 C   0  0  0  0  0  0  0  0  0  0  0  0
   35.4170   21.1760   32.6930 C   0  0  0  0  0  0  0  0  0  0  0  0
   36.7590   21.4600   32.7270 C   0  0  0  0  0  0  0  0  0  0  0  0
   37.6130   20.5260   32.2400 N   0  0  0  0  0  0  0  0  0  0  0  0
   37.1780   19.3410   31.7300 C   0  0  0  0  0  0  0  0  0  0  0  0
   35.8410   19.0590   31.6950 N   0  0  0  0  0  0  0  0  0  0  0  0
   33.8950   19.6850   32.1180 H   0  0  0  0  0  0  0  0  0  0  0  0
   34.6090   21.7720   33.0360 H   0  0  0  0  0  0  0  0  0  0  0  0
   37.9360   18.6640   31.3670 H   0  0  0  0  0  0  0  0  0  0  0  0
   38.6870   23.8870   36.4210 C   0  0  0  0  0  0  0  0  0  0  0  0
   38.1420   22.8480   37.1170 F   0  0  0  0  0  0  0  0  0  0  0  0
   38.3580   25.0480   37.1050 F   0  0  0  0  0  0  0  0  0  0  0  0
   40.0650   23.7140   36.4040 F   0  0  0  0  0  0  0  0  0  0  0  0
  1  7  1  0  0  0  0
  2  3  2  0  0  0  0
  2  1  1  0  0  0  0
  3  4  1  0  0  0  0
  4  5  2  0  0  0  0
  4  6  1  0  0  0  0
  6 31  1  0  0  0  0
  7  6  1  0  0  0  0
  7  8  2  0  0  0  0
  9  2  1  0  0  0  0
 10 21  1  0  0  0  0
 10  3  1  0  0  0  0
 11 10  2  0  0  0  0
 12 11  1  0  0  0  0
 13 14  2  0  0  0  0
 13 11  1  0  0  0  0
 14 20  1  0  0  0  0
 15 16  2  0  0  0  0
 15 14  1  0  0  0  0
 16 18  1  0  0  0  0
 17 16  1  0  0  0  0
 18 19  2  0  0  0  0
 20 19  1  0  0  0  0
 20 21  2  0  0  0  0
 22 23  1  0  0  0  0
 23 24  2  0  0  0  0
 23 29  1  0  0  0  0
 24  1  1  0  0  0  0
 25 24  1  0  0  0  0
 26 25  2  0  0  0  0
 27 26  1  0  0  0  0
 27 22  2  0  0  0  0
 28 22  1  0  0  0  0
 30 26  1  0  0  0  0
 31 33  1  0  0  0  0
 31 32  1  0  0  0  0
 34 31  1  0  0  0  0
M  END
>  <minimizedAffinity>
-6.16271448

$$$$

 OpenBabel03272505283D

 34 37  0  0  0  0  0  0  0  0999 V2000
   36.7230   26.8590   32.7230 N   0  0  0  0  0  0  0  0  0  0  0  0
   36.6280   25.6690   32.0700 C   0  0  0  0  0  0  0  0  0  0  0  0
   37.0970   24.4840   32.6120 C   0  0  0  0  0  0  0  0  0  0  0  0
   37.6860   24.5550   33.8890 C   0  0  0  0  0  0  0  0  0  0  0  0
   38.1220   23.5080   34.4190 O   0  0  0  0  0  0  0  0  0  0  0  0
   37.7820   25.7450   34.5450 N   0  0  0  0  0  0  0  0  0  0  0  0
   37.2930   26.8180   33.9150 C   0  0  0  0  0  0  0  0  0  0  0  0
   37.4010   27.8930   34.5480 O   0  0  0  0  0  0  0  0  0  0  0  0
   36.1840   25.6030   31.1040 H   0  0  0  0  0  0  0  0  0  0  0  0
   36.9950   23.2070   31.9090 C   0  0  0  0  0  0  0  0  0  0  0  0
   35.7380   22.5950   31.9610 C   0  0  0  0  0  0  0  0  0  0  0  0
   34.8820   23.0160   32.4780 H   0  0  0  0  0  0  0  0  0  0  0  0
   35.4950   21.3780   31.3370 C   0  0  0  0  0  3  0  0  0  0  0  0
   36.5270   20.7680   30.6530 C   0  0  0  0  0  0  0  0  0  0  0  0
   36.3450   19.5720   30.0210 N   0  0  0  0  0  0  0  0  0  0  0  0
   37.3530   18.9780   29.3550 C   0  0  0  0  0  0  0  0  0  0  0  0
   37.0500   18.0310   28.9060 H   0  0  0  0  0  0  0  0  0  0  0  0
   38.6030   19.5680   29.2920 C   0  0  0  0  0  3  0  0  0  0  0  0
   38.8130   20.7790   29.9240 C   0  0  0  0  0  3  0  0  0  0  0  0
   37.7790   21.3840   30.6060 C   0  0  0  0  0  0  0  0  0  0  0  0
   38.0270   22.5940   31.2230 C   0  0  0  0  0  3  0  0  0  0  0  0
   36.4290   29.8840   30.5950 C   0  0  0  0  0  0  0  0  0  0  0  0
   36.9180   28.6980   31.1560 C   0  0  0  0  0  0  0  0  0  0  0  0
   36.2460   28.0460   32.1600 C   0  0  0  0  0  0  0  0  0  0  0  0
   35.0840   28.5930   32.5960 N   0  0  0  0  0  0  0  0  0  0  0  0
   34.5820   29.7450   32.0730 C   0  0  0  0  0  0  0  0  0  0  0  0
   35.2520   30.3920   31.0730 N   0  0  0  0  0  0  0  0  0  0  0  0
   36.9100   30.4420   29.8050 H   0  0  0  0  0  0  0  0  0  0  0  0
   37.8380   28.4310   30.7000 H   0  0  0  0  0  0  0  0  0  0  0  0
   33.6510   30.0990   32.4880 H   0  0  0  0  0  0  0  0  0  0  0  0
   38.3860   25.8100   35.8570 C   0  0  0  0  0  0  0  0  0  0  0  0
   37.8000   24.8950   36.6830 F   0  0  0  0  0  0  0  0  0  0  0  0
   38.2410   27.0510   36.4610 F   0  0  0  0  0  0  0  0  0  0  0  0
   39.7320   25.4850   35.7460 F   0  0  0  0  0  0  0  0  0  0  0  0
  1  7  1  0  0  0  0
  2  3  2  0  0  0  0
  2  1  1  0  0  0  0
  3  4  1  0  0  0  0
  4  5  2  0  0  0  0
  4  6  1  0  0  0  0
  6 31  1  0  0  0  0
  7  6  1  0  0  0  0
  7  8  2  0  0  0  0
  9  2  1  0  0  0  0
 10 11  1  0  0  0  0
 10  3  1  0  0  0  0
 11 12  1  0  0  0  0
 13 11  2  0  0  0  0
 14 13  1  0  0  0  0
 15 14  2  0  0  0  0
 16 15  1  0  0  0  0
 17 16  1  0  0  0  0
 18 16  2  0  0  0  0
 18 19  1  0  0  0  0
 19 20  2  0  0  0  0
 20 14  1  0  0  0  0
 20 21  1  0  0  0  0
 21 10  2  0  0  0  0
 22 27  2  0  0  0  0
 22 23  1  0  0  0  0
 23 24  2  0  0  0  0
 24 25  1  0  0  0  0
 24  1  1  0  0  0  0
 26 30  1  0  0  0  0
 26 25  2  0  0  0  0
 27 26  1  0  0  0  0
 28 22  1  0  0  0  0
 29 23  1  0  0  0  0
 31 33  1  0  0  0  0
 31 32  1  0  0  0  0
 34 31  1  0  0  0  0
M  END
>  <minimizedAffinity>
-6.15641022

$$$$

 OpenBabel03272505283D

 34 37  0  0  0  0  0  0  0  0999 V2000
   35.8980   29.3320   34.0430 N   0  0  0  0  0  0  0  0  0  0  0  0
   36.6790   28.3340   34.5390 C   0  0  0  0  0  0  0  0  0  0  0  0
   37.5050   27.5660   33.7350 C   0  0  0  0  0  0  0  0  0  0  0  0
   37.5110   27.8610   32.3580 C   0  0  0  0  0  0  0  0  0  0  0  0
   38.2440   27.1940   31.5950 O   0  0  0  0  0  0  0  0  0  0  0  0
   36.7310   28.8600   31.8580 N   0  0  0  0  0  0  0  0  0  0  0  0
   35.9750   29.5280   32.7370 C   0  0  0  0  0  0  0  0  0  0  0  0
   35.2710   30.4360   32.2400 O   0  0  0  0  0  0  0  0  0  0  0  0
   36.6830   28.1020   35.5790 H   0  0  0  0  0  0  0  0  0  0  0  0
   38.3420   26.4950   34.2710 C   0  0  0  0  0  0  0  0  0  0  0  0
   39.6940   26.8130   34.4250 C   0  0  0  0  0  0  0  0  0  0  0  0
   40.1210   27.7790   34.1740 H   0  0  0  0  0  0  0  0  0  0  0  0
   40.6080   25.8920   34.9240 C   0  0  0  0  0  3  0  0  0  0  0  0
   40.1550   24.6350   35.2710 C   0  0  0  0  0  0  0  0  0  0  0  0
   41.0060   23.6900   35.7660 N   0  0  0  0  0  0  0  0  0  0  0  0
   40.5630   22.4650   36.1040 C   0  0  0  0  0  0  0  0  0  0  0  0
   41.3630   21.8260   36.4820 H   0  0  0  0  0  0  0  0  0  0  0  0
   39.2280   22.1300   35.9590 C   0  0  0  0  0  3  0  0  0  0  0  0
   38.3450   23.0700   35.4600 C   0  0  0  0  0  3  0  0  0  0  0  0
   38.8030   24.3230   35.1140 C   0  0  0  0  0  0  0  0  0  0  0  0
   37.8900   25.2350   34.6200 C   0  0  0  0  0  3  0  0  0  0  0  0
   34.7100   31.8910   36.4520 C   0  0  0  0  0  0  0  0  0  0  0  0
   35.5520   31.1270   35.6340 C   0  0  0  0  0  0  0  0  0  0  0  0
   35.0680   30.0960   34.8670 C   0  0  0  0  0  0  0  0  0  0  0  0
   33.7380   29.8370   34.9280 N   0  0  0  0  0  0  0  0  0  0  0  0
   32.8940   30.5600   35.7140 C   0  0  0  0  0  0  0  0  0  0  0  0
   33.3760   31.5860   36.4770 N   0  0  0  0  0  0  0  0  0  0  0  0
   35.0280   32.7120   37.0760 H   0  0  0  0  0  0  0  0  0  0  0  0
   36.5530   31.4650   35.7240 H   0  0  0  0  0  0  0  0  0  0  0  0
   31.8520   30.2760   35.6940 H   0  0  0  0  0  0  0  0  0  0  0  0
   36.7430   29.1590   30.4440 C   0  0  0  0  0  0  0  0  0  0  0  0
   38.0070   29.4920   30.0520 F   0  0  0  0  0  0  0  0  0  0  0  0
   35.9210   30.2250   30.1060 F   0  0  0  0  0  0  0  0  0  0  0  0
   36.3650   28.0210   29.7430 F   0  0  0  0  0  0  0  0  0  0  0  0
  1  2  1  0  0  0  0
  1 24  1  0  0  0  0
  2  9  1  0  0  0  0
  3 10  1  0  0  0  0
  3  2  2  0  0  0  0
  4  3  1  0  0  0  0
  5  4  2  0  0  0  0
  6  4  1  0  0  0  0
  6  7  1  0  0  0  0
  7  1  1  0  0  0  0
  8  7  2  0  0  0  0
 10 11  2  0  0  0  0
 10 21  1  0  0  0  0
 11 13  1  0  0  0  0
 12 11  1  0  0  0  0
 13 14  2  0  0  0  0
 14 15  1  0  0  0  0
 15 16  2  0  0  0  0
 16 17  1  0  0  0  0
 18 16  1  0  0  0  0
 19 18  2  0  0  0  0
 20 14  1  0  0  0  0
 20 19  1  0  0  0  0
 21 20  2  0  0  0  0
 22 27  1  0  0  0  0
 22 28  1  0  0  0  0
 23 29  1  0  0  0  0
 23 22  2  0  0  0  0
 24 25  2  0  0  0  0
 24 23  1  0  0  0  0
 25 26  1  0  0  0  0
 26 27  2  0  0  0  0
 30 26  1  0  0  0  0
 31  6  1  0  0  0  0
 32 31  1  0  0  0  0
 33 31  1  0  0  0  0
 34 31  1  0  0  0  0
M  END
>  <minimizedAffinity>
-6.15118694

$$$$

 OpenBabel03272505283D

 34 37  0  0  0  0  0  0  0  0999 V2000
   37.5210   27.1440   33.4050 N   0  0  0  0  0  0  0  0  0  0  0  0
   36.6930   27.9050   34.1700 C   0  0  0  0  0  0  0  0  0  0  0  0
   36.0830   29.0520   33.6910 C   0  0  0  0  0  0  0  0  0  0  0  0
   36.3550   29.4100   32.3560 C   0  0  0  0  0  0  0  0  0  0  0  0
   35.8240   30.4390   31.8810 O   0  0  0  0  0  0  0  0  0  0  0  0
   37.1840   28.6500   31.5880 N   0  0  0  0  0  0  0  0  0  0  0  0
   37.7120   27.5670   32.1670 C   0  0  0  0  0  0  0  0  0  0  0  0
   38.4700   26.8950   31.4310 O   0  0  0  0  0  0  0  0  0  0  0  0
   36.4800   27.6430   35.1810 H   0  0  0  0  0  0  0  0  0  0  0  0
   35.1940   29.8680   34.5150 C   0  0  0  0  0  0  0  0  0  0  0  0
   33.8490   29.4850   34.5030 C   0  0  0  0  0  0  0  0  0  0  0  0
   33.4650   28.6450   33.9330 H   0  0  0  0  0  0  0  0  0  0  0  0
   32.8900   30.1690   35.2400 C   0  0  0  0  0  3  0  0  0  0  0  0
   33.2870   31.2520   35.9970 C   0  0  0  0  0  0  0  0  0  0  0  0
   32.3900   31.9620   36.7400 N   0  0  0  0  0  0  0  0  0  0  0  0
   32.7790   33.0180   37.4780 C   0  0  0  0  0  0  0  0  0  0  0  0
   31.9470   33.4780   38.0130 H   0  0  0  0  0  0  0  0  0  0  0  0
   34.1050   33.4130   37.5030 C   0  0  0  0  0  3  0  0  0  0  0  0
   35.0340   32.7110   36.7580 C   0  0  0  0  0  3  0  0  0  0  0  0
   34.6320   31.6300   36.0040 C   0  0  0  0  0  0  0  0  0  0  0  0
   35.5900   30.9540   35.2740 C   0  0  0  0  0  3  0  0  0  0  0  0
   39.8430   24.8800   35.2100 C   0  0  0  0  0  0  0  0  0  0  0  0
   39.2430   26.0430   34.7090 C   0  0  0  0  0  0  0  0  0  0  0  0
   38.1310   25.9900   33.9050 C   0  0  0  0  0  0  0  0  0  0  0  0
   37.6280   24.7660   33.6080 N   0  0  0  0  0  0  0  0  0  0  0  0
   38.1880   23.6170   34.0780 C   0  0  0  0  0  0  0  0  0  0  0  0
   39.2940   23.6710   34.8790 N   0  0  0  0  0  0  0  0  0  0  0  0
   40.7160   24.8560   35.8450 H   0  0  0  0  0  0  0  0  0  0  0  0
   39.7780   26.8990   35.0350 H   0  0  0  0  0  0  0  0  0  0  0  0
   37.7130   22.6930   33.7850 H   0  0  0  0  0  0  0  0  0  0  0  0
   37.4570   29.0220   30.2180 C   0  0  0  0  0  0  0  0  0  0  0  0
   38.8000   28.9650   29.9820 F   0  0  0  0  0  0  0  0  0  0  0  0
   37.0480   30.3130   29.9130 F   0  0  0  0  0  0  0  0  0  0  0  0
   36.8350   28.1100   29.3750 F   0  0  0  0  0  0  0  0  0  0  0  0
  1 24  1  0  0  0  0
  1  2  1  0  0  0  0
  2  9  1  0  0  0  0
  3  2  2  0  0  0  0
  3 10  1  0  0  0  0
  4  3  1  0  0  0  0
  5  4  2  0  0  0  0
  6  7  1  0  0  0  0
  6  4  1  0  0  0  0
  7  1  1  0  0  0  0
  8  7  2  0  0  0  0
 10 21  1  0  0  0  0
 11 10  2  0  0  0  0
 11 13  1  0  0  0  0
 12 11  1  0  0  0  0
 13 14  2  0  0  0  0
 14 20  1  0  0  0  0
 14 15  1  0  0  0  0
 15 16  2  0  0  0  0
 16 18  1  0  0  0  0
 16 17  1  0  0  0  0
 19 18  2  0  0  0  0
 20 19  1  0  0  0  0
 21 20  2  0  0  0  0
 22 28  1  0  0  0  0
 23 29  1  0  0  0  0
 23 22  2  0  0  0  0
 24 23  1  0  0  0  0
 25 24  2  0  0  0  0
 25 26  1  0  0  0  0
 26 27  2  0  0  0  0
 27 22  1  0  0  0  0
 30 26  1  0  0  0  0
 31  6  1  0  0  0  0
 32 31  1  0  0  0  0
 33 31  1  0  0  0  0
 34 31  1  0  0  0  0
M  END
>  <minimizedAffinity>
-6.1129446

$$$$

 OpenBabel03272505283D

 34 37  0  0  0  0  0  0  0  0999 V2000
   35.5810   30.1110   33.5300 N   0  0  0  0  0  0  0  0  0  0  0  0
   35.8770   28.7840   33.4960 C   0  0  0  0  0  0  0  0  0  0  0  0
   36.4420   28.1760   32.3880 C   0  0  0  0  0  0  0  0  0  0  0  0
   36.7060   28.9970   31.2740 C   0  0  0  0  0  0  0  0  0  0  0  0
   37.2170   28.4900   30.2510 O   0  0  0  0  0  0  0  0  0  0  0  0
   36.4100   30.3270   31.3050 N   0  0  0  0  0  0  0  0  0  0  0  0
   35.8650   30.7930   32.4340 C   0  0  0  0  0  0  0  0  0  0  0  0
   35.6060   32.0180   32.4240 O   0  0  0  0  0  0  0  0  0  0  0  0
   35.6830   28.1540   34.3330 H   0  0  0  0  0  0  0  0  0  0  0  0
   36.7590   26.7500   32.3530 C   0  0  0  0  0  0  0  0  0  0  0  0
   37.9570   26.3900   32.9780 C   0  0  0  0  0  0  0  0  0  0  0  0
   38.6230   27.0960   33.4630 H   0  0  0  0  0  0  0  0  0  0  0  0
   38.3860   25.0680   33.0240 C   0  0  0  0  0  3  0  0  0  0  0  0
   37.6010   24.0980   32.4340 C   0  0  0  0  0  0  0  0  0  0  0  0
   37.9720   22.7850   32.4470 N   0  0  0  0  0  0  0  0  0  0  0  0
   37.2050   21.8410   31.8710 C   0  0  0  0  0  0  0  0  0  0  0  0
   37.6370   20.8430   31.9660 H   0  0  0  0  0  0  0  0  0  0  0  0
   36.0170   22.1780   31.2480 C   0  0  0  0  0  3  0  0  0  0  0  0
   35.6190   23.5010   31.2200 C   0  0  0  0  0  3  0  0  0  0  0  0
   36.4060   24.4660   31.8110 C   0  0  0  0  0  0  0  0  0  0  0  0
   35.9740   25.7770   31.7630 C   0  0  0  0  0  3  0  0  0  0  0  0
   35.1830   31.9380   36.7350 C   0  0  0  0  0  0  0  0  0  0  0  0
   35.7670   31.3370   35.6130 C   0  0  0  0  0  0  0  0  0  0  0  0
   35.0080   30.7090   34.6570 C   0  0  0  0  0  0  0  0  0  0  0  0
   33.6640   30.6880   34.8340 N   0  0  0  0  0  0  0  0  0  0  0  0
   33.0660   31.2620   35.9140 C   0  0  0  0  0  0  0  0  0  0  0  0
   33.8220   31.8870   36.8650 N   0  0  0  0  0  0  0  0  0  0  0  0
   35.7240   32.4460   37.5200 H   0  0  0  0  0  0  0  0  0  0  0  0
   36.8220   31.4420   35.6510 H   0  0  0  0  0  0  0  0  0  0  0  0
   31.9890   31.1920   35.9640 H   0  0  0  0  0  0  0  0  0  0  0  0
   36.6850   31.1640   30.1590 C   0  0  0  0  0  0  0  0  0  0  0  0
   35.6190   31.9800   29.9160 F   0  0  0  0  0  0  0  0  0  0  0  0
   36.9110   30.4390   28.9980 F   0  0  0  0  0  0  0  0  0  0  0  0
   37.7820   31.9670   30.4450 F   0  0  0  0  0  0  0  0  0  0  0  0
  1 24  1  0  0  0  0
  2  1  1  0  0  0  0
  2  9  1  0  0  0  0
  3  2  2  0  0  0  0
  4  6  1  0  0  0  0
  4  3  1  0  0  0  0
  5  4  2  0  0  0  0
  6  7  1  0  0  0  0
  7  1  1  0  0  0  0
  8  7  2  0  0  0  0
 10  3  1  0  0  0  0
 10 11  1  0  0  0  0
 11 13  2  0  0  0  0
 11 12  1  0  0  0  0
 14 15  1  0  0  0  0
 14 13  1  0  0  0  0
 16 17  1  0  0  0  0
 16 15  2  0  0  0  0
 18 16  1  0  0  0  0
 19 18  2  0  0  0  0
 19 20  1  0  0  0  0
 20 14  2  0  0  0  0
 21 20  1  0  0  0  0
 21 10  2  0  0  0  0
 22 27  1  0  0  0  0
 22 28  1  0  0  0  0
 23 29  1  0  0  0  0
 23 22  2  0  0  0  0
 24 25  2  0  0  0  0
 24 23  1  0  0  0  0
 25 26  1  0  0  0  0
 26 30  1  0  0  0  0
 26 27  2  0  0  0  0
 31 34  1  0  0  0  0
 31  6  1  0  0  0  0
 32 31  1  0  0  0  0
 33 31  1  0  0  0  0
M  END
>  <minimizedAffinity>
-6.04044533

$$$$
