
 OpenBabel03272507173D

 29 32  0  0  1  0  0  0  0  0999 V2000
   37.8630   22.2410   34.6100 C   0  0  1  0  0  0  0  0  0  0  0  0
   37.9510   23.2140   33.5440 C   0  0  2  0  0  0  0  0  0  0  0  0
   38.9660   22.0880   33.5550 C   0  0  0  0  0  0  0  0  0  0  0  0
   37.1240   21.3920   34.6440 H   0  0  0  0  0  0  0  0  0  0  0  0
   37.1590   23.1920   32.7690 H   0  0  0  0  0  0  0  0  0  0  0  0
   38.7830   21.2790   32.8200 H   0  0  0  0  0  0  0  0  0  0  0  0
   39.9970   22.3160   33.8240 H   0  0  0  0  0  0  0  0  0  0  0  0
   38.4270   22.5350   35.9830 C   0  0  0  0  0  0  0  0  0  0  0  0
   37.5720   23.2090   36.8560 C   0  0  0  0  0  0  0  0  0  0  0  0
   38.1160   23.4970   38.1130 C   0  0  0  0  0  0  0  0  0  0  0  0
   39.3860   23.1280   38.4190 N   0  0  0  0  0  0  0  0  0  0  0  0
   40.1860   22.4680   37.5300 C   0  0  0  0  0  0  0  0  0  0  0  0
   39.6980   22.1670   36.2940 N   0  0  0  0  0  0  0  0  0  0  0  0
   36.5720   23.4730   36.5440 H   0  0  0  0  0  0  0  0  0  0  0  0
   37.5050   24.0120   38.8210 H   0  0  0  0  0  0  0  0  0  0  0  0
   41.1970   22.1740   37.7730 H   0  0  0  0  0  0  0  0  0  0  0  0
   38.4830   24.4820   33.8170 O   0  0  0  0  0  0  0  0  0  0  0  0
   37.8700   25.6650   33.4960 C   0  0  0  0  0  0  0  0  0  0  0  0
   37.4240   26.3180   34.6390 C   0  0  0  0  0  0  0  0  0  0  0  0
   37.5260   25.9720   35.6740 H   0  0  0  0  0  0  0  0  0  0  0  0
   36.7670   27.5450   34.5890 C   0  0  0  0  0  3  0  0  0  0  0  0
   36.5590   28.1190   33.3500 C   0  0  0  0  0  0  0  0  0  0  0  0
   35.9250   29.3120   33.2470 N   0  0  0  0  0  0  0  0  0  0  0  0
   35.7250   29.8710   32.0200 C   0  0  0  0  0  0  0  0  0  0  0  0
   35.2190   30.8220   31.9380 H   0  0  0  0  0  0  0  0  0  0  0  0
   36.1690   29.2260   30.8620 C   0  0  0  0  0  3  0  0  0  0  0  0
   36.8150   28.0150   30.9420 C   0  0  0  0  0  3  0  0  0  0  0  0
   37.0020   27.4780   32.1900 C   0  0  0  0  0  0  0  0  0  0  0  0
   37.6470   26.2660   32.2810 C   0  0  0  0  0  3  0  0  0  0  0  0
  1  4  1  6  0  0  0
  1  8  1  0  0  0  0
  2  5  1  6  0  0  0
  2  3  1  0  0  0  0
  2 17  1  0  0  0  0
  2  1  1  0  0  0  0
  3  7  1  0  0  0  0
  3  1  1  0  0  0  0
  6  3  1  0  0  0  0
  8 13  2  0  0  0  0
  8  9  1  0  0  0  0
  9 10  2  0  0  0  0
 10 11  1  0  0  0  0
 10 15  1  0  0  0  0
 12 16  1  0  0  0  0
 12 11  2  0  0  0  0
 13 12  1  0  0  0  0
 14  9  1  0  0  0  0
 18 17  1  0  0  0  0
 18 19  1  0  0  0  0
 19 20  1  0  0  0  0
 21 19  2  0  0  0  0
 22 21  1  0  0  0  0
 23 22  1  0  0  0  0
 24 23  2  0  0  0  0
 25 24  1  0  0  0  0
 26 27  2  0  0  0  0
 26 24  1  0  0  0  0
 27 28  1  0  0  0  0
 28 29  1  0  0  0  0
 28 22  2  0  0  0  0
 29 18  2  0  0  0  0
M  END
>  <minimizedAffinity>
-5.15753365

$$$$

 OpenBabel03272507173D

 29 32  0  0  1  0  0  0  0  0999 V2000
   36.6310   26.8390   32.3440 C   0  0  1  0  0  0  0  0  0  0  0  0
   35.9560   28.0360   31.8910 C   0  0  2  0  0  0  0  0  0  0  0  0
   37.0940   27.5050   31.0430 C   0  0  0  0  0  0  0  0  0  0  0  0
   36.2330   25.7930   32.2220 H   0  0  0  0  0  0  0  0  0  0  0  0
   34.9230   27.9200   31.5040 H   0  0  0  0  0  0  0  0  0  0  0  0
   36.7890   26.9670   30.1230 H   0  0  0  0  0  0  0  0  0  0  0  0
   38.0370   28.0530   31.0300 H   0  0  0  0  0  0  0  0  0  0  0  0
   37.6890   26.9030   33.4230 C   0  0  0  0  0  0  0  0  0  0  0  0
   37.2150   26.9200   34.7360 C   0  0  0  0  0  0  0  0  0  0  0  0
   38.2040   27.0050   35.7220 C   0  0  0  0  0  0  0  0  0  0  0  0
   39.5170   27.0630   35.3830 N   0  0  0  0  0  0  0  0  0  0  0  0
   39.9340   27.0430   34.0830 C   0  0  0  0  0  0  0  0  0  0  0  0
   39.0060   26.9610   33.0890 N   0  0  0  0  0  0  0  0  0  0  0  0
   36.1530   26.8720   34.9320 H   0  0  0  0  0  0  0  0  0  0  0  0
   37.8960   27.0220   36.7440 H   0  0  0  0  0  0  0  0  0  0  0  0
   40.9790   27.0890   33.8120 H   0  0  0  0  0  0  0  0  0  0  0  0
   36.2220   29.2540   32.5280 O   0  0  0  0  0  0  0  0  0  0  0  0
   35.4500   29.7940   33.5240 C   0  0  0  0  0  0  0  0  0  0  0  0
   34.1370   29.3450   33.4300 C   0  0  0  0  0  0  0  0  0  0  0  0
   33.7320   28.6550   32.6810 H   0  0  0  0  0  0  0  0  0  0  0  0
   33.1480   29.7440   34.3250 C   0  0  0  0  0  3  0  0  0  0  0  0
   33.4990   30.6170   35.3340 C   0  0  0  0  0  0  0  0  0  0  0  0
   32.5730   31.0350   36.2300 N   0  0  0  0  0  0  0  0  0  0  0  0
   32.9300   31.8980   37.2240 C   0  0  0  0  0  0  0  0  0  0  0  0
   32.1910   32.2320   37.9390 H   0  0  0  0  0  0  0  0  0  0  0  0
   34.2460   32.3580   37.3290 C   0  0  0  0  0  3  0  0  0  0  0  0
   35.2030   31.9470   36.4330 C   0  0  0  0  0  3  0  0  0  0  0  0
   34.8140   31.0800   35.4440 C   0  0  0  0  0  0  0  0  0  0  0  0
   35.7630   30.6620   34.5400 C   0  0  0  0  0  3  0  0  0  0  0  0
  1  4  1  6  0  0  0
  1  8  1  0  0  0  0
  2  5  1  6  0  0  0
  2  1  1  0  0  0  0
  2 17  1  0  0  0  0
  3  2  1  0  0  0  0
  3  1  1  0  0  0  0
  6  3  1  0  0  0  0
  7  3  1  0  0  0  0
  8  9  1  0  0  0  0
  9 14  1  0  0  0  0
  9 10  2  0  0  0  0
 10 15  1  0  0  0  0
 11 10  1  0  0  0  0
 12 11  2  0  0  0  0
 13  8  2  0  0  0  0
 13 12  1  0  0  0  0
 16 12  1  0  0  0  0
 17 18  1  0  0  0  0
 18 29  1  0  0  0  0
 19 18  2  0  0  0  0
 19 21  1  0  0  0  0
 20 19  1  0  0  0  0
 21 22  2  0  0  0  0
 22 28  1  0  0  0  0
 22 23  1  0  0  0  0
 23 24  2  0  0  0  0
 24 26  1  0  0  0  0
 24 25  1  0  0  0  0
 27 26  2  0  0  0  0
 28 27  1  0  0  0  0
 29 28  2  0  0  0  0
M  END
>  <minimizedAffinity>
-5.12824202

$$$$

 OpenBabel03272507173D

 29 32  0  0  1  0  0  0  0  0999 V2000
   36.6120   28.7260   32.3900 C   0  0  1  0  0  0  0  0  0  0  0  0
   37.3110   27.5620   32.8870 C   0  0  2  0  0  0  0  0  0  0  0  0
   36.3600   27.3680   31.7230 C   0  0  0  0  0  0  0  0  0  0  0  0
   37.0640   29.5060   31.7140 H   0  0  0  0  0  0  0  0  0  0  0  0
   38.4000   27.4980   32.6840 H   0  0  0  0  0  0  0  0  0  0  0  0
   36.8420   27.2520   30.7320 H   0  0  0  0  0  0  0  0  0  0  0  0
   35.4150   26.8540   31.9000 H   0  0  0  0  0  0  0  0  0  0  0  0
   35.3790   29.2520   33.0910 C   0  0  0  0  0  0  0  0  0  0  0  0
   35.6120   29.9940   34.2500 C   0  0  0  0  0  0  0  0  0  0  0  0
   34.4620   30.4530   34.9010 C   0  0  0  0  0  0  0  0  0  0  0  0
   33.2280   30.1740   34.4060 N   0  0  0  0  0  0  0  0  0  0  0  0
   33.0500   29.4430   33.2670 C   0  0  0  0  0  0  0  0  0  0  0  0
   34.1410   28.9760   32.6000 N   0  0  0  0  0  0  0  0  0  0  0  0
   36.6230   30.1770   34.5860 H   0  0  0  0  0  0  0  0  0  0  0  0
   34.5820   31.0260   35.7940 H   0  0  0  0  0  0  0  0  0  0  0  0
   32.0680   29.2210   32.8730 H   0  0  0  0  0  0  0  0  0  0  0  0
   36.8930   26.9720   34.0870 O   0  0  0  0  0  0  0  0  0  0  0  0
   37.6190   26.0470   34.7910 C   0  0  0  0  0  0  0  0  0  0  0  0
   38.6670   25.5520   34.0230 C   0  0  0  0  0  0  0  0  0  0  0  0
   38.9160   25.8330   32.9940 H   0  0  0  0  0  0  0  0  0  0  0  0
   39.5580   24.5970   34.5060 C   0  0  0  0  0  3  0  0  0  0  0  0
   39.3790   24.1350   35.7950 C   0  0  0  0  0  0  0  0  0  0  0  0
   40.2190   23.2060   36.3120 N   0  0  0  0  0  0  0  0  0  0  0  0
   40.0350   22.7570   37.5860 C   0  0  0  0  0  0  0  0  0  0  0  0
   40.7050   22.0160   37.9980 H   0  0  0  0  0  0  0  0  0  0  0  0
   38.9850   23.2470   38.3690 C   0  0  0  0  0  3  0  0  0  0  0  0
   38.1210   24.1900   37.8670 C   0  0  0  0  0  3  0  0  0  0  0  0
   38.3310   24.6220   36.5820 C   0  0  0  0  0  0  0  0  0  0  0  0
   37.4720   25.5660   36.0690 C   0  0  0  0  0  3  0  0  0  0  0  0
  1  4  1  6  0  0  0
  1  2  1  0  0  0  0
  1  8  1  0  0  0  0
  2  5  1  6  0  0  0
  2 17  1  0  0  0  0
  3  7  1  0  0  0  0
  3  1  1  0  0  0  0
  3  2  1  0  0  0  0
  6  3  1  0  0  0  0
  8  9  1  0  0  0  0
  9 14  1  0  0  0  0
  9 10  2  0  0  0  0
 10 15  1  0  0  0  0
 11 10  1  0  0  0  0
 12 11  2  0  0  0  0
 13  8  2  0  0  0  0
 13 12  1  0  0  0  0
 16 12  1  0  0  0  0
 17 18  1  0  0  0  0
 18 29  1  0  0  0  0
 19 21  1  0  0  0  0
 19 18  2  0  0  0  0
 20 19  1  0  0  0  0
 21 22  2  0  0  0  0
 22 23  1  0  0  0  0
 22 28  1  0  0  0  0
 23 24  2  0  0  0  0
 24 25  1  0  0  0  0
 24 26  1  0  0  0  0
 27 26  2  0  0  0  0
 28 27  1  0  0  0  0
 29 28  2  0  0  0  0
M  END
>  <minimizedAffinity>
-5.08226633

$$$$

 OpenBabel03272507173D

 29 32  0  0  1  0  0  0  0  0999 V2000
   37.6450   27.4410   34.8370 C   0  0  1  0  0  0  0  0  0  0  0  0
   37.6740   26.3540   35.7910 C   0  0  2  0  0  0  0  0  0  0  0  0
   38.9170   27.2120   35.6610 C   0  0  0  0  0  0  0  0  0  0  0  0
   37.1440   28.4350   35.0130 H   0  0  0  0  0  0  0  0  0  0  0  0
   37.0600   26.4660   36.7080 H   0  0  0  0  0  0  0  0  0  0  0  0
   39.0720   27.9480   36.4750 H   0  0  0  0  0  0  0  0  0  0  0  0
   39.7970   26.7870   35.1770 H   0  0  0  0  0  0  0  0  0  0  0  0
   37.8690   27.1910   33.3630 C   0  0  0  0  0  0  0  0  0  0  0  0
   36.7200   26.9530   32.6070 C   0  0  0  0  0  0  0  0  0  0  0  0
   36.9450   26.6980   31.2500 C   0  0  0  0  0  0  0  0  0  0  0  0
   38.2060   26.6920   30.7470 N   0  0  0  0  0  0  0  0  0  0  0  0
   39.3010   26.9310   31.5260 C   0  0  0  0  0  0  0  0  0  0  0  0
   39.1300   27.1840   32.8530 N   0  0  0  0  0  0  0  0  0  0  0  0
   35.7460   26.9730   33.0760 H   0  0  0  0  0  0  0  0  0  0  0  0
   36.1000   26.5090   30.6260 H   0  0  0  0  0  0  0  0  0  0  0  0
   40.3050   26.9260   31.1250 H   0  0  0  0  0  0  0  0  0  0  0  0
   37.8210   25.0400   35.3270 O   0  0  0  0  0  0  0  0  0  0  0  0
   38.7790   24.1640   35.7670 C   0  0  0  0  0  0  0  0  0  0  0  0
   38.5720   23.8330   37.1010 C   0  0  0  0  0  0  0  0  0  0  0  0
   37.7680   24.1980   37.7510 H   0  0  0  0  0  0  0  0  0  0  0  0
   39.4080   22.9580   37.7900 C   0  0  0  0  0  3  0  0  0  0  0  0
   40.4750   22.4080   37.1080 C   0  0  0  0  0  0  0  0  0  0  0  0
   41.3170   21.5500   37.7330 N   0  0  0  0  0  0  0  0  0  0  0  0
   42.3680   21.0120   37.0510 C   0  0  0  0  0  0  0  0  0  0  0  0
   43.0400   20.3280   37.5490 H   0  0  0  0  0  0  0  0  0  0  0  0
   42.5870   21.3360   35.7090 C   0  0  0  0  0  3  0  0  0  0  0  0
   41.7470   22.2040   35.0540 C   0  0  0  0  0  3  0  0  0  0  0  0
   40.6980   22.7290   35.7660 C   0  0  0  0  0  0  0  0  0  0  0  0
   39.8500   23.5980   35.1200 C   0  0  0  0  0  3  0  0  0  0  0  0
  1  4  1  1  0  0  0
  1  3  1  0  0  0  0
  1  2  1  0  0  0  0
  2  5  1  1  0  0  0
  3  2  1  0  0  0  0
  3  6  1  0  0  0  0
  7  3  1  0  0  0  0
  8  1  1  0  0  0  0
  9 14  1  0  0  0  0
  9  8  2  0  0  0  0
 10  9  1  0  0  0  0
 11 10  2  0  0  0  0
 11 12  1  0  0  0  0
 12 13  2  0  0  0  0
 13  8  1  0  0  0  0
 15 10  1  0  0  0  0
 16 12  1  0  0  0  0
 17 18  1  0  0  0  0
 17  2  1  0  0  0  0
 18 19  1  0  0  0  0
 19 20  1  0  0  0  0
 19 21  2  0  0  0  0
 22 23  1  0  0  0  0
 22 21  1  0  0  0  0
 24 25  1  0  0  0  0
 24 23  2  0  0  0  0
 26 24  1  0  0  0  0
 27 26  2  0  0  0  0
 27 28  1  0  0  0  0
 28 22  2  0  0  0  0
 29 28  1  0  0  0  0
 29 18  2  0  0  0  0
M  END
>  <minimizedAffinity>
-5.03314066

$$$$

 OpenBabel03272507173D

 29 32  0  0  1  0  0  0  0  0999 V2000
   37.9470   27.0830   31.5790 C   0  0  1  0  0  0  0  0  0  0  0  0
   37.0030   26.1100   31.0760 C   0  0  2  0  0  0  0  0  0  0  0  0
   36.5140   27.5320   31.2660 C   0  0  0  0  0  0  0  0  0  0  0  0
   38.7420   27.5850   30.9590 H   0  0  0  0  0  0  0  0  0  0  0  0
   37.1510   25.7470   30.0380 H   0  0  0  0  0  0  0  0  0  0  0  0
   36.4160   28.1280   30.3370 H   0  0  0  0  0  0  0  0  0  0  0  0
   35.8300   27.7430   32.0890 H   0  0  0  0  0  0  0  0  0  0  0  0
   38.2610   27.1730   33.0560 C   0  0  0  0  0  0  0  0  0  0  0  0
   39.5550   26.8000   33.4220 C   0  0  0  0  0  0  0  0  0  0  0  0
   39.8240   26.8640   34.7940 C   0  0  0  0  0  0  0  0  0  0  0  0
   38.8660   27.2660   35.6690 N   0  0  0  0  0  0  0  0  0  0  0  0
   37.6130   27.6210   35.2620 C   0  0  0  0  0  0  0  0  0  0  0  0
   37.3060   27.5750   33.9360 N   0  0  0  0  0  0  0  0  0  0  0  0
   40.2660   26.4890   32.6710 H   0  0  0  0  0  0  0  0  0  0  0  0
   40.7990   26.5890   35.1300 H   0  0  0  0  0  0  0  0  0  0  0  0
   36.8500   27.9410   35.9590 H   0  0  0  0  0  0  0  0  0  0  0  0
   36.4450   25.1770   31.9600 O   0  0  0  0  0  0  0  0  0  0  0  0
   36.4510   23.8200   31.7610 C   0  0  0  0  0  0  0  0  0  0  0  0
   37.6110   23.4210   31.1060 C   0  0  0  0  0  0  0  0  0  0  0  0
   38.4320   24.0670   30.7750 H   0  0  0  0  0  0  0  0  0  0  0  0
   37.8640   22.0900   30.7850 C   0  0  0  0  0  3  0  0  0  0  0  0
   36.9200   21.1470   31.1360 C   0  0  0  0  0  0  0  0  0  0  0  0
   37.1190   19.8380   30.8470 N   0  0  0  0  0  0  0  0  0  0  0  0
   36.1810   18.9140   31.1980 C   0  0  0  0  0  0  0  0  0  0  0  0
   36.3400   17.8700   30.9670 H   0  0  0  0  0  0  0  0  0  0  0  0
   35.0110   19.3010   31.8580 C   0  0  0  0  0  3  0  0  0  0  0  0
   34.7870   20.6220   32.1630 C   0  0  0  0  0  3  0  0  0  0  0  0
   35.7480   21.5290   31.7960 C   0  0  0  0  0  0  0  0  0  0  0  0
   35.5340   22.8550   32.0960 C   0  0  0  0  0  3  0  0  0  0  0  0
  1  4  1  6  0  0  0
  1  8  1  0  0  0  0
  2  5  1  6  0  0  0
  2  3  1  0  0  0  0
  2  1  1  0  0  0  0
  2 17  1  0  0  0  0
  3  1  1  0  0  0  0
  3  7  1  0  0  0  0
  6  3  1  0  0  0  0
  8  9  2  0  0  0  0
  8 13  1  0  0  0  0
  9 10  1  0  0  0  0
 10 15  1  0  0  0  0
 10 11  2  0  0  0  0
 12 11  1  0  0  0  0
 12 16  1  0  0  0  0
 13 12  2  0  0  0  0
 14  9  1  0  0  0  0
 18 17  1  0  0  0  0
 18 29  1  0  0  0  0
 19 18  2  0  0  0  0
 20 19  1  0  0  0  0
 21 19  1  0  0  0  0
 21 22  2  0  0  0  0
 22 28  1  0  0  0  0
 23 22  1  0  0  0  0
 23 24  2  0  0  0  0
 24 26  1  0  0  0  0
 25 24  1  0  0  0  0
 26 27  2  0  0  0  0
 28 29  2  0  0  0  0
 28 27  1  0  0  0  0
M  END
>  <minimizedAffinity>
-5.02957106

$$$$

 OpenBabel03272507173D

 29 32  0  0  1  0  0  0  0  0999 V2000
   38.9840   23.0340   35.5630 C   0  0  1  0  0  0  0  0  0  0  0  0
   38.8570   24.4600   35.7740 C   0  0  2  0  0  0  0  0  0  0  0  0
   38.8910   23.5680   36.9980 C   0  0  0  0  0  0  0  0  0  0  0  0
   39.9480   22.5060   35.3200 H   0  0  0  0  0  0  0  0  0  0  0  0
   39.7480   25.0860   35.5630 H   0  0  0  0  0  0  0  0  0  0  0  0
   39.8510   23.5570   37.5510 H   0  0  0  0  0  0  0  0  0  0  0  0
   37.9700   23.4200   37.5640 H   0  0  0  0  0  0  0  0  0  0  0  0
   37.7840   22.1920   35.1910 C   0  0  0  0  0  0  0  0  0  0  0  0
   37.5830   21.9960   33.8240 C   0  0  0  0  0  0  0  0  0  0  0  0
   36.4550   21.2360   33.4930 C   0  0  0  0  0  0  0  0  0  0  0  0
   35.6440   20.7440   34.4640 N   0  0  0  0  0  0  0  0  0  0  0  0
   35.8820   20.9620   35.7910 C   0  0  0  0  0  0  0  0  0  0  0  0
   36.9680   21.6960   36.1590 N   0  0  0  0  0  0  0  0  0  0  0  0
   38.2710   22.4190   33.1060 H   0  0  0  0  0  0  0  0  0  0  0  0
   36.2540   21.0560   32.4610 H   0  0  0  0  0  0  0  0  0  0  0  0
   35.2360   20.5700   36.5640 H   0  0  0  0  0  0  0  0  0  0  0  0
   37.6230   25.0790   35.5370 O   0  0  0  0  0  0  0  0  0  0  0  0
   37.4170   26.0680   34.6090 C   0  0  0  0  0  0  0  0  0  0  0  0
   38.0820   25.7800   33.4230 C   0  0  0  0  0  0  0  0  0  0  0  0
   38.6980   24.8980   33.2130 H   0  0  0  0  0  0  0  0  0  0  0  0
   38.0340   26.6260   32.3180 C   0  0  0  0  0  3  0  0  0  0  0  0
   37.2950   27.7880   32.4220 C   0  0  0  0  0  0  0  0  0  0  0  0
   37.2170   28.6440   31.3740 N   0  0  0  0  0  0  0  0  0  0  0  0
   36.4850   29.7890   31.4860 C   0  0  0  0  0  0  0  0  0  0  0  0
   36.4220   30.4720   30.6510 H   0  0  0  0  0  0  0  0  0  0  0  0
   35.8100   30.0900   32.6730 C   0  0  0  0  0  3  0  0  0  0  0  0
   35.8750   29.2370   33.7490 C   0  0  0  0  0  3  0  0  0  0  0  0
   36.6190   28.0940   33.6060 C   0  0  0  0  0  0  0  0  0  0  0  0
   36.6910   27.2320   34.6760 C   0  0  0  0  0  3  0  0  0  0  0  0
  1  4  1  6  0  0  0
  1  2  1  0  0  0  0
  1  3  1  0  0  0  0
  2  5  1  6  0  0  0
  2  3  1  0  0  0  0
  3  6  1  0  0  0  0
  3  7  1  0  0  0  0
  8  1  1  0  0  0  0
  8 13  1  0  0  0  0
  9  8  2  0  0  0  0
 10  9  1  0  0  0  0
 10 11  2  0  0  0  0
 11 12  1  0  0  0  0
 12 13  2  0  0  0  0
 12 16  1  0  0  0  0
 14  9  1  0  0  0  0
 15 10  1  0  0  0  0
 17  2  1  0  0  0  0
 18 29  1  0  0  0  0
 18 17  1  0  0  0  0
 19 18  2  0  0  0  0
 20 19  1  0  0  0  0
 21 22  2  0  0  0  0
 21 19  1  0  0  0  0
 22 28  1  0  0  0  0
 23 24  2  0  0  0  0
 23 22  1  0  0  0  0
 24 26  1  0  0  0  0
 25 24  1  0  0  0  0
 26 27  2  0  0  0  0
 28 27  1  0  0  0  0
 28 29  2  0  0  0  0
M  END
>  <minimizedAffinity>
-4.95134401

$$$$

 OpenBabel03272507173D

 29 32  0  0  1  0  0  0  0  0999 V2000
   37.7310   26.9070   32.8660 C   0  0  1  0  0  0  0  0  0  0  0  0
   37.2370   28.1510   33.4150 C   0  0  2  0  0  0  0  0  0  0  0  0
   37.4910   27.0080   34.3780 C   0  0  0  0  0  0  0  0  0  0  0  0
   38.8010   26.7170   32.5720 H   0  0  0  0  0  0  0  0  0  0  0  0
   37.9360   29.0120   33.4350 H   0  0  0  0  0  0  0  0  0  0  0  0
   38.4170   27.0940   34.9810 H   0  0  0  0  0  0  0  0  0  0  0  0
   36.6360   26.4950   34.8180 H   0  0  0  0  0  0  0  0  0  0  0  0
   36.7940   25.9200   32.2070 C   0  0  0  0  0  0  0  0  0  0  0  0
   37.0930   24.5720   32.4130 C   0  0  0  0  0  0  0  0  0  0  0  0
   36.2320   23.6710   31.7770 C   0  0  0  0  0  0  0  0  0  0  0  0
   35.1940   24.1180   31.0240 N   0  0  0  0  0  0  0  0  0  0  0  0
   34.9410   25.4490   30.8520 C   0  0  0  0  0  0  0  0  0  0  0  0
   35.7520   26.3620   31.4530 N   0  0  0  0  0  0  0  0  0  0  0  0
   37.9370   24.2890   33.0240 H   0  0  0  0  0  0  0  0  0  0  0  0
   36.4150   22.6260   31.9000 H   0  0  0  0  0  0  0  0  0  0  0  0
   34.1140   25.8050   30.2530 H   0  0  0  0  0  0  0  0  0  0  0  0
   35.8860   28.4840   33.2480 O   0  0  0  0  0  0  0  0  0  0  0  0
   35.2080   29.3860   34.0270 C   0  0  0  0  0  0  0  0  0  0  0  0
   33.8350   29.2730   33.8330 C   0  0  0  0  0  0  0  0  0  0  0  0
   33.3230   28.5750   33.1610 H   0  0  0  0  0  0  0  0  0  0  0  0
   32.9190   30.0760   34.5070 C   0  0  0  0  0  3  0  0  0  0  0  0
   33.4080   31.0130   35.3960 C   0  0  0  0  0  0  0  0  0  0  0  0
   32.5580   31.8190   36.0770 N   0  0  0  0  0  0  0  0  0  0  0  0
   33.0500   32.7410   36.9520 C   0  0  0  0  0  0  0  0  0  0  0  0
   32.3720   33.3840   37.4950 H   0  0  0  0  0  0  0  0  0  0  0  0
   34.4270   32.8650   37.1570 C   0  0  0  0  0  3  0  0  0  0  0  0
   35.3090   32.0580   36.4780 C   0  0  0  0  0  3  0  0  0  0  0  0
   34.7850   31.1410   35.6040 C   0  0  0  0  0  0  0  0  0  0  0  0
   35.6580   30.3280   34.9190 C   0  0  0  0  0  3  0  0  0  0  0  0
  1  4  1  6  0  0  0
  1  2  1  0  0  0  0
  1  3  1  0  0  0  0
  2  5  1  1  0  0  0
  2  3  1  0  0  0  0
  3  7  1  0  0  0  0
  3  6  1  0  0  0  0
  8  9  1  0  0  0  0
  8  1  1  0  0  0  0
  9 14  1  0  0  0  0
 10 15  1  0  0  0  0
 10  9  2  0  0  0  0
 11 10  1  0  0  0  0
 12 11  2  0  0  0  0
 12 13  1  0  0  0  0
 13  8  2  0  0  0  0
 16 12  1  0  0  0  0
 17  2  1  0  0  0  0
 17 18  1  0  0  0  0
 18 29  1  0  0  0  0
 19 18  2  0  0  0  0
 19 21  1  0  0  0  0
 20 19  1  0  0  0  0
 21 22  2  0  0  0  0
 22 28  1  0  0  0  0
 22 23  1  0  0  0  0
 23 24  2  0  0  0  0
 24 26  1  0  0  0  0
 24 25  1  0  0  0  0
 27 26  2  0  0  0  0
 28 27  1  0  0  0  0
 29 28  2  0  0  0  0
M  END
>  <minimizedAffinity>
-4.9369297

$$$$

 OpenBabel03272507173D

 29 32  0  0  1  0  0  0  0  0999 V2000
   38.5870   23.1910   37.3970 C   0  0  1  0  0  0  0  0  0  0  0  0
   38.1630   24.5370   37.0780 C   0  0  2  0  0  0  0  0  0  0  0  0
   37.4170   23.3890   36.4250 C   0  0  0  0  0  0  0  0  0  0  0  0
   38.3230   22.6440   38.3460 H   0  0  0  0  0  0  0  0  0  0  0  0
   37.6420   25.1080   37.8740 H   0  0  0  0  0  0  0  0  0  0  0  0
   36.4230   23.1630   36.8580 H   0  0  0  0  0  0  0  0  0  0  0  0
   37.5700   23.2040   35.3620 H   0  0  0  0  0  0  0  0  0  0  0  0
   39.7900   22.5720   36.7210 C   0  0  0  0  0  0  0  0  0  0  0  0
   40.8020   22.1280   37.5730 C   0  0  0  0  0  0  0  0  0  0  0  0
   41.9190   21.5800   36.9320 C   0  0  0  0  0  0  0  0  0  0  0  0
   41.9720   21.5060   35.5770 N   0  0  0  0  0  0  0  0  0  0  0  0
   40.9550   21.9550   34.7840 C   0  0  0  0  0  0  0  0  0  0  0  0
   39.8490   22.4950   35.3640 N   0  0  0  0  0  0  0  0  0  0  0  0
   40.6910   22.2190   38.6440 H   0  0  0  0  0  0  0  0  0  0  0  0
   42.7230   21.2250   37.5370 H   0  0  0  0  0  0  0  0  0  0  0  0
   40.9980   21.8950   33.7050 H   0  0  0  0  0  0  0  0  0  0  0  0
   38.9340   25.3070   36.1980 O   0  0  0  0  0  0  0  0  0  0  0  0
   38.4200   26.0900   35.1970 C   0  0  0  0  0  0  0  0  0  0  0  0
   39.0690   25.8410   33.9920 C   0  0  0  0  0  0  0  0  0  0  0  0
   39.8840   25.1280   33.8200 H   0  0  0  0  0  0  0  0  0  0  0  0
   38.7350   26.5060   32.8150 C   0  0  0  0  0  3  0  0  0  0  0  0
   37.7210   27.4430   32.8640 C   0  0  0  0  0  0  0  0  0  0  0  0
   37.3580   28.1160   31.7460 N   0  0  0  0  0  0  0  0  0  0  0  0
   36.3560   29.0390   31.8050 C   0  0  0  0  0  0  0  0  0  0  0  0
   36.0660   29.5770   30.9130 H   0  0  0  0  0  0  0  0  0  0  0  0
   35.6950   29.2980   33.0090 C   0  0  0  0  0  3  0  0  0  0  0  0
   36.0460   28.6270   34.1560 C   0  0  0  0  0  3  0  0  0  0  0  0
   37.0570   27.7050   34.0660 C   0  0  0  0  0  0  0  0  0  0  0  0
   37.4170   27.0270   35.2080 C   0  0  0  0  0  3  0  0  0  0  0  0
  1  4  1  1  0  0  0
  2  1  1  0  0  0  0
  2  5  1  1  0  0  0
  3  6  1  0  0  0  0
  3  2  1  0  0  0  0
  3  1  1  0  0  0  0
  7  3  1  0  0  0  0
  8  1  1  0  0  0  0
  8  9  1  0  0  0  0
  9 14  1  0  0  0  0
 10 15  1  0  0  0  0
 10  9  2  0  0  0  0
 11 10  1  0  0  0  0
 12 13  1  0  0  0  0
 12 11  2  0  0  0  0
 13  8  2  0  0  0  0
 16 12  1  0  0  0  0
 17  2  1  0  0  0  0
 18 29  1  0  0  0  0
 18 17  1  0  0  0  0
 19 18  2  0  0  0  0
 20 19  1  0  0  0  0
 21 22  2  0  0  0  0
 21 19  1  0  0  0  0
 22 28  1  0  0  0  0
 23 24  2  0  0  0  0
 23 22  1  0  0  0  0
 24 26  1  0  0  0  0
 25 24  1  0  0  0  0
 26 27  2  0  0  0  0
 28 27  1  0  0  0  0
 28 29  2  0  0  0  0
M  END
>  <minimizedAffinity>
-4.93616819

$$$$

 OpenBabel03272507173D

 29 32  0  0  1  0  0  0  0  0999 V2000
   34.5280   32.0340   37.1220 C   0  0  1  0  0  0  0  0  0  0  0  0
   35.4400   31.9190   36.0050 C   0  0  2  0  0  0  0  0  0  0  0  0
   35.1260   33.3100   36.5160 C   0  0  0  0  0  0  0  0  0  0  0  0
   34.8060   31.8500   38.1980 H   0  0  0  0  0  0  0  0  0  0  0  0
   36.4470   31.5040   36.2120 H   0  0  0  0  0  0  0  0  0  0  0  0
   35.9180   33.7790   37.1330 H   0  0  0  0  0  0  0  0  0  0  0  0
   34.4940   33.9600   35.9100 H   0  0  0  0  0  0  0  0  0  0  0  0
   33.0310   31.9550   36.9180 C   0  0  0  0  0  0  0  0  0  0  0  0
   32.5140   30.6730   36.7260 C   0  0  0  0  0  0  0  0  0  0  0  0
   31.1320   30.6170   36.5140 C   0  0  0  0  0  0  0  0  0  0  0  0
   30.3870   31.7530   36.5030 N   0  0  0  0  0  0  0  0  0  0  0  0
   30.9390   32.9860   36.6960 C   0  0  0  0  0  0  0  0  0  0  0  0
   32.2800   33.0890   36.9060 N   0  0  0  0  0  0  0  0  0  0  0  0
   33.1680   29.8130   36.7470 H   0  0  0  0  0  0  0  0  0  0  0  0
   30.6830   29.6610   36.3610 H   0  0  0  0  0  0  0  0  0  0  0  0
   30.3460   33.8900   36.6870 H   0  0  0  0  0  0  0  0  0  0  0  0
   34.9290   31.6360   34.7310 O   0  0  0  0  0  0  0  0  0  0  0  0
   35.4440   30.6910   33.8810 C   0  0  0  0  0  0  0  0  0  0  0  0
   35.7480   29.5210   34.5670 C   0  0  0  0  0  0  0  0  0  0  0  0
   35.6120   29.3340   35.6390 H   0  0  0  0  0  0  0  0  0  0  0  0
   36.2850   28.4040   33.9330 C   0  0  0  0  0  3  0  0  0  0  0  0
   36.5180   28.4780   32.5740 C   0  0  0  0  0  0  0  0  0  0  0  0
   37.0390   27.4180   31.9100 N   0  0  0  0  0  0  0  0  0  0  0  0
   37.2650   27.5010   30.5680 C   0  0  0  0  0  0  0  0  0  0  0  0
   37.6810   26.6560   30.0390 H   0  0  0  0  0  0  0  0  0  0  0  0
   36.9640   28.6720   29.8660 C   0  0  0  0  0  3  0  0  0  0  0  0
   36.4340   29.7600   30.5180 C   0  0  0  0  0  3  0  0  0  0  0  0
   36.2180   29.6460   31.8680 C   0  0  0  0  0  0  0  0  0  0  0  0
   35.6880   30.7290   32.5300 C   0  0  0  0  0  3  0  0  0  0  0  0
  1  4  1  1  0  0  0
  2  5  1  1  0  0  0
  2  3  1  0  0  0  0
  2  1  1  0  0  0  0
  3  1  1  0  0  0  0
  3  6  1  0  0  0  0
  7  3  1  0  0  0  0
  8  1  1  0  0  0  0
  9 14  1  0  0  0  0
  9  8  2  0  0  0  0
 10  9  1  0  0  0  0
 11 10  2  0  0  0  0
 11 12  1  0  0  0  0
 12 13  2  0  0  0  0
 13  8  1  0  0  0  0
 15 10  1  0  0  0  0
 16 12  1  0  0  0  0
 17  2  1  0  0  0  0
 18 19  1  0  0  0  0
 18 17  1  0  0  0  0
 19 20  1  0  0  0  0
 21 19  2  0  0  0  0
 22 21  1  0  0  0  0
 23 22  1  0  0  0  0
 24 23  2  0  0  0  0
 25 24  1  0  0  0  0
 26 27  2  0  0  0  0
 26 24  1  0  0  0  0
 27 28  1  0  0  0  0
 28 29  1  0  0  0  0
 28 22  2  0  0  0  0
 29 18  2  0  0  0  0
M  END
>  <minimizedAffinity>
-4.91236258

$$$$
