
 OpenBabel03272501373D

 39 43  0  0  1  0  0  0  0  0999 V2000
   37.0910   27.9450   34.8820 C   0  0  0  0  0  0  0  0  0  0  0  0
   36.7920   27.6990   33.5610 C   0  0  0  0  0  0  0  0  0  0  0  0
   37.1380   26.4930   32.9160 C   0  0  0  0  0  0  0  0  0  0  0  0
   37.7650   25.6110   33.6480 N   0  0  0  0  0  0  0  0  0  0  0  0
   38.0590   25.8660   34.9660 C   0  0  0  0  0  0  0  0  0  0  0  0
   37.7420   26.9910   35.5850 N   0  0  0  0  0  0  0  0  0  0  0  0
   36.8030   28.8850   35.3260 H   0  0  0  0  0  0  0  0  0  0  0  0
   36.2710   28.4640   33.0030 H   0  0  0  0  0  0  0  0  0  0  0  0
   38.7670   24.8110   35.7010 C   0  0  0  0  0  0  0  0  0  0  0  0
   38.2670   24.2630   36.8630 C   0  0  0  0  0  0  0  0  0  0  0  0
   37.3110   24.6360   37.2410 H   0  0  0  0  0  0  0  0  0  0  0  0
   38.9350   23.2700   37.5510 C   0  0  0  0  0  3  0  0  0  0  0  0
   40.1420   22.7840   37.0950 C   0  0  0  0  0  0  0  0  0  0  0  0
   40.8360   21.8200   37.7210 N   0  0  0  0  0  0  0  0  0  0  0  0
   42.0140   21.3320   37.2930 C   0  0  0  0  0  0  0  0  0  0  0  0
   42.5440   20.5530   37.8240 H   0  0  0  0  0  0  0  0  0  0  0  0
   42.5110   21.8800   36.1280 C   0  0  0  0  0  3  0  0  0  0  0  0
   41.8900   22.8760   35.3940 C   0  0  0  0  0  3  0  0  0  0  0  0
   40.6710   23.3200   35.9180 C   0  0  0  0  0  0  0  0  0  0  0  0
   39.9740   24.3250   35.2390 C   0  0  0  0  0  3  0  0  0  0  0  0
   36.8120   26.3400   31.5290 C   0  0  1  0  0  3  0  0  0  0  0  0
   36.6880   27.3230   30.7030 O   0  0  0  0  0  1  0  0  0  0  0  0
   36.6100   24.9330   31.0130 C   0  0  2  0  0  0  0  0  0  0  0  0
   35.0380   24.6930   30.9040 C   0  0  0  0  0  0  0  0  0  0  0  0
   35.9740   23.9470   31.8200 C   0  0  1  0  0  0  0  0  0  0  0  0
   37.0600   24.7770   30.0090 H   0  0  0  0  0  0  0  0  0  0  0  0
   34.7340   24.2370   29.9530 H   0  0  0  0  0  0  0  0  0  0  0  0
   34.3800   25.4490   31.3080 H   0  0  0  0  0  0  0  0  0  0  0  0
   35.8060   24.2140   32.9100 H   0  0  0  0  0  0  0  0  0  0  0  0
   36.0320   22.4970   31.6130 C   0  0  0  0  0  0  0  0  0  0  0  0
   35.0580   21.7180   32.2220 C   0  0  0  0  0  0  0  0  0  0  0  0
   35.1300   20.3640   32.0270 C   0  0  0  0  0  0  0  0  0  0  0  0
   36.1220   19.7730   31.2570 C   0  0  0  0  0  0  0  0  0  0  0  0
   37.0660   20.5810   30.6730 C   0  0  0  0  0  0  0  0  0  0  0  0
   37.0090   21.9080   30.8560 N   0  0  0  0  0  0  0  0  0  0  0  0
   34.2750   22.1480   32.8250 H   0  0  0  0  0  0  0  0  0  0  0  0
   34.3760   19.7450   32.4960 H   0  0  0  0  0  0  0  0  0  0  0  0
   36.1720   18.7110   31.1080 H   0  0  0  0  0  0  0  0  0  0  0  0
   37.8370   20.1340   30.0760 H   0  0  0  0  0  0  0  0  0  0  0  0
  1  7  1  0  0  0  0
  1  6  1  0  0  0  0
  2  1  2  0  0  0  0
  3  2  1  0  0  0  0
  3  4  2  0  0  0  0
  4  5  1  0  0  0  0
  5  6  2  0  0  0  0
  5  9  1  0  0  0  0
  8  2  1  0  0  0  0
  9 10  1  0  0  0  0
 10 11  1  0  0  0  0
 10 12  2  0  0  0  0
 13 12  1  0  0  0  0
 13 14  1  0  0  0  0
 15 14  2  0  0  0  0
 15 16  1  0  0  0  0
 17 15  1  0  0  0  0
 18 19  1  0  0  0  0
 18 17  2  0  0  0  0
 19 13  2  0  0  0  0
 20  9  2  0  0  0  0
 20 19  1  0  0  0  0
 21 22  1  6  0  0  0
 21  3  1  0  0  0  0
 23 26  1  6  0  0  0
 23 21  1  0  0  0  0
 23 25  1  0  0  0  0
 24 23  1  0  0  0  0
 24 28  1  0  0  0  0
 24 25  1  0  0  0  0
 25 29  1  1  0  0  0
 27 24  1  0  0  0  0
 30 25  1  0  0  0  0
 30 31  1  0  0  0  0
 31 36  1  0  0  0  0
 32 31  2  0  0  0  0
 32 37  1  0  0  0  0
 33 32  1  0  0  0  0
 34 35  1  0  0  0  0
 34 33  2  0  0  0  0
 35 30  2  0  0  0  0
 38 33  1  0  0  0  0
 39 34  1  0  0  0  0
M  END
>  <minimizedAffinity>
-6.84215117

$$$$

 OpenBabel03272501373D

 39 43  0  0  1  0  0  0  0  0999 V2000
   36.6460   28.7190   30.4180 C   0  0  0  0  0  0  0  0  0  0  0  0
   37.3730   27.6680   30.9280 C   0  0  0  0  0  0  0  0  0  0  0  0
   37.3140   27.2930   32.2870 C   0  0  0  0  0  0  0  0  0  0  0  0
   36.5210   28.0040   33.0440 N   0  0  0  0  0  0  0  0  0  0  0  0
   35.7990   29.0510   32.5250 C   0  0  0  0  0  0  0  0  0  0  0  0
   35.8440   29.4150   31.2540 N   0  0  0  0  0  0  0  0  0  0  0  0
   36.7280   28.9630   29.3700 H   0  0  0  0  0  0  0  0  0  0  0  0
   38.0130   27.1130   30.2560 H   0  0  0  0  0  0  0  0  0  0  0  0
   34.9380   29.7870   33.4580 C   0  0  0  0  0  0  0  0  0  0  0  0
   33.5630   29.7790   33.3530 C   0  0  0  0  0  0  0  0  0  0  0  0
   33.1110   29.2020   32.5420 H   0  0  0  0  0  0  0  0  0  0  0  0
   32.7580   30.4710   34.2330 C   0  0  0  0  0  3  0  0  0  0  0  0
   33.3050   31.2060   35.2640 C   0  0  0  0  0  0  0  0  0  0  0  0
   32.5720   31.8990   36.1500 N   0  0  0  0  0  0  0  0  0  0  0  0
   33.0860   32.6220   37.1610 C   0  0  0  0  0  0  0  0  0  0  0  0
   32.4630   33.1680   37.8570 H   0  0  0  0  0  0  0  0  0  0  0  0
   34.4620   32.6270   37.2650 C   0  0  0  0  0  3  0  0  0  0  0  0
   35.3230   31.9540   36.4160 C   0  0  0  0  0  3  0  0  0  0  0  0
   34.6960   31.2310   35.3950 C   0  0  0  0  0  0  0  0  0  0  0  0
   35.4910   30.5200   34.4900 C   0  0  0  0  0  3  0  0  0  0  0  0
   38.1330   26.2050   32.7330 C   0  0  1  0  0  3  0  0  0  0  0  0
   38.8770   25.4940   31.9550 O   0  0  0  0  0  1  0  0  0  0  0  0
   38.1200   25.8850   34.2110 C   0  0  2  0  0  0  0  0  0  0  0  0
   39.4130   26.5630   34.8500 C   0  0  0  0  0  0  0  0  0  0  0  0
   39.1420   25.0810   34.7900 C   0  0  1  0  0  0  0  0  0  0  0  0
   37.2210   26.2870   34.7270 H   0  0  0  0  0  0  0  0  0  0  0  0
   39.2020   27.1140   35.7760 H   0  0  0  0  0  0  0  0  0  0  0  0
   40.1380   27.0040   34.1810 H   0  0  0  0  0  0  0  0  0  0  0  0
   39.8390   24.5490   34.0700 H   0  0  0  0  0  0  0  0  0  0  0  0
   39.0720   24.4020   36.0880 C   0  0  0  0  0  0  0  0  0  0  0  0
   38.0850   24.8060   36.9770 C   0  0  0  0  0  0  0  0  0  0  0  0
   38.0370   24.1670   38.1870 C   0  0  0  0  0  0  0  0  0  0  0  0
   38.9240   23.1580   38.5340 C   0  0  0  0  0  0  0  0  0  0  0  0
   39.8840   22.7900   37.6250 C   0  0  0  0  0  0  0  0  0  0  0  0
   39.9440   23.4060   36.4350 N   0  0  0  0  0  0  0  0  0  0  0  0
   37.3820   25.5860   36.7350 H   0  0  0  0  0  0  0  0  0  0  0  0
   37.2730   24.4720   38.8890 H   0  0  0  0  0  0  0  0  0  0  0  0
   38.8800   22.6610   39.4850 H   0  0  0  0  0  0  0  0  0  0  0  0
   40.5750   22.0090   37.8830 H   0  0  0  0  0  0  0  0  0  0  0  0
  1  2  2  0  0  0  0
  1  6  1  0  0  0  0
  2  3  1  0  0  0  0
  3 21  1  0  0  0  0
  3  4  2  0  0  0  0
  5  4  1  0  0  0  0
  5  9  1  0  0  0  0
  6  5  2  0  0  0  0
  7  1  1  0  0  0  0
  8  2  1  0  0  0  0
  9 20  1  0  0  0  0
 10  9  2  0  0  0  0
 10 12  1  0  0  0  0
 11 10  1  0  0  0  0
 12 13  2  0  0  0  0
 13 19  1  0  0  0  0
 13 14  1  0  0  0  0
 14 15  2  0  0  0  0
 15 17  1  0  0  0  0
 15 16  1  0  0  0  0
 18 17  2  0  0  0  0
 19 18  1  0  0  0  0
 20 19  2  0  0  0  0
 21 22  1  1  0  0  0
 21 23  1  0  0  0  0
 23 26  1  1  0  0  0
 23 25  1  0  0  0  0
 23 24  1  0  0  0  0
 24 27  1  0  0  0  0
 25 29  1  6  0  0  0
 25 24  1  0  0  0  0
 25 30  1  0  0  0  0
 28 24  1  0  0  0  0
 30 35  2  0  0  0  0
 30 31  1  0  0  0  0
 31 32  2  0  0  0  0
 32 33  1  0  0  0  0
 32 37  1  0  0  0  0
 33 38  1  0  0  0  0
 34 39  1  0  0  0  0
 34 33  2  0  0  0  0
 35 34  1  0  0  0  0
 36 31  1  0  0  0  0
M  END
>  <minimizedAffinity>
-6.76254082

$$$$

 OpenBabel03272501373D

 39 43  0  0  1  0  0  0  0  0999 V2000
   36.1710   29.4560   31.1290 C   0  0  0  0  0  0  0  0  0  0  0  0
   36.6070   28.2050   31.4990 C   0  0  0  0  0  0  0  0  0  0  0  0
   36.5590   27.7480   32.8340 C   0  0  0  0  0  0  0  0  0  0  0  0
   36.0700   28.5870   33.7090 N   0  0  0  0  0  0  0  0  0  0  0  0
   35.6380   29.8340   33.3280 C   0  0  0  0  0  0  0  0  0  0  0  0
   35.6770   30.2770   32.0830 N   0  0  0  0  0  0  0  0  0  0  0  0
   36.2310   29.7550   30.0940 H   0  0  0  0  0  0  0  0  0  0  0  0
   37.0010   27.5520   30.7330 H   0  0  0  0  0  0  0  0  0  0  0  0
   35.1070   30.7010   34.3880 C   0  0  0  0  0  0  0  0  0  0  0  0
   35.8580   31.0610   35.4870 C   0  0  0  0  0  0  0  0  0  0  0  0
   36.8810   30.6810   35.5620 H   0  0  0  0  0  0  0  0  0  0  0  0
   35.3560   31.8760   36.4810 C   0  0  0  0  0  3  0  0  0  0  0  0
   34.0700   32.3670   36.4100 C   0  0  0  0  0  0  0  0  0  0  0  0
   33.5290   33.1630   37.3450 N   0  0  0  0  0  0  0  0  0  0  0  0
   32.2770   33.6530   37.2950 C   0  0  0  0  0  0  0  0  0  0  0  0
   31.8750   34.2940   38.0690 H   0  0  0  0  0  0  0  0  0  0  0  0
   31.5280   33.2920   36.1930 C   0  0  0  0  0  3  0  0  0  0  0  0
   31.9730   32.4790   35.1650 C   0  0  0  0  0  3  0  0  0  0  0  0
   33.2870   32.0190   35.3060 C   0  0  0  0  0  0  0  0  0  0  0  0
   33.8190   31.1910   34.3120 C   0  0  0  0  0  3  0  0  0  0  0  0
   37.0650   26.4410   33.1290 C   0  0  1  0  0  3  0  0  0  0  0  0
   37.2430   25.5180   32.2450 O   0  0  0  0  0  1  0  0  0  0  0  0
   37.4150   26.1400   34.5680 C   0  0  2  0  0  0  0  0  0  0  0  0
   38.9360   26.5680   34.7820 C   0  0  0  0  0  0  0  0  0  0  0  0
   38.4000   25.1630   34.8880 C   0  0  1  0  0  0  0  0  0  0  0  0
   36.7870   26.7060   35.2890 H   0  0  0  0  0  0  0  0  0  0  0  0
   39.0970   27.1560   35.6950 H   0  0  0  0  0  0  0  0  0  0  0  0
   39.5070   26.8610   33.9120 H   0  0  0  0  0  0  0  0  0  0  0  0
   38.7590   24.5050   34.0360 H   0  0  0  0  0  0  0  0  0  0  0  0
   38.5830   24.5170   36.1920 C   0  0  0  0  0  0  0  0  0  0  0  0
   39.5430   23.5190   36.2900 C   0  0  0  0  0  0  0  0  0  0  0  0
   39.6970   22.9210   37.5120 C   0  0  0  0  0  0  0  0  0  0  0  0
   38.9400   23.2780   38.6190 C   0  0  0  0  0  0  0  0  0  0  0  0
   38.0020   24.2700   38.4770 C   0  0  0  0  0  0  0  0  0  0  0  0
   37.8390   24.8660   37.2870 N   0  0  0  0  0  0  0  0  0  0  0  0
   40.1460   23.2200   35.4490 H   0  0  0  0  0  0  0  0  0  0  0  0
   40.4410   22.1410   37.6030 H   0  0  0  0  0  0  0  0  0  0  0  0
   39.0660   22.8050   39.5740 H   0  0  0  0  0  0  0  0  0  0  0  0
   37.4110   24.5550   39.3270 H   0  0  0  0  0  0  0  0  0  0  0  0
  1  2  2  0  0  0  0
  1  6  1  0  0  0  0
  2  3  1  0  0  0  0
  3 21  1  0  0  0  0
  3  4  2  0  0  0  0
  5  4  1  0  0  0  0
  5  9  1  0  0  0  0
  6  5  2  0  0  0  0
  7  1  1  0  0  0  0
  8  2  1  0  0  0  0
  9 10  1  0  0  0  0
 10 11  1  0  0  0  0
 10 12  2  0  0  0  0
 13 12  1  0  0  0  0
 13 14  1  0  0  0  0
 15 14  2  0  0  0  0
 15 16  1  0  0  0  0
 17 15  1  0  0  0  0
 18 19  1  0  0  0  0
 18 17  2  0  0  0  0
 19 13  2  0  0  0  0
 20  9  2  0  0  0  0
 20 19  1  0  0  0  0
 21 22  1  6  0  0  0
 21 23  1  0  0  0  0
 23 24  1  0  0  0  0
 23 25  1  0  0  0  0
 23 26  1  1  0  0  0
 24 25  1  0  0  0  0
 24 27  1  0  0  0  0
 25 29  1  6  0  0  0
 25 30  1  0  0  0  0
 28 24  1  0  0  0  0
 30 31  2  0  0  0  0
 30 35  1  0  0  0  0
 31 32  1  0  0  0  0
 32 37  1  0  0  0  0
 32 33  2  0  0  0  0
 33 38  1  0  0  0  0
 34 33  1  0  0  0  0
 34 39  1  0  0  0  0
 35 34  2  0  0  0  0
 36 31  1  0  0  0  0
M  END
>  <minimizedAffinity>
-6.49978924

$$$$

 OpenBabel03272501373D

 39 43  0  0  1  0  0  0  0  0999 V2000
   38.7580   26.2760   30.3060 C   0  0  0  0  0  0  0  0  0  0  0  0
   38.2710   26.9400   31.4090 C   0  0  0  0  0  0  0  0  0  0  0  0
   37.5620   26.2840   32.4390 C   0  0  0  0  0  0  0  0  0  0  0  0
   37.3920   24.9970   32.2870 N   0  0  0  0  0  0  0  0  0  0  0  0
   37.8820   24.3440   31.1820 C   0  0  0  0  0  0  0  0  0  0  0  0
   38.5470   24.9440   30.2090 N   0  0  0  0  0  0  0  0  0  0  0  0
   39.2930   26.8260   29.5480 H   0  0  0  0  0  0  0  0  0  0  0  0
   38.4420   28.0050   31.4830 H   0  0  0  0  0  0  0  0  0  0  0  0
   37.6360   22.8990   31.1070 C   0  0  0  0  0  0  0  0  0  0  0  0
   38.3940   22.0650   30.3120 C   0  0  0  0  0  0  0  0  0  0  0  0
   39.2020   22.5070   29.7230 H   0  0  0  0  0  0  0  0  0  0  0  0
   38.1610   20.7070   30.2440 C   0  0  0  0  0  3  0  0  0  0  0  0
   37.1470   20.1270   30.9780 C   0  0  0  0  0  0  0  0  0  0  0  0
   36.8740   18.8130   30.9520 N   0  0  0  0  0  0  0  0  0  0  0  0
   35.8900   18.2270   31.6590 C   0  0  0  0  0  0  0  0  0  0  0  0
   35.7000   17.1630   31.6130 H   0  0  0  0  0  0  0  0  0  0  0  0
   35.1340   19.0640   32.4540 C   0  0  0  0  0  3  0  0  0  0  0  0
   35.3180   20.4310   32.5650 C   0  0  0  0  0  3  0  0  0  0  0  0
   36.3640   20.9490   31.7920 C   0  0  0  0  0  0  0  0  0  0  0  0
   36.6210   22.3220   31.8440 C   0  0  0  0  0  3  0  0  0  0  0  0
   37.0670   27.0650   33.5330 C   0  0  1  0  0  3  0  0  0  0  0  0
   36.5100   28.2210   33.4020 O   0  0  0  0  0  1  0  0  0  0  0  0
   37.2040   26.4810   34.9210 C   0  0  2  0  0  0  0  0  0  0  0  0
   38.3670   27.2840   35.6570 C   0  0  0  0  0  0  0  0  0  0  0  0
   38.3990   25.8170   35.3160 C   0  0  1  0  0  0  0  0  0  0  0  0
   36.2730   26.5820   35.5210 H   0  0  0  0  0  0  0  0  0  0  0  0
   38.1020   27.5980   36.6750 H   0  0  0  0  0  0  0  0  0  0  0  0
   38.9480   27.9850   35.0730 H   0  0  0  0  0  0  0  0  0  0  0  0
   39.1470   25.5860   34.4940 H   0  0  0  0  0  0  0  0  0  0  0  0
   38.5440   24.9090   36.4580 C   0  0  0  0  0  0  0  0  0  0  0  0
   37.8760   25.2360   37.6320 C   0  0  0  0  0  0  0  0  0  0  0  0
   38.0270   24.3830   38.6920 C   0  0  0  0  0  0  0  0  0  0  0  0
   38.8050   23.2360   38.6230 C   0  0  0  0  0  0  0  0  0  0  0  0
   39.4470   22.9510   37.4430 C   0  0  0  0  0  0  0  0  0  0  0  0
   39.3100   23.7770   36.3960 N   0  0  0  0  0  0  0  0  0  0  0  0
   37.2650   26.1190   37.7150 H   0  0  0  0  0  0  0  0  0  0  0  0
   37.5130   24.6250   39.6130 H   0  0  0  0  0  0  0  0  0  0  0  0
   38.9180   22.5710   39.4580 H   0  0  0  0  0  0  0  0  0  0  0  0
   40.0510   22.0660   37.3790 H   0  0  0  0  0  0  0  0  0  0  0  0
  1  2  1  0  0  0  0
  2  8  1  0  0  0  0
  2  3  2  0  0  0  0
  3 21  1  0  0  0  0
  4  3  1  0  0  0  0
  5  4  2  0  0  0  0
  6  1  2  0  0  0  0
  6  5  1  0  0  0  0
  7  1  1  0  0  0  0
  9  5  1  0  0  0  0
  9 20  1  0  0  0  0
 10  9  2  0  0  0  0
 11 10  1  0  0  0  0
 12 10  1  0  0  0  0
 12 13  2  0  0  0  0
 13 19  1  0  0  0  0
 14 13  1  0  0  0  0
 14 15  2  0  0  0  0
 15 17  1  0  0  0  0
 16 15  1  0  0  0  0
 17 18  2  0  0  0  0
 19 20  2  0  0  0  0
 19 18  1  0  0  0  0
 21 22  1  6  0  0  0
 21 23  1  0  0  0  0
 23 25  1  0  0  0  0
 23 26  1  1  0  0  0
 23 24  1  0  0  0  0
 24 27  1  0  0  0  0
 25 29  1  6  0  0  0
 25 24  1  0  0  0  0
 25 30  1  0  0  0  0
 28 24  1  0  0  0  0
 30 31  1  0  0  0  0
 31 36  1  0  0  0  0
 31 32  2  0  0  0  0
 32 37  1  0  0  0  0
 33 32  1  0  0  0  0
 33 38  1  0  0  0  0
 34 33  2  0  0  0  0
 35 30  2  0  0  0  0
 35 34  1  0  0  0  0
 39 34  1  0  0  0  0
M  END
>  <minimizedAffinity>
-6.44722605

$$$$

 OpenBabel03272501373D

 39 43  0  0  1  0  0  0  0  0999 V2000
   35.7940   24.9650   31.0670 C   0  0  0  0  0  0  0  0  0  0  0  0
   35.7110   26.3200   31.2900 C   0  0  0  0  0  0  0  0  0  0  0  0
   36.4600   26.9720   32.2930 C   0  0  0  0  0  0  0  0  0  0  0  0
   37.2460   26.2110   33.0070 N   0  0  0  0  0  0  0  0  0  0  0  0
   37.3220   24.8580   32.7760 C   0  0  0  0  0  0  0  0  0  0  0  0
   36.6270   24.2330   31.8410 N   0  0  0  0  0  0  0  0  0  0  0  0
   35.1990   24.5180   30.2860 H   0  0  0  0  0  0  0  0  0  0  0  0
   35.0450   26.9020   30.6680 H   0  0  0  0  0  0  0  0  0  0  0  0
   38.2340   24.0920   33.6340 C   0  0  0  0  0  0  0  0  0  0  0  0
   39.1990   23.2540   33.1160 C   0  0  0  0  0  0  0  0  0  0  0  0
   39.2760   23.1640   32.0290 H   0  0  0  0  0  0  0  0  0  0  0  0
   40.0550   22.5360   33.9250 C   0  0  0  0  0  3  0  0  0  0  0  0
   39.9770   22.6320   35.2990 C   0  0  0  0  0  0  0  0  0  0  0  0
   40.7820   21.9590   36.1350 N   0  0  0  0  0  0  0  0  0  0  0  0
   40.7220   22.0390   37.4770 C   0  0  0  0  0  0  0  0  0  0  0  0
   41.3900   21.4800   38.1200 H   0  0  0  0  0  0  0  0  0  0  0  0
   39.7570   22.8800   37.9920 C   0  0  0  0  0  3  0  0  0  0  0  0
   38.8700   23.6250   37.2340 C   0  0  0  0  0  3  0  0  0  0  0  0
   39.0090   23.4760   35.8500 C   0  0  0  0  0  0  0  0  0  0  0  0
   38.1530   24.1930   35.0080 C   0  0  0  0  0  3  0  0  0  0  0  0
   36.2830   28.3830   32.4710 C   0  0  1  0  0  3  0  0  0  0  0  0
   36.7720   29.2780   31.6810 O   0  0  0  0  0  1  0  0  0  0  0  0
   35.4660   28.8370   33.6590 C   0  0  2  0  0  0  0  0  0  0  0  0
   34.0520   29.3160   33.1020 C   0  0  0  0  0  0  0  0  0  0  0  0
   35.0640   30.1960   33.7890 C   0  0  1  0  0  0  0  0  0  0  0  0
   35.2950   28.0230   34.3960 H   0  0  0  0  0  0  0  0  0  0  0  0
   33.2020   28.9200   33.6730 H   0  0  0  0  0  0  0  0  0  0  0  0
   33.9240   29.3800   32.0300 H   0  0  0  0  0  0  0  0  0  0  0  0
   35.5400   30.9370   33.0740 H   0  0  0  0  0  0  0  0  0  0  0  0
   34.6010   30.8440   35.0200 C   0  0  0  0  0  0  0  0  0  0  0  0
   33.2770   30.6500   35.3930 C   0  0  0  0  0  0  0  0  0  0  0  0
   32.8570   31.2680   36.5410 C   0  0  0  0  0  0  0  0  0  0  0  0
   33.6970   32.0560   37.3150 C   0  0  0  0  0  0  0  0  0  0  0  0
   34.9980   32.2210   36.9090 C   0  0  0  0  0  0  0  0  0  0  0  0
   35.4240   31.6230   35.7860 N   0  0  0  0  0  0  0  0  0  0  0  0
   32.6020   30.0430   34.8130 H   0  0  0  0  0  0  0  0  0  0  0  0
   31.8280   31.1250   36.8440 H   0  0  0  0  0  0  0  0  0  0  0  0
   33.3610   32.5370   38.2140 H   0  0  0  0  0  0  0  0  0  0  0  0
   35.6560   32.8290   37.5000 H   0  0  0  0  0  0  0  0  0  0  0  0
  1  2  2  0  0  0  0
  1  6  1  0  0  0  0
  2  3  1  0  0  0  0
  3 21  1  0  0  0  0
  3  4  2  0  0  0  0
  5  4  1  0  0  0  0
  5  9  1  0  0  0  0
  6  5  2  0  0  0  0
  7  1  1  0  0  0  0
  8  2  1  0  0  0  0
  9 20  1  0  0  0  0
 10  9  2  0  0  0  0
 10 12  1  0  0  0  0
 11 10  1  0  0  0  0
 12 13  2  0  0  0  0
 13 19  1  0  0  0  0
 13 14  1  0  0  0  0
 14 15  2  0  0  0  0
 15 17  1  0  0  0  0
 15 16  1  0  0  0  0
 18 17  2  0  0  0  0
 19 18  1  0  0  0  0
 20 19  2  0  0  0  0
 21 22  1  6  0  0  0
 21 23  1  0  0  0  0
 23 25  1  0  0  0  0
 23 26  1  1  0  0  0
 24 23  1  0  0  0  0
 24 27  1  0  0  0  0
 24 25  1  0  0  0  0
 25 29  1  6  0  0  0
 25 30  1  0  0  0  0
 28 24  1  0  0  0  0
 30 31  2  0  0  0  0
 30 35  1  0  0  0  0
 31 32  1  0  0  0  0
 32 37  1  0  0  0  0
 32 33  2  0  0  0  0
 33 38  1  0  0  0  0
 34 33  1  0  0  0  0
 34 39  1  0  0  0  0
 35 34  2  0  0  0  0
 36 31  1  0  0  0  0
M  END
>  <minimizedAffinity>
-6.41255045

$$$$

 OpenBabel03272501373D

 39 43  0  0  1  0  0  0  0  0999 V2000
   35.3110   24.8350   31.1570 C   0  0  0  0  0  0  0  0  0  0  0  0
   36.5310   24.2460   31.3940 C   0  0  0  0  0  0  0  0  0  0  0  0
   37.6270   24.9560   31.9290 C   0  0  0  0  0  0  0  0  0  0  0  0
   37.4170   26.2180   32.1940 N   0  0  0  0  0  0  0  0  0  0  0  0
   36.1950   26.7970   31.9540 C   0  0  0  0  0  0  0  0  0  0  0  0
   35.1590   26.1460   31.4520 N   0  0  0  0  0  0  0  0  0  0  0  0
   34.5060   24.2460   30.7460 H   0  0  0  0  0  0  0  0  0  0  0  0
   36.6480   23.1970   31.1570 H   0  0  0  0  0  0  0  0  0  0  0  0
   36.0630   28.2210   32.2840 C   0  0  0  0  0  0  0  0  0  0  0  0
   35.9720   29.1960   31.3120 C   0  0  0  0  0  0  0  0  0  0  0  0
   36.0010   28.8850   30.2650 H   0  0  0  0  0  0  0  0  0  0  0  0
   35.8470   30.5330   31.6270 C   0  0  0  0  0  3  0  0  0  0  0  0
   35.8090   30.9500   32.9400 C   0  0  0  0  0  0  0  0  0  0  0  0
   35.6900   32.2360   33.3060 N   0  0  0  0  0  0  0  0  0  0  0  0
   35.6500   32.6640   34.5810 C   0  0  0  0  0  0  0  0  0  0  0  0
   35.5520   33.7110   34.8370 H   0  0  0  0  0  0  0  0  0  0  0  0
   35.7400   31.6870   35.5510 C   0  0  0  0  0  3  0  0  0  0  0  0
   35.8670   30.3310   35.3010 C   0  0  0  0  0  3  0  0  0  0  0  0
   35.8990   29.9830   33.9460 C   0  0  0  0  0  0  0  0  0  0  0  0
   36.0240   28.6340   33.6010 C   0  0  0  0  0  3  0  0  0  0  0  0
   38.8680   24.2640   32.1110 C   0  0  1  0  0  3  0  0  0  0  0  0
   39.6440   23.9050   31.1450 O   0  0  0  0  0  1  0  0  0  0  0  0
   39.2860   23.9470   33.5290 C   0  0  2  0  0  0  0  0  0  0  0  0
   39.0340   22.3900   33.7580 C   0  0  0  0  0  0  0  0  0  0  0  0
   38.3310   23.5060   34.4880 C   0  0  1  0  0  0  0  0  0  0  0  0
   40.3620   24.1600   33.7160 H   0  0  0  0  0  0  0  0  0  0  0  0
   39.8800   21.8790   34.2370 H   0  0  0  0  0  0  0  0  0  0  0  0
   38.5140   21.8420   32.9860 H   0  0  0  0  0  0  0  0  0  0  0  0
   37.2390   23.5880   34.1910 H   0  0  0  0  0  0  0  0  0  0  0  0
   38.5050   23.5120   35.9440 C   0  0  0  0  0  0  0  0  0  0  0  0
   39.6100   22.8530   36.4650 C   0  0  0  0  0  0  0  0  0  0  0  0
   39.7550   22.8610   37.8270 C   0  0  0  0  0  0  0  0  0  0  0  0
   38.8520   23.4940   38.6700 C   0  0  0  0  0  0  0  0  0  0  0  0
   37.7740   24.1340   38.1120 C   0  0  0  0  0  0  0  0  0  0  0  0
   37.6180   24.1340   36.7800 N   0  0  0  0  0  0  0  0  0  0  0  0
   40.3280   22.3530   35.8360 H   0  0  0  0  0  0  0  0  0  0  0  0
   40.6110   22.3500   38.2470 H   0  0  0  0  0  0  0  0  0  0  0  0
   38.9720   23.4960   39.7370 H   0  0  0  0  0  0  0  0  0  0  0  0
   37.0700   24.6270   38.7550 H   0  0  0  0  0  0  0  0  0  0  0  0
  1  2  2  0  0  0  0
  1  6  1  0  0  0  0
  2  3  1  0  0  0  0
  3 21  1  0  0  0  0
  3  4  2  0  0  0  0
  5  4  1  0  0  0  0
  5  9  1  0  0  0  0
  6  5  2  0  0  0  0
  7  1  1  0  0  0  0
  8  2  1  0  0  0  0
  9 20  1  0  0  0  0
 10 12  1  0  0  0  0
 10  9  2  0  0  0  0
 11 10  1  0  0  0  0
 12 13  2  0  0  0  0
 13 14  1  0  0  0  0
 13 19  1  0  0  0  0
 14 15  2  0  0  0  0
 15 16  1  0  0  0  0
 15 17  1  0  0  0  0
 18 17  2  0  0  0  0
 19 18  1  0  0  0  0
 20 19  2  0  0  0  0
 21 22  1  1  0  0  0
 21 23  1  0  0  0  0
 23 26  1  1  0  0  0
 23 24  1  0  0  0  0
 23 25  1  0  0  0  0
 24 27  1  0  0  0  0
 24 25  1  0  0  0  0
 25 29  1  6  0  0  0
 25 30  1  0  0  0  0
 28 24  1  0  0  0  0
 30 31  2  0  0  0  0
 30 35  1  0  0  0  0
 31 32  1  0  0  0  0
 32 37  1  0  0  0  0
 32 33  2  0  0  0  0
 33 38  1  0  0  0  0
 34 33  1  0  0  0  0
 34 39  1  0  0  0  0
 35 34  2  0  0  0  0
 36 31  1  0  0  0  0
M  END
>  <minimizedAffinity>
-6.30938244

$$$$

 OpenBabel03272501373D

 39 43  0  0  1  0  0  0  0  0999 V2000
   37.8660   26.0230   34.8160 C   0  0  0  0  0  0  0  0  0  0  0  0
   38.1160   25.5910   33.5340 C   0  0  0  0  0  0  0  0  0  0  0  0
   37.6020   26.2490   32.3960 C   0  0  0  0  0  0  0  0  0  0  0  0
   36.8670   27.3040   32.6290 N   0  0  0  0  0  0  0  0  0  0  0  0
   36.6230   27.7270   33.9130 C   0  0  0  0  0  0  0  0  0  0  0  0
   37.0970   27.1220   34.9890 N   0  0  0  0  0  0  0  0  0  0  0  0
   38.2850   25.4820   35.6500 H   0  0  0  0  0  0  0  0  0  0  0  0
   38.7320   24.7120   33.4000 H   0  0  0  0  0  0  0  0  0  0  0  0
   35.7850   28.9220   34.0660 C   0  0  0  0  0  0  0  0  0  0  0  0
   34.7210   29.1860   33.2300 C   0  0  0  0  0  0  0  0  0  0  0  0
   34.5050   28.4740   32.4280 H   0  0  0  0  0  0  0  0  0  0  0  0
   33.9340   30.3100   33.3770 C   0  0  0  0  0  3  0  0  0  0  0  0
   34.1870   31.2220   34.3800 C   0  0  0  0  0  0  0  0  0  0  0  0
   33.4570   32.3320   34.5710 N   0  0  0  0  0  0  0  0  0  0  0  0
   33.6860   33.2350   35.5430 C   0  0  0  0  0  0  0  0  0  0  0  0
   33.0750   34.1190   35.6670 H   0  0  0  0  0  0  0  0  0  0  0  0
   34.7510   32.9680   36.3790 C   0  0  0  0  0  3  0  0  0  0  0  0
   35.5750   31.8610   36.2830 C   0  0  0  0  0  3  0  0  0  0  0  0
   35.2590   30.9790   35.2430 C   0  0  0  0  0  0  0  0  0  0  0  0
   36.0400   29.8320   35.0720 C   0  0  0  0  0  3  0  0  0  0  0  0
   37.8910   25.7060   31.1020 C   0  0  1  0  0  3  0  0  0  0  0  0
   38.6560   26.2770   30.2340 O   0  0  0  0  0  1  0  0  0  0  0  0
   37.2590   24.3790   30.7480 C   0  0  2  0  0  0  0  0  0  0  0  0
   35.6830   24.5500   30.9090 C   0  0  0  0  0  0  0  0  0  0  0  0
   36.5500   23.6270   31.7260 C   0  0  1  0  0  0  0  0  0  0  0  0
   37.4740   24.0690   29.7020 H   0  0  0  0  0  0  0  0  0  0  0  0
   35.1130   24.1480   30.0610 H   0  0  0  0  0  0  0  0  0  0  0  0
   35.3140   25.4670   31.3460 H   0  0  0  0  0  0  0  0  0  0  0  0
   36.6470   23.9740   32.8030 H   0  0  0  0  0  0  0  0  0  0  0  0
   36.2100   22.2030   31.6390 C   0  0  0  0  0  0  0  0  0  0  0  0
   35.0970   21.7610   32.3410 C   0  0  0  0  0  0  0  0  0  0  0  0
   34.7960   20.4270   32.2560 C   0  0  0  0  0  0  0  0  0  0  0  0
   35.5530   19.5380   31.5080 C   0  0  0  0  0  0  0  0  0  0  0  0
   36.6460   20.0180   30.8290 C   0  0  0  0  0  0  0  0  0  0  0  0
   36.9540   21.3210   30.9030 N   0  0  0  0  0  0  0  0  0  0  0  0
   34.4890   22.4280   32.9300 H   0  0  0  0  0  0  0  0  0  0  0  0
   33.9310   20.0690   32.7980 H   0  0  0  0  0  0  0  0  0  0  0  0
   35.3120   18.4940   31.4450 H   0  0  0  0  0  0  0  0  0  0  0  0
   37.2390   19.3380   30.2470 H   0  0  0  0  0  0  0  0  0  0  0  0
  1  6  1  0  0  0  0
  1  7  1  0  0  0  0
  2  1  2  0  0  0  0
  3  4  2  0  0  0  0
  3  2  1  0  0  0  0
  4  5  1  0  0  0  0
  5  9  1  0  0  0  0
  5  6  2  0  0  0  0
  8  2  1  0  0  0  0
  9 20  1  0  0  0  0
 10 12  1  0  0  0  0
 10  9  2  0  0  0  0
 11 10  1  0  0  0  0
 12 13  2  0  0  0  0
 13 14  1  0  0  0  0
 13 19  1  0  0  0  0
 14 15  2  0  0  0  0
 15 16  1  0  0  0  0
 15 17  1  0  0  0  0
 18 17  2  0  0  0  0
 19 18  1  0  0  0  0
 20 19  2  0  0  0  0
 21 22  1  1  0  0  0
 21  3  1  0  0  0  0
 23 26  1  6  0  0  0
 23 24  1  0  0  0  0
 23 21  1  0  0  0  0
 23 25  1  0  0  0  0
 24 28  1  0  0  0  0
 24 25  1  0  0  0  0
 25 29  1  1  0  0  0
 27 24  1  0  0  0  0
 30 25  1  0  0  0  0
 30 31  1  0  0  0  0
 31 36  1  0  0  0  0
 32 31  2  0  0  0  0
 32 37  1  0  0  0  0
 33 32  1  0  0  0  0
 34 35  1  0  0  0  0
 34 33  2  0  0  0  0
 35 30  2  0  0  0  0
 38 33  1  0  0  0  0
 39 34  1  0  0  0  0
M  END
>  <minimizedAffinity>
-6.29022884

$$$$

 OpenBabel03272501373D

 39 43  0  0  1  0  0  0  0  0999 V2000
   38.9140   26.5820   30.4060 C   0  0  0  0  0  0  0  0  0  0  0  0
   38.0620   27.6460   30.5940 C   0  0  0  0  0  0  0  0  0  0  0  0
   37.4980   27.9550   31.8500 C   0  0  0  0  0  0  0  0  0  0  0  0
   37.8330   27.1670   32.8380 N   0  0  0  0  0  0  0  0  0  0  0  0
   38.6840   26.1070   32.6390 C   0  0  0  0  0  0  0  0  0  0  0  0
   39.2210   25.8040   31.4690 N   0  0  0  0  0  0  0  0  0  0  0  0
   39.3170   26.3910   29.4240 H   0  0  0  0  0  0  0  0  0  0  0  0
   37.8210   28.2660   29.7420 H   0  0  0  0  0  0  0  0  0  0  0  0
   38.9960   25.2820   33.8120 C   0  0  0  0  0  0  0  0  0  0  0  0
   40.0050   24.3420   33.8030 C   0  0  0  0  0  0  0  0  0  0  0  0
   40.5840   24.2150   32.8840 H   0  0  0  0  0  0  0  0  0  0  0  0
   40.2960   23.5690   34.9080 C   0  0  0  0  0  3  0  0  0  0  0  0
   39.5790   23.7110   36.0780 C   0  0  0  0  0  0  0  0  0  0  0  0
   39.8170   22.9880   37.1840 N   0  0  0  0  0  0  0  0  0  0  0  0
   39.1310   23.1100   38.3340 C   0  0  0  0  0  0  0  0  0  0  0  0
   39.3520   22.5090   39.2070 H   0  0  0  0  0  0  0  0  0  0  0  0
   38.1230   24.0530   38.3410 C   0  0  0  0  0  3  0  0  0  0  0  0
   37.7830   24.8570   37.2680 C   0  0  0  0  0  3  0  0  0  0  0  0
   38.5520   24.6570   36.1160 C   0  0  0  0  0  0  0  0  0  0  0  0
   38.2780   25.4280   34.9820 C   0  0  0  0  0  3  0  0  0  0  0  0
   36.5970   29.0650   31.9420 C   0  0  1  0  0  3  0  0  0  0  0  0
   36.3590   29.8840   30.9740 O   0  0  0  0  0  1  0  0  0  0  0  0
   35.8810   29.2720   33.2570 C   0  0  2  0  0  0  0  0  0  0  0  0
   34.3190   29.1460   32.9680 C   0  0  0  0  0  0  0  0  0  0  0  0
   35.0210   30.3900   33.4490 C   0  0  1  0  0  0  0  0  0  0  0  0
   36.1600   28.5120   34.0200 H   0  0  0  0  0  0  0  0  0  0  0  0
   33.7940   28.5070   33.6900 H   0  0  0  0  0  0  0  0  0  0  0  0
   33.9980   29.0740   31.9380 H   0  0  0  0  0  0  0  0  0  0  0  0
   35.0520   31.1970   32.6520 H   0  0  0  0  0  0  0  0  0  0  0  0
   34.5610   30.9120   34.7400 C   0  0  0  0  0  0  0  0  0  0  0  0
   35.5000   31.5200   35.5620 C   0  0  0  0  0  0  0  0  0  0  0  0
   35.0570   31.9960   36.7680 C   0  0  0  0  0  0  0  0  0  0  0  0
   33.7340   31.8890   37.1720 C   0  0  0  0  0  0  0  0  0  0  0  0
   32.8390   31.2800   36.3280 C   0  0  0  0  0  0  0  0  0  0  0  0
   33.2580   30.8080   35.1440 N   0  0  0  0  0  0  0  0  0  0  0  0
   36.5340   31.6180   35.2750 H   0  0  0  0  0  0  0  0  0  0  0  0
   35.7780   32.4720   37.4190 H   0  0  0  0  0  0  0  0  0  0  0  0
   33.3940   32.2640   38.1180 H   0  0  0  0  0  0  0  0  0  0  0  0
   31.8130   31.1920   36.6310 H   0  0  0  0  0  0  0  0  0  0  0  0
  1  2  2  0  0  0  0
  1  6  1  0  0  0  0
  2  3  1  0  0  0  0
  3 21  1  0  0  0  0
  3  4  2  0  0  0  0
  5  4  1  0  0  0  0
  5  9  1  0  0  0  0
  6  5  2  0  0  0  0
  7  1  1  0  0  0  0
  8  2  1  0  0  0  0
  9 20  1  0  0  0  0
 10  9  2  0  0  0  0
 10 12  1  0  0  0  0
 11 10  1  0  0  0  0
 12 13  2  0  0  0  0
 13 19  1  0  0  0  0
 13 14  1  0  0  0  0
 14 15  2  0  0  0  0
 15 17  1  0  0  0  0
 15 16  1  0  0  0  0
 18 17  2  0  0  0  0
 19 18  1  0  0  0  0
 20 19  2  0  0  0  0
 21 22  1  6  0  0  0
 21 23  1  0  0  0  0
 23 25  1  0  0  0  0
 23 26  1  1  0  0  0
 24 23  1  0  0  0  0
 24 25  1  0  0  0  0
 24 27  1  0  0  0  0
 25 29  1  6  0  0  0
 25 30  1  0  0  0  0
 28 24  1  0  0  0  0
 30 35  2  0  0  0  0
 30 31  1  0  0  0  0
 31 32  2  0  0  0  0
 32 33  1  0  0  0  0
 32 37  1  0  0  0  0
 33 38  1  0  0  0  0
 34 39  1  0  0  0  0
 34 33  2  0  0  0  0
 35 34  1  0  0  0  0
 36 31  1  0  0  0  0
M  END
>  <minimizedAffinity>
-6.26412344

$$$$

 OpenBabel03272501373D

 39 43  0  0  1  0  0  0  0  0999 V2000
   36.4180   25.0480   31.4550 C   0  0  0  0  0  0  0  0  0  0  0  0
   36.2260   26.4080   31.5400 C   0  0  0  0  0  0  0  0  0  0  0  0
   36.6760   27.1710   32.6390 C   0  0  0  0  0  0  0  0  0  0  0  0
   37.2920   26.5090   33.5820 N   0  0  0  0  0  0  0  0  0  0  0  0
   37.4790   25.1510   33.4870 C   0  0  0  0  0  0  0  0  0  0  0  0
   37.0630   24.4220   32.4650 N   0  0  0  0  0  0  0  0  0  0  0  0
   36.0530   24.5140   30.5920 H   0  0  0  0  0  0  0  0  0  0  0  0
   35.7110   26.9050   30.7300 H   0  0  0  0  0  0  0  0  0  0  0  0
   38.1820   24.5020   34.6000 C   0  0  0  0  0  0  0  0  0  0  0  0
   37.8240   24.7080   35.9150 C   0  0  0  0  0  0  0  0  0  0  0  0
   36.9880   25.3810   36.1240 H   0  0  0  0  0  0  0  0  0  0  0  0
   38.4870   24.0950   36.9590 C   0  0  0  0  0  3  0  0  0  0  0  0
   39.5450   23.2430   36.7210 C   0  0  0  0  0  0  0  0  0  0  0  0
   40.2270   22.6190   37.6940 N   0  0  0  0  0  0  0  0  0  0  0  0
   41.2610   21.7850   37.4840 C   0  0  0  0  0  0  0  0  0  0  0  0
   41.7860   21.2990   38.2960 H   0  0  0  0  0  0  0  0  0  0  0  0
   41.6150   21.5790   36.1660 C   0  0  0  0  0  3  0  0  0  0  0  0
   40.9910   22.1630   35.0780 C   0  0  0  0  0  3  0  0  0  0  0  0
   39.9280   23.0150   35.3960 C   0  0  0  0  0  0  0  0  0  0  0  0
   39.2390   23.6480   34.3570 C   0  0  0  0  0  3  0  0  0  0  0  0
   36.4020   28.5770   32.6540 C   0  0  1  0  0  3  0  0  0  0  0  0
   36.6670   29.3750   31.6760 O   0  0  0  0  0  1  0  0  0  0  0  0
   35.7570   29.1470   33.8970 C   0  0  2  0  0  0  0  0  0  0  0  0
   34.2030   29.3160   33.5850 C   0  0  0  0  0  0  0  0  0  0  0  0
   35.1630   30.4400   33.8800 C   0  0  1  0  0  0  0  0  0  0  0  0
   35.8670   28.4800   34.7800 H   0  0  0  0  0  0  0  0  0  0  0  0
   33.5550   28.9330   34.3840 H   0  0  0  0  0  0  0  0  0  0  0  0
   33.8680   29.1480   32.5710 H   0  0  0  0  0  0  0  0  0  0  0  0
   35.3640   31.0800   32.9650 H   0  0  0  0  0  0  0  0  0  0  0  0
   34.8350   31.2530   35.0560 C   0  0  0  0  0  0  0  0  0  0  0  0
   35.6740   32.3170   35.3600 C   0  0  0  0  0  0  0  0  0  0  0  0
   35.3600   33.0620   36.4650 C   0  0  0  0  0  0  0  0  0  0  0  0
   34.2570   32.7880   37.2610 C   0  0  0  0  0  0  0  0  0  0  0  0
   33.4540   31.7270   36.9240 C   0  0  0  0  0  0  0  0  0  0  0  0
   33.7490   30.9870   35.8450 N   0  0  0  0  0  0  0  0  0  0  0  0
   36.5370   32.5540   34.7600 H   0  0  0  0  0  0  0  0  0  0  0  0
   36.0050   33.8940   36.7130 H   0  0  0  0  0  0  0  0  0  0  0  0
   34.0160   33.3770   38.1260 H   0  0  0  0  0  0  0  0  0  0  0  0
   32.5980   31.5060   37.5330 H   0  0  0  0  0  0  0  0  0  0  0  0
  1  2  2  0  0  0  0
  1  6  1  0  0  0  0
  2  3  1  0  0  0  0
  3 21  1  0  0  0  0
  3  4  2  0  0  0  0
  5  4  1  0  0  0  0
  5  9  1  0  0  0  0
  6  5  2  0  0  0  0
  7  1  1  0  0  0  0
  8  2  1  0  0  0  0
  9 10  1  0  0  0  0
 10 11  1  0  0  0  0
 10 12  2  0  0  0  0
 13 12  1  0  0  0  0
 13 14  1  0  0  0  0
 15 14  2  0  0  0  0
 15 16  1  0  0  0  0
 17 15  1  0  0  0  0
 18 19  1  0  0  0  0
 18 17  2  0  0  0  0
 19 13  2  0  0  0  0
 20  9  2  0  0  0  0
 20 19  1  0  0  0  0
 21 22  1  6  0  0  0
 21 23  1  0  0  0  0
 23 26  1  1  0  0  0
 24 25  1  0  0  0  0
 24 23  1  0  0  0  0
 24 27  1  0  0  0  0
 25 29  1  6  0  0  0
 25 23  1  0  0  0  0
 25 30  1  0  0  0  0
 28 24  1  0  0  0  0
 30 31  2  0  0  0  0
 30 35  1  0  0  0  0
 31 32  1  0  0  0  0
 32 37  1  0  0  0  0
 32 33  2  0  0  0  0
 33 38  1  0  0  0  0
 34 33  1  0  0  0  0
 34 39  1  0  0  0  0
 35 34  2  0  0  0  0
 36 31  1  0  0  0  0
M  END
>  <minimizedAffinity>
-6.26015663

$$$$
