
 OpenBabel03272503133D

 49 54  0  0  0  0  0  0  0  0999 V2000
   39.2010   32.2180   42.5730 C   0  0  0  0  0  0  0  0  0  0  0  0
   39.7220   31.4900   43.6310 C   0  0  0  0  0  0  0  0  0  0  0  0
   40.5930   30.4610   43.4670 C   0  0  0  0  0  0  0  0  0  0  0  0
   41.0040   30.0970   42.1880 C   0  0  0  0  0  0  0  0  0  0  0  0
   41.8290   29.1540   41.7390 N   0  0  0  0  0  0  0  0  0  0  0  0
   41.8540   29.2570   40.4050 C   0  0  0  0  0  0  0  0  0  0  0  0
   41.0470   30.2620   40.0210 N   0  0  0  0  0  0  0  0  0  0  0  0
   40.4880   30.8210   41.1280 C   0  0  0  0  0  0  0  0  0  0  0  0
   39.5980   31.8730   41.2720 C   0  0  0  0  0  0  0  0  0  0  0  0
   38.5180   33.0240   42.7020 H   0  0  0  0  0  0  0  0  0  0  0  0
   40.9810   29.9130   44.3080 H   0  0  0  0  0  0  0  0  0  0  0  0
   42.3780   28.4430   42.2750 H   0  0  0  0  0  0  0  0  0  0  0  0
   42.3650   28.7210   39.6360 H   0  0  0  0  0  0  0  0  0  0  0  0
   39.2640   31.9070   44.9420 C   0  0  0  0  0  0  0  0  0  0  0  0
   38.1780   32.5590   45.0640 O   0  0  0  0  0  0  0  0  0  0  0  0
   39.9610   31.6340   46.1630 N   0  0  0  0  0  0  0  0  0  0  0  0
   40.8380   31.1080   46.1140 H   0  0  0  0  0  0  0  0  0  0  0  0
   38.1270   30.1470   47.4980 F   0  0  0  0  0  0  0  0  0  0  0  0
   38.3850   31.4020   47.9860 C   0  0  0  0  0  0  0  0  0  0  0  0
   37.7170   31.8320   49.0990 C   0  0  0  0  0  0  0  0  0  0  0  0
   38.0170   33.0910   49.5380 C   0  0  0  0  0  0  0  0  0  0  0  0
   38.9320   33.8980   48.9140 C   0  0  0  0  0  0  0  0  0  0  0  0
   39.5980   33.4370   47.7840 C   0  0  0  0  0  0  0  0  0  0  0  0
   39.3040   32.1590   47.3240 C   0  0  0  0  0  0  0  0  0  0  0  0
   37.4960   33.4570   50.4260 H   0  0  0  0  0  0  0  0  0  0  0  0
   39.1760   34.8830   49.2440 H   0  0  0  0  0  0  0  0  0  0  0  0
   40.3400   33.9750   47.2020 H   0  0  0  0  0  0  0  0  0  0  0  0
   36.0730   29.3590   51.4440 C   0  0  0  0  0  0  0  0  0  0  0  0
   37.0440   30.2160   50.8650 C   0  0  0  0  0  0  0  0  0  0  0  0
   36.7520   30.9380   49.7290 C   0  0  0  0  0  0  0  0  0  0  0  0
   35.4920   30.7840   49.1930 N   0  0  0  0  0  0  0  0  0  0  0  0
   34.5810   29.9670   49.7540 C   0  0  0  0  0  0  0  0  0  0  0  0
   34.8680   29.2730   50.8520 N   0  0  0  0  0  0  0  0  0  0  0  0
   36.2930   28.7890   52.3350 H   0  0  0  0  0  0  0  0  0  0  0  0
   38.0240   30.3100   51.3150 H   0  0  0  0  0  0  0  0  0  0  0  0
   33.6570   29.9900   49.1830 H   0  0  0  0  0  0  0  0  0  0  0  0
   39.0910   32.5860   40.2100 O   0  0  0  0  0  0  0  0  0  0  0  0
   38.0740   32.2210   39.3780 C   0  0  0  0  0  0  0  0  0  0  0  0
   38.3050   32.1480   38.0040 C   0  0  0  0  0  0  0  0  0  0  0  0
   39.2970   32.3820   37.5960 H   0  0  0  0  0  0  0  0  0  0  0  0
   37.3180   31.7860   37.1200 C   0  0  0  0  0  3  0  0  0  0  0  0
   36.0440   31.4760   37.5520 C   0  0  0  0  0  0  0  0  0  0  0  0
   35.0490   31.1180   36.7330 N   0  0  0  0  0  0  0  0  0  0  0  0
   33.8130   30.8180   37.1590 C   0  0  0  0  0  0  0  0  0  0  0  0
   33.0050   30.5270   36.4820 H   0  0  0  0  0  0  0  0  0  0  0  0
   33.4910   30.8640   38.5130 C   0  0  0  0  0  3  0  0  0  0  0  0
   34.5070   31.2330   39.3830 C   0  0  0  0  0  3  0  0  0  0  0  0
   35.7660   31.5360   38.9210 C   0  0  0  0  0  0  0  0  0  0  0  0
   36.8050   31.9080   39.7620 C   0  0  0  0  0  3  0  0  0  0  0  0
  1 10  1  0  0  0  0
  1  2  1  0  0  0  0
  2 14  1  0  0  0  0
  3  2  2  0  0  0  0
  3 11  1  0  0  0  0
  4  3  1  0  0  0  0
  5  4  1  0  0  0  0
  5 12  1  0  0  0  0
  6  5  1  0  0  0  0
  7  6  2  0  0  0  0
  7  8  1  0  0  0  0
  8  9  1  0  0  0  0
  8  4  2  0  0  0  0
  9  1  2  0  0  0  0
 13  6  1  0  0  0  0
 14 15  2  0  0  0  0
 14 16  1  0  0  0  0
 16 24  1  0  0  0  0
 17 16  1  0  0  0  0
 18 19  1  0  0  0  0
 19 20  1  0  0  0  0
 20 21  2  0  0  0  0
 20 30  1  0  0  0  0
 21 25  1  0  0  0  0
 22 26  1  0  0  0  0
 22 21  1  0  0  0  0
 23 22  2  0  0  0  0
 24 23  1  0  0  0  0
 24 19  2  0  0  0  0
 27 23  1  0  0  0  0
 28 34  1  0  0  0  0
 29 35  1  0  0  0  0
 29 28  1  0  0  0  0
 30 29  2  0  0  0  0
 31 30  1  0  0  0  0
 31 32  2  0  0  0  0
 32 33  1  0  0  0  0
 33 28  2  0  0  0  0
 36 32  1  0  0  0  0
 37  9  1  0  0  0  0
 38 49  1  0  0  0  0
 38 37  1  0  0  0  0
 39 38  2  0  0  0  0
 40 39  1  0  0  0  0
 41 42  2  0  0  0  0
 41 39  1  0  0  0  0
 42 48  1  0  0  0  0
 43 44  2  0  0  0  0
 43 42  1  0  0  0  0
 44 46  1  0  0  0  0
 45 44  1  0  0  0  0
 46 47  2  0  0  0  0
 48 47  1  0  0  0  0
 48 49  2  0  0  0  0
M  END
>  <minimizedAffinity>
-7.01678419

>  <minimizedRMSD>
0.607551932

$$$$
