
 OpenBabel03272505313D

 43 47  0  0  0  0  0  0  0  0999 V2000
   37.3560   31.1480   47.1030 N   0  0  0  0  0  0  0  0  0  0  0  0
   36.7190   30.9040   45.9250 C   0  0  0  0  0  0  0  0  0  0  0  0
   37.1670   31.4250   44.7280 C   0  0  0  0  0  0  0  0  0  0  0  0
   38.3170   32.2280   44.7730 C   0  0  0  0  0  0  0  0  0  0  0  0
   38.7670   32.7300   43.7080 O   0  0  0  0  0  0  0  0  0  0  0  0
   38.9540   32.4720   45.9580 N   0  0  0  0  0  0  0  0  0  0  0  0
   38.4240   31.9110   47.0340 C   0  0  0  0  0  0  0  0  0  0  0  0
   39.0330   32.1550   48.1030 O   0  0  0  0  0  0  0  0  0  0  0  0
   35.8370   30.2850   45.9060 H   0  0  0  0  0  0  0  0  0  0  0  0
   37.2680   29.4050   50.3900 C   0  0  0  0  0  0  0  0  0  0  0  0
   37.7250   29.9510   49.1820 C   0  0  0  0  0  0  0  0  0  0  0  0
   36.8850   30.6070   48.3050 C   0  0  0  0  0  0  0  0  0  0  0  0
   35.5990   30.7000   48.6630 N   0  0  0  0  0  0  0  0  0  0  0  0
   35.1130   30.1850   49.8250 C   0  0  0  0  0  0  0  0  0  0  0  0
   35.9600   29.5400   50.6770 N   0  0  0  0  0  0  0  0  0  0  0  0
   37.9270   28.8920   51.0760 H   0  0  0  0  0  0  0  0  0  0  0  0
   38.7650   29.8270   48.9870 H   0  0  0  0  0  0  0  0  0  0  0  0
   34.0690   30.2700   50.0970 H   0  0  0  0  0  0  0  0  0  0  0  0
   36.5300   31.2000   43.4380 C   0  0  0  0  0  0  0  0  0  0  0  0
   36.8300   30.1420   42.6290 C   0  0  0  0  0  0  0  0  0  0  0  0
   36.2420   29.9060   41.4030 C   0  0  0  0  0  0  0  0  0  0  0  0
   35.2730   30.8120   40.9570 C   0  0  0  0  0  0  0  0  0  0  0  0
   35.0000   31.8690   41.8050 C   0  0  0  0  0  0  0  0  0  0  0  0
   35.6060   32.0350   42.9760 N   0  0  0  0  0  0  0  0  0  0  0  0
   37.5720   29.4130   42.9290 H   0  0  0  0  0  0  0  0  0  0  0  0
   36.4890   29.0600   40.7680 H   0  0  0  0  0  0  0  0  0  0  0  0
   34.8010   30.6580   40.0150 H   0  0  0  0  0  0  0  0  0  0  0  0
   34.0040   32.8680   41.4300 C   0  0  0  0  0  0  0  0  0  0  0  0
   32.7460   32.8460   42.0130 C   0  0  0  0  0  0  0  0  0  0  0  0
   32.5110   32.0760   42.7530 H   0  0  0  0  0  0  0  0  0  0  0  0
   31.7130   33.7250   41.7550 C   0  0  0  0  0  3  0  0  0  0  0  0
   31.9510   34.7200   40.8300 C   0  0  0  0  0  0  0  0  0  0  0  0
   30.9960   35.6150   40.5220 N   0  0  0  0  0  0  0  0  0  0  0  0
   31.1980   36.6020   39.6220 C   0  0  0  0  0  0  0  0  0  0  0  0
   30.4220   37.3190   39.3800 H   0  0  0  0  0  0  0  0  0  0  0  0
   32.4530   36.6570   39.0120 C   0  0  0  0  0  3  0  0  0  0  0  0
   33.4750   35.7640   39.2870 C   0  0  0  0  0  3  0  0  0  0  0  0
   33.1870   34.7880   40.2180 C   0  0  0  0  0  0  0  0  0  0  0  0
   34.1880   33.8830   40.5140 C   0  0  0  0  0  3  0  0  0  0  0  0
   40.1330   33.2960   45.9910 C   0  0  0  0  0  0  0  0  0  0  0  0
   40.0660   34.2690   45.0590 F   0  0  0  0  0  0  0  0  0  0  0  0
   41.3080   32.5940   45.7170 F   0  0  0  0  0  0  0  0  0  0  0  0
   40.2320   33.8940   47.2410 F   0  0  0  0  0  0  0  0  0  0  0  0
  1 12  1  0  0  0  0
  2  1  1  0  0  0  0
  3  4  1  0  0  0  0
  3  2  2  0  0  0  0
  4  6  1  0  0  0  0
  5  4  2  0  0  0  0
  6 40  1  0  0  0  0
  6  7  1  0  0  0  0
  7  1  1  0  0  0  0
  7  8  2  0  0  0  0
  9  2  1  0  0  0  0
 10 15  1  0  0  0  0
 10 16  1  0  0  0  0
 11 10  2  0  0  0  0
 12 13  2  0  0  0  0
 12 11  1  0  0  0  0
 13 14  1  0  0  0  0
 14 18  1  0  0  0  0
 14 15  2  0  0  0  0
 17 11  1  0  0  0  0
 19  3  1  0  0  0  0
 20 25  1  0  0  0  0
 20 19  2  0  0  0  0
 21 20  1  0  0  0  0
 22 21  2  0  0  0  0
 22 23  1  0  0  0  0
 23 24  2  0  0  0  0
 24 19  1  0  0  0  0
 26 21  1  0  0  0  0
 27 22  1  0  0  0  0
 28 23  1  0  0  0  0
 28 29  1  0  0  0  0
 29 30  1  0  0  0  0
 31 29  2  0  0  0  0
 32 31  1  0  0  0  0
 33 32  1  0  0  0  0
 34 33  2  0  0  0  0
 35 34  1  0  0  0  0
 36 37  2  0  0  0  0
 36 34  1  0  0  0  0
 37 38  1  0  0  0  0
 38 39  1  0  0  0  0
 38 32  2  0  0  0  0
 39 28  2  0  0  0  0
 40 43  1  0  0  0  0
 41 40  1  0  0  0  0
 42 40  1  0  0  0  0
M  END
>  <minimizedAffinity>
-6.85650206

>  <minimizedRMSD>
0.485477448

$$$$
