
 OpenBabel03262523063D

 44 49  0  0  0  0  0  0  0  0999 V2000
   37.2430   30.9060   49.7430 C   0  0  0  0  0  0  0  0  0  0  0  0
   37.4650   30.5730   51.0610 C   0  0  0  0  0  0  0  0  0  0  0  0
   36.6580   29.6550   51.6570 C   0  0  0  0  0  0  0  0  0  0  0  0
   35.6480   29.0780   50.9540 N   0  0  0  0  0  0  0  0  0  0  0  0
   35.4600   29.4190   49.6880 C   0  0  0  0  0  0  0  0  0  0  0  0
   36.2420   30.3290   49.0570 N   0  0  0  0  0  0  0  0  0  0  0  0
   38.2640   31.0300   51.6160 H   0  0  0  0  0  0  0  0  0  0  0  0
   36.7550   29.3310   52.6870 H   0  0  0  0  0  0  0  0  0  0  0  0
   34.3770   28.8040   48.9240 C   0  0  0  0  0  0  0  0  0  0  0  0
   34.5140   28.4980   47.5990 C   0  0  0  0  0  0  0  0  0  0  0  0
   33.5860   27.9220   46.7620 C   0  0  0  0  0  0  0  0  0  0  0  0
   32.3740   27.6340   47.3820 C   0  0  0  0  0  0  0  0  0  0  0  0
   31.4130   27.0650   46.6160 N   0  0  0  0  0  0  0  0  0  0  0  0
   30.1970   26.7420   47.1130 C   0  0  0  0  0  0  0  0  0  0  0  0
   29.9290   27.0050   48.4600 C   0  0  0  0  0  0  0  0  0  0  0  0
   30.9180   27.5860   49.2360 C   0  0  0  0  0  0  0  0  0  0  0  0
   32.1600   27.9140   48.7170 C   0  0  0  0  0  0  0  0  0  0  0  0
   33.1470   28.4960   49.4960 C   0  0  0  0  0  0  0  0  0  0  0  0
   35.4830   28.7450   47.1650 H   0  0  0  0  0  0  0  0  0  0  0  0
   33.8000   27.7260   45.7370 H   0  0  0  0  0  0  0  0  0  0  0  0
   29.5210   26.2940   46.3980 H   0  0  0  0  0  0  0  0  0  0  0  0
   28.9570   26.7350   48.8140 H   0  0  0  0  0  0  0  0  0  0  0  0
   30.7180   27.7910   50.2700 H   0  0  0  0  0  0  0  0  0  0  0  0
   32.9720   28.7120   50.5410 H   0  0  0  0  0  0  0  0  0  0  0  0
   39.2940   33.8680   48.9930 C   0  0  0  0  0  0  0  0  0  0  0  0
   39.6540   33.6540   47.6620 C   0  0  0  0  0  0  0  0  0  0  0  0
   39.1850   32.4840   47.0300 C   0  0  0  0  0  0  0  0  0  0  0  0
   38.4130   31.6570   47.7800 N   0  0  0  0  0  0  0  0  0  0  0  0
   38.0840   31.8880   49.0560 C   0  0  0  0  0  0  0  0  0  0  0  0
   38.5270   32.9960   49.6620 N   0  0  0  0  0  0  0  0  0  0  0  0
   39.6550   34.7720   49.4880 H   0  0  0  0  0  0  0  0  0  0  0  0
   40.2680   34.3470   47.1250 H   0  0  0  0  0  0  0  0  0  0  0  0
   39.4980   32.1630   45.6520 C   0  0  0  0  0  0  0  0  0  0  0  0
   40.5320   31.3440   45.2610 C   0  0  0  0  0  0  0  0  0  0  0  0
   41.1700   30.8940   46.0050 H   0  0  0  0  0  0  0  0  0  0  0  0
   40.7630   31.0880   43.9130 C   0  0  0  0  0  0  0  0  0  0  0  0
   39.9870   31.6290   42.9250 C   0  0  0  0  0  0  0  0  0  0  0  0
   40.1390   31.4360   41.6070 N   0  0  0  0  0  0  0  0  0  0  0  0
   39.3130   32.0200   40.6960 C   0  0  0  0  0  0  0  0  0  0  0  0
   39.4660   31.8420   39.6400 H   0  0  0  0  0  0  0  0  0  0  0  0
   38.2640   32.8500   41.0540 C   0  0  0  0  0  0  0  0  0  0  0  0
   38.0930   33.0600   42.4060 C   0  0  0  0  0  0  0  0  0  0  0  0
   38.9410   32.4580   43.3140 C   0  0  0  0  0  0  0  0  0  0  0  0
   38.7200   32.7060   44.6530 C   0  0  0  0  0  0  0  0  0  0  0  0
  1  2  1  0  0  0  0
  2  7  1  0  0  0  0
  2  3  2  0  0  0  0
  3  8  1  0  0  0  0
  4  3  1  0  0  0  0
  5  4  2  0  0  0  0
  6  5  1  0  0  0  0
  6  1  2  0  0  0  0
  9 18  1  0  0  0  0
  9  5  1  0  0  0  0
 10  9  2  0  0  0  0
 11 12  2  0  0  0  0
 11 10  1  0  0  0  0
 12 17  1  0  0  0  0
 13 14  2  0  0  0  0
 13 12  1  0  0  0  0
 14 15  1  0  0  0  0
 15 22  1  0  0  0  0
 15 16  2  0  0  0  0
 16 23  1  0  0  0  0
 17 16  1  0  0  0  0
 17 18  2  0  0  0  0
 18 24  1  0  0  0  0
 19 10  1  0  0  0  0
 20 11  1  0  0  0  0
 21 14  1  0  0  0  0
 25 31  1  0  0  0  0
 25 30  1  0  0  0  0
 26 25  2  0  0  0  0
 27 26  1  0  0  0  0
 27 28  2  0  0  0  0
 28 29  1  0  0  0  0
 29 30  2  0  0  0  0
 29  1  1  0  0  0  0
 32 26  1  0  0  0  0
 33 27  1  0  0  0  0
 34 33  1  0  0  0  0
 34 35  1  0  0  0  0
 36 34  2  0  0  0  0
 37 43  1  0  0  0  0
 37 36  1  0  0  0  0
 38 37  2  0  0  0  0
 39 41  2  0  0  0  0
 39 38  1  0  0  0  0
 40 39  1  0  0  0  0
 41 42  1  0  0  0  0
 42 43  2  0  0  0  0
 43 44  1  0  0  0  0
 44 33  2  0  0  0  0
M  END
>  <minimizedAffinity>
-8.21805

>  <minimizedRMSD>
0.622031093

$$$$
