
 OpenBabel03272503093D

 48 53  0  0  0  0  0  0  0  0999 V2000
   39.0460   32.3220   42.6010 C   0  0  0  0  0  0  0  0  0  0  0  0
   39.6170   31.6060   43.6440 C   0  0  0  0  0  0  0  0  0  0  0  0
   40.5240   30.5950   43.4440 C   0  0  0  0  0  0  0  0  0  0  0  0
   40.8860   30.2710   42.1510 C   0  0  0  0  0  0  0  0  0  0  0  0
   41.7340   29.3470   41.6570 N   0  0  0  0  0  0  0  0  0  0  0  0
   41.7070   29.4680   40.3210 C   0  0  0  0  0  0  0  0  0  0  0  0
   40.8530   30.4550   39.9730 N   0  0  0  0  0  0  0  0  0  0  0  0
   40.3230   30.9780   41.1160 C   0  0  0  0  0  0  0  0  0  0  0  0
   39.4140   31.9930   41.3000 C   0  0  0  0  0  0  0  0  0  0  0  0
   38.3460   33.1000   42.7750 H   0  0  0  0  0  0  0  0  0  0  0  0
   40.9670   30.0380   44.2610 H   0  0  0  0  0  0  0  0  0  0  0  0
   42.3030   28.6670   42.2250 H   0  0  0  0  0  0  0  0  0  0  0  0
   42.3030   28.8370   39.6840 H   0  0  0  0  0  0  0  0  0  0  0  0
   38.8130   32.7450   40.2030 C   0  0  0  0  0  0  0  0  0  0  0  0
   39.3600   32.9470   38.9530 C   0  0  0  0  0  0  0  0  0  0  0  0
   40.3360   32.4930   38.7880 H   0  0  0  0  0  0  0  0  0  0  0  0
   38.6970   33.6800   37.9900 C   0  0  0  0  0  0  0  0  0  0  0  0
   37.4520   34.2180   38.3070 C   0  0  0  0  0  0  0  0  0  0  0  0
   36.7990   34.9360   37.3660 N   0  0  0  0  0  0  0  0  0  0  0  0
   35.5880   35.4790   37.6260 C   0  0  0  0  0  0  0  0  0  0  0  0
   35.0540   36.0540   36.8880 H   0  0  0  0  0  0  0  0  0  0  0  0
   34.9800   35.3190   38.8490 C   0  0  0  0  0  0  0  0  0  0  0  0
   35.6260   34.5870   39.8330 C   0  0  0  0  0  0  0  0  0  0  0  0
   36.8620   34.0390   39.5560 C   0  0  0  0  0  0  0  0  0  0  0  0
   37.5620   33.3000   40.4870 C   0  0  0  0  0  0  0  0  0  0  0  0
   39.2040   31.9830   44.9750 C   0  0  0  0  0  0  0  0  0  0  0  0
   38.1150   32.6250   45.1280 O   0  0  0  0  0  0  0  0  0  0  0  0
   39.9220   31.6970   46.1710 N   0  0  0  0  0  0  0  0  0  0  0  0
   40.8000   31.1720   46.0660 H   0  0  0  0  0  0  0  0  0  0  0  0
   38.0810   30.1890   47.4900 F   0  0  0  0  0  0  0  0  0  0  0  0
   38.3590   31.4130   48.0100 C   0  0  0  0  0  0  0  0  0  0  0  0
   37.7220   31.8290   49.1450 C   0  0  0  0  0  0  0  0  0  0  0  0
   38.0430   33.0630   49.6160 C   0  0  0  0  0  0  0  0  0  0  0  0
   38.9580   33.8860   49.0140 C   0  0  0  0  0  0  0  0  0  0  0  0
   39.5880   33.4370   47.8640 C   0  0  0  0  0  0  0  0  0  0  0  0
   39.2920   32.1980   47.3580 C   0  0  0  0  0  0  0  0  0  0  0  0
   37.5430   33.4090   50.5210 H   0  0  0  0  0  0  0  0  0  0  0  0
   39.1990   34.8670   49.4080 H   0  0  0  0  0  0  0  0  0  0  0  0
   40.3240   34.0250   47.3280 H   0  0  0  0  0  0  0  0  0  0  0  0
   36.0860   29.3210   51.4650 C   0  0  0  0  0  0  0  0  0  0  0  0
   37.0300   30.1830   50.8890 C   0  0  0  0  0  0  0  0  0  0  0  0
   36.7480   30.9220   49.7630 C   0  0  0  0  0  0  0  0  0  0  0  0
   35.4960   30.7710   49.2340 N   0  0  0  0  0  0  0  0  0  0  0  0
   34.5950   29.9480   49.7850 C   0  0  0  0  0  0  0  0  0  0  0  0
   34.8820   29.2390   50.8740 N   0  0  0  0  0  0  0  0  0  0  0  0
   36.3800   28.7750   52.3480 H   0  0  0  0  0  0  0  0  0  0  0  0
   38.0230   30.3090   51.3000 H   0  0  0  0  0  0  0  0  0  0  0  0
   33.6220   29.8750   49.3160 H   0  0  0  0  0  0  0  0  0  0  0  0
  1 10  1  0  0  0  0
  1  2  1  0  0  0  0
  2 26  1  0  0  0  0
  3  2  2  0  0  0  0
  3 11  1  0  0  0  0
  4  3  1  0  0  0  0
  5  4  1  0  0  0  0
  5 12  1  0  0  0  0
  6  5  1  0  0  0  0
  7  6  2  0  0  0  0
  7  8  1  0  0  0  0
  8  9  1  0  0  0  0
  8  4  2  0  0  0  0
  9  1  2  0  0  0  0
 13  6  1  0  0  0  0
 14 25  1  0  0  0  0
 14  9  1  0  0  0  0
 15 14  2  0  0  0  0
 16 15  1  0  0  0  0
 17 18  2  0  0  0  0
 17 15  1  0  0  0  0
 18 24  1  0  0  0  0
 19 20  2  0  0  0  0
 19 18  1  0  0  0  0
 20 22  1  0  0  0  0
 21 20  1  0  0  0  0
 22 23  2  0  0  0  0
 24 23  1  0  0  0  0
 24 25  2  0  0  0  0
 26 27  2  0  0  0  0
 26 28  1  0  0  0  0
 28 36  1  0  0  0  0
 29 28  1  0  0  0  0
 30 31  1  0  0  0  0
 31 32  1  0  0  0  0
 32 33  2  0  0  0  0
 32 42  1  0  0  0  0
 33 37  1  0  0  0  0
 34 38  1  0  0  0  0
 34 33  1  0  0  0  0
 35 34  2  0  0  0  0
 36 35  1  0  0  0  0
 36 31  2  0  0  0  0
 39 35  1  0  0  0  0
 40 46  1  0  0  0  0
 41 47  1  0  0  0  0
 41 40  1  0  0  0  0
 42 41  2  0  0  0  0
 43 42  1  0  0  0  0
 43 44  2  0  0  0  0
 44 45  1  0  0  0  0
 45 40  2  0  0  0  0
 48 44  1  0  0  0  0
M  END
>  <minimizedAffinity>
-7.89512396

>  <minimizedRMSD>
0.270790607

$$$$
