
 OpenBabel03272505313D

 43 47  0  0  0  0  0  0  0  0999 V2000
   37.3910   31.1790   47.0950 N   0  0  0  0  0  0  0  0  0  0  0  0
   36.7190   30.9430   45.9350 C   0  0  0  0  0  0  0  0  0  0  0  0
   37.1400   31.4590   44.7260 C   0  0  0  0  0  0  0  0  0  0  0  0
   38.3010   32.2480   44.7390 C   0  0  0  0  0  0  0  0  0  0  0  0
   38.7270   32.7440   43.6620 O   0  0  0  0  0  0  0  0  0  0  0  0
   38.9740   32.4830   45.9060 N   0  0  0  0  0  0  0  0  0  0  0  0
   38.4660   31.9290   46.9970 C   0  0  0  0  0  0  0  0  0  0  0  0
   39.1080   32.1660   48.0480 O   0  0  0  0  0  0  0  0  0  0  0  0
   35.8290   30.3360   45.9420 H   0  0  0  0  0  0  0  0  0  0  0  0
   37.3890   29.5130   50.4230 C   0  0  0  0  0  0  0  0  0  0  0  0
   37.8190   30.0530   49.2030 C   0  0  0  0  0  0  0  0  0  0  0  0
   36.9470   30.6440   48.3110 C   0  0  0  0  0  0  0  0  0  0  0  0
   35.6580   30.6810   48.6660 N   0  0  0  0  0  0  0  0  0  0  0  0
   35.1980   30.1700   49.8400 C   0  0  0  0  0  0  0  0  0  0  0  0
   36.0760   29.5890   50.7080 N   0  0  0  0  0  0  0  0  0  0  0  0
   38.0720   29.0500   51.1210 H   0  0  0  0  0  0  0  0  0  0  0  0
   38.8640   29.9760   49.0100 H   0  0  0  0  0  0  0  0  0  0  0  0
   34.1500   30.2080   50.1100 H   0  0  0  0  0  0  0  0  0  0  0  0
   36.4650   31.2420   43.4540 C   0  0  0  0  0  0  0  0  0  0  0  0
   36.7420   30.1900   42.6290 C   0  0  0  0  0  0  0  0  0  0  0  0
   36.1180   29.9630   41.4200 C   0  0  0  0  0  0  0  0  0  0  0  0
   35.1340   30.8700   41.0100 C   0  0  0  0  0  0  0  0  0  0  0  0
   34.8850   31.9200   41.8740 C   0  0  0  0  0  0  0  0  0  0  0  0
   35.5250   32.0780   43.0270 N   0  0  0  0  0  0  0  0  0  0  0  0
   37.4940   29.4610   42.9010 H   0  0  0  0  0  0  0  0  0  0  0  0
   36.3470   29.1220   40.7720 H   0  0  0  0  0  0  0  0  0  0  0  0
   34.6350   30.7210   40.0810 H   0  0  0  0  0  0  0  0  0  0  0  0
   33.8760   32.9200   41.5360 C   0  0  0  0  0  0  0  0  0  0  0  0
   33.4590   33.8340   42.4920 C   0  0  0  0  0  0  0  0  0  0  0  0
   33.8930   33.7960   43.4960 H   0  0  0  0  0  0  0  0  0  0  0  0
   32.5190   34.8290   42.3140 C   0  0  0  0  0  3  0  0  0  0  0  0
   31.9380   34.9250   41.0660 C   0  0  0  0  0  0  0  0  0  0  0  0
   31.0130   35.8680   40.8120 N   0  0  0  0  0  0  0  0  0  0  0  0
   30.4240   35.9890   39.6010 C   0  0  0  0  0  0  0  0  0  0  0  0
   29.6790   36.7520   39.4050 H   0  0  0  0  0  0  0  0  0  0  0  0
   30.8180   35.0870   38.6110 C   0  0  0  0  0  3  0  0  0  0  0  0
   31.7640   34.0960   38.8140 C   0  0  0  0  0  3  0  0  0  0  0  0
   32.3170   34.0400   40.0780 C   0  0  0  0  0  0  0  0  0  0  0  0
   33.2630   33.0620   40.3100 C   0  0  0  0  0  3  0  0  0  0  0  0
   40.1630   33.2930   45.9060 C   0  0  0  0  0  0  0  0  0  0  0  0
   40.0980   34.2440   44.9520 F   0  0  0  0  0  0  0  0  0  0  0  0
   41.3260   32.5700   45.6370 F   0  0  0  0  0  0  0  0  0  0  0  0
   40.2830   33.9200   47.1400 F   0  0  0  0  0  0  0  0  0  0  0  0
  1 12  1  0  0  0  0
  2  9  1  0  0  0  0
  2  1  1  0  0  0  0
  3  4  1  0  0  0  0
  3  2  2  0  0  0  0
  4  6  1  0  0  0  0
  5  4  2  0  0  0  0
  6  7  1  0  0  0  0
  7  1  1  0  0  0  0
  7  8  2  0  0  0  0
 10 15  1  0  0  0  0
 10 16  1  0  0  0  0
 11 10  2  0  0  0  0
 12 13  2  0  0  0  0
 12 11  1  0  0  0  0
 13 14  1  0  0  0  0
 14 18  1  0  0  0  0
 14 15  2  0  0  0  0
 17 11  1  0  0  0  0
 19  3  1  0  0  0  0
 20 25  1  0  0  0  0
 20 19  2  0  0  0  0
 21 20  1  0  0  0  0
 22 21  2  0  0  0  0
 22 23  1  0  0  0  0
 23 24  2  0  0  0  0
 24 19  1  0  0  0  0
 26 21  1  0  0  0  0
 27 22  1  0  0  0  0
 28 23  1  0  0  0  0
 28 29  1  0  0  0  0
 29 30  1  0  0  0  0
 31 29  2  0  0  0  0
 32 31  1  0  0  0  0
 33 32  1  0  0  0  0
 34 33  2  0  0  0  0
 35 34  1  0  0  0  0
 36 37  2  0  0  0  0
 36 34  1  0  0  0  0
 37 38  1  0  0  0  0
 38 39  1  0  0  0  0
 38 32  2  0  0  0  0
 39 28  2  0  0  0  0
 40  6  1  0  0  0  0
 40 43  1  0  0  0  0
 41 40  1  0  0  0  0
 42 40  1  0  0  0  0
M  END
>  <minimizedAffinity>
-6.87372303

>  <minimizedRMSD>
0.603733897

$$$$
