
 OpenBabel03272508073D

 38 42  0  0  0  0  0  0  0  0999 V2000
   35.6100   29.8990   33.3970 C   0  0  0  0  0  0  0  0  0  0  0  0
   36.0360   30.2740   32.1450 C   0  0  0  0  0  0  0  0  0  0  0  0
   36.2420   29.1560   31.3450 C   0  0  0  0  0  0  0  0  0  0  0  0
   35.9270   28.1270   32.1620 N   0  0  0  0  0  0  0  0  0  0  0  0
   35.5580   28.5580   33.3590 N   0  0  0  0  0  0  0  0  0  0  0  0
   36.2020   31.2890   31.7860 H   0  0  0  0  0  0  0  0  0  0  0  0
   36.5660   29.0490   30.3370 H   0  0  0  0  0  0  0  0  0  0  0  0
   35.2920   30.7780   34.5050 C   0  0  0  0  0  0  0  0  0  0  0  0
   34.0410   30.6260   35.1500 C   0  0  0  0  0  0  0  0  0  0  0  0
   33.7620   31.4840   36.2120 C   0  0  0  0  0  0  0  0  0  0  0  0
   34.6850   32.4040   36.5700 N   0  0  0  0  0  0  0  0  0  0  0  0
   35.8740   32.5280   35.9390 C   0  0  0  0  0  0  0  0  0  0  0  0
   36.1670   31.7120   34.9080 N   0  0  0  0  0  0  0  0  0  0  0  0
   33.3180   29.8750   34.8380 H   0  0  0  0  0  0  0  0  0  0  0  0
   36.5720   33.2880   36.2750 H   0  0  0  0  0  0  0  0  0  0  0  0
   32.4470   31.3390   36.9040 C   0  0  0  0  0  0  0  0  0  0  0  0
   31.6020   30.7570   35.9870 F   0  0  0  0  0  0  0  0  0  0  0  0
   32.5330   30.5220   38.0270 F   0  0  0  0  0  0  0  0  0  0  0  0
   31.9270   32.5730   37.2870 F   0  0  0  0  0  0  0  0  0  0  0  0
   35.9480   26.6930   31.8760 C   0  0  0  0  0  0  0  0  0  0  0  0
   35.0330   26.0860   31.0030 C   0  0  0  0  0  0  0  0  0  0  0  0
   35.0800   24.7710   30.7640 C   0  0  0  0  0  0  0  0  0  0  0  0
   36.0770   24.0000   31.4120 C   0  0  0  0  0  0  0  0  0  0  0  0
   36.9680   25.2780   32.4070 S   0  0  0  0  0  0  0  0  0  0  0  0
   34.2480   26.6660   30.4880 H   0  0  0  0  0  0  0  0  0  0  0  0
   34.4780   24.1410   30.1410 H   0  0  0  0  0  0  0  0  0  0  0  0
   36.4650   22.6070   31.4330 C   0  0  0  0  0  0  0  0  0  0  0  0
   37.7060   22.2890   30.9350 C   0  0  0  0  0  0  0  0  0  0  0  0
   38.4100   22.9980   30.5340 H   0  0  0  0  0  0  0  0  0  0  0  0
   38.0320   20.9290   30.9780 C   0  0  0  0  0  3  0  0  0  0  0  0
   37.1240   19.9990   31.4990 C   0  0  0  0  0  0  0  0  0  0  0  0
   37.4480   18.6800   31.5370 N   0  0  0  0  0  0  0  0  0  0  0  0
   36.5870   17.7740   32.0340 C   0  0  0  0  0  0  0  0  0  0  0  0
   36.9270   16.7520   32.0240 H   0  0  0  0  0  0  0  0  0  0  0  0
   35.3410   18.1020   32.5320 C   0  0  0  0  0  3  0  0  0  0  0  0
   35.0030   19.4590   32.4950 C   0  0  0  0  0  3  0  0  0  0  0  0
   35.8750   20.4020   31.9880 C   0  0  0  0  0  0  0  0  0  0  0  0
   35.5290   21.7470   31.9560 C   0  0  0  0  0  3  0  0  0  0  0  0
  1  8  1  0  0  0  0
  2  1  1  0  0  0  0
  3  2  2  0  0  0  0
  3  4  1  0  0  0  0
  4  5  1  0  0  0  0
  5  1  2  0  0  0  0
  6  2  1  0  0  0  0
  7  3  1  0  0  0  0
  8 13  2  0  0  0  0
  8  9  1  0  0  0  0
  9 10  2  0  0  0  0
 10 11  1  0  0  0  0
 10 16  1  0  0  0  0
 12 15  1  0  0  0  0
 12 11  2  0  0  0  0
 13 12  1  0  0  0  0
 14  9  1  0  0  0  0
 16 19  1  0  0  0  0
 16 18  1  0  0  0  0
 17 16  1  0  0  0  0
 20  4  1  0  0  0  0
 20 24  1  0  0  0  0
 21 20  2  0  0  0  0
 22 21  1  0  0  0  0
 22 23  2  0  0  0  0
 23 27  1  0  0  0  0
 23 24  1  0  0  0  0
 25 21  1  0  0  0  0
 26 22  1  0  0  0  0
 27 38  1  0  0  0  0
 28 30  1  0  0  0  0
 28 27  2  0  0  0  0
 29 28  1  0  0  0  0
 30 31  2  0  0  0  0
 31 32  1  0  0  0  0
 31 37  1  0  0  0  0
 32 33  2  0  0  0  0
 33 35  1  0  0  0  0
 34 33  1  0  0  0  0
 36 35  2  0  0  0  0
 37 36  1  0  0  0  0
 38 37  2  0  0  0  0
M  END
>  <minimizedAffinity>
-6.88236904

$$$$

 OpenBabel03272508073D

 38 42  0  0  0  0  0  0  0  0999 V2000
   35.6590   29.9730   31.8100 C   0  0  0  0  0  0  0  0  0  0  0  0
   36.4070   30.0410   30.6590 C   0  0  0  0  0  0  0  0  0  0  0  0
   36.6950   28.7640   30.1890 C   0  0  0  0  0  0  0  0  0  0  0  0
   36.0980   27.9580   31.0930 N   0  0  0  0  0  0  0  0  0  0  0  0
   35.4930   28.6600   32.0390 N   0  0  0  0  0  0  0  0  0  0  0  0
   36.7480   30.9420   30.1510 H   0  0  0  0  0  0  0  0  0  0  0  0
   37.2410   28.4210   29.3420 H   0  0  0  0  0  0  0  0  0  0  0  0
   35.1660   31.0890   32.5920 C   0  0  0  0  0  0  0  0  0  0  0  0
   35.5270   31.1690   33.9580 C   0  0  0  0  0  0  0  0  0  0  0  0
   35.0390   32.2540   34.6850 C   0  0  0  0  0  0  0  0  0  0  0  0
   34.2570   33.1620   34.0600 N   0  0  0  0  0  0  0  0  0  0  0  0
   33.9260   33.0630   32.7530 C   0  0  0  0  0  0  0  0  0  0  0  0
   34.3850   32.0240   32.0280 N   0  0  0  0  0  0  0  0  0  0  0  0
   36.1580   30.4220   34.4330 H   0  0  0  0  0  0  0  0  0  0  0  0
   33.2950   33.8260   32.3110 H   0  0  0  0  0  0  0  0  0  0  0  0
   35.4090   32.3550   36.1270 C   0  0  0  0  0  0  0  0  0  0  0  0
   36.6380   31.7460   36.2440 F   0  0  0  0  0  0  0  0  0  0  0  0
   35.5140   33.6760   36.5500 F   0  0  0  0  0  0  0  0  0  0  0  0
   34.4920   31.6960   36.9430 F   0  0  0  0  0  0  0  0  0  0  0  0
   36.0530   26.4960   31.1260 C   0  0  0  0  0  0  0  0  0  0  0  0
   34.8580   25.7770   30.9820 C   0  0  0  0  0  0  0  0  0  0  0  0
   34.8530   24.4390   31.0180 C   0  0  0  0  0  0  0  0  0  0  0  0
   36.0840   23.7630   31.2050 C   0  0  0  0  0  0  0  0  0  0  0  0
   37.2810   25.1650   31.3310 S   0  0  0  0  0  0  0  0  0  0  0  0
   33.8880   26.2820   30.8350 H   0  0  0  0  0  0  0  0  0  0  0  0
   34.0550   23.7300   30.9270 H   0  0  0  0  0  0  0  0  0  0  0  0
   36.5080   22.3830   31.3000 C   0  0  0  0  0  0  0  0  0  0  0  0
   37.8010   22.0930   30.9360 C   0  0  0  0  0  0  0  0  0  0  0  0
   38.5200   22.8140   30.5870 H   0  0  0  0  0  0  0  0  0  0  0  0
   38.1600   20.7450   31.0460 C   0  0  0  0  0  3  0  0  0  0  0  0
   37.2330   19.7990   31.4980 C   0  0  0  0  0  0  0  0  0  0  0  0
   37.5890   18.4930   31.6030 N   0  0  0  0  0  0  0  0  0  0  0  0
   36.7100   17.5720   32.0360 C   0  0  0  0  0  0  0  0  0  0  0  0
   37.0790   16.5600   32.0870 H   0  0  0  0  0  0  0  0  0  0  0  0
   35.4120   17.8720   32.4000 C   0  0  0  0  0  3  0  0  0  0  0  0
   35.0400   19.2160   32.2950 C   0  0  0  0  0  3  0  0  0  0  0  0
   35.9300   20.1730   31.8510 C   0  0  0  0  0  0  0  0  0  0  0  0
   35.5500   21.5060   31.7500 C   0  0  0  0  0  3  0  0  0  0  0  0
  1  5  2  0  0  0  0
  1  8  1  0  0  0  0
  2  1  1  0  0  0  0
  3  2  2  0  0  0  0
  3  4  1  0  0  0  0
  4 20  1  0  0  0  0
  4  5  1  0  0  0  0
  6  2  1  0  0  0  0
  7  3  1  0  0  0  0
  8  9  1  0  0  0  0
  9 14  1  0  0  0  0
  9 10  2  0  0  0  0
 10 16  1  0  0  0  0
 11 10  1  0  0  0  0
 12 11  2  0  0  0  0
 13  8  2  0  0  0  0
 13 12  1  0  0  0  0
 15 12  1  0  0  0  0
 16 17  1  0  0  0  0
 16 18  1  0  0  0  0
 16 19  1  0  0  0  0
 20 24  1  0  0  0  0
 21 22  1  0  0  0  0
 21 20  2  0  0  0  0
 22 23  2  0  0  0  0
 23 27  1  0  0  0  0
 23 24  1  0  0  0  0
 25 21  1  0  0  0  0
 26 22  1  0  0  0  0
 27 38  1  0  0  0  0
 28 30  1  0  0  0  0
 28 27  2  0  0  0  0
 29 28  1  0  0  0  0
 30 31  2  0  0  0  0
 31 32  1  0  0  0  0
 31 37  1  0  0  0  0
 32 33  2  0  0  0  0
 33 34  1  0  0  0  0
 33 35  1  0  0  0  0
 36 35  2  0  0  0  0
 37 36  1  0  0  0  0
 38 37  2  0  0  0  0
M  END
>  <minimizedAffinity>
-6.81262684

$$$$

 OpenBabel03272508073D

 38 42  0  0  0  0  0  0  0  0999 V2000
   37.4970   26.6660   34.1600 C   0  0  0  0  0  0  0  0  0  0  0  0
   37.5780   27.1000   32.8580 C   0  0  0  0  0  0  0  0  0  0  0  0
   36.7950   28.2350   32.6740 C   0  0  0  0  0  0  0  0  0  0  0  0
   36.2610   28.4460   33.8960 N   0  0  0  0  0  0  0  0  0  0  0  0
   36.6690   27.5330   34.7640 N   0  0  0  0  0  0  0  0  0  0  0  0
   38.1580   26.6520   32.0520 H   0  0  0  0  0  0  0  0  0  0  0  0
   36.6080   28.8420   31.8200 H   0  0  0  0  0  0  0  0  0  0  0  0
   38.1700   25.5180   34.7350 C   0  0  0  0  0  0  0  0  0  0  0  0
   37.9630   25.2300   36.1050 C   0  0  0  0  0  0  0  0  0  0  0  0
   38.6220   24.1200   36.6300 C   0  0  0  0  0  0  0  0  0  0  0  0
   39.4130   23.3830   35.8190 N   0  0  0  0  0  0  0  0  0  0  0  0
   39.5930   23.6780   34.5120 C   0  0  0  0  0  0  0  0  0  0  0  0
   38.9680   24.7460   33.9800 N   0  0  0  0  0  0  0  0  0  0  0  0
   37.3200   25.8420   36.7330 H   0  0  0  0  0  0  0  0  0  0  0  0
   40.2410   23.0460   33.9140 H   0  0  0  0  0  0  0  0  0  0  0  0
   38.4170   23.8010   38.0740 C   0  0  0  0  0  0  0  0  0  0  0  0
   37.3960   22.8790   38.1150 F   0  0  0  0  0  0  0  0  0  0  0  0
   39.5540   23.2470   38.6550 F   0  0  0  0  0  0  0  0  0  0  0  0
   38.0460   24.9280   38.8040 F   0  0  0  0  0  0  0  0  0  0  0  0
   35.3480   29.5050   34.3250 C   0  0  0  0  0  0  0  0  0  0  0  0
   34.1440   29.7750   33.6580 C   0  0  0  0  0  0  0  0  0  0  0  0
   33.3310   30.7520   34.0760 C   0  0  0  0  0  0  0  0  0  0  0  0
   33.7130   31.5110   35.2110 C   0  0  0  0  0  0  0  0  0  0  0  0
   35.3310   30.7420   35.6630 S   0  0  0  0  0  0  0  0  0  0  0  0
   33.8260   29.1970   32.7730 H   0  0  0  0  0  0  0  0  0  0  0  0
   32.3880   31.0990   33.7040 H   0  0  0  0  0  0  0  0  0  0  0  0
   33.1500   32.6100   35.9640 C   0  0  0  0  0  0  0  0  0  0  0  0
   31.8690   32.9970   35.6550 C   0  0  0  0  0  0  0  0  0  0  0  0
   31.2530   32.5440   34.8970 H   0  0  0  0  0  0  0  0  0  0  0  0
   31.3730   34.0650   36.4130 C   0  0  0  0  0  3  0  0  0  0  0  0
   32.1650   34.6610   37.4000 C   0  0  0  0  0  0  0  0  0  0  0  0
   31.6770   35.6960   38.1310 N   0  0  0  0  0  0  0  0  0  0  0  0
   32.4250   36.2800   39.0840 C   0  0  0  0  0  0  0  0  0  0  0  0
   31.9570   37.0940   39.6140 H   0  0  0  0  0  0  0  0  0  0  0  0
   33.7130   35.8840   39.3880 C   0  0  0  0  0  3  0  0  0  0  0  0
   34.2210   34.8180   38.6390 C   0  0  0  0  0  3  0  0  0  0  0  0
   33.4650   34.2090   37.6570 C   0  0  0  0  0  0  0  0  0  0  0  0
   33.9800   33.1500   36.9170 C   0  0  0  0  0  3  0  0  0  0  0  0
  1  8  1  0  0  0  0
  1  5  2  0  0  0  0
  2  1  1  0  0  0  0
  3  2  2  0  0  0  0
  3  4  1  0  0  0  0
  4 20  1  0  0  0  0
  4  5  1  0  0  0  0
  6  2  1  0  0  0  0
  7  3  1  0  0  0  0
  8  9  1  0  0  0  0
  9 10  2  0  0  0  0
  9 14  1  0  0  0  0
 10 16  1  0  0  0  0
 11 10  1  0  0  0  0
 12 11  2  0  0  0  0
 13 12  1  0  0  0  0
 13  8  2  0  0  0  0
 15 12  1  0  0  0  0
 16 17  1  0  0  0  0
 16 18  1  0  0  0  0
 16 19  1  0  0  0  0
 20 24  1  0  0  0  0
 21 22  1  0  0  0  0
 21 20  2  0  0  0  0
 22 23  2  0  0  0  0
 23 24  1  0  0  0  0
 23 27  1  0  0  0  0
 25 21  1  0  0  0  0
 26 22  1  0  0  0  0
 27 38  1  0  0  0  0
 28 27  2  0  0  0  0
 28 30  1  0  0  0  0
 29 28  1  0  0  0  0
 30 31  2  0  0  0  0
 31 37  1  0  0  0  0
 31 32  1  0  0  0  0
 32 33  2  0  0  0  0
 33 35  1  0  0  0  0
 33 34  1  0  0  0  0
 36 35  2  0  0  0  0
 37 36  1  0  0  0  0
 38 37  2  0  0  0  0
M  END
>  <minimizedAffinity>
-6.79659367

$$$$

 OpenBabel03272508073D

 38 42  0  0  0  0  0  0  0  0999 V2000
   37.5910   23.5430   31.0590 C   0  0  0  0  0  0  0  0  0  0  0  0
   38.4580   24.2960   30.3040 C   0  0  0  0  0  0  0  0  0  0  0  0
   38.3750   25.6380   30.6590 C   0  0  0  0  0  0  0  0  0  0  0  0
   37.4410   25.6440   31.6350 N   0  0  0  0  0  0  0  0  0  0  0  0
   36.9820   24.4230   31.8700 N   0  0  0  0  0  0  0  0  0  0  0  0
   39.1340   23.9380   29.5280 H   0  0  0  0  0  0  0  0  0  0  0  0
   38.8800   26.5040   30.3030 H   0  0  0  0  0  0  0  0  0  0  0  0
   37.3920   22.1090   30.9800 C   0  0  0  0  0  0  0  0  0  0  0  0
   36.3080   21.5370   31.6890 C   0  0  0  0  0  0  0  0  0  0  0  0
   36.1420   20.1570   31.5940 C   0  0  0  0  0  0  0  0  0  0  0  0
   37.0080   19.4430   30.8430 N   0  0  0  0  0  0  0  0  0  0  0  0
   38.0360   20.0130   30.1740 C   0  0  0  0  0  0  0  0  0  0  0  0
   38.2190   21.3450   30.2500 N   0  0  0  0  0  0  0  0  0  0  0  0
   35.6270   22.1400   32.2860 H   0  0  0  0  0  0  0  0  0  0  0  0
   38.6960   19.3830   29.5880 H   0  0  0  0  0  0  0  0  0  0  0  0
   35.0040   19.5360   32.3350 C   0  0  0  0  0  0  0  0  0  0  0  0
   35.2410   19.7870   33.6670 F   0  0  0  0  0  0  0  0  0  0  0  0
   33.7800   20.0930   31.9780 F   0  0  0  0  0  0  0  0  0  0  0  0
   34.9460   18.1590   32.1320 F   0  0  0  0  0  0  0  0  0  0  0  0
   36.9260   26.7780   32.4020 C   0  0  0  0  0  0  0  0  0  0  0  0
   37.1480   26.9160   33.7800 C   0  0  0  0  0  0  0  0  0  0  0  0
   36.6630   27.9660   34.4520 C   0  0  0  0  0  0  0  0  0  0  0  0
   35.9170   28.9380   33.7410 C   0  0  0  0  0  0  0  0  0  0  0  0
   35.9430   28.2640   32.0200 S   0  0  0  0  0  0  0  0  0  0  0  0
   37.7260   26.1710   34.3540 H   0  0  0  0  0  0  0  0  0  0  0  0
   36.7280   28.2380   35.4860 H   0  0  0  0  0  0  0  0  0  0  0  0
   35.2430   30.1760   34.0680 C   0  0  0  0  0  0  0  0  0  0  0  0
   34.4850   30.7610   33.0830 C   0  0  0  0  0  0  0  0  0  0  0  0
   34.3540   30.3690   32.0890 H   0  0  0  0  0  0  0  0  0  0  0  0
   33.8540   31.9560   33.4500 C   0  0  0  0  0  3  0  0  0  0  0  0
   34.0170   32.4750   34.7400 C   0  0  0  0  0  0  0  0  0  0  0  0
   33.4020   33.6350   35.0890 N   0  0  0  0  0  0  0  0  0  0  0  0
   33.5480   34.1470   36.3240 C   0  0  0  0  0  0  0  0  0  0  0  0
   33.0250   35.0700   36.5130 H   0  0  0  0  0  0  0  0  0  0  0  0
   34.3130   33.5520   37.3080 C   0  0  0  0  0  3  0  0  0  0  0  0
   34.9480   32.3570   36.9540 C   0  0  0  0  0  3  0  0  0  0  0  0
   34.8080   31.8180   35.6900 C   0  0  0  0  0  0  0  0  0  0  0  0
   35.4450   30.6310   35.3490 C   0  0  0  0  0  3  0  0  0  0  0  0
  1  5  2  0  0  0  0
  2  3  2  0  0  0  0
  2  1  1  0  0  0  0
  3  4  1  0  0  0  0
  4  5  1  0  0  0  0
  4 20  1  0  0  0  0
  6  2  1  0  0  0  0
  7  3  1  0  0  0  0
  8  1  1  0  0  0  0
  8  9  1  0  0  0  0
  9 14  1  0  0  0  0
 10  9  2  0  0  0  0
 10 16  1  0  0  0  0
 11 10  1  0  0  0  0
 12 13  1  0  0  0  0
 12 11  2  0  0  0  0
 13  8  2  0  0  0  0
 15 12  1  0  0  0  0
 16 17  1  0  0  0  0
 18 16  1  0  0  0  0
 19 16  1  0  0  0  0
 20 21  2  0  0  0  0
 21 25  1  0  0  0  0
 21 22  1  0  0  0  0
 22 26  1  0  0  0  0
 23 27  1  0  0  0  0
 23 22  2  0  0  0  0
 24 20  1  0  0  0  0
 24 23  1  0  0  0  0
 27 38  1  0  0  0  0
 28 30  1  0  0  0  0
 28 27  2  0  0  0  0
 29 28  1  0  0  0  0
 30 31  2  0  0  0  0
 31 32  1  0  0  0  0
 31 37  1  0  0  0  0
 32 33  2  0  0  0  0
 33 34  1  0  0  0  0
 33 35  1  0  0  0  0
 36 35  2  0  0  0  0
 37 36  1  0  0  0  0
 38 37  2  0  0  0  0
M  END
>  <minimizedAffinity>
-6.70780325

$$$$

 OpenBabel03272508073D

 38 42  0  0  0  0  0  0  0  0999 V2000
   37.6660   23.7280   31.2840 C   0  0  0  0  0  0  0  0  0  0  0  0
   38.6790   24.4520   30.7030 C   0  0  0  0  0  0  0  0  0  0  0  0
   38.5330   25.8060   30.9840 C   0  0  0  0  0  0  0  0  0  0  0  0
   37.4140   25.8490   31.7390 N   0  0  0  0  0  0  0  0  0  0  0  0
   36.9070   24.6380   31.9160 N   0  0  0  0  0  0  0  0  0  0  0  0
   39.5000   24.0640   30.1010 H   0  0  0  0  0  0  0  0  0  0  0  0
   39.1100   26.6580   30.7110 H   0  0  0  0  0  0  0  0  0  0  0  0
   37.4760   22.2920   31.2180 C   0  0  0  0  0  0  0  0  0  0  0  0
   36.5000   21.7000   32.0550 C   0  0  0  0  0  0  0  0  0  0  0  0
   36.3390   20.3190   31.9690 C   0  0  0  0  0  0  0  0  0  0  0  0
   37.1100   19.6220   31.1060 N   0  0  0  0  0  0  0  0  0  0  0  0
   38.0360   20.2110   30.3160 C   0  0  0  0  0  0  0  0  0  0  0  0
   38.2110   21.5450   30.3800 N   0  0  0  0  0  0  0  0  0  0  0  0
   35.8940   22.2880   32.7410 H   0  0  0  0  0  0  0  0  0  0  0  0
   38.6230   19.5950   29.6430 H   0  0  0  0  0  0  0  0  0  0  0  0
   35.3140   19.6760   32.8450 C   0  0  0  0  0  0  0  0  0  0  0  0
   34.1150   19.8120   32.1830 F   0  0  0  0  0  0  0  0  0  0  0  0
   35.5720   18.3240   33.0470 F   0  0  0  0  0  0  0  0  0  0  0  0
   35.2270   20.3050   34.0840 F   0  0  0  0  0  0  0  0  0  0  0  0
   36.7590   27.0110   32.3380 C   0  0  0  0  0  0  0  0  0  0  0  0
   35.9640   27.8930   31.5920 C   0  0  0  0  0  0  0  0  0  0  0  0
   35.3780   28.9480   32.1710 C   0  0  0  0  0  0  0  0  0  0  0  0
   35.5790   29.1550   33.5580 C   0  0  0  0  0  0  0  0  0  0  0  0
   36.6720   27.7350   34.0080 S   0  0  0  0  0  0  0  0  0  0  0  0
   35.7940   27.7510   30.5100 H   0  0  0  0  0  0  0  0  0  0  0  0
   34.7480   29.7170   31.7720 H   0  0  0  0  0  0  0  0  0  0  0  0
   35.1470   30.1290   34.5370 C   0  0  0  0  0  0  0  0  0  0  0  0
   36.1210   30.7580   35.2740 C   0  0  0  0  0  0  0  0  0  0  0  0
   37.1780   30.5830   35.1760 H   0  0  0  0  0  0  0  0  0  0  0  0
   35.6500   31.6900   36.2060 C   0  0  0  0  0  3  0  0  0  0  0  0
   34.2770   31.9260   36.3410 C   0  0  0  0  0  0  0  0  0  0  0  0
   33.8280   32.8320   37.2480 N   0  0  0  0  0  0  0  0  0  0  0  0
   32.5120   33.0690   37.3890 C   0  0  0  0  0  0  0  0  0  0  0  0
   32.2470   33.8040   38.1330 H   0  0  0  0  0  0  0  0  0  0  0  0
   31.5390   32.4310   36.6450 C   0  0  0  0  0  3  0  0  0  0  0  0
   31.9960   31.4980   35.7090 C   0  0  0  0  0  3  0  0  0  0  0  0
   33.3440   31.2420   35.5520 C   0  0  0  0  0  0  0  0  0  0  0  0
   33.7870   30.3120   34.6190 C   0  0  0  0  0  3  0  0  0  0  0  0
  1  5  2  0  0  0  0
  2  3  2  0  0  0  0
  2  1  1  0  0  0  0
  3  4  1  0  0  0  0
  4  5  1  0  0  0  0
  4 20  1  0  0  0  0
  6  2  1  0  0  0  0
  7  3  1  0  0  0  0
  8  1  1  0  0  0  0
  8  9  1  0  0  0  0
  9 14  1  0  0  0  0
 10  9  2  0  0  0  0
 10 16  1  0  0  0  0
 11 10  1  0  0  0  0
 12 13  1  0  0  0  0
 12 11  2  0  0  0  0
 13  8  2  0  0  0  0
 15 12  1  0  0  0  0
 16 18  1  0  0  0  0
 16 19  1  0  0  0  0
 17 16  1  0  0  0  0
 20 24  1  0  0  0  0
 21 22  1  0  0  0  0
 21 20  2  0  0  0  0
 22 23  2  0  0  0  0
 23 24  1  0  0  0  0
 23 27  1  0  0  0  0
 25 21  1  0  0  0  0
 26 22  1  0  0  0  0
 27 38  2  0  0  0  0
 27 28  1  0  0  0  0
 28 30  2  0  0  0  0
 29 28  1  0  0  0  0
 30 31  1  0  0  0  0
 31 32  1  0  0  0  0
 32 33  2  0  0  0  0
 33 34  1  0  0  0  0
 35 33  1  0  0  0  0
 36 35  2  0  0  0  0
 37 36  1  0  0  0  0
 37 31  2  0  0  0  0
 38 37  1  0  0  0  0
M  END
>  <minimizedAffinity>
-6.60677528

$$$$

 OpenBabel03272508073D

 38 42  0  0  0  0  0  0  0  0999 V2000
   35.8400   28.8310   33.4890 C   0  0  0  0  0  0  0  0  0  0  0  0
   36.3310   28.7220   32.2090 C   0  0  0  0  0  0  0  0  0  0  0  0
   37.4250   27.8650   32.1790 C   0  0  0  0  0  0  0  0  0  0  0  0
   37.5570   27.4810   33.4680 N   0  0  0  0  0  0  0  0  0  0  0  0
   36.6330   28.0430   34.2330 N   0  0  0  0  0  0  0  0  0  0  0  0
   35.9500   29.2160   31.3170 H   0  0  0  0  0  0  0  0  0  0  0  0
   38.0570   27.5400   31.3860 H   0  0  0  0  0  0  0  0  0  0  0  0
   34.7090   29.6290   33.9200 C   0  0  0  0  0  0  0  0  0  0  0  0
   34.8220   30.3680   35.1220 C   0  0  0  0  0  0  0  0  0  0  0  0
   33.7200   31.1260   35.5110 C   0  0  0  0  0  0  0  0  0  0  0  0
   32.6140   31.1200   34.7340 N   0  0  0  0  0  0  0  0  0  0  0  0
   32.5310   30.4060   33.5890 C   0  0  0  0  0  0  0  0  0  0  0  0
   33.5830   29.6640   33.1910 N   0  0  0  0  0  0  0  0  0  0  0  0
   35.7270   30.3520   35.7270 H   0  0  0  0  0  0  0  0  0  0  0  0
   31.6140   30.4440   33.0100 H   0  0  0  0  0  0  0  0  0  0  0  0
   33.8200   31.9120   36.7760 C   0  0  0  0  0  0  0  0  0  0  0  0
   35.1420   31.8490   37.1540 F   0  0  0  0  0  0  0  0  0  0  0  0
   33.4610   33.2440   36.5960 F   0  0  0  0  0  0  0  0  0  0  0  0
   33.0300   31.3670   37.7860 F   0  0  0  0  0  0  0  0  0  0  0  0
   38.5410   26.5730   34.0560 C   0  0  0  0  0  0  0  0  0  0  0  0
   39.8800   26.9400   34.2500 C   0  0  0  0  0  0  0  0  0  0  0  0
   40.7560   26.0850   34.7910 C   0  0  0  0  0  0  0  0  0  0  0  0
   40.2990   24.7970   35.1660 C   0  0  0  0  0  0  0  0  0  0  0  0
   38.5130   24.8670   34.6950 S   0  0  0  0  0  0  0  0  0  0  0  0
   40.2580   27.9380   33.9660 H   0  0  0  0  0  0  0  0  0  0  0  0
   41.7990   26.1830   35.0140 H   0  0  0  0  0  0  0  0  0  0  0  0
   40.8880   23.6170   35.7600 C   0  0  0  0  0  0  0  0  0  0  0  0
   40.1980   23.0120   36.7820 C   0  0  0  0  0  0  0  0  0  0  0  0
   39.2530   23.3490   37.1720 H   0  0  0  0  0  0  0  0  0  0  0  0
   40.8110   21.8750   37.3220 C   0  0  0  0  0  3  0  0  0  0  0  0
   42.0400   21.4290   36.8220 C   0  0  0  0  0  0  0  0  0  0  0  0
   42.6290   20.3250   37.3500 N   0  0  0  0  0  0  0  0  0  0  0  0
   43.8090   19.8830   36.8810 C   0  0  0  0  0  0  0  0  0  0  0  0
   44.2020   19.0010   37.3600 H   0  0  0  0  0  0  0  0  0  0  0  0
   44.4970   20.4970   35.8530 C   0  0  0  0  0  3  0  0  0  0  0  0
   43.8940   21.6340   35.3050 C   0  0  0  0  0  3  0  0  0  0  0  0
   42.6830   22.1010   35.7750 C   0  0  0  0  0  0  0  0  0  0  0  0
   42.0940   23.2320   35.2230 C   0  0  0  0  0  3  0  0  0  0  0  0
  1  8  1  0  0  0  0
  1  5  2  0  0  0  0
  2  1  1  0  0  0  0
  3  2  2  0  0  0  0
  3  4  1  0  0  0  0
  4 20  1  0  0  0  0
  4  5  1  0  0  0  0
  6  2  1  0  0  0  0
  7  3  1  0  0  0  0
  8  9  1  0  0  0  0
  9 10  2  0  0  0  0
  9 14  1  0  0  0  0
 10 16  1  0  0  0  0
 11 10  1  0  0  0  0
 12 11  2  0  0  0  0
 13 12  1  0  0  0  0
 13  8  2  0  0  0  0
 15 12  1  0  0  0  0
 16 17  1  0  0  0  0
 16 19  1  0  0  0  0
 18 16  1  0  0  0  0
 20 21  2  0  0  0  0
 20 24  1  0  0  0  0
 21 22  1  0  0  0  0
 22 26  1  0  0  0  0
 22 23  2  0  0  0  0
 23 27  1  0  0  0  0
 24 23  1  0  0  0  0
 25 21  1  0  0  0  0
 27 28  1  0  0  0  0
 28 29  1  0  0  0  0
 28 30  2  0  0  0  0
 31 30  1  0  0  0  0
 31 32  1  0  0  0  0
 33 32  2  0  0  0  0
 33 34  1  0  0  0  0
 35 33  1  0  0  0  0
 36 37  1  0  0  0  0
 36 35  2  0  0  0  0
 37 31  2  0  0  0  0
 38 27  2  0  0  0  0
 38 37  1  0  0  0  0
M  END
>  <minimizedAffinity>
-6.56753778

$$$$

 OpenBabel03272508073D

 38 42  0  0  0  0  0  0  0  0999 V2000
   37.5160   25.5800   33.8850 C   0  0  0  0  0  0  0  0  0  0  0  0
   37.3480   25.5420   32.5210 C   0  0  0  0  0  0  0  0  0  0  0  0
   36.8170   26.7430   32.0620 C   0  0  0  0  0  0  0  0  0  0  0  0
   36.6820   27.4750   33.1890 N   0  0  0  0  0  0  0  0  0  0  0  0
   37.0890   26.7990   34.2530 N   0  0  0  0  0  0  0  0  0  0  0  0
   37.5820   24.7130   31.8540 H   0  0  0  0  0  0  0  0  0  0  0  0
   36.5530   27.0810   31.0870 H   0  0  0  0  0  0  0  0  0  0  0  0
   38.0420   24.5220   34.7240 C   0  0  0  0  0  0  0  0  0  0  0  0
   37.9350   24.6580   36.1290 C   0  0  0  0  0  0  0  0  0  0  0  0
   38.4490   23.6250   36.9110 C   0  0  0  0  0  0  0  0  0  0  0  0
   39.0160   22.5610   36.3000 N   0  0  0  0  0  0  0  0  0  0  0  0
   39.1050   22.4540   34.9550 C   0  0  0  0  0  0  0  0  0  0  0  0
   38.6160   23.4400   34.1770 N   0  0  0  0  0  0  0  0  0  0  0  0
   37.4730   25.5270   36.5920 H   0  0  0  0  0  0  0  0  0  0  0  0
   39.5720   21.5740   34.5270 H   0  0  0  0  0  0  0  0  0  0  0  0
   38.3450   23.7500   38.3950 C   0  0  0  0  0  0  0  0  0  0  0  0
   37.3520   22.8780   38.7770 F   0  0  0  0  0  0  0  0  0  0  0  0
   39.5300   23.4000   39.0340 F   0  0  0  0  0  0  0  0  0  0  0  0
   37.9930   25.0420   38.7800 F   0  0  0  0  0  0  0  0  0  0  0  0
   36.1730   28.8370   33.3390 C   0  0  0  0  0  0  0  0  0  0  0  0
   36.0060   29.7020   32.2480 C   0  0  0  0  0  0  0  0  0  0  0  0
   35.5380   30.9440   32.4200 C   0  0  0  0  0  0  0  0  0  0  0  0
   35.2130   31.3680   33.7330 C   0  0  0  0  0  0  0  0  0  0  0  0
   35.6190   29.8690   34.7350 S   0  0  0  0  0  0  0  0  0  0  0  0
   36.2530   29.3940   31.2170 H   0  0  0  0  0  0  0  0  0  0  0  0
   35.3470   31.7330   31.7220 H   0  0  0  0  0  0  0  0  0  0  0  0
   34.6980   32.5770   34.3370 C   0  0  0  0  0  0  0  0  0  0  0  0
   34.2980   33.5840   33.4930 C   0  0  0  0  0  0  0  0  0  0  0  0
   34.3370   33.5410   32.4190 H   0  0  0  0  0  0  0  0  0  0  0  0
   33.8080   34.7320   34.1290 C   0  0  0  0  0  3  0  0  0  0  0  0
   33.7530   34.7980   35.5260 C   0  0  0  0  0  0  0  0  0  0  0  0
   33.2770   35.9150   36.1350 N   0  0  0  0  0  0  0  0  0  0  0  0
   33.2170   35.9950   37.4770 C   0  0  0  0  0  0  0  0  0  0  0  0
   32.8260   36.9180   37.8730 H   0  0  0  0  0  0  0  0  0  0  0  0
   33.6230   34.9770   38.3180 C   0  0  0  0  0  3  0  0  0  0  0  0
   34.1130   33.8250   37.6950 C   0  0  0  0  0  3  0  0  0  0  0  0
   34.1820   33.7270   36.3200 C   0  0  0  0  0  0  0  0  0  0  0  0
   34.6710   32.5770   35.7120 C   0  0  0  0  0  3  0  0  0  0  0  0
  1  5  2  0  0  0  0
  1  8  1  0  0  0  0
  2  1  1  0  0  0  0
  3  2  2  0  0  0  0
  3  4  1  0  0  0  0
  4 20  1  0  0  0  0
  4  5  1  0  0  0  0
  6  2  1  0  0  0  0
  7  3  1  0  0  0  0
  8  9  1  0  0  0  0
  9 14  1  0  0  0  0
  9 10  2  0  0  0  0
 10 16  1  0  0  0  0
 11 10  1  0  0  0  0
 12 11  2  0  0  0  0
 13  8  2  0  0  0  0
 13 12  1  0  0  0  0
 15 12  1  0  0  0  0
 16 17  1  0  0  0  0
 16 19  1  0  0  0  0
 16 18  1  0  0  0  0
 20 24  1  0  0  0  0
 21 22  1  0  0  0  0
 21 20  2  0  0  0  0
 22 23  2  0  0  0  0
 23 27  1  0  0  0  0
 23 24  1  0  0  0  0
 25 21  1  0  0  0  0
 26 22  1  0  0  0  0
 27 38  1  0  0  0  0
 28 30  1  0  0  0  0
 28 27  2  0  0  0  0
 29 28  1  0  0  0  0
 30 31  2  0  0  0  0
 31 32  1  0  0  0  0
 31 37  1  0  0  0  0
 32 33  2  0  0  0  0
 33 34  1  0  0  0  0
 33 35  1  0  0  0  0
 36 35  2  0  0  0  0
 37 36  1  0  0  0  0
 38 37  2  0  0  0  0
M  END
>  <minimizedAffinity>
-6.55749273

$$$$

 OpenBabel03272508073D

 38 42  0  0  0  0  0  0  0  0999 V2000
   35.2860   29.5200   31.9300 C   0  0  0  0  0  0  0  0  0  0  0  0
   36.2120   29.2660   30.9460 C   0  0  0  0  0  0  0  0  0  0  0  0
   37.1880   28.3910   31.4100 C   0  0  0  0  0  0  0  0  0  0  0  0
   36.8070   28.1450   32.6820 N   0  0  0  0  0  0  0  0  0  0  0  0
   35.6980   28.8010   32.9870 N   0  0  0  0  0  0  0  0  0  0  0  0
   36.2210   29.6690   29.9340 H   0  0  0  0  0  0  0  0  0  0  0  0
   38.0510   27.9730   30.9470 H   0  0  0  0  0  0  0  0  0  0  0  0
   34.1240   30.3790   31.8270 C   0  0  0  0  0  0  0  0  0  0  0  0
   32.9370   29.9940   32.4950 C   0  0  0  0  0  0  0  0  0  0  0  0
   31.8350   30.8400   32.3790 C   0  0  0  0  0  0  0  0  0  0  0  0
   31.9520   31.9690   31.6460 N   0  0  0  0  0  0  0  0  0  0  0  0
   33.0980   32.3160   31.0180 C   0  0  0  0  0  0  0  0  0  0  0  0
   34.1770   31.5150   31.1140 N   0  0  0  0  0  0  0  0  0  0  0  0
   32.8730   29.0770   33.0770 H   0  0  0  0  0  0  0  0  0  0  0  0
   33.1260   33.2370   30.4450 H   0  0  0  0  0  0  0  0  0  0  0  0
   30.5740   30.4490   33.0760 C   0  0  0  0  0  0  0  0  0  0  0  0
   30.4340   31.3330   34.1220 F   0  0  0  0  0  0  0  0  0  0  0  0
   29.4640   30.5490   32.2440 F   0  0  0  0  0  0  0  0  0  0  0  0
   30.6430   29.1520   33.5780 F   0  0  0  0  0  0  0  0  0  0  0  0
   37.4460   27.2870   33.6790 C   0  0  0  0  0  0  0  0  0  0  0  0
   37.5500   27.6520   35.0290 C   0  0  0  0  0  0  0  0  0  0  0  0
   38.1420   26.8440   35.9160 C   0  0  0  0  0  0  0  0  0  0  0  0
   38.6640   25.6080   35.4620 C   0  0  0  0  0  0  0  0  0  0  0  0
   38.2580   25.6560   33.6590 S   0  0  0  0  0  0  0  0  0  0  0  0
   37.1500   28.6100   35.4060 H   0  0  0  0  0  0  0  0  0  0  0  0
   38.3120   26.9490   36.9690 H   0  0  0  0  0  0  0  0  0  0  0  0
   39.3520   24.4860   36.0620 C   0  0  0  0  0  0  0  0  0  0  0  0
   38.7820   23.9180   37.1760 C   0  0  0  0  0  0  0  0  0  0  0  0
   37.8630   24.2440   37.6330 H   0  0  0  0  0  0  0  0  0  0  0  0
   39.4870   22.8360   37.7170 C   0  0  0  0  0  3  0  0  0  0  0  0
   40.6820   22.4050   37.1300 C   0  0  0  0  0  0  0  0  0  0  0  0
   41.3600   21.3550   37.6610 N   0  0  0  0  0  0  0  0  0  0  0  0
   42.5090   20.9270   37.1090 C   0  0  0  0  0  0  0  0  0  0  0  0
   42.9790   20.0890   37.5970 H   0  0  0  0  0  0  0  0  0  0  0  0
   43.0760   21.5050   35.9890 C   0  0  0  0  0  3  0  0  0  0  0  0
   42.3810   22.5860   35.4380 C   0  0  0  0  0  3  0  0  0  0  0  0
   41.2000   23.0370   35.9930 C   0  0  0  0  0  0  0  0  0  0  0  0
   40.5180   24.1130   35.4370 C   0  0  0  0  0  3  0  0  0  0  0  0
  1  5  2  0  0  0  0
  2  3  2  0  0  0  0
  2  1  1  0  0  0  0
  3  4  1  0  0  0  0
  4  5  1  0  0  0  0
  4 20  1  0  0  0  0
  6  2  1  0  0  0  0
  7  3  1  0  0  0  0
  8  1  1  0  0  0  0
  8  9  1  0  0  0  0
  9 14  1  0  0  0  0
 10  9  2  0  0  0  0
 10 16  1  0  0  0  0
 11 10  1  0  0  0  0
 12 13  1  0  0  0  0
 12 11  2  0  0  0  0
 13  8  2  0  0  0  0
 15 12  1  0  0  0  0
 16 19  1  0  0  0  0
 16 17  1  0  0  0  0
 18 16  1  0  0  0  0
 20 21  2  0  0  0  0
 21 25  1  0  0  0  0
 21 22  1  0  0  0  0
 22 26  1  0  0  0  0
 23 22  2  0  0  0  0
 23 27  1  0  0  0  0
 24 20  1  0  0  0  0
 24 23  1  0  0  0  0
 27 28  1  0  0  0  0
 28 29  1  0  0  0  0
 28 30  2  0  0  0  0
 31 32  1  0  0  0  0
 31 30  1  0  0  0  0
 33 34  1  0  0  0  0
 33 32  2  0  0  0  0
 35 33  1  0  0  0  0
 36 35  2  0  0  0  0
 36 37  1  0  0  0  0
 37 31  2  0  0  0  0
 38 37  1  0  0  0  0
 38 27  2  0  0  0  0
M  END
>  <minimizedAffinity>
-6.39411116

$$$$

 OpenBabel03272508073D

 38 42  0  0  0  0  0  0  0  0999 V2000
   36.6760   23.3590   31.4020 C   0  0  0  0  0  0  0  0  0  0  0  0
   37.6490   23.9010   30.5960 C   0  0  0  0  0  0  0  0  0  0  0  0
   37.8180   25.2520   30.8780 C   0  0  0  0  0  0  0  0  0  0  0  0
   36.9220   25.4790   31.8630 N   0  0  0  0  0  0  0  0  0  0  0  0
   36.2550   24.3760   32.1700 N   0  0  0  0  0  0  0  0  0  0  0  0
   38.2300   23.3850   29.8320 H   0  0  0  0  0  0  0  0  0  0  0  0
   38.4640   25.9920   30.4680 H   0  0  0  0  0  0  0  0  0  0  0  0
   36.2190   21.9830   31.4050 C   0  0  0  0  0  0  0  0  0  0  0  0
   36.8740   21.0510   30.5650 C   0  0  0  0  0  0  0  0  0  0  0  0
   36.4130   19.7360   30.5890 C   0  0  0  0  0  0  0  0  0  0  0  0
   35.3810   19.4190   31.4000 N   0  0  0  0  0  0  0  0  0  0  0  0
   34.7710   20.3280   32.1950 C   0  0  0  0  0  0  0  0  0  0  0  0
   35.1970   21.6060   32.1890 N   0  0  0  0  0  0  0  0  0  0  0  0
   37.7040   21.3370   29.9210 H   0  0  0  0  0  0  0  0  0  0  0  0
   33.9470   20.0090   32.8240 H   0  0  0  0  0  0  0  0  0  0  0  0
   37.0920   18.7390   29.7090 C   0  0  0  0  0  0  0  0  0  0  0  0
   38.2500   19.3450   29.2780 F   0  0  0  0  0  0  0  0  0  0  0  0
   37.4160   17.5720   30.3940 F   0  0  0  0  0  0  0  0  0  0  0  0
   36.3100   18.4080   28.6050 F   0  0  0  0  0  0  0  0  0  0  0  0
   36.6390   26.7260   32.5730 C   0  0  0  0  0  0  0  0  0  0  0  0
   37.0150   26.9330   33.9080 C   0  0  0  0  0  0  0  0  0  0  0  0
   36.7400   28.0860   34.5280 C   0  0  0  0  0  0  0  0  0  0  0  0
   36.0590   29.0970   33.8060 C   0  0  0  0  0  0  0  0  0  0  0  0
   35.8230   28.3010   32.1550 S   0  0  0  0  0  0  0  0  0  0  0  0
   37.5460   26.1600   34.4900 H   0  0  0  0  0  0  0  0  0  0  0  0
   36.9440   28.4220   35.5250 H   0  0  0  0  0  0  0  0  0  0  0  0
   35.5870   30.4360   34.0840 C   0  0  0  0  0  0  0  0  0  0  0  0
   35.3450   31.2570   33.0090 C   0  0  0  0  0  0  0  0  0  0  0  0
   35.4780   30.9780   31.9780 H   0  0  0  0  0  0  0  0  0  0  0  0
   34.8900   32.5400   33.3330 C   0  0  0  0  0  3  0  0  0  0  0  0
   34.7140   32.9120   34.6710 C   0  0  0  0  0  0  0  0  0  0  0  0
   34.2720   34.1600   34.9770 N   0  0  0  0  0  0  0  0  0  0  0  0
   34.0970   34.5330   36.2580 C   0  0  0  0  0  0  0  0  0  0  0  0
   33.7450   35.5410   36.4070 H   0  0  0  0  0  0  0  0  0  0  0  0
   34.3430   33.7010   37.3320 C   0  0  0  0  0  3  0  0  0  0  0  0
   34.7970   32.4150   37.0220 C   0  0  0  0  0  3  0  0  0  0  0  0
   34.9830   32.0170   35.7130 C   0  0  0  0  0  0  0  0  0  0  0  0
   35.4350   30.7370   35.4170 C   0  0  0  0  0  3  0  0  0  0  0  0
  1  8  1  0  0  0  0
  1  5  2  0  0  0  0
  2  3  2  0  0  0  0
  2  1  1  0  0  0  0
  3  4  1  0  0  0  0
  4  5  1  0  0  0  0
  4 20  1  0  0  0  0
  6  2  1  0  0  0  0
  7  3  1  0  0  0  0
  8 13  1  0  0  0  0
  9 10  1  0  0  0  0
  9  8  2  0  0  0  0
 10 11  2  0  0  0  0
 11 12  1  0  0  0  0
 12 15  1  0  0  0  0
 13 12  2  0  0  0  0
 14  9  1  0  0  0  0
 16 18  1  0  0  0  0
 16 10  1  0  0  0  0
 17 16  1  0  0  0  0
 19 16  1  0  0  0  0
 20 21  2  0  0  0  0
 21 25  1  0  0  0  0
 21 22  1  0  0  0  0
 22 26  1  0  0  0  0
 23 27  1  0  0  0  0
 23 22  2  0  0  0  0
 24 20  1  0  0  0  0
 24 23  1  0  0  0  0
 27 38  1  0  0  0  0
 28 30  1  0  0  0  0
 28 27  2  0  0  0  0
 29 28  1  0  0  0  0
 30 31  2  0  0  0  0
 31 32  1  0  0  0  0
 31 37  1  0  0  0  0
 32 33  2  0  0  0  0
 33 34  1  0  0  0  0
 33 35  1  0  0  0  0
 36 35  2  0  0  0  0
 37 36  1  0  0  0  0
 38 37  2  0  0  0  0
M  END
>  <minimizedAffinity>
-6.37660313

$$$$
