
 OpenBabel03272510213D

 39 43  0  0  0  0  0  0  0  0999 V2000
   32.7970   29.3640   46.8550 C   0  0  0  0  0  0  0  0  0  0  0  0
   31.8750   28.3510   46.7220 C   0  0  0  0  0  0  0  0  0  0  0  0
   30.8160   28.4020   45.8250 C   0  0  0  0  0  0  0  0  0  0  0  0
   30.6710   29.4860   45.0420 N   0  0  0  0  0  0  0  0  0  0  0  0
   31.5640   30.4740   45.1670 C   0  0  0  0  0  0  0  0  0  0  0  0
   32.5740   30.4050   46.0340 N   0  0  0  0  0  0  0  0  0  0  0  0
   31.9980   27.4650   47.3660 H   0  0  0  0  0  0  0  0  0  0  0  0
   30.1550   27.5380   45.8160 H   0  0  0  0  0  0  0  0  0  0  0  0
   31.4230   31.6580   44.3260 C   0  0  0  0  0  0  0  0  0  0  0  0
   30.1640   32.1760   44.0370 C   0  0  0  0  0  0  0  0  0  0  0  0
   29.2990   31.6730   44.4530 H   0  0  0  0  0  0  0  0  0  0  0  0
   29.9260   33.2750   43.2620 C   0  0  0  0  0  3  0  0  0  0  0  0
   31.0250   33.9160   42.7300 C   0  0  0  0  0  0  0  0  0  0  0  0
   30.8190   35.0030   41.9630 N   0  0  0  0  0  0  0  0  0  0  0  0
   31.8260   35.6980   41.3990 C   0  0  0  0  0  0  0  0  0  0  0  0
   31.6240   36.5570   40.7950 H   0  0  0  0  0  0  0  0  0  0  0  0
   33.1200   35.2500   41.6360 C   0  0  0  0  0  3  0  0  0  0  0  0
   33.3800   34.1290   42.4230 C   0  0  0  0  0  3  0  0  0  0  0  0
   32.3110   33.4560   42.9770 C   0  0  0  0  0  0  0  0  0  0  0  0
   32.4730   32.3310   43.7740 C   0  0  0  0  0  3  0  0  0  0  0  0
   37.4700   29.1860   50.8300 Br  0  0  0  0  0  0  0  0  0  0  0  0
   36.0370   29.2760   49.5770 C   0  0  0  0  0  0  0  0  0  0  0  0
   36.0040   30.2800   48.6020 C   0  0  0  0  0  0  0  0  0  0  0  0
   34.9480   30.2930   47.7310 C   0  0  0  0  0  0  0  0  0  0  0  0
   33.9200   29.3560   47.7760 C   0  0  0  0  0  0  0  0  0  0  0  0
   33.9750   28.3890   48.7340 C   0  0  0  0  0  0  0  0  0  0  0  0
   35.0290   28.3630   49.6180 C   0  0  0  0  0  0  0  0  0  0  0  0
   34.8570   31.0440   46.9480 H   0  0  0  0  0  0  0  0  0  0  0  0
   33.2340   27.6120   48.8640 H   0  0  0  0  0  0  0  0  0  0  0  0
   35.0870   27.5920   50.3920 H   0  0  0  0  0  0  0  0  0  0  0  0
   38.0270   33.1950   49.4390 C   0  0  0  0  0  0  0  0  0  0  0  0
   39.0420   33.1960   48.4360 C   0  0  0  0  0  0  0  0  0  0  0  0
   39.0030   32.1870   47.4950 C   0  0  0  0  0  0  0  0  0  0  0  0
   38.0100   31.2440   47.5560 N   0  0  0  0  0  0  0  0  0  0  0  0
   37.0600   31.2730   48.5260 C   0  0  0  0  0  0  0  0  0  0  0  0
   37.0810   32.2550   49.4590 N   0  0  0  0  0  0  0  0  0  0  0  0
   38.0950   34.0110   50.1660 H   0  0  0  0  0  0  0  0  0  0  0  0
   39.8310   33.9000   48.3430 H   0  0  0  0  0  0  0  0  0  0  0  0
   39.6990   32.0700   46.6920 H   0  0  0  0  0  0  0  0  0  0  0  0
  1 25  1  0  0  0  0
  2  1  1  0  0  0  0
  2  7  1  0  0  0  0
  3  2  2  0  0  0  0
  4  5  2  0  0  0  0
  4  3  1  0  0  0  0
  5  6  1  0  0  0  0
  6  1  2  0  0  0  0
  8  3  1  0  0  0  0
  9  5  1  0  0  0  0
 10  9  1  0  0  0  0
 10 11  1  0  0  0  0
 12 10  2  0  0  0  0
 13 19  1  0  0  0  0
 13 12  1  0  0  0  0
 14 13  2  0  0  0  0
 15 17  2  0  0  0  0
 15 14  1  0  0  0  0
 16 15  1  0  0  0  0
 17 18  1  0  0  0  0
 18 19  2  0  0  0  0
 19 20  1  0  0  0  0
 20  9  2  0  0  0  0
 22 27  1  0  0  0  0
 22 21  1  0  0  0  0
 23 22  2  0  0  0  0
 24 25  2  0  0  0  0
 24 23  1  0  0  0  0
 25 26  1  0  0  0  0
 26 29  1  0  0  0  0
 26 27  2  0  0  0  0
 27 30  1  0  0  0  0
 28 24  1  0  0  0  0
 31 36  1  0  0  0  0
 31 37  1  0  0  0  0
 32 31  2  0  0  0  0
 33 34  2  0  0  0  0
 33 32  1  0  0  0  0
 34 35  1  0  0  0  0
 35 23  1  0  0  0  0
 35 36  2  0  0  0  0
 38 32  1  0  0  0  0
 39 33  1  0  0  0  0
M  END
>  <minimizedAffinity>
-7.14309835

>  <minimizedRMSD>
0.734243095

$$$$
