
 OpenBabel03272510213D

 39 43  0  0  0  0  0  0  0  0999 V2000
   32.7930   29.3810   46.8550 C   0  0  0  0  0  0  0  0  0  0  0  0
   31.8980   28.3500   46.6850 C   0  0  0  0  0  0  0  0  0  0  0  0
   30.8360   28.4070   45.7920 C   0  0  0  0  0  0  0  0  0  0  0  0
   30.6620   29.5140   45.0490 N   0  0  0  0  0  0  0  0  0  0  0  0
   31.5290   30.5190   45.2090 C   0  0  0  0  0  0  0  0  0  0  0  0
   32.5420   30.4450   46.0730 N   0  0  0  0  0  0  0  0  0  0  0  0
   32.0450   27.4440   47.2960 H   0  0  0  0  0  0  0  0  0  0  0  0
   30.1970   27.5270   45.7510 H   0  0  0  0  0  0  0  0  0  0  0  0
   31.3560   31.7290   44.4130 C   0  0  0  0  0  0  0  0  0  0  0  0
   31.6960   32.9750   44.9340 C   0  0  0  0  0  0  0  0  0  0  0  0
   32.0880   33.0150   45.9430 H   0  0  0  0  0  0  0  0  0  0  0  0
   31.5730   34.1630   44.2710 C   0  0  0  0  0  3  0  0  0  0  0  0
   31.0730   34.1150   42.9870 C   0  0  0  0  0  0  0  0  0  0  0  0
   30.9400   35.2720   42.3120 N   0  0  0  0  0  0  0  0  0  0  0  0
   30.4630   35.3310   41.0530 C   0  0  0  0  0  0  0  0  0  0  0  0
   30.3720   36.2680   40.5460 H   0  0  0  0  0  0  0  0  0  0  0  0
   30.0990   34.1310   40.4550 C   0  0  0  0  0  3  0  0  0  0  0  0
   30.2180   32.9100   41.1150 C   0  0  0  0  0  3  0  0  0  0  0  0
   30.7140   32.9080   42.4040 C   0  0  0  0  0  0  0  0  0  0  0  0
   30.8680   31.7420   43.1390 C   0  0  0  0  0  3  0  0  0  0  0  0
   37.4700   29.1830   50.8240 Br  0  0  0  0  0  0  0  0  0  0  0  0
   36.0360   29.2790   49.5730 C   0  0  0  0  0  0  0  0  0  0  0  0
   36.0030   30.2860   48.6020 C   0  0  0  0  0  0  0  0  0  0  0  0
   34.9460   30.3040   47.7320 C   0  0  0  0  0  0  0  0  0  0  0  0
   33.9170   29.3680   47.7750 C   0  0  0  0  0  0  0  0  0  0  0  0
   33.9720   28.3980   48.7300 C   0  0  0  0  0  0  0  0  0  0  0  0
   35.0270   28.3670   49.6130 C   0  0  0  0  0  0  0  0  0  0  0  0
   34.8560   31.0570   46.9520 H   0  0  0  0  0  0  0  0  0  0  0  0
   33.2300   27.6210   48.8580 H   0  0  0  0  0  0  0  0  0  0  0  0
   35.0840   27.5940   50.3840 H   0  0  0  0  0  0  0  0  0  0  0  0
   38.0310   33.1970   49.4450 C   0  0  0  0  0  0  0  0  0  0  0  0
   39.0460   33.1980   48.4420 C   0  0  0  0  0  0  0  0  0  0  0  0
   39.0050   32.1910   47.4990 C   0  0  0  0  0  0  0  0  0  0  0  0
   38.0110   31.2490   47.5580 N   0  0  0  0  0  0  0  0  0  0  0  0
   37.0610   31.2780   48.5270 C   0  0  0  0  0  0  0  0  0  0  0  0
   37.0830   32.2580   49.4630 N   0  0  0  0  0  0  0  0  0  0  0  0
   38.0990   34.0110   50.1730 H   0  0  0  0  0  0  0  0  0  0  0  0
   39.8350   33.9010   48.3500 H   0  0  0  0  0  0  0  0  0  0  0  0
   39.7020   32.0740   46.6960 H   0  0  0  0  0  0  0  0  0  0  0  0
  1 25  1  0  0  0  0
  2  1  1  0  0  0  0
  2  7  1  0  0  0  0
  3  2  2  0  0  0  0
  4  5  2  0  0  0  0
  4  3  1  0  0  0  0
  5  6  1  0  0  0  0
  6  1  2  0  0  0  0
  8  3  1  0  0  0  0
  9 10  1  0  0  0  0
  9  5  1  0  0  0  0
 10 11  1  0  0  0  0
 12 10  2  0  0  0  0
 13 12  1  0  0  0  0
 14 13  2  0  0  0  0
 15 14  1  0  0  0  0
 16 15  1  0  0  0  0
 17 15  2  0  0  0  0
 17 18  1  0  0  0  0
 18 19  2  0  0  0  0
 19 13  1  0  0  0  0
 19 20  1  0  0  0  0
 20  9  2  0  0  0  0
 22 27  1  0  0  0  0
 22 21  1  0  0  0  0
 23 22  2  0  0  0  0
 24 25  2  0  0  0  0
 24 23  1  0  0  0  0
 25 26  1  0  0  0  0
 26 29  1  0  0  0  0
 26 27  2  0  0  0  0
 27 30  1  0  0  0  0
 28 24  1  0  0  0  0
 31 36  1  0  0  0  0
 31 37  1  0  0  0  0
 32 31  2  0  0  0  0
 33 34  2  0  0  0  0
 33 32  1  0  0  0  0
 34 35  1  0  0  0  0
 35 23  1  0  0  0  0
 35 36  2  0  0  0  0
 38 32  1  0  0  0  0
 39 33  1  0  0  0  0
M  END
>  <minimizedAffinity>
-7.15395308

>  <minimizedRMSD>
0.759699643

$$$$
