
 OpenBabel03272501583D

 34 37  0  0  0  0  0  0  0  0999 V2000
   33.0330   28.1350   47.7720 C   0  0  0  0  0  0  0  0  0  0  0  0
   32.5340   26.9430   48.2270 C   0  0  0  0  0  0  0  0  0  0  0  0
   31.1970   26.8200   47.8830 C   0  0  0  0  0  0  0  0  0  0  0  0
   30.9230   27.9580   47.2180 N   0  0  0  0  0  0  0  0  0  0  0  0
   31.9880   28.7330   47.1470 N   0  0  0  0  0  0  0  0  0  0  0  0
   33.0370   26.1510   48.7860 H   0  0  0  0  0  0  0  0  0  0  0  0
   30.4390   26.0630   48.0390 H   0  0  0  0  0  0  0  0  0  0  0  0
   29.7490   28.4710   46.5980 C   0  0  0  0  0  0  0  0  0  0  0  0
   28.5290   27.8290   46.6400 C   0  0  0  0  0  0  0  0  0  0  0  0
   28.4650   26.8990   47.1680 H   0  0  0  0  0  0  0  0  0  0  0  0
   27.4640   28.4410   45.9910 C   0  0  0  0  0  3  0  0  0  0  0  0
   27.6200   29.6380   45.3330 C   0  0  0  0  0  0  0  0  0  0  0  0
   26.5680   30.1960   44.7190 N   0  0  0  0  0  0  0  0  0  0  0  0
   26.6980   31.3710   44.0650 C   0  0  0  0  0  0  0  0  0  0  0  0
   25.8140   31.8010   43.5720 H   0  0  0  0  0  0  0  0  0  0  0  0
   27.9090   32.0390   44.0040 C   0  0  0  0  0  3  0  0  0  0  0  0
   29.0070   31.4890   44.6270 C   0  0  0  0  0  3  0  0  0  0  0  0
   28.8350   30.2900   45.2820 C   0  0  0  0  0  0  0  0  0  0  0  0
   29.9000   29.6780   45.9320 C   0  0  0  0  0  3  0  0  0  0  0  0
   34.4470   28.6210   47.9550 C   0  0  0  0  0  0  0  0  0  0  0  0
   35.1330   28.0950   47.2490 H   0  0  0  0  0  0  0  0  0  0  0  0
   34.4190   29.7010   47.7110 H   0  0  0  0  0  0  0  0  0  0  0  0
   34.8310   28.3160   49.3640 C   0  0  0  0  0  0  0  0  0  0  0  0
   35.1260   27.2550   49.5000 H   0  0  0  0  0  0  0  0  0  0  0  0
   33.9990   28.5280   50.0630 H   0  0  0  0  0  0  0  0  0  0  0  0
   37.2750   30.1810   51.4440 C   0  0  0  0  0  0  0  0  0  0  0  0
   38.1020   30.7650   50.4640 C   0  0  0  0  0  0  0  0  0  0  0  0
   37.8150   30.5160   49.1030 C   0  0  0  0  0  0  0  0  0  0  0  0
   36.7550   29.7240   48.8050 N   0  0  0  0  0  0  0  0  0  0  0  0
   35.9820   29.1790   49.7810 C   0  0  0  0  0  0  0  0  0  0  0  0
   36.2470   29.4090   51.0580 N   0  0  0  0  0  0  0  0  0  0  0  0
   37.4890   30.3660   52.4860 H   0  0  0  0  0  0  0  0  0  0  0  0
   38.9340   31.3870   50.6900 H   0  0  0  0  0  0  0  0  0  0  0  0
   38.3990   30.9250   48.2900 H   0  0  0  0  0  0  0  0  0  0  0  0
  1 20  1  0  0  0  0
  1  2  1  0  0  0  0
  2  6  1  0  0  0  0
  3  7  1  0  0  0  0
  3  2  2  0  0  0  0
  4  3  1  0  0  0  0
  5  4  1  0  0  0  0
  5  1  2  0  0  0  0
  8  9  1  0  0  0  0
  8  4  1  0  0  0  0
  9 10  1  0  0  0  0
 11  9  2  0  0  0  0
 12 11  1  0  0  0  0
 13 12  2  0  0  0  0
 14 13  1  0  0  0  0
 15 14  1  0  0  0  0
 16 14  2  0  0  0  0
 16 17  1  0  0  0  0
 17 18  2  0  0  0  0
 18 12  1  0  0  0  0
 18 19  1  0  0  0  0
 19  8  2  0  0  0  0
 20 23  1  0  0  0  0
 21 20  1  0  0  0  0
 22 20  1  0  0  0  0
 23 24  1  0  0  0  0
 23 30  1  0  0  0  0
 23 25  1  0  0  0  0
 26 32  1  0  0  0  0
 27 33  1  0  0  0  0
 27 26  2  0  0  0  0
 28 27  1  0  0  0  0
 29 28  2  0  0  0  0
 29 30  1  0  0  0  0
 30 31  2  0  0  0  0
 31 26  1  0  0  0  0
 34 28  1  0  0  0  0
M  END
>  <minimizedAffinity>
-5.35693932

>  <minimizedRMSD>
1.16442394

$$$$
