
 OpenBabel03272509583D

 49 53  0  0  0  0  0  0  0  0999 V2000
   33.5140   27.5470   47.6600 C   0  0  0  0  0  0  0  0  0  0  0  0
   33.7630   26.6240   48.1840 H   0  0  0  0  0  0  0  0  0  0  0  0
   33.6650   27.3420   46.5770 H   0  0  0  0  0  0  0  0  0  0  0  0
   32.0640   27.8520   47.8220 C   0  0  0  0  0  0  0  0  0  0  0  0
   31.4800   27.5250   49.0310 C   0  0  0  0  0  0  0  0  0  0  0  0
   30.1440   27.7660   49.2820 C   0  0  0  0  0  0  0  0  0  0  0  0
   29.3980   28.3310   48.3310 N   0  0  0  0  0  0  0  0  0  0  0  0
   29.9830   28.6480   47.1480 C   0  0  0  0  0  0  0  0  0  0  0  0
   31.2810   28.4200   46.8870 N   0  0  0  0  0  0  0  0  0  0  0  0
   32.0440   27.0670   49.8300 H   0  0  0  0  0  0  0  0  0  0  0  0
   29.6690   27.5120   50.2350 H   0  0  0  0  0  0  0  0  0  0  0  0
   29.1300   29.2750   46.1040 C   0  0  0  0  0  0  0  0  0  0  0  0
   28.3970   29.9860   46.5370 H   0  0  0  0  0  0  0  0  0  0  0  0
   29.8030   29.8900   45.4700 H   0  0  0  0  0  0  0  0  0  0  0  0
   28.4380   28.2350   45.2740 C   0  0  0  0  0  0  0  0  0  0  0  0
   27.4440   28.5360   44.3670 C   0  0  0  0  0  0  0  0  0  0  0  0
   27.1430   29.5680   44.2430 H   0  0  0  0  0  0  0  0  0  0  0  0
   26.8900   27.4790   43.6660 C   0  0  0  0  0  3  0  0  0  0  0  0
   27.3050   26.1650   43.8570 C   0  0  0  0  0  0  0  0  0  0  0  0
   26.7670   25.1480   43.1760 N   0  0  0  0  0  0  0  0  0  0  0  0
   27.2050   23.8920   43.3970 C   0  0  0  0  0  0  0  0  0  0  0  0
   26.8050   23.0220   42.8750 H   0  0  0  0  0  0  0  0  0  0  0  0
   28.2110   23.5780   44.3130 C   0  0  0  0  0  3  0  0  0  0  0  0
   28.7760   24.5970   45.0180 C   0  0  0  0  0  3  0  0  0  0  0  0
   28.3130   25.8790   44.7780 C   0  0  0  0  0  0  0  0  0  0  0  0
   28.8580   26.9180   45.4670 C   0  0  0  0  0  3  0  0  0  0  0  0
   34.3990   28.6490   48.1410 C   0  0  0  0  0  0  0  0  0  0  0  0
   33.8940   29.6360   48.1570 H   0  0  0  0  0  0  0  0  0  0  0  0
   35.2480   28.7440   47.4320 H   0  0  0  0  0  0  0  0  0  0  0  0
   34.9750   28.3490   49.3970 O   0  0  0  0  0  0  0  0  0  0  0  0
   37.2940   30.1560   51.4820 C   0  0  0  0  0  0  0  0  0  0  0  0
   38.0380   30.8510   50.4960 C   0  0  0  0  0  0  0  0  0  0  0  0
   37.6790   30.6400   49.1680 C   0  0  0  0  0  0  0  0  0  0  0  0
   36.6390   29.7780   48.9480 N   0  0  0  0  0  0  0  0  0  0  0  0
   35.9550   29.1400   49.8920 C   0  0  0  0  0  0  0  0  0  0  0  0
   36.2940   29.3350   51.1810 N   0  0  0  0  0  0  0  0  0  0  0  0
   37.6280   30.3690   52.4860 H   0  0  0  0  0  0  0  0  0  0  0  0
   38.8500   31.5190   50.6960 H   0  0  0  0  0  0  0  0  0  0  0  0
   38.9400   33.2390   49.0090 F   0  0  0  0  0  0  0  0  0  0  0  0
   38.9110   32.4590   47.9360 C   0  0  0  0  0  0  0  0  0  0  0  0
   38.3200   31.2560   48.0350 C   0  0  0  0  0  0  0  0  0  0  0  0
   38.3440   30.5140   46.8490 C   0  0  0  0  0  0  0  0  0  0  0  0
   38.9210   30.9820   45.7020 C   0  0  0  0  0  0  0  0  0  0  0  0
   39.5140   32.2240   45.6540 C   0  0  0  0  0  0  0  0  0  0  0  0
   39.4990   32.9560   46.7970 C   0  0  0  0  0  0  0  0  0  0  0  0
   37.9050   29.5250   46.7840 H   0  0  0  0  0  0  0  0  0  0  0  0
   38.9370   30.3940   44.7760 H   0  0  0  0  0  0  0  0  0  0  0  0
   39.9640   32.5750   44.7410 H   0  0  0  0  0  0  0  0  0  0  0  0
   39.9610   33.9350   46.7780 H   0  0  0  0  0  0  0  0  0  0  0  0
  1  4  1  0  0  0  0
  1 27  1  0  0  0  0
  1  2  1  0  0  0  0
  3  1  1  0  0  0  0
  4  5  1  0  0  0  0
  5  6  2  0  0  0  0
  5 10  1  0  0  0  0
  6 11  1  0  0  0  0
  7  6  1  0  0  0  0
  8  7  2  0  0  0  0
  9  8  1  0  0  0  0
  9  4  2  0  0  0  0
 12 13  1  0  0  0  0
 12  8  1  0  0  0  0
 14 12  1  0  0  0  0
 15 26  1  0  0  0  0
 15 12  1  0  0  0  0
 16 15  2  0  0  0  0
 17 16  1  0  0  0  0
 18 19  2  0  0  0  0
 18 16  1  0  0  0  0
 19 25  1  0  0  0  0
 20 21  2  0  0  0  0
 20 19  1  0  0  0  0
 21 23  1  0  0  0  0
 22 21  1  0  0  0  0
 23 24  2  0  0  0  0
 25 24  1  0  0  0  0
 25 26  2  0  0  0  0
 27 28  1  0  0  0  0
 27 30  1  0  0  0  0
 29 27  1  0  0  0  0
 30 35  1  0  0  0  0
 31 37  1  0  0  0  0
 32 38  1  0  0  0  0
 32 31  2  0  0  0  0
 33 32  1  0  0  0  0
 34 33  2  0  0  0  0
 34 35  1  0  0  0  0
 35 36  2  0  0  0  0
 36 31  1  0  0  0  0
 40 41  1  0  0  0  0
 40 39  1  0  0  0  0
 41 33  1  0  0  0  0
 42 41  2  0  0  0  0
 43 42  1  0  0  0  0
 44 43  2  0  0  0  0
 44 45  1  0  0  0  0
 45 40  2  0  0  0  0
 46 42  1  0  0  0  0
 47 43  1  0  0  0  0
 48 44  1  0  0  0  0
 49 45  1  0  0  0  0
M  END
>  <minimizedAffinity>
-7.03222179

>  <minimizedRMSD>
0.64894104

$$$$
