
 OpenBabel03262522583D

 28 31  0  0  0  0  0  0  0  0999 V2000
   37.8230   25.5290   34.9820 C   0  0  0  0  0  0  0  0  0  0  0  0
   37.7030   25.3300   33.6260 C   0  0  0  0  0  0  0  0  0  0  0  0
   37.0780   26.4210   33.0830 C   0  0  0  0  0  0  0  0  0  0  0  0
   36.8220   27.2730   34.1030 N   0  0  0  0  0  0  0  0  0  0  0  0
   37.2750   26.7220   35.2300 N   0  0  0  0  0  0  0  0  0  0  0  0
   38.0380   24.4680   33.0610 H   0  0  0  0  0  0  0  0  0  0  0  0
   36.8400   26.5590   32.0300 H   0  0  0  0  0  0  0  0  0  0  0  0
   36.1740   28.5210   33.9040 C   0  0  0  0  0  0  0  0  0  0  0  0
   35.4940   28.8990   32.7610 C   0  0  0  0  0  0  0  0  0  0  0  0
   35.4540   28.1820   31.9530 H   0  0  0  0  0  0  0  0  0  0  0  0
   34.9130   30.1670   32.7310 C   0  0  0  0  0  3  0  0  0  0  0  0
   35.0090   31.0230   33.8080 C   0  0  0  0  0  0  0  0  0  0  0  0
   34.4150   32.2190   33.6770 N   0  0  0  0  0  0  0  0  0  0  0  0
   34.4720   33.1020   34.6930 C   0  0  0  0  0  0  0  0  0  0  0  0
   34.0360   34.1050   34.7220 H   0  0  0  0  0  0  0  0  0  0  0  0
   35.1450   32.7480   35.8450 C   0  0  0  0  0  3  0  0  0  0  0  0
   35.7680   31.5190   36.0060 C   0  0  0  0  0  3  0  0  0  0  0  0
   35.6940   30.6300   34.9470 C   0  0  0  0  0  0  0  0  0  0  0  0
   36.2650   29.3890   34.9800 C   0  0  0  0  0  3  0  0  0  0  0  0
   40.0630   23.0660   36.5400 C   0  0  0  0  0  0  0  0  0  0  0  0
   39.4900   22.9360   37.8390 C   0  0  0  0  0  0  0  0  0  0  0  0
   38.3440   23.6990   38.1530 C   0  0  0  0  0  0  0  0  0  0  0  0
   37.8650   24.5100   37.1810 N   0  0  0  0  0  0  0  0  0  0  0  0
   38.4290   24.6170   35.9520 C   0  0  0  0  0  0  0  0  0  0  0  0
   39.5090   23.9020   35.6500 N   0  0  0  0  0  0  0  0  0  0  0  0
   40.9410   22.4680   36.3300 H   0  0  0  0  0  0  0  0  0  0  0  0
   39.8810   22.2840   38.6050 H   0  0  0  0  0  0  0  0  0  0  0  0
   37.8840   23.6260   39.1240 H   0  0  0  0  0  0  0  0  0  0  0  0
  1  5  2  0  0  0  0
  1 24  1  0  0  0  0
  2  1  1  0  0  0  0
  3  2  2  0  0  0  0
  3  4  1  0  0  0  0
  4  5  1  0  0  0  0
  6  2  1  0  0  0  0
  7  3  1  0  0  0  0
  8  4  1  0  0  0  0
  8 19  1  0  0  0  0
  9  8  2  0  0  0  0
 10  9  1  0  0  0  0
 11  9  1  0  0  0  0
 11 12  2  0  0  0  0
 12 18  1  0  0  0  0
 13 12  1  0  0  0  0
 13 14  2  0  0  0  0
 14 15  1  0  0  0  0
 14 16  1  0  0  0  0
 16 17  2  0  0  0  0
 18 19  2  0  0  0  0
 18 17  1  0  0  0  0
 20 21  1  0  0  0  0
 21 22  2  0  0  0  0
 21 27  1  0  0  0  0
 22 28  1  0  0  0  0
 23 22  1  0  0  0  0
 24 23  2  0  0  0  0
 25 24  1  0  0  0  0
 25 20  2  0  0  0  0
 26 20  1  0  0  0  0
M  END
>  <minimizedAffinity>
-5.60957289

$$$$

 OpenBabel03262522583D

 28 31  0  0  0  0  0  0  0  0999 V2000
   35.9050   28.6840   33.6670 C   0  0  0  0  0  0  0  0  0  0  0  0
   36.4630   28.3540   32.4530 C   0  0  0  0  0  0  0  0  0  0  0  0
   37.3490   27.3290   32.6490 C   0  0  0  0  0  0  0  0  0  0  0  0
   37.3280   27.0410   33.9710 N   0  0  0  0  0  0  0  0  0  0  0  0
   36.4580   27.8610   34.5630 N   0  0  0  0  0  0  0  0  0  0  0  0
   36.2530   28.8120   31.4930 H   0  0  0  0  0  0  0  0  0  0  0  0
   37.9490   26.8500   31.8770 H   0  0  0  0  0  0  0  0  0  0  0  0
   38.1340   26.0180   34.5380 C   0  0  0  0  0  0  0  0  0  0  0  0
   39.2060   25.4050   33.9160 C   0  0  0  0  0  0  0  0  0  0  0  0
   39.4480   25.7350   32.9160 H   0  0  0  0  0  0  0  0  0  0  0  0
   39.8930   24.4140   34.6170 C   0  0  0  0  0  3  0  0  0  0  0  0
   39.5190   24.0520   35.8950 C   0  0  0  0  0  0  0  0  0  0  0  0
   40.2470   23.0890   36.4810 N   0  0  0  0  0  0  0  0  0  0  0  0
   39.9330   22.6890   37.7280 C   0  0  0  0  0  0  0  0  0  0  0  0
   40.4360   21.9200   38.3220 H   0  0  0  0  0  0  0  0  0  0  0  0
   38.8660   23.2860   38.3700 C   0  0  0  0  0  3  0  0  0  0  0  0
   38.0990   24.2830   37.7870 C   0  0  0  0  0  3  0  0  0  0  0  0
   38.4420   24.6760   36.5050 C   0  0  0  0  0  0  0  0  0  0  0  0
   37.7670   25.6470   35.8200 C   0  0  0  0  0  3  0  0  0  0  0  0
   32.8530   30.7230   33.4760 C   0  0  0  0  0  0  0  0  0  0  0  0
   33.1050   31.7140   34.4710 C   0  0  0  0  0  0  0  0  0  0  0  0
   34.3200   31.6600   35.1880 C   0  0  0  0  0  0  0  0  0  0  0  0
   35.1710   30.6550   34.8710 N   0  0  0  0  0  0  0  0  0  0  0  0
   34.9080   29.7240   33.9210 C   0  0  0  0  0  0  0  0  0  0  0  0
   33.7650   29.7690   33.2420 N   0  0  0  0  0  0  0  0  0  0  0  0
   31.9130   30.7920   32.9440 H   0  0  0  0  0  0  0  0  0  0  0  0
   32.4170   32.5100   34.7120 H   0  0  0  0  0  0  0  0  0  0  0  0
   34.5440   32.3900   35.9450 H   0  0  0  0  0  0  0  0  0  0  0  0
  1 24  1  0  0  0  0
  1  5  2  0  0  0  0
  2  3  2  0  0  0  0
  2  1  1  0  0  0  0
  3  4  1  0  0  0  0
  4  8  1  0  0  0  0
  4  5  1  0  0  0  0
  6  2  1  0  0  0  0
  7  3  1  0  0  0  0
  8 19  1  0  0  0  0
  9  8  2  0  0  0  0
  9 11  1  0  0  0  0
 10  9  1  0  0  0  0
 11 12  2  0  0  0  0
 12 13  1  0  0  0  0
 12 18  1  0  0  0  0
 13 14  2  0  0  0  0
 14 15  1  0  0  0  0
 14 16  1  0  0  0  0
 17 16  2  0  0  0  0
 18 17  1  0  0  0  0
 19 18  2  0  0  0  0
 20 21  1  0  0  0  0
 21 27  1  0  0  0  0
 21 22  2  0  0  0  0
 22 28  1  0  0  0  0
 23 22  1  0  0  0  0
 24 23  2  0  0  0  0
 25 20  2  0  0  0  0
 25 24  1  0  0  0  0
 26 20  1  0  0  0  0
M  END
>  <minimizedAffinity>
-5.50877857

$$$$

 OpenBabel03262522583D

 28 31  0  0  0  0  0  0  0  0999 V2000
   35.9420   28.8300   33.7920 C   0  0  0  0  0  0  0  0  0  0  0  0
   36.2310   28.3170   32.5500 C   0  0  0  0  0  0  0  0  0  0  0  0
   37.0540   27.2340   32.7100 C   0  0  0  0  0  0  0  0  0  0  0  0
   37.2610   27.0950   34.0400 N   0  0  0  0  0  0  0  0  0  0  0  0
   36.5890   28.0590   34.6710 N   0  0  0  0  0  0  0  0  0  0  0  0
   35.8790   28.6860   31.5930 H   0  0  0  0  0  0  0  0  0  0  0  0
   37.4550   26.6150   31.9090 H   0  0  0  0  0  0  0  0  0  0  0  0
   38.0770   26.0630   34.5770 C   0  0  0  0  0  0  0  0  0  0  0  0
   39.1380   25.4590   33.9270 C   0  0  0  0  0  0  0  0  0  0  0  0
   39.3630   25.8050   32.9280 H   0  0  0  0  0  0  0  0  0  0  0  0
   39.8360   24.4570   34.6020 C   0  0  0  0  0  3  0  0  0  0  0  0
   39.4840   24.0750   35.8790 C   0  0  0  0  0  0  0  0  0  0  0  0
   40.2200   23.1030   36.4380 N   0  0  0  0  0  0  0  0  0  0  0  0
   39.9280   22.6840   37.6840 C   0  0  0  0  0  0  0  0  0  0  0  0
   40.4410   21.9050   38.2570 H   0  0  0  0  0  0  0  0  0  0  0  0
   38.8730   23.2710   38.3530 C   0  0  0  0  0  3  0  0  0  0  0  0
   38.0960   24.2770   37.7990 C   0  0  0  0  0  3  0  0  0  0  0  0
   38.4180   24.6900   36.5170 C   0  0  0  0  0  0  0  0  0  0  0  0
   37.7310   25.6720   35.8600 C   0  0  0  0  0  3  0  0  0  0  0  0
   34.5430   31.8120   35.4260 C   0  0  0  0  0  0  0  0  0  0  0  0
   33.4600   32.1360   34.5570 C   0  0  0  0  0  0  0  0  0  0  0  0
   33.2330   31.3220   33.4250 C   0  0  0  0  0  0  0  0  0  0  0  0
   34.0740   30.2760   33.2470 N   0  0  0  0  0  0  0  0  0  0  0  0
   35.0980   29.9890   34.0890 C   0  0  0  0  0  0  0  0  0  0  0  0
   35.3180   30.7510   35.1560 N   0  0  0  0  0  0  0  0  0  0  0  0
   34.6910   32.4540   36.2850 H   0  0  0  0  0  0  0  0  0  0  0  0
   32.7970   32.9730   34.7110 H   0  0  0  0  0  0  0  0  0  0  0  0
   32.4260   31.5370   32.7470 H   0  0  0  0  0  0  0  0  0  0  0  0
  1 24  1  0  0  0  0
  1  5  2  0  0  0  0
  2  3  2  0  0  0  0
  2  1  1  0  0  0  0
  3  4  1  0  0  0  0
  4  8  1  0  0  0  0
  4  5  1  0  0  0  0
  6  2  1  0  0  0  0
  7  3  1  0  0  0  0
  8 19  1  0  0  0  0
  9  8  2  0  0  0  0
  9 11  1  0  0  0  0
 10  9  1  0  0  0  0
 11 12  2  0  0  0  0
 12 13  1  0  0  0  0
 12 18  1  0  0  0  0
 13 14  2  0  0  0  0
 14 15  1  0  0  0  0
 14 16  1  0  0  0  0
 17 16  2  0  0  0  0
 18 17  1  0  0  0  0
 19 18  2  0  0  0  0
 20 26  1  0  0  0  0
 21 27  1  0  0  0  0
 21 20  2  0  0  0  0
 22 21  1  0  0  0  0
 23 22  2  0  0  0  0
 23 24  1  0  0  0  0
 24 25  2  0  0  0  0
 25 20  1  0  0  0  0
 28 22  1  0  0  0  0
M  END
>  <minimizedAffinity>
-5.48328972

$$$$

 OpenBabel03262522583D

 28 31  0  0  0  0  0  0  0  0999 V2000
   38.0590   24.8810   34.7420 C   0  0  0  0  0  0  0  0  0  0  0  0
   37.8900   24.2160   33.5500 C   0  0  0  0  0  0  0  0  0  0  0  0
   37.5520   25.1310   32.5890 C   0  0  0  0  0  0  0  0  0  0  0  0
   37.5160   26.3400   33.1960 N   0  0  0  0  0  0  0  0  0  0  0  0
   37.8220   26.1700   34.4830 N   0  0  0  0  0  0  0  0  0  0  0  0
   38.0010   23.1520   33.3750 H   0  0  0  0  0  0  0  0  0  0  0  0
   37.3530   24.9100   31.5410 H   0  0  0  0  0  0  0  0  0  0  0  0
   37.1960   27.5330   32.4930 C   0  0  0  0  0  0  0  0  0  0  0  0
   36.3530   28.5300   32.9490 C   0  0  0  0  0  0  0  0  0  0  0  0
   35.9030   28.3870   33.9210 H   0  0  0  0  0  0  0  0  0  0  0  0
   36.1460   29.6400   32.1290 C   0  0  0  0  0  3  0  0  0  0  0  0
   36.7620   29.7450   30.8990 C   0  0  0  0  0  0  0  0  0  0  0  0
   36.4950   30.8530   30.1900 N   0  0  0  0  0  0  0  0  0  0  0  0
   37.0650   31.0180   28.9810 C   0  0  0  0  0  0  0  0  0  0  0  0
   36.9380   31.8640   28.3000 H   0  0  0  0  0  0  0  0  0  0  0  0
   37.9100   30.0350   28.5040 C   0  0  0  0  0  3  0  0  0  0  0  0
   38.2010   28.8820   29.2170 C   0  0  0  0  0  3  0  0  0  0  0  0
   37.6040   28.7380   30.4560 C   0  0  0  0  0  0  0  0  0  0  0  0
   37.8090   27.6490   31.2570 C   0  0  0  0  0  3  0  0  0  0  0  0
   39.7550   22.8820   37.3190 C   0  0  0  0  0  0  0  0  0  0  0  0
   39.0280   23.2450   38.4910 C   0  0  0  0  0  0  0  0  0  0  0  0
   37.9690   24.1710   38.3710 C   0  0  0  0  0  0  0  0  0  0  0  0
   37.7160   24.6530   37.1310 N   0  0  0  0  0  0  0  0  0  0  0  0
   38.4230   24.2920   36.0320 C   0  0  0  0  0  0  0  0  0  0  0  0
   39.4230   23.4210   36.1370 N   0  0  0  0  0  0  0  0  0  0  0  0
   40.5610   22.1700   37.4440 H   0  0  0  0  0  0  0  0  0  0  0  0
   39.2390   22.8520   39.4740 H   0  0  0  0  0  0  0  0  0  0  0  0
   37.3980   24.4680   39.2340 H   0  0  0  0  0  0  0  0  0  0  0  0
  1 24  1  0  0  0  0
  2  1  1  0  0  0  0
  3  4  1  0  0  0  0
  3  2  2  0  0  0  0
  4  5  1  0  0  0  0
  5  1  2  0  0  0  0
  6  2  1  0  0  0  0
  7  3  1  0  0  0  0
  8  9  1  0  0  0  0
  8  4  1  0  0  0  0
  9 10  1  0  0  0  0
 11  9  2  0  0  0  0
 12 11  1  0  0  0  0
 13 12  2  0  0  0  0
 14 13  1  0  0  0  0
 15 14  1  0  0  0  0
 16 14  2  0  0  0  0
 16 17  1  0  0  0  0
 17 18  2  0  0  0  0
 18 12  1  0  0  0  0
 18 19  1  0  0  0  0
 19  8  2  0  0  0  0
 20 26  1  0  0  0  0
 20 21  1  0  0  0  0
 21 27  1  0  0  0  0
 22 21  2  0  0  0  0
 22 28  1  0  0  0  0
 23 22  1  0  0  0  0
 24 25  1  0  0  0  0
 24 23  2  0  0  0  0
 25 20  2  0  0  0  0
M  END
>  <minimizedAffinity>
-5.36860275

$$$$

 OpenBabel03262522583D

 28 31  0  0  0  0  0  0  0  0999 V2000
   37.5810   27.4190   32.8540 C   0  0  0  0  0  0  0  0  0  0  0  0
   36.7900   27.8030   33.9120 C   0  0  0  0  0  0  0  0  0  0  0  0
   37.0610   26.9830   34.9740 C   0  0  0  0  0  0  0  0  0  0  0  0
   38.0090   26.1090   34.5610 N   0  0  0  0  0  0  0  0  0  0  0  0
   38.3070   26.3860   33.2910 N   0  0  0  0  0  0  0  0  0  0  0  0
   36.0700   28.6130   33.9270 H   0  0  0  0  0  0  0  0  0  0  0  0
   36.5940   27.0370   35.9560 H   0  0  0  0  0  0  0  0  0  0  0  0
   38.5350   25.1010   35.4130 C   0  0  0  0  0  0  0  0  0  0  0  0
   37.9220   24.6160   36.5540 C   0  0  0  0  0  0  0  0  0  0  0  0
   36.9640   25.0410   36.8160 H   0  0  0  0  0  0  0  0  0  0  0  0
   38.5790   23.6210   37.2790 C   0  0  0  0  0  3  0  0  0  0  0  0
   39.8040   23.1320   36.8750 C   0  0  0  0  0  0  0  0  0  0  0  0
   40.3490   22.1760   37.6420 N   0  0  0  0  0  0  0  0  0  0  0  0
   41.5440   21.6550   37.3030 C   0  0  0  0  0  0  0  0  0  0  0  0
   42.1010   20.8770   37.8330 H   0  0  0  0  0  0  0  0  0  0  0  0
   42.1750   22.1240   36.1680 C   0  0  0  0  0  3  0  0  0  0  0  0
   41.6330   23.1100   35.3580 C   0  0  0  0  0  3  0  0  0  0  0  0
   40.4050   23.6280   35.7290 C   0  0  0  0  0  0  0  0  0  0  0  0
   39.7640   24.6030   35.0160 C   0  0  0  0  0  3  0  0  0  0  0  0
   38.4540   28.1100   29.3510 C   0  0  0  0  0  0  0  0  0  0  0  0
   37.6110   29.2210   29.0570 C   0  0  0  0  0  0  0  0  0  0  0  0
   36.7590   29.7110   30.0700 C   0  0  0  0  0  0  0  0  0  0  0  0
   36.8060   29.0790   31.2660 N   0  0  0  0  0  0  0  0  0  0  0  0
   37.6170   28.0230   31.5210 C   0  0  0  0  0  0  0  0  0  0  0  0
   38.4220   27.5550   30.5710 N   0  0  0  0  0  0  0  0  0  0  0  0
   39.0970   27.7570   28.5530 H   0  0  0  0  0  0  0  0  0  0  0  0
   37.5840   29.7170   28.0980 H   0  0  0  0  0  0  0  0  0  0  0  0
   36.1090   30.5480   29.8840 H   0  0  0  0  0  0  0  0  0  0  0  0
  1  5  2  0  0  0  0
  1  2  1  0  0  0  0
  2  6  1  0  0  0  0
  2  3  2  0  0  0  0
  3  7  1  0  0  0  0
  4  3  1  0  0  0  0
  4  8  1  0  0  0  0
  5  4  1  0  0  0  0
  8  9  1  0  0  0  0
  9 10  1  0  0  0  0
  9 11  2  0  0  0  0
 12 11  1  0  0  0  0
 12 13  1  0  0  0  0
 14 13  2  0  0  0  0
 14 15  1  0  0  0  0
 16 14  1  0  0  0  0
 17 18  1  0  0  0  0
 17 16  2  0  0  0  0
 18 12  2  0  0  0  0
 19  8  2  0  0  0  0
 19 18  1  0  0  0  0
 20 25  1  0  0  0  0
 21 20  2  0  0  0  0
 21 22  1  0  0  0  0
 22 23  2  0  0  0  0
 23 24  1  0  0  0  0
 24  1  1  0  0  0  0
 25 24  2  0  0  0  0
 26 20  1  0  0  0  0
 27 21  1  0  0  0  0
 28 22  1  0  0  0  0
M  END
>  <minimizedAffinity>
-5.34482336

$$$$

 OpenBabel03262522583D

 28 31  0  0  0  0  0  0  0  0999 V2000
   36.6940   27.7710   33.8900 C   0  0  0  0  0  0  0  0  0  0  0  0
   37.4840   27.2710   32.8810 C   0  0  0  0  0  0  0  0  0  0  0  0
   38.2050   26.2180   33.3780 C   0  0  0  0  0  0  0  0  0  0  0  0
   37.8550   26.0840   34.6780 N   0  0  0  0  0  0  0  0  0  0  0  0
   36.9500   27.0210   34.9660 N   0  0  0  0  0  0  0  0  0  0  0  0
   37.5420   27.6300   31.8600 H   0  0  0  0  0  0  0  0  0  0  0  0
   38.9210   25.6170   32.8200 H   0  0  0  0  0  0  0  0  0  0  0  0
   38.4130   25.0800   35.5150 C   0  0  0  0  0  0  0  0  0  0  0  0
   37.8380   24.5910   36.6740 C   0  0  0  0  0  0  0  0  0  0  0  0
   36.8850   25.0090   36.9640 H   0  0  0  0  0  0  0  0  0  0  0  0
   38.5230   23.6010   37.3790 C   0  0  0  0  0  3  0  0  0  0  0  0
   39.7390   23.1210   36.9390 C   0  0  0  0  0  0  0  0  0  0  0  0
   40.3140   22.1690   37.6900 N   0  0  0  0  0  0  0  0  0  0  0  0
   41.5020   21.6570   37.3150 C   0  0  0  0  0  0  0  0  0  0  0  0
   42.0800   20.8840   37.8290 H   0  0  0  0  0  0  0  0  0  0  0  0
   42.0960   22.1300   36.1620 C   0  0  0  0  0  3  0  0  0  0  0  0
   41.5230   23.1110   35.3680 C   0  0  0  0  0  3  0  0  0  0  0  0
   40.3020   23.6210   35.7750 C   0  0  0  0  0  0  0  0  0  0  0  0
   39.6340   24.5900   35.0820 C   0  0  0  0  0  3  0  0  0  0  0  0
   34.0570   30.0420   32.7070 C   0  0  0  0  0  0  0  0  0  0  0  0
   34.0620   31.0430   33.7220 C   0  0  0  0  0  0  0  0  0  0  0  0
   34.9720   30.9170   34.7940 C   0  0  0  0  0  0  0  0  0  0  0  0
   35.7880   29.8360   34.7780 N   0  0  0  0  0  0  0  0  0  0  0  0
   35.7640   28.8970   33.8000 C   0  0  0  0  0  0  0  0  0  0  0  0
   34.9090   29.0090   32.7880 N   0  0  0  0  0  0  0  0  0  0  0  0
   33.3480   30.1670   31.8980 H   0  0  0  0  0  0  0  0  0  0  0  0
   33.4060   31.9010   33.7220 H   0  0  0  0  0  0  0  0  0  0  0  0
   35.0030   31.6530   35.5780 H   0  0  0  0  0  0  0  0  0  0  0  0
  1  5  2  0  0  0  0
  2  3  2  0  0  0  0
  2  1  1  0  0  0  0
  3  4  1  0  0  0  0
  4  5  1  0  0  0  0
  4  8  1  0  0  0  0
  6  2  1  0  0  0  0
  7  3  1  0  0  0  0
  8  9  1  0  0  0  0
  9 10  1  0  0  0  0
  9 11  2  0  0  0  0
 12 11  1  0  0  0  0
 12 13  1  0  0  0  0
 14 13  2  0  0  0  0
 14 15  1  0  0  0  0
 16 14  1  0  0  0  0
 17 18  1  0  0  0  0
 17 16  2  0  0  0  0
 18 12  2  0  0  0  0
 19  8  2  0  0  0  0
 19 18  1  0  0  0  0
 20 25  2  0  0  0  0
 20 21  1  0  0  0  0
 21 22  2  0  0  0  0
 22 28  1  0  0  0  0
 23 22  1  0  0  0  0
 24  1  1  0  0  0  0
 24 23  2  0  0  0  0
 25 24  1  0  0  0  0
 26 20  1  0  0  0  0
 27 21  1  0  0  0  0
M  END
>  <minimizedAffinity>
-5.34277582

$$$$

 OpenBabel03262522583D

 28 31  0  0  0  0  0  0  0  0999 V2000
   37.9570   25.1210   34.8450 C   0  0  0  0  0  0  0  0  0  0  0  0
   37.7830   24.6430   33.5670 C   0  0  0  0  0  0  0  0  0  0  0  0
   37.3040   25.6600   32.7860 C   0  0  0  0  0  0  0  0  0  0  0  0
   37.1900   26.7460   33.5860 N   0  0  0  0  0  0  0  0  0  0  0  0
   37.5850   26.4040   34.8130 N   0  0  0  0  0  0  0  0  0  0  0  0
   37.9830   23.6380   33.2140 H   0  0  0  0  0  0  0  0  0  0  0  0
   37.0660   25.5910   31.7260 H   0  0  0  0  0  0  0  0  0  0  0  0
   36.7170   27.9970   33.1050 C   0  0  0  0  0  0  0  0  0  0  0  0
   35.8480   28.8370   33.7750 C   0  0  0  0  0  0  0  0  0  0  0  0
   35.5020   28.5130   34.7460 H   0  0  0  0  0  0  0  0  0  0  0  0
   35.4840   30.0340   33.1570 C   0  0  0  0  0  3  0  0  0  0  0  0
   35.9740   30.3740   31.9130 C   0  0  0  0  0  0  0  0  0  0  0  0
   35.5610   31.5470   31.4080 N   0  0  0  0  0  0  0  0  0  0  0  0
   36.0030   31.9380   30.1970 C   0  0  0  0  0  0  0  0  0  0  0  0
   35.7500   32.8620   29.6680 H   0  0  0  0  0  0  0  0  0  0  0  0
   36.8720   31.1150   29.5080 C   0  0  0  0  0  3  0  0  0  0  0  0
   37.3130   29.9000   30.0070 C   0  0  0  0  0  3  0  0  0  0  0  0
   36.8440   29.5210   31.2530 C   0  0  0  0  0  0  0  0  0  0  0  0
   37.2030   28.3480   31.8560 C   0  0  0  0  0  3  0  0  0  0  0  0
   38.3080   23.7750   38.2480 C   0  0  0  0  0  0  0  0  0  0  0  0
   39.4510   22.9340   38.1090 C   0  0  0  0  0  0  0  0  0  0  0  0
   40.0780   22.8460   36.8470 C   0  0  0  0  0  0  0  0  0  0  0  0
   39.5390   23.5810   35.8450 N   0  0  0  0  0  0  0  0  0  0  0  0
   38.4500   24.3740   36.0030 C   0  0  0  0  0  0  0  0  0  0  0  0
   37.8540   24.4610   37.1880 N   0  0  0  0  0  0  0  0  0  0  0  0
   37.8500   23.8220   39.2280 H   0  0  0  0  0  0  0  0  0  0  0  0
   39.8700   22.3540   38.9170 H   0  0  0  0  0  0  0  0  0  0  0  0
   40.9420   22.2210   36.7050 H   0  0  0  0  0  0  0  0  0  0  0  0
  1 24  1  0  0  0  0
  2  1  1  0  0  0  0
  3  2  2  0  0  0  0
  3  4  1  0  0  0  0
  4  5  1  0  0  0  0
  5  1  2  0  0  0  0
  6  2  1  0  0  0  0
  7  3  1  0  0  0  0
  8  4  1  0  0  0  0
  8  9  1  0  0  0  0
  9 10  1  0  0  0  0
 11  9  2  0  0  0  0
 12 11  1  0  0  0  0
 13 12  1  0  0  0  0
 14 13  2  0  0  0  0
 15 14  1  0  0  0  0
 16 17  2  0  0  0  0
 16 14  1  0  0  0  0
 17 18  1  0  0  0  0
 18 19  1  0  0  0  0
 18 12  2  0  0  0  0
 19  8  2  0  0  0  0
 20 26  1  0  0  0  0
 21 20  1  0  0  0  0
 21 27  1  0  0  0  0
 22 21  2  0  0  0  0
 23 24  2  0  0  0  0
 23 22  1  0  0  0  0
 24 25  1  0  0  0  0
 25 20  2  0  0  0  0
 28 22  1  0  0  0  0
M  END
>  <minimizedAffinity>
-5.31707621

$$$$

 OpenBabel03262522583D

 28 31  0  0  0  0  0  0  0  0999 V2000
   35.7650   29.5450   34.0620 C   0  0  0  0  0  0  0  0  0  0  0  0
   35.9040   29.3080   32.7150 C   0  0  0  0  0  0  0  0  0  0  0  0
   36.4900   28.0810   32.5500 C   0  0  0  0  0  0  0  0  0  0  0  0
   36.7040   27.5810   33.7900 N   0  0  0  0  0  0  0  0  0  0  0  0
   36.2640   28.4710   34.6810 N   0  0  0  0  0  0  0  0  0  0  0  0
   35.6090   29.9620   31.9030 H   0  0  0  0  0  0  0  0  0  0  0  0
   36.7310   27.6130   31.5970 H   0  0  0  0  0  0  0  0  0  0  0  0
   37.3030   26.3110   34.0020 C   0  0  0  0  0  0  0  0  0  0  0  0
   37.6710   25.4210   33.0100 C   0  0  0  0  0  0  0  0  0  0  0  0
   37.4860   25.7210   31.9880 H   0  0  0  0  0  0  0  0  0  0  0  0
   38.2510   24.2120   33.3940 C   0  0  0  0  0  3  0  0  0  0  0  0
   38.4530   23.9060   34.7240 C   0  0  0  0  0  0  0  0  0  0  0  0
   39.0180   22.7170   34.9850 N   0  0  0  0  0  0  0  0  0  0  0  0
   39.2430   22.3580   36.2630 C   0  0  0  0  0  0  0  0  0  0  0  0
   39.6920   21.4250   36.6190 H   0  0  0  0  0  0  0  0  0  0  0  0
   38.8840   23.2290   37.2720 C   0  0  0  0  0  3  0  0  0  0  0  0
   38.2990   24.4620   37.0290 C   0  0  0  0  0  3  0  0  0  0  0  0
   38.0790   24.8070   35.7070 C   0  0  0  0  0  0  0  0  0  0  0  0
   37.5110   25.9940   35.3350 C   0  0  0  0  0  3  0  0  0  0  0  0
   33.6150   32.4510   34.7300 C   0  0  0  0  0  0  0  0  0  0  0  0
   34.1800   32.9570   35.9370 C   0  0  0  0  0  0  0  0  0  0  0  0
   35.2890   32.2880   36.4980 C   0  0  0  0  0  0  0  0  0  0  0  0
   35.7430   31.1980   35.8360 N   0  0  0  0  0  0  0  0  0  0  0  0
   35.1880   30.7360   34.6880 C   0  0  0  0  0  0  0  0  0  0  0  0
   34.1420   31.3600   34.1550 N   0  0  0  0  0  0  0  0  0  0  0  0
   32.7650   32.9860   34.3240 H   0  0  0  0  0  0  0  0  0  0  0  0
   33.8080   33.8290   36.4540 H   0  0  0  0  0  0  0  0  0  0  0  0
   35.7410   32.6410   37.4080 H   0  0  0  0  0  0  0  0  0  0  0  0
  1  5  2  0  0  0  0
  1 24  1  0  0  0  0
  2  1  1  0  0  0  0
  3  2  2  0  0  0  0
  3  4  1  0  0  0  0
  4  8  1  0  0  0  0
  4  5  1  0  0  0  0
  6  2  1  0  0  0  0
  7  3  1  0  0  0  0
  8 19  1  0  0  0  0
  9 11  1  0  0  0  0
  9  8  2  0  0  0  0
 10  9  1  0  0  0  0
 11 12  2  0  0  0  0
 12 13  1  0  0  0  0
 12 18  1  0  0  0  0
 13 14  2  0  0  0  0
 14 15  1  0  0  0  0
 14 16  1  0  0  0  0
 17 16  2  0  0  0  0
 18 17  1  0  0  0  0
 19 18  2  0  0  0  0
 20 21  1  0  0  0  0
 21 27  1  0  0  0  0
 21 22  2  0  0  0  0
 22 28  1  0  0  0  0
 23 22  1  0  0  0  0
 24 23  2  0  0  0  0
 25 24  1  0  0  0  0
 25 20  2  0  0  0  0
 26 20  1  0  0  0  0
M  END
>  <minimizedAffinity>
-5.31398582

$$$$

 OpenBabel03262522583D

 28 31  0  0  0  0  0  0  0  0999 V2000
   37.2760   28.3070   31.6870 C   0  0  0  0  0  0  0  0  0  0  0  0
   37.4580   27.4470   32.7460 C   0  0  0  0  0  0  0  0  0  0  0  0
   36.6560   27.8560   33.7770 C   0  0  0  0  0  0  0  0  0  0  0  0
   35.9940   28.9550   33.3450 N   0  0  0  0  0  0  0  0  0  0  0  0
   36.3790   29.2090   32.0940 N   0  0  0  0  0  0  0  0  0  0  0  0
   38.1160   26.5870   32.7820 H   0  0  0  0  0  0  0  0  0  0  0  0
   36.5770   27.3770   34.7520 H   0  0  0  0  0  0  0  0  0  0  0  0
   35.0660   29.6530   34.1640 C   0  0  0  0  0  0  0  0  0  0  0  0
   33.7140   29.3770   34.2570 C   0  0  0  0  0  0  0  0  0  0  0  0
   33.3360   28.5620   33.6560 H   0  0  0  0  0  0  0  0  0  0  0  0
   32.9410   30.1620   35.1130 C   0  0  0  0  0  3  0  0  0  0  0  0
   33.5030   31.1850   35.8480 C   0  0  0  0  0  0  0  0  0  0  0  0
   32.6720   31.8790   36.6410 N   0  0  0  0  0  0  0  0  0  0  0  0
   33.1580   32.8910   37.3850 C   0  0  0  0  0  0  0  0  0  0  0  0
   32.5990   33.5360   38.0690 H   0  0  0  0  0  0  0  0  0  0  0  0
   34.5050   33.1860   37.3090 C   0  0  0  0  0  3  0  0  0  0  0  0
   35.3840   32.4850   36.4980 C   0  0  0  0  0  3  0  0  0  0  0  0
   34.8600   31.4500   35.7440 C   0  0  0  0  0  0  0  0  0  0  0  0
   35.6200   30.6820   34.9060 C   0  0  0  0  0  3  0  0  0  0  0  0
   39.4920   27.2940   28.9350 C   0  0  0  0  0  0  0  0  0  0  0  0
   39.1090   28.2040   27.9060 C   0  0  0  0  0  0  0  0  0  0  0  0
   38.0950   29.1480   28.1790 C   0  0  0  0  0  0  0  0  0  0  0  0
   37.5530   29.1190   29.4200 N   0  0  0  0  0  0  0  0  0  0  0  0
   37.9350   28.2430   30.3820 C   0  0  0  0  0  0  0  0  0  0  0  0
   38.8890   27.3510   30.1310 N   0  0  0  0  0  0  0  0  0  0  0  0
   40.2730   26.5830   28.6940 H   0  0  0  0  0  0  0  0  0  0  0  0
   39.5500   28.2160   26.9200 H   0  0  0  0  0  0  0  0  0  0  0  0
   37.7800   29.8490   27.4270 H   0  0  0  0  0  0  0  0  0  0  0  0
  1  5  2  0  0  0  0
  1  2  1  0  0  0  0
  2  6  1  0  0  0  0
  2  3  2  0  0  0  0
  3  7  1  0  0  0  0
  4  3  1  0  0  0  0
  4  8  1  0  0  0  0
  5  4  1  0  0  0  0
  8  9  2  0  0  0  0
  8 19  1  0  0  0  0
  9 11  1  0  0  0  0
 10  9  1  0  0  0  0
 11 12  2  0  0  0  0
 12 13  1  0  0  0  0
 13 14  2  0  0  0  0
 14 15  1  0  0  0  0
 16 14  1  0  0  0  0
 17 16  2  0  0  0  0
 18 12  1  0  0  0  0
 18 17  1  0  0  0  0
 19 18  2  0  0  0  0
 20 25  1  0  0  0  0
 21 22  1  0  0  0  0
 21 20  2  0  0  0  0
 22 23  2  0  0  0  0
 23 24  1  0  0  0  0
 24  1  1  0  0  0  0
 25 24  2  0  0  0  0
 26 20  1  0  0  0  0
 27 21  1  0  0  0  0
 28 22  1  0  0  0  0
M  END
>  <minimizedAffinity>
-5.15432167

$$$$
