
 OpenBabel03272503033D

 31 34  0  0  0  0  0  0  0  0999 V2000
   37.9760   30.5020   47.2790 F   0  0  0  0  0  0  0  0  0  0  0  0
   38.4310   31.6660   47.7960 C   0  0  0  0  0  0  0  0  0  0  0  0
   38.1190   32.0040   49.0750 C   0  0  0  0  0  0  0  0  0  0  0  0
   38.6160   33.1990   49.5300 C   0  0  0  0  0  0  0  0  0  0  0  0
   39.3930   34.0350   48.7570 C   0  0  0  0  0  0  0  0  0  0  0  0
   39.6940   33.6660   47.4670 C   0  0  0  0  0  0  0  0  0  0  0  0
   39.2040   32.4620   46.9770 C   0  0  0  0  0  0  0  0  0  0  0  0
   38.3730   33.4860   50.5580 H   0  0  0  0  0  0  0  0  0  0  0  0
   39.7560   34.9700   49.1800 H   0  0  0  0  0  0  0  0  0  0  0  0
   40.3050   34.3110   46.8410 H   0  0  0  0  0  0  0  0  0  0  0  0
   39.5450   32.1060   45.6030 C   0  0  0  0  0  0  0  0  0  0  0  0
   40.6000   31.2750   45.2720 C   0  0  0  0  0  0  0  0  0  0  0  0
   41.2110   30.8610   46.0500 H   0  0  0  0  0  0  0  0  0  0  0  0
   40.8100   31.0220   43.9330 C   0  0  0  0  0  0  0  0  0  0  0  0
   40.0110   31.5660   42.9480 C   0  0  0  0  0  0  0  0  0  0  0  0
   40.1890   31.3380   41.6200 N   0  0  0  0  0  0  0  0  0  0  0  0
   39.3810   31.8930   40.6950 C   0  0  0  0  0  0  0  0  0  0  0  0
   39.5820   31.6670   39.6420 H   0  0  0  0  0  0  0  0  0  0  0  0
   38.3230   32.7260   40.9990 C   0  0  0  0  0  0  0  0  0  0  0  0
   38.1110   32.9810   42.3590 C   0  0  0  0  0  0  0  0  0  0  0  0
   38.9590   32.3950   43.2790 C   0  0  0  0  0  0  0  0  0  0  0  0
   38.7300   32.6630   44.6360 C   0  0  0  0  0  0  0  0  0  0  0  0
   36.9430   29.5630   51.7200 C   0  0  0  0  0  0  0  0  0  0  0  0
   37.7620   30.4380   50.9910 C   0  0  0  0  0  0  0  0  0  0  0  0
   37.2910   31.0870   49.8560 C   0  0  0  0  0  0  0  0  0  0  0  0
   36.0090   30.8290   49.4980 N   0  0  0  0  0  0  0  0  0  0  0  0
   35.2370   29.9840   50.2110 C   0  0  0  0  0  0  0  0  0  0  0  0
   35.6920   29.3570   51.3060 N   0  0  0  0  0  0  0  0  0  0  0  0
   37.5010   29.1640   52.5650 H   0  0  0  0  0  0  0  0  0  0  0  0
   38.7910   30.6860   51.2230 H   0  0  0  0  0  0  0  0  0  0  0  0
   34.2190   29.7940   49.9060 H   0  0  0  0  0  0  0  0  0  0  0  0
  1  2  1  0  0  0  0
  2  3  1  0  0  0  0
  3  4  2  0  0  0  0
  3 25  1  0  0  0  0
  4  8  1  0  0  0  0
  5  9  1  0  0  0  0
  5  4  1  0  0  0  0
  6  5  2  0  0  0  0
  7  6  1  0  0  0  0
  7  2  2  0  0  0  0
 10  6  1  0  0  0  0
 11  7  1  0  0  0  0
 12 11  1  0  0  0  0
 12 13  1  0  0  0  0
 14 12  2  0  0  0  0
 15 21  1  0  0  0  0
 15 14  1  0  0  0  0
 16 15  2  0  0  0  0
 17 19  2  0  0  0  0
 17 16  1  0  0  0  0
 18 17  1  0  0  0  0
 19 20  1  0  0  0  0
 20 21  2  0  0  0  0
 21 22  1  0  0  0  0
 22 11  2  0  0  0  0
 23 29  1  0  0  0  0
 24 30  1  0  0  0  0
 24 23  2  0  0  0  0
 25 24  1  0  0  0  0
 26 25  2  0  0  0  0
 26 27  1  0  0  0  0
 27 28  2  0  0  0  0
 28 23  1  0  0  0  0
 31 27  1  0  0  0  0
M  END
>  <minimizedAffinity>
-7.41770649

>  <minimizedRMSD>
0.584264457

$$$$
