
 OpenBabel03272505313D

 43 47  0  0  0  0  0  0  0  0999 V2000
   37.3950   31.2440   47.0190 N   0  0  0  0  0  0  0  0  0  0  0  0
   36.6970   31.0540   45.8670 C   0  0  0  0  0  0  0  0  0  0  0  0
   37.1080   31.5910   44.6630 C   0  0  0  0  0  0  0  0  0  0  0  0
   38.2880   32.3500   44.6740 C   0  0  0  0  0  0  0  0  0  0  0  0
   38.7070   32.8630   43.6010 O   0  0  0  0  0  0  0  0  0  0  0  0
   38.9880   32.5390   45.8330 N   0  0  0  0  0  0  0  0  0  0  0  0
   38.4870   31.9700   46.9190 C   0  0  0  0  0  0  0  0  0  0  0  0
   39.1530   32.1640   47.9640 O   0  0  0  0  0  0  0  0  0  0  0  0
   35.7930   30.4690   45.8740 H   0  0  0  0  0  0  0  0  0  0  0  0
   37.4200   29.5340   50.3240 C   0  0  0  0  0  0  0  0  0  0  0  0
   37.8400   30.0930   49.1090 C   0  0  0  0  0  0  0  0  0  0  0  0
   36.9600   30.6890   48.2290 C   0  0  0  0  0  0  0  0  0  0  0  0
   35.6730   30.7100   48.5900 N   0  0  0  0  0  0  0  0  0  0  0  0
   35.2210   30.1800   49.7590 C   0  0  0  0  0  0  0  0  0  0  0  0
   36.1070   29.5950   50.6150 N   0  0  0  0  0  0  0  0  0  0  0  0
   38.1100   29.0670   51.0130 H   0  0  0  0  0  0  0  0  0  0  0  0
   38.8850   30.0270   48.9110 H   0  0  0  0  0  0  0  0  0  0  0  0
   34.1740   30.2070   50.0330 H   0  0  0  0  0  0  0  0  0  0  0  0
   36.4050   31.4220   43.3990 C   0  0  0  0  0  0  0  0  0  0  0  0
   36.5830   30.3440   42.5800 C   0  0  0  0  0  0  0  0  0  0  0  0
   35.9300   30.1620   41.3790 C   0  0  0  0  0  0  0  0  0  0  0  0
   35.0240   31.1470   40.9690 C   0  0  0  0  0  0  0  0  0  0  0  0
   34.8740   32.2210   41.8260 C   0  0  0  0  0  0  0  0  0  0  0  0
   35.5370   32.3330   42.9720 N   0  0  0  0  0  0  0  0  0  0  0  0
   37.2720   29.5550   42.8520 H   0  0  0  0  0  0  0  0  0  0  0  0
   36.0800   29.2990   40.7360 H   0  0  0  0  0  0  0  0  0  0  0  0
   34.5050   31.0340   40.0470 H   0  0  0  0  0  0  0  0  0  0  0  0
   33.9520   33.3020   41.4890 C   0  0  0  0  0  0  0  0  0  0  0  0
   32.5980   33.0400   41.3470 C   0  0  0  0  0  0  0  0  0  0  0  0
   32.2320   32.0180   41.4910 H   0  0  0  0  0  0  0  0  0  0  0  0
   31.6180   33.9580   41.0340 C   0  0  0  0  0  3  0  0  0  0  0  0
   32.0220   35.2640   40.8410 C   0  0  0  0  0  0  0  0  0  0  0  0
   31.1260   36.2210   40.5330 N   0  0  0  0  0  0  0  0  0  0  0  0
   31.4890   37.5080   40.3380 C   0  0  0  0  0  0  0  0  0  0  0  0
   30.7610   38.2710   40.0890 H   0  0  0  0  0  0  0  0  0  0  0  0
   32.8450   37.8120   40.4720 C   0  0  0  0  0  3  0  0  0  0  0  0
   33.8110   36.8720   40.7890 C   0  0  0  0  0  3  0  0  0  0  0  0
   33.3590   35.5820   40.9710 C   0  0  0  0  0  0  0  0  0  0  0  0
   34.2990   34.6210   41.2880 C   0  0  0  0  0  3  0  0  0  0  0  0
   40.1960   33.3200   45.8310 C   0  0  0  0  0  0  0  0  0  0  0  0
   40.1640   34.2550   44.8600 F   0  0  0  0  0  0  0  0  0  0  0  0
   41.3440   32.5640   45.5870 F   0  0  0  0  0  0  0  0  0  0  0  0
   40.3200   33.9660   47.0550 F   0  0  0  0  0  0  0  0  0  0  0  0
  1 12  1  0  0  0  0
  2  9  1  0  0  0  0
  2  1  1  0  0  0  0
  3  4  1  0  0  0  0
  3  2  2  0  0  0  0
  4  6  1  0  0  0  0
  5  4  2  0  0  0  0
  6  7  1  0  0  0  0
  7  1  1  0  0  0  0
  7  8  2  0  0  0  0
 10 15  1  0  0  0  0
 10 16  1  0  0  0  0
 11 10  2  0  0  0  0
 12 13  2  0  0  0  0
 12 11  1  0  0  0  0
 13 14  1  0  0  0  0
 14 18  1  0  0  0  0
 14 15  2  0  0  0  0
 17 11  1  0  0  0  0
 19  3  1  0  0  0  0
 20 25  1  0  0  0  0
 20 19  2  0  0  0  0
 21 20  1  0  0  0  0
 22 21  2  0  0  0  0
 22 23  1  0  0  0  0
 23 24  2  0  0  0  0
 24 19  1  0  0  0  0
 26 21  1  0  0  0  0
 27 22  1  0  0  0  0
 28 23  1  0  0  0  0
 29 28  1  0  0  0  0
 29 30  1  0  0  0  0
 31 29  2  0  0  0  0
 32 38  1  0  0  0  0
 32 31  1  0  0  0  0
 33 32  2  0  0  0  0
 34 36  2  0  0  0  0
 34 33  1  0  0  0  0
 35 34  1  0  0  0  0
 36 37  1  0  0  0  0
 37 38  2  0  0  0  0
 38 39  1  0  0  0  0
 39 28  2  0  0  0  0
 40  6  1  0  0  0  0
 40 43  1  0  0  0  0
 41 40  1  0  0  0  0
 42 40  1  0  0  0  0
M  END
>  <minimizedAffinity>
-7.32993603

>  <minimizedRMSD>
0.949311793

$$$$
