
 OpenBabel03272509583D

 49 53  0  0  0  0  0  0  0  0999 V2000
   33.4080   27.9740   47.5200 C   0  0  0  0  0  0  0  0  0  0  0  0
   33.7900   26.9890   47.7850 H   0  0  0  0  0  0  0  0  0  0  0  0
   33.5250   28.0680   46.4170 H   0  0  0  0  0  0  0  0  0  0  0  0
   31.9440   28.0440   47.7860 C   0  0  0  0  0  0  0  0  0  0  0  0
   31.5090   27.6570   49.0390 C   0  0  0  0  0  0  0  0  0  0  0  0
   30.1730   27.6850   49.3870 C   0  0  0  0  0  0  0  0  0  0  0  0
   29.2790   28.0990   48.4880 N   0  0  0  0  0  0  0  0  0  0  0  0
   29.7180   28.4770   47.2610 C   0  0  0  0  0  0  0  0  0  0  0  0
   31.0130   28.4560   46.9050 N   0  0  0  0  0  0  0  0  0  0  0  0
   32.1960   27.3150   49.8000 H   0  0  0  0  0  0  0  0  0  0  0  0
   29.8160   27.3800   50.3760 H   0  0  0  0  0  0  0  0  0  0  0  0
   28.7010   28.9330   46.2760 C   0  0  0  0  0  0  0  0  0  0  0  0
   27.8510   29.4520   46.7650 H   0  0  0  0  0  0  0  0  0  0  0  0
   29.1930   29.7000   45.6420 H   0  0  0  0  0  0  0  0  0  0  0  0
   28.2150   27.7920   45.4330 C   0  0  0  0  0  0  0  0  0  0  0  0
   28.9140   26.6130   45.2860 C   0  0  0  0  0  0  0  0  0  0  0  0
   29.8590   26.4990   45.8000 H   0  0  0  0  0  0  0  0  0  0  0  0
   28.3500   25.6420   44.4770 C   0  0  0  0  0  3  0  0  0  0  0  0
   27.1320   25.8310   43.8330 C   0  0  0  0  0  0  0  0  0  0  0  0
   26.5920   24.8880   43.0540 N   0  0  0  0  0  0  0  0  0  0  0  0
   25.4080   25.1200   42.4510 C   0  0  0  0  0  0  0  0  0  0  0  0
   24.9170   24.3920   41.8040 H   0  0  0  0  0  0  0  0  0  0  0  0
   24.6920   26.3090   42.5940 C   0  0  0  0  0  3  0  0  0  0  0  0
   25.2220   27.2850   43.3840 C   0  0  0  0  0  3  0  0  0  0  0  0
   26.4360   27.0290   43.9930 C   0  0  0  0  0  0  0  0  0  0  0  0
   26.9910   27.9850   44.7880 C   0  0  0  0  0  3  0  0  0  0  0  0
   34.1840   29.0230   48.2460 C   0  0  0  0  0  0  0  0  0  0  0  0
   33.5470   29.8370   48.6460 H   0  0  0  0  0  0  0  0  0  0  0  0
   34.8820   29.4980   47.5240 H   0  0  0  0  0  0  0  0  0  0  0  0
   34.9970   28.4650   49.2610 O   0  0  0  0  0  0  0  0  0  0  0  0
   37.2820   30.1150   51.5070 C   0  0  0  0  0  0  0  0  0  0  0  0
   38.0550   30.8620   50.5840 C   0  0  0  0  0  0  0  0  0  0  0  0
   37.7260   30.7380   49.2370 C   0  0  0  0  0  0  0  0  0  0  0  0
   36.6830   29.9030   48.9400 N   0  0  0  0  0  0  0  0  0  0  0  0
   35.9720   29.2130   49.8260 C   0  0  0  0  0  0  0  0  0  0  0  0
   36.2810   29.3250   51.1320 N   0  0  0  0  0  0  0  0  0  0  0  0
   37.5930   30.2620   52.5300 H   0  0  0  0  0  0  0  0  0  0  0  0
   38.8680   31.5090   50.8440 H   0  0  0  0  0  0  0  0  0  0  0  0
   38.8240   33.4150   49.2060 F   0  0  0  0  0  0  0  0  0  0  0  0
   38.9160   32.6570   48.1210 C   0  0  0  0  0  0  0  0  0  0  0  0
   38.3990   31.4170   48.1610 C   0  0  0  0  0  0  0  0  0  0  0  0
   38.5490   30.7020   46.9660 C   0  0  0  0  0  0  0  0  0  0  0  0
   39.1690   31.2300   45.8680 C   0  0  0  0  0  0  0  0  0  0  0  0
   39.6820   32.5080   45.8810 C   0  0  0  0  0  0  0  0  0  0  0  0
   39.5440   33.2130   47.0320 C   0  0  0  0  0  0  0  0  0  0  0  0
   38.1800   29.6890   46.8550 H   0  0  0  0  0  0  0  0  0  0  0  0
   39.2830   30.6630   44.9360 H   0  0  0  0  0  0  0  0  0  0  0  0
   40.1670   32.9050   45.0060 H   0  0  0  0  0  0  0  0  0  0  0  0
   39.9430   34.2200   47.0610 H   0  0  0  0  0  0  0  0  0  0  0  0
  1  2  1  0  0  0  0
  1  4  1  0  0  0  0
  1 27  1  0  0  0  0
  3  1  1  0  0  0  0
  4  5  1  0  0  0  0
  5  6  2  0  0  0  0
  5 10  1  0  0  0  0
  6 11  1  0  0  0  0
  7  6  1  0  0  0  0
  8  7  2  0  0  0  0
  9  8  1  0  0  0  0
  9  4  2  0  0  0  0
 12 13  1  0  0  0  0
 12  8  1  0  0  0  0
 14 12  1  0  0  0  0
 15 12  1  0  0  0  0
 16 15  1  0  0  0  0
 16 17  1  0  0  0  0
 18 16  2  0  0  0  0
 19 25  1  0  0  0  0
 19 18  1  0  0  0  0
 20 19  2  0  0  0  0
 21 23  2  0  0  0  0
 21 20  1  0  0  0  0
 22 21  1  0  0  0  0
 23 24  1  0  0  0  0
 24 25  2  0  0  0  0
 25 26  1  0  0  0  0
 26 15  2  0  0  0  0
 27 28  1  0  0  0  0
 27 30  1  0  0  0  0
 29 27  1  0  0  0  0
 30 35  1  0  0  0  0
 31 37  1  0  0  0  0
 32 38  1  0  0  0  0
 32 31  2  0  0  0  0
 33 32  1  0  0  0  0
 34 33  2  0  0  0  0
 34 35  1  0  0  0  0
 35 36  2  0  0  0  0
 36 31  1  0  0  0  0
 40 41  1  0  0  0  0
 40 39  1  0  0  0  0
 41 33  1  0  0  0  0
 42 41  2  0  0  0  0
 43 44  2  0  0  0  0
 43 42  1  0  0  0  0
 44 45  1  0  0  0  0
 45 49  1  0  0  0  0
 45 40  2  0  0  0  0
 46 42  1  0  0  0  0
 47 43  1  0  0  0  0
 48 44  1  0  0  0  0
M  END
>  <minimizedAffinity>
-7.20351601

>  <minimizedRMSD>
1.55756569

$$$$
