
 OpenBabel03262521083D

 48 51  0  0  1  0  0  0  0  0999 V2000
   37.2840   31.4520   45.7090 C   0  0  2  0  0  0  0  0  0  0  0  0
   38.2160   30.9760   44.6950 C   0  0  0  0  0  0  0  0  0  0  0  0
   39.5420   30.4960   45.2860 C   0  0  0  0  0  0  0  0  0  0  0  0
   40.2210   31.5500   46.0930 C   0  0  0  0  0  0  0  0  0  0  0  0
   39.2770   32.4230   46.8890 C   0  0  0  0  0  0  0  0  0  0  0  0
   37.9190   31.7490   47.0420 C   0  0  2  0  0  0  0  0  0  0  0  0
   36.8390   32.4290   45.3460 H   0  0  0  0  0  0  0  0  0  0  0  0
   38.5430   31.8200   44.0060 H   0  0  0  0  0  0  0  0  0  0  0  0
   37.9250   30.1770   44.0070 H   0  0  0  0  0  0  0  0  0  0  0  0
   39.4150   29.5270   45.7670 H   0  0  0  0  0  0  0  0  0  0  0  0
   40.1840   30.3070   44.3770 H   0  0  0  0  0  0  0  0  0  0  0  0
   40.8240   32.2060   45.4130 H   0  0  0  0  0  0  0  0  0  0  0  0
   40.9710   31.0460   46.7360 H   0  0  0  0  0  0  0  0  0  0  0  0
   39.1990   33.4090   46.4260 H   0  0  0  0  0  0  0  0  0  0  0  0
   39.6950   32.4860   47.9280 H   0  0  0  0  0  0  0  0  0  0  0  0
   37.2700   32.5150   47.5370 H   0  0  0  0  0  0  0  0  0  0  0  0
   36.1230   30.5960   45.9650 C   0  0  0  0  0  0  0  0  0  0  0  0
   35.7810   29.7560   44.9000 C   0  0  0  0  0  0  0  0  0  0  0  0
   34.6950   28.9130   45.0910 C   0  0  0  0  0  0  0  0  0  0  0  0
   34.0250   28.9400   46.2790 N   0  0  0  0  0  0  0  0  0  0  0  0
   34.3880   29.7660   47.2780 C   0  0  0  0  0  0  0  0  0  0  0  0
   35.4070   30.5480   47.0830 N   0  0  0  0  0  0  0  0  0  0  0  0
   36.1500   29.5830   43.9120 H   0  0  0  0  0  0  0  0  0  0  0  0
   34.2640   28.2010   44.4320 H   0  0  0  0  0  0  0  0  0  0  0  0
   33.8970   29.8300   48.2350 H   0  0  0  0  0  0  0  0  0  0  0  0
   38.0930   30.7100   47.9560 N   0  0  0  0  0  0  0  0  0  0  0  0
   38.9940   30.2110   47.9390 H   0  0  0  0  0  0  0  0  0  0  0  0
   37.6690   31.0040   49.5740 S   0  0  1  0  0  0  0  0  0  0  0  0
   38.8720   30.5450   50.3950 O   0  0  0  0  0  0  0  0  0  0  0  0
   39.4480   29.7840   50.0890 H   0  0  0  0  0  0  0  0  0  0  0  0
   37.4190   32.4230   49.8720 O   0  0  0  0  0  0  0  0  0  0  0  0
   36.5730   33.4400   50.1360 C   0  0  0  0  0  0  0  0  0  0  0  0
   35.6820   33.8890   49.1870 C   0  0  0  0  0  0  0  0  0  0  0  0
   35.6810   33.4050   48.2290 H   0  0  0  0  0  0  0  0  0  0  0  0
   34.8090   34.9210   49.4250 C   0  0  0  0  0  3  0  0  0  0  0  0
   34.8690   35.4950   50.6830 C   0  0  0  0  0  0  0  0  0  0  0  0
   34.0170   36.5090   50.9290 N   0  0  0  0  0  0  0  0  0  0  0  0
   34.0310   37.1120   52.1480 C   0  0  0  0  0  0  0  0  0  0  0  0
   33.3360   37.9290   52.3270 H   0  0  0  0  0  0  0  0  0  0  0  0
   34.8740   36.7550   53.1820 C   0  0  0  0  0  3  0  0  0  0  0  0
   35.7420   35.7050   52.8960 C   0  0  0  0  0  3  0  0  0  0  0  0
   35.7480   35.0750   51.6680 C   0  0  0  0  0  0  0  0  0  0  0  0
   36.6140   34.0290   51.3850 C   0  0  0  0  0  3  0  0  0  0  0  0
   36.3860   30.0550   50.0860 O   0  0  0  0  0  0  0  0  0  0  0  0
   36.5960   29.4980   51.3350 C   0  0  0  0  0  0  0  0  0  0  0  0
   37.5390   28.5080   51.2500 F   0  0  0  0  0  0  0  0  0  0  0  0
   37.1220   30.4830   52.1420 F   0  0  0  0  0  0  0  0  0  0  0  0
   35.4270   29.0750   51.9560 F   0  0  0  0  0  0  0  0  0  0  0  0
  1  7  1  6  0  0  0
  1 17  1  0  0  0  0
  1  6  1  0  0  0  0
  2  3  1  0  0  0  0
  2  1  1  0  0  0  0
  3 10  1  0  0  0  0
  3  4  1  0  0  0  0
  4 13  1  0  0  0  0
  4  5  1  0  0  0  0
  5  6  1  0  0  0  0
  5 15  1  0  0  0  0
  6 16  1  1  0  0  0
  6 26  1  0  0  0  0
  8  2  1  0  0  0  0
  9  2  1  0  0  0  0
 11  3  1  0  0  0  0
 12  4  1  0  0  0  0
 14  5  1  0  0  0  0
 17 22  1  0  0  0  0
 18 19  1  0  0  0  0
 18 17  2  0  0  0  0
 19 20  2  0  0  0  0
 20 21  1  0  0  0  0
 21 25  1  0  0  0  0
 22 21  2  0  0  0  0
 23 18  1  0  0  0  0
 24 19  1  0  0  0  0
 26 28  1  0  0  0  0
 27 26  1  0  0  0  0
 28 31  1  1  0  0  0
 28 44  1  0  0  0  0
 28 29  1  0  0  0  0
 30 29  1  0  0  0  0
 31 32  1  0  0  0  0
 32 43  1  0  0  0  0
 33 35  1  0  0  0  0
 33 32  2  0  0  0  0
 34 33  1  0  0  0  0
 35 36  2  0  0  0  0
 36 37  1  0  0  0  0
 36 42  1  0  0  0  0
 37 38  2  0  0  0  0
 38 39  1  0  0  0  0
 38 40  1  0  0  0  0
 41 40  2  0  0  0  0
 42 41  1  0  0  0  0
 43 42  2  0  0  0  0
 44 45  1  0  0  0  0
 45 48  1  0  0  0  0
 45 47  1  0  0  0  0
 46 45  1  0  0  0  0
M  END
>  <minimizedAffinity>
7.05407381

>  <minimizedRMSD>
0.932721555

$$$$
