
 OpenBabel03272505273D

 34 37  0  0  0  0  0  0  0  0999 V2000
   37.3720   31.0680   47.1470 N   0  0  0  0  0  0  0  0  0  0  0  0
   36.7660   30.7630   45.9670 C   0  0  0  0  0  0  0  0  0  0  0  0
   37.2140   31.2530   44.7520 C   0  0  0  0  0  0  0  0  0  0  0  0
   38.3430   32.0940   44.7800 C   0  0  0  0  0  0  0  0  0  0  0  0
   38.7840   32.5590   43.7050 O   0  0  0  0  0  0  0  0  0  0  0  0
   38.9520   32.4020   45.9590 N   0  0  0  0  0  0  0  0  0  0  0  0
   38.4230   31.8660   47.0650 C   0  0  0  0  0  0  0  0  0  0  0  0
   39.0080   32.1730   48.1280 O   0  0  0  0  0  0  0  0  0  0  0  0
   35.9120   30.1270   45.9350 H   0  0  0  0  0  0  0  0  0  0  0  0
   36.5620   30.9240   43.4870 C   0  0  0  0  0  0  0  0  0  0  0  0
   36.9820   29.7320   42.8890 C   0  0  0  0  0  0  0  0  0  0  0  0
   37.7370   29.0780   43.3120 H   0  0  0  0  0  0  0  0  0  0  0  0
   36.4480   29.2940   41.6840 C   0  0  0  0  0  3  0  0  0  0  0  0
   35.4790   30.0620   41.0720 C   0  0  0  0  0  0  0  0  0  0  0  0
   34.9180   29.6820   39.8880 N   0  0  0  0  0  0  0  0  0  0  0  0
   33.9730   30.4330   39.2920 C   0  0  0  0  0  0  0  0  0  0  0  0
   33.6270   29.9940   38.3560 H   0  0  0  0  0  0  0  0  0  0  0  0
   33.5450   31.6150   39.8690 C   0  0  0  0  0  3  0  0  0  0  0  0
   34.0960   32.0240   41.0670 C   0  0  0  0  0  3  0  0  0  0  0  0
   35.0630   31.2510   41.6740 C   0  0  0  0  0  0  0  0  0  0  0  0
   35.5910   31.6940   42.8720 C   0  0  0  0  0  3  0  0  0  0  0  0
   37.2630   29.4650   50.4910 C   0  0  0  0  0  0  0  0  0  0  0  0
   37.7400   29.9580   49.2700 C   0  0  0  0  0  0  0  0  0  0  0  0
   36.9060   30.5670   48.3650 C   0  0  0  0  0  0  0  0  0  0  0  0
   35.5940   30.6750   48.6930 N   0  0  0  0  0  0  0  0  0  0  0  0
   35.0990   30.2050   49.8710 C   0  0  0  0  0  0  0  0  0  0  0  0
   35.9310   29.6000   50.7720 N   0  0  0  0  0  0  0  0  0  0  0  0
   37.8670   28.9780   51.2430 H   0  0  0  0  0  0  0  0  0  0  0  0
   38.7810   29.7750   49.1840 H   0  0  0  0  0  0  0  0  0  0  0  0
   34.0410   30.3390   50.0390 H   0  0  0  0  0  0  0  0  0  0  0  0
   40.1120   33.2650   45.9800 C   0  0  0  0  0  0  0  0  0  0  0  0
   39.9790   34.2410   45.0370 F   0  0  0  0  0  0  0  0  0  0  0  0
   41.2940   32.5930   45.7030 F   0  0  0  0  0  0  0  0  0  0  0  0
   40.1890   33.8790   47.2240 F   0  0  0  0  0  0  0  0  0  0  0  0
  1 24  1  0  0  0  0
  2  1  1  0  0  0  0
  3  4  1  0  0  0  0
  3  2  2  0  0  0  0
  4  6  1  0  0  0  0
  5  4  2  0  0  0  0
  6 31  1  0  0  0  0
  6  7  1  0  0  0  0
  7  1  1  0  0  0  0
  7  8  2  0  0  0  0
  9  2  1  0  0  0  0
 10  3  1  0  0  0  0
 11 12  1  0  0  0  0
 11 10  1  0  0  0  0
 13 11  2  0  0  0  0
 14 20  1  0  0  0  0
 14 13  1  0  0  0  0
 15 14  2  0  0  0  0
 16 18  2  0  0  0  0
 16 15  1  0  0  0  0
 17 16  1  0  0  0  0
 18 19  1  0  0  0  0
 19 20  2  0  0  0  0
 20 21  1  0  0  0  0
 21 10  2  0  0  0  0
 22 27  1  0  0  0  0
 22 28  1  0  0  0  0
 23 22  2  0  0  0  0
 24 25  2  0  0  0  0
 24 23  1  0  0  0  0
 25 26  1  0  0  0  0
 26 30  1  0  0  0  0
 26 27  2  0  0  0  0
 29 23  1  0  0  0  0
 31 34  1  0  0  0  0
 32 31  1  0  0  0  0
 33 31  1  0  0  0  0
M  END
>  <minimizedAffinity>
-6.21787882

>  <minimizedRMSD>
0.653806329

$$$$
