
 OpenBabel03272501443D

 37 41  0  0  0  0  0  0  0  0999 V2000
   35.0130   28.5790   48.9890 C   0  0  0  0  0  0  0  0  0  0  0  0
   35.2380   29.5630   47.9790 C   0  0  0  0  0  0  0  0  0  0  0  0
   34.5480   29.4160   46.7890 C   0  0  0  0  0  0  0  0  0  0  0  0
   33.7060   28.3560   46.6570 N   0  0  0  0  0  0  0  0  0  0  0  0
   33.5130   27.4460   47.6230 C   0  0  0  0  0  0  0  0  0  0  0  0
   34.1730   27.5650   48.7920 N   0  0  0  0  0  0  0  0  0  0  0  0
   35.4560   28.5100   49.9840 H   0  0  0  0  0  0  0  0  0  0  0  0
   34.7400   30.1740   46.0480 H   0  0  0  0  0  0  0  0  0  0  0  0
   36.0980   31.0810   49.6670 C   0  0  0  0  0  0  0  0  0  0  0  0
   36.1670   30.5990   48.3600 C   0  0  0  0  0  0  0  0  0  0  0  0
   37.1220   31.1490   47.5110 C   0  0  0  0  0  0  0  0  0  0  0  0
   37.9650   32.1520   48.0050 C   0  0  0  0  0  0  0  0  0  0  0  0
   38.9570   32.8600   47.4530 N   0  0  0  0  0  0  0  0  0  0  0  0
   39.4670   33.7110   48.3350 C   0  0  0  0  0  0  0  0  0  0  0  0
   38.8000   33.5650   49.4960 N   0  0  0  0  0  0  0  0  0  0  0  0
   37.8800   32.6130   49.3030 C   0  0  0  0  0  0  0  0  0  0  0  0
   36.9330   32.0690   50.1420 C   0  0  0  0  0  0  0  0  0  0  0  0
   35.4000   30.7500   50.4400 H   0  0  0  0  0  0  0  0  0  0  0  0
   37.1870   30.7860   46.4960 H   0  0  0  0  0  0  0  0  0  0  0  0
   39.2360   32.7010   46.4390 H   0  0  0  0  0  0  0  0  0  0  0  0
   40.2830   34.3730   48.0710 H   0  0  0  0  0  0  0  0  0  0  0  0
   36.9010   32.4600   51.1540 H   0  0  0  0  0  0  0  0  0  0  0  0
   32.5630   26.3150   47.3940 C   0  0  0  0  0  0  0  0  0  0  0  0
   31.9150   26.1940   48.2920 H   0  0  0  0  0  0  0  0  0  0  0  0
   31.9310   26.5540   46.5260 H   0  0  0  0  0  0  0  0  0  0  0  0
   33.2690   25.0340   47.1630 C   0  0  0  0  0  0  0  0  0  0  0  0
   32.7600   23.8700   47.7450 C   0  0  0  0  0  0  0  0  0  0  0  0
   31.8540   23.9510   48.3520 H   0  0  0  0  0  0  0  0  0  0  0  0
   33.3890   22.6630   47.5530 C   0  0  0  0  0  0  0  0  0  0  0  0
   34.5300   22.6160   46.7770 C   0  0  0  0  0  0  0  0  0  0  0  0
   35.0470   21.3590   46.6710 N   0  0  0  0  0  0  0  0  0  0  0  0
   36.1760   21.1930   45.9280 C   0  0  0  0  0  0  0  0  0  0  0  0
   36.6510   20.2290   45.7930 H   0  0  0  0  0  0  0  0  0  0  0  0
   36.7200   22.3130   45.3310 C   0  0  0  0  0  0  0  0  0  0  0  0
   36.2010   23.5930   45.4340 C   0  0  0  0  0  0  0  0  0  0  0  0
   35.0490   23.7510   46.1940 C   0  0  0  0  0  0  0  0  0  0  0  0
   34.4180   24.9670   46.3860 C   0  0  0  0  0  0  0  0  0  0  0  0
  1  7  1  0  0  0  0
  2 10  1  0  0  0  0
  2  1  2  0  0  0  0
  3  2  1  0  0  0  0
  4  3  2  0  0  0  0
  4  5  1  0  0  0  0
  5  6  2  0  0  0  0
  6  1  1  0  0  0  0
  8  3  1  0  0  0  0
  9 17  1  0  0  0  0
  9 18  1  0  0  0  0
 10  9  2  0  0  0  0
 11 12  2  0  0  0  0
 11 10  1  0  0  0  0
 12 16  1  0  0  0  0
 13 12  1  0  0  0  0
 13 14  1  0  0  0  0
 14 15  2  0  0  0  0
 16 15  1  0  0  0  0
 16 17  2  0  0  0  0
 17 22  1  0  0  0  0
 19 11  1  0  0  0  0
 20 13  1  0  0  0  0
 21 14  1  0  0  0  0
 23  5  1  0  0  0  0
 23 24  1  0  0  0  0
 25 23  1  0  0  0  0
 26 23  1  0  0  0  0
 26 27  1  0  0  0  0
 27 28  1  0  0  0  0
 29 27  2  0  0  0  0
 30 29  1  0  0  0  0
 31 30  1  0  0  0  0
 32 31  2  0  0  0  0
 33 32  1  0  0  0  0
 34 35  2  0  0  0  0
 34 32  1  0  0  0  0
 35 36  1  0  0  0  0
 36 37  1  0  0  0  0
 36 30  2  0  0  0  0
 37 26  2  0  0  0  0
M  END
>  <minimizedAffinity>
-6.36213732

>  <minimizedRMSD>
2.00307894

$$$$
