
 OpenBabel03272501583D

 34 37  0  0  0  0  0  0  0  0999 V2000
   32.8800   28.1410   47.8550 C   0  0  0  0  0  0  0  0  0  0  0  0
   31.9110   27.5240   48.6030 C   0  0  0  0  0  0  0  0  0  0  0  0
   30.6630   27.7330   48.0380 C   0  0  0  0  0  0  0  0  0  0  0  0
   30.9170   28.4820   46.9480 N   0  0  0  0  0  0  0  0  0  0  0  0
   32.2090   28.7250   46.8320 N   0  0  0  0  0  0  0  0  0  0  0  0
   32.0130   26.9360   49.5180 H   0  0  0  0  0  0  0  0  0  0  0  0
   29.6540   27.4360   48.2930 H   0  0  0  0  0  0  0  0  0  0  0  0
   30.0940   29.0430   45.9320 C   0  0  0  0  0  0  0  0  0  0  0  0
   30.2820   28.8010   44.5870 C   0  0  0  0  0  0  0  0  0  0  0  0
   31.0900   28.1570   44.2980 H   0  0  0  0  0  0  0  0  0  0  0  0
   29.4070   29.4130   43.7000 C   0  0  0  0  0  3  0  0  0  0  0  0
   28.3930   30.2270   44.1450 C   0  0  0  0  0  0  0  0  0  0  0  0
   27.5680   30.7990   43.2560 N   0  0  0  0  0  0  0  0  0  0  0  0
   26.5640   31.6040   43.6710 C   0  0  0  0  0  0  0  0  0  0  0  0
   25.9050   32.0580   42.9140 H   0  0  0  0  0  0  0  0  0  0  0  0
   26.3490   31.8660   45.0120 C   0  0  0  0  0  3  0  0  0  0  0  0
   27.1810   31.2910   45.9470 C   0  0  0  0  0  3  0  0  0  0  0  0
   28.1910   30.4790   45.4860 C   0  0  0  0  0  0  0  0  0  0  0  0
   29.0690   29.8660   46.3730 C   0  0  0  0  0  3  0  0  0  0  0  0
   34.3560   28.1340   48.1550 C   0  0  0  0  0  0  0  0  0  0  0  0
   34.8040   27.1500   47.8800 H   0  0  0  0  0  0  0  0  0  0  0  0
   34.7870   28.9310   47.5190 H   0  0  0  0  0  0  0  0  0  0  0  0
   34.5000   28.3690   49.6220 C   0  0  0  0  0  0  0  0  0  0  0  0
   34.5620   27.4220   50.1960 H   0  0  0  0  0  0  0  0  0  0  0  0
   33.6490   28.9530   50.0230 H   0  0  0  0  0  0  0  0  0  0  0  0
   37.2350   30.1530   51.3880 C   0  0  0  0  0  0  0  0  0  0  0  0
   38.0190   30.6160   50.3130 C   0  0  0  0  0  0  0  0  0  0  0  0
   37.6050   30.3140   48.9970 C   0  0  0  0  0  0  0  0  0  0  0  0
   36.4700   29.5910   48.8300 N   0  0  0  0  0  0  0  0  0  0  0  0
   35.7420   29.1630   49.8950 C   0  0  0  0  0  0  0  0  0  0  0  0
   36.1260   29.4430   51.1310 N   0  0  0  0  0  0  0  0  0  0  0  0
   37.5460   30.3790   52.3980 H   0  0  0  0  0  0  0  0  0  0  0  0
   38.9100   31.1830   50.4360 H   0  0  0  0  0  0  0  0  0  0  0  0
   38.1490   30.6310   48.1170 H   0  0  0  0  0  0  0  0  0  0  0  0
  1 20  1  0  0  0  0
  1  2  1  0  0  0  0
  2  6  1  0  0  0  0
  3  7  1  0  0  0  0
  3  2  2  0  0  0  0
  4  3  1  0  0  0  0
  5  4  1  0  0  0  0
  5  1  2  0  0  0  0
  8 19  1  0  0  0  0
  8  4  1  0  0  0  0
  9  8  2  0  0  0  0
 10  9  1  0  0  0  0
 11 12  2  0  0  0  0
 11  9  1  0  0  0  0
 12 18  1  0  0  0  0
 13 14  2  0  0  0  0
 13 12  1  0  0  0  0
 14 16  1  0  0  0  0
 15 14  1  0  0  0  0
 16 17  2  0  0  0  0
 18 17  1  0  0  0  0
 18 19  2  0  0  0  0
 20 23  1  0  0  0  0
 21 20  1  0  0  0  0
 22 20  1  0  0  0  0
 23 30  1  0  0  0  0
 23 25  1  0  0  0  0
 23 24  1  0  0  0  0
 26 32  1  0  0  0  0
 27 33  1  0  0  0  0
 27 26  2  0  0  0  0
 28 27  1  0  0  0  0
 29 28  2  0  0  0  0
 29 30  1  0  0  0  0
 30 31  2  0  0  0  0
 31 26  1  0  0  0  0
 34 28  1  0  0  0  0
M  END
>  <minimizedAffinity>
-5.2942667

>  <minimizedRMSD>
0.451537728

$$$$
