
 OpenBabel03272502193D

 36 39  0  0  1  0  0  0  0  0999 V2000
   35.7560   29.2680   34.0380 C   0  0  0  0  0  0  0  0  0  0  0  0
   35.6690   29.3830   32.6350 C   0  0  0  0  0  0  0  0  0  0  0  0
   36.3520   28.4550   31.8550 C   0  0  0  0  0  0  0  0  0  0  0  0
   37.0680   27.4880   32.5110 N   0  0  0  0  0  0  0  0  0  0  0  0
   37.1330   27.4020   33.8370 C   0  0  0  0  0  0  0  0  0  0  0  0
   36.4760   28.2930   34.5840 N   0  0  0  0  0  0  0  0  0  0  0  0
   35.1110   30.1370   32.1090 H   0  0  0  0  0  0  0  0  0  0  0  0
   36.3320   28.4790   30.7860 H   0  0  0  0  0  0  0  0  0  0  0  0
   37.9180   26.3400   34.4620 C   0  0  0  0  0  0  0  0  0  0  0  0
   39.0100   25.7870   33.8250 C   0  0  0  0  0  0  0  0  0  0  0  0
   39.2890   26.1580   32.8280 H   0  0  0  0  0  0  0  0  0  0  0  0
   39.7860   24.7780   34.3770 C   0  0  0  0  0  3  0  0  0  0  0  0
   39.4130   24.3250   35.6390 C   0  0  0  0  0  0  0  0  0  0  0  0
   40.1600   23.3390   36.1930 N   0  0  0  0  0  0  0  0  0  0  0  0
   39.8930   22.8210   37.4130 C   0  0  0  0  0  0  0  0  0  0  0  0
   40.4890   22.0350   37.8550 H   0  0  0  0  0  0  0  0  0  0  0  0
   38.8050   23.3490   38.0830 C   0  0  0  0  0  3  0  0  0  0  0  0
   38.0210   24.3540   37.5500 C   0  0  0  0  0  3  0  0  0  0  0  0
   38.3080   24.8750   36.2990 C   0  0  0  0  0  0  0  0  0  0  0  0
   37.5550   25.8810   35.7190 C   0  0  0  0  0  3  0  0  0  0  0  0
   34.8280   30.5280   34.8860 S   0  0  0  0  0  0  0  0  0  0  0  0
   35.2190   31.9990   37.1190 N   0  0  0  0  0  0  0  0  0  0  0  0
   35.9270   31.5620   35.9330 C   0  0  2  0  0  0  0  0  0  0  0  0
   36.3390   32.7720   35.1470 C   0  0  0  0  0  0  0  0  0  0  0  0
   36.2810   33.9430   35.9380 O   0  0  0  0  0  0  0  0  0  0  0  0
   34.9110   34.1590   36.1620 C   0  0  0  0  0  0  0  0  0  0  0  0
   34.2100   32.9550   36.7090 C   0  0  2  0  0  0  0  0  0  0  0  0
   34.7320   31.1760   37.5340 H   0  0  0  0  0  0  0  0  0  0  0  0
   36.8090   30.9290   36.2390 H   0  0  0  0  0  0  0  0  0  0  0  0
   37.4320   32.6700   34.9110 H   0  0  0  0  0  0  0  0  0  0  0  0
   35.7370   32.8840   34.2300 H   0  0  0  0  0  0  0  0  0  0  0  0
   34.7590   35.0310   36.8190 H   0  0  0  0  0  0  0  0  0  0  0  0
   34.4900   34.3990   35.1490 H   0  0  0  0  0  0  0  0  0  0  0  0
   33.5170   32.5200   35.9400 H   0  0  0  0  0  0  0  0  0  0  0  0
   33.4510   33.2890   37.8560 O   0  0  0  0  0  0  0  0  0  0  0  0
   32.8420   32.5290   38.0340 H   0  0  0  0  0  0  0  0  0  0  0  0
  1  6  1  0  0  0  0
  1 21  1  0  0  0  0
  2  1  2  0  0  0  0
  3  4  2  0  0  0  0
  3  2  1  0  0  0  0
  4  5  1  0  0  0  0
  5  9  1  0  0  0  0
  5  6  2  0  0  0  0
  7  2  1  0  0  0  0
  8  3  1  0  0  0  0
  9 20  1  0  0  0  0
 10 12  1  0  0  0  0
 10  9  2  0  0  0  0
 11 10  1  0  0  0  0
 12 13  2  0  0  0  0
 13 14  1  0  0  0  0
 13 19  1  0  0  0  0
 14 15  2  0  0  0  0
 15 16  1  0  0  0  0
 15 17  1  0  0  0  0
 18 17  2  0  0  0  0
 19 18  1  0  0  0  0
 20 19  2  0  0  0  0
 21 23  1  0  0  0  0
 22 28  1  0  0  0  0
 23 29  1  1  0  0  0
 23 22  1  0  0  0  0
 24 23  1  0  0  0  0
 24 25  1  0  0  0  0
 25 26  1  0  0  0  0
 26 27  1  0  0  0  0
 26 32  1  0  0  0  0
 27 34  1  6  0  0  0
 27 22  1  0  0  0  0
 27 35  1  0  0  0  0
 30 24  1  0  0  0  0
 31 24  1  0  0  0  0
 33 26  1  0  0  0  0
 35 36  1  0  0  0  0
M  END
>  <minimizedAffinity>
-6.45200682

$$$$

 OpenBabel03272502193D

 36 39  0  0  1  0  0  0  0  0999 V2000
   37.4310   26.6300   34.7650 C   0  0  0  0  0  0  0  0  0  0  0  0
   37.3750   25.9570   33.5270 C   0  0  0  0  0  0  0  0  0  0  0  0
   36.7330   26.5850   32.4650 C   0  0  0  0  0  0  0  0  0  0  0  0
   36.1950   27.8240   32.6980 N   0  0  0  0  0  0  0  0  0  0  0  0
   36.2630   28.4370   33.8780 C   0  0  0  0  0  0  0  0  0  0  0  0
   36.8800   27.8320   34.8960 N   0  0  0  0  0  0  0  0  0  0  0  0
   37.7920   24.9860   33.3310 H   0  0  0  0  0  0  0  0  0  0  0  0
   36.6520   26.1370   31.4970 H   0  0  0  0  0  0  0  0  0  0  0  0
   35.6650   29.7600   34.0480 C   0  0  0  0  0  0  0  0  0  0  0  0
   34.9980   30.3820   33.0120 C   0  0  0  0  0  0  0  0  0  0  0  0
   34.9190   29.8680   32.0430 H   0  0  0  0  0  0  0  0  0  0  0  0
   34.4140   31.6350   33.1250 C   0  0  0  0  0  3  0  0  0  0  0  0
   34.5270   32.2670   34.3600 C   0  0  0  0  0  0  0  0  0  0  0  0
   33.9630   33.4930   34.4870 N   0  0  0  0  0  0  0  0  0  0  0  0
   34.0090   34.2000   35.6390 C   0  0  0  0  0  0  0  0  0  0  0  0
   33.5580   35.1780   35.7400 H   0  0  0  0  0  0  0  0  0  0  0  0
   34.6690   33.6090   36.7000 C   0  0  0  0  0  3  0  0  0  0  0  0
   35.2560   32.3620   36.6070 C   0  0  0  0  0  3  0  0  0  0  0  0
   35.2000   31.6490   35.4200 C   0  0  0  0  0  0  0  0  0  0  0  0
   35.7720   30.3980   35.2740 C   0  0  0  0  0  3  0  0  0  0  0  0
   38.2830   25.6930   36.0150 S   0  0  0  0  0  0  0  0  0  0  0  0
   37.8480   23.1690   36.8760 N   0  0  0  0  0  0  0  0  0  0  0  0
   38.1870   23.8920   35.6680 C   0  0  2  0  0  0  0  0  0  0  0  0
   39.5290   23.4230   35.1880 C   0  0  0  0  0  0  0  0  0  0  0  0
   39.8870   22.1910   35.7850 O   0  0  0  0  0  0  0  0  0  0  0  0
   40.1200   22.4990   37.1350 C   0  0  0  0  0  0  0  0  0  0  0  0
   38.9850   23.2400   37.7710 C   0  0  2  0  0  0  0  0  0  0  0  0
   37.0460   23.6520   37.3340 H   0  0  0  0  0  0  0  0  0  0  0  0
   37.3770   23.7310   34.8980 H   0  0  0  0  0  0  0  0  0  0  0  0
   39.4330   23.1670   34.0980 H   0  0  0  0  0  0  0  0  0  0  0  0
   40.3090   24.1850   35.3560 H   0  0  0  0  0  0  0  0  0  0  0  0
   40.3590   21.5880   37.7050 H   0  0  0  0  0  0  0  0  0  0  0  0
   41.0270   23.1610   37.1250 H   0  0  0  0  0  0  0  0  0  0  0  0
   39.2780   24.3020   37.9840 H   0  0  0  0  0  0  0  0  0  0  0  0
   38.6030   22.6290   38.9900 O   0  0  0  0  0  0  0  0  0  0  0  0
   38.0220   23.2730   39.4690 H   0  0  0  0  0  0  0  0  0  0  0  0
  1  6  1  0  0  0  0
  1 21  1  0  0  0  0
  2  1  2  0  0  0  0
  3  4  2  0  0  0  0
  3  2  1  0  0  0  0
  4  5  1  0  0  0  0
  5  9  1  0  0  0  0
  5  6  2  0  0  0  0
  7  2  1  0  0  0  0
  8  3  1  0  0  0  0
  9 20  1  0  0  0  0
 10 12  1  0  0  0  0
 10  9  2  0  0  0  0
 11 10  1  0  0  0  0
 12 13  2  0  0  0  0
 13 14  1  0  0  0  0
 13 19  1  0  0  0  0
 14 15  2  0  0  0  0
 15 16  1  0  0  0  0
 15 17  1  0  0  0  0
 18 17  2  0  0  0  0
 19 18  1  0  0  0  0
 20 19  2  0  0  0  0
 22 28  1  0  0  0  0
 22 27  1  0  0  0  0
 23 29  1  6  0  0  0
 23 21  1  0  0  0  0
 23 22  1  0  0  0  0
 24 31  1  0  0  0  0
 24 23  1  0  0  0  0
 24 25  1  0  0  0  0
 25 26  1  0  0  0  0
 26 32  1  0  0  0  0
 26 27  1  0  0  0  0
 27 34  1  1  0  0  0
 27 35  1  0  0  0  0
 30 24  1  0  0  0  0
 33 26  1  0  0  0  0
 35 36  1  0  0  0  0
M  END
>  <minimizedAffinity>
-6.30296898

$$$$

 OpenBabel03272502193D

 36 39  0  0  1  0  0  0  0  0999 V2000
   37.2740   25.1680   32.9340 C   0  0  0  0  0  0  0  0  0  0  0  0
   36.6020   24.5650   31.8500 C   0  0  0  0  0  0  0  0  0  0  0  0
   35.7370   25.3490   31.0930 C   0  0  0  0  0  0  0  0  0  0  0  0
   35.5960   26.6620   31.4580 N   0  0  0  0  0  0  0  0  0  0  0  0
   36.2430   27.2060   32.4860 C   0  0  0  0  0  0  0  0  0  0  0  0
   37.0730   26.4530   33.2110 N   0  0  0  0  0  0  0  0  0  0  0  0
   36.7040   23.5370   31.5530 H   0  0  0  0  0  0  0  0  0  0  0  0
   35.1940   24.9610   30.2580 H   0  0  0  0  0  0  0  0  0  0  0  0
   36.0390   28.6170   32.8120 C   0  0  0  0  0  0  0  0  0  0  0  0
   35.8460   29.5590   31.8230 C   0  0  0  0  0  0  0  0  0  0  0  0
   35.8480   29.2360   30.7720 H   0  0  0  0  0  0  0  0  0  0  0  0
   35.6490   30.9080   32.0820 C   0  0  0  0  0  3  0  0  0  0  0  0
   35.6520   31.2930   33.4190 C   0  0  0  0  0  0  0  0  0  0  0  0
   35.4620   32.6070   33.6900 N   0  0  0  0  0  0  0  0  0  0  0  0
   35.4450   33.0950   34.9520 C   0  0  0  0  0  0  0  0  0  0  0  0
   35.2920   34.1440   35.1680 H   0  0  0  0  0  0  0  0  0  0  0  0
   35.6350   32.1810   35.9710 C   0  0  0  0  0  3  0  0  0  0  0  0
   35.8320   30.8340   35.7320 C   0  0  0  0  0  3  0  0  0  0  0  0
   35.8460   30.3490   34.4350 C   0  0  0  0  0  0  0  0  0  0  0  0
   36.0410   29.0100   34.1410 C   0  0  0  0  0  3  0  0  0  0  0  0
   38.3400   24.0330   33.7950 S   0  0  0  0  0  0  0  0  0  0  0  0
   39.8610   23.8490   36.0210 N   0  0  0  0  0  0  0  0  0  0  0  0
   38.9780   24.7790   35.3470 C   0  0  2  0  0  0  0  0  0  0  0  0
   37.8170   25.0770   36.2500 C   0  0  0  0  0  0  0  0  0  0  0  0
   38.0950   24.7070   37.5860 O   0  0  0  0  0  0  0  0  0  0  0  0
   38.1350   23.3030   37.5700 C   0  0  0  0  0  0  0  0  0  0  0  0
   39.0550   22.7550   36.5240 C   0  0  2  0  0  0  0  0  0  0  0  0
   40.5280   23.4610   35.3200 H   0  0  0  0  0  0  0  0  0  0  0  0
   39.5560   25.7080   35.0720 H   0  0  0  0  0  0  0  0  0  0  0  0
   37.7060   26.1940   36.3050 H   0  0  0  0  0  0  0  0  0  0  0  0
   36.8910   24.5970   35.8900 H   0  0  0  0  0  0  0  0  0  0  0  0
   38.3970   22.9110   38.5650 H   0  0  0  0  0  0  0  0  0  0  0  0
   37.0830   22.9900   37.3310 H   0  0  0  0  0  0  0  0  0  0  0  0
   38.4690   22.2610   35.7030 H   0  0  0  0  0  0  0  0  0  0  0  0
   39.9390   21.7980   37.0800 O   0  0  0  0  0  0  0  0  0  0  0  0
   40.3550   21.3130   36.3240 H   0  0  0  0  0  0  0  0  0  0  0  0
  1  6  1  0  0  0  0
  1 21  1  0  0  0  0
  2  1  2  0  0  0  0
  3  4  2  0  0  0  0
  3  2  1  0  0  0  0
  4  5  1  0  0  0  0
  5  9  1  0  0  0  0
  5  6  2  0  0  0  0
  7  2  1  0  0  0  0
  8  3  1  0  0  0  0
  9 20  1  0  0  0  0
 10 12  1  0  0  0  0
 10  9  2  0  0  0  0
 11 10  1  0  0  0  0
 12 13  2  0  0  0  0
 13 14  1  0  0  0  0
 13 19  1  0  0  0  0
 14 15  2  0  0  0  0
 15 16  1  0  0  0  0
 15 17  1  0  0  0  0
 18 17  2  0  0  0  0
 19 18  1  0  0  0  0
 20 19  2  0  0  0  0
 21 23  1  0  0  0  0
 22 27  1  0  0  0  0
 23 29  1  6  0  0  0
 23 22  1  0  0  0  0
 23 24  1  0  0  0  0
 24 30  1  0  0  0  0
 24 25  1  0  0  0  0
 26 25  1  0  0  0  0
 26 32  1  0  0  0  0
 27 34  1  6  0  0  0
 27 35  1  0  0  0  0
 27 26  1  0  0  0  0
 28 22  1  0  0  0  0
 31 24  1  0  0  0  0
 33 26  1  0  0  0  0
 36 35  1  0  0  0  0
M  END
>  <minimizedAffinity>
-6.1903224

$$$$

 OpenBabel03272502193D

 36 39  0  0  1  0  0  0  0  0999 V2000
   37.4770   24.1640   33.0100 C   0  0  0  0  0  0  0  0  0  0  0  0
   36.7830   23.3170   32.1220 C   0  0  0  0  0  0  0  0  0  0  0  0
   35.9480   23.8990   31.1740 C   0  0  0  0  0  0  0  0  0  0  0  0
   35.8560   25.2670   31.1720 N   0  0  0  0  0  0  0  0  0  0  0  0
   36.5230   26.0430   32.0220 C   0  0  0  0  0  0  0  0  0  0  0  0
   37.3250   25.4820   32.9300 N   0  0  0  0  0  0  0  0  0  0  0  0
   36.8460   22.2430   32.1140 H   0  0  0  0  0  0  0  0  0  0  0  0
   35.3900   23.3210   30.4680 H   0  0  0  0  0  0  0  0  0  0  0  0
   36.3730   27.4950   31.9550 C   0  0  0  0  0  0  0  0  0  0  0  0
   36.5420   28.1790   30.7680 C   0  0  0  0  0  0  0  0  0  0  0  0
   36.7960   27.6130   29.8600 H   0  0  0  0  0  0  0  0  0  0  0  0
   36.4100   29.5550   30.6540 C   0  0  0  0  0  3  0  0  0  0  0  0
   36.0900   30.2490   31.8170 C   0  0  0  0  0  0  0  0  0  0  0  0
   35.9580   31.5940   31.7240 N   0  0  0  0  0  0  0  0  0  0  0  0
   35.6490   32.3710   32.7870 C   0  0  0  0  0  0  0  0  0  0  0  0
   35.5430   33.4440   32.7130 H   0  0  0  0  0  0  0  0  0  0  0  0
   35.4710   31.7220   33.9950 C   0  0  0  0  0  3  0  0  0  0  0  0
   35.5980   30.3530   34.1280 C   0  0  0  0  0  3  0  0  0  0  0  0
   35.9150   29.5700   33.0290 C   0  0  0  0  0  0  0  0  0  0  0  0
   36.0540   28.1960   33.1080 C   0  0  0  0  0  3  0  0  0  0  0  0
   38.5000   23.2640   34.1550 S   0  0  0  0  0  0  0  0  0  0  0  0
   40.0200   23.6430   36.3580 N   0  0  0  0  0  0  0  0  0  0  0  0
   39.0760   24.3520   35.5190 C   0  0  2  0  0  0  0  0  0  0  0  0
   37.8910   24.7430   36.3540 C   0  0  0  0  0  0  0  0  0  0  0  0
   38.1890   24.6710   37.7340 O   0  0  0  0  0  0  0  0  0  0  0  0
   38.3290   23.3000   38.0020 C   0  0  0  0  0  0  0  0  0  0  0  0
   39.2920   22.6190   37.0800 C   0  0  2  0  0  0  0  0  0  0  0  0
   40.7160   23.1700   35.7430 H   0  0  0  0  0  0  0  0  0  0  0  0
   39.5870   25.2460   35.0560 H   0  0  0  0  0  0  0  0  0  0  0  0
   37.7000   25.8370   36.1840 H   0  0  0  0  0  0  0  0  0  0  0  0
   37.0040   24.1360   36.1080 H   0  0  0  0  0  0  0  0  0  0  0  0
   38.6140   23.1370   39.0530 H   0  0  0  0  0  0  0  0  0  0  0  0
   37.3040   22.8710   37.8410 H   0  0  0  0  0  0  0  0  0  0  0  0
   38.7470   21.9280   36.3810 H   0  0  0  0  0  0  0  0  0  0  0  0
   40.2390   21.8600   37.8090 O   0  0  0  0  0  0  0  0  0  0  0  0
   40.6930   21.2630   37.1620 H   0  0  0  0  0  0  0  0  0  0  0  0
  1 21  1  0  0  0  0
  2  1  2  0  0  0  0
  3  2  1  0  0  0  0
  4  3  2  0  0  0  0
  4  5  1  0  0  0  0
  5  6  2  0  0  0  0
  6  1  1  0  0  0  0
  7  2  1  0  0  0  0
  8  3  1  0  0  0  0
  9  5  1  0  0  0  0
  9 20  1  0  0  0  0
 10  9  2  0  0  0  0
 11 10  1  0  0  0  0
 12 10  1  0  0  0  0
 12 13  2  0  0  0  0
 13 19  1  0  0  0  0
 14 13  1  0  0  0  0
 14 15  2  0  0  0  0
 15 17  1  0  0  0  0
 16 15  1  0  0  0  0
 17 18  2  0  0  0  0
 19 20  2  0  0  0  0
 19 18  1  0  0  0  0
 21 23  1  0  0  0  0
 22 27  1  0  0  0  0
 23 29  1  6  0  0  0
 23 24  1  0  0  0  0
 23 22  1  0  0  0  0
 24 25  1  0  0  0  0
 25 26  1  0  0  0  0
 26 32  1  0  0  0  0
 27 34  1  6  0  0  0
 27 35  1  0  0  0  0
 27 26  1  0  0  0  0
 28 22  1  0  0  0  0
 30 24  1  0  0  0  0
 31 24  1  0  0  0  0
 33 26  1  0  0  0  0
 36 35  1  0  0  0  0
M  END
>  <minimizedAffinity>
-6.1348958

$$$$

 OpenBabel03272502193D

 36 39  0  0  1  0  0  0  0  0999 V2000
   36.3200   28.2640   33.8800 C   0  0  0  0  0  0  0  0  0  0  0  0
   36.7880   28.4040   32.5560 C   0  0  0  0  0  0  0  0  0  0  0  0
   37.7900   27.5450   32.1180 C   0  0  0  0  0  0  0  0  0  0  0  0
   38.2580   26.6160   33.0110 N   0  0  0  0  0  0  0  0  0  0  0  0
   37.7980   26.5060   34.2550 C   0  0  0  0  0  0  0  0  0  0  0  0
   36.8350   27.3310   34.6730 N   0  0  0  0  0  0  0  0  0  0  0  0
   36.4300   29.1280   31.8460 H   0  0  0  0  0  0  0  0  0  0  0  0
   38.1940   27.5920   31.1290 H   0  0  0  0  0  0  0  0  0  0  0  0
   38.3470   25.4880   35.1480 C   0  0  0  0  0  0  0  0  0  0  0  0
   37.7120   25.1500   36.3260 C   0  0  0  0  0  0  0  0  0  0  0  0
   36.7750   25.6610   36.5910 H   0  0  0  0  0  0  0  0  0  0  0  0
   38.1940   24.1910   37.2050 C   0  0  0  0  0  3  0  0  0  0  0  0
   39.3810   23.5580   36.8480 C   0  0  0  0  0  0  0  0  0  0  0  0
   39.8660   22.6190   37.6960 N   0  0  0  0  0  0  0  0  0  0  0  0
   41.0110   21.9400   37.4530 C   0  0  0  0  0  0  0  0  0  0  0  0
   41.3970   21.1900   38.1290 H   0  0  0  0  0  0  0  0  0  0  0  0
   41.6760   22.2510   36.2810 C   0  0  0  0  0  3  0  0  0  0  0  0
   41.2110   23.2020   35.3940 C   0  0  0  0  0  3  0  0  0  0  0  0
   40.0370   23.8890   35.6570 C   0  0  0  0  0  0  0  0  0  0  0  0
   39.5290   24.8510   34.8020 C   0  0  0  0  0  3  0  0  0  0  0  0
   35.0410   29.4350   34.2800 S   0  0  0  0  0  0  0  0  0  0  0  0
   35.9480   31.6130   35.5980 N   0  0  0  0  0  0  0  0  0  0  0  0
   35.6890   31.1540   34.2490 C   0  0  2  0  0  0  0  0  0  0  0  0
   34.6540   32.0460   33.6290 C   0  0  0  0  0  0  0  0  0  0  0  0
   34.5240   33.2580   34.3460 O   0  0  0  0  0  0  0  0  0  0  0  0
   33.9380   32.8920   35.5680 C   0  0  0  0  0  0  0  0  0  0  0  0
   34.6720   31.7870   36.2620 C   0  0  2  0  0  0  0  0  0  0  0  0
   36.4760   30.8700   36.1030 H   0  0  0  0  0  0  0  0  0  0  0  0
   36.6550   31.1480   33.6650 H   0  0  0  0  0  0  0  0  0  0  0  0
   35.0430   32.3740   32.6270 H   0  0  0  0  0  0  0  0  0  0  0  0
   33.6810   31.5340   33.5360 H   0  0  0  0  0  0  0  0  0  0  0  0
   33.8380   33.7680   36.2280 H   0  0  0  0  0  0  0  0  0  0  0  0
   32.9090   32.5330   35.2960 H   0  0  0  0  0  0  0  0  0  0  0  0
   34.0660   30.8420   36.2480 H   0  0  0  0  0  0  0  0  0  0  0  0
   34.9390   32.1260   37.6110 O   0  0  0  0  0  0  0  0  0  0  0  0
   35.2110   31.2930   38.0720 H   0  0  0  0  0  0  0  0  0  0  0  0
  1 21  1  0  0  0  0
  1  6  1  0  0  0  0
  2  1  2  0  0  0  0
  3  2  1  0  0  0  0
  3  4  2  0  0  0  0
  4  5  1  0  0  0  0
  5  6  2  0  0  0  0
  5  9  1  0  0  0  0
  7  2  1  0  0  0  0
  8  3  1  0  0  0  0
  9 10  1  0  0  0  0
 10 11  1  0  0  0  0
 10 12  2  0  0  0  0
 13 12  1  0  0  0  0
 13 14  1  0  0  0  0
 15 14  2  0  0  0  0
 15 16  1  0  0  0  0
 17 15  1  0  0  0  0
 18 19  1  0  0  0  0
 18 17  2  0  0  0  0
 19 13  2  0  0  0  0
 20  9  2  0  0  0  0
 20 19  1  0  0  0  0
 22 28  1  0  0  0  0
 22 27  1  0  0  0  0
 23 29  1  6  0  0  0
 23 21  1  0  0  0  0
 23 22  1  0  0  0  0
 24 23  1  0  0  0  0
 24 25  1  0  0  0  0
 25 26  1  0  0  0  0
 26 32  1  0  0  0  0
 26 27  1  0  0  0  0
 27 34  1  6  0  0  0
 27 35  1  0  0  0  0
 30 24  1  0  0  0  0
 31 24  1  0  0  0  0
 33 26  1  0  0  0  0
 35 36  1  0  0  0  0
M  END
>  <minimizedAffinity>
-6.09117079

$$$$

 OpenBabel03272502193D

 36 39  0  0  1  0  0  0  0  0999 V2000
   35.7510   29.0220   33.6550 C   0  0  0  0  0  0  0  0  0  0  0  0
   36.0630   29.3320   32.3150 C   0  0  0  0  0  0  0  0  0  0  0  0
   37.0660   28.6020   31.6860 C   0  0  0  0  0  0  0  0  0  0  0  0
   37.6870   27.6250   32.4200 N   0  0  0  0  0  0  0  0  0  0  0  0
   37.3720   27.3530   33.6840 C   0  0  0  0  0  0  0  0  0  0  0  0
   36.4090   28.0540   34.2850 N   0  0  0  0  0  0  0  0  0  0  0  0
   35.5840   30.0960   31.7280 H   0  0  0  0  0  0  0  0  0  0  0  0
   37.3570   28.7810   30.6730 H   0  0  0  0  0  0  0  0  0  0  0  0
   38.0810   26.2930   34.4000 C   0  0  0  0  0  0  0  0  0  0  0  0
   39.1780   25.6650   33.8470 C   0  0  0  0  0  0  0  0  0  0  0  0
   39.5190   25.9720   32.8480 H   0  0  0  0  0  0  0  0  0  0  0  0
   39.8830   24.6560   34.4870 C   0  0  0  0  0  3  0  0  0  0  0  0
   39.4310   24.2840   35.7500 C   0  0  0  0  0  0  0  0  0  0  0  0
   40.1080   23.2990   36.3880 N   0  0  0  0  0  0  0  0  0  0  0  0
   39.7600   22.8570   37.6190 C   0  0  0  0  0  0  0  0  0  0  0  0
   40.3010   22.0710   38.1280 H   0  0  0  0  0  0  0  0  0  0  0  0
   38.6650   23.4620   38.2060 C   0  0  0  0  0  3  0  0  0  0  0  0
   37.9520   24.4690   37.5850 C   0  0  0  0  0  3  0  0  0  0  0  0
   38.3200   24.9120   36.3250 C   0  0  0  0  0  0  0  0  0  0  0  0
   37.6390   25.9160   35.6590 C   0  0  0  0  0  3  0  0  0  0  0  0
   34.4490   30.0440   34.3080 S   0  0  0  0  0  0  0  0  0  0  0  0
   32.4410   29.5160   32.5790 N   0  0  0  0  0  0  0  0  0  0  0  0
   32.8010   29.3100   33.9670 C   0  0  2  0  0  0  0  0  0  0  0  0
   31.7820   29.9910   34.8330 C   0  0  0  0  0  0  0  0  0  0  0  0
   30.6040   30.2840   34.1080 O   0  0  0  0  0  0  0  0  0  0  0  0
   30.9780   31.2900   33.2030 C   0  0  0  0  0  0  0  0  0  0  0  0
   32.1830   30.9290   32.3920 C   0  0  2  0  0  0  0  0  0  0  0  0
   33.2570   29.2560   31.9850 H   0  0  0  0  0  0  0  0  0  0  0  0
   32.8660   28.2020   34.1740 H   0  0  0  0  0  0  0  0  0  0  0  0
   31.4390   29.2500   35.6040 H   0  0  0  0  0  0  0  0  0  0  0  0
   32.1940   30.9000   35.3030 H   0  0  0  0  0  0  0  0  0  0  0  0
   30.1320   31.5570   32.5490 H   0  0  0  0  0  0  0  0  0  0  0  0
   31.2230   32.1770   33.8470 H   0  0  0  0  0  0  0  0  0  0  0  0
   33.0640   31.5550   32.6960 H   0  0  0  0  0  0  0  0  0  0  0  0
   31.9430   31.1370   31.0110 O   0  0  0  0  0  0  0  0  0  0  0  0
   32.8220   31.1050   30.5560 H   0  0  0  0  0  0  0  0  0  0  0  0
  1  6  1  0  0  0  0
  1 21  1  0  0  0  0
  2  1  2  0  0  0  0
  3  2  1  0  0  0  0
  3  4  2  0  0  0  0
  4  5  1  0  0  0  0
  5  6  2  0  0  0  0
  5  9  1  0  0  0  0
  7  2  1  0  0  0  0
  8  3  1  0  0  0  0
  9 20  1  0  0  0  0
 10  9  2  0  0  0  0
 10 12  1  0  0  0  0
 11 10  1  0  0  0  0
 12 13  2  0  0  0  0
 13 19  1  0  0  0  0
 13 14  1  0  0  0  0
 14 15  2  0  0  0  0
 15 16  1  0  0  0  0
 15 17  1  0  0  0  0
 18 17  2  0  0  0  0
 19 18  1  0  0  0  0
 20 19  2  0  0  0  0
 22 23  1  0  0  0  0
 23 29  1  1  0  0  0
 23 21  1  0  0  0  0
 23 24  1  0  0  0  0
 24 31  1  0  0  0  0
 24 30  1  0  0  0  0
 25 24  1  0  0  0  0
 26 33  1  0  0  0  0
 26 25  1  0  0  0  0
 27 22  1  0  0  0  0
 27 34  1  1  0  0  0
 27 26  1  0  0  0  0
 28 22  1  0  0  0  0
 32 26  1  0  0  0  0
 35 27  1  0  0  0  0
 36 35  1  0  0  0  0
M  END
>  <minimizedAffinity>
-5.92980576

$$$$

 OpenBabel03272502193D

 36 39  0  0  1  0  0  0  0  0999 V2000
   37.6530   23.3600   32.4690 C   0  0  0  0  0  0  0  0  0  0  0  0
   38.2270   22.9240   31.2570 C   0  0  0  0  0  0  0  0  0  0  0  0
   38.3660   23.8460   30.2250 C   0  0  0  0  0  0  0  0  0  0  0  0
   37.9300   25.1240   30.4600 N   0  0  0  0  0  0  0  0  0  0  0  0
   37.3910   25.5090   31.6150 C   0  0  0  0  0  0  0  0  0  0  0  0
   37.2600   24.6230   32.6040 N   0  0  0  0  0  0  0  0  0  0  0  0
   38.5730   21.9250   31.0600 H   0  0  0  0  0  0  0  0  0  0  0  0
   38.7920   23.5880   29.2790 H   0  0  0  0  0  0  0  0  0  0  0  0
   36.9510   26.8920   31.7890 C   0  0  0  0  0  0  0  0  0  0  0  0
   36.8380   27.7480   30.7120 C   0  0  0  0  0  0  0  0  0  0  0  0
   37.0870   27.3770   29.7080 H   0  0  0  0  0  0  0  0  0  0  0  0
   36.4250   29.0670   30.8270 C   0  0  0  0  0  3  0  0  0  0  0  0
   36.1160   29.5150   32.1080 C   0  0  0  0  0  0  0  0  0  0  0  0
   35.7110   30.8020   32.2380 N   0  0  0  0  0  0  0  0  0  0  0  0
   35.3850   31.3460   33.4330 C   0  0  0  0  0  0  0  0  0  0  0  0
   35.0610   32.3720   33.5360 H   0  0  0  0  0  0  0  0  0  0  0  0
   35.4850   30.5180   34.5350 C   0  0  0  0  0  3  0  0  0  0  0  0
   35.8940   29.2020   34.4410 C   0  0  0  0  0  3  0  0  0  0  0  0
   36.2250   28.6590   33.2100 C   0  0  0  0  0  0  0  0  0  0  0  0
   36.6410   27.3480   33.0610 C   0  0  0  0  0  3  0  0  0  0  0  0
   37.5480   22.0630   33.6830 S   0  0  0  0  0  0  0  0  0  0  0  0
   38.5620   21.8500   36.1780 N   0  0  0  0  0  0  0  0  0  0  0  0
   38.9910   22.1060   34.8190 C   0  0  2  0  0  0  0  0  0  0  0  0
   39.6080   23.4730   34.7590 C   0  0  0  0  0  0  0  0  0  0  0  0
   39.9470   23.9400   36.0500 O   0  0  0  0  0  0  0  0  0  0  0  0
   38.7160   24.1740   36.6840 C   0  0  0  0  0  0  0  0  0  0  0  0
   37.7950   22.9950   36.6260 C   0  0  2  0  0  0  0  0  0  0  0  0
   37.9310   21.0210   36.1740 H   0  0  0  0  0  0  0  0  0  0  0  0
   39.7090   21.2980   34.4960 H   0  0  0  0  0  0  0  0  0  0  0  0
   40.6030   23.3760   34.2460 H   0  0  0  0  0  0  0  0  0  0  0  0
   38.9530   24.1910   34.2370 H   0  0  0  0  0  0  0  0  0  0  0  0
   38.8710   24.4970   37.7250 H   0  0  0  0  0  0  0  0  0  0  0  0
   38.2570   25.0240   36.1120 H   0  0  0  0  0  0  0  0  0  0  0  0
   36.9290   23.2050   35.9440 H   0  0  0  0  0  0  0  0  0  0  0  0
   37.2870   22.6870   37.9120 O   0  0  0  0  0  0  0  0  0  0  0  0
   36.5270   22.0660   37.7830 H   0  0  0  0  0  0  0  0  0  0  0  0
  1  6  1  0  0  0  0
  1 21  1  0  0  0  0
  2  1  2  0  0  0  0
  3  4  2  0  0  0  0
  3  2  1  0  0  0  0
  4  5  1  0  0  0  0
  5  9  1  0  0  0  0
  5  6  2  0  0  0  0
  7  2  1  0  0  0  0
  8  3  1  0  0  0  0
  9 20  1  0  0  0  0
 10 12  1  0  0  0  0
 10  9  2  0  0  0  0
 11 10  1  0  0  0  0
 12 13  2  0  0  0  0
 13 14  1  0  0  0  0
 13 19  1  0  0  0  0
 14 15  2  0  0  0  0
 15 16  1  0  0  0  0
 15 17  1  0  0  0  0
 18 17  2  0  0  0  0
 19 18  1  0  0  0  0
 20 19  2  0  0  0  0
 21 23  1  0  0  0  0
 22 27  1  0  0  0  0
 23 29  1  6  0  0  0
 23 22  1  0  0  0  0
 24 23  1  0  0  0  0
 24 25  1  0  0  0  0
 25 26  1  0  0  0  0
 26 32  1  0  0  0  0
 27 34  1  6  0  0  0
 27 26  1  0  0  0  0
 27 35  1  0  0  0  0
 28 22  1  0  0  0  0
 30 24  1  0  0  0  0
 31 24  1  0  0  0  0
 33 26  1  0  0  0  0
 36 35  1  0  0  0  0
M  END
>  <minimizedAffinity>
-5.79703951

$$$$

 OpenBabel03272502193D

 36 39  0  0  1  0  0  0  0  0999 V2000
   35.6370   29.3520   34.0020 C   0  0  0  0  0  0  0  0  0  0  0  0
   35.2860   29.3890   32.6360 C   0  0  0  0  0  0  0  0  0  0  0  0
   35.9220   28.5060   31.7690 C   0  0  0  0  0  0  0  0  0  0  0  0
   36.8520   27.6550   32.3070 N   0  0  0  0  0  0  0  0  0  0  0  0
   37.1640   27.6410   33.6010 C   0  0  0  0  0  0  0  0  0  0  0  0
   36.5520   28.4890   34.4320 N   0  0  0  0  0  0  0  0  0  0  0  0
   34.5590   30.0510   32.2010 H   0  0  0  0  0  0  0  0  0  0  0  0
   35.7080   28.4760   30.7210 H   0  0  0  0  0  0  0  0  0  0  0  0
   38.1670   26.7030   34.0990 C   0  0  0  0  0  0  0  0  0  0  0  0
   37.8020   25.5110   34.6920 C   0  0  0  0  0  0  0  0  0  0  0  0
   36.7330   25.2700   34.7880 H   0  0  0  0  0  0  0  0  0  0  0  0
   38.7160   24.5890   35.1790 C   0  0  0  0  0  3  0  0  0  0  0  0
   40.0620   24.9160   35.0470 C   0  0  0  0  0  0  0  0  0  0  0  0
   40.9690   24.0270   35.5180 N   0  0  0  0  0  0  0  0  0  0  0  0
   42.3030   24.2380   35.4430 C   0  0  0  0  0  0  0  0  0  0  0  0
   43.0270   23.5270   35.8190 H   0  0  0  0  0  0  0  0  0  0  0  0
   42.7090   25.4210   34.8560 C   0  0  0  0  0  3  0  0  0  0  0  0
   41.8130   26.3510   34.3640 C   0  0  0  0  0  3  0  0  0  0  0  0
   40.4500   26.1210   34.4480 C   0  0  0  0  0  0  0  0  0  0  0  0
   39.5110   27.0190   33.9720 C   0  0  0  0  0  3  0  0  0  0  0  0
   34.7350   30.5400   34.9720 S   0  0  0  0  0  0  0  0  0  0  0  0
   35.2140   32.0530   37.1590 N   0  0  0  0  0  0  0  0  0  0  0  0
   35.8780   31.5860   35.9590 C   0  0  2  0  0  0  0  0  0  0  0  0
   36.2730   32.7760   35.1340 C   0  0  0  0  0  0  0  0  0  0  0  0
   36.2510   33.9640   35.9020 O   0  0  0  0  0  0  0  0  0  0  0  0
   34.8920   34.1970   36.1680 C   0  0  0  0  0  0  0  0  0  0  0  0
   34.2000   33.0100   36.7630 C   0  0  2  0  0  0  0  0  0  0  0  0
   34.7350   31.2430   37.6070 H   0  0  0  0  0  0  0  0  0  0  0  0
   36.7650   30.9520   36.2470 H   0  0  0  0  0  0  0  0  0  0  0  0
   37.3570   32.6590   34.8630 H   0  0  0  0  0  0  0  0  0  0  0  0
   35.6410   32.8740   34.2360 H   0  0  0  0  0  0  0  0  0  0  0  0
   34.7690   35.0830   36.8110 H   0  0  0  0  0  0  0  0  0  0  0  0
   34.4390   34.4190   35.1650 H   0  0  0  0  0  0  0  0  0  0  0  0
   33.4770   32.5660   36.0270 H   0  0  0  0  0  0  0  0  0  0  0  0
   33.4840   33.3740   37.9290 O   0  0  0  0  0  0  0  0  0  0  0  0
   32.8750   32.6230   38.1430 H   0  0  0  0  0  0  0  0  0  0  0  0
  1  6  1  0  0  0  0
  1 21  1  0  0  0  0
  2  1  2  0  0  0  0
  3  4  2  0  0  0  0
  3  2  1  0  0  0  0
  4  5  1  0  0  0  0
  5  9  1  0  0  0  0
  5  6  2  0  0  0  0
  7  2  1  0  0  0  0
  8  3  1  0  0  0  0
  9 10  1  0  0  0  0
 10 11  1  0  0  0  0
 10 12  2  0  0  0  0
 13 12  1  0  0  0  0
 13 14  1  0  0  0  0
 15 14  2  0  0  0  0
 15 16  1  0  0  0  0
 17 15  1  0  0  0  0
 18 19  1  0  0  0  0
 18 17  2  0  0  0  0
 19 13  2  0  0  0  0
 20  9  2  0  0  0  0
 20 19  1  0  0  0  0
 21 23  1  0  0  0  0
 22 28  1  0  0  0  0
 23 29  1  1  0  0  0
 23 22  1  0  0  0  0
 24 25  1  0  0  0  0
 24 23  1  0  0  0  0
 25 26  1  0  0  0  0
 26 27  1  0  0  0  0
 26 32  1  0  0  0  0
 27 34  1  6  0  0  0
 27 22  1  0  0  0  0
 27 35  1  0  0  0  0
 30 24  1  0  0  0  0
 31 24  1  0  0  0  0
 33 26  1  0  0  0  0
 35 36  1  0  0  0  0
M  END
>  <minimizedAffinity>
-5.76561832

$$$$

 OpenBabel03272502193D

 36 39  0  0  1  0  0  0  0  0999 V2000
   36.5470   23.9930   31.1070 C   0  0  0  0  0  0  0  0  0  0  0  0
   37.8040   23.7170   30.5310 C   0  0  0  0  0  0  0  0  0  0  0  0
   38.6710   24.7810   30.3020 C   0  0  0  0  0  0  0  0  0  0  0  0
   38.2380   26.0320   30.6550 N   0  0  0  0  0  0  0  0  0  0  0  0
   37.0460   26.2640   31.1980 C   0  0  0  0  0  0  0  0  0  0  0  0
   36.2150   25.2420   31.4170 N   0  0  0  0  0  0  0  0  0  0  0  0
   38.1560   22.7400   30.2500 H   0  0  0  0  0  0  0  0  0  0  0  0
   39.6400   24.6480   29.8690 H   0  0  0  0  0  0  0  0  0  0  0  0
   36.6570   27.6290   31.5480 C   0  0  0  0  0  0  0  0  0  0  0  0
   36.5710   28.6170   30.5890 C   0  0  0  0  0  0  0  0  0  0  0  0
   36.8030   28.3660   29.5430 H   0  0  0  0  0  0  0  0  0  0  0  0
   36.2070   29.9260   30.8710 C   0  0  0  0  0  3  0  0  0  0  0  0
   35.9200   30.2200   32.2010 C   0  0  0  0  0  0  0  0  0  0  0  0
   35.5630   31.4930   32.4940 N   0  0  0  0  0  0  0  0  0  0  0  0
   35.2610   31.8940   33.7510 C   0  0  0  0  0  0  0  0  0  0  0  0
   34.9750   32.9100   33.9850 H   0  0  0  0  0  0  0  0  0  0  0  0
   35.3350   30.9310   34.7400 C   0  0  0  0  0  3  0  0  0  0  0  0
   35.6960   29.6230   34.4780 C   0  0  0  0  0  3  0  0  0  0  0  0
   36.0010   29.2280   33.1860 C   0  0  0  0  0  0  0  0  0  0  0  0
   36.3680   27.9320   32.8700 C   0  0  0  0  0  3  0  0  0  0  0  0
   35.5620   22.5280   31.3330 S   0  0  0  0  0  0  0  0  0  0  0  0
   36.9290   20.2110   31.5850 N   0  0  0  0  0  0  0  0  0  0  0  0
   36.4330   21.3060   32.3920 C   0  0  2  0  0  0  0  0  0  0  0  0
   35.4600   20.7600   33.3960 C   0  0  0  0  0  0  0  0  0  0  0  0
   35.5950   19.3590   33.5340 O   0  0  0  0  0  0  0  0  0  0  0  0
   35.1310   18.8310   32.3180 C   0  0  0  0  0  0  0  0  0  0  0  0
   35.7890   19.4460   31.1230 C   0  0  2  0  0  0  0  0  0  0  0  0
   37.4100   20.6090   30.7500 H   0  0  0  0  0  0  0  0  0  0  0  0
   37.3040   21.8310   32.8820 H   0  0  0  0  0  0  0  0  0  0  0  0
   35.7550   21.1520   34.4060 H   0  0  0  0  0  0  0  0  0  0  0  0
   34.4220   21.0350   33.1440 H   0  0  0  0  0  0  0  0  0  0  0  0
   35.2420   17.7350   32.3040 H   0  0  0  0  0  0  0  0  0  0  0  0
   34.0350   19.0770   32.3000 H   0  0  0  0  0  0  0  0  0  0  0  0
   35.0600   20.0890   30.5590 H   0  0  0  0  0  0  0  0  0  0  0  0
   36.2750   18.4480   30.2440 O   0  0  0  0  0  0  0  0  0  0  0  0
   36.4870   18.8940   29.3860 H   0  0  0  0  0  0  0  0  0  0  0  0
  1 21  1  0  0  0  0
  1  6  1  0  0  0  0
  2  1  2  0  0  0  0
  3  2  1  0  0  0  0
  3  4  2  0  0  0  0
  4  5  1  0  0  0  0
  5  6  2  0  0  0  0
  5  9  1  0  0  0  0
  7  2  1  0  0  0  0
  8  3  1  0  0  0  0
  9 20  1  0  0  0  0
 10 12  1  0  0  0  0
 10  9  2  0  0  0  0
 11 10  1  0  0  0  0
 12 13  2  0  0  0  0
 13 14  1  0  0  0  0
 13 19  1  0  0  0  0
 14 15  2  0  0  0  0
 15 16  1  0  0  0  0
 15 17  1  0  0  0  0
 18 17  2  0  0  0  0
 19 18  1  0  0  0  0
 20 19  2  0  0  0  0
 21 23  1  0  0  0  0
 22 23  1  0  0  0  0
 23 29  1  1  0  0  0
 23 24  1  0  0  0  0
 24 25  1  0  0  0  0
 24 30  1  0  0  0  0
 26 25  1  0  0  0  0
 27 34  1  6  0  0  0
 27 22  1  0  0  0  0
 27 26  1  0  0  0  0
 28 22  1  0  0  0  0
 31 24  1  0  0  0  0
 32 26  1  0  0  0  0
 33 26  1  0  0  0  0
 35 27  1  0  0  0  0
 36 35  1  0  0  0  0
M  END
>  <minimizedAffinity>
-5.75836372

$$$$
