
 OpenBabel03272510083D

 47 52  0  0  0  0  0  0  0  0999 V2000
   35.5690   30.1890   47.5310 C   0  0  0  0  0  0  0  0  0  0  0  0
   35.6080   30.3000   48.8850 N   0  0  0  0  0  0  0  0  0  0  0  0
   36.7200   30.7590   49.4840 C   0  0  0  0  0  0  0  0  0  0  0  0
   37.8500   31.1380   48.8210 N   0  0  0  0  0  0  0  0  0  0  0  0
   37.8450   31.0410   47.4760 C   0  0  0  0  0  0  0  0  0  0  0  0
   38.9350   31.4160   46.7070 C   0  0  0  0  0  0  0  0  0  0  0  0
   38.8860   31.3170   45.3120 C   0  0  0  0  0  0  0  0  0  0  0  0
   37.7230   30.8350   44.7010 C   0  0  0  0  0  0  0  0  0  0  0  0
   36.6580   30.4720   45.5150 C   0  0  0  0  0  0  0  0  0  0  0  0
   36.7040   30.5690   46.8700 C   0  0  0  0  0  0  0  0  0  0  0  0
   36.8150   30.8710   50.5650 H   0  0  0  0  0  0  0  0  0  0  0  0
   39.7910   31.7760   47.2610 H   0  0  0  0  0  0  0  0  0  0  0  0
   39.7940   31.6410   44.8260 H   0  0  0  0  0  0  0  0  0  0  0  0
   37.9010   30.8430   43.6380 H   0  0  0  0  0  0  0  0  0  0  0  0
   33.9580   28.3790   46.7360 C   0  0  0  0  0  0  0  0  0  0  0  0
   34.3410   29.7130   46.9980 C   0  0  0  0  0  0  0  0  0  0  0  0
   33.4160   30.7460   46.6930 C   0  0  0  0  0  0  0  0  0  0  0  0
   32.2100   30.4280   46.1620 N   0  0  0  0  0  0  0  0  0  0  0  0
   31.9030   29.1180   45.9300 C   0  0  0  0  0  0  0  0  0  0  0  0
   32.7460   28.1210   46.2080 N   0  0  0  0  0  0  0  0  0  0  0  0
   30.6140   28.8390   45.3360 N   0  0  0  0  0  0  0  0  0  0  0  0
   29.3570   29.1730   45.9340 C   0  0  0  0  0  0  0  0  0  0  0  0
   28.3470   28.9470   44.8550 C   0  0  0  0  0  0  0  0  0  0  0  0
   29.1250   28.6870   43.5690 C   0  0  0  0  0  0  0  0  0  0  0  0
   30.4230   28.1760   44.0330 C   0  0  0  0  0  0  0  0  0  0  0  0
   34.7080   27.6470   46.9960 H   0  0  0  0  0  0  0  0  0  0  0  0
   33.6160   31.7850   46.8600 H   0  0  0  0  0  0  0  0  0  0  0  0
   29.1950   28.5390   46.8360 H   0  0  0  0  0  0  0  0  0  0  0  0
   29.3340   30.2450   46.2340 H   0  0  0  0  0  0  0  0  0  0  0  0
   27.6720   29.8290   44.7190 H   0  0  0  0  0  0  0  0  0  0  0  0
   27.6720   28.0840   45.0440 H   0  0  0  0  0  0  0  0  0  0  0  0
   29.2570   29.6170   42.9830 H   0  0  0  0  0  0  0  0  0  0  0  0
   28.5790   27.9190   42.9790 H   0  0  0  0  0  0  0  0  0  0  0  0
   31.2960   28.3390   43.4040 H   0  0  0  0  0  0  0  0  0  0  0  0
   30.4170   27.0760   44.2590 H   0  0  0  0  0  0  0  0  0  0  0  0
   35.7040   29.9830   44.5360 C   0  0  0  0  0  0  0  0  0  0  0  0
   35.4260   28.7400   44.0030 C   0  0  0  0  0  0  0  0  0  0  0  0
   36.0990   27.9890   44.4530 H   0  0  0  0  0  0  0  0  0  0  0  0
   34.4920   28.4340   43.0530 C   0  0  0  0  0  3  0  0  0  0  0  0
   33.7460   29.4800   42.5710 C   0  0  0  0  0  0  0  0  0  0  0  0
   32.8180   29.2170   41.6340 N   0  0  0  0  0  0  0  0  0  0  0  0
   32.0410   30.1960   41.1100 C   0  0  0  0  0  0  0  0  0  0  0  0
   31.2820   29.9770   40.3430 H   0  0  0  0  0  0  0  0  0  0  0  0
   32.1980   31.5160   41.5440 C   0  0  0  0  0  3  0  0  0  0  0  0
   33.1410   31.8430   42.5090 C   0  0  0  0  0  3  0  0  0  0  0  0
   33.8770   30.7860   42.9770 C   0  0  0  0  0  0  0  0  0  0  0  0
   34.8570   30.9640   43.9450 C   0  0  0  0  0  3  0  0  0  0  0  0
  1  2  1  0  0  0  0
  2  3  2  0  0  0  0
  3 11  1  0  0  0  0
  4  3  1  0  0  0  0
  5  4  2  0  0  0  0
  6 12  1  0  0  0  0
  6  5  1  0  0  0  0
  7  6  2  0  0  0  0
  8  7  1  0  0  0  0
  8  9  2  0  0  0  0
  9 10  1  0  0  0  0
 10  5  1  0  0  0  0
 10  1  2  0  0  0  0
 13  7  1  0  0  0  0
 14  8  1  0  0  0  0
 15 26  1  0  0  0  0
 15 16  1  0  0  0  0
 16  1  1  0  0  0  0
 17 27  1  0  0  0  0
 17 16  2  0  0  0  0
 18 17  1  0  0  0  0
 19 18  2  0  0  0  0
 19 20  1  0  0  0  0
 20 15  2  0  0  0  0
 21 19  1  0  0  0  0
 21 22  1  0  0  0  0
 22 29  1  0  0  0  0
 22 28  1  0  0  0  0
 23 31  1  0  0  0  0
 23 22  1  0  0  0  0
 24 25  1  0  0  0  0
 24 23  1  0  0  0  0
 25 35  1  0  0  0  0
 25 21  1  0  0  0  0
 30 23  1  0  0  0  0
 32 24  1  0  0  0  0
 33 24  1  0  0  0  0
 34 25  1  0  0  0  0
 36  9  1  0  0  0  0
 37 38  1  0  0  0  0
 37 36  1  0  0  0  0
 39 37  2  0  0  0  0
 40 46  1  0  0  0  0
 40 39  1  0  0  0  0
 41 40  2  0  0  0  0
 42 44  2  0  0  0  0
 42 41  1  0  0  0  0
 43 42  1  0  0  0  0
 44 45  1  0  0  0  0
 45 46  2  0  0  0  0
 46 47  1  0  0  0  0
 47 36  2  0  0  0  0
M  END
>  <minimizedAffinity>
-4.99844646

>  <minimizedRMSD>
3.59117603

$$$$
