
 OpenBabel03272509583D

 49 53  0  0  0  0  0  0  0  0999 V2000
   33.4480   28.1190   47.1910 C   0  0  0  0  0  0  0  0  0  0  0  0
   33.8700   27.1250   47.3360 H   0  0  0  0  0  0  0  0  0  0  0  0
   33.4980   28.3230   46.0990 H   0  0  0  0  0  0  0  0  0  0  0  0
   32.0000   28.1160   47.5430 C   0  0  0  0  0  0  0  0  0  0  0  0
   31.6570   27.6780   48.8080 C   0  0  0  0  0  0  0  0  0  0  0  0
   30.3440   27.6360   49.2320 C   0  0  0  0  0  0  0  0  0  0  0  0
   29.3810   28.0310   48.3980 N   0  0  0  0  0  0  0  0  0  0  0  0
   29.7300   28.4590   47.1580 C   0  0  0  0  0  0  0  0  0  0  0  0
   31.0020   28.5060   46.7280 N   0  0  0  0  0  0  0  0  0  0  0  0
   32.4020   27.3500   49.5180 H   0  0  0  0  0  0  0  0  0  0  0  0
   30.0590   27.2910   50.2310 H   0  0  0  0  0  0  0  0  0  0  0  0
   28.6380   28.8920   46.2450 C   0  0  0  0  0  0  0  0  0  0  0  0
   27.7920   29.3500   46.7980 H   0  0  0  0  0  0  0  0  0  0  0  0
   29.0550   29.7020   45.6120 H   0  0  0  0  0  0  0  0  0  0  0  0
   28.1630   27.7540   45.3920 C   0  0  0  0  0  0  0  0  0  0  0  0
   28.8670   26.5770   45.2470 C   0  0  0  0  0  0  0  0  0  0  0  0
   29.8070   26.4620   45.7700 H   0  0  0  0  0  0  0  0  0  0  0  0
   28.3130   25.6080   44.4280 C   0  0  0  0  0  3  0  0  0  0  0  0
   27.1020   25.7980   43.7720 C   0  0  0  0  0  0  0  0  0  0  0  0
   26.5720   24.8580   42.9820 N   0  0  0  0  0  0  0  0  0  0  0  0
   25.3940   25.0900   42.3680 C   0  0  0  0  0  0  0  0  0  0  0  0
   24.9120   24.3640   41.7130 H   0  0  0  0  0  0  0  0  0  0  0  0
   24.6730   26.2780   42.5090 C   0  0  0  0  0  3  0  0  0  0  0  0
   25.1930   27.2500   43.3090 C   0  0  0  0  0  3  0  0  0  0  0  0
   26.4020   26.9940   43.9290 C   0  0  0  0  0  0  0  0  0  0  0  0
   26.9460   27.9480   44.7360 C   0  0  0  0  0  3  0  0  0  0  0  0
   34.2360   29.1170   47.9740 C   0  0  0  0  0  0  0  0  0  0  0  0
   33.6010   29.8590   48.4970 H   0  0  0  0  0  0  0  0  0  0  0  0
   34.8690   29.6910   47.2650 H   0  0  0  0  0  0  0  0  0  0  0  0
   35.1330   28.4890   48.8710 O   0  0  0  0  0  0  0  0  0  0  0  0
   37.2770   30.0790   51.2930 C   0  0  0  0  0  0  0  0  0  0  0  0
   38.0800   30.8770   50.4400 C   0  0  0  0  0  0  0  0  0  0  0  0
   37.8180   30.8040   49.0740 C   0  0  0  0  0  0  0  0  0  0  0  0
   36.8060   29.9650   48.6930 N   0  0  0  0  0  0  0  0  0  0  0  0
   36.0660   29.2280   49.5130 C   0  0  0  0  0  0  0  0  0  0  0  0
   36.3100   29.2890   50.8360 N   0  0  0  0  0  0  0  0  0  0  0  0
   37.5360   30.1870   52.3340 H   0  0  0  0  0  0  0  0  0  0  0  0
   38.8680   31.5240   50.7660 H   0  0  0  0  0  0  0  0  0  0  0  0
   38.8370   33.5100   49.1940 F   0  0  0  0  0  0  0  0  0  0  0  0
   39.0120   32.7930   48.0920 C   0  0  0  0  0  0  0  0  0  0  0  0
   38.5300   31.5390   48.0610 C   0  0  0  0  0  0  0  0  0  0  0  0
   38.7680   30.8700   46.8540 C   0  0  0  0  0  0  0  0  0  0  0  0
   39.4320   31.4530   45.8110 C   0  0  0  0  0  0  0  0  0  0  0  0
   39.9060   32.7420   45.8960 C   0  0  0  0  0  0  0  0  0  0  0  0
   39.6830   33.4040   47.0600 C   0  0  0  0  0  0  0  0  0  0  0  0
   38.4360   29.8510   46.6890 H   0  0  0  0  0  0  0  0  0  0  0  0
   39.6160   30.9220   44.8690 H   0  0  0  0  0  0  0  0  0  0  0  0
   40.4280   33.1840   45.0630 H   0  0  0  0  0  0  0  0  0  0  0  0
   40.0490   34.4200   47.1440 H   0  0  0  0  0  0  0  0  0  0  0  0
  1  2  1  0  0  0  0
  1  4  1  0  0  0  0
  1 27  1  0  0  0  0
  3  1  1  0  0  0  0
  4  5  1  0  0  0  0
  5  6  2  0  0  0  0
  5 10  1  0  0  0  0
  6 11  1  0  0  0  0
  7  6  1  0  0  0  0
  8  7  2  0  0  0  0
  9  8  1  0  0  0  0
  9  4  2  0  0  0  0
 12 13  1  0  0  0  0
 12  8  1  0  0  0  0
 14 12  1  0  0  0  0
 15 12  1  0  0  0  0
 16 15  1  0  0  0  0
 16 17  1  0  0  0  0
 18 16  2  0  0  0  0
 19 25  1  0  0  0  0
 19 18  1  0  0  0  0
 20 19  2  0  0  0  0
 21 23  2  0  0  0  0
 21 20  1  0  0  0  0
 22 21  1  0  0  0  0
 23 24  1  0  0  0  0
 24 25  2  0  0  0  0
 25 26  1  0  0  0  0
 26 15  2  0  0  0  0
 27 28  1  0  0  0  0
 27 30  1  0  0  0  0
 29 27  1  0  0  0  0
 30 35  1  0  0  0  0
 31 37  1  0  0  0  0
 32 38  1  0  0  0  0
 32 31  2  0  0  0  0
 33 32  1  0  0  0  0
 34 33  2  0  0  0  0
 34 35  1  0  0  0  0
 35 36  2  0  0  0  0
 36 31  1  0  0  0  0
 40 39  1  0  0  0  0
 41 40  1  0  0  0  0
 41 33  1  0  0  0  0
 42 41  2  0  0  0  0
 43 44  2  0  0  0  0
 43 42  1  0  0  0  0
 44 45  1  0  0  0  0
 45 49  1  0  0  0  0
 45 40  2  0  0  0  0
 46 42  1  0  0  0  0
 47 43  1  0  0  0  0
 48 44  1  0  0  0  0
M  END
>  <minimizedAffinity>
-7.18814945

>  <minimizedRMSD>
1.4663893

$$$$
