
 OpenBabel03262523043D

 29 32  0  0  0  0  0  0  0  0999 V2000
   35.9040   29.2520   34.0650 C   0  0  0  0  0  0  0  0  0  0  0  0
   35.8910   29.3600   32.7030 C   0  0  0  0  0  0  0  0  0  0  0  0
   36.5590   28.4240   31.9640 C   0  0  0  0  0  0  0  0  0  0  0  0
   37.2240   27.4060   32.5810 N   0  0  0  0  0  0  0  0  0  0  0  0
   37.2120   27.3350   33.9120 C   0  0  0  0  0  0  0  0  0  0  0  0
   36.5600   28.2450   34.6710 N   0  0  0  0  0  0  0  0  0  0  0  0
   35.3700   30.1600   32.2000 H   0  0  0  0  0  0  0  0  0  0  0  0
   36.5710   28.4770   30.8840 H   0  0  0  0  0  0  0  0  0  0  0  0
   37.9200   26.2490   34.5720 C   0  0  0  0  0  0  0  0  0  0  0  0
   38.9090   25.5460   33.9290 C   0  0  0  0  0  0  0  0  0  0  0  0
   39.1290   25.8510   32.8970 H   0  0  0  0  0  0  0  0  0  0  0  0
   39.6630   24.5000   34.4170 C   0  0  0  0  0  3  0  0  0  0  0  0
   39.3500   24.1460   35.7240 C   0  0  0  0  0  0  0  0  0  0  0  0
   40.0470   23.1260   36.2800 N   0  0  0  0  0  0  0  0  0  0  0  0
   39.8280   22.7000   37.5380 C   0  0  0  0  0  0  0  0  0  0  0  0
   40.4360   21.8710   37.9040 H   0  0  0  0  0  0  0  0  0  0  0  0
   38.8490   23.3330   38.2960 C   0  0  0  0  0  3  0  0  0  0  0  0
   38.1300   24.3790   37.7370 C   0  0  0  0  0  3  0  0  0  0  0  0
   38.3660   24.8110   36.4340 C   0  0  0  0  0  0  0  0  0  0  0  0
   37.6580   25.8500   35.8660 C   0  0  0  0  0  3  0  0  0  0  0  0
   35.2380   31.9860   36.4400 C   0  0  0  0  0  0  0  0  0  0  0  0
   33.8410   32.0100   36.4980 C   0  0  0  0  0  0  0  0  0  0  0  0
   33.1270   31.0670   35.7060 C   0  0  0  0  0  0  0  0  0  0  0  0
   33.8570   30.2060   34.9440 N   0  0  0  0  0  0  0  0  0  0  0  0
   35.2080   30.2210   34.9190 C   0  0  0  0  0  0  0  0  0  0  0  0
   35.8820   31.1120   35.6680 N   0  0  0  0  0  0  0  0  0  0  0  0
   35.7690   32.7090   37.0480 H   0  0  0  0  0  0  0  0  0  0  0  0
   33.2870   32.7080   37.1150 H   0  0  0  0  0  0  0  0  0  0  0  0
   32.0630   31.0520   35.7210 H   0  0  0  0  0  0  0  0  0  0  0  0
  1  6  1  0  0  0  0
  1 25  1  0  0  0  0
  2  1  2  0  0  0  0
  3  4  2  0  0  0  0
  3  2  1  0  0  0  0
  4  5  1  0  0  0  0
  5  9  1  0  0  0  0
  5  6  2  0  0  0  0
  7  2  1  0  0  0  0
  8  3  1  0  0  0  0
  9 20  1  0  0  0  0
 10 12  1  0  0  0  0
 10  9  2  0  0  0  0
 11 10  1  0  0  0  0
 12 13  2  0  0  0  0
 13 14  1  0  0  0  0
 13 19  1  0  0  0  0
 14 15  2  0  0  0  0
 15 16  1  0  0  0  0
 15 17  1  0  0  0  0
 18 17  2  0  0  0  0
 19 18  1  0  0  0  0
 20 19  2  0  0  0  0
 21 22  1  0  0  0  0
 21 27  1  0  0  0  0
 22 28  1  0  0  0  0
 23 29  1  0  0  0  0
 23 22  2  0  0  0  0
 24 23  1  0  0  0  0
 25 24  2  0  0  0  0
 25 26  1  0  0  0  0
 26 21  2  0  0  0  0
M  END
>  <minimizedAffinity>
-6.10935593

$$$$

 OpenBabel03262523043D

 29 32  0  0  0  0  0  0  0  0999 V2000
   35.5320   29.8490   34.1350 C   0  0  0  0  0  0  0  0  0  0  0  0
   35.6510   30.3020   32.8510 C   0  0  0  0  0  0  0  0  0  0  0  0
   36.3010   29.5200   31.9370 C   0  0  0  0  0  0  0  0  0  0  0  0
   36.8180   28.3140   32.3070 N   0  0  0  0  0  0  0  0  0  0  0  0
   36.6810   27.9080   33.5700 C   0  0  0  0  0  0  0  0  0  0  0  0
   36.0430   28.6570   34.4970 N   0  0  0  0  0  0  0  0  0  0  0  0
   35.2470   31.2540   32.5420 H   0  0  0  0  0  0  0  0  0  0  0  0
   36.4140   29.8450   30.9120 H   0  0  0  0  0  0  0  0  0  0  0  0
   37.2320   26.6210   33.9660 C   0  0  0  0  0  0  0  0  0  0  0  0
   37.5780   25.6740   33.0340 C   0  0  0  0  0  0  0  0  0  0  0  0
   37.4150   25.9460   31.9820 H   0  0  0  0  0  0  0  0  0  0  0  0
   38.1060   24.4200   33.2510 C   0  0  0  0  0  3  0  0  0  0  0  0
   38.2950   24.1170   34.5950 C   0  0  0  0  0  0  0  0  0  0  0  0
   38.8110   22.9020   34.8960 N   0  0  0  0  0  0  0  0  0  0  0  0
   39.0370   22.5040   36.1610 C   0  0  0  0  0  0  0  0  0  0  0  0
   39.4560   21.5080   36.3110 H   0  0  0  0  0  0  0  0  0  0  0  0
   38.7270   23.3750   37.2010 C   0  0  0  0  0  3  0  0  0  0  0  0
   38.1980   24.6220   36.9040 C   0  0  0  0  0  3  0  0  0  0  0  0
   37.9700   25.0230   35.5890 C   0  0  0  0  0  0  0  0  0  0  0  0
   37.4440   26.2600   35.2800 C   0  0  0  0  0  3  0  0  0  0  0  0
   32.9150   31.2310   36.3270 C   0  0  0  0  0  0  0  0  0  0  0  0
   33.6240   32.1450   37.1140 C   0  0  0  0  0  0  0  0  0  0  0  0
   35.0220   32.2800   36.8790 C   0  0  0  0  0  0  0  0  0  0  0  0
   35.5720   31.5070   35.9020 N   0  0  0  0  0  0  0  0  0  0  0  0
   34.8460   30.6370   35.1660 C   0  0  0  0  0  0  0  0  0  0  0  0
   33.5260   30.5100   35.3880 N   0  0  0  0  0  0  0  0  0  0  0  0
   31.8530   31.1390   36.5160 H   0  0  0  0  0  0  0  0  0  0  0  0
   33.1580   32.7470   37.8860 H   0  0  0  0  0  0  0  0  0  0  0  0
   35.5980   32.9630   37.4560 H   0  0  0  0  0  0  0  0  0  0  0  0
  1  6  1  0  0  0  0
  1 25  1  0  0  0  0
  2  1  2  0  0  0  0
  3  4  2  0  0  0  0
  3  2  1  0  0  0  0
  4  5  1  0  0  0  0
  5  9  1  0  0  0  0
  5  6  2  0  0  0  0
  7  2  1  0  0  0  0
  8  3  1  0  0  0  0
  9 20  1  0  0  0  0
 10 12  1  0  0  0  0
 10  9  2  0  0  0  0
 11 10  1  0  0  0  0
 12 13  2  0  0  0  0
 13 14  1  0  0  0  0
 13 19  1  0  0  0  0
 14 15  2  0  0  0  0
 15 16  1  0  0  0  0
 15 17  1  0  0  0  0
 18 17  2  0  0  0  0
 19 18  1  0  0  0  0
 20 19  2  0  0  0  0
 21 27  1  0  0  0  0
 21 22  1  0  0  0  0
 22 28  1  0  0  0  0
 23 22  2  0  0  0  0
 23 29  1  0  0  0  0
 24 23  1  0  0  0  0
 25 26  1  0  0  0  0
 25 24  2  0  0  0  0
 26 21  2  0  0  0  0
M  END
>  <minimizedAffinity>
-5.95872545

$$$$

 OpenBabel03262523043D

 29 32  0  0  0  0  0  0  0  0999 V2000
   40.0030   23.0680   36.9230 C   0  0  0  0  0  0  0  0  0  0  0  0
   39.3630   23.0300   38.1300 C   0  0  0  0  0  0  0  0  0  0  0  0
   38.2320   23.7790   38.2970 C   0  0  0  0  0  0  0  0  0  0  0  0
   37.7590   24.5480   37.2750 N   0  0  0  0  0  0  0  0  0  0  0  0
   38.4120   24.5580   36.1130 C   0  0  0  0  0  0  0  0  0  0  0  0
   39.5330   23.8280   35.9160 N   0  0  0  0  0  0  0  0  0  0  0  0
   39.7250   22.4270   38.9480 H   0  0  0  0  0  0  0  0  0  0  0  0
   37.6990   23.7740   39.2380 H   0  0  0  0  0  0  0  0  0  0  0  0
   37.9080   25.3780   35.0210 C   0  0  0  0  0  0  0  0  0  0  0  0
   38.0060   24.9660   33.7150 C   0  0  0  0  0  0  0  0  0  0  0  0
   38.4820   23.9900   33.5480 H   0  0  0  0  0  0  0  0  0  0  0  0
   37.5790   25.6250   32.5820 C   0  0  0  0  0  3  0  0  0  0  0  0
   36.9830   26.8540   32.8400 C   0  0  0  0  0  0  0  0  0  0  0  0
   36.5360   27.5670   31.7780 N   0  0  0  0  0  0  0  0  0  0  0  0
   35.9430   28.7670   31.9110 C   0  0  0  0  0  0  0  0  0  0  0  0
   35.6130   29.2710   31.0010 H   0  0  0  0  0  0  0  0  0  0  0  0
   35.7840   29.2970   33.1880 C   0  0  0  0  0  3  0  0  0  0  0  0
   36.2380   28.5750   34.2810 C   0  0  0  0  0  3  0  0  0  0  0  0
   36.8500   27.3320   34.1310 C   0  0  0  0  0  0  0  0  0  0  0  0
   37.3060   26.6040   35.2100 C   0  0  0  0  0  3  0  0  0  0  0  0
   42.6720   20.5490   37.2210 C   0  0  0  0  0  0  0  0  0  0  0  0
   43.5200   20.8700   36.1560 C   0  0  0  0  0  0  0  0  0  0  0  0
   43.1580   21.9720   35.3290 C   0  0  0  0  0  0  0  0  0  0  0  0
   42.0100   22.6360   35.6350 N   0  0  0  0  0  0  0  0  0  0  0  0
   41.2210   22.2880   36.6750 C   0  0  0  0  0  0  0  0  0  0  0  0
   41.5630   21.2480   37.4560 N   0  0  0  0  0  0  0  0  0  0  0  0
   42.9590   19.7090   37.8420 H   0  0  0  0  0  0  0  0  0  0  0  0
   44.4280   20.3220   35.9370 H   0  0  0  0  0  0  0  0  0  0  0  0
   43.7750   22.2500   34.5070 H   0  0  0  0  0  0  0  0  0  0  0  0
  1  2  1  0  0  0  0
  2  3  2  0  0  0  0
  2  7  1  0  0  0  0
  3  8  1  0  0  0  0
  4  3  1  0  0  0  0
  5  4  2  0  0  0  0
  6  5  1  0  0  0  0
  6  1  2  0  0  0  0
  9 20  1  0  0  0  0
  9  5  1  0  0  0  0
 10  9  2  0  0  0  0
 11 10  1  0  0  0  0
 12 13  2  0  0  0  0
 12 10  1  0  0  0  0
 13 19  1  0  0  0  0
 14 15  2  0  0  0  0
 14 13  1  0  0  0  0
 15 17  1  0  0  0  0
 16 15  1  0  0  0  0
 17 18  2  0  0  0  0
 19 18  1  0  0  0  0
 19 20  2  0  0  0  0
 21 26  1  0  0  0  0
 21 27  1  0  0  0  0
 22 21  2  0  0  0  0
 23 24  2  0  0  0  0
 23 22  1  0  0  0  0
 24 25  1  0  0  0  0
 25  1  1  0  0  0  0
 25 26  2  0  0  0  0
 28 22  1  0  0  0  0
 29 23  1  0  0  0  0
M  END
>  <minimizedAffinity>
-5.84577703

$$$$

 OpenBabel03262523043D

 29 32  0  0  0  0  0  0  0  0999 V2000
   38.0290   24.8270   34.6480 C   0  0  0  0  0  0  0  0  0  0  0  0
   38.2730   24.1430   33.4910 C   0  0  0  0  0  0  0  0  0  0  0  0
   37.9240   24.7200   32.3010 C   0  0  0  0  0  0  0  0  0  0  0  0
   37.3430   25.9530   32.2790 N   0  0  0  0  0  0  0  0  0  0  0  0
   37.1220   26.5890   33.4310 C   0  0  0  0  0  0  0  0  0  0  0  0
   37.4560   26.0450   34.6230 N   0  0  0  0  0  0  0  0  0  0  0  0
   38.7320   23.1660   33.4920 H   0  0  0  0  0  0  0  0  0  0  0  0
   38.1020   24.2090   31.3660 H   0  0  0  0  0  0  0  0  0  0  0  0
   36.5030   27.9050   33.4090 C   0  0  0  0  0  0  0  0  0  0  0  0
   35.9400   28.4110   32.2630 C   0  0  0  0  0  0  0  0  0  0  0  0
   35.9860   27.7660   31.3740 H   0  0  0  0  0  0  0  0  0  0  0  0
   35.3230   29.6300   32.0850 C   0  0  0  0  0  3  0  0  0  0  0  0
   35.2870   30.4120   33.2340 C   0  0  0  0  0  0  0  0  0  0  0  0
   34.6970   31.6280   33.1450 N   0  0  0  0  0  0  0  0  0  0  0  0
   34.6060   32.4670   34.1930 C   0  0  0  0  0  0  0  0  0  0  0  0
   34.1130   33.4270   34.0310 H   0  0  0  0  0  0  0  0  0  0  0  0
   35.1400   32.0700   35.4150 C   0  0  0  0  0  3  0  0  0  0  0  0
   35.7470   30.8270   35.5170 C   0  0  0  0  0  3  0  0  0  0  0  0
   35.8340   29.9680   34.4240 C   0  0  0  0  0  0  0  0  0  0  0  0
   36.4350   28.7290   34.5120 C   0  0  0  0  0  3  0  0  0  0  0  0
   38.0090   24.0640   38.2510 C   0  0  0  0  0  0  0  0  0  0  0  0
   39.0870   23.1830   38.3850 C   0  0  0  0  0  0  0  0  0  0  0  0
   39.8240   22.8530   37.2130 C   0  0  0  0  0  0  0  0  0  0  0  0
   39.4270   23.4200   36.0400 N   0  0  0  0  0  0  0  0  0  0  0  0
   38.3780   24.2670   35.9590 C   0  0  0  0  0  0  0  0  0  0  0  0
   37.6810   24.5790   37.0670 N   0  0  0  0  0  0  0  0  0  0  0  0
   37.4570   24.3070   39.1500 H   0  0  0  0  0  0  0  0  0  0  0  0
   39.3790   22.7460   39.3330 H   0  0  0  0  0  0  0  0  0  0  0  0
   40.6510   22.1850   37.2710 H   0  0  0  0  0  0  0  0  0  0  0  0
  1 25  1  0  0  0  0
  2  7  1  0  0  0  0
  2  1  2  0  0  0  0
  3  2  1  0  0  0  0
  4  3  2  0  0  0  0
  4  5  1  0  0  0  0
  5  6  2  0  0  0  0
  6  1  1  0  0  0  0
  8  3  1  0  0  0  0
  9  5  1  0  0  0  0
  9 20  1  0  0  0  0
 10  9  2  0  0  0  0
 11 10  1  0  0  0  0
 12 10  1  0  0  0  0
 12 13  2  0  0  0  0
 13 19  1  0  0  0  0
 14 13  1  0  0  0  0
 14 15  2  0  0  0  0
 15 17  1  0  0  0  0
 16 15  1  0  0  0  0
 17 18  2  0  0  0  0
 19 20  2  0  0  0  0
 19 18  1  0  0  0  0
 21 22  1  0  0  0  0
 21 27  1  0  0  0  0
 22 28  1  0  0  0  0
 23 29  1  0  0  0  0
 23 22  2  0  0  0  0
 24 23  1  0  0  0  0
 25 24  2  0  0  0  0
 25 26  1  0  0  0  0
 26 21  2  0  0  0  0
M  END
>  <minimizedAffinity>
-5.81570148

$$$$

 OpenBabel03262523043D

 29 32  0  0  0  0  0  0  0  0999 V2000
   36.3460   28.4500   33.9710 C   0  0  0  0  0  0  0  0  0  0  0  0
   36.5740   28.4340   32.6240 C   0  0  0  0  0  0  0  0  0  0  0  0
   37.3660   27.4490   32.1030 C   0  0  0  0  0  0  0  0  0  0  0  0
   37.9150   26.5050   32.9190 N   0  0  0  0  0  0  0  0  0  0  0  0
   37.6700   26.5550   34.2290 C   0  0  0  0  0  0  0  0  0  0  0  0
   36.8900   27.5160   34.7740 N   0  0  0  0  0  0  0  0  0  0  0  0
   36.1460   29.1740   31.9650 H   0  0  0  0  0  0  0  0  0  0  0  0
   37.5680   27.4040   31.0420 H   0  0  0  0  0  0  0  0  0  0  0  0
   38.2550   25.5480   35.1010 C   0  0  0  0  0  0  0  0  0  0  0  0
   37.6580   25.1960   36.2870 C   0  0  0  0  0  0  0  0  0  0  0  0
   36.7220   25.7160   36.5320 H   0  0  0  0  0  0  0  0  0  0  0  0
   38.0870   24.2690   37.2120 C   0  0  0  0  0  3  0  0  0  0  0  0
   39.2740   23.6360   36.8620 C   0  0  0  0  0  0  0  0  0  0  0  0
   39.7650   22.7090   37.7180 N   0  0  0  0  0  0  0  0  0  0  0  0
   40.9050   22.0350   37.4800 C   0  0  0  0  0  0  0  0  0  0  0  0
   41.2260   21.3060   38.2250 H   0  0  0  0  0  0  0  0  0  0  0  0
   41.6070   22.3020   36.3090 C   0  0  0  0  0  3  0  0  0  0  0  0
   41.1120   23.2490   35.4240 C   0  0  0  0  0  3  0  0  0  0  0  0
   39.9310   23.9400   35.6820 C   0  0  0  0  0  0  0  0  0  0  0  0
   39.4280   24.8840   34.8120 C   0  0  0  0  0  3  0  0  0  0  0  0
   33.4150   30.4040   35.0430 C   0  0  0  0  0  0  0  0  0  0  0  0
   33.9900   31.4370   35.7910 C   0  0  0  0  0  0  0  0  0  0  0  0
   35.4070   31.4520   35.9230 C   0  0  0  0  0  0  0  0  0  0  0  0
   36.1050   30.4570   35.3090 N   0  0  0  0  0  0  0  0  0  0  0  0
   35.5060   29.4780   34.5960 C   0  0  0  0  0  0  0  0  0  0  0  0
   34.1660   29.4640   34.4710 N   0  0  0  0  0  0  0  0  0  0  0  0
   32.3360   30.4050   34.9500 H   0  0  0  0  0  0  0  0  0  0  0  0
   33.4070   32.2160   36.2690 H   0  0  0  0  0  0  0  0  0  0  0  0
   35.8850   32.2200   36.4840 H   0  0  0  0  0  0  0  0  0  0  0  0
  1 25  1  0  0  0  0
  1  6  1  0  0  0  0
  2  1  2  0  0  0  0
  3  2  1  0  0  0  0
  3  4  2  0  0  0  0
  4  5  1  0  0  0  0
  5  6  2  0  0  0  0
  5  9  1  0  0  0  0
  7  2  1  0  0  0  0
  8  3  1  0  0  0  0
  9 10  1  0  0  0  0
 10 11  1  0  0  0  0
 10 12  2  0  0  0  0
 13 12  1  0  0  0  0
 13 14  1  0  0  0  0
 15 14  2  0  0  0  0
 15 16  1  0  0  0  0
 17 15  1  0  0  0  0
 18 19  1  0  0  0  0
 18 17  2  0  0  0  0
 19 13  2  0  0  0  0
 20  9  2  0  0  0  0
 20 19  1  0  0  0  0
 21 22  1  0  0  0  0
 22 23  2  0  0  0  0
 22 28  1  0  0  0  0
 23 29  1  0  0  0  0
 24 23  1  0  0  0  0
 25 24  2  0  0  0  0
 26 25  1  0  0  0  0
 26 21  2  0  0  0  0
 27 21  1  0  0  0  0
M  END
>  <minimizedAffinity>
-5.757617

$$$$

 OpenBabel03262523043D

 29 32  0  0  0  0  0  0  0  0999 V2000
   38.0960   24.5730   34.7140 C   0  0  0  0  0  0  0  0  0  0  0  0
   38.2860   23.7720   33.6230 C   0  0  0  0  0  0  0  0  0  0  0  0
   37.9640   24.2590   32.3870 C   0  0  0  0  0  0  0  0  0  0  0  0
   37.4620   25.5200   32.2540 N   0  0  0  0  0  0  0  0  0  0  0  0
   37.2920   26.2710   33.3420 C   0  0  0  0  0  0  0  0  0  0  0  0
   37.6010   25.8180   34.5780 N   0  0  0  0  0  0  0  0  0  0  0  0
   38.6830   22.7720   33.7120 H   0  0  0  0  0  0  0  0  0  0  0  0
   38.1010   23.6550   31.5010 H   0  0  0  0  0  0  0  0  0  0  0  0
   36.7570   27.6160   33.2020 C   0  0  0  0  0  0  0  0  0  0  0  0
   36.2440   28.2970   34.2780 C   0  0  0  0  0  0  0  0  0  0  0  0
   36.2620   27.7680   35.2410 H   0  0  0  0  0  0  0  0  0  0  0  0
   35.7060   29.5650   34.3040 C   0  0  0  0  0  3  0  0  0  0  0  0
   35.7020   30.1970   33.0660 C   0  0  0  0  0  0  0  0  0  0  0  0
   35.1890   31.4500   33.0030 N   0  0  0  0  0  0  0  0  0  0  0  0
   35.1360   32.1540   31.8580 C   0  0  0  0  0  0  0  0  0  0  0  0
   34.7060   33.1560   31.9010 H   0  0  0  0  0  0  0  0  0  0  0  0
   35.6250   31.5730   30.6930 C   0  0  0  0  0  3  0  0  0  0  0  0
   36.1530   30.2910   30.7450 C   0  0  0  0  0  3  0  0  0  0  0  0
   36.2030   29.5720   31.9370 C   0  0  0  0  0  0  0  0  0  0  0  0
   36.7250   28.2970   32.0030 C   0  0  0  0  0  3  0  0  0  0  0  0
   37.9940   24.0630   38.3590 C   0  0  0  0  0  0  0  0  0  0  0  0
   39.0870   23.2180   38.5830 C   0  0  0  0  0  0  0  0  0  0  0  0
   39.8630   22.8240   37.4560 C   0  0  0  0  0  0  0  0  0  0  0  0
   39.4860   23.2990   36.2370 N   0  0  0  0  0  0  0  0  0  0  0  0
   38.4210   24.1140   36.0690 C   0  0  0  0  0  0  0  0  0  0  0  0
   37.6880   24.4870   37.1340 N   0  0  0  0  0  0  0  0  0  0  0  0
   37.4130   24.3550   39.2250 H   0  0  0  0  0  0  0  0  0  0  0  0
   39.3620   22.8560   39.5670 H   0  0  0  0  0  0  0  0  0  0  0  0
   40.7020   22.1820   37.5820 H   0  0  0  0  0  0  0  0  0  0  0  0
  1 25  1  0  0  0  0
  2  7  1  0  0  0  0
  2  1  2  0  0  0  0
  3  2  1  0  0  0  0
  4  3  2  0  0  0  0
  4  5  1  0  0  0  0
  5  6  2  0  0  0  0
  6  1  1  0  0  0  0
  8  3  1  0  0  0  0
  9  5  1  0  0  0  0
  9 10  1  0  0  0  0
 10 12  2  0  0  0  0
 10 11  1  0  0  0  0
 13 12  1  0  0  0  0
 14 13  1  0  0  0  0
 15 16  1  0  0  0  0
 15 14  2  0  0  0  0
 17 18  2  0  0  0  0
 17 15  1  0  0  0  0
 18 19  1  0  0  0  0
 19 20  1  0  0  0  0
 19 13  2  0  0  0  0
 20  9  2  0  0  0  0
 21 22  1  0  0  0  0
 21 27  1  0  0  0  0
 22 28  1  0  0  0  0
 23 29  1  0  0  0  0
 23 22  2  0  0  0  0
 24 23  1  0  0  0  0
 25 24  2  0  0  0  0
 25 26  1  0  0  0  0
 26 21  2  0  0  0  0
M  END
>  <minimizedAffinity>
-5.75742865

$$$$

 OpenBabel03262523043D

 29 32  0  0  0  0  0  0  0  0999 V2000
   37.3400   26.6940   33.8470 C   0  0  0  0  0  0  0  0  0  0  0  0
   37.7400   26.9130   32.5590 C   0  0  0  0  0  0  0  0  0  0  0  0
   37.2930   28.0330   31.9140 C   0  0  0  0  0  0  0  0  0  0  0  0
   36.4630   28.9070   32.5500 N   0  0  0  0  0  0  0  0  0  0  0  0
   36.0950   28.6580   33.8080 C   0  0  0  0  0  0  0  0  0  0  0  0
   36.5210   27.5600   34.4720 N   0  0  0  0  0  0  0  0  0  0  0  0
   38.3970   26.2300   32.0420 H   0  0  0  0  0  0  0  0  0  0  0  0
   37.5890   28.2390   30.8950 H   0  0  0  0  0  0  0  0  0  0  0  0
   35.2100   29.5910   34.4880 C   0  0  0  0  0  0  0  0  0  0  0  0
   33.8450   29.4760   34.3960 C   0  0  0  0  0  0  0  0  0  0  0  0
   33.4670   28.6460   33.7830 H   0  0  0  0  0  0  0  0  0  0  0  0
   32.8840   30.2750   34.9770 C   0  0  0  0  0  3  0  0  0  0  0  0
   33.4050   31.3130   35.7410 C   0  0  0  0  0  0  0  0  0  0  0  0
   32.5270   32.1460   36.3480 N   0  0  0  0  0  0  0  0  0  0  0  0
   32.9200   33.1820   37.1110 C   0  0  0  0  0  0  0  0  0  0  0  0
   32.1430   33.8010   37.5620 H   0  0  0  0  0  0  0  0  0  0  0  0
   34.2820   33.4060   37.2830 C   0  0  0  0  0  3  0  0  0  0  0  0
   35.1910   32.5580   36.6670 C   0  0  0  0  0  3  0  0  0  0  0  0
   34.7710   31.4890   35.8790 C   0  0  0  0  0  0  0  0  0  0  0  0
   35.6640   30.6390   35.2610 C   0  0  0  0  0  3  0  0  0  0  0  0
   38.3230   24.4610   36.6050 C   0  0  0  0  0  0  0  0  0  0  0  0
   38.6170   23.2640   35.9430 C   0  0  0  0  0  0  0  0  0  0  0  0
   38.4720   23.2360   34.5270 C   0  0  0  0  0  0  0  0  0  0  0  0
   38.0560   24.3790   33.9160 N   0  0  0  0  0  0  0  0  0  0  0  0
   37.7820   25.5130   34.5980 C   0  0  0  0  0  0  0  0  0  0  0  0
   37.9200   25.5400   35.9360 N   0  0  0  0  0  0  0  0  0  0  0  0
   38.4380   24.4680   37.6820 H   0  0  0  0  0  0  0  0  0  0  0  0
   38.9470   22.3690   36.4580 H   0  0  0  0  0  0  0  0  0  0  0  0
   38.6850   22.3450   33.9850 H   0  0  0  0  0  0  0  0  0  0  0  0
  1  6  1  0  0  0  0
  1 25  1  0  0  0  0
  2  1  2  0  0  0  0
  3  4  2  0  0  0  0
  3  2  1  0  0  0  0
  4  5  1  0  0  0  0
  5  6  2  0  0  0  0
  5  9  1  0  0  0  0
  7  2  1  0  0  0  0
  8  3  1  0  0  0  0
  9 20  1  0  0  0  0
 10  9  2  0  0  0  0
 10 12  1  0  0  0  0
 11 10  1  0  0  0  0
 12 13  2  0  0  0  0
 13 19  1  0  0  0  0
 13 14  1  0  0  0  0
 14 15  2  0  0  0  0
 15 17  1  0  0  0  0
 15 16  1  0  0  0  0
 18 17  2  0  0  0  0
 19 18  1  0  0  0  0
 20 19  2  0  0  0  0
 21 27  1  0  0  0  0
 22 28  1  0  0  0  0
 22 21  1  0  0  0  0
 23 22  2  0  0  0  0
 24 23  1  0  0  0  0
 24 25  2  0  0  0  0
 25 26  1  0  0  0  0
 26 21  2  0  0  0  0
 29 23  1  0  0  0  0
M  END
>  <minimizedAffinity>
-5.74571276

$$$$

 OpenBabel03262523043D

 29 32  0  0  0  0  0  0  0  0999 V2000
   36.5480   27.0780   31.1320 C   0  0  0  0  0  0  0  0  0  0  0  0
   37.1140   27.8460   30.1540 C   0  0  0  0  0  0  0  0  0  0  0  0
   36.9790   29.2040   30.2250 C   0  0  0  0  0  0  0  0  0  0  0  0
   36.2920   29.7740   31.2550 N   0  0  0  0  0  0  0  0  0  0  0  0
   35.7550   28.9910   32.1910 C   0  0  0  0  0  0  0  0  0  0  0  0
   35.8710   27.6440   32.1490 N   0  0  0  0  0  0  0  0  0  0  0  0
   37.6610   27.4100   29.3320 H   0  0  0  0  0  0  0  0  0  0  0  0
   37.4130   29.8430   29.4690 H   0  0  0  0  0  0  0  0  0  0  0  0
   35.0230   29.5970   33.2920 C   0  0  0  0  0  0  0  0  0  0  0  0
   33.6830   29.3600   33.4750 C   0  0  0  0  0  0  0  0  0  0  0  0
   33.2040   28.6900   32.7460 H   0  0  0  0  0  0  0  0  0  0  0  0
   32.8580   29.8570   34.4600 C   0  0  0  0  0  3  0  0  0  0  0  0
   33.5030   30.6990   35.3590 C   0  0  0  0  0  0  0  0  0  0  0  0
   32.7630   31.2310   36.3600 N   0  0  0  0  0  0  0  0  0  0  0  0
   33.2840   32.0570   37.2860 C   0  0  0  0  0  0  0  0  0  0  0  0
   32.6130   32.4390   38.0570 H   0  0  0  0  0  0  0  0  0  0  0  0
   34.6360   32.3780   37.2100 C   0  0  0  0  0  3  0  0  0  0  0  0
   35.4030   31.8380   36.1890 C   0  0  0  0  0  3  0  0  0  0  0  0
   34.8520   30.9830   35.2370 C   0  0  0  0  0  0  0  0  0  0  0  0
   35.6040   30.4400   34.2160 C   0  0  0  0  0  3  0  0  0  0  0  0
   37.8680   23.6640   30.7220 C   0  0  0  0  0  0  0  0  0  0  0  0
   36.7860   22.8670   31.1120 C   0  0  0  0  0  0  0  0  0  0  0  0
   35.5910   23.5240   31.5200 C   0  0  0  0  0  0  0  0  0  0  0  0
   35.5840   24.8850   31.5020 N   0  0  0  0  0  0  0  0  0  0  0  0
   36.6550   25.6140   31.1180 C   0  0  0  0  0  0  0  0  0  0  0  0
   37.7840   24.9940   30.7320 N   0  0  0  0  0  0  0  0  0  0  0  0
   38.7700   23.1520   30.4140 H   0  0  0  0  0  0  0  0  0  0  0  0
   36.8210   21.7840   31.1160 H   0  0  0  0  0  0  0  0  0  0  0  0
   34.7440   22.9550   31.8240 H   0  0  0  0  0  0  0  0  0  0  0  0
  1  6  1  0  0  0  0
  2  3  1  0  0  0  0
  2  1  2  0  0  0  0
  3  4  2  0  0  0  0
  4  5  1  0  0  0  0
  5  9  1  0  0  0  0
  6  5  2  0  0  0  0
  7  2  1  0  0  0  0
  8  3  1  0  0  0  0
  9 10  2  0  0  0  0
  9 20  1  0  0  0  0
 10 12  1  0  0  0  0
 11 10  1  0  0  0  0
 12 13  2  0  0  0  0
 13 14  1  0  0  0  0
 14 15  2  0  0  0  0
 15 16  1  0  0  0  0
 17 15  1  0  0  0  0
 18 17  2  0  0  0  0
 19 13  1  0  0  0  0
 19 18  1  0  0  0  0
 20 19  2  0  0  0  0
 21 26  2  0  0  0  0
 21 22  1  0  0  0  0
 22 28  1  0  0  0  0
 22 23  2  0  0  0  0
 23 29  1  0  0  0  0
 24 23  1  0  0  0  0
 25  1  1  0  0  0  0
 25 24  2  0  0  0  0
 26 25  1  0  0  0  0
 27 21  1  0  0  0  0
M  END
>  <minimizedAffinity>
-5.71301222

$$$$

 OpenBabel03262523043D

 29 32  0  0  0  0  0  0  0  0999 V2000
   36.9890   28.6470   31.9690 C   0  0  0  0  0  0  0  0  0  0  0  0
   35.9650   29.3170   32.5750 C   0  0  0  0  0  0  0  0  0  0  0  0
   35.6150   28.9700   33.8500 C   0  0  0  0  0  0  0  0  0  0  0  0
   36.2800   27.9710   34.4970 N   0  0  0  0  0  0  0  0  0  0  0  0
   37.2750   27.3400   33.8710 C   0  0  0  0  0  0  0  0  0  0  0  0
   37.6440   27.6610   32.6110 N   0  0  0  0  0  0  0  0  0  0  0  0
   35.4290   30.1100   32.0760 H   0  0  0  0  0  0  0  0  0  0  0  0
   34.8100   29.4790   34.3610 H   0  0  0  0  0  0  0  0  0  0  0  0
   37.9860   26.2740   34.5610 C   0  0  0  0  0  0  0  0  0  0  0  0
   39.0460   25.6270   33.9740 C   0  0  0  0  0  0  0  0  0  0  0  0
   39.3200   25.9610   32.9640 H   0  0  0  0  0  0  0  0  0  0  0  0
   39.8120   24.6070   34.4950 C   0  0  0  0  0  3  0  0  0  0  0  0
   39.4310   24.2160   35.7730 C   0  0  0  0  0  0  0  0  0  0  0  0
   40.1340   23.2170   36.3590 N   0  0  0  0  0  0  0  0  0  0  0  0
   39.8530   22.7600   37.5920 C   0  0  0  0  0  0  0  0  0  0  0  0
   40.4720   21.9520   37.9850 H   0  0  0  0  0  0  0  0  0  0  0  0
   38.7980   23.3350   38.2930 C   0  0  0  0  0  3  0  0  0  0  0  0
   38.0710   24.3590   37.7040 C   0  0  0  0  0  3  0  0  0  0  0  0
   38.3730   24.8230   36.4260 C   0  0  0  0  0  0  0  0  0  0  0  0
   37.6580   25.8400   35.8280 C   0  0  0  0  0  3  0  0  0  0  0  0
   37.4170   30.3820   28.7490 C   0  0  0  0  0  0  0  0  0  0  0  0
   38.2520   29.5120   28.0390 C   0  0  0  0  0  0  0  0  0  0  0  0
   38.6670   28.3140   28.6860 C   0  0  0  0  0  0  0  0  0  0  0  0
   38.2210   28.0990   29.9550 N   0  0  0  0  0  0  0  0  0  0  0  0
   37.4160   28.9690   30.6020 C   0  0  0  0  0  0  0  0  0  0  0  0
   37.0230   30.1010   29.9910 N   0  0  0  0  0  0  0  0  0  0  0  0
   37.1090   31.2890   28.2450 H   0  0  0  0  0  0  0  0  0  0  0  0
   38.5900   29.7110   27.0290 H   0  0  0  0  0  0  0  0  0  0  0  0
   39.3020   27.6250   28.1810 H   0  0  0  0  0  0  0  0  0  0  0  0
  1  2  2  0  0  0  0
  1  6  1  0  0  0  0
  2  3  1  0  0  0  0
  3  8  1  0  0  0  0
  3  4  2  0  0  0  0
  5  4  1  0  0  0  0
  5  9  1  0  0  0  0
  6  5  2  0  0  0  0
  7  2  1  0  0  0  0
  9 20  1  0  0  0  0
 10 12  1  0  0  0  0
 10  9  2  0  0  0  0
 11 10  1  0  0  0  0
 12 13  2  0  0  0  0
 13 14  1  0  0  0  0
 13 19  1  0  0  0  0
 14 15  2  0  0  0  0
 15 16  1  0  0  0  0
 15 17  1  0  0  0  0
 18 17  2  0  0  0  0
 19 18  1  0  0  0  0
 20 19  2  0  0  0  0
 21 26  1  0  0  0  0
 22 23  1  0  0  0  0
 22 21  2  0  0  0  0
 23 24  2  0  0  0  0
 24 25  1  0  0  0  0
 25  1  1  0  0  0  0
 26 25  2  0  0  0  0
 27 21  1  0  0  0  0
 28 22  1  0  0  0  0
 29 23  1  0  0  0  0
M  END
>  <minimizedAffinity>
-5.71078825

$$$$
