
 OpenBabel03272509583D

 49 53  0  0  0  0  0  0  0  0999 V2000
   33.2630   28.1770   47.1680 C   0  0  0  0  0  0  0  0  0  0  0  0
   33.7090   27.1850   47.2220 H   0  0  0  0  0  0  0  0  0  0  0  0
   33.2140   28.4400   46.0880 H   0  0  0  0  0  0  0  0  0  0  0  0
   31.8520   28.1300   47.6440 C   0  0  0  0  0  0  0  0  0  0  0  0
   31.6350   27.7070   48.9410 C   0  0  0  0  0  0  0  0  0  0  0  0
   30.3660   27.6280   49.4790 C   0  0  0  0  0  0  0  0  0  0  0  0
   29.3210   27.9710   48.7250 N   0  0  0  0  0  0  0  0  0  0  0  0
   29.5460   28.3860   47.4520 C   0  0  0  0  0  0  0  0  0  0  0  0
   30.7740   28.4680   46.9130 N   0  0  0  0  0  0  0  0  0  0  0  0
   32.4500   27.4190   49.5900 H   0  0  0  0  0  0  0  0  0  0  0  0
   30.1810   27.2940   50.5050 H   0  0  0  0  0  0  0  0  0  0  0  0
   28.3640   28.7620   46.6300 C   0  0  0  0  0  0  0  0  0  0  0  0
   27.4870   29.0200   47.2580 H   0  0  0  0  0  0  0  0  0  0  0  0
   28.6340   29.6960   46.0940 H   0  0  0  0  0  0  0  0  0  0  0  0
   28.0200   27.6800   45.6520 C   0  0  0  0  0  0  0  0  0  0  0  0
   27.3110   27.9120   44.4910 C   0  0  0  0  0  0  0  0  0  0  0  0
   26.9860   28.9200   44.2700 H   0  0  0  0  0  0  0  0  0  0  0  0
   27.0620   26.8220   43.6750 C   0  0  0  0  0  3  0  0  0  0  0  0
   27.5000   25.5420   43.9970 C   0  0  0  0  0  0  0  0  0  0  0  0
   27.2550   24.4920   43.2060 N   0  0  0  0  0  0  0  0  0  0  0  0
   27.7010   23.2710   43.5620 C   0  0  0  0  0  0  0  0  0  0  0  0
   27.5330   22.3780   42.9600 H   0  0  0  0  0  0  0  0  0  0  0  0
   28.4180   23.0250   44.7350 C   0  0  0  0  0  3  0  0  0  0  0  0
   28.6800   24.0790   45.5580 C   0  0  0  0  0  3  0  0  0  0  0  0
   28.2140   25.3240   45.1750 C   0  0  0  0  0  0  0  0  0  0  0  0
   28.4600   26.3970   45.9770 C   0  0  0  0  0  3  0  0  0  0  0  0
   34.1050   29.1450   47.9320 C   0  0  0  0  0  0  0  0  0  0  0  0
   33.5080   29.8670   48.5250 H   0  0  0  0  0  0  0  0  0  0  0  0
   34.6890   29.7460   47.2030 H   0  0  0  0  0  0  0  0  0  0  0  0
   35.0590   28.4850   48.7420 O   0  0  0  0  0  0  0  0  0  0  0  0
   37.1690   30.0280   51.2230 C   0  0  0  0  0  0  0  0  0  0  0  0
   37.9960   30.8280   50.3960 C   0  0  0  0  0  0  0  0  0  0  0  0
   37.7600   30.7740   49.0250 C   0  0  0  0  0  0  0  0  0  0  0  0
   36.7480   29.9490   48.6140 N   0  0  0  0  0  0  0  0  0  0  0  0
   35.9850   29.2090   49.4110 C   0  0  0  0  0  0  0  0  0  0  0  0
   36.2050   29.2520   50.7390 N   0  0  0  0  0  0  0  0  0  0  0  0
   37.4090   30.1210   52.2710 H   0  0  0  0  0  0  0  0  0  0  0  0
   38.7820   31.4650   50.7440 H   0  0  0  0  0  0  0  0  0  0  0  0
   38.7880   33.4740   49.1930 F   0  0  0  0  0  0  0  0  0  0  0  0
   38.9840   32.7660   48.0870 C   0  0  0  0  0  0  0  0  0  0  0  0
   38.4970   31.5150   48.0340 C   0  0  0  0  0  0  0  0  0  0  0  0
   38.7580   30.8560   46.8270 C   0  0  0  0  0  0  0  0  0  0  0  0
   39.4480   31.4450   45.8040 C   0  0  0  0  0  0  0  0  0  0  0  0
   39.9260   32.7320   45.9110 C   0  0  0  0  0  0  0  0  0  0  0  0
   39.6810   33.3830   47.0760 C   0  0  0  0  0  0  0  0  0  0  0  0
   38.4250   29.8400   46.6450 H   0  0  0  0  0  0  0  0  0  0  0  0
   39.6500   30.9220   44.8610 H   0  0  0  0  0  0  0  0  0  0  0  0
   40.4680   33.1780   45.0940 H   0  0  0  0  0  0  0  0  0  0  0  0
   40.0490   34.3960   47.1780 H   0  0  0  0  0  0  0  0  0  0  0  0
  1  2  1  0  0  0  0
  1  4  1  0  0  0  0
  1 27  1  0  0  0  0
  3  1  1  0  0  0  0
  4  5  1  0  0  0  0
  5  6  2  0  0  0  0
  5 10  1  0  0  0  0
  6 11  1  0  0  0  0
  7  6  1  0  0  0  0
  8  7  2  0  0  0  0
  9  8  1  0  0  0  0
  9  4  2  0  0  0  0
 12 13  1  0  0  0  0
 12  8  1  0  0  0  0
 14 12  1  0  0  0  0
 15 26  1  0  0  0  0
 15 12  1  0  0  0  0
 16 15  2  0  0  0  0
 17 16  1  0  0  0  0
 18 19  2  0  0  0  0
 18 16  1  0  0  0  0
 19 25  1  0  0  0  0
 20 21  2  0  0  0  0
 20 19  1  0  0  0  0
 21 23  1  0  0  0  0
 22 21  1  0  0  0  0
 23 24  2  0  0  0  0
 25 24  1  0  0  0  0
 25 26  2  0  0  0  0
 27 28  1  0  0  0  0
 27 30  1  0  0  0  0
 29 27  1  0  0  0  0
 30 35  1  0  0  0  0
 31 37  1  0  0  0  0
 32 38  1  0  0  0  0
 32 31  2  0  0  0  0
 33 32  1  0  0  0  0
 34 33  2  0  0  0  0
 34 35  1  0  0  0  0
 35 36  2  0  0  0  0
 36 31  1  0  0  0  0
 40 39  1  0  0  0  0
 41 40  1  0  0  0  0
 41 33  1  0  0  0  0
 42 41  2  0  0  0  0
 43 44  2  0  0  0  0
 43 42  1  0  0  0  0
 44 45  1  0  0  0  0
 45 49  1  0  0  0  0
 45 40  2  0  0  0  0
 46 42  1  0  0  0  0
 47 43  1  0  0  0  0
 48 44  1  0  0  0  0
M  END
>  <minimizedAffinity>
-7.1418519

>  <minimizedRMSD>
1.23867023

$$$$
