
 OpenBabel03272503133D

 49 54  0  0  0  0  0  0  0  0999 V2000
   39.1150   32.2350   42.6100 C   0  0  0  0  0  0  0  0  0  0  0  0
   39.6740   31.5250   43.6600 C   0  0  0  0  0  0  0  0  0  0  0  0
   40.5740   30.5220   43.4840 C   0  0  0  0  0  0  0  0  0  0  0  0
   40.9730   30.1680   42.1990 C   0  0  0  0  0  0  0  0  0  0  0  0
   41.8170   29.2480   41.7370 N   0  0  0  0  0  0  0  0  0  0  0  0
   41.8170   29.3490   40.4030 C   0  0  0  0  0  0  0  0  0  0  0  0
   40.9740   30.3280   40.0300 N   0  0  0  0  0  0  0  0  0  0  0  0
   40.4170   30.8730   41.1460 C   0  0  0  0  0  0  0  0  0  0  0  0
   39.5000   31.8980   41.3040 C   0  0  0  0  0  0  0  0  0  0  0  0
   38.4110   33.0210   42.7490 H   0  0  0  0  0  0  0  0  0  0  0  0
   40.9920   29.9880   44.3190 H   0  0  0  0  0  0  0  0  0  0  0  0
   42.3970   28.5550   42.2650 H   0  0  0  0  0  0  0  0  0  0  0  0
   42.3300   28.8260   39.6260 H   0  0  0  0  0  0  0  0  0  0  0  0
   39.2270   31.9320   44.9790 C   0  0  0  0  0  0  0  0  0  0  0  0
   38.1340   32.5700   45.1160 O   0  0  0  0  0  0  0  0  0  0  0  0
   39.9420   31.6630   46.1900 N   0  0  0  0  0  0  0  0  0  0  0  0
   40.8240   31.1490   46.1280 H   0  0  0  0  0  0  0  0  0  0  0  0
   38.1110   30.1640   47.5170 F   0  0  0  0  0  0  0  0  0  0  0  0
   38.3740   31.4120   48.0180 C   0  0  0  0  0  0  0  0  0  0  0  0
   37.7130   31.8310   49.1390 C   0  0  0  0  0  0  0  0  0  0  0  0
   38.0180   33.0830   49.5920 C   0  0  0  0  0  0  0  0  0  0  0  0
   38.9320   33.8960   48.9740 C   0  0  0  0  0  0  0  0  0  0  0  0
   39.5910   33.4470   47.8340 C   0  0  0  0  0  0  0  0  0  0  0  0
   39.2920   32.1750   47.3610 C   0  0  0  0  0  0  0  0  0  0  0  0
   37.5030   33.4400   50.4880 H   0  0  0  0  0  0  0  0  0  0  0  0
   39.1810   34.8770   49.3140 H   0  0  0  0  0  0  0  0  0  0  0  0
   40.3320   33.9900   47.2550 H   0  0  0  0  0  0  0  0  0  0  0  0
   36.0730   29.3370   51.4650 C   0  0  0  0  0  0  0  0  0  0  0  0
   37.0440   30.1990   50.8920 C   0  0  0  0  0  0  0  0  0  0  0  0
   36.7490   30.9320   49.7640 C   0  0  0  0  0  0  0  0  0  0  0  0
   35.4870   30.7840   49.2300 N   0  0  0  0  0  0  0  0  0  0  0  0
   34.5780   29.9620   49.7850 C   0  0  0  0  0  0  0  0  0  0  0  0
   34.8670   29.2570   50.8760 N   0  0  0  0  0  0  0  0  0  0  0  0
   36.2960   28.7590   52.3510 H   0  0  0  0  0  0  0  0  0  0  0  0
   38.0250   30.2880   51.3410 H   0  0  0  0  0  0  0  0  0  0  0  0
   33.6520   29.9900   49.2170 H   0  0  0  0  0  0  0  0  0  0  0  0
   38.9530   32.5940   40.2490 O   0  0  0  0  0  0  0  0  0  0  0  0
   37.6300   32.7920   39.9850 C   0  0  0  0  0  0  0  0  0  0  0  0
   36.9480   31.8820   39.1770 C   0  0  0  0  0  0  0  0  0  0  0  0
   37.4730   31.0140   38.7560 H   0  0  0  0  0  0  0  0  0  0  0  0
   35.6160   32.0330   38.8780 C   0  0  0  0  0  3  0  0  0  0  0  0
   34.8850   33.0960   39.3660 C   0  0  0  0  0  0  0  0  0  0  0  0
   33.5870   33.2880   39.1050 N   0  0  0  0  0  0  0  0  0  0  0  0
   32.8830   34.3230   39.5820 C   0  0  0  0  0  0  0  0  0  0  0  0
   31.8210   34.4720   39.3640 H   0  0  0  0  0  0  0  0  0  0  0  0
   33.4810   35.2830   40.3980 C   0  0  0  0  0  3  0  0  0  0  0  0
   34.8260   35.1050   40.6820 C   0  0  0  0  0  3  0  0  0  0  0  0
   35.5270   34.0340   40.1810 C   0  0  0  0  0  0  0  0  0  0  0  0
   36.8730   33.8270   40.4460 C   0  0  0  0  0  3  0  0  0  0  0  0
  1 10  1  0  0  0  0
  1  2  1  0  0  0  0
  2 14  1  0  0  0  0
  3  2  2  0  0  0  0
  3 11  1  0  0  0  0
  4  3  1  0  0  0  0
  5  4  1  0  0  0  0
  5 12  1  0  0  0  0
  6  5  1  0  0  0  0
  7  6  2  0  0  0  0
  7  8  1  0  0  0  0
  8  9  1  0  0  0  0
  8  4  2  0  0  0  0
  9  1  2  0  0  0  0
 13  6  1  0  0  0  0
 14 15  2  0  0  0  0
 14 16  1  0  0  0  0
 16 24  1  0  0  0  0
 17 16  1  0  0  0  0
 18 19  1  0  0  0  0
 19 20  1  0  0  0  0
 20 21  2  0  0  0  0
 20 30  1  0  0  0  0
 21 25  1  0  0  0  0
 22 26  1  0  0  0  0
 22 21  1  0  0  0  0
 23 22  2  0  0  0  0
 24 23  1  0  0  0  0
 24 19  2  0  0  0  0
 27 23  1  0  0  0  0
 28 34  1  0  0  0  0
 29 35  1  0  0  0  0
 29 28  1  0  0  0  0
 30 29  2  0  0  0  0
 31 30  1  0  0  0  0
 31 32  2  0  0  0  0
 32 33  1  0  0  0  0
 33 28  2  0  0  0  0
 36 32  1  0  0  0  0
 37  9  1  0  0  0  0
 38 37  1  0  0  0  0
 38 49  1  0  0  0  0
 39 38  2  0  0  0  0
 40 39  1  0  0  0  0
 41 39  1  0  0  0  0
 41 42  2  0  0  0  0
 42 48  1  0  0  0  0
 43 42  1  0  0  0  0
 43 44  2  0  0  0  0
 44 46  1  0  0  0  0
 45 44  1  0  0  0  0
 46 47  2  0  0  0  0
 48 49  2  0  0  0  0
 48 47  1  0  0  0  0
M  END
>  <minimizedAffinity>
-7.62796879

>  <minimizedRMSD>
2.2496109

$$$$
