
 OpenBabel03272510213D

 39 43  0  0  0  0  0  0  0  0999 V2000
   32.7950   29.3920   46.8330 C   0  0  0  0  0  0  0  0  0  0  0  0
   31.8910   28.3680   46.6680 C   0  0  0  0  0  0  0  0  0  0  0  0
   30.8330   28.4280   45.7700 C   0  0  0  0  0  0  0  0  0  0  0  0
   30.6710   29.5310   45.0190 N   0  0  0  0  0  0  0  0  0  0  0  0
   31.5470   30.5300   45.1750 C   0  0  0  0  0  0  0  0  0  0  0  0
   32.5560   30.4530   46.0420 N   0  0  0  0  0  0  0  0  0  0  0  0
   32.0280   27.4650   47.2850 H   0  0  0  0  0  0  0  0  0  0  0  0
   30.1870   27.5530   45.7330 H   0  0  0  0  0  0  0  0  0  0  0  0
   31.3870   31.7360   44.3700 C   0  0  0  0  0  0  0  0  0  0  0  0
   31.6450   32.9910   44.9130 C   0  0  0  0  0  0  0  0  0  0  0  0
   31.9660   33.0410   45.9470 H   0  0  0  0  0  0  0  0  0  0  0  0
   31.5270   34.1760   44.2450 C   0  0  0  0  0  3  0  0  0  0  0  0
   31.1180   34.1140   42.9290 C   0  0  0  0  0  0  0  0  0  0  0  0
   30.9930   35.2680   42.2470 N   0  0  0  0  0  0  0  0  0  0  0  0
   30.6010   35.3130   40.9580 C   0  0  0  0  0  0  0  0  0  0  0  0
   30.5130   36.2490   40.4470 H   0  0  0  0  0  0  0  0  0  0  0  0
   30.3220   34.1030   40.3350 C   0  0  0  0  0  3  0  0  0  0  0  0
   30.4390   32.8840   41.0020 C   0  0  0  0  0  3  0  0  0  0  0  0
   30.8430   32.8970   42.3200 C   0  0  0  0  0  0  0  0  0  0  0  0
   30.9870   31.7350   43.0640 C   0  0  0  0  0  3  0  0  0  0  0  0
   37.4600   29.1800   50.8160 Br  0  0  0  0  0  0  0  0  0  0  0  0
   36.0300   29.2800   49.5610 C   0  0  0  0  0  0  0  0  0  0  0  0
   36.0010   30.2900   48.5920 C   0  0  0  0  0  0  0  0  0  0  0  0
   34.9470   30.3100   47.7190 C   0  0  0  0  0  0  0  0  0  0  0  0
   33.9160   29.3760   47.7560 C   0  0  0  0  0  0  0  0  0  0  0  0
   33.9670   28.4040   48.7090 C   0  0  0  0  0  0  0  0  0  0  0  0
   35.0190   28.3690   49.5950 C   0  0  0  0  0  0  0  0  0  0  0  0
   34.8600   31.0660   46.9390 H   0  0  0  0  0  0  0  0  0  0  0  0
   33.2230   27.6280   48.8330 H   0  0  0  0  0  0  0  0  0  0  0  0
   35.0730   27.5950   50.3650 H   0  0  0  0  0  0  0  0  0  0  0  0
   38.0310   33.1950   49.4480 C   0  0  0  0  0  0  0  0  0  0  0  0
   39.0480   33.1980   48.4470 C   0  0  0  0  0  0  0  0  0  0  0  0
   39.0080   32.1940   47.5010 C   0  0  0  0  0  0  0  0  0  0  0  0
   38.0130   31.2530   47.5550 N   0  0  0  0  0  0  0  0  0  0  0  0
   37.0600   31.2800   48.5220 C   0  0  0  0  0  0  0  0  0  0  0  0
   37.0820   32.2570   49.4610 N   0  0  0  0  0  0  0  0  0  0  0  0
   38.0990   34.0060   50.1790 H   0  0  0  0  0  0  0  0  0  0  0  0
   39.8390   33.9000   48.3600 H   0  0  0  0  0  0  0  0  0  0  0  0
   39.7060   32.0790   46.6990 H   0  0  0  0  0  0  0  0  0  0  0  0
  1 25  1  0  0  0  0
  2  1  1  0  0  0  0
  2  7  1  0  0  0  0
  3  2  2  0  0  0  0
  4  5  2  0  0  0  0
  4  3  1  0  0  0  0
  5  6  1  0  0  0  0
  6  1  2  0  0  0  0
  8  3  1  0  0  0  0
  9 10  1  0  0  0  0
  9  5  1  0  0  0  0
 10 11  1  0  0  0  0
 12 10  2  0  0  0  0
 13 12  1  0  0  0  0
 14 13  2  0  0  0  0
 15 14  1  0  0  0  0
 16 15  1  0  0  0  0
 17 15  2  0  0  0  0
 17 18  1  0  0  0  0
 18 19  2  0  0  0  0
 19 13  1  0  0  0  0
 19 20  1  0  0  0  0
 20  9  2  0  0  0  0
 22 27  1  0  0  0  0
 22 21  1  0  0  0  0
 23 22  2  0  0  0  0
 24 25  2  0  0  0  0
 24 23  1  0  0  0  0
 25 26  1  0  0  0  0
 26 29  1  0  0  0  0
 26 27  2  0  0  0  0
 27 30  1  0  0  0  0
 28 24  1  0  0  0  0
 31 36  1  0  0  0  0
 31 37  1  0  0  0  0
 32 31  2  0  0  0  0
 33 34  2  0  0  0  0
 33 32  1  0  0  0  0
 34 35  1  0  0  0  0
 35 23  1  0  0  0  0
 35 36  2  0  0  0  0
 38 32  1  0  0  0  0
 39 33  1  0  0  0  0
M  END
>  <minimizedAffinity>
-7.15663195

>  <minimizedRMSD>
0.61953634

$$$$
