
 OpenBabel03272505273D

 34 37  0  0  0  0  0  0  0  0999 V2000
   37.4010   31.1470   47.0750 N   0  0  0  0  0  0  0  0  0  0  0  0
   36.7680   30.8700   45.9030 C   0  0  0  0  0  0  0  0  0  0  0  0
   37.2030   31.3680   44.6860 C   0  0  0  0  0  0  0  0  0  0  0  0
   38.3470   32.1890   44.7050 C   0  0  0  0  0  0  0  0  0  0  0  0
   38.7760   32.6600   43.6280 O   0  0  0  0  0  0  0  0  0  0  0  0
   38.9840   32.4680   45.8760 N   0  0  0  0  0  0  0  0  0  0  0  0
   38.4650   31.9270   46.9840 C   0  0  0  0  0  0  0  0  0  0  0  0
   39.0750   32.2090   48.0410 O   0  0  0  0  0  0  0  0  0  0  0  0
   35.9010   30.2500   45.8780 H   0  0  0  0  0  0  0  0  0  0  0  0
   36.5210   31.0690   43.4300 C   0  0  0  0  0  0  0  0  0  0  0  0
   36.9020   29.8740   42.8130 C   0  0  0  0  0  0  0  0  0  0  0  0
   37.6470   29.1960   43.2160 H   0  0  0  0  0  0  0  0  0  0  0  0
   36.3360   29.4610   41.6120 C   0  0  0  0  0  0  0  0  0  0  0  0
   35.3760   30.2600   41.0250 C   0  0  0  0  0  0  0  0  0  0  0  0
   34.7870   29.9050   39.8460 N   0  0  0  0  0  0  0  0  0  0  0  0
   33.8510   30.6860   39.2750 C   0  0  0  0  0  0  0  0  0  0  0  0
   33.4780   30.2660   38.3390 H   0  0  0  0  0  0  0  0  0  0  0  0
   33.4610   31.8730   39.8690 C   0  0  0  0  0  0  0  0  0  0  0  0
   34.0430   32.2550   41.0640 C   0  0  0  0  0  0  0  0  0  0  0  0
   35.0010   31.4530   41.6460 C   0  0  0  0  0  0  0  0  0  0  0  0
   35.5580   31.8690   42.8390 C   0  0  0  0  0  0  0  0  0  0  0  0
   37.3350   29.5560   50.4260 C   0  0  0  0  0  0  0  0  0  0  0  0
   37.7980   30.0580   49.2030 C   0  0  0  0  0  0  0  0  0  0  0  0
   36.9480   30.6380   48.2950 C   0  0  0  0  0  0  0  0  0  0  0  0
   35.6340   30.7090   48.6210 N   0  0  0  0  0  0  0  0  0  0  0  0
   35.1510   30.2300   49.8010 C   0  0  0  0  0  0  0  0  0  0  0  0
   35.9990   29.6530   50.7040 N   0  0  0  0  0  0  0  0  0  0  0  0
   37.9520   29.0900   51.1800 H   0  0  0  0  0  0  0  0  0  0  0  0
   38.8440   29.9040   49.1190 H   0  0  0  0  0  0  0  0  0  0  0  0
   34.0900   30.3340   49.9670 H   0  0  0  0  0  0  0  0  0  0  0  0
   40.1590   33.3090   45.8870 C   0  0  0  0  0  0  0  0  0  0  0  0
   40.0450   34.2770   44.9310 F   0  0  0  0  0  0  0  0  0  0  0  0
   41.3290   32.6130   45.6200 F   0  0  0  0  0  0  0  0  0  0  0  0
   40.2470   33.9380   47.1230 F   0  0  0  0  0  0  0  0  0  0  0  0
  1 24  1  0  0  0  0
  2  1  1  0  0  0  0
  3  4  1  0  0  0  0
  3  2  2  0  0  0  0
  4  6  1  0  0  0  0
  5  4  2  0  0  0  0
  6 31  1  0  0  0  0
  6  7  1  0  0  0  0
  7  1  1  0  0  0  0
  7  8  2  0  0  0  0
  9  2  1  0  0  0  0
 10  3  1  0  0  0  0
 11 12  1  0  0  0  0
 11 10  2  0  0  0  0
 13 11  1  0  0  0  0
 14 13  2  0  0  0  0
 14 20  1  0  0  0  0
 15 14  1  0  0  0  0
 16 15  2  0  0  0  0
 16 18  1  0  0  0  0
 17 16  1  0  0  0  0
 18 19  2  0  0  0  0
 19 20  1  0  0  0  0
 20 21  2  0  0  0  0
 21 10  1  0  0  0  0
 22 27  1  0  0  0  0
 22 28  1  0  0  0  0
 23 22  2  0  0  0  0
 24 25  2  0  0  0  0
 24 23  1  0  0  0  0
 25 26  1  0  0  0  0
 26 30  1  0  0  0  0
 26 27  2  0  0  0  0
 29 23  1  0  0  0  0
 31 34  1  0  0  0  0
 32 31  1  0  0  0  0
 33 31  1  0  0  0  0
M  END
>  <minimizedAffinity>
-6.25883055

>  <minimizedRMSD>
0.226228595

$$$$
