
 OpenBabel03272510023D

 24 26  0  0  0  0  0  0  0  0999 V2000
   37.6360   30.4820   51.1430 C   0  0  0  0  0  0  0  0  0  0  0  0
   38.2540   31.0700   50.0280 C   0  0  0  0  0  0  0  0  0  0  0  0
   37.5850   31.0290   48.8150 C   0  0  0  0  0  0  0  0  0  0  0  0
   36.3740   30.4220   48.7740 N   0  0  0  0  0  0  0  0  0  0  0  0
   35.8010   29.8630   49.8670 C   0  0  0  0  0  0  0  0  0  0  0  0
   36.4280   29.8910   51.0480 N   0  0  0  0  0  0  0  0  0  0  0  0
   38.1820   30.5350   52.0590 H   0  0  0  0  0  0  0  0  0  0  0  0
   39.2220   31.5490   50.0820 H   0  0  0  0  0  0  0  0  0  0  0  0
   38.0950   31.5870   47.5940 C   0  0  0  0  0  0  0  0  0  0  0  0
   39.1890   32.4140   47.6480 C   0  0  0  0  0  0  0  0  0  0  0  0
   39.6780   32.6580   48.5790 H   0  0  0  0  0  0  0  0  0  0  0  0
   39.7610   33.0070   46.5290 C   0  0  0  0  0  0  0  0  0  0  0  0
   39.1750   32.7330   45.2900 C   0  0  0  0  0  0  0  0  0  0  0  0
   39.7530   33.3230   44.2150 N   0  0  0  0  0  0  0  0  0  0  0  0
   39.1930   33.0660   43.0000 C   0  0  0  0  0  0  0  0  0  0  0  0
   39.5320   33.4590   42.0380 H   0  0  0  0  0  0  0  0  0  0  0  0
   38.0870   32.2400   42.8710 C   0  0  0  0  0  0  0  0  0  0  0  0
   37.5080   31.6450   43.9730 C   0  0  0  0  0  0  0  0  0  0  0  0
   38.0840   31.9140   45.1980 C   0  0  0  0  0  0  0  0  0  0  0  0
   37.5610   31.3560   46.3450 C   0  0  0  0  0  0  0  0  0  0  0  0
   34.4760   29.2300   49.6900 C   0  0  0  0  0  0  0  0  0  0  0  0
   33.5730   29.6150   50.6690 F   0  0  0  0  0  0  0  0  0  0  0  0
   33.8960   29.5680   48.4780 F   0  0  0  0  0  0  0  0  0  0  0  0
   34.5200   27.8490   49.7320 F   0  0  0  0  0  0  0  0  0  0  0  0
  1  7  1  0  0  0  0
  2  8  1  0  0  0  0
  2  1  2  0  0  0  0
  3  2  1  0  0  0  0
  4  3  2  0  0  0  0
  4  5  1  0  0  0  0
  5  6  2  0  0  0  0
  6  1  1  0  0  0  0
  9 10  1  0  0  0  0
  9  3  1  0  0  0  0
 10 11  1  0  0  0  0
 12 10  2  0  0  0  0
 13 12  1  0  0  0  0
 14 13  2  0  0  0  0
 15 14  1  0  0  0  0
 16 15  1  0  0  0  0
 17 15  2  0  0  0  0
 17 18  1  0  0  0  0
 18 19  2  0  0  0  0
 19 13  1  0  0  0  0
 19 20  1  0  0  0  0
 20  9  2  0  0  0  0
 21 24  1  0  0  0  0
 21  5  1  0  0  0  0
 21 22  1  0  0  0  0
 23 21  1  0  0  0  0
M  END
>  <minimizedAffinity>
-6.70822811

>  <minimizedRMSD>
2.2264955

$$$$
