
 OpenBabel03272503133D

 49 54  0  0  0  0  0  0  0  0999 V2000
   39.1360   32.1550   42.5630 C   0  0  0  0  0  0  0  0  0  0  0  0
   39.7020   31.4660   43.6240 C   0  0  0  0  0  0  0  0  0  0  0  0
   40.6090   30.4680   43.4620 C   0  0  0  0  0  0  0  0  0  0  0  0
   41.0120   30.0970   42.1830 C   0  0  0  0  0  0  0  0  0  0  0  0
   41.8640   29.1780   41.7350 N   0  0  0  0  0  0  0  0  0  0  0  0
   41.8630   29.2590   40.3990 C   0  0  0  0  0  0  0  0  0  0  0  0
   41.0120   30.2250   40.0120 N   0  0  0  0  0  0  0  0  0  0  0  0
   40.4500   30.7820   41.1190 C   0  0  0  0  0  0  0  0  0  0  0  0
   39.5240   31.8020   41.2620 C   0  0  0  0  0  0  0  0  0  0  0  0
   38.4250   32.9370   42.6900 H   0  0  0  0  0  0  0  0  0  0  0  0
   41.0320   29.9490   44.3060 H   0  0  0  0  0  0  0  0  0  0  0  0
   42.4490   28.4980   42.2730 H   0  0  0  0  0  0  0  0  0  0  0  0
   42.3810   28.7290   39.6300 H   0  0  0  0  0  0  0  0  0  0  0  0
   39.2510   31.8880   44.9360 C   0  0  0  0  0  0  0  0  0  0  0  0
   38.1640   32.5380   45.0620 O   0  0  0  0  0  0  0  0  0  0  0  0
   39.9570   31.6230   46.1530 N   0  0  0  0  0  0  0  0  0  0  0  0
   40.8340   31.1010   46.1020 H   0  0  0  0  0  0  0  0  0  0  0  0
   38.1230   30.1440   47.4990 F   0  0  0  0  0  0  0  0  0  0  0  0
   38.3860   31.3990   47.9830 C   0  0  0  0  0  0  0  0  0  0  0  0
   37.7240   31.8330   49.0970 C   0  0  0  0  0  0  0  0  0  0  0  0
   38.0280   33.0920   49.5330 C   0  0  0  0  0  0  0  0  0  0  0  0
   38.9430   33.8960   48.9040 C   0  0  0  0  0  0  0  0  0  0  0  0
   39.6040   33.4300   47.7720 C   0  0  0  0  0  0  0  0  0  0  0  0
   39.3050   32.1530   47.3170 C   0  0  0  0  0  0  0  0  0  0  0  0
   37.5110   33.4610   50.4220 H   0  0  0  0  0  0  0  0  0  0  0  0
   39.1910   34.8810   49.2320 H   0  0  0  0  0  0  0  0  0  0  0  0
   40.3450   33.9660   47.1870 H   0  0  0  0  0  0  0  0  0  0  0  0
   36.0830   29.3660   51.4510 C   0  0  0  0  0  0  0  0  0  0  0  0
   37.0540   30.2200   50.8670 C   0  0  0  0  0  0  0  0  0  0  0  0
   36.7590   30.9430   49.7330 C   0  0  0  0  0  0  0  0  0  0  0  0
   35.4950   30.7940   49.2040 N   0  0  0  0  0  0  0  0  0  0  0  0
   34.5840   29.9810   49.7700 C   0  0  0  0  0  0  0  0  0  0  0  0
   34.8740   29.2850   50.8660 N   0  0  0  0  0  0  0  0  0  0  0  0
   36.3060   28.7950   52.3410 H   0  0  0  0  0  0  0  0  0  0  0  0
   38.0380   30.3100   51.3120 H   0  0  0  0  0  0  0  0  0  0  0  0
   33.6570   30.0070   49.2040 H   0  0  0  0  0  0  0  0  0  0  0  0
   38.9720   32.4770   40.1970 O   0  0  0  0  0  0  0  0  0  0  0  0
   37.6570   32.7860   40.0050 C   0  0  0  0  0  0  0  0  0  0  0  0
   37.2920   34.1130   39.7720 C   0  0  0  0  0  0  0  0  0  0  0  0
   38.0560   34.9000   39.7450 H   0  0  0  0  0  0  0  0  0  0  0  0
   35.9840   34.4820   39.5730 C   0  0  0  0  0  3  0  0  0  0  0  0
   34.9640   33.5520   39.5930 C   0  0  0  0  0  0  0  0  0  0  0  0
   33.6750   33.8590   39.4030 N   0  0  0  0  0  0  0  0  0  0  0  0
   32.6900   32.9510   39.4240 C   0  0  0  0  0  0  0  0  0  0  0  0
   31.6380   33.2110   39.2680 H   0  0  0  0  0  0  0  0  0  0  0  0
   32.9600   31.6030   39.6500 C   0  0  0  0  0  3  0  0  0  0  0  0
   34.2890   31.2600   39.8470 C   0  0  0  0  0  3  0  0  0  0  0  0
   35.2840   32.2110   39.8220 C   0  0  0  0  0  0  0  0  0  0  0  0
   36.6210   31.9010   40.0170 C   0  0  0  0  0  3  0  0  0  0  0  0
  1 10  1  0  0  0  0
  1  2  1  0  0  0  0
  2 14  1  0  0  0  0
  3  2  2  0  0  0  0
  3 11  1  0  0  0  0
  4  3  1  0  0  0  0
  5  4  1  0  0  0  0
  5 12  1  0  0  0  0
  6  5  1  0  0  0  0
  7  6  2  0  0  0  0
  7  8  1  0  0  0  0
  8  9  1  0  0  0  0
  8  4  2  0  0  0  0
  9  1  2  0  0  0  0
 13  6  1  0  0  0  0
 14 15  2  0  0  0  0
 14 16  1  0  0  0  0
 16 24  1  0  0  0  0
 17 16  1  0  0  0  0
 18 19  1  0  0  0  0
 19 20  1  0  0  0  0
 20 21  2  0  0  0  0
 20 30  1  0  0  0  0
 21 25  1  0  0  0  0
 22 26  1  0  0  0  0
 22 21  1  0  0  0  0
 23 22  2  0  0  0  0
 24 23  1  0  0  0  0
 24 19  2  0  0  0  0
 27 23  1  0  0  0  0
 28 34  1  0  0  0  0
 29 35  1  0  0  0  0
 29 28  1  0  0  0  0
 30 29  2  0  0  0  0
 31 30  1  0  0  0  0
 31 32  2  0  0  0  0
 32 33  1  0  0  0  0
 33 28  2  0  0  0  0
 36 32  1  0  0  0  0
 37  9  1  0  0  0  0
 38 49  1  0  0  0  0
 38 37  1  0  0  0  0
 39 38  2  0  0  0  0
 40 39  1  0  0  0  0
 41 42  2  0  0  0  0
 41 39  1  0  0  0  0
 42 48  1  0  0  0  0
 43 44  2  0  0  0  0
 43 42  1  0  0  0  0
 44 46  1  0  0  0  0
 45 44  1  0  0  0  0
 46 47  2  0  0  0  0
 48 47  1  0  0  0  0
 48 49  2  0  0  0  0
M  END
>  <minimizedAffinity>
-7.47034788

>  <minimizedRMSD>
2.46063566

$$$$
