
 OpenBabel03262522493D

 28 31  0  0  0  0  0  0  0  0999 V2000
   35.7280   29.9240   48.5830 C   0  0  0  0  0  0  0  0  0  0  0  0
   35.6270   28.7920   49.2860 C   0  0  0  0  0  0  0  0  0  0  0  0
   34.4770   28.0560   49.2480 C   0  0  0  0  0  0  0  0  0  0  0  0
   33.4710   28.5510   48.4610 C   0  0  0  0  0  0  0  0  0  0  0  0
   34.1990   30.0810   47.7810 S   0  0  0  0  0  0  0  0  0  0  0  0
   36.4910   28.4690   49.8940 H   0  0  0  0  0  0  0  0  0  0  0  0
   34.3000   27.1290   49.7810 H   0  0  0  0  0  0  0  0  0  0  0  0
   32.1380   28.0150   48.2070 C   0  0  0  0  0  0  0  0  0  0  0  0
   31.7950   27.6020   46.9370 C   0  0  0  0  0  0  0  0  0  0  0  0
   32.5320   27.6900   46.1680 H   0  0  0  0  0  0  0  0  0  0  0  0
   30.5190   27.1110   46.7840 C   0  0  0  0  0  0  0  0  0  0  0  0
   29.6310   27.0350   47.8410 C   0  0  0  0  0  0  0  0  0  0  0  0
   28.4040   26.5310   47.5550 N   0  0  0  0  0  0  0  0  0  0  0  0
   27.4820   26.4240   48.5320 C   0  0  0  0  0  0  0  0  0  0  0  0
   26.5260   26.0210   48.2710 H   0  0  0  0  0  0  0  0  0  0  0  0
   27.8400   26.8420   49.8000 C   0  0  0  0  0  0  0  0  0  0  0  0
   29.0950   27.3600   50.1030 C   0  0  0  0  0  0  0  0  0  0  0  0
   30.0220   27.4600   49.0880 C   0  0  0  0  0  0  0  0  0  0  0  0
   31.2930   27.9640   49.3000 C   0  0  0  0  0  0  0  0  0  0  0  0
   37.9390   32.7180   49.3380 C   0  0  0  0  0  0  0  0  0  0  0  0
   38.9120   32.6320   48.3060 C   0  0  0  0  0  0  0  0  0  0  0  0
   38.7910   31.6040   47.3580 C   0  0  0  0  0  0  0  0  0  0  0  0
   37.7440   30.7440   47.4780 N   0  0  0  0  0  0  0  0  0  0  0  0
   36.8500   30.8670   48.4700 C   0  0  0  0  0  0  0  0  0  0  0  0
   36.9340   31.8260   49.3850 N   0  0  0  0  0  0  0  0  0  0  0  0
   38.0500   33.5170   50.0590 H   0  0  0  0  0  0  0  0  0  0  0  0
   39.7260   33.3300   48.2440 H   0  0  0  0  0  0  0  0  0  0  0  0
   39.5200   31.5200   46.5650 H   0  0  0  0  0  0  0  0  0  0  0  0
  1  2  2  0  0  0  0
  2  6  1  0  0  0  0
  3  2  1  0  0  0  0
  3  7  1  0  0  0  0
  4  3  2  0  0  0  0
  5  4  1  0  0  0  0
  5  1  1  0  0  0  0
  8  4  1  0  0  0  0
  8 19  1  0  0  0  0
  9  8  2  0  0  0  0
 10  9  1  0  0  0  0
 11  9  1  0  0  0  0
 11 12  2  0  0  0  0
 12 18  1  0  0  0  0
 13 12  1  0  0  0  0
 13 14  2  0  0  0  0
 14 16  1  0  0  0  0
 15 14  1  0  0  0  0
 16 17  2  0  0  0  0
 18 19  2  0  0  0  0
 18 17  1  0  0  0  0
 20 25  1  0  0  0  0
 20 26  1  0  0  0  0
 21 20  2  0  0  0  0
 22 23  2  0  0  0  0
 22 21  1  0  0  0  0
 23 24  1  0  0  0  0
 24  1  1  0  0  0  0
 24 25  2  0  0  0  0
 27 21  1  0  0  0  0
 28 22  1  0  0  0  0
M  END
>  <minimizedAffinity>
-6.2447238

>  <minimizedRMSD>
0.658355772

$$$$
