
 OpenBabel03262520453D

 31 34  0  0  1  0  0  0  0  0999 V2000
   38.2040   26.7090   34.2980 C   0  0  1  0  0  0  0  0  0  0  0  0
   38.2110   27.3930   35.6700 C   0  0  0  0  0  0  0  0  0  0  0  0
   37.7750   25.9700   35.4890 C   0  0  2  0  0  0  0  0  0  0  0  0
   39.2150   26.4820   33.8590 H   0  0  0  0  0  0  0  0  0  0  0  0
   37.4780   28.1660   35.8960 H   0  0  0  0  0  0  0  0  0  0  0  0
   39.2020   27.5070   36.1430 H   0  0  0  0  0  0  0  0  0  0  0  0
   36.6820   25.8260   35.6180 H   0  0  0  0  0  0  0  0  0  0  0  0
   38.5750   24.8840   36.0920 C   0  0  0  0  0  0  0  0  0  0  0  0
   38.2140   24.3190   37.3090 C   0  0  0  0  0  0  0  0  0  0  0  0
   37.3450   24.6500   37.8490 H   0  0  0  0  0  0  0  0  0  0  0  0
   38.9470   23.3000   37.8940 C   0  0  0  0  0  3  0  0  0  0  0  0
   40.0780   22.8030   37.2790 C   0  0  0  0  0  0  0  0  0  0  0  0
   40.8380   21.8200   37.7820 N   0  0  0  0  0  0  0  0  0  0  0  0
   41.9320   21.3820   37.1290 C   0  0  0  0  0  0  0  0  0  0  0  0
   42.5450   20.5780   37.5520 H   0  0  0  0  0  0  0  0  0  0  0  0
   42.3530   21.9020   35.9070 C   0  0  0  0  0  3  0  0  0  0  0  0
   41.5670   22.9230   35.3820 C   0  0  0  0  0  3  0  0  0  0  0  0
   40.4470   23.3520   36.0780 C   0  0  0  0  0  0  0  0  0  0  0  0
   39.7120   24.3620   35.5080 C   0  0  0  0  0  3  0  0  0  0  0  0
   37.2430   27.3160   33.3380 C   0  0  0  0  0  0  0  0  0  0  0  0
   37.7750   28.0810   32.7300 H   0  0  0  0  0  0  0  0  0  0  0  0
   36.3960   27.7830   33.9160 H   0  0  0  0  0  0  0  0  0  0  0  0
   36.5210   24.1080   31.5640 C   0  0  0  0  0  0  0  0  0  0  0  0
   37.1350   25.0500   32.4260 C   0  0  0  0  0  0  0  0  0  0  0  0
   36.6050   26.3260   32.4410 C   0  0  0  0  0  0  0  0  0  0  0  0
   35.5470   26.6290   31.6560 N   0  0  0  0  0  0  0  0  0  0  0  0
   34.9900   25.6910   30.8450 C   0  0  0  0  0  0  0  0  0  0  0  0
   35.4880   24.4320   30.8100 N   0  0  0  0  0  0  0  0  0  0  0  0
   36.9500   23.1040   31.5630 H   0  0  0  0  0  0  0  0  0  0  0  0
   37.9900   24.7580   33.0430 H   0  0  0  0  0  0  0  0  0  0  0  0
   34.1370   25.9200   30.2070 H   0  0  0  0  0  0  0  0  0  0  0  0
  1  4  1  6  0  0  0
  1  3  1  0  0  0  0
  1  2  1  0  0  0  0
  2  5  1  0  0  0  0
  2  6  1  0  0  0  0
  3  7  1  1  0  0  0
  3  2  1  0  0  0  0
  3  8  1  0  0  0  0
  8  9  1  0  0  0  0
  9 10  1  0  0  0  0
  9 11  2  0  0  0  0
 12 13  1  0  0  0  0
 12 11  1  0  0  0  0
 14 15  1  0  0  0  0
 14 13  2  0  0  0  0
 16 14  1  0  0  0  0
 17 16  2  0  0  0  0
 17 18  1  0  0  0  0
 18 12  2  0  0  0  0
 19 18  1  0  0  0  0
 19  8  2  0  0  0  0
 20 22  1  0  0  0  0
 20  1  1  0  0  0  0
 21 20  1  0  0  0  0
 23 24  1  0  0  0  0
 24 25  2  0  0  0  0
 24 30  1  0  0  0  0
 25 20  1  0  0  0  0
 26 25  1  0  0  0  0
 27 26  2  0  0  0  0
 28 27  1  0  0  0  0
 28 23  2  0  0  0  0
 29 23  1  0  0  0  0
 31 27  1  0  0  0  0
M  END
>  <minimizedAffinity>
-5.7220993

$$$$

 OpenBabel03262520453D

 31 34  0  0  1  0  0  0  0  0999 V2000
   37.9250   26.8060   34.3270 C   0  0  1  0  0  0  0  0  0  0  0  0
   38.1010   27.5180   35.6730 C   0  0  0  0  0  0  0  0  0  0  0  0
   37.5990   26.1100   35.5740 C   0  0  2  0  0  0  0  0  0  0  0  0
   38.8760   26.5310   33.7910 H   0  0  0  0  0  0  0  0  0  0  0  0
   37.4250   28.3230   35.9550 H   0  0  0  0  0  0  0  0  0  0  0  0
   39.1400   27.6050   36.0370 H   0  0  0  0  0  0  0  0  0  0  0  0
   36.5210   26.0100   35.8200 H   0  0  0  0  0  0  0  0  0  0  0  0
   38.4190   25.0070   36.1180 C   0  0  0  0  0  0  0  0  0  0  0  0
   38.0660   24.3660   37.2990 C   0  0  0  0  0  0  0  0  0  0  0  0
   37.1900   24.6500   37.8550 H   0  0  0  0  0  0  0  0  0  0  0  0
   38.8180   23.3310   37.8280 C   0  0  0  0  0  3  0  0  0  0  0  0
   39.9590   22.8910   37.1890 C   0  0  0  0  0  0  0  0  0  0  0  0
   40.7380   21.8960   37.6380 N   0  0  0  0  0  0  0  0  0  0  0  0
   41.8410   21.5180   36.9650 C   0  0  0  0  0  0  0  0  0  0  0  0
   42.4690   20.7030   37.3430 H   0  0  0  0  0  0  0  0  0  0  0  0
   42.2540   22.1140   35.7750 C   0  0  0  0  0  3  0  0  0  0  0  0
   41.4490   23.1470   35.3060 C   0  0  0  0  0  3  0  0  0  0  0  0
   40.3200   23.5140   36.0220 C   0  0  0  0  0  0  0  0  0  0  0  0
   39.5660   24.5410   35.5080 C   0  0  0  0  0  3  0  0  0  0  0  0
   36.8900   27.4290   33.4580 C   0  0  0  0  0  0  0  0  0  0  0  0
   36.5390   28.3710   33.9350 H   0  0  0  0  0  0  0  0  0  0  0  0
   36.0390   26.7040   33.3280 H   0  0  0  0  0  0  0  0  0  0  0  0
   39.1170   27.6220   30.4640 C   0  0  0  0  0  0  0  0  0  0  0  0
   38.6630   27.3420   31.7760 C   0  0  0  0  0  0  0  0  0  0  0  0
   37.3710   27.7190   32.0880 C   0  0  0  0  0  0  0  0  0  0  0  0
   36.6000   28.3260   31.1590 N   0  0  0  0  0  0  0  0  0  0  0  0
   37.0790   28.5750   29.9100 C   0  0  0  0  0  0  0  0  0  0  0  0
   38.3410   28.2160   29.5770 N   0  0  0  0  0  0  0  0  0  0  0  0
   40.1400   27.3180   30.2320 H   0  0  0  0  0  0  0  0  0  0  0  0
   39.3250   26.8480   32.4950 H   0  0  0  0  0  0  0  0  0  0  0  0
   36.4700   29.0630   29.1510 H   0  0  0  0  0  0  0  0  0  0  0  0
  1  4  1  6  0  0  0
  1  3  1  0  0  0  0
  1  2  1  0  0  0  0
  2  5  1  0  0  0  0
  2  6  1  0  0  0  0
  3  2  1  0  0  0  0
  3  7  1  1  0  0  0
  3  8  1  0  0  0  0
  8  9  1  0  0  0  0
  9 11  2  0  0  0  0
  9 10  1  0  0  0  0
 12 13  1  0  0  0  0
 12 11  1  0  0  0  0
 14 15  1  0  0  0  0
 14 13  2  0  0  0  0
 16 14  1  0  0  0  0
 17 16  2  0  0  0  0
 17 18  1  0  0  0  0
 18 12  2  0  0  0  0
 19 18  1  0  0  0  0
 19  8  2  0  0  0  0
 20 21  1  0  0  0  0
 20  1  1  0  0  0  0
 22 20  1  0  0  0  0
 23 24  1  0  0  0  0
 24 25  2  0  0  0  0
 24 30  1  0  0  0  0
 25 20  1  0  0  0  0
 26 25  1  0  0  0  0
 27 26  2  0  0  0  0
 28 27  1  0  0  0  0
 28 23  2  0  0  0  0
 29 23  1  0  0  0  0
 31 27  1  0  0  0  0
M  END
>  <minimizedAffinity>
-5.5101819

$$$$

 OpenBabel03262520453D

 31 34  0  0  1  0  0  0  0  0999 V2000
   35.6740   28.8030   33.7410 C   0  0  1  0  0  0  0  0  0  0  0  0
   35.6510   28.2190   32.3240 C   0  0  0  0  0  0  0  0  0  0  0  0
   36.8490   28.1020   33.2170 C   0  0  2  0  0  0  0  0  0  0  0  0
   35.0280   28.2770   34.4970 H   0  0  0  0  0  0  0  0  0  0  0  0
   35.6730   28.8840   31.4620 H   0  0  0  0  0  0  0  0  0  0  0  0
   35.0830   27.2800   32.2020 H   0  0  0  0  0  0  0  0  0  0  0  0
   37.7020   28.7350   32.8930 H   0  0  0  0  0  0  0  0  0  0  0  0
   37.2700   26.7690   33.6950 C   0  0  0  0  0  0  0  0  0  0  0  0
   37.4690   25.7180   32.8070 C   0  0  0  0  0  0  0  0  0  0  0  0
   37.3240   25.8400   31.7490 H   0  0  0  0  0  0  0  0  0  0  0  0
   37.8630   24.4610   33.2310 C   0  0  0  0  0  3  0  0  0  0  0  0
   38.0780   24.2040   34.5700 C   0  0  0  0  0  0  0  0  0  0  0  0
   38.4600   23.0140   35.0570 N   0  0  0  0  0  0  0  0  0  0  0  0
   38.6510   22.8310   36.3770 C   0  0  0  0  0  0  0  0  0  0  0  0
   38.9630   21.8530   36.7610 H   0  0  0  0  0  0  0  0  0  0  0  0
   38.4710   23.8380   37.3240 C   0  0  0  0  0  3  0  0  0  0  0  0
   38.0740   25.0730   36.8230 C   0  0  0  0  0  3  0  0  0  0  0  0
   37.8850   25.2310   35.4580 C   0  0  0  0  0  0  0  0  0  0  0  0
   37.4930   26.4740   35.0250 C   0  0  0  0  0  3  0  0  0  0  0  0
   35.5690   30.2870   33.7720 C   0  0  0  0  0  0  0  0  0  0  0  0
   35.0380   30.6300   32.8560 H   0  0  0  0  0  0  0  0  0  0  0  0
   36.6050   30.7250   33.8220 H   0  0  0  0  0  0  0  0  0  0  0  0
   34.9140   32.1000   36.9730 C   0  0  0  0  0  0  0  0  0  0  0  0
   35.5890   31.6120   35.8270 C   0  0  0  0  0  0  0  0  0  0  0  0
   34.8690   30.8010   34.9720 C   0  0  0  0  0  0  0  0  0  0  0  0
   33.5790   30.5050   35.2450 N   0  0  0  0  0  0  0  0  0  0  0  0
   32.9720   30.9970   36.3580 C   0  0  0  0  0  0  0  0  0  0  0  0
   33.6530   31.7950   37.2140 N   0  0  0  0  0  0  0  0  0  0  0  0
   35.4960   32.7400   37.6400 H   0  0  0  0  0  0  0  0  0  0  0  0
   36.6350   31.8790   35.6480 H   0  0  0  0  0  0  0  0  0  0  0  0
   31.9330   30.7680   36.5910 H   0  0  0  0  0  0  0  0  0  0  0  0
  1 20  1  0  0  0  0
  1  4  1  1  0  0  0
  2  3  1  0  0  0  0
  2  1  1  0  0  0  0
  3  7  1  6  0  0  0
  3  8  1  0  0  0  0
  3  1  1  0  0  0  0
  5  2  1  0  0  0  0
  6  2  1  0  0  0  0
  8 19  1  0  0  0  0
  9 11  1  0  0  0  0
  9  8  2  0  0  0  0
 10  9  1  0  0  0  0
 11 12  2  0  0  0  0
 12 13  1  0  0  0  0
 12 18  1  0  0  0  0
 13 14  2  0  0  0  0
 14 15  1  0  0  0  0
 14 16  1  0  0  0  0
 17 16  2  0  0  0  0
 18 17  1  0  0  0  0
 19 18  2  0  0  0  0
 20 22  1  0  0  0  0
 20 25  1  0  0  0  0
 21 20  1  0  0  0  0
 23 28  1  0  0  0  0
 23 29  1  0  0  0  0
 24 23  2  0  0  0  0
 25 26  2  0  0  0  0
 25 24  1  0  0  0  0
 26 27  1  0  0  0  0
 27 31  1  0  0  0  0
 27 28  2  0  0  0  0
 30 24  1  0  0  0  0
M  END
>  <minimizedAffinity>
-5.46687651

$$$$

 OpenBabel03262520453D

 31 34  0  0  1  0  0  0  0  0999 V2000
   38.8710   23.5280   36.6010 C   0  0  1  0  0  0  0  0  0  0  0  0
   37.4480   23.9020   37.0310 C   0  0  0  0  0  0  0  0  0  0  0  0
   38.4500   24.9320   36.6050 C   0  0  2  0  0  0  0  0  0  0  0  0
   38.9610   22.9970   35.6130 H   0  0  0  0  0  0  0  0  0  0  0  0
   37.1570   23.8200   38.0770 H   0  0  0  0  0  0  0  0  0  0  0  0
   36.6560   23.7050   36.2880 H   0  0  0  0  0  0  0  0  0  0  0  0
   38.8190   25.5590   37.4430 H   0  0  0  0  0  0  0  0  0  0  0  0
   38.2150   25.7040   35.3670 C   0  0  0  0  0  0  0  0  0  0  0  0
   38.9050   25.4110   34.1970 C   0  0  0  0  0  0  0  0  0  0  0  0
   39.6290   24.6170   34.1540 H   0  0  0  0  0  0  0  0  0  0  0  0
   38.7010   26.1200   33.0250 C   0  0  0  0  0  3  0  0  0  0  0  0
   37.7920   27.1560   32.9770 C   0  0  0  0  0  0  0  0  0  0  0  0
   37.5400   27.8870   31.8820 N   0  0  0  0  0  0  0  0  0  0  0  0
   36.6390   28.8870   31.9050 C   0  0  0  0  0  0  0  0  0  0  0  0
   36.4430   29.4780   31.0020 H   0  0  0  0  0  0  0  0  0  0  0  0
   35.9110   29.2370   33.0410 C   0  0  0  0  0  3  0  0  0  0  0  0
   36.1690   28.4800   34.1790 C   0  0  0  0  0  3  0  0  0  0  0  0
   37.1030   27.4580   34.1250 C   0  0  0  0  0  0  0  0  0  0  0  0
   37.3150   26.7470   35.2810 C   0  0  0  0  0  3  0  0  0  0  0  0
   39.6820   22.9280   37.6940 C   0  0  0  0  0  0  0  0  0  0  0  0
   39.0910   22.1210   38.1800 H   0  0  0  0  0  0  0  0  0  0  0  0
   39.9470   23.7340   38.4360 H   0  0  0  0  0  0  0  0  0  0  0  0
   42.9560   22.6270   35.9170 C   0  0  0  0  0  0  0  0  0  0  0  0
   41.7170   23.1550   36.3570 C   0  0  0  0  0  0  0  0  0  0  0  0
   40.9790   22.3820   37.2320 C   0  0  0  0  0  0  0  0  0  0  0  0
   41.4470   21.1790   37.6320 N   0  0  0  0  0  0  0  0  0  0  0  0
   42.6430   20.7120   37.1840 C   0  0  0  0  0  0  0  0  0  0  0  0
   43.3870   21.4480   36.3260 N   0  0  0  0  0  0  0  0  0  0  0  0
   43.5270   23.2490   35.2260 H   0  0  0  0  0  0  0  0  0  0  0  0
   41.3790   24.1350   36.0040 H   0  0  0  0  0  0  0  0  0  0  0  0
   43.0330   19.7450   37.4970 H   0  0  0  0  0  0  0  0  0  0  0  0
  1  4  1  6  0  0  0
  1  3  1  0  0  0  0
  1  2  1  0  0  0  0
  1 20  1  0  0  0  0
  2  5  1  0  0  0  0
  3  2  1  0  0  0  0
  3  7  1  1  0  0  0
  6  2  1  0  0  0  0
  8  3  1  0  0  0  0
  9  8  2  0  0  0  0
 10  9  1  0  0  0  0
 11  9  1  0  0  0  0
 12 11  2  0  0  0  0
 12 18  1  0  0  0  0
 13 14  2  0  0  0  0
 13 12  1  0  0  0  0
 14 16  1  0  0  0  0
 15 14  1  0  0  0  0
 16 17  2  0  0  0  0
 18 17  1  0  0  0  0
 18 19  2  0  0  0  0
 19  8  1  0  0  0  0
 20 21  1  0  0  0  0
 20 22  1  0  0  0  0
 23 28  2  0  0  0  0
 23 24  1  0  0  0  0
 24 25  2  0  0  0  0
 25 26  1  0  0  0  0
 25 20  1  0  0  0  0
 27 31  1  0  0  0  0
 27 26  2  0  0  0  0
 28 27  1  0  0  0  0
 29 23  1  0  0  0  0
 30 24  1  0  0  0  0
M  END
>  <minimizedAffinity>
-5.29509783

$$$$

 OpenBabel03262520453D

 31 34  0  0  1  0  0  0  0  0999 V2000
   39.1460   26.0800   34.3000 C   0  0  1  0  0  0  0  0  0  0  0  0
   40.1100   27.0360   33.5870 C   0  0  0  0  0  0  0  0  0  0  0  0
   38.8470   26.5500   32.9440 C   0  0  2  0  0  0  0  0  0  0  0  0
   38.5690   26.5190   35.1600 H   0  0  0  0  0  0  0  0  0  0  0  0
   41.0760   26.6740   33.2400 H   0  0  0  0  0  0  0  0  0  0  0  0
   40.0740   28.0880   33.9190 H   0  0  0  0  0  0  0  0  0  0  0  0
   39.0240   25.8290   32.1180 H   0  0  0  0  0  0  0  0  0  0  0  0
   37.7660   27.5130   32.6470 C   0  0  0  0  0  0  0  0  0  0  0  0
   37.5970   28.0280   31.3680 C   0  0  0  0  0  0  0  0  0  0  0  0
   38.2420   27.7440   30.5560 H   0  0  0  0  0  0  0  0  0  0  0  0
   36.5920   28.9310   31.0650 C   0  0  0  0  0  3  0  0  0  0  0  0
   35.7110   29.3570   32.0370 C   0  0  0  0  0  0  0  0  0  0  0  0
   34.7140   30.2280   31.8220 N   0  0  0  0  0  0  0  0  0  0  0  0
   33.8890   30.6020   32.8180 C   0  0  0  0  0  0  0  0  0  0  0  0
   33.0780   31.3150   32.6280 H   0  0  0  0  0  0  0  0  0  0  0  0
   34.0000   30.1270   34.1240 C   0  0  0  0  0  3  0  0  0  0  0  0
   35.0330   29.2230   34.3520 C   0  0  0  0  0  3  0  0  0  0  0  0
   35.8660   28.8580   33.3060 C   0  0  0  0  0  0  0  0  0  0  0  0
   36.8670   27.9630   33.5930 C   0  0  0  0  0  3  0  0  0  0  0  0
   39.7350   24.7430   34.5760 C   0  0  0  0  0  0  0  0  0  0  0  0
   40.8410   24.8060   34.4680 H   0  0  0  0  0  0  0  0  0  0  0  0
   39.3040   23.9970   33.8510 H   0  0  0  0  0  0  0  0  0  0  0  0
   37.9510   24.2190   37.8170 C   0  0  0  0  0  0  0  0  0  0  0  0
   38.2670   24.7230   36.5310 C   0  0  0  0  0  0  0  0  0  0  0  0
   39.3990   24.2200   35.9200 C   0  0  0  0  0  0  0  0  0  0  0  0
   40.1500   23.2880   36.5480 N   0  0  0  0  0  0  0  0  0  0  0  0
   39.8070   22.8340   37.7830 C   0  0  0  0  0  0  0  0  0  0  0  0
   38.7030   23.3090   38.4060 N   0  0  0  0  0  0  0  0  0  0  0  0
   37.0530   24.6260   38.2870 H   0  0  0  0  0  0  0  0  0  0  0  0
   37.6280   25.4780   36.0620 H   0  0  0  0  0  0  0  0  0  0  0  0
   40.4020   22.0840   38.3020 H   0  0  0  0  0  0  0  0  0  0  0  0
  1 20  1  0  0  0  0
  1  4  1  1  0  0  0
  2  6  1  0  0  0  0
  2  1  1  0  0  0  0
  3  7  1  6  0  0  0
  3  2  1  0  0  0  0
  3  1  1  0  0  0  0
  5  2  1  0  0  0  0
  8  3  1  0  0  0  0
  8 19  1  0  0  0  0
  9  8  2  0  0  0  0
 10  9  1  0  0  0  0
 11  9  1  0  0  0  0
 11 12  2  0  0  0  0
 12 18  1  0  0  0  0
 13 12  1  0  0  0  0
 13 14  2  0  0  0  0
 14 16  1  0  0  0  0
 15 14  1  0  0  0  0
 16 17  2  0  0  0  0
 18 19  2  0  0  0  0
 18 17  1  0  0  0  0
 20 25  1  0  0  0  0
 21 20  1  0  0  0  0
 22 20  1  0  0  0  0
 23 29  1  0  0  0  0
 23 28  1  0  0  0  0
 24 23  2  0  0  0  0
 25 24  1  0  0  0  0
 25 26  2  0  0  0  0
 26 27  1  0  0  0  0
 27 31  1  0  0  0  0
 27 28  2  0  0  0  0
 30 24  1  0  0  0  0
M  END
>  <minimizedAffinity>
-5.26978922

$$$$

 OpenBabel03262520453D

 31 34  0  0  1  0  0  0  0  0999 V2000
   38.3940   25.9760   34.4230 C   0  0  1  0  0  0  0  0  0  0  0  0
   39.2860   26.6000   33.3430 C   0  0  0  0  0  0  0  0  0  0  0  0
   37.7940   26.5370   33.2090 C   0  0  2  0  0  0  0  0  0  0  0  0
   38.3080   26.5580   35.3820 H   0  0  0  0  0  0  0  0  0  0  0  0
   39.9190   25.9640   32.7270 H   0  0  0  0  0  0  0  0  0  0  0  0
   39.6790   27.6070   33.5690 H   0  0  0  0  0  0  0  0  0  0  0  0
   37.4530   25.8110   32.4420 H   0  0  0  0  0  0  0  0  0  0  0  0
   37.0130   27.7910   33.2040 C   0  0  0  0  0  0  0  0  0  0  0  0
   36.4060   28.2630   34.3620 C   0  0  0  0  0  0  0  0  0  0  0  0
   36.4850   27.7340   35.2950 H   0  0  0  0  0  0  0  0  0  0  0  0
   35.6700   29.4350   34.3820 C   0  0  0  0  0  3  0  0  0  0  0  0
   35.5110   30.1870   33.2370 C   0  0  0  0  0  0  0  0  0  0  0  0
   34.8140   31.3310   33.1770 N   0  0  0  0  0  0  0  0  0  0  0  0
   34.6980   32.0170   32.0240 C   0  0  0  0  0  0  0  0  0  0  0  0
   34.1250   32.9500   31.9890 H   0  0  0  0  0  0  0  0  0  0  0  0
   35.2790   31.6040   30.8260 C   0  0  0  0  0  3  0  0  0  0  0  0
   36.0030   30.4180   30.8830 C   0  0  0  0  0  3  0  0  0  0  0  0
   36.1040   29.7340   32.0850 C   0  0  0  0  0  0  0  0  0  0  0  0
   36.8310   28.5690   32.0780 C   0  0  0  0  0  3  0  0  0  0  0  0
   38.6210   24.5180   34.6090 C   0  0  0  0  0  0  0  0  0  0  0  0
   39.5610   24.2300   34.0870 H   0  0  0  0  0  0  0  0  0  0  0  0
   37.7410   23.9550   34.1880 H   0  0  0  0  0  0  0  0  0  0  0  0
   39.7780   22.8520   37.7470 C   0  0  0  0  0  0  0  0  0  0  0  0
   39.7080   23.2360   36.3850 C   0  0  0  0  0  0  0  0  0  0  0  0
   38.7000   24.1120   36.0310 C   0  0  0  0  0  0  0  0  0  0  0  0
   37.8360   24.5640   36.9660 N   0  0  0  0  0  0  0  0  0  0  0  0
   37.9420   24.1680   38.2630 C   0  0  0  0  0  0  0  0  0  0  0  0
   38.9200   23.3100   38.6390 N   0  0  0  0  0  0  0  0  0  0  0  0
   40.5790   22.1590   38.0120 H   0  0  0  0  0  0  0  0  0  0  0  0
   40.4310   22.8430   35.6630 H   0  0  0  0  0  0  0  0  0  0  0  0
   37.2530   24.5230   39.0280 H   0  0  0  0  0  0  0  0  0  0  0  0
  1 20  1  0  0  0  0
  1  4  1  1  0  0  0
  2  6  1  0  0  0  0
  2  1  1  0  0  0  0
  3  7  1  6  0  0  0
  3  2  1  0  0  0  0
  3  1  1  0  0  0  0
  5  2  1  0  0  0  0
  8  3  1  0  0  0  0
  8  9  1  0  0  0  0
  9 11  2  0  0  0  0
  9 10  1  0  0  0  0
 12 11  1  0  0  0  0
 13 12  1  0  0  0  0
 14 13  2  0  0  0  0
 15 14  1  0  0  0  0
 16 17  2  0  0  0  0
 16 14  1  0  0  0  0
 17 18  1  0  0  0  0
 18 12  2  0  0  0  0
 19 18  1  0  0  0  0
 19  8  2  0  0  0  0
 20 25  1  0  0  0  0
 21 20  1  0  0  0  0
 22 20  1  0  0  0  0
 23 29  1  0  0  0  0
 23 28  1  0  0  0  0
 24 23  2  0  0  0  0
 25 24  1  0  0  0  0
 25 26  2  0  0  0  0
 26 27  1  0  0  0  0
 27 28  2  0  0  0  0
 27 31  1  0  0  0  0
 30 24  1  0  0  0  0
M  END
>  <minimizedAffinity>
-5.18960333

$$$$

 OpenBabel03262520453D

 31 34  0  0  1  0  0  0  0  0999 V2000
   36.9020   28.5830   31.8030 C   0  0  1  0  0  0  0  0  0  0  0  0
   36.6410   29.9340   31.1280 C   0  0  0  0  0  0  0  0  0  0  0  0
   35.5430   29.1290   31.7540 C   0  0  2  0  0  0  0  0  0  0  0  0
   37.4620   28.6230   32.7790 H   0  0  0  0  0  0  0  0  0  0  0  0
   36.7080   30.0230   30.0450 H   0  0  0  0  0  0  0  0  0  0  0  0
   36.9380   30.8250   31.7100 H   0  0  0  0  0  0  0  0  0  0  0  0
   34.8530   28.6770   31.0110 H   0  0  0  0  0  0  0  0  0  0  0  0
   34.8440   29.6560   32.9450 C   0  0  0  0  0  0  0  0  0  0  0  0
   33.4990   29.3870   33.1640 C   0  0  0  0  0  0  0  0  0  0  0  0
   32.9240   28.7900   32.4790 H   0  0  0  0  0  0  0  0  0  0  0  0
   32.8230   29.8690   34.2730 C   0  0  0  0  0  3  0  0  0  0  0  0
   33.4720   30.6430   35.2120 C   0  0  0  0  0  0  0  0  0  0  0  0
   32.8880   31.1450   36.3090 N   0  0  0  0  0  0  0  0  0  0  0  0
   33.5800   31.8950   37.1860 C   0  0  0  0  0  0  0  0  0  0  0  0
   33.0890   32.3000   38.0790 H   0  0  0  0  0  0  0  0  0  0  0  0
   34.9300   32.2050   37.0300 C   0  0  0  0  0  3  0  0  0  0  0  0
   35.5410   31.6860   35.8930 C   0  0  0  0  0  3  0  0  0  0  0  0
   34.8010   30.9170   35.0090 C   0  0  0  0  0  0  0  0  0  0  0  0
   35.4600   30.4340   33.9050 C   0  0  0  0  0  3  0  0  0  0  0  0
   37.3830   27.5340   30.8630 C   0  0  0  0  0  0  0  0  0  0  0  0
   38.4950   27.5430   30.8530 H   0  0  0  0  0  0  0  0  0  0  0  0
   36.9710   27.7480   29.8370 H   0  0  0  0  0  0  0  0  0  0  0  0
   35.1710   24.5340   31.1230 C   0  0  0  0  0  0  0  0  0  0  0  0
   35.6260   25.8350   30.7940 C   0  0  0  0  0  0  0  0  0  0  0  0
   36.9010   26.1760   31.2030 C   0  0  0  0  0  0  0  0  0  0  0  0
   37.6550   25.2850   31.8840 N   0  0  0  0  0  0  0  0  0  0  0  0
   37.1760   24.0460   32.1770 C   0  0  0  0  0  0  0  0  0  0  0  0
   35.9300   23.6840   31.7880 N   0  0  0  0  0  0  0  0  0  0  0  0
   34.1620   24.2790   30.7930 H   0  0  0  0  0  0  0  0  0  0  0  0
   34.9790   26.5220   30.2400 H   0  0  0  0  0  0  0  0  0  0  0  0
   37.7710   23.3180   32.7250 H   0  0  0  0  0  0  0  0  0  0  0  0
  1  4  1  1  0  0  0
  2  6  1  0  0  0  0
  2  3  1  0  0  0  0
  2  1  1  0  0  0  0
  3  7  1  6  0  0  0
  3  1  1  0  0  0  0
  3  8  1  0  0  0  0
  5  2  1  0  0  0  0
  8  9  2  0  0  0  0
  8 19  1  0  0  0  0
  9 11  1  0  0  0  0
 10  9  1  0  0  0  0
 11 12  2  0  0  0  0
 12 13  1  0  0  0  0
 13 14  2  0  0  0  0
 14 15  1  0  0  0  0
 16 14  1  0  0  0  0
 17 16  2  0  0  0  0
 18 12  1  0  0  0  0
 18 17  1  0  0  0  0
 19 18  2  0  0  0  0
 20 25  1  0  0  0  0
 20  1  1  0  0  0  0
 21 20  1  0  0  0  0
 22 20  1  0  0  0  0
 23 28  1  0  0  0  0
 24 23  2  0  0  0  0
 24 25  1  0  0  0  0
 25 26  2  0  0  0  0
 26 27  1  0  0  0  0
 27 31  1  0  0  0  0
 28 27  2  0  0  0  0
 29 23  1  0  0  0  0
 30 24  1  0  0  0  0
M  END
>  <minimizedAffinity>
-5.1528945

$$$$

 OpenBabel03262520453D

 31 34  0  0  1  0  0  0  0  0999 V2000
   35.7400   28.7230   33.1950 C   0  0  1  0  0  0  0  0  0  0  0  0
   35.9340   27.7030   32.0670 C   0  0  0  0  0  0  0  0  0  0  0  0
   37.0240   28.0340   33.0420 C   0  0  2  0  0  0  0  0  0  0  0  0
   35.0560   28.4050   34.0300 H   0  0  0  0  0  0  0  0  0  0  0  0
   36.0020   28.0410   31.0350 H   0  0  0  0  0  0  0  0  0  0  0  0
   35.4660   26.7160   32.2280 H   0  0  0  0  0  0  0  0  0  0  0  0
   37.8520   28.6200   32.5920 H   0  0  0  0  0  0  0  0  0  0  0  0
   37.4970   26.9960   33.9820 C   0  0  0  0  0  0  0  0  0  0  0  0
   37.8550   27.3180   35.2850 C   0  0  0  0  0  0  0  0  0  0  0  0
   37.8010   28.3280   35.6510 H   0  0  0  0  0  0  0  0  0  0  0  0
   38.3000   26.3640   36.1840 C   0  0  0  0  0  3  0  0  0  0  0  0
   38.4020   25.0390   35.8120 C   0  0  0  0  0  0  0  0  0  0  0  0
   38.8230   24.0590   36.6230 N   0  0  0  0  0  0  0  0  0  0  0  0
   38.9010   22.7850   36.1950 C   0  0  0  0  0  0  0  0  0  0  0  0
   39.2480   21.9930   36.8690 H   0  0  0  0  0  0  0  0  0  0  0  0
   38.5580   22.3890   34.9030 C   0  0  0  0  0  3  0  0  0  0  0  0
   38.1210   23.4030   34.0570 C   0  0  0  0  0  3  0  0  0  0  0  0
   38.0520   24.7060   34.5280 C   0  0  0  0  0  0  0  0  0  0  0  0
   37.6130   25.6620   33.6460 C   0  0  0  0  0  3  0  0  0  0  0  0
   35.5070   30.1090   32.7070 C   0  0  0  0  0  0  0  0  0  0  0  0
   34.4690   30.1830   32.3130 H   0  0  0  0  0  0  0  0  0  0  0  0
   36.2590   30.3430   31.9010 H   0  0  0  0  0  0  0  0  0  0  0  0
   35.8100   31.7350   36.0570 C   0  0  0  0  0  0  0  0  0  0  0  0
   35.6090   30.7430   35.0660 C   0  0  0  0  0  0  0  0  0  0  0  0
   35.7160   31.1410   33.7480 C   0  0  0  0  0  0  0  0  0  0  0  0
   36.0010   32.4280   33.4510 N   0  0  0  0  0  0  0  0  0  0  0  0
   36.1850   33.3470   34.4360 C   0  0  0  0  0  0  0  0  0  0  0  0
   36.0870   32.9850   35.7370 N   0  0  0  0  0  0  0  0  0  0  0  0
   35.7220   31.4050   37.0950 H   0  0  0  0  0  0  0  0  0  0  0  0
   35.3810   29.7120   35.3560 H   0  0  0  0  0  0  0  0  0  0  0  0
   36.4150   34.3880   34.2130 H   0  0  0  0  0  0  0  0  0  0  0  0
  1  4  1  1  0  0  0
  2  6  1  0  0  0  0
  2  3  1  0  0  0  0
  2  1  1  0  0  0  0
  3  7  1  6  0  0  0
  3  1  1  0  0  0  0
  3  8  1  0  0  0  0
  5  2  1  0  0  0  0
  8  9  1  0  0  0  0
  9 10  1  0  0  0  0
  9 11  2  0  0  0  0
 12 11  1  0  0  0  0
 12 13  1  0  0  0  0
 14 13  2  0  0  0  0
 14 15  1  0  0  0  0
 16 14  1  0  0  0  0
 17 18  1  0  0  0  0
 17 16  2  0  0  0  0
 18 12  2  0  0  0  0
 19  8  2  0  0  0  0
 19 18  1  0  0  0  0
 20  1  1  0  0  0  0
 20 25  1  0  0  0  0
 21 20  1  0  0  0  0
 22 20  1  0  0  0  0
 23 29  1  0  0  0  0
 24 30  1  0  0  0  0
 24 23  2  0  0  0  0
 25 24  1  0  0  0  0
 26 25  2  0  0  0  0
 26 27  1  0  0  0  0
 27 28  2  0  0  0  0
 28 23  1  0  0  0  0
 31 27  1  0  0  0  0
M  END
>  <minimizedAffinity>
-5.10155773

$$$$

 OpenBabel03262520453D

 31 34  0  0  1  0  0  0  0  0999 V2000
   35.5280   29.3770   33.4750 C   0  0  1  0  0  0  0  0  0  0  0  0
   35.2190   29.2160   31.9830 C   0  0  0  0  0  0  0  0  0  0  0  0
   36.5040   28.7390   32.5870 C   0  0  2  0  0  0  0  0  0  0  0  0
   34.9310   28.7270   34.1720 H   0  0  0  0  0  0  0  0  0  0  0  0
   35.2090   30.0880   31.3320 H   0  0  0  0  0  0  0  0  0  0  0  0
   34.5110   28.4080   31.7250 H   0  0  0  0  0  0  0  0  0  0  0  0
   37.3820   29.3510   32.2920 H   0  0  0  0  0  0  0  0  0  0  0  0
   36.7970   27.2910   32.6230 C   0  0  0  0  0  0  0  0  0  0  0  0
   37.8380   26.7880   33.3930 C   0  0  0  0  0  0  0  0  0  0  0  0
   38.4620   27.4320   33.9860 H   0  0  0  0  0  0  0  0  0  0  0  0
   38.1310   25.4360   33.4430 C   0  0  0  0  0  3  0  0  0  0  0  0
   37.3870   24.5270   32.7190 C   0  0  0  0  0  0  0  0  0  0  0  0
   37.6080   23.2040   32.7160 N   0  0  0  0  0  0  0  0  0  0  0  0
   36.8430   22.3720   31.9850 C   0  0  0  0  0  0  0  0  0  0  0  0
   37.0360   21.2930   31.9910 H   0  0  0  0  0  0  0  0  0  0  0  0
   35.7840   22.8050   31.1900 C   0  0  0  0  0  3  0  0  0  0  0  0
   35.5510   24.1770   31.1900 C   0  0  0  0  0  3  0  0  0  0  0  0
   36.3560   25.0080   31.9530 C   0  0  0  0  0  0  0  0  0  0  0  0
   36.0760   26.3520   31.9120 C   0  0  0  0  0  3  0  0  0  0  0  0
   35.6410   30.7970   33.9060 C   0  0  0  0  0  0  0  0  0  0  0  0
   35.3320   31.4550   33.0640 H   0  0  0  0  0  0  0  0  0  0  0  0
   36.7060   31.0030   34.2070 H   0  0  0  0  0  0  0  0  0  0  0  0
   34.6010   32.2630   37.1820 C   0  0  0  0  0  0  0  0  0  0  0  0
   35.3830   31.9650   36.0390 C   0  0  0  0  0  0  0  0  0  0  0  0
   34.8290   31.1120   35.1040 C   0  0  0  0  0  0  0  0  0  0  0  0
   33.5930   30.6030   35.3010 N   0  0  0  0  0  0  0  0  0  0  0  0
   32.8790   30.9170   36.4150 C   0  0  0  0  0  0  0  0  0  0  0  0
   33.3960   31.7500   37.3480 N   0  0  0  0  0  0  0  0  0  0  0  0
   35.0520   32.9380   37.9120 H   0  0  0  0  0  0  0  0  0  0  0  0
   36.3800   32.4030   35.9230 H   0  0  0  0  0  0  0  0  0  0  0  0
   31.8820   30.5140   36.5880 H   0  0  0  0  0  0  0  0  0  0  0  0
  1 20  1  0  0  0  0
  1  4  1  1  0  0  0
  2  3  1  0  0  0  0
  2  1  1  0  0  0  0
  3  7  1  6  0  0  0
  3  8  1  0  0  0  0
  3  1  1  0  0  0  0
  5  2  1  0  0  0  0
  6  2  1  0  0  0  0
  8  9  1  0  0  0  0
  9 11  2  0  0  0  0
  9 10  1  0  0  0  0
 12 11  1  0  0  0  0
 13 12  1  0  0  0  0
 14 15  1  0  0  0  0
 14 13  2  0  0  0  0
 16 14  1  0  0  0  0
 17 16  2  0  0  0  0
 17 18  1  0  0  0  0
 18 12  2  0  0  0  0
 19 18  1  0  0  0  0
 19  8  2  0  0  0  0
 20 22  1  0  0  0  0
 20 25  1  0  0  0  0
 21 20  1  0  0  0  0
 23 28  1  0  0  0  0
 23 29  1  0  0  0  0
 24 23  2  0  0  0  0
 25 26  2  0  0  0  0
 25 24  1  0  0  0  0
 26 27  1  0  0  0  0
 27 31  1  0  0  0  0
 27 28  2  0  0  0  0
 30 24  1  0  0  0  0
M  END
>  <minimizedAffinity>
-5.09612846

$$$$
