
 OpenBabel03272501583D

 34 37  0  0  0  0  0  0  0  0999 V2000
   32.8830   28.2730   47.8610 C   0  0  0  0  0  0  0  0  0  0  0  0
   32.0600   27.5720   48.7030 C   0  0  0  0  0  0  0  0  0  0  0  0
   30.7460   27.6590   48.2710 C   0  0  0  0  0  0  0  0  0  0  0  0
   30.8150   28.4200   47.1630 N   0  0  0  0  0  0  0  0  0  0  0  0
   32.0590   28.7830   46.9140 N   0  0  0  0  0  0  0  0  0  0  0  0
   32.3110   27.0040   49.6020 H   0  0  0  0  0  0  0  0  0  0  0  0
   29.8010   27.2690   48.6280 H   0  0  0  0  0  0  0  0  0  0  0  0
   29.8420   28.8930   46.2380 C   0  0  0  0  0  0  0  0  0  0  0  0
   29.9850   30.0640   45.5240 C   0  0  0  0  0  0  0  0  0  0  0  0
   30.8730   30.6440   45.6760 H   0  0  0  0  0  0  0  0  0  0  0  0
   28.9590   30.4090   44.6530 C   0  0  0  0  0  3  0  0  0  0  0  0
   27.8460   29.6150   44.5090 C   0  0  0  0  0  0  0  0  0  0  0  0
   26.8790   29.9840   43.6580 N   0  0  0  0  0  0  0  0  0  0  0  0
   25.7760   29.2180   43.5000 C   0  0  0  0  0  0  0  0  0  0  0  0
   25.0000   29.5490   42.7930 H   0  0  0  0  0  0  0  0  0  0  0  0
   25.6030   28.0370   44.2010 C   0  0  0  0  0  3  0  0  0  0  0  0
   26.5820   27.6340   45.0820 C   0  0  0  0  0  3  0  0  0  0  0  0
   27.6900   28.4400   45.2160 C   0  0  0  0  0  0  0  0  0  0  0  0
   28.7180   28.0960   46.0860 C   0  0  0  0  0  3  0  0  0  0  0  0
   34.3770   28.4080   48.0080 C   0  0  0  0  0  0  0  0  0  0  0  0
   34.8980   27.6030   47.4390 H   0  0  0  0  0  0  0  0  0  0  0  0
   34.6250   29.3950   47.5700 H   0  0  0  0  0  0  0  0  0  0  0  0
   34.6820   28.2850   49.4640 C   0  0  0  0  0  0  0  0  0  0  0  0
   34.9050   27.2400   49.7600 H   0  0  0  0  0  0  0  0  0  0  0  0
   33.8360   28.6410   50.0840 H   0  0  0  0  0  0  0  0  0  0  0  0
   37.2360   30.1600   51.3980 C   0  0  0  0  0  0  0  0  0  0  0  0
   38.0450   30.6890   50.3720 C   0  0  0  0  0  0  0  0  0  0  0  0
   37.7080   30.3990   49.0310 C   0  0  0  0  0  0  0  0  0  0  0  0
   36.6200   29.6240   48.7950 N   0  0  0  0  0  0  0  0  0  0  0  0
   35.8670   29.1340   49.8130 C   0  0  0  0  0  0  0  0  0  0  0  0
   36.1780   29.4010   51.0730 N   0  0  0  0  0  0  0  0  0  0  0  0
   37.4880   30.3760   52.4260 H   0  0  0  0  0  0  0  0  0  0  0  0
   38.8990   31.2960   50.5500 H   0  0  0  0  0  0  0  0  0  0  0  0
   38.2750   30.7650   48.1860 H   0  0  0  0  0  0  0  0  0  0  0  0
  1 20  1  0  0  0  0
  1  2  1  0  0  0  0
  2  6  1  0  0  0  0
  3  7  1  0  0  0  0
  3  2  2  0  0  0  0
  4  3  1  0  0  0  0
  5  4  1  0  0  0  0
  5  1  2  0  0  0  0
  8  4  1  0  0  0  0
  9 10  1  0  0  0  0
  9  8  2  0  0  0  0
 11  9  1  0  0  0  0
 12 11  2  0  0  0  0
 12 18  1  0  0  0  0
 13 12  1  0  0  0  0
 14 13  2  0  0  0  0
 14 16  1  0  0  0  0
 15 14  1  0  0  0  0
 16 17  2  0  0  0  0
 17 18  1  0  0  0  0
 18 19  2  0  0  0  0
 19  8  1  0  0  0  0
 20 23  1  0  0  0  0
 21 20  1  0  0  0  0
 22 20  1  0  0  0  0
 23 24  1  0  0  0  0
 23 30  1  0  0  0  0
 23 25  1  0  0  0  0
 26 32  1  0  0  0  0
 27 33  1  0  0  0  0
 27 26  2  0  0  0  0
 28 27  1  0  0  0  0
 29 28  2  0  0  0  0
 29 30  1  0  0  0  0
 30 31  2  0  0  0  0
 31 26  1  0  0  0  0
 34 28  1  0  0  0  0
M  END
>  <minimizedAffinity>
-5.42683983

>  <minimizedRMSD>
0.677062213

$$$$
