
 OpenBabel03272500453D

 28 31  0  0  0  0  0  0  0  0999 V2000
   34.1530   28.0800   47.1510 C   0  0  0  0  0  0  0  0  0  0  0  0
   34.2350   28.7490   45.9240 C   0  0  0  0  0  0  0  0  0  0  0  0
   35.0580   29.8650   46.1110 C   0  0  0  0  0  0  0  0  0  0  0  0
   35.4470   29.8430   47.4220 N   0  0  0  0  0  0  0  0  0  0  0  0
   34.9000   28.7940   47.9870 N   0  0  0  0  0  0  0  0  0  0  0  0
   33.7820   28.5250   44.9480 H   0  0  0  0  0  0  0  0  0  0  0  0
   35.3470   30.6140   45.3790 H   0  0  0  0  0  0  0  0  0  0  0  0
   36.3040   30.8050   48.0640 C   0  0  0  0  0  0  0  0  0  0  0  0
   36.1340   31.1620   49.3840 C   0  0  0  0  0  0  0  0  0  0  0  0
   35.3330   30.7090   49.9620 H   0  0  0  0  0  0  0  0  0  0  0  0
   36.9830   32.1000   49.9860 C   0  0  0  0  0  0  0  0  0  0  0  0
   37.9910   32.6420   49.1860 C   0  0  0  0  0  0  0  0  0  0  0  0
   38.8070   33.5430   49.7590 N   0  0  0  0  0  0  0  0  0  0  0  0
   39.7950   34.0930   49.0320 C   0  0  0  0  0  0  0  0  0  0  0  0
   40.4040   34.8090   49.5740 H   0  0  0  0  0  0  0  0  0  0  0  0
   40.0670   33.8190   47.7030 C   0  0  0  0  0  0  0  0  0  0  0  0
   39.2180   32.8970   47.1470 C   0  0  0  0  0  0  0  0  0  0  0  0
   38.1850   32.2980   47.8500 C   0  0  0  0  0  0  0  0  0  0  0  0
   37.3210   31.3700   47.3100 C   0  0  0  0  0  0  0  0  0  0  0  0
   32.1360   26.8340   47.9480 C   0  0  0  0  0  0  0  0  0  0  0  0
   33.3850   26.8780   47.3360 C   0  0  0  0  0  0  0  0  0  0  0  0
   33.9130   25.6590   46.8730 C   0  0  0  0  0  0  0  0  0  0  0  0
   33.1700   24.5230   47.0560 N   0  0  0  0  0  0  0  0  0  0  0  0
   31.9600   24.5430   47.6590 C   0  0  0  0  0  0  0  0  0  0  0  0
   31.4380   25.7120   48.1110 N   0  0  0  0  0  0  0  0  0  0  0  0
   31.7090   27.7460   48.3100 H   0  0  0  0  0  0  0  0  0  0  0  0
   34.8790   25.5750   46.3790 H   0  0  0  0  0  0  0  0  0  0  0  0
   31.3850   23.6290   47.7940 H   0  0  0  0  0  0  0  0  0  0  0  0
  1 21  1  0  0  0  0
  1  5  2  0  0  0  0
  2  3  2  0  0  0  0
  2  1  1  0  0  0  0
  3  4  1  0  0  0  0
  4  5  1  0  0  0  0
  4  8  1  0  0  0  0
  6  2  1  0  0  0  0
  7  3  1  0  0  0  0
  8  9  1  0  0  0  0
  9 10  1  0  0  0  0
  9 11  2  0  0  0  0
 12 13  1  0  0  0  0
 12 11  1  0  0  0  0
 14 15  1  0  0  0  0
 14 13  2  0  0  0  0
 16 14  1  0  0  0  0
 17 16  2  0  0  0  0
 17 18  1  0  0  0  0
 18 12  2  0  0  0  0
 19 18  1  0  0  0  0
 19  8  2  0  0  0  0
 20 25  1  0  0  0  0
 20 26  1  0  0  0  0
 21 20  2  0  0  0  0
 22 23  2  0  0  0  0
 22 21  1  0  0  0  0
 23 24  1  0  0  0  0
 24 28  1  0  0  0  0
 24 25  2  0  0  0  0
 27 22  1  0  0  0  0
M  END
>  <minimizedAffinity>
-5.14611244

>  <minimizedRMSD>
5.95048952

$$$$
