
 OpenBabel03272510023D

 24 26  0  0  0  0  0  0  0  0999 V2000
   38.3160   31.2090   50.3630 C   0  0  0  0  0  0  0  0  0  0  0  0
   38.4640   31.4920   48.9970 C   0  0  0  0  0  0  0  0  0  0  0  0
   37.4760   31.0510   48.1290 C   0  0  0  0  0  0  0  0  0  0  0  0
   36.4260   30.3720   48.6490 N   0  0  0  0  0  0  0  0  0  0  0  0
   36.3090   30.1130   49.9740 C   0  0  0  0  0  0  0  0  0  0  0  0
   37.2490   30.5280   50.8300 N   0  0  0  0  0  0  0  0  0  0  0  0
   39.0950   31.5650   50.9990 H   0  0  0  0  0  0  0  0  0  0  0  0
   39.3100   32.0360   48.6010 H   0  0  0  0  0  0  0  0  0  0  0  0
   37.4960   31.2680   46.7090 C   0  0  0  0  0  0  0  0  0  0  0  0
   38.3180   32.2410   46.1970 C   0  0  0  0  0  0  0  0  0  0  0  0
   38.9510   32.8470   46.8280 H   0  0  0  0  0  0  0  0  0  0  0  0
   38.4130   32.5320   44.8430 C   0  0  0  0  0  3  0  0  0  0  0  0
   37.6200   31.7820   43.9690 C   0  0  0  0  0  0  0  0  0  0  0  0
   37.7320   32.0870   42.6530 N   0  0  0  0  0  0  0  0  0  0  0  0
   36.9650   31.3650   41.7900 C   0  0  0  0  0  0  0  0  0  0  0  0
   36.9340   31.4820   40.7040 H   0  0  0  0  0  0  0  0  0  0  0  0
   36.1120   30.3680   42.2360 C   0  0  0  0  0  3  0  0  0  0  0  0
   36.0060   30.0680   43.5800 C   0  0  0  0  0  3  0  0  0  0  0  0
   36.7890   30.8060   44.4440 C   0  0  0  0  0  0  0  0  0  0  0  0
   36.7380   30.5630   45.7990 C   0  0  0  0  0  3  0  0  0  0  0  0
   35.1150   29.3610   50.4160 C   0  0  0  0  0  0  0  0  0  0  0  0
   35.1520   29.0610   51.7690 F   0  0  0  0  0  0  0  0  0  0  0  0
   33.9450   30.0750   50.2120 F   0  0  0  0  0  0  0  0  0  0  0  0
   34.9560   28.1540   49.7600 F   0  0  0  0  0  0  0  0  0  0  0  0
  1  6  1  0  0  0  0
  1  7  1  0  0  0  0
  2  1  2  0  0  0  0
  3  4  2  0  0  0  0
  3  2  1  0  0  0  0
  4  5  1  0  0  0  0
  5 21  1  0  0  0  0
  5  6  2  0  0  0  0
  8  2  1  0  0  0  0
  9  3  1  0  0  0  0
 10  9  1  0  0  0  0
 10 11  1  0  0  0  0
 12 10  2  0  0  0  0
 13 19  1  0  0  0  0
 13 12  1  0  0  0  0
 14 13  2  0  0  0  0
 15 17  2  0  0  0  0
 15 14  1  0  0  0  0
 16 15  1  0  0  0  0
 17 18  1  0  0  0  0
 18 19  2  0  0  0  0
 19 20  1  0  0  0  0
 20  9  2  0  0  0  0
 21 22  1  0  0  0  0
 23 21  1  0  0  0  0
 24 21  1  0  0  0  0
M  END
>  <minimizedAffinity>
-5.96502256

>  <minimizedRMSD>
0.788469374

$$$$
