
 OpenBabel03272503203D

 38 42  0  0  0  0  0  0  0  0999 V2000
   38.3440   32.5760   49.6540 C   0  0  0  0  0  0  0  0  0  0  0  0
   38.9290   32.8930   48.4090 C   0  0  0  0  0  0  0  0  0  0  0  0
   38.3490   32.2850   47.2730 C   0  0  0  0  0  0  0  0  0  0  0  0
   37.3050   31.4630   47.4140 N   0  0  0  0  0  0  0  0  0  0  0  0
   36.7770   31.1870   48.6150 C   0  0  0  0  0  0  0  0  0  0  0  0
   37.3010   31.7470   49.7300 N   0  0  0  0  0  0  0  0  0  0  0  0
   38.8290   33.0700   50.5020 H   0  0  0  0  0  0  0  0  0  0  0  0
   39.7630   33.5460   48.2620 H   0  0  0  0  0  0  0  0  0  0  0  0
   35.6360   30.2840   48.7350 C   0  0  0  0  0  0  0  0  0  0  0  0
   35.0930   30.0400   49.9790 C   0  0  0  0  0  0  0  0  0  0  0  0
   35.4770   30.4960   50.8960 H   0  0  0  0  0  0  0  0  0  0  0  0
   34.0110   29.1840   50.0900 C   0  0  0  0  0  0  0  0  0  0  0  0
   33.4530   28.5590   48.9890 C   0  0  0  0  0  0  0  0  0  0  0  0
   32.4030   27.7210   49.0560 N   0  0  0  0  0  0  0  0  0  0  0  0
   31.9010   27.1410   47.9570 C   0  0  0  0  0  0  0  0  0  0  0  0
   31.0450   26.4640   48.0540 H   0  0  0  0  0  0  0  0  0  0  0  0
   32.4410   27.3790   46.6980 C   0  0  0  0  0  0  0  0  0  0  0  0
   33.5190   28.2330   46.5890 C   0  0  0  0  0  0  0  0  0  0  0  0
   34.0170   28.8190   47.7460 C   0  0  0  0  0  0  0  0  0  0  0  0
   35.1060   29.6780   47.6160 C   0  0  0  0  0  0  0  0  0  0  0  0
   38.8770   32.5500   45.9300 C   0  0  0  0  0  0  0  0  0  0  0  0
   39.9860   33.1670   45.5200 C   0  0  0  0  0  0  0  0  0  0  0  0
   40.2620   33.2900   44.2070 C   0  0  0  0  0  0  0  0  0  0  0  0
   39.3380   32.7480   43.3340 C   0  0  0  0  0  0  0  0  0  0  0  0
   38.0680   32.0590   44.4550 S   0  0  0  0  0  0  0  0  0  0  0  0
   40.6650   33.5670   46.2900 H   0  0  0  0  0  0  0  0  0  0  0  0
   41.1220   33.7650   43.7540 H   0  0  0  0  0  0  0  0  0  0  0  0
   40.5990   30.2830   42.0700 Cl  0  0  0  0  0  0  0  0  0  0  0  0
   39.8130   31.6020   41.2560 C   0  0  0  0  0  0  0  0  0  0  0  0
   39.2690   32.6770   41.8910 C   0  0  0  0  0  0  0  0  0  0  0  0
   38.6440   33.7290   41.2900 C   0  0  0  0  0  0  0  0  0  0  0  0
   38.5370   33.7350   39.9020 C   0  0  0  0  0  0  0  0  0  0  0  0
   39.0620   32.6850   39.2030 C   0  0  0  0  0  0  0  0  0  0  0  0
   38.9670   32.6180   37.4520 Cl  0  0  0  0  0  0  0  0  0  0  0  0
   39.7010   31.6150   39.8630 C   0  0  0  0  0  0  0  0  0  0  0  0
   38.2200   34.5740   41.8240 H   0  0  0  0  0  0  0  0  0  0  0  0
   38.0490   34.5520   39.3870 H   0  0  0  0  0  0  0  0  0  0  0  0
   40.1170   30.7790   39.3000 H   0  0  0  0  0  0  0  0  0  0  0  0
  1  6  1  0  0  0  0
  1  7  1  0  0  0  0
  2  1  2  0  0  0  0
  3  4  2  0  0  0  0
  3  2  1  0  0  0  0
  4  5  1  0  0  0  0
  5  9  1  0  0  0  0
  5  6  2  0  0  0  0
  8  2  1  0  0  0  0
  9 10  1  0  0  0  0
 10 12  2  0  0  0  0
 10 11  1  0  0  0  0
 13 14  1  0  0  0  0
 13 12  1  0  0  0  0
 15 16  1  0  0  0  0
 15 14  2  0  0  0  0
 17 15  1  0  0  0  0
 18 17  2  0  0  0  0
 18 19  1  0  0  0  0
 19 13  2  0  0  0  0
 20 19  1  0  0  0  0
 20  9  2  0  0  0  0
 21  3  1  0  0  0  0
 22 21  2  0  0  0  0
 22 26  1  0  0  0  0
 23 22  1  0  0  0  0
 24 23  2  0  0  0  0
 24 25  1  0  0  0  0
 25 21  1  0  0  0  0
 27 23  1  0  0  0  0
 29 30  1  0  0  0  0
 29 28  1  0  0  0  0
 30 24  1  0  0  0  0
 31 36  1  0  0  0  0
 31 30  2  0  0  0  0
 32 31  1  0  0  0  0
 33 35  1  0  0  0  0
 33 32  2  0  0  0  0
 34 33  1  0  0  0  0
 35 29  2  0  0  0  0
 37 32  1  0  0  0  0
 38 35  1  0  0  0  0
M  END
>  <minimizedAffinity>
-7.35557318

>  <minimizedRMSD>
2.95430446

$$$$
