
 OpenBabel03272503133D

 49 54  0  0  0  0  0  0  0  0999 V2000
   39.1960   32.2230   42.5770 C   0  0  0  0  0  0  0  0  0  0  0  0
   39.7180   31.4950   43.6330 C   0  0  0  0  0  0  0  0  0  0  0  0
   40.5900   30.4670   43.4680 C   0  0  0  0  0  0  0  0  0  0  0  0
   41.0000   30.1040   42.1890 C   0  0  0  0  0  0  0  0  0  0  0  0
   41.8250   29.1620   41.7380 N   0  0  0  0  0  0  0  0  0  0  0  0
   41.8490   29.2660   40.4040 C   0  0  0  0  0  0  0  0  0  0  0  0
   41.0410   30.2700   40.0210 N   0  0  0  0  0  0  0  0  0  0  0  0
   40.4820   30.8280   41.1290 C   0  0  0  0  0  0  0  0  0  0  0  0
   39.5910   31.8790   41.2750 C   0  0  0  0  0  0  0  0  0  0  0  0
   38.5120   33.0290   42.7070 H   0  0  0  0  0  0  0  0  0  0  0  0
   40.9800   29.9180   44.3090 H   0  0  0  0  0  0  0  0  0  0  0  0
   42.3760   28.4510   42.2730 H   0  0  0  0  0  0  0  0  0  0  0  0
   42.3590   28.7310   39.6340 H   0  0  0  0  0  0  0  0  0  0  0  0
   39.2610   31.9100   44.9460 C   0  0  0  0  0  0  0  0  0  0  0  0
   38.1760   32.5640   45.0690 O   0  0  0  0  0  0  0  0  0  0  0  0
   39.9590   31.6350   46.1650 N   0  0  0  0  0  0  0  0  0  0  0  0
   40.8340   31.1090   46.1150 H   0  0  0  0  0  0  0  0  0  0  0  0
   38.1240   30.1470   47.5010 F   0  0  0  0  0  0  0  0  0  0  0  0
   38.3830   31.4010   47.9900 C   0  0  0  0  0  0  0  0  0  0  0  0
   37.7170   31.8310   49.1030 C   0  0  0  0  0  0  0  0  0  0  0  0
   38.0180   33.0890   49.5440 C   0  0  0  0  0  0  0  0  0  0  0  0
   38.9330   33.8970   48.9200 C   0  0  0  0  0  0  0  0  0  0  0  0
   39.5970   33.4360   47.7890 C   0  0  0  0  0  0  0  0  0  0  0  0
   39.3020   32.1590   47.3280 C   0  0  0  0  0  0  0  0  0  0  0  0
   37.4970   33.4550   50.4330 H   0  0  0  0  0  0  0  0  0  0  0  0
   39.1780   34.8810   49.2510 H   0  0  0  0  0  0  0  0  0  0  0  0
   40.3400   33.9750   47.2070 H   0  0  0  0  0  0  0  0  0  0  0  0
   36.0730   29.3570   51.4470 C   0  0  0  0  0  0  0  0  0  0  0  0
   37.0440   30.2140   50.8690 C   0  0  0  0  0  0  0  0  0  0  0  0
   36.7510   30.9370   49.7330 C   0  0  0  0  0  0  0  0  0  0  0  0
   35.4910   30.7840   49.1980 N   0  0  0  0  0  0  0  0  0  0  0  0
   34.5810   29.9670   49.7580 C   0  0  0  0  0  0  0  0  0  0  0  0
   34.8670   29.2720   50.8560 N   0  0  0  0  0  0  0  0  0  0  0  0
   36.2930   28.7870   52.3380 H   0  0  0  0  0  0  0  0  0  0  0  0
   38.0240   30.3080   51.3190 H   0  0  0  0  0  0  0  0  0  0  0  0
   33.6560   29.9900   49.1880 H   0  0  0  0  0  0  0  0  0  0  0  0
   39.0820   32.5930   40.2150 O   0  0  0  0  0  0  0  0  0  0  0  0
   38.0490   32.2380   39.3970 C   0  0  0  0  0  0  0  0  0  0  0  0
   36.9960   31.4820   39.9120 C   0  0  0  0  0  0  0  0  0  0  0  0
   36.9990   31.1740   40.9660 H   0  0  0  0  0  0  0  0  0  0  0  0
   35.9310   31.0960   39.1350 C   0  0  0  0  0  3  0  0  0  0  0  0
   35.8520   31.4410   37.8010 C   0  0  0  0  0  0  0  0  0  0  0  0
   34.8380   31.0910   37.0020 N   0  0  0  0  0  0  0  0  0  0  0  0
   34.7680   31.4290   35.7070 C   0  0  0  0  0  0  0  0  0  0  0  0
   33.9340   31.1390   35.0610 H   0  0  0  0  0  0  0  0  0  0  0  0
   35.7730   32.1840   35.1070 C   0  0  0  0  0  3  0  0  0  0  0  0
   36.8350   32.5580   35.9160 C   0  0  0  0  0  3  0  0  0  0  0  0
   36.8850   32.1980   37.2420 C   0  0  0  0  0  0  0  0  0  0  0  0
   37.9330   32.5570   38.0780 C   0  0  0  0  0  3  0  0  0  0  0  0
  1 10  1  0  0  0  0
  1  2  1  0  0  0  0
  2 14  1  0  0  0  0
  3  2  2  0  0  0  0
  3 11  1  0  0  0  0
  4  3  1  0  0  0  0
  5  4  1  0  0  0  0
  5 12  1  0  0  0  0
  6  5  1  0  0  0  0
  7  6  2  0  0  0  0
  7  8  1  0  0  0  0
  8  9  1  0  0  0  0
  8  4  2  0  0  0  0
  9  1  2  0  0  0  0
 13  6  1  0  0  0  0
 14 15  2  0  0  0  0
 14 16  1  0  0  0  0
 16 24  1  0  0  0  0
 17 16  1  0  0  0  0
 18 19  1  0  0  0  0
 19 20  1  0  0  0  0
 20 21  2  0  0  0  0
 20 30  1  0  0  0  0
 21 25  1  0  0  0  0
 22 26  1  0  0  0  0
 22 21  1  0  0  0  0
 23 22  2  0  0  0  0
 24 23  1  0  0  0  0
 24 19  2  0  0  0  0
 27 23  1  0  0  0  0
 28 34  1  0  0  0  0
 29 35  1  0  0  0  0
 29 28  1  0  0  0  0
 30 29  2  0  0  0  0
 31 30  1  0  0  0  0
 31 32  2  0  0  0  0
 32 33  1  0  0  0  0
 33 28  2  0  0  0  0
 36 32  1  0  0  0  0
 37  9  1  0  0  0  0
 38 39  1  0  0  0  0
 38 37  1  0  0  0  0
 39 40  1  0  0  0  0
 41 39  2  0  0  0  0
 42 41  1  0  0  0  0
 43 42  2  0  0  0  0
 44 43  1  0  0  0  0
 45 44  1  0  0  0  0
 46 44  2  0  0  0  0
 46 47  1  0  0  0  0
 47 48  2  0  0  0  0
 48 42  1  0  0  0  0
 48 49  1  0  0  0  0
 49 38  2  0  0  0  0
M  END
>  <minimizedAffinity>
-7.02187443

>  <minimizedRMSD>
0.570165932

$$$$
