
 OpenBabel03272508063D

 38 42  0  0  0  0  0  0  0  0999 V2000
   38.9160   30.8990   45.7740 C   0  0  0  0  0  0  0  0  0  0  0  0
   40.1110   31.5260   46.0350 C   0  0  0  0  0  0  0  0  0  0  0  0
   40.9440   31.4700   44.9230 C   0  0  0  0  0  0  0  0  0  0  0  0
   40.2050   30.7970   44.0150 N   0  0  0  0  0  0  0  0  0  0  0  0
   39.0220   30.4630   44.5080 N   0  0  0  0  0  0  0  0  0  0  0  0
   40.4080   32.0120   46.9640 H   0  0  0  0  0  0  0  0  0  0  0  0
   41.9280   31.8360   44.7490 H   0  0  0  0  0  0  0  0  0  0  0  0
   37.7970   30.7520   46.6830 C   0  0  0  0  0  0  0  0  0  0  0  0
   38.0110   30.9830   48.0630 C   0  0  0  0  0  0  0  0  0  0  0  0
   36.9160   30.8350   48.9120 C   0  0  0  0  0  0  0  0  0  0  0  0
   35.7220   30.4830   48.3870 N   0  0  0  0  0  0  0  0  0  0  0  0
   35.5420   30.2690   47.0640 C   0  0  0  0  0  0  0  0  0  0  0  0
   36.5850   30.4050   46.2210 N   0  0  0  0  0  0  0  0  0  0  0  0
   38.9850   31.2650   48.4560 H   0  0  0  0  0  0  0  0  0  0  0  0
   34.5580   29.9890   46.7050 H   0  0  0  0  0  0  0  0  0  0  0  0
   37.1230   31.0740   50.3710 C   0  0  0  0  0  0  0  0  0  0  0  0
   36.6000   32.3210   50.6260 F   0  0  0  0  0  0  0  0  0  0  0  0
   36.4620   30.1340   51.1550 F   0  0  0  0  0  0  0  0  0  0  0  0
   38.4750   31.0670   50.7090 F   0  0  0  0  0  0  0  0  0  0  0  0
   40.5540   30.4300   42.6420 C   0  0  0  0  0  0  0  0  0  0  0  0
   40.1770   31.2070   41.5380 C   0  0  0  0  0  0  0  0  0  0  0  0
   40.5120   30.8430   40.2950 C   0  0  0  0  0  0  0  0  0  0  0  0
   41.2590   29.6520   40.1170 C   0  0  0  0  0  0  0  0  0  0  0  0
   41.4640   29.0610   41.8560 S   0  0  0  0  0  0  0  0  0  0  0  0
   39.5960   32.1390   41.6520 H   0  0  0  0  0  0  0  0  0  0  0  0
   40.3190   31.2990   39.3450 H   0  0  0  0  0  0  0  0  0  0  0  0
   41.8070   28.9250   38.9930 C   0  0  0  0  0  0  0  0  0  0  0  0
   40.9470   28.6020   37.9700 C   0  0  0  0  0  0  0  0  0  0  0  0
   39.9000   28.8500   37.9430 H   0  0  0  0  0  0  0  0  0  0  0  0
   41.5270   27.9000   36.9070 C   0  0  0  0  0  0  0  0  0  0  0  0
   42.8880   27.5730   36.9330 C   0  0  0  0  0  0  0  0  0  0  0  0
   43.4440   26.8920   35.8970 N   0  0  0  0  0  0  0  0  0  0  0  0
   44.7490   26.5700   35.9060 C   0  0  0  0  0  0  0  0  0  0  0  0
   45.1040   26.0290   35.0440 H   0  0  0  0  0  0  0  0  0  0  0  0
   45.6060   26.8990   36.9390 C   0  0  0  0  0  0  0  0  0  0  0  0
   45.0390   27.6010   38.0070 C   0  0  0  0  0  0  0  0  0  0  0  0
   43.7000   27.9380   38.0130 C   0  0  0  0  0  0  0  0  0  0  0  0
   43.1480   28.6360   39.0810 C   0  0  0  0  0  0  0  0  0  0  0  0
  1  2  1  0  0  0  0
  1  8  1  0  0  0  0
  2  6  1  0  0  0  0
  3  2  2  0  0  0  0
  4  5  1  0  0  0  0
  4  3  1  0  0  0  0
  5  1  2  0  0  0  0
  7  3  1  0  0  0  0
  8  9  1  0  0  0  0
  9 14  1  0  0  0  0
  9 10  2  0  0  0  0
 10 16  1  0  0  0  0
 11 10  1  0  0  0  0
 12 11  2  0  0  0  0
 13  8  2  0  0  0  0
 13 12  1  0  0  0  0
 15 12  1  0  0  0  0
 16 17  1  0  0  0  0
 16 19  1  0  0  0  0
 16 18  1  0  0  0  0
 20  4  1  0  0  0  0
 21 25  1  0  0  0  0
 21 20  2  0  0  0  0
 22 21  1  0  0  0  0
 23 22  2  0  0  0  0
 23 24  1  0  0  0  0
 24 20  1  0  0  0  0
 26 22  1  0  0  0  0
 27 38  1  0  0  0  0
 27 23  1  0  0  0  0
 28 27  2  0  0  0  0
 29 28  1  0  0  0  0
 30 31  2  0  0  0  0
 30 28  1  0  0  0  0
 31 37  1  0  0  0  0
 32 33  2  0  0  0  0
 32 31  1  0  0  0  0
 33 35  1  0  0  0  0
 34 33  1  0  0  0  0
 35 36  2  0  0  0  0
 36 37  1  0  0  0  0
 37 38  2  0  0  0  0
M  END
>  <minimizedAffinity>
-6.5958519

>  <minimizedRMSD>
0.743698299

$$$$
