
 OpenBabel03272507563D

 26 28  0  0  0  0  0  0  0  0999 V2000
   40.1880   22.4010   37.5410 C   0  0  0  0  0  0  0  0  0  0  0  0
   39.2800   23.4410   37.2120 C   0  0  0  0  0  0  0  0  0  0  0  0
   39.5400   24.2330   36.1050 C   0  0  0  0  0  0  0  0  0  0  0  0
   40.6830   23.9610   35.3760 N   0  0  0  0  0  0  0  0  0  0  0  0
   41.5240   22.9690   35.7120 C   0  0  0  0  0  0  0  0  0  0  0  0
   41.2850   22.2020   36.7720 N   0  0  0  0  0  0  0  0  0  0  0  0
   42.6330   22.8320   34.8470 N   0  0  0  0  0  0  0  0  0  0  0  0
   39.9460   21.8120   38.4090 H   0  0  0  0  0  0  0  0  0  0  0  0
   43.5990   22.5880   35.2120 H   0  0  0  0  0  0  0  0  0  0  0  0
   42.5960   22.9560   33.8220 H   0  0  0  0  0  0  0  0  0  0  0  0
   38.7810   25.3670   35.6290 C   0  0  0  0  0  0  0  0  0  0  0  0
   38.5190   26.6490   36.0250 C   0  0  0  0  0  0  0  0  0  0  0  0
   38.9180   26.9020   36.9780 H   0  0  0  0  0  0  0  0  0  0  0  0
   37.7750   27.5390   35.2950 C   0  0  0  0  0  3  0  0  0  0  0  0
   37.2150   27.2100   34.0800 C   0  0  0  0  0  0  0  0  0  0  0  0
   36.5140   28.1520   33.4650 N   0  0  0  0  0  0  0  0  0  0  0  0
   35.9370   27.8810   32.2590 C   0  0  0  0  0  0  0  0  0  0  0  0
   35.3450   28.5810   31.6740 H   0  0  0  0  0  0  0  0  0  0  0  0
   36.1350   26.6080   31.7600 C   0  0  0  0  0  3  0  0  0  0  0  0
   36.8710   25.6300   32.4140 C   0  0  0  0  0  3  0  0  0  0  0  0
   37.4450   25.9280   33.6320 C   0  0  0  0  0  0  0  0  0  0  0  0
   38.2020   25.0490   34.3890 C   0  0  0  0  0  3  0  0  0  0  0  0
   38.0900   23.6570   38.0770 C   0  0  0  0  0  0  0  0  0  0  0  0
   38.1490   24.8700   38.7490 F   0  0  0  0  0  0  0  0  0  0  0  0
   36.9730   23.6250   37.3000 F   0  0  0  0  0  0  0  0  0  0  0  0
   37.9650   22.6710   39.0450 F   0  0  0  0  0  0  0  0  0  0  0  0
  1  8  1  0  0  0  0
  2  1  1  0  0  0  0
  2 23  1  0  0  0  0
  3  2  2  0  0  0  0
  4  5  2  0  0  0  0
  4  3  1  0  0  0  0
  5  6  1  0  0  0  0
  6  1  2  0  0  0  0
  7  9  1  0  0  0  0
  7  5  1  0  0  0  0
 10  7  1  0  0  0  0
 11 12  1  0  0  0  0
 11  3  1  0  0  0  0
 12 13  1  0  0  0  0
 14 12  2  0  0  0  0
 15 14  1  0  0  0  0
 16 15  2  0  0  0  0
 17 16  1  0  0  0  0
 18 17  1  0  0  0  0
 19 17  2  0  0  0  0
 19 20  1  0  0  0  0
 20 21  2  0  0  0  0
 21 15  1  0  0  0  0
 21 22  1  0  0  0  0
 22 11  2  0  0  0  0
 23 24  1  0  0  0  0
 23 26  1  0  0  0  0
 25 23  1  0  0  0  0
M  END
>  <minimizedAffinity>
-6.06443262

$$$$

 OpenBabel03272507563D

 26 28  0  0  0  0  0  0  0  0999 V2000
   37.2360   26.8090   33.5380 C   0  0  0  0  0  0  0  0  0  0  0  0
   37.9930   26.2140   34.5800 C   0  0  0  0  0  0  0  0  0  0  0  0
   38.2200   24.8480   34.5500 C   0  0  0  0  0  0  0  0  0  0  0  0
   37.6880   24.1330   33.4920 N   0  0  0  0  0  0  0  0  0  0  0  0
   36.9750   24.7240   32.5190 C   0  0  0  0  0  0  0  0  0  0  0  0
   36.7520   26.0340   32.5380 N   0  0  0  0  0  0  0  0  0  0  0  0
   36.5210   23.8380   31.5150 N   0  0  0  0  0  0  0  0  0  0  0  0
   37.0850   27.8720   33.6030 H   0  0  0  0  0  0  0  0  0  0  0  0
   35.5630   23.9440   31.0710 H   0  0  0  0  0  0  0  0  0  0  0  0
   37.0650   23.0420   31.1450 H   0  0  0  0  0  0  0  0  0  0  0  0
   38.9130   24.0420   35.5290 C   0  0  0  0  0  0  0  0  0  0  0  0
   38.7330   23.6440   36.8240 C   0  0  0  0  0  0  0  0  0  0  0  0
   37.8860   24.0770   37.3010 H   0  0  0  0  0  0  0  0  0  0  0  0
   39.5770   22.7930   37.4880 C   0  0  0  0  0  3  0  0  0  0  0  0
   40.7010   22.2590   36.8970 C   0  0  0  0  0  0  0  0  0  0  0  0
   41.4450   21.4490   37.6370 N   0  0  0  0  0  0  0  0  0  0  0  0
   42.5690   20.8920   37.1030 C   0  0  0  0  0  0  0  0  0  0  0  0
   43.2440   20.2170   37.6230 H   0  0  0  0  0  0  0  0  0  0  0  0
   42.8530   21.2280   35.7930 C   0  0  0  0  0  3  0  0  0  0  0  0
   42.0660   22.0780   35.0280 C   0  0  0  0  0  3  0  0  0  0  0  0
   40.9340   22.6280   35.5910 C   0  0  0  0  0  0  0  0  0  0  0  0
   40.0640   23.4890   34.9430 C   0  0  0  0  0  3  0  0  0  0  0  0
   38.5020   27.0750   35.6810 C   0  0  0  0  0  0  0  0  0  0  0  0
   39.8860   27.1710   35.6690 F   0  0  0  0  0  0  0  0  0  0  0  0
   37.9610   28.3170   35.5500 F   0  0  0  0  0  0  0  0  0  0  0  0
   38.1480   26.5840   36.9300 F   0  0  0  0  0  0  0  0  0  0  0  0
  1  8  1  0  0  0  0
  1  2  1  0  0  0  0
  2 23  1  0  0  0  0
  3  2  2  0  0  0  0
  3 11  1  0  0  0  0
  4  3  1  0  0  0  0
  5  6  1  0  0  0  0
  5  4  2  0  0  0  0
  6  1  2  0  0  0  0
  7  5  1  0  0  0  0
  9  7  1  0  0  0  0
 10  7  1  0  0  0  0
 11 12  1  0  0  0  0
 12 13  1  0  0  0  0
 12 14  2  0  0  0  0
 15 14  1  0  0  0  0
 15 16  1  0  0  0  0
 17 18  1  0  0  0  0
 17 16  2  0  0  0  0
 19 17  1  0  0  0  0
 20 21  1  0  0  0  0
 20 19  2  0  0  0  0
 21 15  2  0  0  0  0
 22 11  2  0  0  0  0
 22 21  1  0  0  0  0
 23 26  1  0  0  0  0
 24 23  1  0  0  0  0
 25 23  1  0  0  0  0
M  END
>  <minimizedAffinity>
-5.74434233

$$$$

 OpenBabel03272507563D

 26 28  0  0  0  0  0  0  0  0999 V2000
   41.3940   22.8780   36.5670 C   0  0  0  0  0  0  0  0  0  0  0  0
   40.8840   23.8010   35.6170 C   0  0  0  0  0  0  0  0  0  0  0  0
   39.5990   24.2900   35.7800 C   0  0  0  0  0  0  0  0  0  0  0  0
   38.8770   23.8450   36.8740 N   0  0  0  0  0  0  0  0  0  0  0  0
   39.3860   22.9710   37.7560 C   0  0  0  0  0  0  0  0  0  0  0  0
   40.6190   22.4950   37.6100 N   0  0  0  0  0  0  0  0  0  0  0  0
   38.5100   22.6390   38.8140 N   0  0  0  0  0  0  0  0  0  0  0  0
   42.3970   22.5250   36.4000 H   0  0  0  0  0  0  0  0  0  0  0  0
   38.4550   21.6530   39.2040 H   0  0  0  0  0  0  0  0  0  0  0  0
   37.8720   23.3060   39.2790 H   0  0  0  0  0  0  0  0  0  0  0  0
   38.8740   25.1880   34.9100 C   0  0  0  0  0  0  0  0  0  0  0  0
   38.7700   26.5360   34.7050 C   0  0  0  0  0  0  0  0  0  0  0  0
   39.3130   27.1270   35.4030 H   0  0  0  0  0  0  0  0  0  0  0  0
   38.0060   27.1040   33.7190 C   0  0  0  0  0  3  0  0  0  0  0  0
   37.2640   26.3520   32.8360 C   0  0  0  0  0  0  0  0  0  0  0  0
   36.5620   27.0100   31.9240 N   0  0  0  0  0  0  0  0  0  0  0  0
   35.8080   26.3160   31.0250 C   0  0  0  0  0  0  0  0  0  0  0  0
   35.2000   26.7580   30.2400 H   0  0  0  0  0  0  0  0  0  0  0  0
   35.8360   24.9390   31.1390 C   0  0  0  0  0  3  0  0  0  0  0  0
   36.5740   24.2610   32.0990 C   0  0  0  0  0  3  0  0  0  0  0  0
   37.3290   24.9850   32.9970 C   0  0  0  0  0  0  0  0  0  0  0  0
   38.1090   24.4370   34.0010 C   0  0  0  0  0  3  0  0  0  0  0  0
   41.7400   24.1970   34.4680 C   0  0  0  0  0  0  0  0  0  0  0  0
   41.9240   25.5710   34.4050 F   0  0  0  0  0  0  0  0  0  0  0  0
   42.9490   23.5840   34.5910 F   0  0  0  0  0  0  0  0  0  0  0  0
   41.1890   23.8130   33.2530 F   0  0  0  0  0  0  0  0  0  0  0  0
  1  6  1  0  0  0  0
  2  3  1  0  0  0  0
  2  1  2  0  0  0  0
  3  4  2  0  0  0  0
  4  5  1  0  0  0  0
  5  7  1  0  0  0  0
  6  5  2  0  0  0  0
  7  9  1  0  0  0  0
  7 10  1  0  0  0  0
  8  1  1  0  0  0  0
 11  3  1  0  0  0  0
 12 11  1  0  0  0  0
 12 13  1  0  0  0  0
 14 12  2  0  0  0  0
 15 21  1  0  0  0  0
 15 14  1  0  0  0  0
 16 15  2  0  0  0  0
 17 19  2  0  0  0  0
 17 16  1  0  0  0  0
 18 17  1  0  0  0  0
 19 20  1  0  0  0  0
 20 21  2  0  0  0  0
 21 22  1  0  0  0  0
 22 11  2  0  0  0  0
 23 25  1  0  0  0  0
 23  2  1  0  0  0  0
 24 23  1  0  0  0  0
 26 23  1  0  0  0  0
M  END
>  <minimizedAffinity>
-5.50946712

$$$$

 OpenBabel03272507563D

 26 28  0  0  0  0  0  0  0  0999 V2000
   33.3910   31.5960   37.1110 C   0  0  0  0  0  0  0  0  0  0  0  0
   34.2600   31.4010   36.0060 C   0  0  0  0  0  0  0  0  0  0  0  0
   33.9550   30.4190   35.0780 C   0  0  0  0  0  0  0  0  0  0  0  0
   32.8070   29.6760   35.2840 N   0  0  0  0  0  0  0  0  0  0  0  0
   32.0030   29.8840   36.3390 C   0  0  0  0  0  0  0  0  0  0  0  0
   32.2850   30.8240   37.2360 N   0  0  0  0  0  0  0  0  0  0  0  0
   30.8710   29.0390   36.3800 N   0  0  0  0  0  0  0  0  0  0  0  0
   33.6680   32.3690   37.8060 H   0  0  0  0  0  0  0  0  0  0  0  0
   30.5030   28.6430   37.2940 H   0  0  0  0  0  0  0  0  0  0  0  0
   30.3270   28.7450   35.5520 H   0  0  0  0  0  0  0  0  0  0  0  0
   34.7250   30.0230   33.9210 C   0  0  0  0  0  0  0  0  0  0  0  0
   34.8680   30.4130   32.6180 C   0  0  0  0  0  0  0  0  0  0  0  0
   34.1980   31.1820   32.3150 H   0  0  0  0  0  0  0  0  0  0  0  0
   35.7620   29.8510   31.7440 C   0  0  0  0  0  3  0  0  0  0  0  0
   36.6050   28.8260   32.1100 C   0  0  0  0  0  0  0  0  0  0  0  0
   37.4270   28.3590   31.1800 N   0  0  0  0  0  0  0  0  0  0  0  0
   38.2840   27.3440   31.4870 C   0  0  0  0  0  0  0  0  0  0  0  0
   38.9960   26.8930   30.8000 H   0  0  0  0  0  0  0  0  0  0  0  0
   38.2250   26.8660   32.7830 C   0  0  0  0  0  3  0  0  0  0  0  0
   37.3600   27.3630   33.7480 C   0  0  0  0  0  3  0  0  0  0  0  0
   36.5030   28.3900   33.4130 C   0  0  0  0  0  0  0  0  0  0  0  0
   35.5920   28.9760   34.2760 C   0  0  0  0  0  3  0  0  0  0  0  0
   35.4790   32.2440   35.8920 C   0  0  0  0  0  0  0  0  0  0  0  0
   35.5600   32.8790   34.6610 F   0  0  0  0  0  0  0  0  0  0  0  0
   35.4590   33.1780   36.8820 F   0  0  0  0  0  0  0  0  0  0  0  0
   36.6420   31.4980   36.0330 F   0  0  0  0  0  0  0  0  0  0  0  0
  1  6  1  0  0  0  0
  1  8  1  0  0  0  0
  2  1  2  0  0  0  0
  3  4  2  0  0  0  0
  3  2  1  0  0  0  0
  4  5  1  0  0  0  0
  5  7  1  0  0  0  0
  5  6  2  0  0  0  0
  7  9  1  0  0  0  0
 10  7  1  0  0  0  0
 11 22  1  0  0  0  0
 11  3  1  0  0  0  0
 12 11  2  0  0  0  0
 13 12  1  0  0  0  0
 14 15  2  0  0  0  0
 14 12  1  0  0  0  0
 15 21  1  0  0  0  0
 16 17  2  0  0  0  0
 16 15  1  0  0  0  0
 17 19  1  0  0  0  0
 18 17  1  0  0  0  0
 19 20  2  0  0  0  0
 21 20  1  0  0  0  0
 21 22  2  0  0  0  0
 23  2  1  0  0  0  0
 23 26  1  0  0  0  0
 23 25  1  0  0  0  0
 24 23  1  0  0  0  0
M  END
>  <minimizedAffinity>
-5.49112225

$$$$

 OpenBabel03272507563D

 26 28  0  0  0  0  0  0  0  0999 V2000
   33.2730   31.5450   35.9620 C   0  0  0  0  0  0  0  0  0  0  0  0
   34.4450   31.0350   35.3470 C   0  0  0  0  0  0  0  0  0  0  0  0
   34.3350   29.9600   34.4800 C   0  0  0  0  0  0  0  0  0  0  0  0
   33.0720   29.4390   34.2610 N   0  0  0  0  0  0  0  0  0  0  0  0
   31.9800   29.9430   34.8580 C   0  0  0  0  0  0  0  0  0  0  0  0
   32.0740   30.9750   35.6910 N   0  0  0  0  0  0  0  0  0  0  0  0
   30.7760   29.2910   34.5070 N   0  0  0  0  0  0  0  0  0  0  0  0
   33.4060   32.3800   36.6270 H   0  0  0  0  0  0  0  0  0  0  0  0
   30.0070   29.1200   35.2190 H   0  0  0  0  0  0  0  0  0  0  0  0
   30.5530   28.9390   33.5620 H   0  0  0  0  0  0  0  0  0  0  0  0
   35.3980   29.2600   33.7950 C   0  0  0  0  0  0  0  0  0  0  0  0
   36.2660   28.2360   34.0520 C   0  0  0  0  0  0  0  0  0  0  0  0
   36.2190   27.8610   35.0470 H   0  0  0  0  0  0  0  0  0  0  0  0
   37.1600   27.7410   33.1370 C   0  0  0  0  0  3  0  0  0  0  0  0
   37.2620   28.2460   31.8600 C   0  0  0  0  0  0  0  0  0  0  0  0
   38.1630   27.6900   31.0620 N   0  0  0  0  0  0  0  0  0  0  0  0
   38.3080   28.1500   29.7870 C   0  0  0  0  0  0  0  0  0  0  0  0
   39.0140   27.7640   29.0560 H   0  0  0  0  0  0  0  0  0  0  0  0
   37.4790   29.1920   29.4160 C   0  0  0  0  0  3  0  0  0  0  0  0
   36.5390   29.7660   30.2610 C   0  0  0  0  0  3  0  0  0  0  0  0
   36.4120   29.2830   31.5460 C   0  0  0  0  0  0  0  0  0  0  0  0
   35.5180   29.7630   32.4880 C   0  0  0  0  0  3  0  0  0  0  0  0
   35.7560   31.6590   35.6680 C   0  0  0  0  0  0  0  0  0  0  0  0
   36.3000   32.3190   34.5750 F   0  0  0  0  0  0  0  0  0  0  0  0
   35.5810   32.5430   36.6880 F   0  0  0  0  0  0  0  0  0  0  0  0
   36.6930   30.7200   36.0730 F   0  0  0  0  0  0  0  0  0  0  0  0
  1  8  1  0  0  0  0
  2 23  1  0  0  0  0
  2  1  2  0  0  0  0
  3  2  1  0  0  0  0
  4  3  2  0  0  0  0
  4  5  1  0  0  0  0
  5  6  2  0  0  0  0
  6  1  1  0  0  0  0
  7  5  1  0  0  0  0
  7  9  1  0  0  0  0
 10  7  1  0  0  0  0
 11 12  1  0  0  0  0
 11  3  1  0  0  0  0
 12 13  1  0  0  0  0
 14 12  2  0  0  0  0
 15 14  1  0  0  0  0
 16 15  2  0  0  0  0
 17 16  1  0  0  0  0
 18 17  1  0  0  0  0
 19 17  2  0  0  0  0
 19 20  1  0  0  0  0
 20 21  2  0  0  0  0
 21 15  1  0  0  0  0
 21 22  1  0  0  0  0
 22 11  2  0  0  0  0
 23 26  1  0  0  0  0
 23 25  1  0  0  0  0
 24 23  1  0  0  0  0
M  END
>  <minimizedAffinity>
-5.42556572

$$$$

 OpenBabel03272507563D

 26 28  0  0  0  0  0  0  0  0999 V2000
   35.4490   24.8890   31.0780 C   0  0  0  0  0  0  0  0  0  0  0  0
   36.3420   24.0150   31.7510 C   0  0  0  0  0  0  0  0  0  0  0  0
   37.3080   24.5540   32.5840 C   0  0  0  0  0  0  0  0  0  0  0  0
   37.3480   25.9300   32.7140 N   0  0  0  0  0  0  0  0  0  0  0  0
   36.4890   26.7330   32.0650 C   0  0  0  0  0  0  0  0  0  0  0  0
   35.5570   26.2260   31.2630 N   0  0  0  0  0  0  0  0  0  0  0  0
   36.6720   28.1090   32.3270 N   0  0  0  0  0  0  0  0  0  0  0  0
   34.7160   24.4260   30.4420 H   0  0  0  0  0  0  0  0  0  0  0  0
   36.5600   28.8420   31.5660 H   0  0  0  0  0  0  0  0  0  0  0  0
   36.9230   28.5030   33.2480 H   0  0  0  0  0  0  0  0  0  0  0  0
   38.3400   23.8530   33.3150 C   0  0  0  0  0  0  0  0  0  0  0  0
   39.5000   23.1840   33.0400 C   0  0  0  0  0  0  0  0  0  0  0  0
   39.7050   23.0730   32.0020 H   0  0  0  0  0  0  0  0  0  0  0  0
   40.3250   22.6560   33.9990 C   0  0  0  0  0  3  0  0  0  0  0  0
   40.0490   22.7540   35.3440 C   0  0  0  0  0  0  0  0  0  0  0  0
   40.9190   22.2040   36.1800 N   0  0  0  0  0  0  0  0  0  0  0  0
   40.6960   22.2710   37.5240 C   0  0  0  0  0  0  0  0  0  0  0  0
   41.3450   21.8550   38.2900 H   0  0  0  0  0  0  0  0  0  0  0  0
   39.5450   22.9260   37.9200 C   0  0  0  0  0  3  0  0  0  0  0  0
   38.6410   23.4980   37.0350 C   0  0  0  0  0  3  0  0  0  0  0  0
   38.8890   23.4170   35.6810 C   0  0  0  0  0  0  0  0  0  0  0  0
   38.0740   23.9420   34.6920 C   0  0  0  0  0  3  0  0  0  0  0  0
   36.2220   22.5500   31.5240 C   0  0  0  0  0  0  0  0  0  0  0  0
   36.0530   21.8520   32.7110 F   0  0  0  0  0  0  0  0  0  0  0  0
   35.1580   22.3200   30.7080 F   0  0  0  0  0  0  0  0  0  0  0  0
   37.3520   22.0260   30.9110 F   0  0  0  0  0  0  0  0  0  0  0  0
  1  6  2  0  0  0  0
  1  2  1  0  0  0  0
  2  3  2  0  0  0  0
  3  4  1  0  0  0  0
  3 11  1  0  0  0  0
  5  7  1  0  0  0  0
  5  4  2  0  0  0  0
  6  5  1  0  0  0  0
  7 10  1  0  0  0  0
  8  1  1  0  0  0  0
  9  7  1  0  0  0  0
 11 22  1  0  0  0  0
 12 11  2  0  0  0  0
 12 14  1  0  0  0  0
 13 12  1  0  0  0  0
 14 15  2  0  0  0  0
 15 21  1  0  0  0  0
 15 16  1  0  0  0  0
 16 17  2  0  0  0  0
 17 19  1  0  0  0  0
 17 18  1  0  0  0  0
 20 19  2  0  0  0  0
 21 20  1  0  0  0  0
 22 21  2  0  0  0  0
 23  2  1  0  0  0  0
 23 24  1  0  0  0  0
 25 23  1  0  0  0  0
 26 23  1  0  0  0  0
M  END
>  <minimizedAffinity>
-5.40603971

$$$$

 OpenBabel03272507563D

 26 28  0  0  0  0  0  0  0  0999 V2000
   38.1940   25.3920   36.3400 C   0  0  0  0  0  0  0  0  0  0  0  0
   38.1480   24.6380   35.1390 C   0  0  0  0  0  0  0  0  0  0  0  0
   38.2010   23.2560   35.2120 C   0  0  0  0  0  0  0  0  0  0  0  0
   38.2950   22.6830   36.4670 N   0  0  0  0  0  0  0  0  0  0  0  0
   38.3350   23.4230   37.5870 C   0  0  0  0  0  0  0  0  0  0  0  0
   38.2860   24.7500   37.5290 N   0  0  0  0  0  0  0  0  0  0  0  0
   38.4220   22.6660   38.7780 N   0  0  0  0  0  0  0  0  0  0  0  0
   38.1510   26.4620   36.2350 H   0  0  0  0  0  0  0  0  0  0  0  0
   39.0160   22.9830   39.5980 H   0  0  0  0  0  0  0  0  0  0  0  0
   37.9310   21.7720   38.9420 H   0  0  0  0  0  0  0  0  0  0  0  0
   38.2210   22.3110   34.1190 C   0  0  0  0  0  0  0  0  0  0  0  0
   39.1210   21.8380   33.2040 C   0  0  0  0  0  0  0  0  0  0  0  0
   40.0680   22.3220   33.2330 H   0  0  0  0  0  0  0  0  0  0  0  0
   38.8400   20.8550   32.2910 C   0  0  0  0  0  3  0  0  0  0  0  0
   37.6050   20.2510   32.2140 C   0  0  0  0  0  0  0  0  0  0  0  0
   37.4490   19.3140   31.2890 N   0  0  0  0  0  0  0  0  0  0  0  0
   36.2460   18.6830   31.1680 C   0  0  0  0  0  0  0  0  0  0  0  0
   36.0160   17.9030   30.4470 H   0  0  0  0  0  0  0  0  0  0  0  0
   35.2560   19.0830   32.0440 C   0  0  0  0  0  3  0  0  0  0  0  0
   35.4310   20.0670   33.0080 C   0  0  0  0  0  3  0  0  0  0  0  0
   36.6570   20.6900   33.1110 C   0  0  0  0  0  0  0  0  0  0  0  0
   36.9660   21.6840   34.0240 C   0  0  0  0  0  3  0  0  0  0  0  0
   38.0650   25.3580   33.8400 C   0  0  0  0  0  0  0  0  0  0  0  0
   39.1830   25.1370   33.0500 F   0  0  0  0  0  0  0  0  0  0  0  0
   36.9530   24.9390   33.1780 F   0  0  0  0  0  0  0  0  0  0  0  0
   37.9660   26.7320   34.0140 F   0  0  0  0  0  0  0  0  0  0  0  0
  1  6  1  0  0  0  0
  2  3  1  0  0  0  0
  2  1  2  0  0  0  0
  3  4  2  0  0  0  0
  4  5  1  0  0  0  0
  5  7  1  0  0  0  0
  6  5  2  0  0  0  0
  7 10  1  0  0  0  0
  7  9  1  0  0  0  0
  8  1  1  0  0  0  0
 11  3  1  0  0  0  0
 12 13  1  0  0  0  0
 12 11  2  0  0  0  0
 14 12  1  0  0  0  0
 15 14  2  0  0  0  0
 15 21  1  0  0  0  0
 16 15  1  0  0  0  0
 17 16  2  0  0  0  0
 17 19  1  0  0  0  0
 18 17  1  0  0  0  0
 19 20  2  0  0  0  0
 20 21  1  0  0  0  0
 21 22  2  0  0  0  0
 22 11  1  0  0  0  0
 23 26  1  0  0  0  0
 23  2  1  0  0  0  0
 24 23  1  0  0  0  0
 25 23  1  0  0  0  0
M  END
>  <minimizedAffinity>
-5.38277483

$$$$

 OpenBabel03272507563D

 26 28  0  0  0  0  0  0  0  0999 V2000
   35.6880   29.5990   31.5580 C   0  0  0  0  0  0  0  0  0  0  0  0
   36.0570   29.0320   32.8060 C   0  0  0  0  0  0  0  0  0  0  0  0
   37.0420   28.0590   32.8360 C   0  0  0  0  0  0  0  0  0  0  0  0
   37.6180   27.6910   31.6330 N   0  0  0  0  0  0  0  0  0  0  0  0
   37.2490   28.2470   30.4670 C   0  0  0  0  0  0  0  0  0  0  0  0
   36.3040   29.1820   30.4260 N   0  0  0  0  0  0  0  0  0  0  0  0
   37.9520   27.7560   29.3440 N   0  0  0  0  0  0  0  0  0  0  0  0
   34.9190   30.3510   31.5830 H   0  0  0  0  0  0  0  0  0  0  0  0
   37.4720   27.5980   28.4100 H   0  0  0  0  0  0  0  0  0  0  0  0
   38.9570   27.5170   29.3390 H   0  0  0  0  0  0  0  0  0  0  0  0
   37.5260   27.3210   33.9810 C   0  0  0  0  0  0  0  0  0  0  0  0
   37.8900   27.5810   35.2730 C   0  0  0  0  0  0  0  0  0  0  0  0
   37.8890   28.6140   35.5280 H   0  0  0  0  0  0  0  0  0  0  0  0
   38.2670   26.6160   36.1710 C   0  0  0  0  0  3  0  0  0  0  0  0
   38.3150   25.2800   35.8410 C   0  0  0  0  0  0  0  0  0  0  0  0
   38.6960   24.4380   36.7900 N   0  0  0  0  0  0  0  0  0  0  0  0
   38.7620   23.1030   36.5190 C   0  0  0  0  0  0  0  0  0  0  0  0
   39.0600   22.3320   37.2250 H   0  0  0  0  0  0  0  0  0  0  0  0
   38.4160   22.7230   35.2360 C   0  0  0  0  0  3  0  0  0  0  0  0
   38.0190   23.6150   34.2500 C   0  0  0  0  0  3  0  0  0  0  0  0
   37.9600   24.9600   34.5490 C   0  0  0  0  0  0  0  0  0  0  0  0
   37.5820   25.9540   33.6620 C   0  0  0  0  0  3  0  0  0  0  0  0
   35.3590   29.4880   34.0370 C   0  0  0  0  0  0  0  0  0  0  0  0
   34.3520   30.4000   33.7580 F   0  0  0  0  0  0  0  0  0  0  0  0
   34.8260   28.4040   34.6640 F   0  0  0  0  0  0  0  0  0  0  0  0
   36.2260   30.1110   34.9250 F   0  0  0  0  0  0  0  0  0  0  0  0
  1  8  1  0  0  0  0
  1  2  1  0  0  0  0
  2  3  2  0  0  0  0
  2 23  1  0  0  0  0
  3 11  1  0  0  0  0
  4  3  1  0  0  0  0
  5  4  2  0  0  0  0
  6  5  1  0  0  0  0
  6  1  2  0  0  0  0
  7  5  1  0  0  0  0
  9  7  1  0  0  0  0
 10  7  1  0  0  0  0
 11 12  1  0  0  0  0
 12 13  1  0  0  0  0
 12 14  2  0  0  0  0
 15 14  1  0  0  0  0
 15 16  1  0  0  0  0
 17 16  2  0  0  0  0
 17 18  1  0  0  0  0
 19 17  1  0  0  0  0
 20 21  1  0  0  0  0
 20 19  2  0  0  0  0
 21 15  2  0  0  0  0
 22 11  2  0  0  0  0
 22 21  1  0  0  0  0
 23 25  1  0  0  0  0
 23 26  1  0  0  0  0
 24 23  1  0  0  0  0
M  END
>  <minimizedAffinity>
-5.37918091

$$$$

 OpenBabel03272507563D

 26 28  0  0  0  0  0  0  0  0999 V2000
   36.8900   27.0890   33.6040 C   0  0  0  0  0  0  0  0  0  0  0  0
   38.0640   26.5930   34.2290 C   0  0  0  0  0  0  0  0  0  0  0  0
   38.8050   25.6160   33.5840 C   0  0  0  0  0  0  0  0  0  0  0  0
   38.3530   25.1750   32.3540 N   0  0  0  0  0  0  0  0  0  0  0  0
   37.2380   25.6630   31.7870 C   0  0  0  0  0  0  0  0  0  0  0  0
   36.5180   26.6010   32.3960 N   0  0  0  0  0  0  0  0  0  0  0  0
   36.9360   25.1020   30.5260 N   0  0  0  0  0  0  0  0  0  0  0  0
   36.3460   27.8460   34.1410 H   0  0  0  0  0  0  0  0  0  0  0  0
   35.9370   24.8930   30.2330 H   0  0  0  0  0  0  0  0  0  0  0  0
   37.6380   24.8560   29.8090 H   0  0  0  0  0  0  0  0  0  0  0  0
   39.9910   24.9440   34.0630 C   0  0  0  0  0  0  0  0  0  0  0  0
   41.3440   25.0220   33.8790 C   0  0  0  0  0  0  0  0  0  0  0  0
   41.6450   25.7230   33.1370 H   0  0  0  0  0  0  0  0  0  0  0  0
   42.2540   24.2480   34.5510 C   0  0  0  0  0  3  0  0  0  0  0  0
   41.8770   23.3070   35.4820 C   0  0  0  0  0  0  0  0  0  0  0  0
   42.8440   22.6150   36.0680 N   0  0  0  0  0  0  0  0  0  0  0  0
   42.5280   21.6700   36.9980 C   0  0  0  0  0  0  0  0  0  0  0  0
   43.2440   21.0520   37.5350 H   0  0  0  0  0  0  0  0  0  0  0  0
   41.1830   21.5020   37.2640 C   0  0  0  0  0  3  0  0  0  0  0  0
   40.1780   22.2320   36.6430 C   0  0  0  0  0  3  0  0  0  0  0  0
   40.5230   23.1820   35.7060 C   0  0  0  0  0  0  0  0  0  0  0  0
   39.6250   23.9780   35.0150 C   0  0  0  0  0  3  0  0  0  0  0  0
   38.4490   27.1260   35.5620 C   0  0  0  0  0  0  0  0  0  0  0  0
   37.8170   28.3280   35.8450 F   0  0  0  0  0  0  0  0  0  0  0  0
   38.1190   26.2080   36.5110 F   0  0  0  0  0  0  0  0  0  0  0  0
   39.8140   27.3610   35.6530 F   0  0  0  0  0  0  0  0  0  0  0  0
  1  8  1  0  0  0  0
  1  2  1  0  0  0  0
  2 23  1  0  0  0  0
  3 11  1  0  0  0  0
  3  2  2  0  0  0  0
  4  3  1  0  0  0  0
  5  4  2  0  0  0  0
  5  6  1  0  0  0  0
  6  1  2  0  0  0  0
  7  5  1  0  0  0  0
  9  7  1  0  0  0  0
 10  7  1  0  0  0  0
 11 22  1  0  0  0  0
 12 11  2  0  0  0  0
 12 14  1  0  0  0  0
 13 12  1  0  0  0  0
 14 15  2  0  0  0  0
 15 21  1  0  0  0  0
 15 16  1  0  0  0  0
 16 17  2  0  0  0  0
 17 19  1  0  0  0  0
 17 18  1  0  0  0  0
 20 19  2  0  0  0  0
 21 20  1  0  0  0  0
 22 21  2  0  0  0  0
 23 26  1  0  0  0  0
 23 24  1  0  0  0  0
 23 25  1  0  0  0  0
M  END
>  <minimizedAffinity>
-5.31763172

$$$$
