
 OpenBabel03272510023D

 24 26  0  0  0  0  0  0  0  0999 V2000
   38.4460   32.6430   49.3570 C   0  0  0  0  0  0  0  0  0  0  0  0
   38.8790   32.6590   48.0220 C   0  0  0  0  0  0  0  0  0  0  0  0
   38.2280   31.8360   47.1160 C   0  0  0  0  0  0  0  0  0  0  0  0
   37.2140   31.0610   47.5710 N   0  0  0  0  0  0  0  0  0  0  0  0
   36.8170   31.0670   48.8660 C   0  0  0  0  0  0  0  0  0  0  0  0
   37.4290   31.8530   49.7580 N   0  0  0  0  0  0  0  0  0  0  0  0
   38.9700   33.2900   50.0240 H   0  0  0  0  0  0  0  0  0  0  0  0
   39.6910   33.2850   47.6790 H   0  0  0  0  0  0  0  0  0  0  0  0
   38.5640   31.7490   45.7220 C   0  0  0  0  0  0  0  0  0  0  0  0
   37.8630   32.5130   44.8230 C   0  0  0  0  0  0  0  0  0  0  0  0
   37.0690   33.1760   45.1300 H   0  0  0  0  0  0  0  0  0  0  0  0
   38.1060   32.5050   43.4550 C   0  0  0  0  0  3  0  0  0  0  0  0
   39.1240   31.6670   42.9890 C   0  0  0  0  0  0  0  0  0  0  0  0
   39.3400   31.6800   41.6510 N   0  0  0  0  0  0  0  0  0  0  0  0
   40.3290   30.8690   41.1830 C   0  0  0  0  0  0  0  0  0  0  0  0
   40.6300   30.7590   40.1380 H   0  0  0  0  0  0  0  0  0  0  0  0
   41.0760   30.0700   42.0340 C   0  0  0  0  0  3  0  0  0  0  0  0
   40.8460   30.0670   43.3960 C   0  0  0  0  0  3  0  0  0  0  0  0
   39.8420   30.8930   43.8570 C   0  0  0  0  0  0  0  0  0  0  0  0
   39.5540   30.9440   45.2040 C   0  0  0  0  0  3  0  0  0  0  0  0
   35.6970   30.1740   49.2360 C   0  0  0  0  0  0  0  0  0  0  0  0
   35.5660   30.0350   50.6090 F   0  0  0  0  0  0  0  0  0  0  0  0
   34.4790   30.6500   48.7790 F   0  0  0  0  0  0  0  0  0  0  0  0
   35.8310   28.8930   48.7330 F   0  0  0  0  0  0  0  0  0  0  0  0
  1  6  1  0  0  0  0
  1  7  1  0  0  0  0
  2  1  2  0  0  0  0
  3  4  2  0  0  0  0
  3  2  1  0  0  0  0
  4  5  1  0  0  0  0
  5 21  1  0  0  0  0
  5  6  2  0  0  0  0
  8  2  1  0  0  0  0
  9  3  1  0  0  0  0
 10 11  1  0  0  0  0
 10  9  2  0  0  0  0
 12 10  1  0  0  0  0
 13 12  2  0  0  0  0
 13 19  1  0  0  0  0
 14 13  1  0  0  0  0
 15 14  2  0  0  0  0
 15 17  1  0  0  0  0
 16 15  1  0  0  0  0
 17 18  2  0  0  0  0
 18 19  1  0  0  0  0
 19 20  2  0  0  0  0
 20  9  1  0  0  0  0
 21 22  1  0  0  0  0
 23 21  1  0  0  0  0
 24 21  1  0  0  0  0
M  END
>  <minimizedAffinity>
-5.81699944

>  <minimizedRMSD>
2.16045809

$$$$
