
 OpenBabel03272510033D

 24 26  0  0  0  0  0  0  0  0999 V2000
   39.1930   22.6690   34.9650 C   0  0  0  0  0  0  0  0  0  0  0  0
   38.7360   23.7440   34.1880 C   0  0  0  0  0  0  0  0  0  0  0  0
   38.1340   24.8100   34.8390 C   0  0  0  0  0  0  0  0  0  0  0  0
   38.0190   24.7520   36.1880 N   0  0  0  0  0  0  0  0  0  0  0  0
   38.4700   23.7000   36.9130 C   0  0  0  0  0  0  0  0  0  0  0  0
   39.0540   22.6610   36.3070 N   0  0  0  0  0  0  0  0  0  0  0  0
   39.6500   21.8680   34.4280 H   0  0  0  0  0  0  0  0  0  0  0  0
   38.8370   23.7710   33.1110 H   0  0  0  0  0  0  0  0  0  0  0  0
   37.6200   25.9740   34.1730 C   0  0  0  0  0  0  0  0  0  0  0  0
   37.0430   26.9680   34.9220 C   0  0  0  0  0  0  0  0  0  0  0  0
   36.9630   26.9030   35.9970 H   0  0  0  0  0  0  0  0  0  0  0  0
   36.5160   28.1330   34.3800 C   0  0  0  0  0  3  0  0  0  0  0  0
   36.5870   28.2810   32.9920 C   0  0  0  0  0  0  0  0  0  0  0  0
   36.0650   29.4270   32.4880 N   0  0  0  0  0  0  0  0  0  0  0  0
   36.1270   29.5860   31.1360 C   0  0  0  0  0  0  0  0  0  0  0  0
   35.7550   30.4450   30.5710 H   0  0  0  0  0  0  0  0  0  0  0  0
   36.6960   28.6230   30.3180 C   0  0  0  0  0  3  0  0  0  0  0  0
   37.2240   27.4610   30.8430 C   0  0  0  0  0  3  0  0  0  0  0  0
   37.1550   27.3110   32.2130 C   0  0  0  0  0  0  0  0  0  0  0  0
   37.6600   26.1770   32.8110 C   0  0  0  0  0  3  0  0  0  0  0  0
   38.2840   23.7570   38.3790 C   0  0  0  0  0  0  0  0  0  0  0  0
   39.4510   23.4690   39.0700 F   0  0  0  0  0  0  0  0  0  0  0  0
   37.8870   25.0140   38.8050 F   0  0  0  0  0  0  0  0  0  0  0  0
   37.3340   22.8670   38.8440 F   0  0  0  0  0  0  0  0  0  0  0  0
  1  6  1  0  0  0  0
  2  3  1  0  0  0  0
  2  1  2  0  0  0  0
  3  4  2  0  0  0  0
  4  5  1  0  0  0  0
  5 21  1  0  0  0  0
  6  5  2  0  0  0  0
  7  1  1  0  0  0  0
  8  2  1  0  0  0  0
  9  3  1  0  0  0  0
  9 10  1  0  0  0  0
 10 11  1  0  0  0  0
 12 10  2  0  0  0  0
 13 12  1  0  0  0  0
 14 13  1  0  0  0  0
 15 14  2  0  0  0  0
 16 15  1  0  0  0  0
 17 18  2  0  0  0  0
 17 15  1  0  0  0  0
 18 19  1  0  0  0  0
 19 20  1  0  0  0  0
 19 13  2  0  0  0  0
 20  9  2  0  0  0  0
 21 23  1  0  0  0  0
 21 24  1  0  0  0  0
 21 22  1  0  0  0  0
M  END
>  <minimizedAffinity>
-6.07298899

$$$$

 OpenBabel03272510033D

 24 26  0  0  0  0  0  0  0  0999 V2000
   39.5160   22.5530   35.2460 C   0  0  0  0  0  0  0  0  0  0  0  0
   39.1240   23.5810   34.3740 C   0  0  0  0  0  0  0  0  0  0  0  0
   38.4510   24.6690   34.9090 C   0  0  0  0  0  0  0  0  0  0  0  0
   38.2090   24.6770   36.2420 N   0  0  0  0  0  0  0  0  0  0  0  0
   38.6000   23.6710   37.0600 C   0  0  0  0  0  0  0  0  0  0  0  0
   39.2500   22.6110   36.5670 N   0  0  0  0  0  0  0  0  0  0  0  0
   40.0310   21.7340   34.7970 H   0  0  0  0  0  0  0  0  0  0  0  0
   39.3270   23.5550   33.3120 H   0  0  0  0  0  0  0  0  0  0  0  0
   37.9910   25.7900   34.1380 C   0  0  0  0  0  0  0  0  0  0  0  0
   38.3820   25.9010   32.8280 C   0  0  0  0  0  0  0  0  0  0  0  0
   39.0250   25.1730   32.3580 H   0  0  0  0  0  0  0  0  0  0  0  0
   37.9960   26.9440   31.9960 C   0  0  0  0  0  3  0  0  0  0  0  0
   37.1620   27.9240   32.5420 C   0  0  0  0  0  0  0  0  0  0  0  0
   36.8000   28.9300   31.7090 N   0  0  0  0  0  0  0  0  0  0  0  0
   35.9870   29.8920   32.2280 C   0  0  0  0  0  0  0  0  0  0  0  0
   35.6040   30.7670   31.6950 H   0  0  0  0  0  0  0  0  0  0  0  0
   35.5520   29.8440   33.5430 C   0  0  0  0  0  3  0  0  0  0  0  0
   35.9290   28.8140   34.3810 C   0  0  0  0  0  3  0  0  0  0  0  0
   36.7520   27.8460   33.8450 C   0  0  0  0  0  0  0  0  0  0  0  0
   37.1700   26.7860   34.6210 C   0  0  0  0  0  3  0  0  0  0  0  0
   38.2740   23.7990   38.4970 C   0  0  0  0  0  0  0  0  0  0  0  0
   37.7850   25.0570   38.8160 F   0  0  0  0  0  0  0  0  0  0  0  0
   37.3000   22.8970   38.8930 F   0  0  0  0  0  0  0  0  0  0  0  0
   39.3620   23.5910   39.3250 F   0  0  0  0  0  0  0  0  0  0  0  0
  1  6  1  0  0  0  0
  2  3  1  0  0  0  0
  2  1  2  0  0  0  0
  3  4  2  0  0  0  0
  4  5  1  0  0  0  0
  5 21  1  0  0  0  0
  6  5  2  0  0  0  0
  7  1  1  0  0  0  0
  8  2  1  0  0  0  0
  9 20  1  0  0  0  0
  9  3  1  0  0  0  0
 10  9  2  0  0  0  0
 11 10  1  0  0  0  0
 12 13  2  0  0  0  0
 12 10  1  0  0  0  0
 13 19  1  0  0  0  0
 14 15  2  0  0  0  0
 14 13  1  0  0  0  0
 15 17  1  0  0  0  0
 16 15  1  0  0  0  0
 17 18  2  0  0  0  0
 19 18  1  0  0  0  0
 19 20  2  0  0  0  0
 21 22  1  0  0  0  0
 21 23  1  0  0  0  0
 21 24  1  0  0  0  0
M  END
>  <minimizedAffinity>
-5.99304819

$$$$

 OpenBabel03272510033D

 24 26  0  0  0  0  0  0  0  0999 V2000
   35.9860   27.7770   31.8690 C   0  0  0  0  0  0  0  0  0  0  0  0
   36.7340   26.7530   32.4720 C   0  0  0  0  0  0  0  0  0  0  0  0
   37.0800   26.8990   33.8070 C   0  0  0  0  0  0  0  0  0  0  0  0
   36.6800   28.0210   34.4520 N   0  0  0  0  0  0  0  0  0  0  0  0
   35.9590   28.9940   33.8440 C   0  0  0  0  0  0  0  0  0  0  0  0
   35.6120   28.8750   32.5570 N   0  0  0  0  0  0  0  0  0  0  0  0
   35.7380   27.6290   30.8420 H   0  0  0  0  0  0  0  0  0  0  0  0
   37.0430   25.8650   31.9400 H   0  0  0  0  0  0  0  0  0  0  0  0
   37.8410   25.9340   34.5510 C   0  0  0  0  0  0  0  0  0  0  0  0
   38.9050   25.3170   33.9450 C   0  0  0  0  0  0  0  0  0  0  0  0
   39.1890   25.5320   32.9260 H   0  0  0  0  0  0  0  0  0  0  0  0
   39.7050   24.3700   34.5730 C   0  0  0  0  0  3  0  0  0  0  0  0
   39.3910   24.0430   35.8950 C   0  0  0  0  0  0  0  0  0  0  0  0
   40.1870   23.1180   36.4840 N   0  0  0  0  0  0  0  0  0  0  0  0
   39.8940   22.7890   37.7740 C   0  0  0  0  0  0  0  0  0  0  0  0
   40.4310   22.0650   38.3920 H   0  0  0  0  0  0  0  0  0  0  0  0
   38.8340   23.3730   38.4480 C   0  0  0  0  0  3  0  0  0  0  0  0
   38.0300   24.3140   37.8370 C   0  0  0  0  0  3  0  0  0  0  0  0
   38.3370   24.6390   36.5310 C   0  0  0  0  0  0  0  0  0  0  0  0
   37.5810   25.5710   35.8540 C   0  0  0  0  0  3  0  0  0  0  0  0
   35.5850   30.1700   34.6580 C   0  0  0  0  0  0  0  0  0  0  0  0
   36.4300   30.3510   35.7430 F   0  0  0  0  0  0  0  0  0  0  0  0
   35.6390   31.3470   33.9290 F   0  0  0  0  0  0  0  0  0  0  0  0
   34.3060   30.0900   35.1790 F   0  0  0  0  0  0  0  0  0  0  0  0
  1  2  2  0  0  0  0
  1  6  1  0  0  0  0
  2  3  1  0  0  0  0
  3  4  2  0  0  0  0
  3  9  1  0  0  0  0
  5  4  1  0  0  0  0
  5 21  1  0  0  0  0
  6  5  2  0  0  0  0
  7  1  1  0  0  0  0
  8  2  1  0  0  0  0
  9 20  1  0  0  0  0
 10  9  2  0  0  0  0
 10 12  1  0  0  0  0
 11 10  1  0  0  0  0
 12 13  2  0  0  0  0
 13 14  1  0  0  0  0
 13 19  1  0  0  0  0
 14 15  2  0  0  0  0
 15 16  1  0  0  0  0
 15 17  1  0  0  0  0
 18 17  2  0  0  0  0
 19 18  1  0  0  0  0
 20 19  2  0  0  0  0
 21 24  1  0  0  0  0
 21 22  1  0  0  0  0
 23 21  1  0  0  0  0
M  END
>  <minimizedAffinity>
-5.80585194

$$$$

 OpenBabel03272510033D

 24 26  0  0  0  0  0  0  0  0999 V2000
   38.2800   23.6980   38.5140 C   0  0  0  0  0  0  0  0  0  0  0  0
   37.7470   24.4880   37.4840 C   0  0  0  0  0  0  0  0  0  0  0  0
   38.4110   24.5070   36.2670 C   0  0  0  0  0  0  0  0  0  0  0  0
   39.5360   23.7630   36.1420 N   0  0  0  0  0  0  0  0  0  0  0  0
   40.0280   23.0090   37.1540 C   0  0  0  0  0  0  0  0  0  0  0  0
   39.4050   22.9750   38.3370 N   0  0  0  0  0  0  0  0  0  0  0  0
   37.7410   23.7090   39.4350 H   0  0  0  0  0  0  0  0  0  0  0  0
   36.8470   25.0750   37.6040 H   0  0  0  0  0  0  0  0  0  0  0  0
   37.9810   25.2690   35.1270 C   0  0  0  0  0  0  0  0  0  0  0  0
   38.2050   24.7670   33.8700 C   0  0  0  0  0  0  0  0  0  0  0  0
   38.6940   23.8180   33.7100 H   0  0  0  0  0  0  0  0  0  0  0  0
   37.8320   25.4220   32.7030 C   0  0  0  0  0  3  0  0  0  0  0  0
   37.1940   26.6580   32.8390 C   0  0  0  0  0  0  0  0  0  0  0  0
   36.8390   27.2740   31.6850 N   0  0  0  0  0  0  0  0  0  0  0  0
   36.2160   28.4810   31.8010 C   0  0  0  0  0  0  0  0  0  0  0  0
   35.8670   29.1070   30.9760 H   0  0  0  0  0  0  0  0  0  0  0  0
   35.9570   29.0470   33.0390 C   0  0  0  0  0  3  0  0  0  0  0  0
   36.3230   28.4090   34.2070 C   0  0  0  0  0  3  0  0  0  0  0  0
   36.9540   27.1890   34.0760 C   0  0  0  0  0  0  0  0  0  0  0  0
   37.3490   26.4910   35.1970 C   0  0  0  0  0  3  0  0  0  0  0  0
   41.2650   22.2430   36.8900 C   0  0  0  0  0  0  0  0  0  0  0  0
   41.4840   21.2530   37.8360 F   0  0  0  0  0  0  0  0  0  0  0  0
   41.2290   21.6010   35.6630 F   0  0  0  0  0  0  0  0  0  0  0  0
   42.4030   23.0270   36.8880 F   0  0  0  0  0  0  0  0  0  0  0  0
  1  7  1  0  0  0  0
  2  8  1  0  0  0  0
  2  1  2  0  0  0  0
  3  2  1  0  0  0  0
  4  3  2  0  0  0  0
  4  5  1  0  0  0  0
  5  6  2  0  0  0  0
  6  1  1  0  0  0  0
  9 20  1  0  0  0  0
  9  3  1  0  0  0  0
 10  9  2  0  0  0  0
 11 10  1  0  0  0  0
 12 13  2  0  0  0  0
 12 10  1  0  0  0  0
 13 19  1  0  0  0  0
 14 15  2  0  0  0  0
 14 13  1  0  0  0  0
 15 17  1  0  0  0  0
 16 15  1  0  0  0  0
 17 18  2  0  0  0  0
 19 18  1  0  0  0  0
 19 20  2  0  0  0  0
 21  5  1  0  0  0  0
 21 22  1  0  0  0  0
 23 21  1  0  0  0  0
 24 21  1  0  0  0  0
M  END
>  <minimizedAffinity>
-5.73361349

$$$$

 OpenBabel03272510033D

 24 26  0  0  0  0  0  0  0  0999 V2000
   38.6110   25.5580   35.0340 C   0  0  0  0  0  0  0  0  0  0  0  0
   38.4030   24.5100   34.1240 C   0  0  0  0  0  0  0  0  0  0  0  0
   38.1370   23.2480   34.6340 C   0  0  0  0  0  0  0  0  0  0  0  0
   38.0960   23.0980   35.9790 N   0  0  0  0  0  0  0  0  0  0  0  0
   38.3010   24.1290   36.8340 C   0  0  0  0  0  0  0  0  0  0  0  0
   38.5590   25.3560   36.3660 N   0  0  0  0  0  0  0  0  0  0  0  0
   38.8120   26.5140   34.6040 H   0  0  0  0  0  0  0  0  0  0  0  0
   38.4400   24.6500   33.0530 H   0  0  0  0  0  0  0  0  0  0  0  0
   37.9040   22.0850   33.8240 C   0  0  0  0  0  0  0  0  0  0  0  0
   38.9450   21.5600   33.1000 C   0  0  0  0  0  0  0  0  0  0  0  0
   39.9330   21.9920   33.1210 H   0  0  0  0  0  0  0  0  0  0  0  0
   38.8280   20.4400   32.2860 C   0  0  0  0  0  3  0  0  0  0  0  0
   37.5720   19.8310   32.2130 C   0  0  0  0  0  0  0  0  0  0  0  0
   37.4850   18.7400   31.4120 N   0  0  0  0  0  0  0  0  0  0  0  0
   36.2670   18.1350   31.3310 C   0  0  0  0  0  0  0  0  0  0  0  0
   36.0260   17.2510   30.7340 H   0  0  0  0  0  0  0  0  0  0  0  0
   35.1720   18.6110   32.0340 C   0  0  0  0  0  3  0  0  0  0  0  0
   35.2730   19.7220   32.8460 C   0  0  0  0  0  3  0  0  0  0  0  0
   36.5120   20.3270   32.9200 C   0  0  0  0  0  0  0  0  0  0  0  0
   36.6910   21.4420   33.7110 C   0  0  0  0  0  3  0  0  0  0  0  0
   38.2310   23.8350   38.2820 C   0  0  0  0  0  0  0  0  0  0  0  0
   37.2860   22.8630   38.5760 F   0  0  0  0  0  0  0  0  0  0  0  0
   39.4350   23.3620   38.7770 F   0  0  0  0  0  0  0  0  0  0  0  0
   37.8970   24.9360   39.0480 F   0  0  0  0  0  0  0  0  0  0  0  0
  1  6  1  0  0  0  0
  2  3  1  0  0  0  0
  2  1  2  0  0  0  0
  3  4  2  0  0  0  0
  4  5  1  0  0  0  0
  5 21  1  0  0  0  0
  6  5  2  0  0  0  0
  7  1  1  0  0  0  0
  8  2  1  0  0  0  0
  9  3  1  0  0  0  0
 10 11  1  0  0  0  0
 10  9  2  0  0  0  0
 12 10  1  0  0  0  0
 13 12  2  0  0  0  0
 13 19  1  0  0  0  0
 14 13  1  0  0  0  0
 15 14  2  0  0  0  0
 15 17  1  0  0  0  0
 16 15  1  0  0  0  0
 17 18  2  0  0  0  0
 18 19  1  0  0  0  0
 19 20  2  0  0  0  0
 20  9  1  0  0  0  0
 21 22  1  0  0  0  0
 21 23  1  0  0  0  0
 21 24  1  0  0  0  0
M  END
>  <minimizedAffinity>
-5.5197854

$$$$

 OpenBabel03272510033D

 24 26  0  0  0  0  0  0  0  0999 V2000
   35.8590   27.3400   31.4820 C   0  0  0  0  0  0  0  0  0  0  0  0
   35.8790   25.9880   31.1050 C   0  0  0  0  0  0  0  0  0  0  0  0
   36.4960   25.0830   31.9560 C   0  0  0  0  0  0  0  0  0  0  0  0
   37.0460   25.5560   33.1010 N   0  0  0  0  0  0  0  0  0  0  0  0
   37.0110   26.8670   33.4390 C   0  0  0  0  0  0  0  0  0  0  0  0
   36.4210   27.7580   32.6340 N   0  0  0  0  0  0  0  0  0  0  0  0
   35.3750   28.0040   30.8020 H   0  0  0  0  0  0  0  0  0  0  0  0
   35.4350   25.6300   30.1870 H   0  0  0  0  0  0  0  0  0  0  0  0
   36.5930   23.6730   31.7000 C   0  0  0  0  0  0  0  0  0  0  0  0
   37.6910   23.1920   31.0340 C   0  0  0  0  0  0  0  0  0  0  0  0
   38.4860   23.8400   30.6960 H   0  0  0  0  0  0  0  0  0  0  0  0
   37.8820   21.8490   30.7340 C   0  0  0  0  0  3  0  0  0  0  0  0
   36.8890   20.9550   31.1440 C   0  0  0  0  0  0  0  0  0  0  0  0
   37.1010   19.6510   30.8400 N   0  0  0  0  0  0  0  0  0  0  0  0
   36.1410   18.7670   31.2330 C   0  0  0  0  0  0  0  0  0  0  0  0
   36.1550   17.6860   31.0680 H   0  0  0  0  0  0  0  0  0  0  0  0
   35.0050   19.1820   31.9100 C   0  0  0  0  0  3  0  0  0  0  0  0
   34.8020   20.5130   32.2130 C   0  0  0  0  0  3  0  0  0  0  0  0
   35.7800   21.3990   31.8100 C   0  0  0  0  0  0  0  0  0  0  0  0
   35.6480   22.7440   32.0770 C   0  0  0  0  0  3  0  0  0  0  0  0
   37.6480   27.2560   34.7150 C   0  0  0  0  0  0  0  0  0  0  0  0
   37.4670   26.3030   35.7070 F   0  0  0  0  0  0  0  0  0  0  0  0
   39.0180   27.4190   34.5860 F   0  0  0  0  0  0  0  0  0  0  0  0
   37.1600   28.4420   35.2320 F   0  0  0  0  0  0  0  0  0  0  0  0
  1  6  1  0  0  0  0
  2  1  2  0  0  0  0
  2  3  1  0  0  0  0
  3  4  2  0  0  0  0
  4  5  1  0  0  0  0
  5 21  1  0  0  0  0
  6  5  2  0  0  0  0
  7  1  1  0  0  0  0
  8  2  1  0  0  0  0
  9  3  1  0  0  0  0
  9 20  1  0  0  0  0
 10  9  2  0  0  0  0
 11 10  1  0  0  0  0
 12 10  1  0  0  0  0
 12 13  2  0  0  0  0
 13 19  1  0  0  0  0
 14 13  1  0  0  0  0
 14 15  2  0  0  0  0
 15 17  1  0  0  0  0
 16 15  1  0  0  0  0
 17 18  2  0  0  0  0
 19 20  2  0  0  0  0
 19 18  1  0  0  0  0
 21 24  1  0  0  0  0
 21 22  1  0  0  0  0
 23 21  1  0  0  0  0
M  END
>  <minimizedAffinity>
-5.49878407

$$$$

 OpenBabel03272510033D

 24 26  0  0  0  0  0  0  0  0999 V2000
   37.0670   27.1850   32.3210 C   0  0  0  0  0  0  0  0  0  0  0  0
   36.1350   28.1760   32.6670 C   0  0  0  0  0  0  0  0  0  0  0  0
   36.1230   28.6310   33.9770 C   0  0  0  0  0  0  0  0  0  0  0  0
   37.0090   28.0910   34.8480 N   0  0  0  0  0  0  0  0  0  0  0  0
   37.8980   27.1350   34.4860 C   0  0  0  0  0  0  0  0  0  0  0  0
   37.9280   26.6810   33.2290 N   0  0  0  0  0  0  0  0  0  0  0  0
   37.0460   26.8620   31.3050 H   0  0  0  0  0  0  0  0  0  0  0  0
   35.4360   28.5940   31.9560 H   0  0  0  0  0  0  0  0  0  0  0  0
   35.2270   29.6380   34.4710 C   0  0  0  0  0  0  0  0  0  0  0  0
   33.9400   29.6740   33.9970 C   0  0  0  0  0  0  0  0  0  0  0  0
   33.5790   28.9680   33.2640 H   0  0  0  0  0  0  0  0  0  0  0  0
   32.9940   30.6050   34.4070 C   0  0  0  0  0  3  0  0  0  0  0  0
   33.3960   31.5500   35.3550 C   0  0  0  0  0  0  0  0  0  0  0  0
   32.4540   32.4470   35.7390 N   0  0  0  0  0  0  0  0  0  0  0  0
   32.8310   33.3740   36.6630 C   0  0  0  0  0  0  0  0  0  0  0  0
   32.2000   34.1640   37.0770 H   0  0  0  0  0  0  0  0  0  0  0  0
   34.1150   33.3980   37.1850 C   0  0  0  0  0  3  0  0  0  0  0  0
   35.0650   32.4790   36.7870 C   0  0  0  0  0  3  0  0  0  0  0  0
   34.6710   31.5450   35.8500 C   0  0  0  0  0  0  0  0  0  0  0  0
   35.5640   30.5950   35.4030 C   0  0  0  0  0  3  0  0  0  0  0  0
   38.8110   26.6270   35.5320 C   0  0  0  0  0  0  0  0  0  0  0  0
   40.1090   27.0880   35.3680 F   0  0  0  0  0  0  0  0  0  0  0  0
   38.4210   27.0230   36.8010 F   0  0  0  0  0  0  0  0  0  0  0  0
   38.8970   25.2480   35.5600 F   0  0  0  0  0  0  0  0  0  0  0  0
  1  2  2  0  0  0  0
  1  6  1  0  0  0  0
  2  3  1  0  0  0  0
  3  9  1  0  0  0  0
  3  4  2  0  0  0  0
  5  4  1  0  0  0  0
  5 21  1  0  0  0  0
  6  5  2  0  0  0  0
  7  1  1  0  0  0  0
  8  2  1  0  0  0  0
  9 20  1  0  0  0  0
 10 12  1  0  0  0  0
 10  9  2  0  0  0  0
 11 10  1  0  0  0  0
 12 13  2  0  0  0  0
 13 14  1  0  0  0  0
 13 19  1  0  0  0  0
 14 15  2  0  0  0  0
 15 16  1  0  0  0  0
 15 17  1  0  0  0  0
 18 17  2  0  0  0  0
 19 18  1  0  0  0  0
 20 19  2  0  0  0  0
 21 24  1  0  0  0  0
 21 23  1  0  0  0  0
 22 21  1  0  0  0  0
M  END
>  <minimizedAffinity>
-5.42353582

$$$$

 OpenBabel03272510033D

 24 26  0  0  0  0  0  0  0  0999 V2000
   36.9030   28.8000   30.1380 C   0  0  0  0  0  0  0  0  0  0  0  0
   36.2880   29.5640   31.1410 C   0  0  0  0  0  0  0  0  0  0  0  0
   35.6110   28.8930   32.1480 C   0  0  0  0  0  0  0  0  0  0  0  0
   35.5800   27.5400   32.1050 N   0  0  0  0  0  0  0  0  0  0  0  0
   36.1840   26.8280   31.1240 C   0  0  0  0  0  0  0  0  0  0  0  0
   36.8430   27.4530   30.1420 N   0  0  0  0  0  0  0  0  0  0  0  0
   37.4140   29.3520   29.3810 H   0  0  0  0  0  0  0  0  0  0  0  0
   36.3230   30.6450   31.1570 H   0  0  0  0  0  0  0  0  0  0  0  0
   34.9350   29.5440   33.2360 C   0  0  0  0  0  0  0  0  0  0  0  0
   33.5800   29.3830   33.3690 C   0  0  0  0  0  0  0  0  0  0  0  0
   33.0040   28.7820   32.6810 H   0  0  0  0  0  0  0  0  0  0  0  0
   32.8310   29.9670   34.3820 C   0  0  0  0  0  3  0  0  0  0  0  0
   33.5160   30.7590   35.3080 C   0  0  0  0  0  0  0  0  0  0  0  0
   32.7620   31.3170   36.2870 N   0  0  0  0  0  0  0  0  0  0  0  0
   33.4150   32.0920   37.1980 C   0  0  0  0  0  0  0  0  0  0  0  0
   32.9600   32.6120   38.0450 H   0  0  0  0  0  0  0  0  0  0  0  0
   34.7840   32.2980   37.1260 C   0  0  0  0  0  3  0  0  0  0  0  0
   35.5400   31.7240   36.1240 C   0  0  0  0  0  3  0  0  0  0  0  0
   34.8670   30.9420   35.2080 C   0  0  0  0  0  0  0  0  0  0  0  0
   35.5550   30.3360   34.1780 C   0  0  0  0  0  3  0  0  0  0  0  0
   36.0770   25.3540   31.1900 C   0  0  0  0  0  0  0  0  0  0  0  0
   36.2660   24.8690   32.4750 F   0  0  0  0  0  0  0  0  0  0  0  0
   34.8300   24.9040   30.7890 F   0  0  0  0  0  0  0  0  0  0  0  0
   37.0030   24.7020   30.3960 F   0  0  0  0  0  0  0  0  0  0  0  0
  1  6  2  0  0  0  0
  1  2  1  0  0  0  0
  2  8  1  0  0  0  0
  2  3  2  0  0  0  0
  3  9  1  0  0  0  0
  4  3  1  0  0  0  0
  5 21  1  0  0  0  0
  5  4  2  0  0  0  0
  6  5  1  0  0  0  0
  7  1  1  0  0  0  0
  9 10  2  0  0  0  0
  9 20  1  0  0  0  0
 10 12  1  0  0  0  0
 11 10  1  0  0  0  0
 12 13  2  0  0  0  0
 13 14  1  0  0  0  0
 14 15  2  0  0  0  0
 15 16  1  0  0  0  0
 17 15  1  0  0  0  0
 18 17  2  0  0  0  0
 19 13  1  0  0  0  0
 19 18  1  0  0  0  0
 20 19  2  0  0  0  0
 21 22  1  0  0  0  0
 23 21  1  0  0  0  0
 24 21  1  0  0  0  0
M  END
>  <minimizedAffinity>
-5.39704037

$$$$

 OpenBabel03272510033D

 24 26  0  0  0  0  0  0  0  0999 V2000
   38.1380   23.7440   38.2830 C   0  0  0  0  0  0  0  0  0  0  0  0
   37.7880   24.6440   37.2640 C   0  0  0  0  0  0  0  0  0  0  0  0
   38.6020   24.7100   36.1440 C   0  0  0  0  0  0  0  0  0  0  0  0
   39.6890   23.9030   36.0970 N   0  0  0  0  0  0  0  0  0  0  0  0
   40.0030   23.0430   37.0950 C   0  0  0  0  0  0  0  0  0  0  0  0
   39.2330   22.9620   38.1860 N   0  0  0  0  0  0  0  0  0  0  0  0
   37.4870   23.7220   39.1280 H   0  0  0  0  0  0  0  0  0  0  0  0
   36.9150   25.2790   37.3210 H   0  0  0  0  0  0  0  0  0  0  0  0
   38.3670   25.5820   35.0280 C   0  0  0  0  0  0  0  0  0  0  0  0
   37.2520   26.3820   35.0330 C   0  0  0  0  0  0  0  0  0  0  0  0
   36.5460   26.3760   35.8490 H   0  0  0  0  0  0  0  0  0  0  0  0
   36.9310   27.2600   34.0050 C   0  0  0  0  0  3  0  0  0  0  0  0
   37.8040   27.3160   32.9150 C   0  0  0  0  0  0  0  0  0  0  0  0
   37.4670   28.1810   31.9270 N   0  0  0  0  0  0  0  0  0  0  0  0
   38.3090   28.2470   30.8570 C   0  0  0  0  0  0  0  0  0  0  0  0
   38.1860   28.8870   29.9800 H   0  0  0  0  0  0  0  0  0  0  0  0
   39.4530   27.4690   30.7850 C   0  0  0  0  0  3  0  0  0  0  0  0
   39.7850   26.5920   31.7990 C   0  0  0  0  0  3  0  0  0  0  0  0
   38.9250   26.5330   32.8760 C   0  0  0  0  0  0  0  0  0  0  0  0
   39.1890   25.6820   33.9270 C   0  0  0  0  0  3  0  0  0  0  0  0
   41.2180   22.2180   36.9230 C   0  0  0  0  0  0  0  0  0  0  0  0
   41.4280   21.3600   37.9920 F   0  0  0  0  0  0  0  0  0  0  0  0
   41.1480   21.4160   35.7950 F   0  0  0  0  0  0  0  0  0  0  0  0
   42.3740   22.9660   36.8010 F   0  0  0  0  0  0  0  0  0  0  0  0
  1  7  1  0  0  0  0
  2  8  1  0  0  0  0
  2  1  2  0  0  0  0
  3  2  1  0  0  0  0
  4  3  2  0  0  0  0
  4  5  1  0  0  0  0
  5  6  2  0  0  0  0
  6  1  1  0  0  0  0
  9 10  1  0  0  0  0
  9  3  1  0  0  0  0
 10 11  1  0  0  0  0
 12 10  2  0  0  0  0
 13 12  1  0  0  0  0
 14 13  2  0  0  0  0
 15 14  1  0  0  0  0
 16 15  1  0  0  0  0
 17 15  2  0  0  0  0
 17 18  1  0  0  0  0
 18 19  2  0  0  0  0
 19 13  1  0  0  0  0
 19 20  1  0  0  0  0
 20  9  2  0  0  0  0
 21  5  1  0  0  0  0
 21 22  1  0  0  0  0
 23 21  1  0  0  0  0
 24 21  1  0  0  0  0
M  END
>  <minimizedAffinity>
-5.35674429

$$$$
