
 OpenBabel03272505273D

 34 37  0  0  0  0  0  0  0  0999 V2000
   37.4010   31.1470   47.0760 N   0  0  0  0  0  0  0  0  0  0  0  0
   36.7680   30.8690   45.9040 C   0  0  0  0  0  0  0  0  0  0  0  0
   37.2030   31.3680   44.6880 C   0  0  0  0  0  0  0  0  0  0  0  0
   38.3470   32.1880   44.7060 C   0  0  0  0  0  0  0  0  0  0  0  0
   38.7770   32.6600   43.6290 O   0  0  0  0  0  0  0  0  0  0  0  0
   38.9830   32.4680   45.8780 N   0  0  0  0  0  0  0  0  0  0  0  0
   38.4640   31.9270   46.9850 C   0  0  0  0  0  0  0  0  0  0  0  0
   39.0750   32.2080   48.0420 O   0  0  0  0  0  0  0  0  0  0  0  0
   35.9010   30.2490   45.8780 H   0  0  0  0  0  0  0  0  0  0  0  0
   36.5210   31.0690   43.4310 C   0  0  0  0  0  0  0  0  0  0  0  0
   36.9010   29.8730   42.8130 C   0  0  0  0  0  0  0  0  0  0  0  0
   37.6480   29.1970   43.2170 H   0  0  0  0  0  0  0  0  0  0  0  0
   36.3370   29.4610   41.6130 C   0  0  0  0  0  3  0  0  0  0  0  0
   35.3770   30.2600   41.0250 C   0  0  0  0  0  0  0  0  0  0  0  0
   34.7870   29.9050   39.8470 N   0  0  0  0  0  0  0  0  0  0  0  0
   33.8510   30.6860   39.2750 C   0  0  0  0  0  0  0  0  0  0  0  0
   33.4790   30.2660   38.3400 H   0  0  0  0  0  0  0  0  0  0  0  0
   33.4620   31.8730   39.8710 C   0  0  0  0  0  3  0  0  0  0  0  0
   34.0430   32.2540   41.0650 C   0  0  0  0  0  3  0  0  0  0  0  0
   35.0010   31.4530   41.6460 C   0  0  0  0  0  0  0  0  0  0  0  0
   35.5590   31.8690   42.8400 C   0  0  0  0  0  3  0  0  0  0  0  0
   37.3340   29.5550   50.4270 C   0  0  0  0  0  0  0  0  0  0  0  0
   37.7980   30.0570   49.2040 C   0  0  0  0  0  0  0  0  0  0  0  0
   36.9480   30.6370   48.2960 C   0  0  0  0  0  0  0  0  0  0  0  0
   35.6330   30.7080   48.6220 N   0  0  0  0  0  0  0  0  0  0  0  0
   35.1510   30.2290   49.8010 C   0  0  0  0  0  0  0  0  0  0  0  0
   35.9980   29.6520   50.7050 N   0  0  0  0  0  0  0  0  0  0  0  0
   37.9510   29.0890   51.1810 H   0  0  0  0  0  0  0  0  0  0  0  0
   38.8440   29.9030   49.1200 H   0  0  0  0  0  0  0  0  0  0  0  0
   34.0890   30.3330   49.9670 H   0  0  0  0  0  0  0  0  0  0  0  0
   40.1590   33.3090   45.8890 C   0  0  0  0  0  0  0  0  0  0  0  0
   40.0450   34.2770   44.9340 F   0  0  0  0  0  0  0  0  0  0  0  0
   41.3290   32.6130   45.6210 F   0  0  0  0  0  0  0  0  0  0  0  0
   40.2470   33.9380   47.1250 F   0  0  0  0  0  0  0  0  0  0  0  0
  1 24  1  0  0  0  0
  2  1  1  0  0  0  0
  3  4  1  0  0  0  0
  3  2  2  0  0  0  0
  4  6  1  0  0  0  0
  5  4  2  0  0  0  0
  6 31  1  0  0  0  0
  6  7  1  0  0  0  0
  7  1  1  0  0  0  0
  7  8  2  0  0  0  0
  9  2  1  0  0  0  0
 10  3  1  0  0  0  0
 11 12  1  0  0  0  0
 11 10  2  0  0  0  0
 13 11  1  0  0  0  0
 14 13  2  0  0  0  0
 14 20  1  0  0  0  0
 15 14  1  0  0  0  0
 16 15  2  0  0  0  0
 16 18  1  0  0  0  0
 17 16  1  0  0  0  0
 18 19  2  0  0  0  0
 19 20  1  0  0  0  0
 20 21  2  0  0  0  0
 21 10  1  0  0  0  0
 22 27  1  0  0  0  0
 22 28  1  0  0  0  0
 23 22  2  0  0  0  0
 24 25  2  0  0  0  0
 24 23  1  0  0  0  0
 25 26  1  0  0  0  0
 26 30  1  0  0  0  0
 26 27  2  0  0  0  0
 29 23  1  0  0  0  0
 31 34  1  0  0  0  0
 32 31  1  0  0  0  0
 33 31  1  0  0  0  0
M  END
>  <minimizedAffinity>
-6.25875044

>  <minimizedRMSD>
0.349546403

$$$$
