
 OpenBabel03272503133D

 49 54  0  0  0  0  0  0  0  0999 V2000
   39.1520   32.2100   42.5760 C   0  0  0  0  0  0  0  0  0  0  0  0
   39.7010   31.5000   43.6310 C   0  0  0  0  0  0  0  0  0  0  0  0
   40.5950   30.4900   43.4620 C   0  0  0  0  0  0  0  0  0  0  0  0
   40.9980   30.1290   42.1810 C   0  0  0  0  0  0  0  0  0  0  0  0
   41.8400   29.2030   41.7270 N   0  0  0  0  0  0  0  0  0  0  0  0
   41.8470   29.2990   40.3920 C   0  0  0  0  0  0  0  0  0  0  0  0
   41.0120   30.2830   40.0120 N   0  0  0  0  0  0  0  0  0  0  0  0
   40.4530   30.8350   41.1220 C   0  0  0  0  0  0  0  0  0  0  0  0
   39.5410   31.8670   41.2720 C   0  0  0  0  0  0  0  0  0  0  0  0
   38.4520   33.0010   42.7090 H   0  0  0  0  0  0  0  0  0  0  0  0
   41.0050   29.9560   44.3020 H   0  0  0  0  0  0  0  0  0  0  0  0
   42.4120   28.5080   42.2600 H   0  0  0  0  0  0  0  0  0  0  0  0
   42.3600   28.7710   39.6190 H   0  0  0  0  0  0  0  0  0  0  0  0
   39.2490   31.9140   44.9460 C   0  0  0  0  0  0  0  0  0  0  0  0
   38.1640   32.5650   45.0750 O   0  0  0  0  0  0  0  0  0  0  0  0
   39.9540   31.6380   46.1620 N   0  0  0  0  0  0  0  0  0  0  0  0
   40.8300   31.1140   46.1070 H   0  0  0  0  0  0  0  0  0  0  0  0
   38.1200   30.1500   47.4970 F   0  0  0  0  0  0  0  0  0  0  0  0
   38.3820   31.4020   47.9900 C   0  0  0  0  0  0  0  0  0  0  0  0
   37.7200   31.8290   49.1070 C   0  0  0  0  0  0  0  0  0  0  0  0
   38.0240   33.0860   49.5500 C   0  0  0  0  0  0  0  0  0  0  0  0
   38.9400   33.8930   48.9270 C   0  0  0  0  0  0  0  0  0  0  0  0
   39.6000   33.4350   47.7920 C   0  0  0  0  0  0  0  0  0  0  0  0
   39.3010   32.1600   47.3280 C   0  0  0  0  0  0  0  0  0  0  0  0
   37.5070   33.4490   50.4420 H   0  0  0  0  0  0  0  0  0  0  0  0
   39.1870   34.8760   49.2600 H   0  0  0  0  0  0  0  0  0  0  0  0
   40.3420   33.9740   47.2100 H   0  0  0  0  0  0  0  0  0  0  0  0
   36.0760   29.3530   51.4480 C   0  0  0  0  0  0  0  0  0  0  0  0
   37.0480   30.2100   50.8700 C   0  0  0  0  0  0  0  0  0  0  0  0
   36.7540   30.9360   49.7360 C   0  0  0  0  0  0  0  0  0  0  0  0
   35.4930   30.7850   49.2020 N   0  0  0  0  0  0  0  0  0  0  0  0
   34.5830   29.9680   49.7630 C   0  0  0  0  0  0  0  0  0  0  0  0
   34.8700   29.2700   50.8580 N   0  0  0  0  0  0  0  0  0  0  0  0
   36.2980   28.7810   52.3380 H   0  0  0  0  0  0  0  0  0  0  0  0
   38.0290   30.3020   51.3190 H   0  0  0  0  0  0  0  0  0  0  0  0
   33.6570   29.9930   49.1930 H   0  0  0  0  0  0  0  0  0  0  0  0
   39.0050   32.5630   40.2130 O   0  0  0  0  0  0  0  0  0  0  0  0
   37.6840   32.7190   39.9090 C   0  0  0  0  0  0  0  0  0  0  0  0
   37.0220   31.7200   39.1940 C   0  0  0  0  0  0  0  0  0  0  0  0
   37.5590   30.8170   38.8790 H   0  0  0  0  0  0  0  0  0  0  0  0
   35.6930   31.8260   38.8610 C   0  0  0  0  0  3  0  0  0  0  0  0
   34.9470   32.9300   39.2200 C   0  0  0  0  0  0  0  0  0  0  0  0
   33.6520   33.0800   38.9210 N   0  0  0  0  0  0  0  0  0  0  0  0
   32.9340   34.1570   39.2720 C   0  0  0  0  0  0  0  0  0  0  0  0
   31.8740   34.2720   39.0230 H   0  0  0  0  0  0  0  0  0  0  0  0
   33.5110   35.2030   39.9870 C   0  0  0  0  0  3  0  0  0  0  0  0
   34.8530   35.0690   40.3090 C   0  0  0  0  0  3  0  0  0  0  0  0
   35.5700   33.9560   39.9370 C   0  0  0  0  0  0  0  0  0  0  0  0
   36.9130   33.7910   40.2440 C   0  0  0  0  0  3  0  0  0  0  0  0
  1 10  1  0  0  0  0
  1  2  1  0  0  0  0
  2 14  1  0  0  0  0
  3  2  2  0  0  0  0
  3 11  1  0  0  0  0
  4  3  1  0  0  0  0
  5  4  1  0  0  0  0
  5 12  1  0  0  0  0
  6  5  1  0  0  0  0
  7  6  2  0  0  0  0
  7  8  1  0  0  0  0
  8  9  1  0  0  0  0
  8  4  2  0  0  0  0
  9  1  2  0  0  0  0
 13  6  1  0  0  0  0
 14 15  2  0  0  0  0
 14 16  1  0  0  0  0
 16 24  1  0  0  0  0
 17 16  1  0  0  0  0
 18 19  1  0  0  0  0
 19 20  1  0  0  0  0
 20 21  2  0  0  0  0
 20 30  1  0  0  0  0
 21 25  1  0  0  0  0
 22 26  1  0  0  0  0
 22 21  1  0  0  0  0
 23 22  2  0  0  0  0
 24 23  1  0  0  0  0
 24 19  2  0  0  0  0
 27 23  1  0  0  0  0
 28 34  1  0  0  0  0
 29 35  1  0  0  0  0
 29 28  1  0  0  0  0
 30 29  2  0  0  0  0
 31 30  1  0  0  0  0
 31 32  2  0  0  0  0
 32 33  1  0  0  0  0
 33 28  2  0  0  0  0
 36 32  1  0  0  0  0
 37  9  1  0  0  0  0
 38 37  1  0  0  0  0
 38 49  1  0  0  0  0
 39 38  2  0  0  0  0
 40 39  1  0  0  0  0
 41 39  1  0  0  0  0
 41 42  2  0  0  0  0
 42 48  1  0  0  0  0
 43 42  1  0  0  0  0
 43 44  2  0  0  0  0
 44 46  1  0  0  0  0
 45 44  1  0  0  0  0
 46 47  2  0  0  0  0
 48 49  2  0  0  0  0
 48 47  1  0  0  0  0
M  END
>  <minimizedAffinity>
-7.54272938

>  <minimizedRMSD>
1.90939403

$$$$
