
 OpenBabel03272505273D

 34 37  0  0  0  0  0  0  0  0999 V2000
   37.3920   31.0690   47.1800 N   0  0  0  0  0  0  0  0  0  0  0  0
   36.7920   30.7480   46.0020 C   0  0  0  0  0  0  0  0  0  0  0  0
   37.2400   31.2310   44.7840 C   0  0  0  0  0  0  0  0  0  0  0  0
   38.3620   32.0820   44.8070 C   0  0  0  0  0  0  0  0  0  0  0  0
   38.8020   32.5400   43.7300 O   0  0  0  0  0  0  0  0  0  0  0  0
   38.9650   32.4050   45.9860 N   0  0  0  0  0  0  0  0  0  0  0  0
   38.4360   31.8750   47.0940 C   0  0  0  0  0  0  0  0  0  0  0  0
   39.0160   32.1970   48.1570 O   0  0  0  0  0  0  0  0  0  0  0  0
   35.9430   30.1050   45.9720 H   0  0  0  0  0  0  0  0  0  0  0  0
   36.5940   30.8850   43.5200 C   0  0  0  0  0  0  0  0  0  0  0  0
   37.0190   29.6870   42.9400 C   0  0  0  0  0  0  0  0  0  0  0  0
   37.7730   29.0400   43.3740 H   0  0  0  0  0  0  0  0  0  0  0  0
   36.4910   29.2330   41.7370 C   0  0  0  0  0  3  0  0  0  0  0  0
   35.5250   29.9910   41.1100 C   0  0  0  0  0  0  0  0  0  0  0  0
   34.9710   29.5950   39.9280 N   0  0  0  0  0  0  0  0  0  0  0  0
   34.0290   30.3370   39.3170 C   0  0  0  0  0  0  0  0  0  0  0  0
   33.6870   29.8860   38.3860 H   0  0  0  0  0  0  0  0  0  0  0  0
   33.5950   31.5270   39.8770 C   0  0  0  0  0  3  0  0  0  0  0  0
   34.1390   31.9510   41.0730 C   0  0  0  0  0  3  0  0  0  0  0  0
   35.1040   31.1880   41.6940 C   0  0  0  0  0  0  0  0  0  0  0  0
   35.6240   31.6460   42.8900 C   0  0  0  0  0  3  0  0  0  0  0  0
   37.2900   29.5220   50.5510 C   0  0  0  0  0  0  0  0  0  0  0  0
   37.7660   30.0080   49.3270 C   0  0  0  0  0  0  0  0  0  0  0  0
   36.9250   30.5750   48.4020 C   0  0  0  0  0  0  0  0  0  0  0  0
   35.6070   30.6490   48.7120 N   0  0  0  0  0  0  0  0  0  0  0  0
   35.1130   30.1850   49.8930 C   0  0  0  0  0  0  0  0  0  0  0  0
   35.9510   29.6210   50.8130 N   0  0  0  0  0  0  0  0  0  0  0  0
   37.8990   29.0670   51.3180 H   0  0  0  0  0  0  0  0  0  0  0  0
   38.8130   29.8550   49.2570 H   0  0  0  0  0  0  0  0  0  0  0  0
   34.0490   30.2900   50.0450 H   0  0  0  0  0  0  0  0  0  0  0  0
   40.1170   33.2770   46.0020 C   0  0  0  0  0  0  0  0  0  0  0  0
   39.9740   34.2510   45.0570 F   0  0  0  0  0  0  0  0  0  0  0  0
   41.3040   32.6150   45.7240 F   0  0  0  0  0  0  0  0  0  0  0  0
   40.1920   33.8950   47.2440 F   0  0  0  0  0  0  0  0  0  0  0  0
  1 24  1  0  0  0  0
  2  1  1  0  0  0  0
  3  4  1  0  0  0  0
  3  2  2  0  0  0  0
  4  6  1  0  0  0  0
  5  4  2  0  0  0  0
  6 31  1  0  0  0  0
  6  7  1  0  0  0  0
  7  1  1  0  0  0  0
  7  8  2  0  0  0  0
  9  2  1  0  0  0  0
 10  3  1  0  0  0  0
 11 12  1  0  0  0  0
 11 10  1  0  0  0  0
 13 11  2  0  0  0  0
 14 20  1  0  0  0  0
 14 13  1  0  0  0  0
 15 14  2  0  0  0  0
 16 18  2  0  0  0  0
 16 15  1  0  0  0  0
 17 16  1  0  0  0  0
 18 19  1  0  0  0  0
 19 20  2  0  0  0  0
 20 21  1  0  0  0  0
 21 10  2  0  0  0  0
 22 27  1  0  0  0  0
 22 28  1  0  0  0  0
 23 22  2  0  0  0  0
 24 25  2  0  0  0  0
 24 23  1  0  0  0  0
 25 26  1  0  0  0  0
 26 30  1  0  0  0  0
 26 27  2  0  0  0  0
 29 23  1  0  0  0  0
 31 34  1  0  0  0  0
 32 31  1  0  0  0  0
 33 31  1  0  0  0  0
M  END
>  <minimizedAffinity>
-6.23162794

>  <minimizedRMSD>
0.854276717

$$$$
