
 OpenBabel03272509583D

 49 53  0  0  0  0  0  0  0  0999 V2000
   33.5700   27.6330   47.6280 C   0  0  0  0  0  0  0  0  0  0  0  0
   33.8650   26.6980   48.1030 H   0  0  0  0  0  0  0  0  0  0  0  0
   33.7480   27.4990   46.5380 H   0  0  0  0  0  0  0  0  0  0  0  0
   32.1040   27.8460   47.7830 C   0  0  0  0  0  0  0  0  0  0  0  0
   31.5520   27.5760   49.0210 C   0  0  0  0  0  0  0  0  0  0  0  0
   30.2040   27.7410   49.2690 C   0  0  0  0  0  0  0  0  0  0  0  0
   29.4140   28.1740   48.2850 N   0  0  0  0  0  0  0  0  0  0  0  0
   29.9660   28.4360   47.0740 C   0  0  0  0  0  0  0  0  0  0  0  0
   31.2760   28.2810   46.8150 N   0  0  0  0  0  0  0  0  0  0  0  0
   32.1530   27.2240   49.8470 H   0  0  0  0  0  0  0  0  0  0  0  0
   29.7550   27.5300   50.2450 H   0  0  0  0  0  0  0  0  0  0  0  0
   29.0640   28.9160   45.9930 C   0  0  0  0  0  0  0  0  0  0  0  0
   28.2600   29.5730   46.3850 H   0  0  0  0  0  0  0  0  0  0  0  0
   29.6770   29.5580   45.3280 H   0  0  0  0  0  0  0  0  0  0  0  0
   28.4850   27.7680   45.2230 C   0  0  0  0  0  0  0  0  0  0  0  0
   29.1400   26.5660   45.0580 C   0  0  0  0  0  0  0  0  0  0  0  0
   30.1170   26.4370   45.5030 H   0  0  0  0  0  0  0  0  0  0  0  0
   28.4910   25.5900   44.3210 C   0  0  0  0  0  3  0  0  0  0  0  0
   27.2330   25.7950   43.7650 C   0  0  0  0  0  0  0  0  0  0  0  0
   26.6110   24.8490   43.0550 N   0  0  0  0  0  0  0  0  0  0  0  0
   25.3920   25.0980   42.5360 C   0  0  0  0  0  0  0  0  0  0  0  0
   24.8350   24.3680   41.9490 H   0  0  0  0  0  0  0  0  0  0  0  0
   24.7210   26.3110   42.6960 C   0  0  0  0  0  3  0  0  0  0  0  0
   25.3340   27.2930   43.4160 C   0  0  0  0  0  3  0  0  0  0  0  0
   26.5840   27.0170   43.9410 C   0  0  0  0  0  0  0  0  0  0  0  0
   27.2230   27.9780   44.6660 C   0  0  0  0  0  3  0  0  0  0  0  0
   34.3840   28.7550   48.1840 C   0  0  0  0  0  0  0  0  0  0  0  0
   33.8100   29.6960   48.2930 H   0  0  0  0  0  0  0  0  0  0  0  0
   35.2070   28.9710   47.4700 H   0  0  0  0  0  0  0  0  0  0  0  0
   35.0110   28.3950   49.4000 O   0  0  0  0  0  0  0  0  0  0  0  0
   37.3380   30.1660   51.5080 C   0  0  0  0  0  0  0  0  0  0  0  0
   38.0810   30.8740   50.5310 C   0  0  0  0  0  0  0  0  0  0  0  0
   37.7190   30.6840   49.2000 C   0  0  0  0  0  0  0  0  0  0  0  0
   36.6770   29.8280   48.9700 N   0  0  0  0  0  0  0  0  0  0  0  0
   35.9940   29.1760   49.9050 C   0  0  0  0  0  0  0  0  0  0  0  0
   36.3350   29.3510   51.1960 N   0  0  0  0  0  0  0  0  0  0  0  0
   37.6730   30.3620   52.5140 H   0  0  0  0  0  0  0  0  0  0  0  0
   38.8950   31.5380   50.7400 H   0  0  0  0  0  0  0  0  0  0  0  0
   38.9020   33.3210   49.0530 F   0  0  0  0  0  0  0  0  0  0  0  0
   38.9150   32.5370   47.9820 C   0  0  0  0  0  0  0  0  0  0  0  0
   38.3590   31.3170   48.0770 C   0  0  0  0  0  0  0  0  0  0  0  0
   38.4260   30.5710   46.8930 C   0  0  0  0  0  0  0  0  0  0  0  0
   39.0070   31.0540   45.7540 C   0  0  0  0  0  0  0  0  0  0  0  0
   39.5620   32.3130   45.7120 C   0  0  0  0  0  0  0  0  0  0  0  0
   39.5050   33.0480   46.8510 C   0  0  0  0  0  0  0  0  0  0  0  0
   38.0180   29.5690   46.8240 H   0  0  0  0  0  0  0  0  0  0  0  0
   39.0560   30.4640   44.8310 H   0  0  0  0  0  0  0  0  0  0  0  0
   40.0150   32.6750   44.8040 H   0  0  0  0  0  0  0  0  0  0  0  0
   39.9370   34.0410   46.8370 H   0  0  0  0  0  0  0  0  0  0  0  0
  1  4  1  0  0  0  0
  1  2  1  0  0  0  0
  1 27  1  0  0  0  0
  3  1  1  0  0  0  0
  4  5  1  0  0  0  0
  5  6  2  0  0  0  0
  5 10  1  0  0  0  0
  6 11  1  0  0  0  0
  7  6  1  0  0  0  0
  8  7  2  0  0  0  0
  9  8  1  0  0  0  0
  9  4  2  0  0  0  0
 12 13  1  0  0  0  0
 12  8  1  0  0  0  0
 14 12  1  0  0  0  0
 15 12  1  0  0  0  0
 16 15  1  0  0  0  0
 16 17  1  0  0  0  0
 18 16  2  0  0  0  0
 19 25  1  0  0  0  0
 19 18  1  0  0  0  0
 20 19  2  0  0  0  0
 21 23  2  0  0  0  0
 21 20  1  0  0  0  0
 22 21  1  0  0  0  0
 23 24  1  0  0  0  0
 24 25  2  0  0  0  0
 25 26  1  0  0  0  0
 26 15  2  0  0  0  0
 27 28  1  0  0  0  0
 27 30  1  0  0  0  0
 29 27  1  0  0  0  0
 30 35  1  0  0  0  0
 31 37  1  0  0  0  0
 32 38  1  0  0  0  0
 32 31  2  0  0  0  0
 33 32  1  0  0  0  0
 34 33  2  0  0  0  0
 34 35  1  0  0  0  0
 35 36  2  0  0  0  0
 36 31  1  0  0  0  0
 40 41  1  0  0  0  0
 40 39  1  0  0  0  0
 41 33  1  0  0  0  0
 42 41  2  0  0  0  0
 43 42  1  0  0  0  0
 44 43  2  0  0  0  0
 44 45  1  0  0  0  0
 45 40  2  0  0  0  0
 46 42  1  0  0  0  0
 47 43  1  0  0  0  0
 48 44  1  0  0  0  0
 49 45  1  0  0  0  0
M  END
>  <minimizedAffinity>
-7.15087509

>  <minimizedRMSD>
1.13169885

$$$$
