
 OpenBabel03262523213D

 44 48  0  0  1  0  0  0  0  0999 V2000
   36.7710   29.8010   49.3930 C   0  0  0  0  0  0  0  0  0  0  0  0
   36.2530   30.8460   48.6150 C   0  0  0  0  0  0  0  0  0  0  0  0
   36.9800   32.0140   48.7940 C   0  0  0  0  0  0  0  0  0  0  0  0
   38.0800   32.1650   49.6130 C   0  0  0  0  0  0  0  0  0  0  0  0
   38.5170   31.0470   50.3490 C   0  0  0  0  0  0  0  0  0  0  0  0
   37.8630   29.8270   50.2540 C   0  0  0  0  0  0  0  0  0  0  0  0
   36.7850   32.9850   48.4150 H   0  0  0  0  0  0  0  0  0  0  0  0
   38.6920   33.0050   49.8060 H   0  0  0  0  0  0  0  0  0  0  0  0
   39.3760   31.0570   51.0260 H   0  0  0  0  0  0  0  0  0  0  0  0
   38.4760   32.1810   44.9850 C   0  0  0  0  0  0  0  0  0  0  0  0
   39.1600   31.1400   44.3660 C   0  0  0  0  0  0  0  0  0  0  0  0
   38.6050   29.8730   44.4050 C   0  0  0  0  0  0  0  0  0  0  0  0
   37.4220   29.6910   45.0420 N   0  0  0  0  0  0  0  0  0  0  0  0
   36.7740   30.6620   45.6260 C   0  0  0  0  0  0  0  0  0  0  0  0
   37.3450   31.8350   45.5560 N   0  0  0  0  0  0  0  0  0  0  0  0
   35.5430   30.4330   46.2730 N   0  0  0  0  0  0  0  0  0  0  0  0
   34.3790   29.8760   45.5750 C   0  0  0  0  0  0  0  0  0  0  0  0
   33.3590   29.6950   46.6150 C   0  0  0  0  0  0  0  0  0  0  0  0
   34.1330   29.7690   47.9310 C   0  0  0  0  0  0  0  0  0  0  0  0
   35.1840   30.7360   47.6660 C   0  0  1  0  0  0  0  0  0  0  0  0
   38.8470   33.1810   44.9920 H   0  0  0  0  0  0  0  0  0  0  0  0
   40.1050   31.3140   43.8640 H   0  0  0  0  0  0  0  0  0  0  0  0
   39.1630   29.0760   43.9110 H   0  0  0  0  0  0  0  0  0  0  0  0
   34.0740   30.6440   44.8330 H   0  0  0  0  0  0  0  0  0  0  0  0
   34.6490   28.9700   44.9990 H   0  0  0  0  0  0  0  0  0  0  0  0
   32.5940   30.5160   46.5290 H   0  0  0  0  0  0  0  0  0  0  0  0
   32.7870   28.7700   46.4850 H   0  0  0  0  0  0  0  0  0  0  0  0
   34.5550   28.7540   47.8490 H   0  0  0  0  0  0  0  0  0  0  0  0
   33.3340   30.0230   48.5890 H   0  0  0  0  0  0  0  0  0  0  0  0
   34.8090   31.7920   47.4830 H   0  0  0  0  0  0  0  0  0  0  0  0
   38.3220   28.6810   51.0160 C   0  0  0  0  0  0  0  0  0  0  0  0
   38.1190   28.8570   52.3900 C   0  0  0  0  0  0  0  0  0  0  0  0
   37.6750   29.7320   52.8620 H   0  0  0  0  0  0  0  0  0  0  0  0
   38.4860   27.8900   53.3040 C   0  0  0  0  0  3  0  0  0  0  0  0
   39.0620   26.7250   52.8380 C   0  0  0  0  0  0  0  0  0  0  0  0
   39.4340   25.7550   53.7040 N   0  0  0  0  0  0  0  0  0  0  0  0
   40.0010   24.6060   53.2900 C   0  0  0  0  0  0  0  0  0  0  0  0
   40.2420   23.9330   54.0810 H   0  0  0  0  0  0  0  0  0  0  0  0
   40.2030   24.4280   51.9180 C   0  0  0  0  0  3  0  0  0  0  0  0
   39.8250   25.4200   51.0190 C   0  0  0  0  0  3  0  0  0  0  0  0
   39.2470   26.5850   51.4790 C   0  0  0  0  0  0  0  0  0  0  0  0
   38.8910   27.5350   50.5440 C   0  0  0  0  0  3  0  0  0  0  0  0
   35.5070   27.5570   49.3930 N   0  0  0  0  0  0  0  0  0  0  0  0
   36.0560   28.5440   49.3840 C   0  0  0  0  0  0  0  0  0  0  0  0
  1  6  1  0  0  0  0
  2  3  1  0  0  0  0
  2  1  2  0  0  0  0
  3  4  2  0  0  0  0
  4  8  1  0  0  0  0
  4  5  1  0  0  0  0
  5  9  1  0  0  0  0
  6  5  2  0  0  0  0
  6 31  1  0  0  0  0
  7  3  1  0  0  0  0
 10 21  1  0  0  0  0
 10 15  1  0  0  0  0
 11 12  1  0  0  0  0
 11 10  2  0  0  0  0
 12 13  2  0  0  0  0
 13 14  1  0  0  0  0
 14 16  1  0  0  0  0
 15 14  2  0  0  0  0
 16 20  1  0  0  0  0
 17 16  1  0  0  0  0
 17 18  1  0  0  0  0
 18 19  1  0  0  0  0
 19 29  1  0  0  0  0
 20 30  1  6  0  0  0
 20 19  1  0  0  0  0
 20  2  1  0  0  0  0
 22 11  1  0  0  0  0
 23 12  1  0  0  0  0
 24 17  1  0  0  0  0
 25 17  1  0  0  0  0
 26 18  1  0  0  0  0
 27 18  1  0  0  0  0
 28 19  1  0  0  0  0
 31 32  1  0  0  0  0
 32 33  1  0  0  0  0
 32 34  2  0  0  0  0
 35 34  1  0  0  0  0
 35 36  1  0  0  0  0
 37 36  2  0  0  0  0
 37 38  1  0  0  0  0
 39 37  1  0  0  0  0
 40 41  1  0  0  0  0
 40 39  2  0  0  0  0
 41 35  2  0  0  0  0
 42 31  2  0  0  0  0
 42 41  1  0  0  0  0
 44 43  3  0  0  0  0
 44  1  1  0  0  0  0
M  END
>  <minimizedAffinity>
1.27866185

>  <minimizedRMSD>
2.12750077

$$$$
