
 OpenBabel03272509013D

 34 37  0  0  0  0  0  0  0  0999 V2000
   39.2430   30.8590   49.7880 Cl  0  0  0  0  0  0  0  0  0  0  0  0
   37.5670   30.4940   49.5510 C   0  0  0  0  0  0  0  0  0  0  0  0
   36.9580   30.8890   48.3760 C   0  0  0  0  0  0  0  0  0  0  0  0
   35.6300   30.6310   48.1350 C   0  0  0  0  0  0  0  0  0  0  0  0
   34.8660   29.9680   49.0640 C   0  0  0  0  0  0  0  0  0  0  0  0
   35.4490   29.5590   50.2530 C   0  0  0  0  0  0  0  0  0  0  0  0
   34.5620   28.7210   51.5110 Cl  0  0  0  0  0  0  0  0  0  0  0  0
   36.8030   29.8420   50.4590 C   0  0  0  0  0  0  0  0  0  0  0  0
   35.0970   30.9150   47.2360 H   0  0  0  0  0  0  0  0  0  0  0  0
   33.8190   29.7330   48.9410 H   0  0  0  0  0  0  0  0  0  0  0  0
   39.4380   33.0830   46.7910 C   0  0  0  0  0  0  0  0  0  0  0  0
   39.1750   32.9210   45.4220 C   0  0  0  0  0  0  0  0  0  0  0  0
   38.1260   32.0380   45.0690 C   0  0  0  0  0  0  0  0  0  0  0  0
   37.4550   31.4160   46.0690 N   0  0  0  0  0  0  0  0  0  0  0  0
   37.7300   31.5920   47.3720 C   0  0  0  0  0  0  0  0  0  0  0  0
   38.7280   32.4320   47.7050 N   0  0  0  0  0  0  0  0  0  0  0  0
   40.2520   33.7710   46.9930 H   0  0  0  0  0  0  0  0  0  0  0  0
   39.6740   33.3880   44.5850 H   0  0  0  0  0  0  0  0  0  0  0  0
   37.7940   31.7990   44.0680 H   0  0  0  0  0  0  0  0  0  0  0  0
   37.4190   29.4270   51.7450 C   0  0  0  0  0  0  0  0  0  0  0  0
   38.0230   30.3210   52.0730 H   0  0  0  0  0  0  0  0  0  0  0  0
   36.6000   29.3940   52.5260 H   0  0  0  0  0  0  0  0  0  0  0  0
   38.2100   28.2020   51.7200 C   0  0  0  0  0  0  0  0  0  0  0  0
   38.5120   27.5550   50.5410 C   0  0  0  0  0  0  0  0  0  0  0  0
   38.2040   27.9140   49.5690 H   0  0  0  0  0  0  0  0  0  0  0  0
   39.2340   26.3820   50.4340 C   0  0  0  0  0  3  0  0  0  0  0  0
   39.7090   25.7800   51.5790 C   0  0  0  0  0  0  0  0  0  0  0  0
   40.4180   24.6390   51.5260 N   0  0  0  0  0  0  0  0  0  0  0  0
   40.8890   24.0370   52.6320 C   0  0  0  0  0  0  0  0  0  0  0  0
   41.4590   23.1180   52.5750 H   0  0  0  0  0  0  0  0  0  0  0  0
   40.6500   24.5920   53.8780 C   0  0  0  0  0  3  0  0  0  0  0  0
   39.9230   25.7640   53.9340 C   0  0  0  0  0  3  0  0  0  0  0  0
   39.4460   26.3710   52.7960 C   0  0  0  0  0  0  0  0  0  0  0  0
   38.7230   27.5320   52.8130 C   0  0  0  0  0  3  0  0  0  0  0  0
  2  1  1  0  0  0  0
  2  8  1  0  0  0  0
  3  2  2  0  0  0  0
  4  3  1  0  0  0  0
  4  5  2  0  0  0  0
  5  6  1  0  0  0  0
  6  8  2  0  0  0  0
  6  7  1  0  0  0  0
  8 20  1  0  0  0  0
  9  4  1  0  0  0  0
 10  5  1  0  0  0  0
 11 17  1  0  0  0  0
 11 16  1  0  0  0  0
 12 11  2  0  0  0  0
 13 12  1  0  0  0  0
 13 14  2  0  0  0  0
 14 15  1  0  0  0  0
 15 16  2  0  0  0  0
 15  3  1  0  0  0  0
 18 12  1  0  0  0  0
 19 13  1  0  0  0  0
 20 21  1  0  0  0  0
 20 22  1  0  0  0  0
 23 20  1  0  0  0  0
 23 34  1  0  0  0  0
 24 23  2  0  0  0  0
 25 24  1  0  0  0  0
 26 24  1  0  0  0  0
 26 27  2  0  0  0  0
 27 33  1  0  0  0  0
 28 27  1  0  0  0  0
 28 29  2  0  0  0  0
 29 31  1  0  0  0  0
 30 29  1  0  0  0  0
 31 32  2  0  0  0  0
 33 34  2  0  0  0  0
 33 32  1  0  0  0  0
M  END
>  <minimizedAffinity>
2.16766715

>  <minimizedRMSD>
1.75321972

$$$$
