
 OpenBabel03272509583D

 49 53  0  0  0  0  0  0  0  0999 V2000
   33.5930   27.5010   47.7490 C   0  0  0  0  0  0  0  0  0  0  0  0
   33.7610   26.6240   48.3730 H   0  0  0  0  0  0  0  0  0  0  0  0
   33.8300   27.1920   46.7060 H   0  0  0  0  0  0  0  0  0  0  0  0
   32.1480   27.8640   47.7520 C   0  0  0  0  0  0  0  0  0  0  0  0
   31.3850   27.4130   48.8120 C   0  0  0  0  0  0  0  0  0  0  0  0
   30.0370   27.6940   48.9100 C   0  0  0  0  0  0  0  0  0  0  0  0
   29.4560   28.4220   47.9550 N   0  0  0  0  0  0  0  0  0  0  0  0
   30.2160   28.8600   46.9190 C   0  0  0  0  0  0  0  0  0  0  0  0
   31.5290   28.5950   46.8070 N   0  0  0  0  0  0  0  0  0  0  0  0
   31.8110   26.8200   49.6090 H   0  0  0  0  0  0  0  0  0  0  0  0
   29.4210   27.3410   49.7440 H   0  0  0  0  0  0  0  0  0  0  0  0
   29.5450   29.6690   45.8660 C   0  0  0  0  0  0  0  0  0  0  0  0
   28.7920   30.3630   46.2920 H   0  0  0  0  0  0  0  0  0  0  0  0
   30.3270   30.3160   45.4150 H   0  0  0  0  0  0  0  0  0  0  0  0
   28.9290   28.7900   44.8200 C   0  0  0  0  0  0  0  0  0  0  0  0
   29.6630   28.1630   43.8350 C   0  0  0  0  0  0  0  0  0  0  0  0
   30.7360   28.3080   43.8100 H   0  0  0  0  0  0  0  0  0  0  0  0
   28.9670   27.3790   42.9310 C   0  0  0  0  0  3  0  0  0  0  0  0
   27.5880   27.2200   42.9980 C   0  0  0  0  0  0  0  0  0  0  0  0
   26.9200   26.4620   42.1230 N   0  0  0  0  0  0  0  0  0  0  0  0
   25.5820   26.3390   42.2300 C   0  0  0  0  0  0  0  0  0  0  0  0
   24.9830   25.7360   41.5480 H   0  0  0  0  0  0  0  0  0  0  0  0
   24.8290   26.9690   43.2230 C   0  0  0  0  0  3  0  0  0  0  0  0
   25.4870   27.7480   44.1280 C   0  0  0  0  0  3  0  0  0  0  0  0
   26.8590   27.8610   44.0000 C   0  0  0  0  0  0  0  0  0  0  0  0
   27.5440   28.6330   44.8900 C   0  0  0  0  0  3  0  0  0  0  0  0
   34.4750   28.6160   48.2050 C   0  0  0  0  0  0  0  0  0  0  0  0
   33.9790   29.6060   48.1670 H   0  0  0  0  0  0  0  0  0  0  0  0
   35.3430   28.6740   47.5140 H   0  0  0  0  0  0  0  0  0  0  0  0
   35.0180   28.3640   49.4870 O   0  0  0  0  0  0  0  0  0  0  0  0
   37.3560   30.1860   51.5380 C   0  0  0  0  0  0  0  0  0  0  0  0
   38.0850   30.8810   50.5410 C   0  0  0  0  0  0  0  0  0  0  0  0
   37.7100   30.6640   49.2170 C   0  0  0  0  0  0  0  0  0  0  0  0
   36.6700   29.7990   49.0130 N   0  0  0  0  0  0  0  0  0  0  0  0
   36.0010   29.1600   49.9670 C   0  0  0  0  0  0  0  0  0  0  0  0
   36.3540   29.3600   51.2510 N   0  0  0  0  0  0  0  0  0  0  0  0
   37.7010   30.4030   52.5360 H   0  0  0  0  0  0  0  0  0  0  0  0
   38.8970   31.5520   50.7280 H   0  0  0  0  0  0  0  0  0  0  0  0
   38.9380   33.2780   49.0290 F   0  0  0  0  0  0  0  0  0  0  0  0
   38.9100   32.4890   47.9620 C   0  0  0  0  0  0  0  0  0  0  0  0
   38.3350   31.2800   48.0750 C   0  0  0  0  0  0  0  0  0  0  0  0
   38.3600   30.5280   46.8940 C   0  0  0  0  0  0  0  0  0  0  0  0
   38.9220   30.9950   45.7390 C   0  0  0  0  0  0  0  0  0  0  0  0
   39.4990   32.2430   45.6780 C   0  0  0  0  0  0  0  0  0  0  0  0
   39.4830   32.9840   46.8150 C   0  0  0  0  0  0  0  0  0  0  0  0
   37.9320   29.5340   46.8400 H   0  0  0  0  0  0  0  0  0  0  0  0
   38.9370   30.4000   44.8180 H   0  0  0  0  0  0  0  0  0  0  0  0
   39.9370   32.5930   44.7580 H   0  0  0  0  0  0  0  0  0  0  0  0
   39.9330   33.9690   46.7850 H   0  0  0  0  0  0  0  0  0  0  0  0
  1  4  1  0  0  0  0
  1 27  1  0  0  0  0
  1  2  1  0  0  0  0
  3  1  1  0  0  0  0
  4  5  1  0  0  0  0
  5  6  2  0  0  0  0
  5 10  1  0  0  0  0
  6 11  1  0  0  0  0
  7  6  1  0  0  0  0
  8  7  2  0  0  0  0
  9  8  1  0  0  0  0
  9  4  2  0  0  0  0
 12 13  1  0  0  0  0
 12  8  1  0  0  0  0
 14 12  1  0  0  0  0
 15 26  1  0  0  0  0
 15 12  1  0  0  0  0
 16 15  2  0  0  0  0
 17 16  1  0  0  0  0
 18 19  2  0  0  0  0
 18 16  1  0  0  0  0
 19 25  1  0  0  0  0
 20 21  2  0  0  0  0
 20 19  1  0  0  0  0
 21 23  1  0  0  0  0
 22 21  1  0  0  0  0
 23 24  2  0  0  0  0
 25 24  1  0  0  0  0
 25 26  2  0  0  0  0
 27 30  1  0  0  0  0
 28 27  1  0  0  0  0
 29 27  1  0  0  0  0
 30 35  1  0  0  0  0
 31 37  1  0  0  0  0
 32 38  1  0  0  0  0
 32 31  2  0  0  0  0
 33 32  1  0  0  0  0
 34 33  2  0  0  0  0
 34 35  1  0  0  0  0
 35 36  2  0  0  0  0
 36 31  1  0  0  0  0
 40 41  1  0  0  0  0
 40 39  1  0  0  0  0
 41 33  1  0  0  0  0
 42 41  2  0  0  0  0
 43 42  1  0  0  0  0
 44 43  2  0  0  0  0
 44 45  1  0  0  0  0
 45 40  2  0  0  0  0
 46 42  1  0  0  0  0
 47 43  1  0  0  0  0
 48 44  1  0  0  0  0
 49 45  1  0  0  0  0
M  END
>  <minimizedAffinity>
-6.94070482

>  <minimizedRMSD>
0.259356618

$$$$
