
 OpenBabel03272500453D

 28 31  0  0  0  0  0  0  0  0999 V2000
   35.9560   28.7270   33.6690 C   0  0  0  0  0  0  0  0  0  0  0  0
   36.2880   28.2600   32.3920 C   0  0  0  0  0  0  0  0  0  0  0  0
   37.1300   27.1540   32.5580 C   0  0  0  0  0  0  0  0  0  0  0  0
   37.2830   26.9840   33.9060 N   0  0  0  0  0  0  0  0  0  0  0  0
   36.5860   27.9160   34.5110 N   0  0  0  0  0  0  0  0  0  0  0  0
   35.9980   28.6180   31.3940 H   0  0  0  0  0  0  0  0  0  0  0  0
   37.5850   26.5370   31.7880 H   0  0  0  0  0  0  0  0  0  0  0  0
   38.0700   25.9610   34.5430 C   0  0  0  0  0  0  0  0  0  0  0  0
   39.1200   25.3450   33.8980 C   0  0  0  0  0  0  0  0  0  0  0  0
   39.3660   25.6330   32.8790 H   0  0  0  0  0  0  0  0  0  0  0  0
   39.8710   24.3520   34.5410 C   0  0  0  0  0  3  0  0  0  0  0  0
   39.5010   24.0310   35.8490 C   0  0  0  0  0  0  0  0  0  0  0  0
   40.2190   23.0790   36.4690 N   0  0  0  0  0  0  0  0  0  0  0  0
   39.9040   22.7340   37.7290 C   0  0  0  0  0  0  0  0  0  0  0  0
   40.5350   21.9590   38.1520 H   0  0  0  0  0  0  0  0  0  0  0  0
   38.8770   23.2760   38.4820 C   0  0  0  0  0  3  0  0  0  0  0  0
   38.1630   24.2440   37.8210 C   0  0  0  0  0  3  0  0  0  0  0  0
   38.4460   24.6390   36.5240 C   0  0  0  0  0  0  0  0  0  0  0  0
   37.7410   25.6080   35.8430 C   0  0  0  0  0  3  0  0  0  0  0  0
   33.9620   30.1390   33.1330 C   0  0  0  0  0  0  0  0  0  0  0  0
   35.0990   29.8610   33.8870 C   0  0  0  0  0  0  0  0  0  0  0  0
   35.4120   30.7590   34.9230 C   0  0  0  0  0  0  0  0  0  0  0  0
   34.5860   31.8340   35.1180 N   0  0  0  0  0  0  0  0  0  0  0  0
   33.4930   32.0510   34.3520 C   0  0  0  0  0  0  0  0  0  0  0  0
   33.1780   31.1930   33.3480 N   0  0  0  0  0  0  0  0  0  0  0  0
   33.6980   29.4730   32.3380 H   0  0  0  0  0  0  0  0  0  0  0  0
   36.2750   30.6410   35.5750 H   0  0  0  0  0  0  0  0  0  0  0  0
   32.8500   32.9110   34.5240 H   0  0  0  0  0  0  0  0  0  0  0  0
  1 21  1  0  0  0  0
  1  5  2  0  0  0  0
  2  3  2  0  0  0  0
  2  1  1  0  0  0  0
  3  4  1  0  0  0  0
  4  5  1  0  0  0  0
  4  8  1  0  0  0  0
  6  2  1  0  0  0  0
  7  3  1  0  0  0  0
  8 19  1  0  0  0  0
  9 11  1  0  0  0  0
  9  8  2  0  0  0  0
 10  9  1  0  0  0  0
 11 12  2  0  0  0  0
 12 13  1  0  0  0  0
 12 18  1  0  0  0  0
 13 14  2  0  0  0  0
 14 15  1  0  0  0  0
 14 16  1  0  0  0  0
 17 16  2  0  0  0  0
 18 17  1  0  0  0  0
 19 18  2  0  0  0  0
 20 25  2  0  0  0  0
 20 21  1  0  0  0  0
 21 22  2  0  0  0  0
 22 23  1  0  0  0  0
 22 27  1  0  0  0  0
 24 28  1  0  0  0  0
 24 23  2  0  0  0  0
 25 24  1  0  0  0  0
 26 20  1  0  0  0  0
M  END
>  <minimizedAffinity>
-5.55022144

$$$$

 OpenBabel03272500453D

 28 31  0  0  0  0  0  0  0  0999 V2000
   37.9670   25.3350   34.9910 C   0  0  0  0  0  0  0  0  0  0  0  0
   37.7670   25.0070   33.6440 C   0  0  0  0  0  0  0  0  0  0  0  0
   37.1140   26.0890   33.0440 C   0  0  0  0  0  0  0  0  0  0  0  0
   36.9400   27.0270   34.0230 N   0  0  0  0  0  0  0  0  0  0  0  0
   37.4470   26.5490   35.1340 N   0  0  0  0  0  0  0  0  0  0  0  0
   38.0320   24.1060   33.0740 H   0  0  0  0  0  0  0  0  0  0  0  0
   36.7980   26.1900   32.0090 H   0  0  0  0  0  0  0  0  0  0  0  0
   36.3080   28.3110   33.8590 C   0  0  0  0  0  0  0  0  0  0  0  0
   35.6700   28.6620   32.6900 C   0  0  0  0  0  0  0  0  0  0  0  0
   35.6380   27.9560   31.8640 H   0  0  0  0  0  0  0  0  0  0  0  0
   35.0630   29.9180   32.5560 C   0  0  0  0  0  3  0  0  0  0  0  0
   35.1410   30.7750   33.6560 C   0  0  0  0  0  0  0  0  0  0  0  0
   34.5600   31.9800   33.5320 N   0  0  0  0  0  0  0  0  0  0  0  0
   34.6050   32.8420   34.5620 C   0  0  0  0  0  0  0  0  0  0  0  0
   34.1120   33.7900   34.3750 H   0  0  0  0  0  0  0  0  0  0  0  0
   35.2130   32.6080   35.7840 C   0  0  0  0  0  3  0  0  0  0  0  0
   35.7970   31.3710   35.8790 C   0  0  0  0  0  3  0  0  0  0  0  0
   35.7780   30.4440   34.8490 C   0  0  0  0  0  0  0  0  0  0  0  0
   36.3580   29.1960   34.9250 C   0  0  0  0  0  3  0  0  0  0  0  0
   39.7920   23.7590   35.6530 C   0  0  0  0  0  0  0  0  0  0  0  0
   38.6150   24.4510   35.9220 C   0  0  0  0  0  0  0  0  0  0  0  0
   38.0380   24.2610   37.1910 C   0  0  0  0  0  0  0  0  0  0  0  0
   38.6670   23.4170   38.0660 N   0  0  0  0  0  0  0  0  0  0  0  0
   39.8110   22.7700   37.7470 C   0  0  0  0  0  0  0  0  0  0  0  0
   40.3800   22.9440   36.5270 N   0  0  0  0  0  0  0  0  0  0  0  0
   40.2550   23.8830   34.6960 H   0  0  0  0  0  0  0  0  0  0  0  0
   37.1200   24.7510   37.5090 H   0  0  0  0  0  0  0  0  0  0  0  0
   40.2950   22.1040   38.4580 H   0  0  0  0  0  0  0  0  0  0  0  0
  1  5  2  0  0  0  0
  1 21  1  0  0  0  0
  2  1  1  0  0  0  0
  3  2  2  0  0  0  0
  3  4  1  0  0  0  0
  4  5  1  0  0  0  0
  6  2  1  0  0  0  0
  7  3  1  0  0  0  0
  8  4  1  0  0  0  0
  8 19  1  0  0  0  0
  9  8  2  0  0  0  0
 10  9  1  0  0  0  0
 11  9  1  0  0  0  0
 11 12  2  0  0  0  0
 12 18  1  0  0  0  0
 13 12  1  0  0  0  0
 13 14  2  0  0  0  0
 14 16  1  0  0  0  0
 15 14  1  0  0  0  0
 16 17  2  0  0  0  0
 18 19  2  0  0  0  0
 18 17  1  0  0  0  0
 20 21  2  0  0  0  0
 20 25  1  0  0  0  0
 21 22  1  0  0  0  0
 22 27  1  0  0  0  0
 22 23  2  0  0  0  0
 24 23  1  0  0  0  0
 24 28  1  0  0  0  0
 25 24  2  0  0  0  0
 26 20  1  0  0  0  0
M  END
>  <minimizedAffinity>
-5.52028847

$$$$

 OpenBabel03272500453D

 28 31  0  0  0  0  0  0  0  0999 V2000
   39.5450   23.5230   35.9940 C   0  0  0  0  0  0  0  0  0  0  0  0
   38.6560   23.8650   37.0200 C   0  0  0  0  0  0  0  0  0  0  0  0
   37.7790   24.8290   36.5080 C   0  0  0  0  0  0  0  0  0  0  0  0
   38.1530   25.0410   35.2110 N   0  0  0  0  0  0  0  0  0  0  0  0
   39.1790   24.2650   34.9540 N   0  0  0  0  0  0  0  0  0  0  0  0
   38.5760   23.5070   38.0560 H   0  0  0  0  0  0  0  0  0  0  0  0
   36.9580   25.3250   37.0180 H   0  0  0  0  0  0  0  0  0  0  0  0
   37.5280   25.9560   34.2910 C   0  0  0  0  0  0  0  0  0  0  0  0
   37.3940   25.6610   32.9520 C   0  0  0  0  0  0  0  0  0  0  0  0
   37.7670   24.7130   32.5720 H   0  0  0  0  0  0  0  0  0  0  0  0
   36.7820   26.5680   32.0780 C   0  0  0  0  0  3  0  0  0  0  0  0
   36.3240   27.7660   32.6320 C   0  0  0  0  0  0  0  0  0  0  0  0
   35.7360   28.6390   31.7970 N   0  0  0  0  0  0  0  0  0  0  0  0
   35.2780   29.8060   32.2810 C   0  0  0  0  0  0  0  0  0  0  0  0
   34.8180   30.4500   31.5380 H   0  0  0  0  0  0  0  0  0  0  0  0
   35.3530   30.2180   33.6010 C   0  0  0  0  0  3  0  0  0  0  0  0
   35.9580   29.3060   34.4270 C   0  0  0  0  0  3  0  0  0  0  0  0
   36.4470   28.0880   33.9810 C   0  0  0  0  0  0  0  0  0  0  0  0
   37.0580   27.1580   34.7950 C   0  0  0  0  0  3  0  0  0  0  0  0
   41.3950   22.0810   35.1250 C   0  0  0  0  0  0  0  0  0  0  0  0
   40.5940   22.5530   36.1610 C   0  0  0  0  0  0  0  0  0  0  0  0
   40.8420   22.0380   37.4460 C   0  0  0  0  0  0  0  0  0  0  0  0
   41.8440   21.1150   37.5890 N   0  0  0  0  0  0  0  0  0  0  0  0
   42.5900   20.6930   36.5430 C   0  0  0  0  0  0  0  0  0  0  0  0
   42.3620   21.1820   35.2970 N   0  0  0  0  0  0  0  0  0  0  0  0
   41.2290   22.4550   34.1360 H   0  0  0  0  0  0  0  0  0  0  0  0
   40.2790   22.3350   38.3280 H   0  0  0  0  0  0  0  0  0  0  0  0
   43.3820   19.9600   36.6780 H   0  0  0  0  0  0  0  0  0  0  0  0
  1 21  1  0  0  0  0
  1  2  1  0  0  0  0
  2  6  1  0  0  0  0
  3  7  1  0  0  0  0
  3  2  2  0  0  0  0
  4  3  1  0  0  0  0
  5  4  1  0  0  0  0
  5  1  2  0  0  0  0
  8 19  1  0  0  0  0
  8  4  1  0  0  0  0
  9  8  2  0  0  0  0
 10  9  1  0  0  0  0
 11 12  2  0  0  0  0
 11  9  1  0  0  0  0
 12 18  1  0  0  0  0
 13 14  2  0  0  0  0
 13 12  1  0  0  0  0
 14 16  1  0  0  0  0
 15 14  1  0  0  0  0
 16 17  2  0  0  0  0
 18 17  1  0  0  0  0
 18 19  2  0  0  0  0
 20 25  2  0  0  0  0
 20 21  1  0  0  0  0
 21 22  2  0  0  0  0
 22 23  1  0  0  0  0
 22 27  1  0  0  0  0
 24 28  1  0  0  0  0
 24 23  2  0  0  0  0
 25 24  1  0  0  0  0
 26 20  1  0  0  0  0
M  END
>  <minimizedAffinity>
-5.41362238

$$$$

 OpenBabel03272500453D

 28 31  0  0  0  0  0  0  0  0999 V2000
   35.7280   29.5530   34.3020 C   0  0  0  0  0  0  0  0  0  0  0  0
   35.8800   29.4640   32.9130 C   0  0  0  0  0  0  0  0  0  0  0  0
   36.4780   28.2290   32.6370 C   0  0  0  0  0  0  0  0  0  0  0  0
   36.6680   27.6130   33.8430 N   0  0  0  0  0  0  0  0  0  0  0  0
   36.2200   28.4150   34.7800 N   0  0  0  0  0  0  0  0  0  0  0  0
   35.6160   30.1670   32.1110 H   0  0  0  0  0  0  0  0  0  0  0  0
   36.7470   27.8170   31.6680 H   0  0  0  0  0  0  0  0  0  0  0  0
   37.2570   26.3150   34.0440 C   0  0  0  0  0  0  0  0  0  0  0  0
   37.5120   25.4620   32.9920 C   0  0  0  0  0  0  0  0  0  0  0  0
   37.2630   25.7710   31.9800 H   0  0  0  0  0  0  0  0  0  0  0  0
   38.0860   24.2040   33.2140 C   0  0  0  0  0  3  0  0  0  0  0  0
   38.3800   23.8710   34.5390 C   0  0  0  0  0  0  0  0  0  0  0  0
   38.9310   22.6650   34.7570 N   0  0  0  0  0  0  0  0  0  0  0  0
   39.2340   22.2970   36.0140 C   0  0  0  0  0  0  0  0  0  0  0  0
   39.6750   21.3100   36.0970 H   0  0  0  0  0  0  0  0  0  0  0  0
   39.0280   23.0610   37.1500 C   0  0  0  0  0  3  0  0  0  0  0  0
   38.4650   24.2850   36.8940 C   0  0  0  0  0  3  0  0  0  0  0  0
   38.1340   24.7150   35.6200 C   0  0  0  0  0  0  0  0  0  0  0  0
   37.5670   25.9400   35.3420 C   0  0  0  0  0  3  0  0  0  0  0  0
   33.8260   31.1080   34.7710 C   0  0  0  0  0  0  0  0  0  0  0  0
   35.1430   30.6940   34.9520 C   0  0  0  0  0  0  0  0  0  0  0  0
   35.9370   31.4540   35.8310 C   0  0  0  0  0  0  0  0  0  0  0  0
   35.3650   32.5390   36.4420 N   0  0  0  0  0  0  0  0  0  0  0  0
   34.0780   32.8920   36.2260 C   0  0  0  0  0  0  0  0  0  0  0  0
   33.3000   32.1680   35.3810 N   0  0  0  0  0  0  0  0  0  0  0  0
   33.1990   30.5490   34.1090 H   0  0  0  0  0  0  0  0  0  0  0  0
   36.9770   31.2230   36.0470 H   0  0  0  0  0  0  0  0  0  0  0  0
   33.6440   33.7570   36.7230 H   0  0  0  0  0  0  0  0  0  0  0  0
  1  5  2  0  0  0  0
  1 21  1  0  0  0  0
  2  1  1  0  0  0  0
  3  2  2  0  0  0  0
  3  4  1  0  0  0  0
  4  8  1  0  0  0  0
  4  5  1  0  0  0  0
  6  2  1  0  0  0  0
  7  3  1  0  0  0  0
  8 19  1  0  0  0  0
  9 11  1  0  0  0  0
  9  8  2  0  0  0  0
 10  9  1  0  0  0  0
 11 12  2  0  0  0  0
 12 13  1  0  0  0  0
 12 18  1  0  0  0  0
 13 14  2  0  0  0  0
 14 15  1  0  0  0  0
 14 16  1  0  0  0  0
 17 16  2  0  0  0  0
 18 17  1  0  0  0  0
 19 18  2  0  0  0  0
 20 21  2  0  0  0  0
 20 25  1  0  0  0  0
 21 22  1  0  0  0  0
 22 27  1  0  0  0  0
 22 23  2  0  0  0  0
 24 23  1  0  0  0  0
 24 28  1  0  0  0  0
 25 24  2  0  0  0  0
 26 20  1  0  0  0  0
M  END
>  <minimizedAffinity>
-5.37894773

$$$$

 OpenBabel03272500453D

 28 31  0  0  0  0  0  0  0  0999 V2000
   36.6540   27.8880   33.8210 C   0  0  0  0  0  0  0  0  0  0  0  0
   37.4530   27.4890   32.7430 C   0  0  0  0  0  0  0  0  0  0  0  0
   38.2380   26.4160   33.1790 C   0  0  0  0  0  0  0  0  0  0  0  0
   37.9010   26.1970   34.4860 N   0  0  0  0  0  0  0  0  0  0  0  0
   36.9810   27.0710   34.8170 N   0  0  0  0  0  0  0  0  0  0  0  0
   37.5240   27.8740   31.7160 H   0  0  0  0  0  0  0  0  0  0  0  0
   38.9750   25.8520   32.6150 H   0  0  0  0  0  0  0  0  0  0  0  0
   38.4610   25.1850   35.3440 C   0  0  0  0  0  0  0  0  0  0  0  0
   37.8000   24.7390   36.4680 C   0  0  0  0  0  0  0  0  0  0  0  0
   36.8290   25.1590   36.7200 H   0  0  0  0  0  0  0  0  0  0  0  0
   38.3650   23.7530   37.2860 C   0  0  0  0  0  3  0  0  0  0  0  0
   39.6140   23.2580   36.9040 C   0  0  0  0  0  0  0  0  0  0  0  0
   40.1600   22.3120   37.6860 N   0  0  0  0  0  0  0  0  0  0  0  0
   41.3610   21.8010   37.3600 C   0  0  0  0  0  0  0  0  0  0  0  0
   41.7260   21.0440   38.0460 H   0  0  0  0  0  0  0  0  0  0  0  0
   42.1210   22.1640   36.2620 C   0  0  0  0  0  3  0  0  0  0  0  0
   41.5370   23.1310   35.4850 C   0  0  0  0  0  3  0  0  0  0  0  0
   40.3020   23.6900   35.7730 C   0  0  0  0  0  0  0  0  0  0  0  0
   39.6980   24.6620   35.0040 C   0  0  0  0  0  3  0  0  0  0  0  0
   35.6070   29.9910   34.6790 C   0  0  0  0  0  0  0  0  0  0  0  0
   35.7130   28.9720   33.7370 C   0  0  0  0  0  0  0  0  0  0  0  0
   34.8360   29.0250   32.6380 C   0  0  0  0  0  0  0  0  0  0  0  0
   33.9460   30.0640   32.5720 N   0  0  0  0  0  0  0  0  0  0  0  0
   33.8900   31.0260   33.5210 C   0  0  0  0  0  0  0  0  0  0  0  0
   34.7310   30.9880   34.5860 N   0  0  0  0  0  0  0  0  0  0  0  0
   36.2620   29.9770   35.5260 H   0  0  0  0  0  0  0  0  0  0  0  0
   34.8300   28.2830   31.8420 H   0  0  0  0  0  0  0  0  0  0  0  0
   33.1760   31.8430   33.4490 H   0  0  0  0  0  0  0  0  0  0  0  0
  1  5  2  0  0  0  0
  2  3  2  0  0  0  0
  2  1  1  0  0  0  0
  3  4  1  0  0  0  0
  4  5  1  0  0  0  0
  4  8  1  0  0  0  0
  6  2  1  0  0  0  0
  7  3  1  0  0  0  0
  8  9  1  0  0  0  0
  9 10  1  0  0  0  0
  9 11  2  0  0  0  0
 12 11  1  0  0  0  0
 12 13  1  0  0  0  0
 14 13  2  0  0  0  0
 14 15  1  0  0  0  0
 16 14  1  0  0  0  0
 17 18  1  0  0  0  0
 17 16  2  0  0  0  0
 18 12  2  0  0  0  0
 19  8  2  0  0  0  0
 19 18  1  0  0  0  0
 20 26  1  0  0  0  0
 21  1  1  0  0  0  0
 21 20  2  0  0  0  0
 22 21  1  0  0  0  0
 23 22  2  0  0  0  0
 23 24  1  0  0  0  0
 24 25  2  0  0  0  0
 25 20  1  0  0  0  0
 27 22  1  0  0  0  0
 28 24  1  0  0  0  0
M  END
>  <minimizedAffinity>
-5.37736559

$$$$

 OpenBabel03272500453D

 28 31  0  0  0  0  0  0  0  0999 V2000
   36.7700   23.3640   31.2110 C   0  0  0  0  0  0  0  0  0  0  0  0
   38.0060   23.6670   30.6260 C   0  0  0  0  0  0  0  0  0  0  0  0
   38.1420   25.0600   30.6370 C   0  0  0  0  0  0  0  0  0  0  0  0
   37.0070   25.5550   31.2170 N   0  0  0  0  0  0  0  0  0  0  0  0
   36.2400   24.5390   31.5340 N   0  0  0  0  0  0  0  0  0  0  0  0
   38.7870   23.0160   30.2110 H   0  0  0  0  0  0  0  0  0  0  0  0
   38.9720   25.6550   30.2650 H   0  0  0  0  0  0  0  0  0  0  0  0
   36.7090   26.9460   31.4380 C   0  0  0  0  0  0  0  0  0  0  0  0
   36.6990   27.8590   30.4060 C   0  0  0  0  0  0  0  0  0  0  0  0
   36.9210   27.5280   29.3950 H   0  0  0  0  0  0  0  0  0  0  0  0
   36.4060   29.2080   30.6470 C   0  0  0  0  0  3  0  0  0  0  0  0
   36.1300   29.5650   31.9690 C   0  0  0  0  0  0  0  0  0  0  0  0
   35.8490   30.8580   32.2050 N   0  0  0  0  0  0  0  0  0  0  0  0
   35.5750   31.2530   33.4600 C   0  0  0  0  0  0  0  0  0  0  0  0
   35.3590   32.3120   33.5590 H   0  0  0  0  0  0  0  0  0  0  0  0
   35.5530   30.4360   34.5780 C   0  0  0  0  0  3  0  0  0  0  0  0
   35.8450   29.1240   34.3040 C   0  0  0  0  0  3  0  0  0  0  0  0
   36.1330   28.6620   33.0300 C   0  0  0  0  0  0  0  0  0  0  0  0
   36.4280   27.3490   32.7340 C   0  0  0  0  0  3  0  0  0  0  0  0
   36.8340   20.9120   30.7210 C   0  0  0  0  0  0  0  0  0  0  0  0
   36.2920   22.0180   31.3700 C   0  0  0  0  0  0  0  0  0  0  0  0
   35.2070   21.7810   32.2340 C   0  0  0  0  0  0  0  0  0  0  0  0
   34.7630   20.4930   32.3760 N   0  0  0  0  0  0  0  0  0  0  0  0
   35.3320   19.4590   31.7160 C   0  0  0  0  0  0  0  0  0  0  0  0
   36.3800   19.6710   30.8800 N   0  0  0  0  0  0  0  0  0  0  0  0
   37.6610   21.0610   30.0570 H   0  0  0  0  0  0  0  0  0  0  0  0
   34.7060   22.5680   32.7930 H   0  0  0  0  0  0  0  0  0  0  0  0
   34.9640   18.4430   31.8430 H   0  0  0  0  0  0  0  0  0  0  0  0
  1 21  1  0  0  0  0
  1  5  2  0  0  0  0
  2  3  2  0  0  0  0
  2  1  1  0  0  0  0
  3  4  1  0  0  0  0
  4  8  1  0  0  0  0
  4  5  1  0  0  0  0
  6  2  1  0  0  0  0
  7  3  1  0  0  0  0
  8 19  1  0  0  0  0
  9 11  1  0  0  0  0
  9  8  2  0  0  0  0
 10  9  1  0  0  0  0
 11 12  2  0  0  0  0
 12 13  1  0  0  0  0
 12 18  1  0  0  0  0
 13 14  2  0  0  0  0
 14 15  1  0  0  0  0
 14 16  1  0  0  0  0
 17 16  2  0  0  0  0
 18 17  1  0  0  0  0
 19 18  2  0  0  0  0
 20 25  2  0  0  0  0
 20 21  1  0  0  0  0
 21 22  2  0  0  0  0
 22 23  1  0  0  0  0
 22 27  1  0  0  0  0
 24 28  1  0  0  0  0
 24 23  2  0  0  0  0
 25 24  1  0  0  0  0
 26 20  1  0  0  0  0
M  END
>  <minimizedAffinity>
-5.30547142

$$$$

 OpenBabel03272500453D

 28 31  0  0  0  0  0  0  0  0999 V2000
   36.3730   27.9180   32.4700 C   0  0  0  0  0  0  0  0  0  0  0  0
   36.1030   26.8730   31.5780 C   0  0  0  0  0  0  0  0  0  0  0  0
   36.7070   25.7200   32.0920 C   0  0  0  0  0  0  0  0  0  0  0  0
   37.3160   26.0890   33.2590 N   0  0  0  0  0  0  0  0  0  0  0  0
   37.0970   27.3700   33.4390 N   0  0  0  0  0  0  0  0  0  0  0  0
   35.5380   26.8560   30.6350 H   0  0  0  0  0  0  0  0  0  0  0  0
   36.7080   24.7190   31.6680 H   0  0  0  0  0  0  0  0  0  0  0  0
   38.0640   25.2230   34.1320 C   0  0  0  0  0  0  0  0  0  0  0  0
   39.1130   24.4570   33.6710 C   0  0  0  0  0  0  0  0  0  0  0  0
   39.3880   24.5030   32.6200 H   0  0  0  0  0  0  0  0  0  0  0  0
   39.8250   23.6220   34.5410 C   0  0  0  0  0  3  0  0  0  0  0  0
   39.4190   23.6110   35.8770 C   0  0  0  0  0  0  0  0  0  0  0  0
   40.0990   22.8110   36.7150 N   0  0  0  0  0  0  0  0  0  0  0  0
   39.7480   22.7660   38.0120 C   0  0  0  0  0  0  0  0  0  0  0  0
   40.3500   22.0950   38.6150 H   0  0  0  0  0  0  0  0  0  0  0  0
   38.7180   23.4840   38.5950 C   0  0  0  0  0  3  0  0  0  0  0  0
   38.0430   24.2890   37.7140 C   0  0  0  0  0  3  0  0  0  0  0  0
   38.3630   24.3760   36.3690 C   0  0  0  0  0  0  0  0  0  0  0  0
   37.6980   25.1790   35.4680 C   0  0  0  0  0  3  0  0  0  0  0  0
   35.4520   30.0980   33.2800 C   0  0  0  0  0  0  0  0  0  0  0  0
   35.9040   29.2620   32.2630 C   0  0  0  0  0  0  0  0  0  0  0  0
   35.8950   29.7830   30.9560 C   0  0  0  0  0  0  0  0  0  0  0  0
   35.4450   31.0640   30.7760 N   0  0  0  0  0  0  0  0  0  0  0  0
   35.0170   31.8290   31.8050 C   0  0  0  0  0  0  0  0  0  0  0  0
   35.0210   31.3400   33.0720 N   0  0  0  0  0  0  0  0  0  0  0  0
   35.4470   29.7290   34.2850 H   0  0  0  0  0  0  0  0  0  0  0  0
   36.2260   29.2200   30.0860 H   0  0  0  0  0  0  0  0  0  0  0  0
   34.6650   32.8450   31.6400 H   0  0  0  0  0  0  0  0  0  0  0  0
  1  5  2  0  0  0  0
  2  3  2  0  0  0  0
  2  1  1  0  0  0  0
  3  4  1  0  0  0  0
  4  5  1  0  0  0  0
  4  8  1  0  0  0  0
  6  2  1  0  0  0  0
  7  3  1  0  0  0  0
  8 19  1  0  0  0  0
  9  8  2  0  0  0  0
  9 11  1  0  0  0  0
 10  9  1  0  0  0  0
 11 12  2  0  0  0  0
 12 18  1  0  0  0  0
 12 13  1  0  0  0  0
 13 14  2  0  0  0  0
 14 16  1  0  0  0  0
 14 15  1  0  0  0  0
 17 16  2  0  0  0  0
 18 17  1  0  0  0  0
 19 18  2  0  0  0  0
 20 26  1  0  0  0  0
 21  1  1  0  0  0  0
 21 20  2  0  0  0  0
 22 21  1  0  0  0  0
 23 22  2  0  0  0  0
 23 24  1  0  0  0  0
 24 25  2  0  0  0  0
 25 20  1  0  0  0  0
 27 22  1  0  0  0  0
 28 24  1  0  0  0  0
M  END
>  <minimizedAffinity>
-5.24766397

$$$$

 OpenBabel03272500453D

 28 31  0  0  0  0  0  0  0  0999 V2000
   38.1740   24.6650   34.6410 C   0  0  0  0  0  0  0  0  0  0  0  0
   37.9560   23.8420   33.5290 C   0  0  0  0  0  0  0  0  0  0  0  0
   37.6500   24.6750   32.4470 C   0  0  0  0  0  0  0  0  0  0  0  0
   37.6890   25.9560   32.9230 N   0  0  0  0  0  0  0  0  0  0  0  0
   37.9960   25.9040   34.1970 N   0  0  0  0  0  0  0  0  0  0  0  0
   37.9950   22.7490   33.4210 H   0  0  0  0  0  0  0  0  0  0  0  0
   37.4230   24.3880   31.4240 H   0  0  0  0  0  0  0  0  0  0  0  0
   37.4370   27.1490   32.1570 C   0  0  0  0  0  0  0  0  0  0  0  0
   36.6650   28.1790   32.6490 C   0  0  0  0  0  0  0  0  0  0  0  0
   36.2300   28.0950   33.6420 H   0  0  0  0  0  0  0  0  0  0  0  0
   36.4350   29.3290   31.8840 C   0  0  0  0  0  3  0  0  0  0  0  0
   37.0230   29.3720   30.6180 C   0  0  0  0  0  0  0  0  0  0  0  0
   36.8060   30.4730   29.8810 N   0  0  0  0  0  0  0  0  0  0  0  0
   37.3500   30.5640   28.6550 C   0  0  0  0  0  0  0  0  0  0  0  0
   37.1230   31.4860   28.1310 H   0  0  0  0  0  0  0  0  0  0  0  0
   38.1420   29.6020   28.0510 C   0  0  0  0  0  3  0  0  0  0  0  0
   38.3450   28.4910   28.8280 C   0  0  0  0  0  3  0  0  0  0  0  0
   37.8090   28.3460   30.0970 C   0  0  0  0  0  0  0  0  0  0  0  0
   38.0010   27.2380   30.8940 C   0  0  0  0  0  3  0  0  0  0  0  0
   39.6010   23.3170   36.1910 C   0  0  0  0  0  0  0  0  0  0  0  0
   38.5130   24.1480   35.9400 C   0  0  0  0  0  0  0  0  0  0  0  0
   37.7070   24.4940   37.0390 C   0  0  0  0  0  0  0  0  0  0  0  0
   38.0430   23.9950   38.2690 N   0  0  0  0  0  0  0  0  0  0  0  0
   39.1150   23.1900   38.4520 C   0  0  0  0  0  0  0  0  0  0  0  0
   39.9020   22.8480   37.4000 N   0  0  0  0  0  0  0  0  0  0  0  0
   40.2330   23.0370   35.3740 H   0  0  0  0  0  0  0  0  0  0  0  0
   36.8330   25.1370   36.9600 H   0  0  0  0  0  0  0  0  0  0  0  0
   39.3650   22.8040   39.4380 H   0  0  0  0  0  0  0  0  0  0  0  0
  1 21  1  0  0  0  0
  2  1  1  0  0  0  0
  3  4  1  0  0  0  0
  3  2  2  0  0  0  0
  4  5  1  0  0  0  0
  5  1  2  0  0  0  0
  6  2  1  0  0  0  0
  7  3  1  0  0  0  0
  8  9  1  0  0  0  0
  8  4  1  0  0  0  0
  9 10  1  0  0  0  0
 11  9  2  0  0  0  0
 12 11  1  0  0  0  0
 13 12  2  0  0  0  0
 14 13  1  0  0  0  0
 15 14  1  0  0  0  0
 16 14  2  0  0  0  0
 16 17  1  0  0  0  0
 17 18  2  0  0  0  0
 18 12  1  0  0  0  0
 18 19  1  0  0  0  0
 19  8  2  0  0  0  0
 20 25  1  0  0  0  0
 21 20  2  0  0  0  0
 21 22  1  0  0  0  0
 22 23  2  0  0  0  0
 23 24  1  0  0  0  0
 24 28  1  0  0  0  0
 25 24  2  0  0  0  0
 26 20  1  0  0  0  0
 27 22  1  0  0  0  0
M  END
>  <minimizedAffinity>
-5.21385717

$$$$

 OpenBabel03272500453D

 28 31  0  0  0  0  0  0  0  0999 V2000
   39.7260   23.7460   36.0060 C   0  0  0  0  0  0  0  0  0  0  0  0
   38.6550   23.8540   36.9020 C   0  0  0  0  0  0  0  0  0  0  0  0
   37.7920   24.8360   36.4040 C   0  0  0  0  0  0  0  0  0  0  0  0
   38.3510   25.2890   35.2420 N   0  0  0  0  0  0  0  0  0  0  0  0
   39.4700   24.6320   35.0490 N   0  0  0  0  0  0  0  0  0  0  0  0
   38.4410   23.3190   37.8380 H   0  0  0  0  0  0  0  0  0  0  0  0
   36.8580   25.1870   36.8350 H   0  0  0  0  0  0  0  0  0  0  0  0
   37.8050   26.3090   34.3840 C   0  0  0  0  0  0  0  0  0  0  0  0
   36.9260   27.2600   34.8550 C   0  0  0  0  0  0  0  0  0  0  0  0
   36.6310   27.2450   35.9020 H   0  0  0  0  0  0  0  0  0  0  0  0
   36.4090   28.2420   34.0010 C   0  0  0  0  0  3  0  0  0  0  0  0
   36.8290   28.2020   32.6690 C   0  0  0  0  0  0  0  0  0  0  0  0
   36.3360   29.1430   31.8460 N   0  0  0  0  0  0  0  0  0  0  0  0
   36.7100   29.1490   30.5550 C   0  0  0  0  0  0  0  0  0  0  0  0
   36.2650   29.9410   29.9630 H   0  0  0  0  0  0  0  0  0  0  0  0
   37.5830   28.2520   29.9630 C   0  0  0  0  0  3  0  0  0  0  0  0
   38.0680   27.3050   30.8290 C   0  0  0  0  0  3  0  0  0  0  0  0
   37.7170   27.2530   32.1680 C   0  0  0  0  0  0  0  0  0  0  0  0
   38.1940   26.3110   33.0540 C   0  0  0  0  0  3  0  0  0  0  0  0
   41.8740   22.6720   35.3070 C   0  0  0  0  0  0  0  0  0  0  0  0
   40.8150   22.8270   36.1970 C   0  0  0  0  0  0  0  0  0  0  0  0
   40.8310   22.0250   37.3530 C   0  0  0  0  0  0  0  0  0  0  0  0
   41.8750   21.1550   37.5210 N   0  0  0  0  0  0  0  0  0  0  0  0
   42.8760   21.0490   36.6190 C   0  0  0  0  0  0  0  0  0  0  0  0
   42.8750   21.8170   35.4990 N   0  0  0  0  0  0  0  0  0  0  0  0
   41.8900   23.2690   34.4190 H   0  0  0  0  0  0  0  0  0  0  0  0
   40.0560   22.0630   38.1160 H   0  0  0  0  0  0  0  0  0  0  0  0
   43.6970   20.3510   36.7720 H   0  0  0  0  0  0  0  0  0  0  0  0
  1 21  1  0  0  0  0
  1  2  1  0  0  0  0
  2  6  1  0  0  0  0
  3  7  1  0  0  0  0
  3  2  2  0  0  0  0
  4  3  1  0  0  0  0
  5  4  1  0  0  0  0
  5  1  2  0  0  0  0
  8  9  1  0  0  0  0
  8  4  1  0  0  0  0
  9 10  1  0  0  0  0
 11  9  2  0  0  0  0
 12 11  1  0  0  0  0
 13 12  2  0  0  0  0
 14 13  1  0  0  0  0
 15 14  1  0  0  0  0
 16 14  2  0  0  0  0
 16 17  1  0  0  0  0
 17 18  2  0  0  0  0
 18 12  1  0  0  0  0
 18 19  1  0  0  0  0
 19  8  2  0  0  0  0
 20 25  2  0  0  0  0
 20 21  1  0  0  0  0
 21 22  2  0  0  0  0
 22 23  1  0  0  0  0
 22 27  1  0  0  0  0
 24 28  1  0  0  0  0
 24 23  2  0  0  0  0
 25 24  1  0  0  0  0
 26 20  1  0  0  0  0
M  END
>  <minimizedAffinity>
-5.20953894

$$$$
