
 OpenBabel03272503133D

 49 54  0  0  0  0  0  0  0  0999 V2000
   39.1550   32.2520   42.6030 C   0  0  0  0  0  0  0  0  0  0  0  0
   39.6940   31.5270   43.6540 C   0  0  0  0  0  0  0  0  0  0  0  0
   40.5760   30.5090   43.4790 C   0  0  0  0  0  0  0  0  0  0  0  0
   40.9800   30.1550   42.1960 C   0  0  0  0  0  0  0  0  0  0  0  0
   41.8120   29.2230   41.7360 N   0  0  0  0  0  0  0  0  0  0  0  0
   41.8240   29.3310   40.4020 C   0  0  0  0  0  0  0  0  0  0  0  0
   41.0020   30.3270   40.0280 N   0  0  0  0  0  0  0  0  0  0  0  0
   40.4450   30.8760   41.1420 C   0  0  0  0  0  0  0  0  0  0  0  0
   39.5440   31.9160   41.2980 C   0  0  0  0  0  0  0  0  0  0  0  0
   38.4640   33.0500   42.7410 H   0  0  0  0  0  0  0  0  0  0  0  0
   40.9780   29.9630   44.3150 H   0  0  0  0  0  0  0  0  0  0  0  0
   42.3750   28.5170   42.2650 H   0  0  0  0  0  0  0  0  0  0  0  0
   42.3350   28.8040   39.6260 H   0  0  0  0  0  0  0  0  0  0  0  0
   39.2420   31.9340   44.9710 C   0  0  0  0  0  0  0  0  0  0  0  0
   38.1520   32.5770   45.1050 O   0  0  0  0  0  0  0  0  0  0  0  0
   39.9520   31.6610   46.1850 N   0  0  0  0  0  0  0  0  0  0  0  0
   40.8320   31.1440   46.1260 H   0  0  0  0  0  0  0  0  0  0  0  0
   38.1180   30.1640   47.5100 F   0  0  0  0  0  0  0  0  0  0  0  0
   38.3800   31.4130   48.0110 C   0  0  0  0  0  0  0  0  0  0  0  0
   37.7170   31.8330   49.1300 C   0  0  0  0  0  0  0  0  0  0  0  0
   38.0210   33.0870   49.5810 C   0  0  0  0  0  0  0  0  0  0  0  0
   38.9360   33.8990   48.9630 C   0  0  0  0  0  0  0  0  0  0  0  0
   39.5970   33.4480   47.8260 C   0  0  0  0  0  0  0  0  0  0  0  0
   39.2990   32.1760   47.3540 C   0  0  0  0  0  0  0  0  0  0  0  0
   37.5030   33.4440   50.4750 H   0  0  0  0  0  0  0  0  0  0  0  0
   39.1830   34.8800   49.3030 H   0  0  0  0  0  0  0  0  0  0  0  0
   40.3390   33.9910   47.2480 H   0  0  0  0  0  0  0  0  0  0  0  0
   36.0730   29.3420   51.4560 C   0  0  0  0  0  0  0  0  0  0  0  0
   37.0450   30.2040   50.8840 C   0  0  0  0  0  0  0  0  0  0  0  0
   36.7520   30.9350   49.7540 C   0  0  0  0  0  0  0  0  0  0  0  0
   35.4910   30.7860   49.2170 N   0  0  0  0  0  0  0  0  0  0  0  0
   34.5810   29.9640   49.7720 C   0  0  0  0  0  0  0  0  0  0  0  0
   34.8680   29.2610   50.8650 N   0  0  0  0  0  0  0  0  0  0  0  0
   36.2940   28.7660   52.3430 H   0  0  0  0  0  0  0  0  0  0  0  0
   38.0250   30.2940   51.3340 H   0  0  0  0  0  0  0  0  0  0  0  0
   33.6560   29.9910   49.2020 H   0  0  0  0  0  0  0  0  0  0  0  0
   39.0190   32.6270   40.2430 O   0  0  0  0  0  0  0  0  0  0  0  0
   37.8220   33.2800   40.2000 C   0  0  0  0  0  0  0  0  0  0  0  0
   37.4680   33.9870   39.0500 C   0  0  0  0  0  0  0  0  0  0  0  0
   38.1460   34.0160   38.1880 H   0  0  0  0  0  0  0  0  0  0  0  0
   36.2760   34.6620   38.9510 C   0  0  0  0  0  0  0  0  0  0  0  0
   35.3670   34.6730   39.9910 C   0  0  0  0  0  0  0  0  0  0  0  0
   34.1950   35.3150   39.9450 N   0  0  0  0  0  0  0  0  0  0  0  0
   33.3180   35.3230   40.9580 C   0  0  0  0  0  0  0  0  0  0  0  0
   32.3600   35.8500   40.9120 H   0  0  0  0  0  0  0  0  0  0  0  0
   33.5870   34.6450   42.1460 C   0  0  0  0  0  0  0  0  0  0  0  0
   34.7970   33.9720   42.2170 C   0  0  0  0  0  0  0  0  0  0  0  0
   35.6810   33.9800   41.1630 C   0  0  0  0  0  0  0  0  0  0  0  0
   36.8990   33.3170   41.2020 C   0  0  0  0  0  0  0  0  0  0  0  0
  1 10  1  0  0  0  0
  1  2  1  0  0  0  0
  2 14  1  0  0  0  0
  3  2  2  0  0  0  0
  3 11  1  0  0  0  0
  4  3  1  0  0  0  0
  5  4  1  0  0  0  0
  5 12  1  0  0  0  0
  6  5  1  0  0  0  0
  7  6  2  0  0  0  0
  7  8  1  0  0  0  0
  8  9  1  0  0  0  0
  8  4  2  0  0  0  0
  9  1  2  0  0  0  0
 13  6  1  0  0  0  0
 14 15  2  0  0  0  0
 14 16  1  0  0  0  0
 16 24  1  0  0  0  0
 17 16  1  0  0  0  0
 18 19  1  0  0  0  0
 19 20  1  0  0  0  0
 20 21  2  0  0  0  0
 20 30  1  0  0  0  0
 21 25  1  0  0  0  0
 22 26  1  0  0  0  0
 22 21  1  0  0  0  0
 23 22  2  0  0  0  0
 24 23  1  0  0  0  0
 24 19  2  0  0  0  0
 27 23  1  0  0  0  0
 28 34  1  0  0  0  0
 29 35  1  0  0  0  0
 29 28  1  0  0  0  0
 30 29  2  0  0  0  0
 31 30  1  0  0  0  0
 31 32  2  0  0  0  0
 32 33  1  0  0  0  0
 33 28  2  0  0  0  0
 36 32  1  0  0  0  0
 37  9  1  0  0  0  0
 38 37  1  0  0  0  0
 38 49  1  0  0  0  0
 39 38  2  0  0  0  0
 40 39  1  0  0  0  0
 41 39  1  0  0  0  0
 41 42  2  0  0  0  0
 42 48  1  0  0  0  0
 43 42  1  0  0  0  0
 43 44  2  0  0  0  0
 44 46  1  0  0  0  0
 45 44  1  0  0  0  0
 46 47  2  0  0  0  0
 48 49  2  0  0  0  0
 48 47  1  0  0  0  0
M  END
>  <minimizedAffinity>
-8.06428528

>  <minimizedRMSD>
2.57366157

$$$$
