
 OpenBabel03272503133D

 49 54  0  0  0  0  0  0  0  0999 V2000
   39.0990   32.2600   42.6230 C   0  0  0  0  0  0  0  0  0  0  0  0
   39.6580   31.5440   43.6680 C   0  0  0  0  0  0  0  0  0  0  0  0
   40.5550   30.5390   43.4860 C   0  0  0  0  0  0  0  0  0  0  0  0
   40.9510   30.1900   42.1990 C   0  0  0  0  0  0  0  0  0  0  0  0
   41.7920   29.2710   41.7320 N   0  0  0  0  0  0  0  0  0  0  0  0
   41.7900   29.3770   40.3970 C   0  0  0  0  0  0  0  0  0  0  0  0
   40.9490   30.3610   40.0310 N   0  0  0  0  0  0  0  0  0  0  0  0
   40.3960   30.9020   41.1500 C   0  0  0  0  0  0  0  0  0  0  0  0
   39.4810   31.9290   41.3140 C   0  0  0  0  0  0  0  0  0  0  0  0
   38.3970   33.0470   42.7670 H   0  0  0  0  0  0  0  0  0  0  0  0
   40.9730   30.0000   44.3180 H   0  0  0  0  0  0  0  0  0  0  0  0
   42.3710   28.5730   42.2550 H   0  0  0  0  0  0  0  0  0  0  0  0
   42.3010   28.8570   39.6170 H   0  0  0  0  0  0  0  0  0  0  0  0
   39.2140   31.9450   44.9900 C   0  0  0  0  0  0  0  0  0  0  0  0
   38.1170   32.5750   45.1330 O   0  0  0  0  0  0  0  0  0  0  0  0
   39.9370   31.6800   46.1970 N   0  0  0  0  0  0  0  0  0  0  0  0
   40.8230   31.1730   46.1310 H   0  0  0  0  0  0  0  0  0  0  0  0
   38.1060   30.1750   47.5170 F   0  0  0  0  0  0  0  0  0  0  0  0
   38.3710   31.4200   48.0260 C   0  0  0  0  0  0  0  0  0  0  0  0
   37.7120   31.8320   49.1500 C   0  0  0  0  0  0  0  0  0  0  0  0
   38.0180   33.0820   49.6100 C   0  0  0  0  0  0  0  0  0  0  0  0
   38.9320   33.8980   48.9950 C   0  0  0  0  0  0  0  0  0  0  0  0
   39.5890   33.4550   47.8520 C   0  0  0  0  0  0  0  0  0  0  0  0
   39.2880   32.1870   47.3720 C   0  0  0  0  0  0  0  0  0  0  0  0
   37.5040   33.4340   50.5080 H   0  0  0  0  0  0  0  0  0  0  0  0
   39.1810   34.8760   49.3410 H   0  0  0  0  0  0  0  0  0  0  0  0
   40.3300   34.0010   47.2760 H   0  0  0  0  0  0  0  0  0  0  0  0
   36.0710   29.3300   51.4660 C   0  0  0  0  0  0  0  0  0  0  0  0
   37.0410   30.1950   50.8970 C   0  0  0  0  0  0  0  0  0  0  0  0
   36.7470   30.9310   49.7700 C   0  0  0  0  0  0  0  0  0  0  0  0
   35.4870   30.7830   49.2340 N   0  0  0  0  0  0  0  0  0  0  0  0
   34.5780   29.9580   49.7850 C   0  0  0  0  0  0  0  0  0  0  0  0
   34.8650   29.2510   50.8740 N   0  0  0  0  0  0  0  0  0  0  0  0
   36.2920   28.7500   52.3500 H   0  0  0  0  0  0  0  0  0  0  0  0
   38.0220   30.2840   51.3480 H   0  0  0  0  0  0  0  0  0  0  0  0
   33.6530   29.9870   49.2150 H   0  0  0  0  0  0  0  0  0  0  0  0
   38.9350   32.6310   40.2640 O   0  0  0  0  0  0  0  0  0  0  0  0
   37.6240   32.9630   40.0830 C   0  0  0  0  0  0  0  0  0  0  0  0
   36.8890   32.3330   39.0790 C   0  0  0  0  0  0  0  0  0  0  0  0
   37.3610   31.5750   38.4400 H   0  0  0  0  0  0  0  0  0  0  0  0
   35.5670   32.6280   38.8520 C   0  0  0  0  0  3  0  0  0  0  0  0
   34.8990   33.5680   39.6120 C   0  0  0  0  0  0  0  0  0  0  0  0
   33.6140   33.8910   39.4320 N   0  0  0  0  0  0  0  0  0  0  0  0
   32.9720   34.8060   40.1730 C   0  0  0  0  0  0  0  0  0  0  0  0
   31.9210   35.0640   40.0190 H   0  0  0  0  0  0  0  0  0  0  0  0
   33.6270   35.4860   41.1980 C   0  0  0  0  0  3  0  0  0  0  0  0
   34.9600   35.1670   41.4030 C   0  0  0  0  0  3  0  0  0  0  0  0
   35.5970   34.2260   40.6290 C   0  0  0  0  0  0  0  0  0  0  0  0
   36.9300   33.8840   40.8090 C   0  0  0  0  0  3  0  0  0  0  0  0
  1 10  1  0  0  0  0
  1  2  1  0  0  0  0
  2 14  1  0  0  0  0
  3  2  2  0  0  0  0
  3 11  1  0  0  0  0
  4  3  1  0  0  0  0
  5  4  1  0  0  0  0
  5 12  1  0  0  0  0
  6  5  1  0  0  0  0
  7  6  2  0  0  0  0
  7  8  1  0  0  0  0
  8  9  1  0  0  0  0
  8  4  2  0  0  0  0
  9  1  2  0  0  0  0
 13  6  1  0  0  0  0
 14 15  2  0  0  0  0
 14 16  1  0  0  0  0
 16 24  1  0  0  0  0
 17 16  1  0  0  0  0
 18 19  1  0  0  0  0
 19 20  1  0  0  0  0
 20 21  2  0  0  0  0
 20 30  1  0  0  0  0
 21 25  1  0  0  0  0
 22 26  1  0  0  0  0
 22 21  1  0  0  0  0
 23 22  2  0  0  0  0
 24 23  1  0  0  0  0
 24 19  2  0  0  0  0
 27 23  1  0  0  0  0
 28 34  1  0  0  0  0
 29 35  1  0  0  0  0
 29 28  1  0  0  0  0
 30 29  2  0  0  0  0
 31 30  1  0  0  0  0
 31 32  2  0  0  0  0
 32 33  1  0  0  0  0
 33 28  2  0  0  0  0
 36 32  1  0  0  0  0
 37  9  1  0  0  0  0
 38 37  1  0  0  0  0
 38 49  1  0  0  0  0
 39 38  2  0  0  0  0
 40 39  1  0  0  0  0
 41 39  1  0  0  0  0
 41 42  2  0  0  0  0
 42 48  1  0  0  0  0
 43 42  1  0  0  0  0
 43 44  2  0  0  0  0
 44 46  1  0  0  0  0
 45 44  1  0  0  0  0
 46 47  2  0  0  0  0
 48 49  2  0  0  0  0
 48 47  1  0  0  0  0
M  END
>  <minimizedAffinity>
-7.82779598

>  <minimizedRMSD>
2.29566264

$$$$
