
 OpenBabel03272500193D

 37 40  0  0  0  0  0  0  0  0999 V2000
   35.3560   29.1860   50.5290 C   0  0  0  0  0  0  0  0  0  0  0  0
   36.3690   29.9950   49.9660 C   0  0  0  0  0  0  0  0  0  0  0  0
   36.4290   30.1180   48.5870 C   0  0  0  0  0  0  0  0  0  0  0  0
   35.4940   29.4420   47.8480 N   0  0  0  0  0  0  0  0  0  0  0  0
   34.5510   28.6890   48.3930 C   0  0  0  0  0  0  0  0  0  0  0  0
   34.4800   28.5590   49.7170 N   0  0  0  0  0  0  0  0  0  0  0  0
   35.3160   29.0970   51.5890 H   0  0  0  0  0  0  0  0  0  0  0  0
   37.3260   30.9020   47.7950 C   0  0  0  0  0  0  0  0  0  0  0  0
   38.3640   31.7690   48.0130 C   0  0  0  0  0  0  0  0  0  0  0  0
   38.6560   31.8570   49.0440 H   0  0  0  0  0  0  0  0  0  0  0  0
   39.0410   32.4570   47.0370 C   0  0  0  0  0  0  0  0  0  0  0  0
   38.7000   32.3080   45.7110 C   0  0  0  0  0  0  0  0  0  0  0  0
   39.4250   33.0260   44.8380 N   0  0  0  0  0  0  0  0  0  0  0  0
   39.1360   32.9230   43.5090 C   0  0  0  0  0  0  0  0  0  0  0  0
   39.7000   33.4860   42.7860 H   0  0  0  0  0  0  0  0  0  0  0  0
   38.1000   32.0710   43.1460 C   0  0  0  0  0  0  0  0  0  0  0  0
   37.3630   31.3360   44.0730 C   0  0  0  0  0  0  0  0  0  0  0  0
   37.6680   31.4540   45.4110 C   0  0  0  0  0  0  0  0  0  0  0  0
   37.0170   30.7850   46.4250 C   0  0  0  0  0  0  0  0  0  0  0  0
   32.9450   30.4560   46.5360 Cl  0  0  0  0  0  0  0  0  0  0  0  0
   32.8030   28.7070   46.6270 C   0  0  0  0  0  0  0  0  0  0  0  0
   33.5940   27.9970   47.5190 C   0  0  0  0  0  0  0  0  0  0  0  0
   33.5200   26.6070   47.6250 C   0  0  0  0  0  0  0  0  0  0  0  0
   32.6070   25.9680   46.7870 C   0  0  0  0  0  0  0  0  0  0  0  0
   31.8190   26.6410   45.9040 C   0  0  0  0  0  0  0  0  0  0  0  0
   30.7130   25.7320   44.9070 Cl  0  0  0  0  0  0  0  0  0  0  0  0
   31.9240   28.0190   45.8310 C   0  0  0  0  0  0  0  0  0  0  0  0
   34.1390   26.0560   48.3200 H   0  0  0  0  0  0  0  0  0  0  0  0
   32.5500   24.9020   46.8690 H   0  0  0  0  0  0  0  0  0  0  0  0
   31.0710   28.7850   44.8710 C   0  0  0  0  0  0  0  0  0  0  0  0
   30.1050   27.9320   44.3200 F   0  0  0  0  0  0  0  0  0  0  0  0
   31.7910   29.4080   43.9100 F   0  0  0  0  0  0  0  0  0  0  0  0
   30.3430   29.7470   45.5720 F   0  0  0  0  0  0  0  0  0  0  0  0
   37.3170   30.7090   50.8590 C   0  0  0  0  0  0  0  0  0  0  0  0
   38.6300   30.4870   50.4990 F   0  0  0  0  0  0  0  0  0  0  0  0
   37.0500   32.0690   50.8150 F   0  0  0  0  0  0  0  0  0  0  0  0
   37.1730   30.3220   52.1830 F   0  0  0  0  0  0  0  0  0  0  0  0
  1  7  1  0  0  0  0
  2  1  1  0  0  0  0
  2 34  1  0  0  0  0
  3  2  2  0  0  0  0
  4  5  2  0  0  0  0
  4  3  1  0  0  0  0
  5  6  1  0  0  0  0
  6  1  2  0  0  0  0
  8  9  1  0  0  0  0
  8  3  1  0  0  0  0
  9 10  1  0  0  0  0
 11  9  2  0  0  0  0
 12 11  1  0  0  0  0
 13 12  2  0  0  0  0
 14 13  1  0  0  0  0
 15 14  1  0  0  0  0
 16 14  2  0  0  0  0
 16 17  1  0  0  0  0
 17 18  2  0  0  0  0
 18 12  1  0  0  0  0
 18 19  1  0  0  0  0
 19  8  2  0  0  0  0
 20 21  1  0  0  0  0
 21 22  1  0  0  0  0
 22 23  2  0  0  0  0
 22  5  1  0  0  0  0
 23 28  1  0  0  0  0
 24 29  1  0  0  0  0
 24 23  1  0  0  0  0
 25 24  2  0  0  0  0
 26 25  1  0  0  0  0
 27 25  1  0  0  0  0
 27 21  2  0  0  0  0
 30 33  1  0  0  0  0
 30 27  1  0  0  0  0
 31 30  1  0  0  0  0
 32 30  1  0  0  0  0
 34 37  1  0  0  0  0
 35 34  1  0  0  0  0
 36 34  1  0  0  0  0
M  END
>  <minimizedAffinity>
-7.6365757

>  <minimizedRMSD>
0.683284223

$$$$
