
 OpenBabel03272501583D

 34 37  0  0  0  0  0  0  0  0999 V2000
   32.9320   28.3420   47.8840 C   0  0  0  0  0  0  0  0  0  0  0  0
   32.2170   27.6160   48.8010 C   0  0  0  0  0  0  0  0  0  0  0  0
   30.8860   27.5420   48.4220 C   0  0  0  0  0  0  0  0  0  0  0  0
   30.8350   28.2340   47.2680 N   0  0  0  0  0  0  0  0  0  0  0  0
   32.0240   28.7060   46.9450 N   0  0  0  0  0  0  0  0  0  0  0  0
   32.5590   27.1340   49.7200 H   0  0  0  0  0  0  0  0  0  0  0  0
   30.0010   27.0820   48.8410 H   0  0  0  0  0  0  0  0  0  0  0  0
   29.7840   28.5470   46.3600 C   0  0  0  0  0  0  0  0  0  0  0  0
   29.4110   29.8380   46.0500 C   0  0  0  0  0  0  0  0  0  0  0  0
   29.9400   30.6430   46.5210 H   0  0  0  0  0  0  0  0  0  0  0  0
   28.3690   30.0010   45.1470 C   0  0  0  0  0  3  0  0  0  0  0  0
   27.7360   28.9200   44.5840 C   0  0  0  0  0  0  0  0  0  0  0  0
   26.7340   29.1210   43.7150 N   0  0  0  0  0  0  0  0  0  0  0  0
   26.0970   28.0720   43.1490 C   0  0  0  0  0  0  0  0  0  0  0  0
   25.2780   28.2720   42.4400 H   0  0  0  0  0  0  0  0  0  0  0  0
   26.4480   26.7650   43.4380 C   0  0  0  0  0  3  0  0  0  0  0  0
   27.4730   26.5290   44.3260 C   0  0  0  0  0  3  0  0  0  0  0  0
   28.0980   27.6230   44.8830 C   0  0  0  0  0  0  0  0  0  0  0  0
   29.1410   27.4610   45.7880 C   0  0  0  0  0  3  0  0  0  0  0  0
   34.4070   28.6370   47.9570 C   0  0  0  0  0  0  0  0  0  0  0  0
   34.9640   28.0250   47.2090 H   0  0  0  0  0  0  0  0  0  0  0  0
   34.5040   29.7110   47.7050 H   0  0  0  0  0  0  0  0  0  0  0  0
   34.8510   28.2840   49.3380 C   0  0  0  0  0  0  0  0  0  0  0  0
   35.1830   27.2290   49.4170 H   0  0  0  0  0  0  0  0  0  0  0  0
   34.0400   28.4410   50.0750 H   0  0  0  0  0  0  0  0  0  0  0  0
   37.2730   30.1880   51.4090 C   0  0  0  0  0  0  0  0  0  0  0  0
   38.0900   30.7820   50.4260 C   0  0  0  0  0  0  0  0  0  0  0  0
   37.8040   30.5260   49.0670 C   0  0  0  0  0  0  0  0  0  0  0  0
   36.7540   29.7180   48.7720 N   0  0  0  0  0  0  0  0  0  0  0  0
   35.9910   29.1650   49.7500 C   0  0  0  0  0  0  0  0  0  0  0  0
   36.2550   29.4010   51.0270 N   0  0  0  0  0  0  0  0  0  0  0  0
   37.4860   30.3790   52.4510 H   0  0  0  0  0  0  0  0  0  0  0  0
   38.9130   31.4150   50.6500 H   0  0  0  0  0  0  0  0  0  0  0  0
   38.3800   30.9410   48.2520 H   0  0  0  0  0  0  0  0  0  0  0  0
  1 20  1  0  0  0  0
  1  2  1  0  0  0  0
  2  6  1  0  0  0  0
  3  2  2  0  0  0  0
  3  7  1  0  0  0  0
  4  3  1  0  0  0  0
  5  4  1  0  0  0  0
  5  1  2  0  0  0  0
  8  4  1  0  0  0  0
  9  8  1  0  0  0  0
  9 10  1  0  0  0  0
 11  9  2  0  0  0  0
 12 18  1  0  0  0  0
 12 11  1  0  0  0  0
 13 12  2  0  0  0  0
 14 16  2  0  0  0  0
 14 13  1  0  0  0  0
 15 14  1  0  0  0  0
 16 17  1  0  0  0  0
 17 18  2  0  0  0  0
 18 19  1  0  0  0  0
 19  8  2  0  0  0  0
 20 23  1  0  0  0  0
 21 20  1  0  0  0  0
 22 20  1  0  0  0  0
 23 24  1  0  0  0  0
 23 30  1  0  0  0  0
 23 25  1  0  0  0  0
 26 32  1  0  0  0  0
 27 33  1  0  0  0  0
 27 26  2  0  0  0  0
 28 27  1  0  0  0  0
 29 28  2  0  0  0  0
 29 30  1  0  0  0  0
 30 31  2  0  0  0  0
 31 26  1  0  0  0  0
 34 28  1  0  0  0  0
M  END
>  <minimizedAffinity>
-5.2337594

>  <minimizedRMSD>
1.22453427

$$$$
