
 OpenBabel03272509583D

 49 53  0  0  0  0  0  0  0  0999 V2000
   33.5360   27.5080   47.7110 C   0  0  0  0  0  0  0  0  0  0  0  0
   33.7060   26.6230   48.3230 H   0  0  0  0  0  0  0  0  0  0  0  0
   33.7580   27.2100   46.6620 H   0  0  0  0  0  0  0  0  0  0  0  0
   32.0930   27.8790   47.7380 C   0  0  0  0  0  0  0  0  0  0  0  0
   31.3450   27.4330   48.8100 C   0  0  0  0  0  0  0  0  0  0  0  0
   30.0000   27.7220   48.9290 C   0  0  0  0  0  0  0  0  0  0  0  0
   29.4090   28.4530   47.9830 N   0  0  0  0  0  0  0  0  0  0  0  0
   30.1540   28.8860   46.9340 C   0  0  0  0  0  0  0  0  0  0  0  0
   31.4630   28.6140   46.8020 N   0  0  0  0  0  0  0  0  0  0  0  0
   31.7800   26.8390   49.6000 H   0  0  0  0  0  0  0  0  0  0  0  0
   29.3960   27.3740   49.7730 H   0  0  0  0  0  0  0  0  0  0  0  0
   29.4710   29.6980   45.8920 C   0  0  0  0  0  0  0  0  0  0  0  0
   29.1020   30.6640   46.2930 H   0  0  0  0  0  0  0  0  0  0  0  0
   30.2430   29.9620   45.1380 H   0  0  0  0  0  0  0  0  0  0  0  0
   28.3570   28.9260   45.2500 C   0  0  0  0  0  0  0  0  0  0  0  0
   27.0560   29.3820   45.2030 C   0  0  0  0  0  0  0  0  0  0  0  0
   26.8210   30.3400   45.6490 H   0  0  0  0  0  0  0  0  0  0  0  0
   26.1250   28.5690   44.5790 C   0  0  0  0  0  3  0  0  0  0  0  0
   26.4710   27.3450   44.0180 C   0  0  0  0  0  0  0  0  0  0  0  0
   25.5680   26.5630   43.4170 N   0  0  0  0  0  0  0  0  0  0  0  0
   25.9530   25.3830   42.8890 C   0  0  0  0  0  0  0  0  0  0  0  0
   25.2650   24.7030   42.3860 H   0  0  0  0  0  0  0  0  0  0  0  0
   27.2670   24.9140   42.9300 C   0  0  0  0  0  3  0  0  0  0  0  0
   28.2050   25.6920   43.5380 C   0  0  0  0  0  3  0  0  0  0  0  0
   27.7910   26.8980   44.0740 C   0  0  0  0  0  0  0  0  0  0  0  0
   28.7070   27.6970   44.6880 C   0  0  0  0  0  3  0  0  0  0  0  0
   34.4310   28.6130   48.1690 C   0  0  0  0  0  0  0  0  0  0  0  0
   33.9430   29.6080   48.1400 H   0  0  0  0  0  0  0  0  0  0  0  0
   35.2950   28.6680   47.4750 H   0  0  0  0  0  0  0  0  0  0  0  0
   34.9780   28.3480   49.4470 O   0  0  0  0  0  0  0  0  0  0  0  0
   37.3110   30.1610   51.5110 C   0  0  0  0  0  0  0  0  0  0  0  0
   38.0470   30.8550   50.5180 C   0  0  0  0  0  0  0  0  0  0  0  0
   37.6770   30.6420   49.1930 C   0  0  0  0  0  0  0  0  0  0  0  0
   36.6360   29.7790   48.9830 N   0  0  0  0  0  0  0  0  0  0  0  0
   35.9600   29.1410   49.9330 C   0  0  0  0  0  0  0  0  0  0  0  0
   36.3090   29.3390   51.2180 N   0  0  0  0  0  0  0  0  0  0  0  0
   37.6520   30.3760   52.5120 H   0  0  0  0  0  0  0  0  0  0  0  0
   38.8590   31.5250   50.7110 H   0  0  0  0  0  0  0  0  0  0  0  0
   38.9340   33.2430   49.0200 F   0  0  0  0  0  0  0  0  0  0  0  0
   38.8970   32.4610   47.9490 C   0  0  0  0  0  0  0  0  0  0  0  0
   38.3090   31.2570   48.0550 C   0  0  0  0  0  0  0  0  0  0  0  0
   38.3250   30.5130   46.8690 C   0  0  0  0  0  0  0  0  0  0  0  0
   38.8920   30.9800   45.7170 C   0  0  0  0  0  0  0  0  0  0  0  0
   39.4840   32.2220   45.6630 C   0  0  0  0  0  0  0  0  0  0  0  0
   39.4760   32.9560   46.8040 C   0  0  0  0  0  0  0  0  0  0  0  0
   37.8860   29.5230   46.8090 H   0  0  0  0  0  0  0  0  0  0  0  0
   38.9020   30.3900   44.7920 H   0  0  0  0  0  0  0  0  0  0  0  0
   39.9260   32.5720   44.7450 H   0  0  0  0  0  0  0  0  0  0  0  0
   39.9360   33.9360   46.7800 H   0  0  0  0  0  0  0  0  0  0  0  0
  1  4  1  0  0  0  0
  1 27  1  0  0  0  0
  1  2  1  0  0  0  0
  3  1  1  0  0  0  0
  4  5  1  0  0  0  0
  5  6  2  0  0  0  0
  5 10  1  0  0  0  0
  6 11  1  0  0  0  0
  7  6  1  0  0  0  0
  8  7  2  0  0  0  0
  9  8  1  0  0  0  0
  9  4  2  0  0  0  0
 12 13  1  0  0  0  0
 12  8  1  0  0  0  0
 14 12  1  0  0  0  0
 15 12  1  0  0  0  0
 16 15  1  0  0  0  0
 16 17  1  0  0  0  0
 18 16  2  0  0  0  0
 19 25  1  0  0  0  0
 19 18  1  0  0  0  0
 20 19  2  0  0  0  0
 21 23  2  0  0  0  0
 21 20  1  0  0  0  0
 22 21  1  0  0  0  0
 23 24  1  0  0  0  0
 24 25  2  0  0  0  0
 25 26  1  0  0  0  0
 26 15  2  0  0  0  0
 27 30  1  0  0  0  0
 28 27  1  0  0  0  0
 29 27  1  0  0  0  0
 30 35  1  0  0  0  0
 31 37  1  0  0  0  0
 32 38  1  0  0  0  0
 32 31  2  0  0  0  0
 33 32  1  0  0  0  0
 34 33  2  0  0  0  0
 34 35  1  0  0  0  0
 35 36  2  0  0  0  0
 36 31  1  0  0  0  0
 40 41  1  0  0  0  0
 40 39  1  0  0  0  0
 41 33  1  0  0  0  0
 42 41  2  0  0  0  0
 43 42  1  0  0  0  0
 44 43  2  0  0  0  0
 44 45  1  0  0  0  0
 45 40  2  0  0  0  0
 46 42  1  0  0  0  0
 47 43  1  0  0  0  0
 48 44  1  0  0  0  0
 49 45  1  0  0  0  0
M  END
>  <minimizedAffinity>
-6.99434996

>  <minimizedRMSD>
1.09816039

$$$$
