
 OpenBabel03272510083D

 47 52  0  0  0  0  0  0  0  0999 V2000
   35.6840   29.0610   49.3210 C   0  0  0  0  0  0  0  0  0  0  0  0
   36.2760   28.7760   50.5110 N   0  0  0  0  0  0  0  0  0  0  0  0
   37.5020   29.2580   50.7770 C   0  0  0  0  0  0  0  0  0  0  0  0
   38.2240   30.0370   49.9220 N   0  0  0  0  0  0  0  0  0  0  0  0
   37.6660   30.3390   48.7330 C   0  0  0  0  0  0  0  0  0  0  0  0
   38.3080   31.1380   47.8000 C   0  0  0  0  0  0  0  0  0  0  0  0
   37.6910   31.4440   46.5830 C   0  0  0  0  0  0  0  0  0  0  0  0
   36.4150   30.9340   46.3170 C   0  0  0  0  0  0  0  0  0  0  0  0
   35.8130   30.1390   47.2830 C   0  0  0  0  0  0  0  0  0  0  0  0
   36.4120   29.8420   48.4660 C   0  0  0  0  0  0  0  0  0  0  0  0
   38.0300   29.0640   51.7120 H   0  0  0  0  0  0  0  0  0  0  0  0
   39.2910   31.4870   48.0880 H   0  0  0  0  0  0  0  0  0  0  0  0
   38.2890   32.0740   45.9430 H   0  0  0  0  0  0  0  0  0  0  0  0
   36.1330   31.2890   45.3390 H   0  0  0  0  0  0  0  0  0  0  0  0
   33.9940   27.3900   48.3960 C   0  0  0  0  0  0  0  0  0  0  0  0
   34.3810   28.5220   49.1480 C   0  0  0  0  0  0  0  0  0  0  0  0
   33.3700   29.2510   49.8260 C   0  0  0  0  0  0  0  0  0  0  0  0
   32.0780   28.8500   49.7300 N   0  0  0  0  0  0  0  0  0  0  0  0
   31.7700   27.7500   48.9820 C   0  0  0  0  0  0  0  0  0  0  0  0
   32.6960   27.0380   48.3350 N   0  0  0  0  0  0  0  0  0  0  0  0
   30.3730   27.3850   48.8910 N   0  0  0  0  0  0  0  0  0  0  0  0
   29.5560   27.0270   50.0100 C   0  0  0  0  0  0  0  0  0  0  0  0
   28.1610   27.0030   49.4720 C   0  0  0  0  0  0  0  0  0  0  0  0
   28.2210   27.5800   48.0620 C   0  0  0  0  0  0  0  0  0  0  0  0
   29.6050   27.3360   47.6340 C   0  0  0  0  0  0  0  0  0  0  0  0
   34.8150   26.8820   47.9110 H   0  0  0  0  0  0  0  0  0  0  0  0
   33.5670   30.1180   50.4220 H   0  0  0  0  0  0  0  0  0  0  0  0
   29.8920   26.0470   50.4180 H   0  0  0  0  0  0  0  0  0  0  0  0
   29.6230   27.7970   50.8120 H   0  0  0  0  0  0  0  0  0  0  0  0
   27.4570   27.6060   50.1000 H   0  0  0  0  0  0  0  0  0  0  0  0
   27.7140   25.9860   49.4230 H   0  0  0  0  0  0  0  0  0  0  0  0
   27.9960   28.6650   48.0600 H   0  0  0  0  0  0  0  0  0  0  0  0
   27.4990   27.0240   47.4250 H   0  0  0  0  0  0  0  0  0  0  0  0
   30.0470   28.0120   46.9040 H   0  0  0  0  0  0  0  0  0  0  0  0
   29.7730   26.3030   47.2250 H   0  0  0  0  0  0  0  0  0  0  0  0
   34.5730   29.7730   46.6210 C   0  0  0  0  0  0  0  0  0  0  0  0
   33.2790   30.2510   46.6730 C   0  0  0  0  0  0  0  0  0  0  0  0
   33.2290   31.0970   47.3830 H   0  0  0  0  0  0  0  0  0  0  0  0
   32.1910   29.7790   45.9930 C   0  0  0  0  0  3  0  0  0  0  0  0
   32.4080   28.7060   45.1640 C   0  0  0  0  0  0  0  0  0  0  0  0
   31.3600   28.2150   44.4800 N   0  0  0  0  0  0  0  0  0  0  0  0
   31.4940   27.1580   43.6430 C   0  0  0  0  0  0  0  0  0  0  0  0
   30.6340   26.7560   43.0840 H   0  0  0  0  0  0  0  0  0  0  0  0
   32.7440   26.5540   43.4770 C   0  0  0  0  0  3  0  0  0  0  0  0
   33.8590   27.0230   44.1600 C   0  0  0  0  0  3  0  0  0  0  0  0
   33.6230   28.0930   44.9820 C   0  0  0  0  0  0  0  0  0  0  0  0
   34.6470   28.6670   45.7270 C   0  0  0  0  0  3  0  0  0  0  0  0
  1  2  1  0  0  0  0
  2  3  2  0  0  0  0
  3 11  1  0  0  0  0
  4  3  1  0  0  0  0
  5  4  2  0  0  0  0
  6 12  1  0  0  0  0
  6  5  1  0  0  0  0
  7  6  2  0  0  0  0
  8  7  1  0  0  0  0
  8  9  2  0  0  0  0
  9 10  1  0  0  0  0
 10  5  1  0  0  0  0
 10  1  2  0  0  0  0
 13  7  1  0  0  0  0
 14  8  1  0  0  0  0
 15 16  1  0  0  0  0
 16  1  1  0  0  0  0
 16 17  2  0  0  0  0
 17 27  1  0  0  0  0
 18 17  1  0  0  0  0
 19 18  2  0  0  0  0
 20 15  2  0  0  0  0
 20 19  1  0  0  0  0
 21 19  1  0  0  0  0
 21 22  1  0  0  0  0
 22 28  1  0  0  0  0
 22 29  1  0  0  0  0
 23 22  1  0  0  0  0
 23 30  1  0  0  0  0
 24 23  1  0  0  0  0
 25 24  1  0  0  0  0
 25 21  1  0  0  0  0
 26 15  1  0  0  0  0
 31 23  1  0  0  0  0
 32 24  1  0  0  0  0
 33 24  1  0  0  0  0
 34 25  1  0  0  0  0
 35 25  1  0  0  0  0
 36 37  1  0  0  0  0
 36  9  1  0  0  0  0
 37 38  1  0  0  0  0
 39 37  2  0  0  0  0
 40 39  1  0  0  0  0
 41 40  2  0  0  0  0
 42 41  1  0  0  0  0
 43 42  1  0  0  0  0
 44 42  2  0  0  0  0
 44 45  1  0  0  0  0
 45 46  2  0  0  0  0
 46 40  1  0  0  0  0
 46 47  1  0  0  0  0
 47 36  2  0  0  0  0
M  END
>  <minimizedAffinity>
-5.85313749

>  <minimizedRMSD>
3.25577664

$$$$
