
 OpenBabel03272505273D

 34 37  0  0  0  0  0  0  0  0999 V2000
   37.3710   31.0670   47.1480 N   0  0  0  0  0  0  0  0  0  0  0  0
   36.7640   30.7620   45.9690 C   0  0  0  0  0  0  0  0  0  0  0  0
   37.2120   31.2520   44.7530 C   0  0  0  0  0  0  0  0  0  0  0  0
   38.3410   32.0930   44.7810 C   0  0  0  0  0  0  0  0  0  0  0  0
   38.7810   32.5580   43.7060 O   0  0  0  0  0  0  0  0  0  0  0  0
   38.9510   32.4000   45.9600 N   0  0  0  0  0  0  0  0  0  0  0  0
   38.4210   31.8650   47.0650 C   0  0  0  0  0  0  0  0  0  0  0  0
   39.0080   32.1710   48.1290 O   0  0  0  0  0  0  0  0  0  0  0  0
   35.9100   30.1260   45.9360 H   0  0  0  0  0  0  0  0  0  0  0  0
   36.5590   30.9230   43.4890 C   0  0  0  0  0  0  0  0  0  0  0  0
   36.9780   29.7310   42.8910 C   0  0  0  0  0  0  0  0  0  0  0  0
   37.7330   29.0770   43.3140 H   0  0  0  0  0  0  0  0  0  0  0  0
   36.4440   29.2930   41.6860 C   0  0  0  0  0  3  0  0  0  0  0  0
   35.4760   30.0620   41.0730 C   0  0  0  0  0  0  0  0  0  0  0  0
   34.9150   29.6820   39.8900 N   0  0  0  0  0  0  0  0  0  0  0  0
   33.9710   30.4340   39.2930 C   0  0  0  0  0  0  0  0  0  0  0  0
   33.6240   29.9950   38.3570 H   0  0  0  0  0  0  0  0  0  0  0  0
   33.5430   31.6170   39.8680 C   0  0  0  0  0  3  0  0  0  0  0  0
   34.0950   32.0260   41.0670 C   0  0  0  0  0  3  0  0  0  0  0  0
   35.0610   31.2520   41.6750 C   0  0  0  0  0  0  0  0  0  0  0  0
   35.5880   31.6940   42.8730 C   0  0  0  0  0  3  0  0  0  0  0  0
   37.2630   29.4630   50.4920 C   0  0  0  0  0  0  0  0  0  0  0  0
   37.7390   29.9570   49.2710 C   0  0  0  0  0  0  0  0  0  0  0  0
   36.9050   30.5650   48.3660 C   0  0  0  0  0  0  0  0  0  0  0  0
   35.5930   30.6730   48.6950 N   0  0  0  0  0  0  0  0  0  0  0  0
   35.0990   30.2030   49.8730 C   0  0  0  0  0  0  0  0  0  0  0  0
   35.9310   29.5980   50.7730 N   0  0  0  0  0  0  0  0  0  0  0  0
   37.8670   28.9760   51.2430 H   0  0  0  0  0  0  0  0  0  0  0  0
   38.7800   29.7730   49.1840 H   0  0  0  0  0  0  0  0  0  0  0  0
   34.0410   30.3380   50.0410 H   0  0  0  0  0  0  0  0  0  0  0  0
   40.1110   33.2630   45.9810 C   0  0  0  0  0  0  0  0  0  0  0  0
   39.9780   34.2390   45.0360 F   0  0  0  0  0  0  0  0  0  0  0  0
   41.2930   32.5910   45.7050 F   0  0  0  0  0  0  0  0  0  0  0  0
   40.1880   33.8790   47.2240 F   0  0  0  0  0  0  0  0  0  0  0  0
  1 24  1  0  0  0  0
  2  1  1  0  0  0  0
  3  4  1  0  0  0  0
  3  2  2  0  0  0  0
  4  6  1  0  0  0  0
  5  4  2  0  0  0  0
  6 31  1  0  0  0  0
  6  7  1  0  0  0  0
  7  1  1  0  0  0  0
  7  8  2  0  0  0  0
  9  2  1  0  0  0  0
 10  3  1  0  0  0  0
 11 12  1  0  0  0  0
 11 10  1  0  0  0  0
 13 11  2  0  0  0  0
 14 20  1  0  0  0  0
 14 13  1  0  0  0  0
 15 14  2  0  0  0  0
 16 18  2  0  0  0  0
 16 15  1  0  0  0  0
 17 16  1  0  0  0  0
 18 19  1  0  0  0  0
 19 20  2  0  0  0  0
 20 21  1  0  0  0  0
 21 10  2  0  0  0  0
 22 27  1  0  0  0  0
 22 28  1  0  0  0  0
 23 22  2  0  0  0  0
 24 25  2  0  0  0  0
 24 23  1  0  0  0  0
 25 26  1  0  0  0  0
 26 30  1  0  0  0  0
 26 27  2  0  0  0  0
 29 23  1  0  0  0  0
 31 34  1  0  0  0  0
 32 31  1  0  0  0  0
 33 31  1  0  0  0  0
M  END
>  <minimizedAffinity>
-6.21803999

>  <minimizedRMSD>
1.0097506

$$$$
