
 OpenBabel03272508473D

 41 45  0  0  0  0  0  0  0  0999 V2000
   35.5250   29.5710   49.6720 C   0  0  0  0  0  0  0  0  0  0  0  0
   36.5500   29.2420   50.5330 C   0  0  0  0  0  0  0  0  0  0  0  0
   37.6840   29.7470   49.9040 C   0  0  0  0  0  0  0  0  0  0  0  0
   37.3120   30.3410   48.7280 C   0  0  0  0  0  0  0  0  0  0  0  0
   35.9970   30.2190   48.6130 O   0  0  0  0  0  0  0  0  0  0  0  0
   36.5360   28.7220   51.4770 H   0  0  0  0  0  0  0  0  0  0  0  0
   38.7010   29.7120   50.2280 H   0  0  0  0  0  0  0  0  0  0  0  0
   38.6240   32.2800   48.0000 C   0  0  0  0  0  0  0  0  0  0  0  0
   38.1820   30.9960   47.7550 C   0  0  0  0  0  0  0  0  0  0  0  0
   38.5420   30.3010   46.6010 C   0  0  0  0  0  0  0  0  0  0  0  0
   39.3650   30.9010   45.6650 C   0  0  0  0  0  0  0  0  0  0  0  0
   39.8840   30.5130   44.4790 N   0  0  0  0  0  0  0  0  0  0  0  0
   40.6170   31.5320   44.0210 N   0  0  0  0  0  0  0  0  0  0  0  0
   40.5760   32.5540   44.8840 C   0  0  0  0  0  0  0  0  0  0  0  0
   39.7800   32.1850   45.9550 C   0  0  0  0  0  0  0  0  0  0  0  0
   39.4580   32.9120   47.0680 C   0  0  0  0  0  0  0  0  0  0  0  0
   38.3510   32.8270   48.8890 H   0  0  0  0  0  0  0  0  0  0  0  0
   38.1910   29.2810   46.4090 H   0  0  0  0  0  0  0  0  0  0  0  0
   39.6970   29.5600   44.0580 H   0  0  0  0  0  0  0  0  0  0  0  0
   41.1090   33.4750   44.6910 H   0  0  0  0  0  0  0  0  0  0  0  0
   39.8210   33.9190   47.2310 H   0  0  0  0  0  0  0  0  0  0  0  0
   34.1150   29.2480   49.9010 C   0  0  0  0  0  0  0  0  0  0  0  0
   33.5350   29.8040   50.8550 O   0  0  0  0  0  0  0  0  0  0  0  0
   31.4590   27.2190   48.4430 C   0  0  0  0  0  0  0  0  0  0  0  0
   32.1000   26.5390   47.4190 C   0  0  0  0  0  0  0  0  0  0  0  0
   33.4420   26.7650   47.2170 C   0  0  0  0  0  0  0  0  0  0  0  0
   34.0780   27.6440   48.0270 N   0  0  0  0  0  0  0  0  0  0  0  0
   33.4390   28.2990   49.0220 C   0  0  0  0  0  0  0  0  0  0  0  0
   32.1290   28.0810   49.2220 N   0  0  0  0  0  0  0  0  0  0  0  0
   30.3970   27.0380   48.6010 H   0  0  0  0  0  0  0  0  0  0  0  0
   31.5230   25.8460   46.8060 H   0  0  0  0  0  0  0  0  0  0  0  0
   34.1060   26.0690   46.1660 N   0  0  0  0  0  0  0  0  0  0  0  0
   34.5720   24.8130   46.3410 C   0  0  0  0  0  3  0  0  0  0  0  0
   35.2240   24.1300   45.3080 C   0  0  0  0  0  0  0  0  0  0  0  0
   35.5970   23.1230   45.4490 H   0  0  0  0  0  0  0  0  0  0  0  0
   35.3600   24.8200   44.1130 C   0  0  0  0  0  0  0  0  0  0  0  0
   35.9500   24.2380   43.1420 O   0  0  0  0  0  0  0  0  0  0  0  0
   34.8790   26.0890   43.9720 N   0  0  0  0  0  0  0  0  0  0  0  0
   34.2580   26.7060   44.9900 C   0  0  0  0  0  0  0  0  0  0  0  0
   33.8580   27.8710   44.7390 O   0  0  0  0  0  0  0  0  0  0  0  0
   35.0220   26.5510   43.0250 H   0  0  0  0  0  0  0  0  0  0  0  0
  1 22  1  0  0  0  0
  1  2  2  0  0  0  0
  2  6  1  0  0  0  0
  3  7  1  0  0  0  0
  3  2  1  0  0  0  0
  4  3  2  0  0  0  0
  5  4  1  0  0  0  0
  5  1  1  0  0  0  0
  8 17  1  0  0  0  0
  9  8  1  0  0  0  0
  9  4  1  0  0  0  0
 10  9  2  0  0  0  0
 11 15  2  0  0  0  0
 11 10  1  0  0  0  0
 12 11  1  0  0  0  0
 13 12  1  0  0  0  0
 13 14  2  0  0  0  0
 14 15  1  0  0  0  0
 15 16  1  0  0  0  0
 16 21  1  0  0  0  0
 16  8  2  0  0  0  0
 18 10  1  0  0  0  0
 19 12  1  0  0  0  0
 20 14  1  0  0  0  0
 22 23  2  0  0  0  0
 24 30  1  0  0  0  0
 24 29  1  0  0  0  0
 25 24  2  0  0  0  0
 26 25  1  0  0  0  0
 26 27  2  0  0  0  0
 27 28  1  0  0  0  0
 28 29  2  0  0  0  0
 28 22  1  0  0  0  0
 31 25  1  0  0  0  0
 32 33  1  0  0  0  0
 32 26  1  0  0  0  0
 34 35  1  0  0  0  0
 34 33  2  0  0  0  0
 36 34  1  0  0  0  0
 37 36  2  0  0  0  0
 38 36  1  0  0  0  0
 38 39  1  0  0  0  0
 39 32  1  0  0  0  0
 40 39  2  0  0  0  0
 41 38  1  0  0  0  0
M  END
>  <minimizedAffinity>
-6.689013

>  <minimizedRMSD>
0.630212247

$$$$
