
 OpenBabel03272508573D

 41 44  0  0  1  0  0  0  0  0999 V2000
   39.1740   31.3890   43.3620 C   0  0  0  0  0  0  0  0  0  0  0  0
   40.2520   30.5650   43.5490 C   0  0  0  0  0  0  0  0  0  0  0  0
   40.9570   30.1820   42.4130 C   0  0  0  0  0  0  0  0  0  0  0  0
   40.5300   30.6500   41.1890 C   0  0  0  0  0  0  0  0  0  0  0  0
   39.4420   31.4800   41.0120 C   0  0  0  0  0  0  0  0  0  0  0  0
   38.7780   31.8350   42.1410 N   0  0  0  0  0  0  0  0  0  0  0  0
   40.5700   30.2080   44.5220 H   0  0  0  0  0  0  0  0  0  0  0  0
   41.8080   29.5410   42.4840 H   0  0  0  0  0  0  0  0  0  0  0  0
   41.0980   30.3340   40.3300 H   0  0  0  0  0  0  0  0  0  0  0  0
   38.3960   31.8330   44.5440 C   0  0  0  0  0  0  0  0  0  0  0  0
   37.3360   32.4600   44.4430 O   0  0  0  0  0  0  0  0  0  0  0  0
   38.9390   31.4960   45.8530 N   0  0  0  0  0  0  0  0  0  0  0  0
   39.9120   31.1670   46.0130 H   0  0  0  0  0  0  0  0  0  0  0  0
   38.4190   31.0570   48.2500 C   0  0  2  0  0  0  0  0  0  0  0  0
   38.6610   32.5180   48.1160 C   0  0  0  0  0  0  0  0  0  0  0  0
   38.0630   31.6310   46.9930 C   0  0  1  0  0  0  0  0  0  0  0  0
   39.3610   30.4810   48.3750 H   0  0  0  0  0  0  0  0  0  0  0  0
   37.9690   33.2330   48.6110 H   0  0  0  0  0  0  0  0  0  0  0  0
   39.6680   32.9070   47.9780 H   0  0  0  0  0  0  0  0  0  0  0  0
   36.9740   31.8560   46.7780 H   0  0  0  0  0  0  0  0  0  0  0  0
   35.0510   30.2030   49.5620 C   0  0  0  0  0  0  0  0  0  0  0  0
   35.3710   29.5870   50.8050 C   0  0  0  0  0  0  0  0  0  0  0  0
   36.7600   29.4810   51.1790 C   0  0  0  0  0  0  0  0  0  0  0  0
   37.7260   29.9730   50.3330 N   0  0  0  0  0  0  0  0  0  0  0  0
   37.3300   30.5490   49.1620 C   0  0  0  0  0  0  0  0  0  0  0  0
   36.0100   30.6820   48.7420 N   0  0  0  0  0  0  0  0  0  0  0  0
   34.0170   30.2720   49.3030 H   0  0  0  0  0  0  0  0  0  0  0  0
   34.6280   29.2050   51.4600 H   0  0  0  0  0  0  0  0  0  0  0  0
   37.0100   29.0130   52.1210 H   0  0  0  0  0  0  0  0  0  0  0  0
   39.0370   31.9300   39.6930 C   0  0  0  0  0  0  0  0  0  0  0  0
   39.8950   32.1520   38.8150 O   0  0  0  0  0  0  0  0  0  0  0  0
   34.7940   30.5180   38.9330 H   0  0  0  0  0  0  0  0  0  0  0  0
   35.4510   31.3080   39.1270 N   0  0  0  0  0  0  0  0  0  0  0  0
   36.7720   31.0090   39.2660 C   0  0  0  0  0  3  0  0  0  0  0  0
   37.5980   32.0850   39.5190 C   0  0  0  0  0  0  0  0  0  0  0  0
   37.1500   33.3880   39.6290 C   0  0  0  0  0  0  0  0  0  0  0  0
   37.8910   34.3570   39.8560 O   0  0  0  0  0  0  0  0  0  0  0  0
   35.8150   33.6330   39.4810 N   0  0  0  0  0  0  0  0  0  0  0  0
   35.0010   32.5740   39.2310 C   0  0  0  0  0  0  0  0  0  0  0  0
   33.7830   32.8630   39.1050 O   0  0  0  0  0  0  0  0  0  0  0  0
   35.4710   34.6080   39.5620 H   0  0  0  0  0  0  0  0  0  0  0  0
  1  2  1  0  0  0  0
  1 10  1  0  0  0  0
  2  7  1  0  0  0  0
  3  8  1  0  0  0  0
  3  2  2  0  0  0  0
  4  3  1  0  0  0  0
  5  4  2  0  0  0  0
  5  6  1  0  0  0  0
  6  1  2  0  0  0  0
  9  4  1  0  0  0  0
 10 12  1  0  0  0  0
 11 10  2  0  0  0  0
 12 13  1  0  0  0  0
 12 16  1  0  0  0  0
 14 17  1  6  0  0  0
 14 25  1  0  0  0  0
 15 14  1  0  0  0  0
 15 18  1  0  0  0  0
 16 20  1  6  0  0  0
 16 15  1  0  0  0  0
 16 14  1  0  0  0  0
 19 15  1  0  0  0  0
 21 22  1  0  0  0  0
 22 23  2  0  0  0  0
 22 28  1  0  0  0  0
 23 29  1  0  0  0  0
 24 23  1  0  0  0  0
 25 24  2  0  0  0  0
 26 25  1  0  0  0  0
 26 21  2  0  0  0  0
 27 21  1  0  0  0  0
 30  5  1  0  0  0  0
 31 30  2  0  0  0  0
 32 33  1  0  0  0  0
 33 39  1  0  0  0  0
 33 34  1  0  0  0  0
 34 35  2  0  0  0  0
 35 36  1  0  0  0  0
 35 30  1  0  0  0  0
 36 37  2  0  0  0  0
 38 41  1  0  0  0  0
 38 36  1  0  0  0  0
 39 38  1  0  0  0  0
 40 39  2  0  0  0  0
M  END
>  <minimizedAffinity>
-5.15138102

>  <minimizedRMSD>
2.86891556

$$$$
