
 OpenBabel03272508053D

 36 39  0  0  0  0  0  0  0  0999 V2000
   38.9040   30.8920   45.7720 C   0  0  0  0  0  0  0  0  0  0  0  0
   40.1000   31.5490   46.0250 C   0  0  0  0  0  0  0  0  0  0  0  0
   40.9280   31.4860   44.9170 C   0  0  0  0  0  0  0  0  0  0  0  0
   40.1880   30.7770   44.0160 N   0  0  0  0  0  0  0  0  0  0  0  0
   39.0220   30.4390   44.5200 N   0  0  0  0  0  0  0  0  0  0  0  0
   40.3650   32.0450   46.9450 H   0  0  0  0  0  0  0  0  0  0  0  0
   41.9140   31.8710   44.7390 H   0  0  0  0  0  0  0  0  0  0  0  0
   37.7920   30.7470   46.6850 C   0  0  0  0  0  0  0  0  0  0  0  0
   38.0100   30.9670   48.0730 C   0  0  0  0  0  0  0  0  0  0  0  0
   36.9230   30.8220   48.9250 C   0  0  0  0  0  0  0  0  0  0  0  0
   35.7230   30.4780   48.3950 N   0  0  0  0  0  0  0  0  0  0  0  0
   35.5370   30.2720   47.0670 C   0  0  0  0  0  0  0  0  0  0  0  0
   36.5790   30.4090   46.2240 N   0  0  0  0  0  0  0  0  0  0  0  0
   39.0020   31.2400   48.4230 H   0  0  0  0  0  0  0  0  0  0  0  0
   34.5400   30.0020   46.7410 H   0  0  0  0  0  0  0  0  0  0  0  0
   37.1370   31.0500   50.3870 C   0  0  0  0  0  0  0  0  0  0  0  0
   36.6160   32.2960   50.6460 F   0  0  0  0  0  0  0  0  0  0  0  0
   36.4710   30.1200   51.1670 F   0  0  0  0  0  0  0  0  0  0  0  0
   38.4870   31.0710   50.7180 F   0  0  0  0  0  0  0  0  0  0  0  0
   40.5560   30.4020   42.6560 C   0  0  0  0  0  0  0  0  0  0  0  0
   40.1910   31.2070   41.5610 C   0  0  0  0  0  0  0  0  0  0  0  0
   40.5820   30.8030   40.3150 C   0  0  0  0  0  0  0  0  0  0  0  0
   41.3350   29.5950   40.1610 C   0  0  0  0  0  0  0  0  0  0  0  0
   41.4840   29.0190   41.9110 S   0  0  0  0  0  0  0  0  0  0  0  0
   39.6220   32.1230   41.6460 H   0  0  0  0  0  0  0  0  0  0  0  0
   40.3960   31.2880   39.3690 H   0  0  0  0  0  0  0  0  0  0  0  0
   41.8580   28.9320   39.1330 N   0  0  0  0  0  0  0  0  0  0  0  0
   43.0940   29.2260   38.6840 C   0  0  0  0  0  3  0  0  0  0  0  0
   43.6380   28.5240   37.6030 C   0  0  0  0  0  0  0  0  0  0  0  0
   44.6170   28.7080   37.1960 H   0  0  0  0  0  0  0  0  0  0  0  0
   42.8520   27.5370   37.0370 C   0  0  0  0  0  0  0  0  0  0  0  0
   43.2240   26.8230   36.0490 O   0  0  0  0  0  0  0  0  0  0  0  0
   41.6110   27.2380   37.4840 N   0  0  0  0  0  0  0  0  0  0  0  0
   41.1380   27.9600   38.5420 C   0  0  0  0  0  0  0  0  0  0  0  0
   39.9860   27.6810   38.9540 O   0  0  0  0  0  0  0  0  0  0  0  0
   41.0100   26.4940   37.0620 H   0  0  0  0  0  0  0  0  0  0  0  0
  1  2  1  0  0  0  0
  1  8  1  0  0  0  0
  2  6  1  0  0  0  0
  3  2  2  0  0  0  0
  4  5  1  0  0  0  0
  4  3  1  0  0  0  0
  5  1  2  0  0  0  0
  7  3  1  0  0  0  0
  8  9  1  0  0  0  0
  9 14  1  0  0  0  0
  9 10  2  0  0  0  0
 10 16  1  0  0  0  0
 11 10  1  0  0  0  0
 12 11  2  0  0  0  0
 13  8  2  0  0  0  0
 13 12  1  0  0  0  0
 15 12  1  0  0  0  0
 16 17  1  0  0  0  0
 16 19  1  0  0  0  0
 16 18  1  0  0  0  0
 20  4  1  0  0  0  0
 21 25  1  0  0  0  0
 21 20  2  0  0  0  0
 22 21  1  0  0  0  0
 23 22  2  0  0  0  0
 23 24  1  0  0  0  0
 24 20  1  0  0  0  0
 26 22  1  0  0  0  0
 27 23  1  0  0  0  0
 28 27  1  0  0  0  0
 29 28  2  0  0  0  0
 30 29  1  0  0  0  0
 31 33  1  0  0  0  0
 31 29  1  0  0  0  0
 32 31  2  0  0  0  0
 33 34  1  0  0  0  0
 34 35  2  0  0  0  0
 34 27  1  0  0  0  0
 36 33  1  0  0  0  0
M  END
>  <minimizedAffinity>
-6.40712452

>  <minimizedRMSD>
0.0648399815

$$$$
