
 OpenBabel03272507193D

 31 33  0  0  1  0  0  0  0  0999 V2000
   37.0980   31.4910   48.6610 C   0  0  0  0  0  0  0  0  0  0  0  0
   37.7470   32.3720   49.5050 C   0  0  0  0  0  0  0  0  0  0  0  0
   38.9070   32.9630   48.9440 C   0  0  0  0  0  0  0  0  0  0  0  0
   39.3100   32.6530   47.6670 N   0  0  0  0  0  0  0  0  0  0  0  0
   38.6250   31.7800   46.9000 C   0  0  0  0  0  0  0  0  0  0  0  0
   37.4980   31.1890   47.4080 N   0  0  0  0  0  0  0  0  0  0  0  0
   37.4240   32.6110   50.5070 H   0  0  0  0  0  0  0  0  0  0  0  0
   39.4790   33.6700   49.5400 H   0  0  0  0  0  0  0  0  0  0  0  0
   39.1140   31.5170   45.5900 N   0  0  0  0  0  0  0  0  0  0  0  0
   39.2040   30.2060   45.2230 C   0  0  0  0  0  3  0  0  0  0  0  0
   39.6700   29.8710   43.9700 C   0  0  0  0  0  0  0  0  0  0  0  0
   39.7610   28.8580   43.6270 H   0  0  0  0  0  0  0  0  0  0  0  0
   40.0540   30.8550   43.0600 C   0  0  0  0  0  0  0  0  0  0  0  0
   40.4810   30.5520   41.9130 O   0  0  0  0  0  0  0  0  0  0  0  0
   39.9470   32.1420   43.4730 N   0  0  0  0  0  0  0  0  0  0  0  0
   39.4940   32.4520   44.6910 C   0  0  0  0  0  0  0  0  0  0  0  0
   39.3930   33.6540   45.0770 O   0  0  0  0  0  0  0  0  0  0  0  0
   40.2350   32.9000   42.7950 H   0  0  0  0  0  0  0  0  0  0  0  0
   35.8470   30.8800   49.2090 C   0  0  1  0  0  0  0  0  0  0  0  0
   35.0040   29.9910   48.4120 C   0  0  2  0  0  0  0  0  0  0  0  0
   35.9730   29.3490   49.3600 C   0  0  0  0  0  0  0  0  0  0  0  0
   35.4560   31.3960   50.1110 H   0  0  0  0  0  0  0  0  0  0  0  0
   33.9080   30.0910   48.6730 H   0  0  0  0  0  0  0  0  0  0  0  0
   36.8660   28.8500   48.9330 H   0  0  0  0  0  0  0  0  0  0  0  0
   35.5040   28.9420   50.2660 H   0  0  0  0  0  0  0  0  0  0  0  0
   35.2640   29.9320   47.0500 O   0  0  0  0  0  0  0  0  0  0  0  0
   34.4110   29.8920   45.9990 C   0  0  0  0  0  0  0  0  0  0  0  0
   34.6220   29.1800   44.9930 O   0  0  0  0  0  0  0  0  0  0  0  0
   33.3450   30.7480   46.2730 N   0  0  0  0  0  0  0  0  0  0  0  0
   32.6930   31.5500   46.1050 H   0  0  0  0  0  0  0  0  0  0  0  0
   32.6920   30.7180   47.1040 H   0  0  0  0  0  0  0  0  0  0  0  0
  1 19  1  0  0  0  0
  1  2  1  0  0  0  0
  2  7  1  0  0  0  0
  3  2  2  0  0  0  0
  3  8  1  0  0  0  0
  4  3  1  0  0  0  0
  5  6  1  0  0  0  0
  5  4  2  0  0  0  0
  6  1  2  0  0  0  0
  9  5  1  0  0  0  0
 10  9  1  0  0  0  0
 11 10  2  0  0  0  0
 12 11  1  0  0  0  0
 13 15  1  0  0  0  0
 13 11  1  0  0  0  0
 14 13  2  0  0  0  0
 15 16  1  0  0  0  0
 16 17  2  0  0  0  0
 16  9  1  0  0  0  0
 18 15  1  0  0  0  0
 19 21  1  0  0  0  0
 19 22  1  1  0  0  0
 20 23  1  1  0  0  0
 20 19  1  0  0  0  0
 20 21  1  0  0  0  0
 21 25  1  0  0  0  0
 24 21  1  0  0  0  0
 26 20  1  0  0  0  0
 27 29  1  0  0  0  0
 27 26  1  0  0  0  0
 28 27  2  0  0  0  0
 29 31  1  0  0  0  0
 30 29  1  0  0  0  0
M  END
>  <minimizedAffinity>
-5.71949339

>  <minimizedRMSD>
2.93511701

$$$$
