
 OpenBabel03272510163D

 29 31  0  0  0  0  0  0  0  0999 V2000
   37.1870   29.3620   51.0380 Br  0  0  0  0  0  0  0  0  0  0  0  0
   35.9100   29.3330   49.6210 C   0  0  0  0  0  0  0  0  0  0  0  0
   35.9870   30.2310   48.5790 C   0  0  0  0  0  0  0  0  0  0  0  0
   35.0210   30.1440   47.5900 C   0  0  0  0  0  0  0  0  0  0  0  0
   33.9990   29.2010   47.6120 C   0  0  0  0  0  0  0  0  0  0  0  0
   33.9640   28.3310   48.6690 C   0  0  0  0  0  0  0  0  0  0  0  0
   34.9150   28.4010   49.6620 C   0  0  0  0  0  0  0  0  0  0  0  0
   35.1290   30.8810   46.7850 H   0  0  0  0  0  0  0  0  0  0  0  0
   33.1520   27.6210   48.6400 H   0  0  0  0  0  0  0  0  0  0  0  0
   34.8130   27.6730   50.4630 H   0  0  0  0  0  0  0  0  0  0  0  0
   33.1110   29.2820   46.5010 N   0  0  0  0  0  0  0  0  0  0  0  0
   32.2390   30.2540   46.1920 C   0  0  0  0  0  3  0  0  0  0  0  0
   31.4760   30.1120   45.0530 C   0  0  0  0  0  0  0  0  0  0  0  0
   30.7800   30.9210   44.8330 H   0  0  0  0  0  0  0  0  0  0  0  0
   31.5990   28.9920   44.2360 C   0  0  0  0  0  0  0  0  0  0  0  0
   30.8800   28.8940   43.1940 O   0  0  0  0  0  0  0  0  0  0  0  0
   32.4890   28.0410   44.5890 N   0  0  0  0  0  0  0  0  0  0  0  0
   33.2380   28.1810   45.7080 C   0  0  0  0  0  0  0  0  0  0  0  0
   34.0150   27.2120   45.8940 O   0  0  0  0  0  0  0  0  0  0  0  0
   32.5440   27.2190   43.9440 H   0  0  0  0  0  0  0  0  0  0  0  0
   38.0020   33.1490   49.4170 C   0  0  0  0  0  0  0  0  0  0  0  0
   39.0330   33.1330   48.4580 C   0  0  0  0  0  0  0  0  0  0  0  0
   39.0230   32.1090   47.5240 C   0  0  0  0  0  0  0  0  0  0  0  0
   38.0250   31.1740   47.5790 N   0  0  0  0  0  0  0  0  0  0  0  0
   37.0450   31.2290   48.5270 C   0  0  0  0  0  0  0  0  0  0  0  0
   37.0450   32.2150   49.4350 N   0  0  0  0  0  0  0  0  0  0  0  0
   38.0650   33.9710   50.1150 H   0  0  0  0  0  0  0  0  0  0  0  0
   39.8370   33.8150   48.3480 H   0  0  0  0  0  0  0  0  0  0  0  0
   39.7140   31.9190   46.7140 H   0  0  0  0  0  0  0  0  0  0  0  0
  2  7  1  0  0  0  0
  2  1  1  0  0  0  0
  3  2  2  0  0  0  0
  4  5  2  0  0  0  0
  4  3  1  0  0  0  0
  5  6  1  0  0  0  0
  6  7  2  0  0  0  0
  7 10  1  0  0  0  0
  8  4  1  0  0  0  0
  9  6  1  0  0  0  0
 11  5  1  0  0  0  0
 12 11  1  0  0  0  0
 13 12  2  0  0  0  0
 14 13  1  0  0  0  0
 15 17  1  0  0  0  0
 15 13  1  0  0  0  0
 16 15  2  0  0  0  0
 17 18  1  0  0  0  0
 18 19  2  0  0  0  0
 18 11  1  0  0  0  0
 20 17  1  0  0  0  0
 21 26  1  0  0  0  0
 21 27  1  0  0  0  0
 22 21  2  0  0  0  0
 23 24  2  0  0  0  0
 23 22  1  0  0  0  0
 24 25  1  0  0  0  0
 25  3  1  0  0  0  0
 25 26  2  0  0  0  0
 28 22  1  0  0  0  0
 29 23  1  0  0  0  0
M  END
>  <minimizedAffinity>
-5.84111691

>  <minimizedRMSD>
0.104296193

$$$$
