
 OpenBabel03272507333D

 37 40  0  0  1  0  0  0  0  0999 V2000
   33.0030   27.7440   48.3690 C   0  0  0  0  0  0  0  0  0  0  0  0
   31.7970   27.6870   48.7830 O   0  0  0  0  0  0  0  0  0  0  0  0
   35.9030   29.2190   49.8500 C   0  0  0  0  0  0  0  0  0  0  0  0
   34.9500   29.7030   50.7230 C   0  0  0  0  0  0  0  0  0  0  0  0
   33.7060   29.2210   50.2940 C   0  0  0  0  0  0  0  0  0  0  0  0
   33.9850   28.4670   49.1770 C   0  0  0  0  0  0  0  0  0  0  0  0
   35.2820   28.4930   48.9550 O   0  0  0  0  0  0  0  0  0  0  0  0
   35.0820   30.3460   51.6010 H   0  0  0  0  0  0  0  0  0  0  0  0
   32.7600   29.4300   50.7770 H   0  0  0  0  0  0  0  0  0  0  0  0
   37.3160   29.5240   49.9980 C   0  0  0  0  0  0  0  0  0  0  0  0
   37.9930   28.8770   50.8100 O   0  0  0  0  0  0  0  0  0  0  0  0
   37.8450   30.5790   49.1750 C   0  0  0  0  0  0  0  0  0  0  0  0
   38.1890   31.7650   49.8080 C   0  0  0  0  0  0  0  0  0  0  0  0
   38.7040   32.8080   49.0340 C   0  0  0  0  0  0  0  0  0  0  0  0
   38.8400   32.5970   47.6790 N   0  0  0  0  0  0  0  0  0  0  0  0
   38.5000   31.4440   47.1060 C   0  0  0  0  0  0  0  0  0  0  0  0
   38.0040   30.4340   47.8390 N   0  0  0  0  0  0  0  0  0  0  0  0
   38.0710   31.8980   50.8690 H   0  0  0  0  0  0  0  0  0  0  0  0
   38.9710   33.7310   49.5260 H   0  0  0  0  0  0  0  0  0  0  0  0
   38.6380   31.3600   46.0380 H   0  0  0  0  0  0  0  0  0  0  0  0
   33.4080   27.0810   47.0850 C   0  0  1  0  0  0  0  0  0  0  0  0
   33.7160   25.5530   47.3480 C   0  0  0  0  0  0  0  0  0  0  0  0
   32.5920   26.0170   46.5030 C   0  0  2  0  0  0  0  0  0  0  0  0
   34.2920   27.5360   46.5950 H   0  0  0  0  0  0  0  0  0  0  0  0
   33.5450   25.1760   48.3530 H   0  0  0  0  0  0  0  0  0  0  0  0
   34.5970   25.1450   46.8320 H   0  0  0  0  0  0  0  0  0  0  0  0
   31.5890   25.8840   47.0080 H   0  0  0  0  0  0  0  0  0  0  0  0
   32.5550   25.8970   45.0810 N   0  0  0  0  0  0  0  0  0  0  0  0
   33.1870   26.8060   44.2780 C   0  0  0  0  0  3  0  0  0  0  0  0
   33.1560   26.6990   42.9020 C   0  0  0  0  0  0  0  0  0  0  0  0
   33.6980   27.4860   42.3850 H   0  0  0  0  0  0  0  0  0  0  0  0
   32.4850   25.6700   42.2720 C   0  0  0  0  0  0  0  0  0  0  0  0
   32.5440   25.7030   41.0170 O   0  0  0  0  0  0  0  0  0  0  0  0
   31.8670   24.7820   43.0720 N   0  0  0  0  0  0  0  0  0  0  0  0
   31.9230   24.9240   44.4070 C   0  0  0  0  0  0  0  0  0  0  0  0
   31.3100   24.0360   45.0320 O   0  0  0  0  0  0  0  0  0  0  0  0
   31.3710   24.0190   42.5710 H   0  0  0  0  0  0  0  0  0  0  0  0
  1  2  2  0  0  0  0
  1  6  1  0  0  0  0
  3 10  1  0  0  0  0
  3  4  2  0  0  0  0
  4  8  1  0  0  0  0
  5  4  1  0  0  0  0
  5  9  1  0  0  0  0
  6  5  2  0  0  0  0
  7  6  1  0  0  0  0
  7  3  1  0  0  0  0
 10 11  2  0  0  0  0
 12 13  1  0  0  0  0
 12 10  1  0  0  0  0
 13 18  1  0  0  0  0
 14 19  1  0  0  0  0
 14 13  2  0  0  0  0
 15 14  1  0  0  0  0
 16 15  2  0  0  0  0
 16 17  1  0  0  0  0
 17 12  2  0  0  0  0
 20 16  1  0  0  0  0
 21 24  1  6  0  0  0
 21 22  1  0  0  0  0
 21  1  1  0  0  0  0
 22 25  1  0  0  0  0
 23 27  1  1  0  0  0
 23 21  1  0  0  0  0
 23 22  1  0  0  0  0
 26 22  1  0  0  0  0
 28 23  1  0  0  0  0
 29 28  1  0  0  0  0
 30 29  2  0  0  0  0
 31 30  1  0  0  0  0
 32 30  1  0  0  0  0
 32 34  1  0  0  0  0
 33 32  2  0  0  0  0
 34 35  1  0  0  0  0
 35 36  2  0  0  0  0
 35 28  1  0  0  0  0
 37 34  1  0  0  0  0
M  END
>  <minimizedAffinity>
-4.87239599

>  <minimizedRMSD>
0.941599011

$$$$
