
 OpenBabel03272507193D

 31 33  0  0  1  0  0  0  0  0999 V2000
   37.2210   31.1850   48.8580 C   0  0  0  0  0  0  0  0  0  0  0  0
   38.4780   31.7570   48.9080 C   0  0  0  0  0  0  0  0  0  0  0  0
   39.0570   31.9960   47.6360 C   0  0  0  0  0  0  0  0  0  0  0  0
   38.3840   31.6700   46.4820 N   0  0  0  0  0  0  0  0  0  0  0  0
   37.1560   31.1120   46.5110 C   0  0  0  0  0  0  0  0  0  0  0  0
   36.5650   30.8660   47.7220 N   0  0  0  0  0  0  0  0  0  0  0  0
   39.0000   32.0100   49.8190 H   0  0  0  0  0  0  0  0  0  0  0  0
   40.0450   32.4440   47.5830 H   0  0  0  0  0  0  0  0  0  0  0  0
   36.5340   30.8060   45.2690 N   0  0  0  0  0  0  0  0  0  0  0  0
   35.7200   29.7110   45.2460 C   0  0  0  0  0  3  0  0  0  0  0  0
   35.0820   29.3520   44.0770 C   0  0  0  0  0  0  0  0  0  0  0  0
   34.4320   28.5020   44.0020 H   0  0  0  0  0  0  0  0  0  0  0  0
   35.2540   30.0900   42.9090 C   0  0  0  0  0  0  0  0  0  0  0  0
   34.6720   29.7630   41.8390 O   0  0  0  0  0  0  0  0  0  0  0  0
   36.0720   31.1680   42.9840 N   0  0  0  0  0  0  0  0  0  0  0  0
   36.6840   31.5050   44.1210 C   0  0  0  0  0  0  0  0  0  0  0  0
   37.4490   32.5120   44.1920 O   0  0  0  0  0  0  0  0  0  0  0  0
   36.2130   31.7390   42.1050 H   0  0  0  0  0  0  0  0  0  0  0  0
   36.5660   30.9550   50.1830 C   0  0  1  0  0  0  0  0  0  0  0  0
   35.8670   29.7100   50.4980 C   0  0  2  0  0  0  0  0  0  0  0  0
   37.2770   29.8480   50.9920 C   0  0  0  0  0  0  0  0  0  0  0  0
   36.3760   31.8880   50.7550 H   0  0  0  0  0  0  0  0  0  0  0  0
   34.9850   29.8750   51.1870 H   0  0  0  0  0  0  0  0  0  0  0  0
   38.0650   29.2530   50.4890 H   0  0  0  0  0  0  0  0  0  0  0  0
   37.3520   30.0520   52.0690 H   0  0  0  0  0  0  0  0  0  0  0  0
   35.6120   28.8470   49.4400 O   0  0  0  0  0  0  0  0  0  0  0  0
   34.4380   28.3470   48.9850 C   0  0  0  0  0  0  0  0  0  0  0  0
   34.3870   27.4220   48.1460 O   0  0  0  0  0  0  0  0  0  0  0  0
   33.4010   29.0390   49.6100 N   0  0  0  0  0  0  0  0  0  0  0  0
   32.5350   29.6250   49.6610 H   0  0  0  0  0  0  0  0  0  0  0  0
   33.2260   29.1370   50.6480 H   0  0  0  0  0  0  0  0  0  0  0  0
  1  2  1  0  0  0  0
  1 19  1  0  0  0  0
  2  7  1  0  0  0  0
  3  2  2  0  0  0  0
  4  5  2  0  0  0  0
  4  3  1  0  0  0  0
  5  6  1  0  0  0  0
  6  1  2  0  0  0  0
  8  3  1  0  0  0  0
  9  5  1  0  0  0  0
 10  9  1  0  0  0  0
 11 10  2  0  0  0  0
 12 11  1  0  0  0  0
 13 15  1  0  0  0  0
 13 11  1  0  0  0  0
 14 13  2  0  0  0  0
 15 16  1  0  0  0  0
 16 17  2  0  0  0  0
 16  9  1  0  0  0  0
 18 15  1  0  0  0  0
 19 20  1  0  0  0  0
 19 22  1  1  0  0  0
 19 21  1  0  0  0  0
 20 21  1  0  0  0  0
 20 23  1  1  0  0  0
 21 25  1  0  0  0  0
 24 21  1  0  0  0  0
 26 20  1  0  0  0  0
 27 26  1  0  0  0  0
 27 29  1  0  0  0  0
 28 27  2  0  0  0  0
 29 30  1  0  0  0  0
 29 31  1  0  0  0  0
M  END
>  <minimizedAffinity>
-5.29384613

>  <minimizedRMSD>
0.708517671

$$$$
