
 OpenBabel03272508043D

 36 39  0  0  0  0  0  0  0  0999 V2000
   38.8440   30.9010   45.8350 C   0  0  0  0  0  0  0  0  0  0  0  0
   40.0250   31.5800   46.1020 C   0  0  0  0  0  0  0  0  0  0  0  0
   40.8660   31.5340   45.0030 C   0  0  0  0  0  0  0  0  0  0  0  0
   40.1500   30.8130   44.0930 N   0  0  0  0  0  0  0  0  0  0  0  0
   38.9840   30.4530   44.5830 N   0  0  0  0  0  0  0  0  0  0  0  0
   40.2690   32.0790   47.0260 H   0  0  0  0  0  0  0  0  0  0  0  0
   41.8470   31.9380   44.8370 H   0  0  0  0  0  0  0  0  0  0  0  0
   37.7240   30.7330   46.7340 C   0  0  0  0  0  0  0  0  0  0  0  0
   37.9290   30.9240   48.1280 C   0  0  0  0  0  0  0  0  0  0  0  0
   36.8360   30.7580   48.9680 C   0  0  0  0  0  0  0  0  0  0  0  0
   35.6420   30.4240   48.4200 N   0  0  0  0  0  0  0  0  0  0  0  0
   35.4670   30.2450   47.0860 C   0  0  0  0  0  0  0  0  0  0  0  0
   36.5160   30.4030   46.2550 N   0  0  0  0  0  0  0  0  0  0  0  0
   38.9180   31.1920   48.4930 H   0  0  0  0  0  0  0  0  0  0  0  0
   34.4740   29.9800   46.7470 H   0  0  0  0  0  0  0  0  0  0  0  0
   37.0370   30.9550   50.4360 C   0  0  0  0  0  0  0  0  0  0  0  0
   36.5480   32.2100   50.7100 F   0  0  0  0  0  0  0  0  0  0  0  0
   36.3340   30.0310   51.1920 F   0  0  0  0  0  0  0  0  0  0  0  0
   38.3830   30.9320   50.7850 F   0  0  0  0  0  0  0  0  0  0  0  0
   40.5400   30.4470   42.7360 C   0  0  0  0  0  0  0  0  0  0  0  0
   40.1220   31.2150   41.6330 C   0  0  0  0  0  0  0  0  0  0  0  0
   40.5370   30.8230   40.3910 C   0  0  0  0  0  0  0  0  0  0  0  0
   41.3670   29.6650   40.2490 C   0  0  0  0  0  0  0  0  0  0  0  0
   41.5540   29.1180   42.0060 S   0  0  0  0  0  0  0  0  0  0  0  0
   39.4960   32.0930   41.7090 H   0  0  0  0  0  0  0  0  0  0  0  0
   40.3200   31.2850   39.4410 H   0  0  0  0  0  0  0  0  0  0  0  0
   41.9300   29.0250   39.2280 N   0  0  0  0  0  0  0  0  0  0  0  0
   41.4380   27.8440   38.8040 C   0  0  0  0  0  3  0  0  0  0  0  0
   42.0340   27.1750   37.7290 C   0  0  0  0  0  0  0  0  0  0  0  0
   41.6930   26.2320   37.3410 H   0  0  0  0  0  0  0  0  0  0  0  0
   43.1320   27.7830   37.1450 C   0  0  0  0  0  0  0  0  0  0  0  0
   43.7700   27.2840   36.1600 O   0  0  0  0  0  0  0  0  0  0  0  0
   43.6290   28.9670   37.5670 N   0  0  0  0  0  0  0  0  0  0  0  0
   43.0010   29.5680   38.6200 C   0  0  0  0  0  0  0  0  0  0  0  0
   43.4650   30.6670   39.0100 O   0  0  0  0  0  0  0  0  0  0  0  0
   44.4570   29.4330   37.1320 H   0  0  0  0  0  0  0  0  0  0  0  0
  1  2  1  0  0  0  0
  1  8  1  0  0  0  0
  2  6  1  0  0  0  0
  3  2  2  0  0  0  0
  4  5  1  0  0  0  0
  4  3  1  0  0  0  0
  5  1  2  0  0  0  0
  7  3  1  0  0  0  0
  8  9  1  0  0  0  0
  9 14  1  0  0  0  0
  9 10  2  0  0  0  0
 10 16  1  0  0  0  0
 11 10  1  0  0  0  0
 12 11  2  0  0  0  0
 13  8  2  0  0  0  0
 13 12  1  0  0  0  0
 15 12  1  0  0  0  0
 16 17  1  0  0  0  0
 16 19  1  0  0  0  0
 16 18  1  0  0  0  0
 20  4  1  0  0  0  0
 21 25  1  0  0  0  0
 21 20  2  0  0  0  0
 22 21  1  0  0  0  0
 23 22  2  0  0  0  0
 23 24  1  0  0  0  0
 24 20  1  0  0  0  0
 26 22  1  0  0  0  0
 27 23  1  0  0  0  0
 28 27  1  0  0  0  0
 29 28  2  0  0  0  0
 30 29  1  0  0  0  0
 31 33  1  0  0  0  0
 31 29  1  0  0  0  0
 32 31  2  0  0  0  0
 33 34  1  0  0  0  0
 34 35  2  0  0  0  0
 34 27  1  0  0  0  0
 36 33  1  0  0  0  0
M  END
>  <minimizedAffinity>
-6.56125593

>  <minimizedRMSD>
0.270404726

$$$$
