
 OpenBabel03262520073D

 19 20  0  0  0  0  0  0  0  0999 V2000
   37.7820   30.6900   50.6090 C   0  0  0  0  0  0  0  0  0  0  0  0
   38.4580   31.6120   49.7840 C   0  0  0  0  0  0  0  0  0  0  0  0
   37.9290   31.8590   48.5000 C   0  0  0  0  0  0  0  0  0  0  0  0
   36.8030   31.1930   48.1410 N   0  0  0  0  0  0  0  0  0  0  0  0
   36.1860   30.3200   48.9600 C   0  0  0  0  0  0  0  0  0  0  0  0
   36.6690   30.0650   50.1900 N   0  0  0  0  0  0  0  0  0  0  0  0
   38.1900   30.4960   51.6070 H   0  0  0  0  0  0  0  0  0  0  0  0
   39.3540   32.1120   50.1300 H   0  0  0  0  0  0  0  0  0  0  0  0
   38.4180   32.5590   47.8370 H   0  0  0  0  0  0  0  0  0  0  0  0
   35.0030   29.6120   48.5990 N   0  0  0  0  0  0  0  0  0  0  0  0
   34.7470   29.4260   47.2910 C   0  0  0  0  0  0  0  0  0  0  0  0
   33.5850   28.7330   47.0190 C   0  0  0  0  0  0  0  0  0  0  0  0
   33.3180   28.5470   45.9830 H   0  0  0  0  0  0  0  0  0  0  0  0
   32.7230   28.2490   47.9820 C   0  0  0  0  0  0  0  0  0  0  0  0
   31.6670   27.6200   47.7120 O   0  0  0  0  0  0  0  0  0  0  0  0
   33.0330   28.4680   49.2930 N   0  0  0  0  0  0  0  0  0  0  0  0
   34.1730   29.1480   49.5520 C   0  0  0  0  0  0  0  0  0  0  0  0
   34.5010   29.3750   50.7590 O   0  0  0  0  0  0  0  0  0  0  0  0
   32.4030   28.1180   50.0440 H   0  0  0  0  0  0  0  0  0  0  0  0
  1  7  1  0  0  0  0
  2  8  1  0  0  0  0
  2  1  2  0  0  0  0
  3  2  1  0  0  0  0
  4  3  2  0  0  0  0
  4  5  1  0  0  0  0
  5  6  2  0  0  0  0
  6  1  1  0  0  0  0
  9  3  1  0  0  0  0
 10  5  1  0  0  0  0
 10 17  1  0  0  0  0
 11 10  1  0  0  0  0
 12 11  2  0  0  0  0
 12 14  1  0  0  0  0
 13 12  1  0  0  0  0
 14 16  1  0  0  0  0
 15 14  2  0  0  0  0
 16 17  1  0  0  0  0
 16 19  1  0  0  0  0
 17 18  2  0  0  0  0
M  END
>  <minimizedAffinity>
-4.69470692

>  <minimizedRMSD>
1.81418192

$$$$
