
 OpenBabel03272504453D

 31 33  0  0  0  0  0  0  0  0999 V2000
   36.4300   29.4490   50.8380 C   0  0  0  0  0  0  0  0  0  0  0  0
   37.3270   30.0610   49.9670 C   0  0  0  0  0  0  0  0  0  0  0  0
   37.0610   30.3030   48.6210 C   0  0  0  0  0  0  0  0  0  0  0  0
   35.8450   29.8900   48.2240 N   0  0  0  0  0  0  0  0  0  0  0  0
   34.9620   29.2940   49.0550 C   0  0  0  0  0  0  0  0  0  0  0  0
   35.2410   29.0770   50.3260 N   0  0  0  0  0  0  0  0  0  0  0  0
   36.6960   29.2880   51.8760 H   0  0  0  0  0  0  0  0  0  0  0  0
   33.7250   28.9290   48.4440 N   0  0  0  0  0  0  0  0  0  0  0  0
   32.9470   27.9340   48.9160 C   0  0  0  0  0  0  0  0  0  0  0  0
   31.7510   27.5830   48.3220 C   0  0  0  0  0  0  0  0  0  0  0  0
   31.1660   26.7800   48.7380 H   0  0  0  0  0  0  0  0  0  0  0  0
   31.4240   28.3330   47.2130 C   0  0  0  0  0  0  0  0  0  0  0  0
   30.3340   28.0610   46.6200 O   0  0  0  0  0  0  0  0  0  0  0  0
   32.1710   29.3220   46.7230 N   0  0  0  0  0  0  0  0  0  0  0  0
   33.3370   29.6180   47.3540 C   0  0  0  0  0  0  0  0  0  0  0  0
   34.0070   30.5690   46.8410 O   0  0  0  0  0  0  0  0  0  0  0  0
   31.8500   29.8430   45.8760 H   0  0  0  0  0  0  0  0  0  0  0  0
   37.5780   33.1220   49.3260 Cl  0  0  0  0  0  0  0  0  0  0  0  0
   38.3030   32.2750   47.9890 C   0  0  0  0  0  0  0  0  0  0  0  0
   38.0050   30.9410   47.7250 C   0  0  0  0  0  0  0  0  0  0  0  0
   38.6120   30.3470   46.6600 C   0  0  0  0  0  0  0  0  0  0  0  0
   39.5050   31.0200   45.8460 C   0  0  0  0  0  0  0  0  0  0  0  0
   39.7880   32.3680   46.1380 C   0  0  0  0  0  0  0  0  0  0  0  0
   40.9200   33.1540   45.0740 Cl  0  0  0  0  0  0  0  0  0  0  0  0
   39.1940   32.9880   47.1970 C   0  0  0  0  0  0  0  0  0  0  0  0
   38.3370   29.3080   46.5080 H   0  0  0  0  0  0  0  0  0  0  0  0
   39.9280   30.4480   45.0290 H   0  0  0  0  0  0  0  0  0  0  0  0
   39.4260   34.0300   47.4080 H   0  0  0  0  0  0  0  0  0  0  0  0
   38.5940   30.4580   50.5030 N   0  0  0  0  0  0  0  0  0  0  0  0
   39.1990   29.6070   50.3340 H   0  0  0  0  0  0  0  0  0  0  0  0
   38.8520   31.3590   50.9490 H   0  0  0  0  0  0  0  0  0  0  0  0
  1  7  1  0  0  0  0
  2 29  1  0  0  0  0
  2  1  2  0  0  0  0
  3  2  1  0  0  0  0
  4  3  2  0  0  0  0
  4  5  1  0  0  0  0
  5  6  2  0  0  0  0
  6  1  1  0  0  0  0
  8  9  1  0  0  0  0
  8  5  1  0  0  0  0
 10 11  1  0  0  0  0
 10  9  2  0  0  0  0
 12 10  1  0  0  0  0
 13 12  2  0  0  0  0
 14 12  1  0  0  0  0
 14 15  1  0  0  0  0
 15  8  1  0  0  0  0
 16 15  2  0  0  0  0
 17 14  1  0  0  0  0
 19 18  1  0  0  0  0
 20 19  1  0  0  0  0
 20  3  1  0  0  0  0
 21 20  2  0  0  0  0
 22 23  2  0  0  0  0
 22 21  1  0  0  0  0
 23 25  1  0  0  0  0
 24 23  1  0  0  0  0
 25 28  1  0  0  0  0
 25 19  2  0  0  0  0
 26 21  1  0  0  0  0
 27 22  1  0  0  0  0
 29 31  1  0  0  0  0
 30 29  1  0  0  0  0
M  END
>  <minimizedAffinity>
-7.24596548

>  <minimizedRMSD>
1.42520368

$$$$
