
 OpenBabel03272510173D

 29 31  0  0  0  0  0  0  0  0999 V2000
   37.4360   29.2020   50.8730 Br  0  0  0  0  0  0  0  0  0  0  0  0
   36.0290   29.2830   49.5900 C   0  0  0  0  0  0  0  0  0  0  0  0
   36.0040   30.2660   48.6240 C   0  0  0  0  0  0  0  0  0  0  0  0
   34.9460   30.2550   47.7290 C   0  0  0  0  0  0  0  0  0  0  0  0
   33.9310   29.3060   47.7710 C   0  0  0  0  0  0  0  0  0  0  0  0
   33.9980   28.3500   48.7500 C   0  0  0  0  0  0  0  0  0  0  0  0
   35.0410   28.3440   49.6480 C   0  0  0  0  0  0  0  0  0  0  0  0
   34.9770   31.0580   46.9830 H   0  0  0  0  0  0  0  0  0  0  0  0
   33.1870   27.6390   48.7400 H   0  0  0  0  0  0  0  0  0  0  0  0
   35.0170   27.5500   50.3910 H   0  0  0  0  0  0  0  0  0  0  0  0
   32.9400   29.4730   46.7620 N   0  0  0  0  0  0  0  0  0  0  0  0
   32.9070   30.3610   45.7560 C   0  0  0  0  0  3  0  0  0  0  0  0
   31.8320   30.3320   44.8920 C   0  0  0  0  0  0  0  0  0  0  0  0
   31.8400   31.0670   44.0880 H   0  0  0  0  0  0  0  0  0  0  0  0
   30.8030   29.4110   45.0500 C   0  0  0  0  0  0  0  0  0  0  0  0
   29.8270   29.4130   44.2360 O   0  0  0  0  0  0  0  0  0  0  0  0
   30.8810   28.5390   46.0780 N   0  0  0  0  0  0  0  0  0  0  0  0
   31.9340   28.5660   46.9240 C   0  0  0  0  0  0  0  0  0  0  0  0
   31.8560   27.6920   47.8240 O   0  0  0  0  0  0  0  0  0  0  0  0
   30.0810   27.8670   46.1530 H   0  0  0  0  0  0  0  0  0  0  0  0
   38.0160   33.1930   49.4350 C   0  0  0  0  0  0  0  0  0  0  0  0
   39.0240   33.1920   48.4510 C   0  0  0  0  0  0  0  0  0  0  0  0
   38.9990   32.1760   47.5100 C   0  0  0  0  0  0  0  0  0  0  0  0
   38.0090   31.2330   47.5830 N   0  0  0  0  0  0  0  0  0  0  0  0
   37.0530   31.2720   48.5540 C   0  0  0  0  0  0  0  0  0  0  0  0
   37.0670   32.2510   49.4690 N   0  0  0  0  0  0  0  0  0  0  0  0
   38.0900   34.0100   50.1380 H   0  0  0  0  0  0  0  0  0  0  0  0
   39.8190   33.8820   48.3270 H   0  0  0  0  0  0  0  0  0  0  0  0
   39.6720   31.9970   46.6820 H   0  0  0  0  0  0  0  0  0  0  0  0
  2  7  1  0  0  0  0
  2  1  1  0  0  0  0
  3  2  2  0  0  0  0
  4  5  2  0  0  0  0
  4  3  1  0  0  0  0
  5  6  1  0  0  0  0
  6  7  2  0  0  0  0
  7 10  1  0  0  0  0
  8  4  1  0  0  0  0
  9  6  1  0  0  0  0
 11 18  1  0  0  0  0
 11  5  1  0  0  0  0
 12 11  1  0  0  0  0
 13 15  1  0  0  0  0
 13 12  2  0  0  0  0
 14 13  1  0  0  0  0
 15 17  1  0  0  0  0
 16 15  2  0  0  0  0
 17 20  1  0  0  0  0
 17 18  1  0  0  0  0
 18 19  2  0  0  0  0
 21 26  1  0  0  0  0
 21 27  1  0  0  0  0
 22 21  2  0  0  0  0
 23 24  2  0  0  0  0
 23 22  1  0  0  0  0
 24 25  1  0  0  0  0
 25  3  1  0  0  0  0
 25 26  2  0  0  0  0
 28 22  1  0  0  0  0
 29 23  1  0  0  0  0
M  END
>  <minimizedAffinity>
-6.06337309

>  <minimizedRMSD>
0.353209555

$$$$
