
 OpenBabel03272509433D

 39 41  0  0  1  0  0  0  0  0999 V2000
   38.3810   31.5030   48.8040 C   0  0  0  0  0  0  0  0  0  0  0  0
   38.5580   32.6050   49.6430 C   0  0  0  0  0  0  0  0  0  0  0  0
   39.1080   33.7930   49.1930 C   0  0  0  0  0  0  0  0  0  0  0  0
   39.5030   33.8970   47.8510 C   0  0  0  0  0  0  0  0  0  0  0  0
   39.3240   32.8090   47.0400 C   0  0  0  0  0  0  0  0  0  0  0  0
   38.7670   31.6360   47.5310 C   0  0  0  0  0  0  0  0  0  0  0  0
   38.2460   32.5110   50.6790 H   0  0  0  0  0  0  0  0  0  0  0  0
   39.2020   34.5760   49.9140 H   0  0  0  0  0  0  0  0  0  0  0  0
   39.9150   34.8450   47.5940 H   0  0  0  0  0  0  0  0  0  0  0  0
   39.6760   33.0430   46.0390 H   0  0  0  0  0  0  0  0  0  0  0  0
   37.8360   30.2550   49.2920 C   0  0  2  0  0  0  0  0  0  0  0  0
   38.1650   29.4590   48.5190 H   0  0  0  0  0  0  0  0  0  0  0  0
   34.4790   30.3040   47.9030 C   0  0  0  0  0  0  0  0  0  0  0  0
   33.9110   29.1300   48.3590 C   0  0  0  0  0  0  0  0  0  0  0  0
   34.6580   28.3290   49.2110 C   0  0  0  0  0  0  0  0  0  0  0  0
   35.9280   28.7280   49.5640 N   0  0  0  0  0  0  0  0  0  0  0  0
   36.4140   29.8590   49.0920 C   0  0  0  0  0  0  0  0  0  0  0  0
   35.7020   30.6490   48.2670 N   0  0  0  0  0  0  0  0  0  0  0  0
   33.9120   30.9340   47.2430 H   0  0  0  0  0  0  0  0  0  0  0  0
   32.9100   28.8990   48.0280 H   0  0  0  0  0  0  0  0  0  0  0  0
   34.2270   27.4200   49.5700 H   0  0  0  0  0  0  0  0  0  0  0  0
   38.5000   29.7820   50.2880 O   0  0  0  0  0  0  0  0  0  0  0  0
   38.2970   30.2520   51.1480 H   0  0  0  0  0  0  0  0  0  0  0  0
   38.6620   30.5590   46.5740 C   0  0  0  0  0  3  0  0  0  0  0  0
   39.2590   30.5680   45.3770 C   0  0  0  0  0  3  0  0  0  0  0  0
   39.2520   29.5100   44.3410 C   0  0  0  0  0  0  0  0  0  0  0  0
   38.4420   28.7810   44.6170 H   0  0  0  0  0  0  0  0  0  0  0  0
   40.1770   28.9370   44.3260 H   0  0  0  0  0  0  0  0  0  0  0  0
   38.8030   30.2220   42.7540 S   0  0  0  0  0  0  0  0  0  0  0  0
   34.0710   30.5500   42.3050 H   0  0  0  0  0  0  0  0  0  0  0  0
   34.9490   31.0570   42.5290 N   0  0  0  0  0  0  0  0  0  0  0  0
   36.1620   30.4430   42.5120 C   0  0  0  0  0  3  0  0  0  0  0  0
   37.3050   31.1650   42.8180 C   0  0  0  0  0  0  0  0  0  0  0  0
   37.1660   32.5010   43.1330 C   0  0  0  0  0  0  0  0  0  0  0  0
   38.2450   33.0840   43.3980 O   0  0  0  0  0  0  0  0  0  0  0  0
   35.9700   33.1150   43.1500 N   0  0  0  0  0  0  0  0  0  0  0  0
   34.8880   32.3670   42.8450 C   0  0  0  0  0  0  0  0  0  0  0  0
   33.7380   32.9180   42.8530 O   0  0  0  0  0  0  0  0  0  0  0  0
   35.9350   34.1240   43.3970 H   0  0  0  0  0  0  0  0  0  0  0  0
  1 11  1  0  0  0  0
  1  2  1  0  0  0  0
  2  7  1  0  0  0  0
  3  2  2  0  0  0  0
  3  8  1  0  0  0  0
  4  3  1  0  0  0  0
  5  6  1  0  0  0  0
  5  4  2  0  0  0  0
  6  1  2  0  0  0  0
  9  4  1  0  0  0  0
 10  5  1  0  0  0  0
 11 12  1  6  0  0  0
 11 22  1  0  0  0  0
 13 18  2  0  0  0  0
 13 14  1  0  0  0  0
 14 15  2  0  0  0  0
 15 16  1  0  0  0  0
 15 21  1  0  0  0  0
 17 11  1  0  0  0  0
 17 16  2  0  0  0  0
 18 17  1  0  0  0  0
 19 13  1  0  0  0  0
 20 14  1  0  0  0  0
 22 23  1  0  0  0  0
 24  6  1  0  0  0  0
 25 24  2  0  0  0  0
 26 27  1  0  0  0  0
 26 25  1  0  0  0  0
 28 26  1  0  0  0  0
 29 33  1  0  0  0  0
 29 26  1  0  0  0  0
 30 31  1  0  0  0  0
 31 37  1  0  0  0  0
 32 31  1  0  0  0  0
 32 33  2  0  0  0  0
 33 34  1  0  0  0  0
 34 36  1  0  0  0  0
 34 35  2  0  0  0  0
 36 39  1  0  0  0  0
 37 38  2  0  0  0  0
 37 36  1  0  0  0  0
M  END
>  <minimizedAffinity>
-6.67800283

>  <minimizedRMSD>
1.40498805

$$$$
