
 OpenBabel03272507513D

 29 31  0  0  0  0  0  0  0  0999 V2000
   38.1210   24.7160   34.3250 C   0  0  0  0  0  0  0  0  0  0  0  0
   38.7900   25.0120   35.5260 C   0  0  0  0  0  0  0  0  0  0  0  0
   38.5960   26.2860   36.0480 C   0  0  0  0  0  0  0  0  0  0  0  0
   37.7990   27.1560   35.3940 N   0  0  0  0  0  0  0  0  0  0  0  0
   37.1720   26.8470   34.2470 C   0  0  0  0  0  0  0  0  0  0  0  0
   37.3320   25.6080   33.7000 N   0  0  0  0  0  0  0  0  0  0  0  0
   39.1140   26.5260   36.9840 H   0  0  0  0  0  0  0  0  0  0  0  0
   36.5300   27.5490   33.7240 H   0  0  0  0  0  0  0  0  0  0  0  0
   39.5990   24.0090   36.1130 N   0  0  0  0  0  0  0  0  0  0  0  0
   40.8730   23.8030   35.7020 C   0  0  0  0  0  0  0  0  0  0  0  0
   41.6300   22.7970   36.3170 C   0  0  0  0  0  0  0  0  0  0  0  0
   40.9780   22.1050   37.3020 C   0  0  0  0  0  0  0  0  0  0  0  0
   41.6610   21.1900   37.8650 O   0  0  0  0  0  0  0  0  0  0  0  0
   39.7250   22.2930   37.7210 N   0  0  0  0  0  0  0  0  0  0  0  0
   39.0280   23.2740   37.1010 C   0  0  0  0  0  0  0  0  0  0  0  0
   37.8450   23.4650   37.4820 O   0  0  0  0  0  0  0  0  0  0  0  0
   41.3170   24.3890   34.9190 H   0  0  0  0  0  0  0  0  0  0  0  0
   42.6450   22.5830   36.0380 H   0  0  0  0  0  0  0  0  0  0  0  0
   39.2890   21.7270   38.4790 H   0  0  0  0  0  0  0  0  0  0  0  0
   38.2180   23.4580   33.6680 N   0  0  0  0  0  0  0  0  0  0  0  0
   37.5090   22.3450   33.9450 C   0  0  0  0  0  3  0  0  0  0  0  0
   37.7080   21.1880   33.2220 C   0  0  0  0  0  0  0  0  0  0  0  0
   37.1120   20.3300   33.4920 H   0  0  0  0  0  0  0  0  0  0  0  0
   38.6550   21.2350   32.2190 C   0  0  0  0  0  0  0  0  0  0  0  0
   38.8570   20.2080   31.5500 O   0  0  0  0  0  0  0  0  0  0  0  0
   39.3600   22.3520   31.9460 N   0  0  0  0  0  0  0  0  0  0  0  0
   39.1320   23.4680   32.6810 C   0  0  0  0  0  0  0  0  0  0  0  0
   39.8480   24.4520   32.3390 O   0  0  0  0  0  0  0  0  0  0  0  0
   40.0570   22.3060   31.1730 H   0  0  0  0  0  0  0  0  0  0  0  0
  1  2  1  0  0  0  0
  2  3  2  0  0  0  0
  2  9  1  0  0  0  0
  3  7  1  0  0  0  0
  4  3  1  0  0  0  0
  5  4  2  0  0  0  0
  6  5  1  0  0  0  0
  6  1  2  0  0  0  0
  8  5  1  0  0  0  0
  9 15  1  0  0  0  0
 10  9  1  0  0  0  0
 10 11  2  0  0  0  0
 11 12  1  0  0  0  0
 12 14  1  0  0  0  0
 12 13  2  0  0  0  0
 14 19  1  0  0  0  0
 15 16  2  0  0  0  0
 15 14  1  0  0  0  0
 17 10  1  0  0  0  0
 18 11  1  0  0  0  0
 20 21  1  0  0  0  0
 20  1  1  0  0  0  0
 22 23  1  0  0  0  0
 22 21  2  0  0  0  0
 24 22  1  0  0  0  0
 25 24  2  0  0  0  0
 26 24  1  0  0  0  0
 26 27  1  0  0  0  0
 27 20  1  0  0  0  0
 28 27  2  0  0  0  0
 29 26  1  0  0  0  0
M  END
>  <minimizedAffinity>
-5.11714125

$$$$

 OpenBabel03272507513D

 29 31  0  0  0  0  0  0  0  0999 V2000
   39.5960   24.8080   33.0010 C   0  0  0  0  0  0  0  0  0  0  0  0
   38.3340   24.4820   33.5290 C   0  0  0  0  0  0  0  0  0  0  0  0
   37.2660   24.4990   32.6390 C   0  0  0  0  0  0  0  0  0  0  0  0
   37.4830   24.8200   31.3470 N   0  0  0  0  0  0  0  0  0  0  0  0
   38.7000   25.1270   30.8690 C   0  0  0  0  0  0  0  0  0  0  0  0
   39.7770   25.1230   31.7060 N   0  0  0  0  0  0  0  0  0  0  0  0
   36.2770   24.2470   33.0410 H   0  0  0  0  0  0  0  0  0  0  0  0
   38.8730   25.3830   29.8290 H   0  0  0  0  0  0  0  0  0  0  0  0
   38.2400   24.1650   34.9050 N   0  0  0  0  0  0  0  0  0  0  0  0
   38.0850   25.1310   35.8420 C   0  0  0  0  0  0  0  0  0  0  0  0
   37.9960   24.7600   37.1900 C   0  0  0  0  0  0  0  0  0  0  0  0
   38.0800   23.4140   37.4260 C   0  0  0  0  0  0  0  0  0  0  0  0
   38.0000   23.0710   38.6490 O   0  0  0  0  0  0  0  0  0  0  0  0
   38.2330   22.4480   36.5170 N   0  0  0  0  0  0  0  0  0  0  0  0
   38.3140   22.8480   35.2270 C   0  0  0  0  0  0  0  0  0  0  0  0
   38.4580   21.9510   34.3560 O   0  0  0  0  0  0  0  0  0  0  0  0
   38.0270   26.1700   35.5790 H   0  0  0  0  0  0  0  0  0  0  0  0
   37.8720   25.4760   37.9810 H   0  0  0  0  0  0  0  0  0  0  0  0
   38.2900   21.4380   36.7670 H   0  0  0  0  0  0  0  0  0  0  0  0
   40.7850   24.8350   33.7820 N   0  0  0  0  0  0  0  0  0  0  0  0
   41.5700   23.7850   34.0950 C   0  0  0  0  0  3  0  0  0  0  0  0
   42.7000   23.9590   34.8660 C   0  0  0  0  0  0  0  0  0  0  0  0
   43.2870   23.0800   35.0830 H   0  0  0  0  0  0  0  0  0  0  0  0
   42.9750   25.2430   35.2900 C   0  0  0  0  0  0  0  0  0  0  0  0
   43.9850   25.4310   35.9860 O   0  0  0  0  0  0  0  0  0  0  0  0
   42.1850   26.2900   34.9720 N   0  0  0  0  0  0  0  0  0  0  0  0
   41.0840   26.0740   34.2120 C   0  0  0  0  0  0  0  0  0  0  0  0
   40.4200   27.1240   33.9780 O   0  0  0  0  0  0  0  0  0  0  0  0
   42.4610   27.2280   35.3310 H   0  0  0  0  0  0  0  0  0  0  0  0
  1  2  1  0  0  0  0
  1 20  1  0  0  0  0
  2  9  1  0  0  0  0
  3  7  1  0  0  0  0
  3  2  2  0  0  0  0
  4  3  1  0  0  0  0
  5  4  2  0  0  0  0
  5  6  1  0  0  0  0
  6  1  2  0  0  0  0
  8  5  1  0  0  0  0
  9 15  1  0  0  0  0
  9 10  1  0  0  0  0
 10 11  2  0  0  0  0
 11 12  1  0  0  0  0
 11 18  1  0  0  0  0
 12 13  2  0  0  0  0
 14 19  1  0  0  0  0
 14 12  1  0  0  0  0
 15 14  1  0  0  0  0
 16 15  2  0  0  0  0
 17 10  1  0  0  0  0
 20 21  1  0  0  0  0
 20 27  1  0  0  0  0
 21 22  2  0  0  0  0
 22 23  1  0  0  0  0
 22 24  1  0  0  0  0
 24 25  2  0  0  0  0
 26 24  1  0  0  0  0
 26 29  1  0  0  0  0
 27 26  1  0  0  0  0
 28 27  2  0  0  0  0
M  END
>  <minimizedAffinity>
-5.10084772

$$$$

 OpenBabel03272507513D

 29 31  0  0  0  0  0  0  0  0999 V2000
   38.3910   24.4410   33.5160 C   0  0  0  0  0  0  0  0  0  0  0  0
   39.6100   24.7810   32.9020 C   0  0  0  0  0  0  0  0  0  0  0  0
   39.5790   24.9770   31.5260 C   0  0  0  0  0  0  0  0  0  0  0  0
   38.4130   24.8360   30.8620 N   0  0  0  0  0  0  0  0  0  0  0  0
   37.2620   24.5120   31.4730 C   0  0  0  0  0  0  0  0  0  0  0  0
   37.2460   24.3100   32.8230 N   0  0  0  0  0  0  0  0  0  0  0  0
   40.5250   25.2410   31.0380 H   0  0  0  0  0  0  0  0  0  0  0  0
   36.3260   24.4000   30.9370 H   0  0  0  0  0  0  0  0  0  0  0  0
   40.7650   24.8970   33.7140 N   0  0  0  0  0  0  0  0  0  0  0  0
   41.5230   23.8180   34.0180 C   0  0  0  0  0  0  0  0  0  0  0  0
   42.6550   23.9900   34.8240 C   0  0  0  0  0  0  0  0  0  0  0  0
   42.8830   25.2760   35.2340 C   0  0  0  0  0  0  0  0  0  0  0  0
   43.9110   25.4390   35.9670 O   0  0  0  0  0  0  0  0  0  0  0  0
   42.1470   26.3530   34.9450 N   0  0  0  0  0  0  0  0  0  0  0  0
   41.0620   26.1430   34.1630 C   0  0  0  0  0  0  0  0  0  0  0  0
   40.3570   27.1450   33.8810 O   0  0  0  0  0  0  0  0  0  0  0  0
   41.2800   22.8350   33.6570 H   0  0  0  0  0  0  0  0  0  0  0  0
   43.2990   23.1760   35.1010 H   0  0  0  0  0  0  0  0  0  0  0  0
   42.3780   27.3070   35.2920 H   0  0  0  0  0  0  0  0  0  0  0  0
   38.2600   24.2100   34.9130 N   0  0  0  0  0  0  0  0  0  0  0  0
   38.0860   25.1390   35.8740 C   0  0  0  0  0  3  0  0  0  0  0  0
   37.9730   24.7670   37.1980 C   0  0  0  0  0  0  0  0  0  0  0  0
   37.8370   25.5570   37.9200 H   0  0  0  0  0  0  0  0  0  0  0  0
   38.0470   23.4180   37.4750 C   0  0  0  0  0  0  0  0  0  0  0  0
   37.9490   23.0520   38.6570 O   0  0  0  0  0  0  0  0  0  0  0  0
   38.2190   22.4920   36.5080 N   0  0  0  0  0  0  0  0  0  0  0  0
   38.3250   22.9010   35.2200 C   0  0  0  0  0  0  0  0  0  0  0  0
   38.4840   21.9510   34.4020 O   0  0  0  0  0  0  0  0  0  0  0  0
   38.2640   21.4930   36.7990 H   0  0  0  0  0  0  0  0  0  0  0  0
  1 20  1  0  0  0  0
  2  1  1  0  0  0  0
  2  9  1  0  0  0  0
  3  2  2  0  0  0  0
  4  5  2  0  0  0  0
  4  3  1  0  0  0  0
  5  6  1  0  0  0  0
  6  1  2  0  0  0  0
  7  3  1  0  0  0  0
  8  5  1  0  0  0  0
  9 10  1  0  0  0  0
  9 15  1  0  0  0  0
 10 11  2  0  0  0  0
 11 18  1  0  0  0  0
 11 12  1  0  0  0  0
 12 13  2  0  0  0  0
 14 12  1  0  0  0  0
 14 19  1  0  0  0  0
 15 14  1  0  0  0  0
 16 15  2  0  0  0  0
 17 10  1  0  0  0  0
 20 27  1  0  0  0  0
 20 21  1  0  0  0  0
 21 22  2  0  0  0  0
 22 24  1  0  0  0  0
 22 23  1  0  0  0  0
 24 25  2  0  0  0  0
 26 29  1  0  0  0  0
 26 24  1  0  0  0  0
 27 26  1  0  0  0  0
 28 27  2  0  0  0  0
M  END
>  <minimizedAffinity>
-5.06816864

$$$$

 OpenBabel03272507513D

 29 31  0  0  0  0  0  0  0  0999 V2000
   38.8170   24.9510   35.2670 C   0  0  0  0  0  0  0  0  0  0  0  0
   38.1710   24.7350   34.0370 C   0  0  0  0  0  0  0  0  0  0  0  0
   37.3600   25.7640   33.5710 C   0  0  0  0  0  0  0  0  0  0  0  0
   37.2340   26.8910   34.3020 N   0  0  0  0  0  0  0  0  0  0  0  0
   37.8640   27.0720   35.4740 C   0  0  0  0  0  0  0  0  0  0  0  0
   38.6690   26.0890   35.9690 N   0  0  0  0  0  0  0  0  0  0  0  0
   36.8520   25.6040   32.6130 H   0  0  0  0  0  0  0  0  0  0  0  0
   37.7620   27.9800   36.0590 H   0  0  0  0  0  0  0  0  0  0  0  0
   38.3860   23.5050   33.3690 N   0  0  0  0  0  0  0  0  0  0  0  0
   37.6190   22.4200   33.6270 C   0  0  0  0  0  0  0  0  0  0  0  0
   37.8750   21.2280   32.9370 C   0  0  0  0  0  0  0  0  0  0  0  0
   38.9100   21.2890   32.0430 C   0  0  0  0  0  0  0  0  0  0  0  0
   39.1480   20.2090   31.4130 O   0  0  0  0  0  0  0  0  0  0  0  0
   39.6780   22.3480   31.7750 N   0  0  0  0  0  0  0  0  0  0  0  0
   39.3970   23.4800   32.4630 C   0  0  0  0  0  0  0  0  0  0  0  0
   40.1100   24.4880   32.2240 O   0  0  0  0  0  0  0  0  0  0  0  0
   36.8200   22.4480   34.3450 H   0  0  0  0  0  0  0  0  0  0  0  0
   37.3030   20.3320   33.0940 H   0  0  0  0  0  0  0  0  0  0  0  0
   40.4530   22.3260   31.0800 H   0  0  0  0  0  0  0  0  0  0  0  0
   39.6780   23.9950   35.8750 N   0  0  0  0  0  0  0  0  0  0  0  0
   40.9910   23.8190   35.6290 C   0  0  0  0  0  3  0  0  0  0  0  0
   41.7060   22.8460   36.2970 C   0  0  0  0  0  0  0  0  0  0  0  0
   42.7530   22.7530   36.0560 H   0  0  0  0  0  0  0  0  0  0  0  0
   41.0120   22.0810   37.2120 C   0  0  0  0  0  0  0  0  0  0  0  0
   41.6280   21.1970   37.8290 O   0  0  0  0  0  0  0  0  0  0  0  0
   39.6970   22.2630   37.4540 N   0  0  0  0  0  0  0  0  0  0  0  0
   39.0340   23.2310   36.7750 C   0  0  0  0  0  0  0  0  0  0  0  0
   37.8100   23.3110   37.0810 O   0  0  0  0  0  0  0  0  0  0  0  0
   39.2460   21.6440   38.1600 H   0  0  0  0  0  0  0  0  0  0  0  0
  1 20  1  0  0  0  0
  1  6  1  0  0  0  0
  2  1  2  0  0  0  0
  3  2  1  0  0  0  0
  3  4  2  0  0  0  0
  4  5  1  0  0  0  0
  5  6  2  0  0  0  0
  5  8  1  0  0  0  0
  7  3  1  0  0  0  0
  9 10  1  0  0  0  0
  9  2  1  0  0  0  0
 10 17  1  0  0  0  0
 11 18  1  0  0  0  0
 11 10  2  0  0  0  0
 12 11  1  0  0  0  0
 13 12  2  0  0  0  0
 14 12  1  0  0  0  0
 14 15  1  0  0  0  0
 15  9  1  0  0  0  0
 16 15  2  0  0  0  0
 19 14  1  0  0  0  0
 20 27  1  0  0  0  0
 21 20  1  0  0  0  0
 21 22  2  0  0  0  0
 22 24  1  0  0  0  0
 23 22  1  0  0  0  0
 24 26  1  0  0  0  0
 24 25  2  0  0  0  0
 26 29  1  0  0  0  0
 27 28  2  0  0  0  0
 27 26  1  0  0  0  0
M  END
>  <minimizedAffinity>
-4.93113184

$$$$

 OpenBabel03272507513D

 29 31  0  0  0  0  0  0  0  0999 V2000
   40.5820   25.0200   34.9730 C   0  0  0  0  0  0  0  0  0  0  0  0
   40.5890   23.6580   35.3220 C   0  0  0  0  0  0  0  0  0  0  0  0
   41.8250   23.1040   35.6380 C   0  0  0  0  0  0  0  0  0  0  0  0
   42.9290   23.8770   35.5940 N   0  0  0  0  0  0  0  0  0  0  0  0
   42.8940   25.1770   35.2570 C   0  0  0  0  0  0  0  0  0  0  0  0
   41.7030   25.7620   34.9400 N   0  0  0  0  0  0  0  0  0  0  0  0
   41.8410   22.0420   35.9110 H   0  0  0  0  0  0  0  0  0  0  0  0
   43.7840   25.7970   35.2230 H   0  0  0  0  0  0  0  0  0  0  0  0
   39.3590   22.9570   35.3290 N   0  0  0  0  0  0  0  0  0  0  0  0
   38.8400   22.4350   34.1930 C   0  0  0  0  0  0  0  0  0  0  0  0
   37.6190   21.7500   34.2570 C   0  0  0  0  0  0  0  0  0  0  0  0
   37.0620   21.6790   35.5060 C   0  0  0  0  0  0  0  0  0  0  0  0
   35.9530   21.0570   35.5700 O   0  0  0  0  0  0  0  0  0  0  0  0
   37.5580   22.1860   36.6370 N   0  0  0  0  0  0  0  0  0  0  0  0
   38.7380   22.8400   36.5310 C   0  0  0  0  0  0  0  0  0  0  0  0
   39.2210   23.3250   37.5860 O   0  0  0  0  0  0  0  0  0  0  0  0
   39.3370   22.5320   33.2460 H   0  0  0  0  0  0  0  0  0  0  0  0
   37.1540   21.3120   33.3940 H   0  0  0  0  0  0  0  0  0  0  0  0
   37.0790   22.0960   37.5570 H   0  0  0  0  0  0  0  0  0  0  0  0
   39.3990   25.7300   34.6250 N   0  0  0  0  0  0  0  0  0  0  0  0
   38.5110   26.2850   35.4740 C   0  0  0  0  0  3  0  0  0  0  0  0
   37.4010   26.9480   34.9930 C   0  0  0  0  0  0  0  0  0  0  0  0
   36.7270   27.3700   35.7220 H   0  0  0  0  0  0  0  0  0  0  0  0
   37.2560   27.0080   33.6220 C   0  0  0  0  0  0  0  0  0  0  0  0
   36.2660   27.5980   33.1600 O   0  0  0  0  0  0  0  0  0  0  0  0
   38.1490   26.4510   32.7790 N   0  0  0  0  0  0  0  0  0  0  0  0
   39.2260   25.8100   33.2940 C   0  0  0  0  0  0  0  0  0  0  0  0
   39.9940   25.3270   32.4130 O   0  0  0  0  0  0  0  0  0  0  0  0
   37.9680   26.5400   31.7570 H   0  0  0  0  0  0  0  0  0  0  0  0
  1  2  1  0  0  0  0
  2  9  1  0  0  0  0
  2  3  2  0  0  0  0
  3  7  1  0  0  0  0
  4  3  1  0  0  0  0
  5  4  2  0  0  0  0
  6  1  2  0  0  0  0
  6  5  1  0  0  0  0
  8  5  1  0  0  0  0
  9 15  1  0  0  0  0
 10 11  2  0  0  0  0
 10  9  1  0  0  0  0
 11 12  1  0  0  0  0
 12 13  2  0  0  0  0
 12 14  1  0  0  0  0
 14 19  1  0  0  0  0
 15 14  1  0  0  0  0
 15 16  2  0  0  0  0
 17 10  1  0  0  0  0
 18 11  1  0  0  0  0
 20  1  1  0  0  0  0
 20 21  1  0  0  0  0
 22 21  2  0  0  0  0
 22 23  1  0  0  0  0
 24 22  1  0  0  0  0
 25 24  2  0  0  0  0
 26 27  1  0  0  0  0
 26 24  1  0  0  0  0
 27 20  1  0  0  0  0
 28 27  2  0  0  0  0
 29 26  1  0  0  0  0
M  END
>  <minimizedAffinity>
-4.923491

$$$$

 OpenBabel03272507513D

 29 31  0  0  0  0  0  0  0  0999 V2000
   39.7860   26.4030   32.5140 C   0  0  0  0  0  0  0  0  0  0  0  0
   40.3180   26.2580   33.8080 C   0  0  0  0  0  0  0  0  0  0  0  0
   41.5460   26.8620   34.0470 C   0  0  0  0  0  0  0  0  0  0  0  0
   42.1560   27.5410   33.0540 N   0  0  0  0  0  0  0  0  0  0  0  0
   41.6260   27.6650   31.8260 C   0  0  0  0  0  0  0  0  0  0  0  0
   40.4220   27.0880   31.5470 N   0  0  0  0  0  0  0  0  0  0  0  0
   41.9690   26.7540   35.0530 H   0  0  0  0  0  0  0  0  0  0  0  0
   42.1190   28.2120   31.0290 H   0  0  0  0  0  0  0  0  0  0  0  0
   39.5770   25.5190   34.7630 N   0  0  0  0  0  0  0  0  0  0  0  0
   39.6280   24.1660   34.8000 C   0  0  0  0  0  0  0  0  0  0  0  0
   38.8750   23.4850   35.7650 C   0  0  0  0  0  0  0  0  0  0  0  0
   38.1420   24.2870   36.5980 C   0  0  0  0  0  0  0  0  0  0  0  0
   37.4560   23.6740   37.4770 O   0  0  0  0  0  0  0  0  0  0  0  0
   38.0780   25.6210   36.5770 N   0  0  0  0  0  0  0  0  0  0  0  0
   38.8200   26.2400   35.6290 C   0  0  0  0  0  0  0  0  0  0  0  0
   38.7730   27.4960   35.5940 O   0  0  0  0  0  0  0  0  0  0  0  0
   40.2290   23.6030   34.1100 H   0  0  0  0  0  0  0  0  0  0  0  0
   38.8720   22.4140   35.8480 H   0  0  0  0  0  0  0  0  0  0  0  0
   37.4960   26.1720   37.2420 H   0  0  0  0  0  0  0  0  0  0  0  0
   38.5410   25.8440   32.1150 N   0  0  0  0  0  0  0  0  0  0  0  0
   38.3230   24.5910   31.6700 C   0  0  0  0  0  3  0  0  0  0  0  0
   37.0540   24.1820   31.3150 C   0  0  0  0  0  0  0  0  0  0  0  0
   36.9440   23.1680   30.9650 H   0  0  0  0  0  0  0  0  0  0  0  0
   36.0420   25.1120   31.4420 C   0  0  0  0  0  0  0  0  0  0  0  0
   34.8890   24.7740   31.1310 O   0  0  0  0  0  0  0  0  0  0  0  0
   36.2670   26.3650   31.8900 N   0  0  0  0  0  0  0  0  0  0  0  0
   37.5290   26.7240   32.2280 C   0  0  0  0  0  0  0  0  0  0  0  0
   37.6220   27.9180   32.6330 O   0  0  0  0  0  0  0  0  0  0  0  0
   35.4500   27.0070   31.9570 H   0  0  0  0  0  0  0  0  0  0  0  0
  1  2  1  0  0  0  0
  2  3  2  0  0  0  0
  2  9  1  0  0  0  0
  3  7  1  0  0  0  0
  4  3  1  0  0  0  0
  5  4  2  0  0  0  0
  6  5  1  0  0  0  0
  6  1  2  0  0  0  0
  8  5  1  0  0  0  0
  9 10  1  0  0  0  0
  9 15  1  0  0  0  0
 10 11  2  0  0  0  0
 11 18  1  0  0  0  0
 11 12  1  0  0  0  0
 12 13  2  0  0  0  0
 14 12  1  0  0  0  0
 14 19  1  0  0  0  0
 15 14  1  0  0  0  0
 16 15  2  0  0  0  0
 17 10  1  0  0  0  0
 20 27  1  0  0  0  0
 20  1  1  0  0  0  0
 21 20  1  0  0  0  0
 22 24  1  0  0  0  0
 22 21  2  0  0  0  0
 23 22  1  0  0  0  0
 24 26  1  0  0  0  0
 25 24  2  0  0  0  0
 26 29  1  0  0  0  0
 26 27  1  0  0  0  0
 27 28  2  0  0  0  0
M  END
>  <minimizedAffinity>
-4.90307665

$$$$

 OpenBabel03272507513D

 29 31  0  0  0  0  0  0  0  0999 V2000
   39.7140   27.1880   31.8400 C   0  0  0  0  0  0  0  0  0  0  0  0
   40.3870   26.9950   33.0600 C   0  0  0  0  0  0  0  0  0  0  0  0
   41.7210   27.3870   33.1020 C   0  0  0  0  0  0  0  0  0  0  0  0
   42.2910   27.9180   32.0010 N   0  0  0  0  0  0  0  0  0  0  0  0
   41.6250   28.0920   30.8490 C   0  0  0  0  0  0  0  0  0  0  0  0
   40.3140   27.7220   30.7610 N   0  0  0  0  0  0  0  0  0  0  0  0
   42.2540   27.2400   34.0480 H   0  0  0  0  0  0  0  0  0  0  0  0
   42.0860   28.5210   29.9650 H   0  0  0  0  0  0  0  0  0  0  0  0
   39.6730   26.4250   34.1420 N   0  0  0  0  0  0  0  0  0  0  0  0
   38.9610   27.1950   34.9980 C   0  0  0  0  0  0  0  0  0  0  0  0
   38.2730   26.5780   36.0510 C   0  0  0  0  0  0  0  0  0  0  0  0
   38.3990   25.2160   36.1050 C   0  0  0  0  0  0  0  0  0  0  0  0
   37.7750   24.6500   37.0600 O   0  0  0  0  0  0  0  0  0  0  0  0
   39.0950   24.4410   35.2700 N   0  0  0  0  0  0  0  0  0  0  0  0
   39.7450   25.0750   34.2670 C   0  0  0  0  0  0  0  0  0  0  0  0
   40.4070   24.3610   33.4710 O   0  0  0  0  0  0  0  0  0  0  0  0
   38.9100   28.2620   34.8920 H   0  0  0  0  0  0  0  0  0  0  0  0
   37.6900   27.1310   36.7650 H   0  0  0  0  0  0  0  0  0  0  0  0
   39.1490   23.4050   35.3700 H   0  0  0  0  0  0  0  0  0  0  0  0
   38.3500   26.8390   31.6390 N   0  0  0  0  0  0  0  0  0  0  0  0
   37.2690   27.5420   32.0320 C   0  0  0  0  0  3  0  0  0  0  0  0
   35.9970   27.0810   31.7670 C   0  0  0  0  0  0  0  0  0  0  0  0
   35.1730   27.6880   32.1080 H   0  0  0  0  0  0  0  0  0  0  0  0
   35.8970   25.8820   31.0900 C   0  0  0  0  0  0  0  0  0  0  0  0
   34.7650   25.4400   30.8380 O   0  0  0  0  0  0  0  0  0  0  0  0
   36.9830   25.1840   30.6990 N   0  0  0  0  0  0  0  0  0  0  0  0
   38.2150   25.6740   30.9790 C   0  0  0  0  0  0  0  0  0  0  0  0
   39.1560   24.9380   30.5670 O   0  0  0  0  0  0  0  0  0  0  0  0
   36.8230   24.2870   30.1930 H   0  0  0  0  0  0  0  0  0  0  0  0
  1  2  1  0  0  0  0
  2  3  2  0  0  0  0
  2  9  1  0  0  0  0
  3  7  1  0  0  0  0
  4  3  1  0  0  0  0
  5  4  2  0  0  0  0
  6  5  1  0  0  0  0
  6  1  2  0  0  0  0
  8  5  1  0  0  0  0
  9 15  1  0  0  0  0
  9 10  1  0  0  0  0
 10 11  2  0  0  0  0
 11 12  1  0  0  0  0
 11 18  1  0  0  0  0
 12 13  2  0  0  0  0
 14 19  1  0  0  0  0
 14 12  1  0  0  0  0
 15 14  1  0  0  0  0
 16 15  2  0  0  0  0
 17 10  1  0  0  0  0
 20  1  1  0  0  0  0
 20 21  1  0  0  0  0
 22 21  2  0  0  0  0
 22 23  1  0  0  0  0
 24 22  1  0  0  0  0
 25 24  2  0  0  0  0
 26 27  1  0  0  0  0
 26 24  1  0  0  0  0
 27 20  1  0  0  0  0
 28 27  2  0  0  0  0
 29 26  1  0  0  0  0
M  END
>  <minimizedAffinity>
-4.9001236

$$$$

 OpenBabel03272507513D

 29 31  0  0  0  0  0  0  0  0999 V2000
   37.8690   23.7870   33.0940 C   0  0  0  0  0  0  0  0  0  0  0  0
   37.9330   22.5240   33.7090 C   0  0  0  0  0  0  0  0  0  0  0  0
   36.9810   21.5910   33.3130 C   0  0  0  0  0  0  0  0  0  0  0  0
   36.0650   21.9320   32.3830 N   0  0  0  0  0  0  0  0  0  0  0  0
   36.0270   23.1460   31.8110 C   0  0  0  0  0  0  0  0  0  0  0  0
   36.9420   24.0930   32.1690 N   0  0  0  0  0  0  0  0  0  0  0  0
   37.0220   20.6040   33.7870 H   0  0  0  0  0  0  0  0  0  0  0  0
   35.2890   23.4170   31.0630 H   0  0  0  0  0  0  0  0  0  0  0  0
   38.9450   22.2930   34.6720 N   0  0  0  0  0  0  0  0  0  0  0  0
   40.2150   22.0050   34.3040 C   0  0  0  0  0  0  0  0  0  0  0  0
   41.1770   21.7860   35.2990 C   0  0  0  0  0  0  0  0  0  0  0  0
   40.7130   21.8890   36.5830 C   0  0  0  0  0  0  0  0  0  0  0  0
   41.5820   21.6910   37.4920 O   0  0  0  0  0  0  0  0  0  0  0  0
   39.4650   22.1710   36.9660 N   0  0  0  0  0  0  0  0  0  0  0  0
   38.5680   22.3760   35.9740 C   0  0  0  0  0  0  0  0  0  0  0  0
   37.3870   22.6420   36.3150 O   0  0  0  0  0  0  0  0  0  0  0  0
   40.5050   21.9420   33.2720 H   0  0  0  0  0  0  0  0  0  0  0  0
   42.2010   21.5550   35.0740 H   0  0  0  0  0  0  0  0  0  0  0  0
   39.1790   22.2330   37.9660 H   0  0  0  0  0  0  0  0  0  0  0  0
   38.7710   24.8460   33.3920 N   0  0  0  0  0  0  0  0  0  0  0  0
   38.7010   25.6990   34.4320 C   0  0  0  0  0  3  0  0  0  0  0  0
   39.6520   26.6840   34.5980 C   0  0  0  0  0  0  0  0  0  0  0  0
   39.5410   27.3370   35.4490 H   0  0  0  0  0  0  0  0  0  0  0  0
   40.6580   26.7440   33.6550 C   0  0  0  0  0  0  0  0  0  0  0  0
   41.5290   27.6210   33.7770 O   0  0  0  0  0  0  0  0  0  0  0  0
   40.7230   25.8860   32.6160 N   0  0  0  0  0  0  0  0  0  0  0  0
   39.7680   24.9320   32.4920 C   0  0  0  0  0  0  0  0  0  0  0  0
   39.9280   24.1870   31.4840 O   0  0  0  0  0  0  0  0  0  0  0  0
   41.5140   25.9970   31.9480 H   0  0  0  0  0  0  0  0  0  0  0  0
  1 20  1  0  0  0  0
  1  2  1  0  0  0  0
  2  9  1  0  0  0  0
  3  2  2  0  0  0  0
  3  7  1  0  0  0  0
  4  3  1  0  0  0  0
  5  6  1  0  0  0  0
  5  4  2  0  0  0  0
  6  1  2  0  0  0  0
  8  5  1  0  0  0  0
  9 15  1  0  0  0  0
 10  9  1  0  0  0  0
 10 11  2  0  0  0  0
 11 12  1  0  0  0  0
 12 14  1  0  0  0  0
 12 13  2  0  0  0  0
 14 19  1  0  0  0  0
 15 16  2  0  0  0  0
 15 14  1  0  0  0  0
 17 10  1  0  0  0  0
 18 11  1  0  0  0  0
 20 21  1  0  0  0  0
 21 22  2  0  0  0  0
 22 23  1  0  0  0  0
 24 25  2  0  0  0  0
 24 22  1  0  0  0  0
 26 24  1  0  0  0  0
 27 26  1  0  0  0  0
 27 20  1  0  0  0  0
 28 27  2  0  0  0  0
 29 26  1  0  0  0  0
M  END
>  <minimizedAffinity>
-4.82698154

$$$$

 OpenBabel03272507513D

 29 31  0  0  0  0  0  0  0  0999 V2000
   40.0960   25.7590   34.1740 C   0  0  0  0  0  0  0  0  0  0  0  0
   39.6710   25.7760   32.8340 C   0  0  0  0  0  0  0  0  0  0  0  0
   40.3610   26.6240   31.9740 C   0  0  0  0  0  0  0  0  0  0  0  0
   41.3760   27.3720   32.4530 N   0  0  0  0  0  0  0  0  0  0  0  0
   41.7620   27.3360   33.7390 C   0  0  0  0  0  0  0  0  0  0  0  0
   41.1140   26.5180   34.6180 N   0  0  0  0  0  0  0  0  0  0  0  0
   40.0360   26.6450   30.9270 H   0  0  0  0  0  0  0  0  0  0  0  0
   42.5790   27.9380   34.1220 H   0  0  0  0  0  0  0  0  0  0  0  0
   38.5900   24.9420   32.4580 N   0  0  0  0  0  0  0  0  0  0  0  0
   38.7820   23.6390   32.1440 C   0  0  0  0  0  0  0  0  0  0  0  0
   37.6760   22.8600   31.7790 C   0  0  0  0  0  0  0  0  0  0  0  0
   36.4780   23.5220   31.7780 C   0  0  0  0  0  0  0  0  0  0  0  0
   35.4690   22.8180   31.4480 O   0  0  0  0  0  0  0  0  0  0  0  0
   36.2690   24.8040   32.0840 N   0  0  0  0  0  0  0  0  0  0  0  0
   37.3630   25.5220   32.4310 C   0  0  0  0  0  0  0  0  0  0  0  0
   37.1860   26.7330   32.7230 O   0  0  0  0  0  0  0  0  0  0  0  0
   39.7560   23.1880   32.1670 H   0  0  0  0  0  0  0  0  0  0  0  0
   37.7600   21.8210   31.5190 H   0  0  0  0  0  0  0  0  0  0  0  0
   35.3260   25.2470   32.0620 H   0  0  0  0  0  0  0  0  0  0  0  0
   39.4930   24.9450   35.1730 N   0  0  0  0  0  0  0  0  0  0  0  0
   39.7520   23.6460   35.4210 C   0  0  0  0  0  3  0  0  0  0  0  0
   39.0870   22.9770   36.4280 C   0  0  0  0  0  0  0  0  0  0  0  0
   39.3370   21.9390   36.5770 H   0  0  0  0  0  0  0  0  0  0  0  0
   38.1620   23.7020   37.1510 C   0  0  0  0  0  0  0  0  0  0  0  0
   37.5470   23.1280   38.0640 O   0  0  0  0  0  0  0  0  0  0  0  0
   37.9080   25.0030   36.8980 N   0  0  0  0  0  0  0  0  0  0  0  0
   38.5850   25.6200   35.9000 C   0  0  0  0  0  0  0  0  0  0  0  0
   38.2670   26.8350   35.7520 O   0  0  0  0  0  0  0  0  0  0  0  0
   37.1950   25.4790   37.4890 H   0  0  0  0  0  0  0  0  0  0  0  0
  1  6  1  0  0  0  0
  1 20  1  0  0  0  0
  2  1  2  0  0  0  0
  3  4  2  0  0  0  0
  3  2  1  0  0  0  0
  4  5  1  0  0  0  0
  5  8  1  0  0  0  0
  5  6  2  0  0  0  0
  7  3  1  0  0  0  0
  9  2  1  0  0  0  0
 10 17  1  0  0  0  0
 10  9  1  0  0  0  0
 11 10  2  0  0  0  0
 12 11  1  0  0  0  0
 12 14  1  0  0  0  0
 13 12  2  0  0  0  0
 14 15  1  0  0  0  0
 15  9  1  0  0  0  0
 15 16  2  0  0  0  0
 18 11  1  0  0  0  0
 19 14  1  0  0  0  0
 20 21  1  0  0  0  0
 20 27  1  0  0  0  0
 21 22  2  0  0  0  0
 22 23  1  0  0  0  0
 22 24  1  0  0  0  0
 24 25  2  0  0  0  0
 26 24  1  0  0  0  0
 26 29  1  0  0  0  0
 27 26  1  0  0  0  0
 28 27  2  0  0  0  0
M  END
>  <minimizedAffinity>
-4.81939602

$$$$
