
 OpenBabel03272506503D

 35 37  0  0  1  0  0  0  0  0999 V2000
   34.5930   30.3330   49.1830 C   0  0  1  0  0  0  0  0  0  0  0  0
   34.2430   30.3650   47.7580 C   0  0  0  0  0  0  0  0  0  0  0  0
   34.3790   29.0820   47.0100 C   0  0  0  0  0  0  0  0  0  0  0  0
   33.9760   27.8620   47.7150 C   0  0  1  0  0  0  0  0  0  0  0  0
   34.3350   27.8180   49.1570 C   0  0  0  0  0  0  0  0  0  0  0  0
   34.0970   29.1070   49.8790 C   0  0  0  0  0  0  0  0  0  0  0  0
   34.0230   31.1810   49.6900 H   0  0  0  0  0  0  0  0  0  0  0  0
   34.6890   31.1440   47.1510 H   0  0  0  0  0  0  0  0  0  0  0  0
   33.1360   30.6230   47.7230 H   0  0  0  0  0  0  0  0  0  0  0  0
   33.8930   29.1740   46.0240 H   0  0  0  0  0  0  0  0  0  0  0  0
   35.4670   29.0030   46.7580 H   0  0  0  0  0  0  0  0  0  0  0  0
   34.6050   27.0260   47.2530 H   0  0  0  0  0  0  0  0  0  0  0  0
   33.8460   27.0370   49.7280 H   0  0  0  0  0  0  0  0  0  0  0  0
   35.4400   27.6070   49.2500 H   0  0  0  0  0  0  0  0  0  0  0  0
   32.9620   29.2070   49.9180 H   0  0  0  0  0  0  0  0  0  0  0  0
   34.3810   28.9810   50.9160 H   0  0  0  0  0  0  0  0  0  0  0  0
   32.6350   27.3900   47.5390 N   0  0  0  0  0  0  0  0  0  0  0  0
   31.5440   27.6910   48.2150 C   0  0  0  0  0  3  0  0  0  0  0  0
   30.2870   27.2030   47.9950 C   0  0  0  0  0  0  0  0  0  0  0  0
   29.4380   27.4940   48.5860 H   0  0  0  0  0  0  0  0  0  0  0  0
   30.1140   26.2890   46.9530 C   0  0  0  0  0  0  0  0  0  0  0  0
   28.9780   25.8150   46.7150 O   0  0  0  0  0  0  0  0  0  0  0  0
   31.2390   25.9730   46.2500 N   0  0  0  0  0  0  0  0  0  0  0  0
   32.4450   26.4950   46.5250 C   0  0  0  0  0  0  0  0  0  0  0  0
   33.3250   26.0380   45.7240 O   0  0  0  0  0  0  0  0  0  0  0  0
   31.0230   25.2860   45.4910 H   0  0  0  0  0  0  0  0  0  0  0  0
   36.8420   31.3610   48.6310 C   0  0  0  0  0  0  0  0  0  0  0  0
   36.0040   30.6580   49.5150 C   0  0  0  0  0  0  0  0  0  0  0  0
   36.5490   30.2780   50.7260 C   0  0  0  0  0  0  0  0  0  0  0  0
   37.8380   30.5880   51.0090 N   0  0  0  0  0  0  0  0  0  0  0  0
   38.6140   31.2670   50.1270 C   0  0  0  0  0  0  0  0  0  0  0  0
   38.1020   31.6520   48.9330 N   0  0  0  0  0  0  0  0  0  0  0  0
   36.5180   31.7040   47.6640 H   0  0  0  0  0  0  0  0  0  0  0  0
   36.0560   29.7430   51.5170 H   0  0  0  0  0  0  0  0  0  0  0  0
   39.6390   31.4740   50.4370 H   0  0  0  0  0  0  0  0  0  0  0  0
  1 28  1  0  0  0  0
  1  7  1  1  0  0  0
  1  6  1  0  0  0  0
  2  1  1  0  0  0  0
  3  4  1  0  0  0  0
  3  2  1  0  0  0  0
  4 12  1  6  0  0  0
  4  5  1  0  0  0  0
  5 14  1  0  0  0  0
  5 13  1  0  0  0  0
  5  6  1  0  0  0  0
  6 15  1  0  0  0  0
  6 16  1  0  0  0  0
  8  2  1  0  0  0  0
  9  2  1  0  0  0  0
 10  3  1  0  0  0  0
 11  3  1  0  0  0  0
 17  4  1  0  0  0  0
 17 18  1  0  0  0  0
 19 18  2  0  0  0  0
 19 20  1  0  0  0  0
 21 19  1  0  0  0  0
 22 21  2  0  0  0  0
 23 24  1  0  0  0  0
 23 21  1  0  0  0  0
 24 17  1  0  0  0  0
 25 24  2  0  0  0  0
 26 23  1  0  0  0  0
 27 32  2  0  0  0  0
 27 28  1  0  0  0  0
 28 29  2  0  0  0  0
 29 30  1  0  0  0  0
 29 34  1  0  0  0  0
 31 35  1  0  0  0  0
 31 30  2  0  0  0  0
 32 31  1  0  0  0  0
 33 27  1  0  0  0  0
M  END
>  <minimizedAffinity>
-5.20723009

>  <minimizedRMSD>
1.44985211

$$$$
