
 OpenBabel03272507193D

 31 33  0  0  1  0  0  0  0  0999 V2000
   37.2860   31.1990   49.3160 C   0  0  0  0  0  0  0  0  0  0  0  0
   38.3850   32.0340   49.3890 C   0  0  0  0  0  0  0  0  0  0  0  0
   38.9120   32.4080   48.1270 C   0  0  0  0  0  0  0  0  0  0  0  0
   38.3420   31.9540   46.9610 N   0  0  0  0  0  0  0  0  0  0  0  0
   37.2670   31.1380   46.9690 C   0  0  0  0  0  0  0  0  0  0  0  0
   36.7310   30.7550   48.1690 N   0  0  0  0  0  0  0  0  0  0  0  0
   38.8270   32.3860   50.3080 H   0  0  0  0  0  0  0  0  0  0  0  0
   39.7780   33.0640   48.0910 H   0  0  0  0  0  0  0  0  0  0  0  0
   36.7430   30.7160   45.7150 N   0  0  0  0  0  0  0  0  0  0  0  0
   37.5190   30.9550   44.6180 C   0  0  0  0  0  3  0  0  0  0  0  0
   37.0790   30.5740   43.3680 C   0  0  0  0  0  0  0  0  0  0  0  0
   37.6440   30.7370   42.4710 H   0  0  0  0  0  0  0  0  0  0  0  0
   35.8470   29.9440   43.2010 C   0  0  0  0  0  0  0  0  0  0  0  0
   35.4420   29.5960   42.0580 O   0  0  0  0  0  0  0  0  0  0  0  0
   35.1150   29.7300   44.3220 N   0  0  0  0  0  0  0  0  0  0  0  0
   35.5530   30.1030   45.5270 C   0  0  0  0  0  0  0  0  0  0  0  0
   34.8700   29.9030   46.5750 O   0  0  0  0  0  0  0  0  0  0  0  0
   34.1780   29.2520   44.2120 H   0  0  0  0  0  0  0  0  0  0  0  0
   36.6820   30.8170   50.6310 C   0  0  1  0  0  0  0  0  0  0  0  0
   35.9660   29.5570   50.8180 C   0  0  2  0  0  0  0  0  0  0  0  0
   37.3990   29.6040   51.2620 C   0  0  0  0  0  0  0  0  0  0  0  0
   36.5400   31.6740   51.3230 H   0  0  0  0  0  0  0  0  0  0  0  0
   35.1190   29.6510   51.5620 H   0  0  0  0  0  0  0  0  0  0  0  0
   38.1500   29.0620   50.6540 H   0  0  0  0  0  0  0  0  0  0  0  0
   37.5240   29.6680   52.3510 H   0  0  0  0  0  0  0  0  0  0  0  0
   35.6450   28.8390   49.6740 O   0  0  0  0  0  0  0  0  0  0  0  0
   34.4630   28.3080   49.2790 C   0  0  0  0  0  0  0  0  0  0  0  0
   34.3960   27.2810   48.5690 O   0  0  0  0  0  0  0  0  0  0  0  0
   33.4380   29.0980   49.7980 N   0  0  0  0  0  0  0  0  0  0  0  0
   32.5840   29.7040   49.7640 H   0  0  0  0  0  0  0  0  0  0  0  0
   33.2600   29.3360   50.8130 H   0  0  0  0  0  0  0  0  0  0  0  0
  1  2  1  0  0  0  0
  1 19  1  0  0  0  0
  2  7  1  0  0  0  0
  3  2  2  0  0  0  0
  4  5  2  0  0  0  0
  4  3  1  0  0  0  0
  5  6  1  0  0  0  0
  6  1  2  0  0  0  0
  8  3  1  0  0  0  0
  9  5  1  0  0  0  0
 10  9  1  0  0  0  0
 11 10  2  0  0  0  0
 12 11  1  0  0  0  0
 13 11  1  0  0  0  0
 13 15  1  0  0  0  0
 14 13  2  0  0  0  0
 15 16  1  0  0  0  0
 16  9  1  0  0  0  0
 16 17  2  0  0  0  0
 18 15  1  0  0  0  0
 19 20  1  0  0  0  0
 19 21  1  0  0  0  0
 19 22  1  1  0  0  0
 20 21  1  0  0  0  0
 20 23  1  1  0  0  0
 21 25  1  0  0  0  0
 24 21  1  0  0  0  0
 26 20  1  0  0  0  0
 27 26  1  0  0  0  0
 27 29  1  0  0  0  0
 28 27  2  0  0  0  0
 29 31  1  0  0  0  0
 30 29  1  0  0  0  0
M  END
>  <minimizedAffinity>
-5.67176104

>  <minimizedRMSD>
0.215266392

$$$$
