
 OpenBabel03272509433D

 39 41  0  0  1  0  0  0  0  0999 V2000
   37.0480   30.9390   49.0180 C   0  0  0  0  0  0  0  0  0  0  0  0
   36.7630   31.8510   50.0350 C   0  0  0  0  0  0  0  0  0  0  0  0
   37.3640   33.0960   50.0990 C   0  0  0  0  0  0  0  0  0  0  0  0
   38.2930   33.4570   49.1120 C   0  0  0  0  0  0  0  0  0  0  0  0
   38.5630   32.5530   48.1200 C   0  0  0  0  0  0  0  0  0  0  0  0
   37.9370   31.3150   48.0920 C   0  0  0  0  0  0  0  0  0  0  0  0
   36.0410   31.5580   50.7920 H   0  0  0  0  0  0  0  0  0  0  0  0
   37.0780   33.7190   50.9180 H   0  0  0  0  0  0  0  0  0  0  0  0
   38.7040   34.4310   49.2410 H   0  0  0  0  0  0  0  0  0  0  0  0
   39.2960   32.9750   47.4380 H   0  0  0  0  0  0  0  0  0  0  0  0
   36.4400   29.6270   48.9780 C   0  0  2  0  0  0  0  0  0  0  0  0
   36.9490   29.0840   48.0910 H   0  0  0  0  0  0  0  0  0  0  0  0
   33.6410   30.0120   46.6930 C   0  0  0  0  0  0  0  0  0  0  0  0
   32.8640   28.8930   46.9240 C   0  0  0  0  0  0  0  0  0  0  0  0
   33.2610   28.0150   47.9230 C   0  0  0  0  0  0  0  0  0  0  0  0
   34.4060   28.2870   48.6370 N   0  0  0  0  0  0  0  0  0  0  0  0
   35.1050   29.3710   48.3670 C   0  0  0  0  0  0  0  0  0  0  0  0
   34.7330   30.2340   47.4030 N   0  0  0  0  0  0  0  0  0  0  0  0
   33.3450   30.7010   45.9230 H   0  0  0  0  0  0  0  0  0  0  0  0
   31.9840   28.7630   46.3130 H   0  0  0  0  0  0  0  0  0  0  0  0
   32.6660   27.1480   48.1100 H   0  0  0  0  0  0  0  0  0  0  0  0
   36.8810   28.8500   49.9040 O   0  0  0  0  0  0  0  0  0  0  0  0
   36.4840   29.0500   50.8010 H   0  0  0  0  0  0  0  0  0  0  0  0
   38.3360   30.4490   47.0070 C   0  0  0  0  0  3  0  0  0  0  0  0
   38.9230   30.8860   45.8860 C   0  0  0  0  0  3  0  0  0  0  0  0
   39.4060   30.0900   44.7340 C   0  0  0  0  0  0  0  0  0  0  0  0
   38.8950   29.0910   44.7840 H   0  0  0  0  0  0  0  0  0  0  0  0
   40.4740   29.8830   44.7910 H   0  0  0  0  0  0  0  0  0  0  0  0
   38.8910   30.8720   43.2010 S   0  0  0  0  0  0  0  0  0  0  0  0
   35.3050   34.0100   43.1890 H   0  0  0  0  0  0  0  0  0  0  0  0
   35.5670   33.0050   43.1680 N   0  0  0  0  0  0  0  0  0  0  0  0
   36.8630   32.5950   43.1940 C   0  0  0  0  0  3  0  0  0  0  0  0
   37.1590   31.2420   43.1630 C   0  0  0  0  0  0  0  0  0  0  0  0
   36.1100   30.3480   43.1090 C   0  0  0  0  0  0  0  0  0  0  0  0
   36.4590   29.1430   43.0840 O   0  0  0  0  0  0  0  0  0  0  0  0
   34.8260   30.7460   43.0820 N   0  0  0  0  0  0  0  0  0  0  0  0
   34.5920   32.0760   43.1140 C   0  0  0  0  0  0  0  0  0  0  0  0
   33.3850   32.4880   43.0920 O   0  0  0  0  0  0  0  0  0  0  0  0
   34.0840   30.0200   43.0410 H   0  0  0  0  0  0  0  0  0  0  0  0
  1  2  1  0  0  0  0
  2  3  2  0  0  0  0
  2  7  1  0  0  0  0
  3  8  1  0  0  0  0
  4  9  1  0  0  0  0
  4  3  1  0  0  0  0
  5  4  2  0  0  0  0
  6  5  1  0  0  0  0
  6  1  2  0  0  0  0
 10  5  1  0  0  0  0
 11 12  1  6  0  0  0
 11  1  1  0  0  0  0
 11 22  1  0  0  0  0
 13 14  2  0  0  0  0
 13 18  1  0  0  0  0
 14 15  1  0  0  0  0
 15 21  1  0  0  0  0
 15 16  2  0  0  0  0
 17 16  1  0  0  0  0
 17 11  1  0  0  0  0
 18 17  2  0  0  0  0
 19 13  1  0  0  0  0
 20 14  1  0  0  0  0
 22 23  1  0  0  0  0
 24  6  1  0  0  0  0
 25 24  2  0  0  0  0
 26 27  1  0  0  0  0
 26 28  1  0  0  0  0
 26 25  1  0  0  0  0
 29 26  1  0  0  0  0
 31 30  1  0  0  0  0
 31 32  1  0  0  0  0
 33 32  2  0  0  0  0
 33 29  1  0  0  0  0
 34 33  1  0  0  0  0
 35 34  2  0  0  0  0
 36 34  1  0  0  0  0
 36 37  1  0  0  0  0
 37 31  1  0  0  0  0
 38 37  2  0  0  0  0
 39 36  1  0  0  0  0
M  END
>  <minimizedAffinity>
-5.99758053

>  <minimizedRMSD>
0.649176061

$$$$
