
 OpenBabel03272509433D

 39 41  0  0  1  0  0  0  0  0999 V2000
   37.0230   30.9210   49.0120 C   0  0  0  0  0  0  0  0  0  0  0  0
   36.7370   31.8190   50.0430 C   0  0  0  0  0  0  0  0  0  0  0  0
   37.3320   33.0660   50.1200 C   0  0  0  0  0  0  0  0  0  0  0  0
   38.2540   33.4450   49.1330 C   0  0  0  0  0  0  0  0  0  0  0  0
   38.5240   32.5560   48.1280 C   0  0  0  0  0  0  0  0  0  0  0  0
   37.9050   31.3150   48.0870 C   0  0  0  0  0  0  0  0  0  0  0  0
   36.0210   31.5110   50.8000 H   0  0  0  0  0  0  0  0  0  0  0  0
   37.0470   33.6770   50.9490 H   0  0  0  0  0  0  0  0  0  0  0  0
   38.6600   34.4200   49.2730 H   0  0  0  0  0  0  0  0  0  0  0  0
   39.2510   32.9910   47.4480 H   0  0  0  0  0  0  0  0  0  0  0  0
   36.4220   29.6070   48.9580 C   0  0  2  0  0  0  0  0  0  0  0  0
   36.9420   29.0720   48.0730 H   0  0  0  0  0  0  0  0  0  0  0  0
   33.5700   30.0980   46.7610 C   0  0  0  0  0  0  0  0  0  0  0  0
   32.8620   28.9160   46.8630 C   0  0  0  0  0  0  0  0  0  0  0  0
   33.3250   27.9490   47.7440 C   0  0  0  0  0  0  0  0  0  0  0  0
   34.4640   28.2000   48.4760 N   0  0  0  0  0  0  0  0  0  0  0  0
   35.0950   29.3480   48.3320 C   0  0  0  0  0  0  0  0  0  0  0  0
   34.6580   30.2970   47.4830 N   0  0  0  0  0  0  0  0  0  0  0  0
   33.2230   30.8550   46.0830 H   0  0  0  0  0  0  0  0  0  0  0  0
   31.9810   28.8080   46.2480 H   0  0  0  0  0  0  0  0  0  0  0  0
   32.7830   27.0320   47.8300 H   0  0  0  0  0  0  0  0  0  0  0  0
   36.8580   28.8260   49.8840 O   0  0  0  0  0  0  0  0  0  0  0  0
   36.4510   29.0190   50.7780 H   0  0  0  0  0  0  0  0  0  0  0  0
   38.3040   30.4660   46.9880 C   0  0  0  0  0  3  0  0  0  0  0  0
   39.0050   30.8970   45.9330 C   0  0  0  0  0  3  0  0  0  0  0  0
   39.4980   30.1130   44.7770 C   0  0  0  0  0  0  0  0  0  0  0  0
   38.9570   29.1290   44.7910 H   0  0  0  0  0  0  0  0  0  0  0  0
   40.5570   29.8740   44.8590 H   0  0  0  0  0  0  0  0  0  0  0  0
   39.0500   30.9430   43.2490 S   0  0  0  0  0  0  0  0  0  0  0  0
   35.3730   33.9750   43.3420 H   0  0  0  0  0  0  0  0  0  0  0  0
   35.6680   32.9850   43.2220 N   0  0  0  0  0  0  0  0  0  0  0  0
   36.9720   32.6070   43.2940 C   0  0  0  0  0  3  0  0  0  0  0  0
   37.3140   31.2740   43.1260 C   0  0  0  0  0  0  0  0  0  0  0  0
   36.3010   30.3680   42.8890 C   0  0  0  0  0  0  0  0  0  0  0  0
   36.6900   29.1850   42.7480 O   0  0  0  0  0  0  0  0  0  0  0  0
   35.0100   30.7360   42.8150 N   0  0  0  0  0  0  0  0  0  0  0  0
   34.7300   32.0470   42.9860 C   0  0  0  0  0  0  0  0  0  0  0  0
   33.5150   32.4290   42.9230 O   0  0  0  0  0  0  0  0  0  0  0  0
   34.2960   30.0040   42.6340 H   0  0  0  0  0  0  0  0  0  0  0  0
  1  2  1  0  0  0  0
  2  3  2  0  0  0  0
  2  7  1  0  0  0  0
  3  8  1  0  0  0  0
  4  9  1  0  0  0  0
  4  3  1  0  0  0  0
  5  4  2  0  0  0  0
  6  5  1  0  0  0  0
  6  1  2  0  0  0  0
 10  5  1  0  0  0  0
 11 12  1  6  0  0  0
 11  1  1  0  0  0  0
 11 22  1  0  0  0  0
 13 14  2  0  0  0  0
 13 18  1  0  0  0  0
 14 15  1  0  0  0  0
 15 21  1  0  0  0  0
 15 16  2  0  0  0  0
 17 16  1  0  0  0  0
 17 11  1  0  0  0  0
 18 17  2  0  0  0  0
 19 13  1  0  0  0  0
 20 14  1  0  0  0  0
 22 23  1  0  0  0  0
 24  6  1  0  0  0  0
 25 24  2  0  0  0  0
 26 27  1  0  0  0  0
 26 28  1  0  0  0  0
 26 25  1  0  0  0  0
 29 26  1  0  0  0  0
 31 32  1  0  0  0  0
 31 30  1  0  0  0  0
 33 29  1  0  0  0  0
 33 32  2  0  0  0  0
 34 33  1  0  0  0  0
 35 34  2  0  0  0  0
 36 34  1  0  0  0  0
 36 37  1  0  0  0  0
 37 31  1  0  0  0  0
 38 37  2  0  0  0  0
 39 36  1  0  0  0  0
M  END
>  <minimizedAffinity>
-6.03955317

>  <minimizedRMSD>
0.866258204

$$$$
