
 OpenBabel03272509043D

 34 36  0  0  0  0  0  0  0  0999 V2000
   37.3780   30.2530   51.5340 C   0  0  0  0  0  0  0  0  0  0  0  0
   38.0650   31.0020   50.5440 C   0  0  0  0  0  0  0  0  0  0  0  0
   37.6970   30.7910   49.1780 C   0  0  0  0  0  0  0  0  0  0  0  0
   36.7120   29.8850   48.9340 N   0  0  0  0  0  0  0  0  0  0  0  0
   36.0980   29.2070   49.9050 C   0  0  0  0  0  0  0  0  0  0  0  0
   36.4340   29.3950   51.1940 N   0  0  0  0  0  0  0  0  0  0  0  0
   37.7230   30.4810   52.5140 H   0  0  0  0  0  0  0  0  0  0  0  0
   38.8470   31.7230   50.7350 H   0  0  0  0  0  0  0  0  0  0  0  0
   38.3590   31.5210   48.1510 N   0  0  0  0  0  0  0  0  0  0  0  0
   38.4320   30.8150   46.9980 C   0  0  0  0  0  3  0  0  0  0  0  0
   39.0600   31.4110   45.8990 C   0  0  0  0  0  0  0  0  0  0  0  0
   39.1720   30.9350   44.9370 H   0  0  0  0  0  0  0  0  0  0  0  0
   39.5700   32.6730   46.0320 C   0  0  0  0  0  0  0  0  0  0  0  0
   40.1460   33.2890   45.1160 O   0  0  0  0  0  0  0  0  0  0  0  0
   39.4750   33.3440   47.2020 N   0  0  0  0  0  0  0  0  0  0  0  0
   38.8690   32.7620   48.2540 C   0  0  0  0  0  0  0  0  0  0  0  0
   38.6850   33.2200   49.4120 O   0  0  0  0  0  0  0  0  0  0  0  0
   39.8320   34.3000   47.3900 H   0  0  0  0  0  0  0  0  0  0  0  0
   35.0740   28.2810   49.4830 C   0  0  0  0  0  3  0  0  0  0  0  0
   34.1800   28.6760   48.6410 C   0  0  0  0  0  3  0  0  0  0  0  0
   33.0580   27.9090   48.0810 C   0  0  0  0  0  0  0  0  0  0  0  0
   32.4010   28.6240   47.5220 H   0  0  0  0  0  0  0  0  0  0  0  0
   32.3980   27.4480   48.8500 H   0  0  0  0  0  0  0  0  0  0  0  0
   33.5080   26.8750   47.0980 C   0  0  0  0  0  0  0  0  0  0  0  0
   33.7130   25.5430   47.3590 C   0  0  0  0  0  0  0  0  0  0  0  0
   34.1300   24.6790   46.3690 C   0  0  0  0  0  0  0  0  0  0  0  0
   34.3590   25.1300   45.0630 C   0  0  0  0  0  0  0  0  0  0  0  0
   34.1610   26.4500   44.7820 C   0  0  0  0  0  0  0  0  0  0  0  0
   33.7420   27.3030   45.7880 C   0  0  0  0  0  0  0  0  0  0  0  0
   33.5250   25.2250   48.3860 H   0  0  0  0  0  0  0  0  0  0  0  0
   34.2700   23.6400   46.6530 H   0  0  0  0  0  0  0  0  0  0  0  0
   34.6800   24.4120   44.3430 H   0  0  0  0  0  0  0  0  0  0  0  0
   34.3280   26.8370   43.7820 H   0  0  0  0  0  0  0  0  0  0  0  0
   33.5980   28.3320   45.5300 H   0  0  0  0  0  0  0  0  0  0  0  0
  1  7  1  0  0  0  0
  2  8  1  0  0  0  0
  2  1  2  0  0  0  0
  3  2  1  0  0  0  0
  4  3  2  0  0  0  0
  4  5  1  0  0  0  0
  5  6  2  0  0  0  0
  6  1  1  0  0  0  0
  9 16  1  0  0  0  0
  9  3  1  0  0  0  0
 10  9  1  0  0  0  0
 11 13  1  0  0  0  0
 11 10  2  0  0  0  0
 12 11  1  0  0  0  0
 13 15  1  0  0  0  0
 14 13  2  0  0  0  0
 15 18  1  0  0  0  0
 15 16  1  0  0  0  0
 16 17  2  0  0  0  0
 19  5  1  0  0  0  0
 20 19  2  0  0  0  0
 21 20  1  0  0  0  0
 21 23  1  0  0  0  0
 22 21  1  0  0  0  0
 24 25  1  0  0  0  0
 24 21  1  0  0  0  0
 25 30  1  0  0  0  0
 26 31  1  0  0  0  0
 26 25  2  0  0  0  0
 27 26  1  0  0  0  0
 28 27  2  0  0  0  0
 28 29  1  0  0  0  0
 29 24  2  0  0  0  0
 32 27  1  0  0  0  0
 33 28  1  0  0  0  0
 34 29  1  0  0  0  0
M  END
>  <minimizedAffinity>
-7.24462271

>  <minimizedRMSD>
0.821251214

$$$$
