
 OpenBabel03272506313D

 41 43  0  0  1  0  0  0  0  0999 V2000
   34.1050   29.1760   48.5430 C   0  0  1  0  0  0  0  0  0  0  0  0
   33.6250   30.0310   49.6050 C   0  0  0  0  0  0  0  0  0  0  0  0
   34.1520   29.7590   50.9990 C   0  0  0  0  0  0  0  0  0  0  0  0
   35.5820   29.3480   51.0770 C   0  0  0  0  0  0  0  0  0  0  0  0
   36.1130   28.4990   49.9790 C   0  0  0  0  0  0  0  0  0  0  0  0
   35.5860   28.8890   48.6490 C   0  0  2  0  0  0  0  0  0  0  0  0
   34.0450   29.7350   47.5580 H   0  0  0  0  0  0  0  0  0  0  0  0
   32.5540   30.1790   49.7080 H   0  0  0  0  0  0  0  0  0  0  0  0
   34.0210   31.0660   49.3890 H   0  0  0  0  0  0  0  0  0  0  0  0
   34.0210   30.6750   51.6190 H   0  0  0  0  0  0  0  0  0  0  0  0
   33.4760   28.9890   51.4510 H   0  0  0  0  0  0  0  0  0  0  0  0
   35.6720   28.7340   52.0150 H   0  0  0  0  0  0  0  0  0  0  0  0
   36.2620   30.2080   51.2580 H   0  0  0  0  0  0  0  0  0  0  0  0
   35.8420   27.4230   50.1730 H   0  0  0  0  0  0  0  0  0  0  0  0
   37.2040   28.6210   49.9520 H   0  0  0  0  0  0  0  0  0  0  0  0
   35.9690   28.2240   47.8580 H   0  0  0  0  0  0  0  0  0  0  0  0
   31.9740   27.7680   48.6680 C   0  0  0  0  0  0  0  0  0  0  0  0
   33.3350   27.9500   48.2710 C   0  0  0  0  0  0  0  0  0  0  0  0
   33.9070   26.8800   47.6030 C   0  0  0  0  0  0  0  0  0  0  0  0
   33.1710   25.7470   47.3650 N   0  0  0  0  0  0  0  0  0  0  0  0
   31.8910   25.6390   47.7660 C   0  0  0  0  0  0  0  0  0  0  0  0
   31.2890   26.6650   48.4260 N   0  0  0  0  0  0  0  0  0  0  0  0
   31.5010   28.5890   49.1920 H   0  0  0  0  0  0  0  0  0  0  0  0
   34.9180   26.8930   47.2540 H   0  0  0  0  0  0  0  0  0  0  0  0
   31.3490   24.7270   47.5570 H   0  0  0  0  0  0  0  0  0  0  0  0
   36.2580   30.2540   48.3470 C   0  0  0  0  0  0  0  0  0  0  0  0
   36.0210   30.9920   49.1220 H   0  0  0  0  0  0  0  0  0  0  0  0
   35.9560   30.6340   47.3500 H   0  0  0  0  0  0  0  0  0  0  0  0
   37.7720   30.0970   48.2900 C   0  0  0  0  0  0  0  0  0  0  0  0
   38.0990   29.5090   49.1620 H   0  0  0  0  0  0  0  0  0  0  0  0
   38.0370   29.6450   47.3110 H   0  0  0  0  0  0  0  0  0  0  0  0
   38.3480   31.4450   48.3340 N   0  0  0  0  0  0  0  0  0  0  0  0
   38.6860   32.1180   47.2080 C   0  0  0  0  0  3  0  0  0  0  0  0
   39.2230   33.3900   47.4090 C   0  0  0  0  0  0  0  0  0  0  0  0
   39.4980   33.9380   46.5050 H   0  0  0  0  0  0  0  0  0  0  0  0
   39.4010   33.9320   48.6640 C   0  0  0  0  0  0  0  0  0  0  0  0
   39.8930   35.0810   48.7000 O   0  0  0  0  0  0  0  0  0  0  0  0
   39.0500   33.2260   49.7660 N   0  0  0  0  0  0  0  0  0  0  0  0
   38.5400   32.0140   49.5390 C   0  0  0  0  0  0  0  0  0  0  0  0
   38.2140   31.3580   50.5710 O   0  0  0  0  0  0  0  0  0  0  0  0
   39.1880   33.6410   50.7000 H   0  0  0  0  0  0  0  0  0  0  0  0
  1  7  1  6  0  0  0
  1  6  1  0  0  0  0
  1  2  1  0  0  0  0
  2  8  1  0  0  0  0
  2  3  1  0  0  0  0
  3  4  1  0  0  0  0
  3 11  1  0  0  0  0
  3 10  1  0  0  0  0
  4 13  1  0  0  0  0
  4 12  1  0  0  0  0
  5 14  1  0  0  0  0
  5  4  1  0  0  0  0
  6 16  1  6  0  0  0
  6  5  1  0  0  0  0
  9  2  1  0  0  0  0
 15  5  1  0  0  0  0
 17 23  1  0  0  0  0
 18  1  1  0  0  0  0
 18 17  2  0  0  0  0
 19 18  1  0  0  0  0
 20 19  2  0  0  0  0
 20 21  1  0  0  0  0
 21 22  2  0  0  0  0
 22 17  1  0  0  0  0
 24 19  1  0  0  0  0
 25 21  1  0  0  0  0
 26  6  1  0  0  0  0
 26 27  1  0  0  0  0
 28 26  1  0  0  0  0
 29 32  1  0  0  0  0
 29 26  1  0  0  0  0
 29 30  1  0  0  0  0
 31 29  1  0  0  0  0
 32 39  1  0  0  0  0
 33 34  2  0  0  0  0
 33 32  1  0  0  0  0
 34 36  1  0  0  0  0
 35 34  1  0  0  0  0
 36 37  2  0  0  0  0
 36 38  1  0  0  0  0
 38 41  1  0  0  0  0
 39 38  1  0  0  0  0
 39 40  2  0  0  0  0
M  END
>  <minimizedAffinity>
-4.65754795

>  <minimizedRMSD>
3.24830389

$$$$
