
 OpenBabel03272510163D

 29 31  0  0  0  0  0  0  0  0999 V2000
   37.1950   29.3230   50.9780 Br  0  0  0  0  0  0  0  0  0  0  0  0
   35.9120   29.3350   49.5670 C   0  0  0  0  0  0  0  0  0  0  0  0
   35.9870   30.2590   48.5470 C   0  0  0  0  0  0  0  0  0  0  0  0
   35.0150   30.2000   47.5610 C   0  0  0  0  0  0  0  0  0  0  0  0
   33.9900   29.2610   47.5640 C   0  0  0  0  0  0  0  0  0  0  0  0
   33.9570   28.3640   48.5990 C   0  0  0  0  0  0  0  0  0  0  0  0
   34.9130   28.4050   49.5890 C   0  0  0  0  0  0  0  0  0  0  0  0
   35.1230   30.9580   46.7760 H   0  0  0  0  0  0  0  0  0  0  0  0
   33.1430   27.6580   48.5550 H   0  0  0  0  0  0  0  0  0  0  0  0
   34.8120   27.6570   50.3710 H   0  0  0  0  0  0  0  0  0  0  0  0
   33.0980   29.3730   46.4600 N   0  0  0  0  0  0  0  0  0  0  0  0
   32.2150   30.3490   46.1910 C   0  0  0  0  0  3  0  0  0  0  0  0
   31.4490   30.2410   45.0500 C   0  0  0  0  0  0  0  0  0  0  0  0
   30.7430   31.0480   44.8620 H   0  0  0  0  0  0  0  0  0  0  0  0
   31.5790   29.1520   44.1930 C   0  0  0  0  0  0  0  0  0  0  0  0
   30.8570   29.0850   43.1480 O   0  0  0  0  0  0  0  0  0  0  0  0
   32.4810   28.1980   44.5060 N   0  0  0  0  0  0  0  0  0  0  0  0
   33.2320   28.3030   45.6260 C   0  0  0  0  0  0  0  0  0  0  0  0
   34.0200   27.3370   45.7720 O   0  0  0  0  0  0  0  0  0  0  0  0
   32.5410   27.4010   43.8300 H   0  0  0  0  0  0  0  0  0  0  0  0
   38.0080   33.1550   49.4420 C   0  0  0  0  0  0  0  0  0  0  0  0
   39.0420   33.1530   48.4860 C   0  0  0  0  0  0  0  0  0  0  0  0
   39.0320   32.1450   47.5350 C   0  0  0  0  0  0  0  0  0  0  0  0
   38.0300   31.2130   47.5710 N   0  0  0  0  0  0  0  0  0  0  0  0
   37.0480   31.2540   48.5160 C   0  0  0  0  0  0  0  0  0  0  0  0
   37.0480   32.2240   49.4410 N   0  0  0  0  0  0  0  0  0  0  0  0
   38.0710   33.9650   50.1550 H   0  0  0  0  0  0  0  0  0  0  0  0
   39.8480   33.8340   48.3910 H   0  0  0  0  0  0  0  0  0  0  0  0
   39.7250   31.9670   46.7240 H   0  0  0  0  0  0  0  0  0  0  0  0
  2  7  1  0  0  0  0
  2  1  1  0  0  0  0
  3  2  2  0  0  0  0
  4  5  2  0  0  0  0
  4  3  1  0  0  0  0
  5  6  1  0  0  0  0
  6  7  2  0  0  0  0
  7 10  1  0  0  0  0
  8  4  1  0  0  0  0
  9  6  1  0  0  0  0
 11  5  1  0  0  0  0
 12 11  1  0  0  0  0
 13 12  2  0  0  0  0
 14 13  1  0  0  0  0
 15 17  1  0  0  0  0
 15 13  1  0  0  0  0
 16 15  2  0  0  0  0
 17 18  1  0  0  0  0
 18 19  2  0  0  0  0
 18 11  1  0  0  0  0
 20 17  1  0  0  0  0
 21 27  1  0  0  0  0
 22 21  2  0  0  0  0
 23 24  2  0  0  0  0
 23 22  1  0  0  0  0
 24 25  1  0  0  0  0
 25  3  1  0  0  0  0
 25 26  2  0  0  0  0
 26 21  1  0  0  0  0
 28 22  1  0  0  0  0
 29 23  1  0  0  0  0
M  END
>  <minimizedAffinity>
-5.82116365

>  <minimizedRMSD>
0.671284258

$$$$
