
 OpenBabel03272510043D

 38 40  0  0  0  0  0  0  0  0999 V2000
   34.2880   29.5930   43.6610 C   0  0  0  0  0  0  0  0  0  0  0  0
   34.1040   29.1440   44.9280 C   0  0  0  0  0  0  0  0  0  0  0  0
   33.0610   28.2670   45.2060 C   0  0  0  0  0  0  0  0  0  0  0  0
   32.1870   27.8290   44.2270 C   0  0  0  0  0  0  0  0  0  0  0  0
   32.3410   28.2660   42.9440 C   0  0  0  0  0  0  0  0  0  0  0  0
   33.3780   29.1270   42.7050 C   0  0  0  0  0  0  0  0  0  0  0  0
   32.9380   27.9170   46.2430 H   0  0  0  0  0  0  0  0  0  0  0  0
   31.4190   27.1500   44.5560 H   0  0  0  0  0  0  0  0  0  0  0  0
   31.6380   27.8960   42.2400 H   0  0  0  0  0  0  0  0  0  0  0  0
   33.3950   29.4060   41.6430 H   0  0  0  0  0  0  0  0  0  0  0  0
   36.8400   30.7950   46.7460 C   0  0  0  0  0  0  0  0  0  0  0  0
   36.0070   30.3590   45.7260 C   0  0  0  0  0  0  0  0  0  0  0  0
   34.9280   29.5800   46.0050 C   0  0  0  0  0  0  0  0  0  0  0  0
   34.7120   29.2610   47.3110 N   0  0  0  0  0  0  0  0  0  0  0  0
   35.5100   29.6810   48.2980 C   0  0  0  0  0  0  0  0  0  0  0  0
   36.5700   30.4430   48.0080 N   0  0  0  0  0  0  0  0  0  0  0  0
   37.7240   31.4050   46.7050 H   0  0  0  0  0  0  0  0  0  0  0  0
   36.4190   30.8030   44.8510 H   0  0  0  0  0  0  0  0  0  0  0  0
   35.1170   29.3160   49.6840 C   0  0  0  0  0  0  0  0  0  0  0  0
   36.1420   29.5220   50.5860 F   0  0  0  0  0  0  0  0  0  0  0  0
   34.1120   30.2510   50.1420 F   0  0  0  0  0  0  0  0  0  0  0  0
   34.5470   28.1450   49.8570 F   0  0  0  0  0  0  0  0  0  0  0  0
   35.5710   30.6430   43.1890 S   0  0  0  0  0  0  0  0  0  0  0  0
   35.2280   32.0600   43.4730 O   0  0  0  0  0  0  0  0  0  0  0  0
   35.2690   30.6880   41.7060 O   0  0  0  0  0  0  0  0  0  0  0  0
   37.1540   30.2450   42.7700 C   0  0  0  0  0  0  0  0  0  0  0  0
   37.2830   29.1390   43.1110 H   0  0  0  0  0  0  0  0  0  0  0  0
   37.3060   30.1080   41.6850 H   0  0  0  0  0  0  0  0  0  0  0  0
   38.2410   30.8680   43.4310 N   0  0  0  0  0  0  0  0  0  0  0  0
   38.4440   32.2010   43.5670 C   0  0  0  0  0  3  0  0  0  0  0  0
   39.5220   32.7610   44.2220 C   0  0  0  0  0  0  0  0  0  0  0  0
   39.6040   33.8560   44.2840 H   0  0  0  0  0  0  0  0  0  0  0  0
   40.4460   31.8870   44.7680 C   0  0  0  0  0  0  0  0  0  0  0  0
   41.4160   32.4030   45.3550 O   0  0  0  0  0  0  0  0  0  0  0  0
   40.2620   30.5460   44.6410 N   0  0  0  0  0  0  0  0  0  0  0  0
   39.2000   30.0860   43.9980 C   0  0  0  0  0  0  0  0  0  0  0  0
   39.1070   28.8150   43.9270 O   0  0  0  0  0  0  0  0  0  0  0  0
   40.9900   29.9330   45.0700 H   0  0  0  0  0  0  0  0  0  0  0  0
  1  2  1  0  0  0  0
  2  3  2  0  0  0  0
  2 13  1  0  0  0  0
  3  7  1  0  0  0  0
  4  8  1  0  0  0  0
  4  3  1  0  0  0  0
  5  4  2  0  0  0  0
  6  5  1  0  0  0  0
  6  1  2  0  0  0  0
  9  5  1  0  0  0  0
 10  6  1  0  0  0  0
 11 16  1  0  0  0  0
 12 13  1  0  0  0  0
 12 11  2  0  0  0  0
 13 14  2  0  0  0  0
 14 15  1  0  0  0  0
 15 19  1  0  0  0  0
 16 15  2  0  0  0  0
 17 11  1  0  0  0  0
 18 12  1  0  0  0  0
 19 22  1  0  0  0  0
 19 21  1  0  0  0  0
 19 20  1  0  0  0  0
 23 24  2  0  0  0  0
 23  1  1  0  0  0  0
 25 23  2  0  0  0  0
 26 27  1  0  0  0  0
 26 23  1  0  0  0  0
 26 29  1  0  0  0  0
 28 26  1  0  0  0  0
 29 30  1  0  0  0  0
 29 36  1  0  0  0  0
 30 31  2  0  0  0  0
 31 32  1  0  0  0  0
 31 33  1  0  0  0  0
 33 34  2  0  0  0  0
 35 33  1  0  0  0  0
 35 38  1  0  0  0  0
 36 35  1  0  0  0  0
 37 36  2  0  0  0  0
M  END
>  <minimizedAffinity>
-5.06487322

>  <minimizedRMSD>
4.19834995

$$$$
