
 OpenBabel03272508573D

 41 44  0  0  1  0  0  0  0  0999 V2000
   39.1980   31.4400   43.3490 C   0  0  0  0  0  0  0  0  0  0  0  0
   40.2370   30.5540   43.4550 C   0  0  0  0  0  0  0  0  0  0  0  0
   40.9150   30.2340   42.2850 C   0  0  0  0  0  0  0  0  0  0  0  0
   40.5020   30.8210   41.1080 C   0  0  0  0  0  0  0  0  0  0  0  0
   39.4520   31.7120   41.0110 C   0  0  0  0  0  0  0  0  0  0  0  0
   38.8140   32.0020   42.1730 N   0  0  0  0  0  0  0  0  0  0  0  0
   40.5450   30.1040   44.3920 H   0  0  0  0  0  0  0  0  0  0  0  0
   41.7350   29.5510   42.2920 H   0  0  0  0  0  0  0  0  0  0  0  0
   41.0480   30.5520   40.2190 H   0  0  0  0  0  0  0  0  0  0  0  0
   38.4500   31.8190   44.5720 C   0  0  0  0  0  0  0  0  0  0  0  0
   37.3590   32.3980   44.5280 O   0  0  0  0  0  0  0  0  0  0  0  0
   39.0620   31.4790   45.8490 N   0  0  0  0  0  0  0  0  0  0  0  0
   40.0540   31.1930   45.9610 H   0  0  0  0  0  0  0  0  0  0  0  0
   38.7360   31.1370   48.2950 C   0  0  2  0  0  0  0  0  0  0  0  0
   38.7120   32.6040   48.0530 C   0  0  0  0  0  0  0  0  0  0  0  0
   38.2280   31.5470   47.0270 C   0  0  1  0  0  0  0  0  0  0  0  0
   39.7680   30.7400   48.4030 H   0  0  0  0  0  0  0  0  0  0  0  0
   37.9310   33.2250   48.5400 H   0  0  0  0  0  0  0  0  0  0  0  0
   39.6290   33.1480   47.8320 H   0  0  0  0  0  0  0  0  0  0  0  0
   37.1080   31.5660   46.8610 H   0  0  0  0  0  0  0  0  0  0  0  0
   35.9050   29.2100   49.7330 C   0  0  0  0  0  0  0  0  0  0  0  0
   36.1220   29.3740   51.1310 C   0  0  0  0  0  0  0  0  0  0  0  0
   37.2500   30.1630   51.5610 C   0  0  0  0  0  0  0  0  0  0  0  0
   38.0770   30.7280   50.6180 N   0  0  0  0  0  0  0  0  0  0  0  0
   37.7940   30.5200   49.3000 C   0  0  0  0  0  0  0  0  0  0  0  0
   36.7250   29.7710   48.8190 N   0  0  0  0  0  0  0  0  0  0  0  0
   35.0640   28.6220   49.4350 H   0  0  0  0  0  0  0  0  0  0  0  0
   35.4870   28.9380   51.8610 H   0  0  0  0  0  0  0  0  0  0  0  0
   37.4220   30.2910   52.6200 H   0  0  0  0  0  0  0  0  0  0  0  0
   39.0600   32.2880   39.7380 C   0  0  0  0  0  0  0  0  0  0  0  0
   38.9610   33.5250   39.6140 O   0  0  0  0  0  0  0  0  0  0  0  0
   40.1010   29.7670   36.1150 H   0  0  0  0  0  0  0  0  0  0  0  0
   39.3960   30.0510   36.8310 N   0  0  0  0  0  0  0  0  0  0  0  0
   39.7750   30.9730   37.7580 C   0  0  0  0  0  3  0  0  0  0  0  0
   38.8080   31.3150   38.6830 C   0  0  0  0  0  0  0  0  0  0  0  0
   37.5350   30.7790   38.6950 C   0  0  0  0  0  0  0  0  0  0  0  0
   36.6650   31.0850   39.5250 O   0  0  0  0  0  0  0  0  0  0  0  0
   37.2050   29.8580   37.7430 N   0  0  0  0  0  0  0  0  0  0  0  0
   38.1570   29.5210   36.8320 C   0  0  0  0  0  0  0  0  0  0  0  0
   37.7940   28.6680   35.9820 O   0  0  0  0  0  0  0  0  0  0  0  0
   36.2500   29.4510   37.7460 H   0  0  0  0  0  0  0  0  0  0  0  0
  1  2  1  0  0  0  0
  1 10  1  0  0  0  0
  2  7  1  0  0  0  0
  3  8  1  0  0  0  0
  3  2  2  0  0  0  0
  4  3  1  0  0  0  0
  5  4  2  0  0  0  0
  5  6  1  0  0  0  0
  6  1  2  0  0  0  0
  9  4  1  0  0  0  0
 10 12  1  0  0  0  0
 11 10  2  0  0  0  0
 12 13  1  0  0  0  0
 12 16  1  0  0  0  0
 14 17  1  6  0  0  0
 14 25  1  0  0  0  0
 15 14  1  0  0  0  0
 15 18  1  0  0  0  0
 16 20  1  6  0  0  0
 16 15  1  0  0  0  0
 16 14  1  0  0  0  0
 19 15  1  0  0  0  0
 21 22  1  0  0  0  0
 22 23  2  0  0  0  0
 22 28  1  0  0  0  0
 23 29  1  0  0  0  0
 24 23  1  0  0  0  0
 25 24  2  0  0  0  0
 26 25  1  0  0  0  0
 26 21  2  0  0  0  0
 27 21  1  0  0  0  0
 30  5  1  0  0  0  0
 31 30  2  0  0  0  0
 32 33  1  0  0  0  0
 33 39  1  0  0  0  0
 33 34  1  0  0  0  0
 34 35  2  0  0  0  0
 35 36  1  0  0  0  0
 35 30  1  0  0  0  0
 36 37  2  0  0  0  0
 38 41  1  0  0  0  0
 38 36  1  0  0  0  0
 39 38  1  0  0  0  0
 40 39  2  0  0  0  0
M  END
>  <minimizedAffinity>
-5.02273273

>  <minimizedRMSD>
1.0690155

$$$$
