
 OpenBabel03272506323D

 41 43  0  0  1  0  0  0  0  0999 V2000
   35.0360   30.0500   48.8470 C   0  0  1  0  0  0  0  0  0  0  0  0
   34.4600   30.1460   50.1690 C   0  0  0  0  0  0  0  0  0  0  0  0
   35.1420   29.3670   51.2750 C   0  0  0  0  0  0  0  0  0  0  0  0
   36.6290   29.3190   51.2040 C   0  0  0  0  0  0  0  0  0  0  0  0
   37.2510   29.2570   49.8560 C   0  0  0  0  0  0  0  0  0  0  0  0
   36.5470   30.1050   48.8630 C   0  0  2  0  0  0  0  0  0  0  0  0
   34.7750   30.9830   48.2570 H   0  0  0  0  0  0  0  0  0  0  0  0
   33.3940   29.9680   50.2840 H   0  0  0  0  0  0  0  0  0  0  0  0
   34.5940   31.2160   50.5020 H   0  0  0  0  0  0  0  0  0  0  0  0
   34.8560   29.8090   52.2560 H   0  0  0  0  0  0  0  0  0  0  0  0
   34.6950   28.3400   51.2640 H   0  0  0  0  0  0  0  0  0  0  0  0
   36.9280   28.3680   51.7270 H   0  0  0  0  0  0  0  0  0  0  0  0
   37.1090   30.1160   51.8110 H   0  0  0  0  0  0  0  0  0  0  0  0
   37.2450   28.1920   49.4890 H   0  0  0  0  0  0  0  0  0  0  0  0
   38.2800   29.6300   49.9390 H   0  0  0  0  0  0  0  0  0  0  0  0
   37.0080   30.0160   47.8660 H   0  0  0  0  0  0  0  0  0  0  0  0
   34.1870   27.6680   48.4610 C   0  0  0  0  0  0  0  0  0  0  0  0
   34.5440   28.9660   47.9780 C   0  0  0  0  0  0  0  0  0  0  0  0
   34.4030   29.1510   46.6140 C   0  0  0  0  0  0  0  0  0  0  0  0
   33.9470   28.1250   45.8250 N   0  0  0  0  0  0  0  0  0  0  0  0
   33.6270   26.9250   46.3420 C   0  0  0  0  0  0  0  0  0  0  0  0
   33.7510   26.6980   47.6790 N   0  0  0  0  0  0  0  0  0  0  0  0
   34.2880   27.4950   49.5250 H   0  0  0  0  0  0  0  0  0  0  0  0
   34.6360   30.0770   46.1310 H   0  0  0  0  0  0  0  0  0  0  0  0
   33.2720   26.1450   45.6830 H   0  0  0  0  0  0  0  0  0  0  0  0
   36.8680   31.5600   49.2940 C   0  0  0  0  0  0  0  0  0  0  0  0
   36.3860   31.8060   50.2460 H   0  0  0  0  0  0  0  0  0  0  0  0
   36.5610   32.2830   48.5100 H   0  0  0  0  0  0  0  0  0  0  0  0
   38.3700   31.7420   49.4610 C   0  0  0  0  0  0  0  0  0  0  0  0
   38.5490   32.5310   50.2090 H   0  0  0  0  0  0  0  0  0  0  0  0
   38.8120   30.7580   49.7220 H   0  0  0  0  0  0  0  0  0  0  0  0
   38.9050   32.1440   48.1560 N   0  0  0  0  0  0  0  0  0  0  0  0
   38.9150   31.3000   47.0940 C   0  0  0  0  0  0  0  0  0  0  0  0
   39.4540   31.8230   45.9200 C   0  0  0  0  0  0  0  0  0  0  0  0
   39.4660   31.1490   45.0600 H   0  0  0  0  0  0  0  0  0  0  0  0
   39.9460   33.1080   45.8350 C   0  0  0  0  0  0  0  0  0  0  0  0
   40.4020   33.4480   44.7220 O   0  0  0  0  0  0  0  0  0  0  0  0
   39.9190   33.9210   46.9190 N   0  0  0  0  0  0  0  0  0  0  0  0
   39.3960   33.3900   48.0260 C   0  0  0  0  0  0  0  0  0  0  0  0
   39.3720   34.1520   49.0370 O   0  0  0  0  0  0  0  0  0  0  0  0
   40.2890   34.8800   46.8440 H   0  0  0  0  0  0  0  0  0  0  0  0
  1  7  1  6  0  0  0
  1  6  1  0  0  0  0
  1  2  1  0  0  0  0
  2  8  1  0  0  0  0
  2  9  1  0  0  0  0
  2  3  1  0  0  0  0
  3 10  1  0  0  0  0
  4  3  1  0  0  0  0
  4 12  1  0  0  0  0
  4 13  1  0  0  0  0
  5 15  1  0  0  0  0
  5  4  1  0  0  0  0
  6 16  1  6  0  0  0
  6 26  1  0  0  0  0
  6  5  1  0  0  0  0
 11  3  1  0  0  0  0
 14  5  1  0  0  0  0
 17 23  1  0  0  0  0
 18 17  1  0  0  0  0
 18  1  1  0  0  0  0
 19 18  2  0  0  0  0
 20 21  2  0  0  0  0
 20 19  1  0  0  0  0
 21 22  1  0  0  0  0
 22 17  2  0  0  0  0
 24 19  1  0  0  0  0
 25 21  1  0  0  0  0
 26 29  1  0  0  0  0
 26 27  1  0  0  0  0
 28 26  1  0  0  0  0
 29 31  1  0  0  0  0
 29 30  1  0  0  0  0
 32 29  1  0  0  0  0
 33 32  1  0  0  0  0
 34 33  2  0  0  0  0
 35 34  1  0  0  0  0
 36 34  1  0  0  0  0
 36 38  1  0  0  0  0
 37 36  2  0  0  0  0
 38 39  1  0  0  0  0
 39 32  1  0  0  0  0
 39 40  2  0  0  0  0
 41 38  1  0  0  0  0
M  END
>  <minimizedAffinity>
-6.60679626

>  <minimizedRMSD>
3.68570781

$$$$
