
 OpenBabel03262521533D

 24 25  0  0  0  0  0  0  0  0999 V2000
   38.7600   26.7850   35.6840 C   0  0  0  0  0  0  0  0  0  0  0  0
   39.7090   26.8340   36.2730 H   0  0  0  0  0  0  0  0  0  0  0  0
   38.0780   27.6030   35.9250 H   0  0  0  0  0  0  0  0  0  0  0  0
   39.2750   26.8840   33.9520 S   0  0  0  0  0  0  0  0  0  0  0  0
   37.8210   26.6820   32.9280 C   0  0  0  0  0  0  0  0  0  0  0  0
   37.0560   27.8360   32.7680 C   0  0  0  0  0  0  0  0  0  0  0  0
   35.9210   27.7080   31.9790 C   0  0  0  0  0  0  0  0  0  0  0  0
   35.5900   26.5100   31.4010 N   0  0  0  0  0  0  0  0  0  0  0  0
   36.3840   25.4320   31.6040 C   0  0  0  0  0  0  0  0  0  0  0  0
   37.4810   25.5260   32.3570 N   0  0  0  0  0  0  0  0  0  0  0  0
   37.2430   28.8060   33.1810 H   0  0  0  0  0  0  0  0  0  0  0  0
   35.2750   28.5410   31.8020 H   0  0  0  0  0  0  0  0  0  0  0  0
   36.0340   24.5370   31.1060 H   0  0  0  0  0  0  0  0  0  0  0  0
   38.0240   25.1530   36.0580 S   0  0  0  0  0  0  0  0  0  0  0  0
   42.0570   22.4390   35.5730 H   0  0  0  0  0  0  0  0  0  0  0  0
   41.2120   22.6430   36.1860 N   0  0  0  0  0  0  0  0  0  0  0  0
   40.4190   23.6050   35.6900 C   0  0  0  0  0  3  0  0  0  0  0  0
   39.2870   23.9550   36.4050 C   0  0  0  0  0  0  0  0  0  0  0  0
   39.0260   23.2900   37.6080 C   0  0  0  0  0  0  0  0  0  0  0  0
   38.0480   23.4770   38.3880 O   0  0  0  0  0  0  0  0  0  0  0  0
   39.8540   22.3180   38.0800 N   0  0  0  0  0  0  0  0  0  0  0  0
   40.9480   22.0140   37.3400 C   0  0  0  0  0  0  0  0  0  0  0  0
   41.7500   21.1170   37.7350 O   0  0  0  0  0  0  0  0  0  0  0  0
   39.7190   21.7930   38.9540 H   0  0  0  0  0  0  0  0  0  0  0  0
  1  3  1  0  0  0  0
  1 14  1  0  0  0  0
  1  2  1  0  0  0  0
  4  1  1  0  0  0  0
  5  4  1  0  0  0  0
  6  5  1  0  0  0  0
  6 11  1  0  0  0  0
  7  6  2  0  0  0  0
  8  9  2  0  0  0  0
  8  7  1  0  0  0  0
  9 10  1  0  0  0  0
 10  5  2  0  0  0  0
 12  7  1  0  0  0  0
 13  9  1  0  0  0  0
 14 18  1  0  0  0  0
 15 16  1  0  0  0  0
 16 22  1  0  0  0  0
 17 16  1  0  0  0  0
 17 18  2  0  0  0  0
 18 19  1  0  0  0  0
 19 21  1  0  0  0  0
 19 20  2  0  0  0  0
 21 24  1  0  0  0  0
 22 23  2  0  0  0  0
 22 21  1  0  0  0  0
M  END
>  <minimizedAffinity>
-4.63719177

$$$$

 OpenBabel03262521533D

 24 25  0  0  0  0  0  0  0  0999 V2000
   38.9470   26.1710   34.4740 C   0  0  0  0  0  0  0  0  0  0  0  0
   39.9120   25.7260   34.1250 H   0  0  0  0  0  0  0  0  0  0  0  0
   39.0870   27.1430   34.9520 H   0  0  0  0  0  0  0  0  0  0  0  0
   37.9410   26.3420   32.9800 S   0  0  0  0  0  0  0  0  0  0  0  0
   36.9360   27.8140   33.1530 C   0  0  0  0  0  0  0  0  0  0  0  0
   36.7750   28.5500   31.9800 C   0  0  0  0  0  0  0  0  0  0  0  0
   36.0010   29.6970   32.0850 C   0  0  0  0  0  0  0  0  0  0  0  0
   35.4380   30.0670   33.2790 N   0  0  0  0  0  0  0  0  0  0  0  0
   35.6410   29.2990   34.3760 C   0  0  0  0  0  0  0  0  0  0  0  0
   36.3800   28.1910   34.3040 N   0  0  0  0  0  0  0  0  0  0  0  0
   37.1770   28.3320   31.0110 H   0  0  0  0  0  0  0  0  0  0  0  0
   35.8240   30.3230   31.2370 H   0  0  0  0  0  0  0  0  0  0  0  0
   35.1560   29.6790   35.2660 H   0  0  0  0  0  0  0  0  0  0  0  0
   38.2180   24.9470   35.6200 S   0  0  0  0  0  0  0  0  0  0  0  0
   42.1970   22.1120   35.5970 H   0  0  0  0  0  0  0  0  0  0  0  0
   41.3360   22.4020   36.1500 N   0  0  0  0  0  0  0  0  0  0  0  0
   40.5850   23.3180   35.5200 C   0  0  0  0  0  3  0  0  0  0  0  0
   39.4380   23.7700   36.1470 C   0  0  0  0  0  0  0  0  0  0  0  0
   39.1190   23.2520   37.4070 C   0  0  0  0  0  0  0  0  0  0  0  0
   38.1190   23.5460   38.1230 O   0  0  0  0  0  0  0  0  0  0  0  0
   39.9050   22.3230   38.0170 N   0  0  0  0  0  0  0  0  0  0  0  0
   41.0170   21.9130   37.3580 C   0  0  0  0  0  0  0  0  0  0  0  0
   41.7810   21.0520   37.8810 O   0  0  0  0  0  0  0  0  0  0  0  0
   39.7270   21.9030   38.9390 H   0  0  0  0  0  0  0  0  0  0  0  0
  1  3  1  0  0  0  0
  1 14  1  0  0  0  0
  2  1  1  0  0  0  0
  4  5  1  0  0  0  0
  4  1  1  0  0  0  0
  5 10  1  0  0  0  0
  6  7  1  0  0  0  0
  6  5  2  0  0  0  0
  7  8  2  0  0  0  0
  8  9  1  0  0  0  0
  9 13  1  0  0  0  0
 10  9  2  0  0  0  0
 11  6  1  0  0  0  0
 12  7  1  0  0  0  0
 14 18  1  0  0  0  0
 15 16  1  0  0  0  0
 16 22  1  0  0  0  0
 17 18  2  0  0  0  0
 17 16  1  0  0  0  0
 18 19  1  0  0  0  0
 19 21  1  0  0  0  0
 19 20  2  0  0  0  0
 21 24  1  0  0  0  0
 22 23  2  0  0  0  0
 22 21  1  0  0  0  0
M  END
>  <minimizedAffinity>
-4.35031748

$$$$

 OpenBabel03262521533D

 24 25  0  0  0  0  0  0  0  0999 V2000
   37.7250   23.4380   31.7470 C   0  0  0  0  0  0  0  0  0  0  0  0
   36.7390   23.7020   32.2040 H   0  0  0  0  0  0  0  0  0  0  0  0
   37.6200   23.0390   30.7360 H   0  0  0  0  0  0  0  0  0  0  0  0
   38.6610   24.9860   31.7210 S   0  0  0  0  0  0  0  0  0  0  0  0
   38.5810   25.7110   33.3560 C   0  0  0  0  0  0  0  0  0  0  0  0
   39.7770   26.2670   33.8060 C   0  0  0  0  0  0  0  0  0  0  0  0
   39.7440   26.8350   35.0720 C   0  0  0  0  0  0  0  0  0  0  0  0
   38.5940   26.8390   35.8190 N   0  0  0  0  0  0  0  0  0  0  0  0
   37.4710   26.2790   35.3120 C   0  0  0  0  0  0  0  0  0  0  0  0
   37.4730   25.7260   34.0980 N   0  0  0  0  0  0  0  0  0  0  0  0
   40.7150   26.3060   33.2900 H   0  0  0  0  0  0  0  0  0  0  0  0
   40.6150   27.2840   35.4980 H   0  0  0  0  0  0  0  0  0  0  0  0
   36.6210   26.3330   35.9800 H   0  0  0  0  0  0  0  0  0  0  0  0
   38.4910   22.2260   32.8820 S   0  0  0  0  0  0  0  0  0  0  0  0
   34.6130   20.0260   34.8780 H   0  0  0  0  0  0  0  0  0  0  0  0
   35.4670   20.6290   35.0690 N   0  0  0  0  0  0  0  0  0  0  0  0
   36.1860   20.8940   33.9680 C   0  0  0  0  0  3  0  0  0  0  0  0
   37.3230   21.6720   34.0980 C   0  0  0  0  0  0  0  0  0  0  0  0
   37.6670   22.1420   35.3700 C   0  0  0  0  0  0  0  0  0  0  0  0
   38.6630   22.8590   35.6760 O   0  0  0  0  0  0  0  0  0  0  0  0
   36.9130   21.8530   36.4660 N   0  0  0  0  0  0  0  0  0  0  0  0
   35.8090   21.0880   36.2820 C   0  0  0  0  0  0  0  0  0  0  0  0
   35.0740   20.7900   37.2680 O   0  0  0  0  0  0  0  0  0  0  0  0
   37.1100   22.1660   37.4260 H   0  0  0  0  0  0  0  0  0  0  0  0
  1  2  1  0  0  0  0
  1 14  1  0  0  0  0
  3  1  1  0  0  0  0
  4  1  1  0  0  0  0
  4  5  1  0  0  0  0
  5  6  2  0  0  0  0
  5 10  1  0  0  0  0
  6  7  1  0  0  0  0
  7 12  1  0  0  0  0
  7  8  2  0  0  0  0
  9  8  1  0  0  0  0
  9 13  1  0  0  0  0
 10  9  2  0  0  0  0
 11  6  1  0  0  0  0
 14 18  1  0  0  0  0
 15 16  1  0  0  0  0
 16 22  1  0  0  0  0
 17 18  2  0  0  0  0
 17 16  1  0  0  0  0
 18 19  1  0  0  0  0
 19 20  2  0  0  0  0
 19 21  1  0  0  0  0
 21 24  1  0  0  0  0
 22 21  1  0  0  0  0
 22 23  2  0  0  0  0
M  END
>  <minimizedAffinity>
-4.32762861

$$$$

 OpenBabel03262521533D

 24 25  0  0  0  0  0  0  0  0999 V2000
   37.8380   25.7450   35.1320 C   0  0  0  0  0  0  0  0  0  0  0  0
   36.9060   26.3590   35.1770 H   0  0  0  0  0  0  0  0  0  0  0  0
   37.9470   25.2240   34.1790 H   0  0  0  0  0  0  0  0  0  0  0  0
   39.1910   26.9240   35.3650 S   0  0  0  0  0  0  0  0  0  0  0  0
   40.0290   27.1240   33.7960 C   0  0  0  0  0  0  0  0  0  0  0  0
   39.2000   27.0420   32.6780 C   0  0  0  0  0  0  0  0  0  0  0  0
   39.8230   27.1920   31.4470 C   0  0  0  0  0  0  0  0  0  0  0  0
   41.1740   27.4080   31.3580 N   0  0  0  0  0  0  0  0  0  0  0  0
   41.9130   27.4760   32.4900 C   0  0  0  0  0  0  0  0  0  0  0  0
   41.3400   27.3350   33.6870 N   0  0  0  0  0  0  0  0  0  0  0  0
   38.1410   26.8770   32.6600 H   0  0  0  0  0  0  0  0  0  0  0  0
   39.2660   27.1430   30.5370 H   0  0  0  0  0  0  0  0  0  0  0  0
   42.9660   27.6470   32.3100 H   0  0  0  0  0  0  0  0  0  0  0  0
   37.7350   24.5780   36.5370 S   0  0  0  0  0  0  0  0  0  0  0  0
   41.3830   21.7860   34.8760 H   0  0  0  0  0  0  0  0  0  0  0  0
   40.8480   22.0980   35.7400 N   0  0  0  0  0  0  0  0  0  0  0  0
   39.8650   22.9700   35.4690 C   0  0  0  0  0  3  0  0  0  0  0  0
   39.1010   23.4450   36.5200 C   0  0  0  0  0  0  0  0  0  0  0  0
   39.3920   22.9950   37.8120 C   0  0  0  0  0  0  0  0  0  0  0  0
   38.8040   23.3190   38.8850 O   0  0  0  0  0  0  0  0  0  0  0  0
   40.3980   22.1100   38.0500 N   0  0  0  0  0  0  0  0  0  0  0  0
   41.1150   21.6750   36.9850 C   0  0  0  0  0  0  0  0  0  0  0  0
   42.0610   20.8520   37.1520 O   0  0  0  0  0  0  0  0  0  0  0  0
   40.6620   21.7410   38.9730 H   0  0  0  0  0  0  0  0  0  0  0  0
  1  2  1  0  0  0  0
  1  4  1  0  0  0  0
  1 14  1  0  0  0  0
  3  1  1  0  0  0  0
  5  4  1  0  0  0  0
  6  5  2  0  0  0  0
  7  6  1  0  0  0  0
  8  7  2  0  0  0  0
  8  9  1  0  0  0  0
  9 10  2  0  0  0  0
 10  5  1  0  0  0  0
 11  6  1  0  0  0  0
 12  7  1  0  0  0  0
 13  9  1  0  0  0  0
 15 16  1  0  0  0  0
 16 22  1  0  0  0  0
 17 16  1  0  0  0  0
 17 18  2  0  0  0  0
 18 14  1  0  0  0  0
 18 19  1  0  0  0  0
 19 21  1  0  0  0  0
 19 20  2  0  0  0  0
 21 24  1  0  0  0  0
 22 23  2  0  0  0  0
 22 21  1  0  0  0  0
M  END
>  <minimizedAffinity>
-4.31126022

$$$$

 OpenBabel03262521533D

 24 25  0  0  0  0  0  0  0  0999 V2000
   41.9900   25.2530   34.8690 C   0  0  0  0  0  0  0  0  0  0  0  0
   43.0440   25.0520   34.5550 H   0  0  0  0  0  0  0  0  0  0  0  0
   41.9230   25.5950   35.9040 H   0  0  0  0  0  0  0  0  0  0  0  0
   41.3990   26.5370   33.7400 S   0  0  0  0  0  0  0  0  0  0  0  0
   39.7180   26.9490   34.2000 C   0  0  0  0  0  0  0  0  0  0  0  0
   38.8140   26.9750   33.1390 C   0  0  0  0  0  0  0  0  0  0  0  0
   37.5030   27.2930   33.4670 C   0  0  0  0  0  0  0  0  0  0  0  0
   37.1400   27.5620   34.7610 N   0  0  0  0  0  0  0  0  0  0  0  0
   38.0770   27.5170   35.7380 C   0  0  0  0  0  0  0  0  0  0  0  0
   39.3450   27.2140   35.4520 N   0  0  0  0  0  0  0  0  0  0  0  0
   39.0130   26.7780   32.1060 H   0  0  0  0  0  0  0  0  0  0  0  0
   36.7430   27.3370   32.7180 H   0  0  0  0  0  0  0  0  0  0  0  0
   37.6890   27.7460   36.7210 H   0  0  0  0  0  0  0  0  0  0  0  0
   41.0850   23.6850   34.6110 S   0  0  0  0  0  0  0  0  0  0  0  0
   36.6640   23.8760   36.6810 H   0  0  0  0  0  0  0  0  0  0  0  0
   37.6780   23.5880   36.8170 N   0  0  0  0  0  0  0  0  0  0  0  0
   38.4470   23.8340   35.7450 C   0  0  0  0  0  3  0  0  0  0  0  0
   39.7880   23.4990   35.8080 C   0  0  0  0  0  0  0  0  0  0  0  0
   40.2750   22.9210   36.9850 C   0  0  0  0  0  0  0  0  0  0  0  0
   41.4620   22.5530   37.2210 O   0  0  0  0  0  0  0  0  0  0  0  0
   39.4660   22.6860   38.0540 N   0  0  0  0  0  0  0  0  0  0  0  0
   38.1600   23.0340   37.9390 C   0  0  0  0  0  0  0  0  0  0  0  0
   37.3650   22.8370   38.9030 O   0  0  0  0  0  0  0  0  0  0  0  0
   39.7600   22.2660   38.9450 H   0  0  0  0  0  0  0  0  0  0  0  0
  1  3  1  0  0  0  0
  2  1  1  0  0  0  0
  4  5  1  0  0  0  0
  4  1  1  0  0  0  0
  5 10  1  0  0  0  0
  6  7  1  0  0  0  0
  6  5  2  0  0  0  0
  7  8  2  0  0  0  0
  8  9  1  0  0  0  0
  9 13  1  0  0  0  0
 10  9  2  0  0  0  0
 11  6  1  0  0  0  0
 12  7  1  0  0  0  0
 14  1  1  0  0  0  0
 14 18  1  0  0  0  0
 15 16  1  0  0  0  0
 16 22  1  0  0  0  0
 17 18  2  0  0  0  0
 17 16  1  0  0  0  0
 18 19  1  0  0  0  0
 19 20  2  0  0  0  0
 19 21  1  0  0  0  0
 21 24  1  0  0  0  0
 22 21  1  0  0  0  0
 22 23  2  0  0  0  0
M  END
>  <minimizedAffinity>
-4.30834913

$$$$

 OpenBabel03262521533D

 24 25  0  0  0  0  0  0  0  0999 V2000
   38.4320   23.6770   33.0910 C   0  0  0  0  0  0  0  0  0  0  0  0
   39.5090   23.8410   33.3410 H   0  0  0  0  0  0  0  0  0  0  0  0
   38.2830   23.4350   32.0370 H   0  0  0  0  0  0  0  0  0  0  0  0
   37.9120   22.2940   34.1350 S   0  0  0  0  0  0  0  0  0  0  0  0
   38.3680   22.6720   35.8250 C   0  0  0  0  0  0  0  0  0  0  0  0
   39.6960   22.3930   36.1460 C   0  0  0  0  0  0  0  0  0  0  0  0
   40.0770   22.6750   37.4500 C   0  0  0  0  0  0  0  0  0  0  0  0
   39.1870   23.1970   38.3530 N   0  0  0  0  0  0  0  0  0  0  0  0
   37.9120   23.4410   37.9650 C   0  0  0  0  0  0  0  0  0  0  0  0
   37.5180   23.1790   36.7170 N   0  0  0  0  0  0  0  0  0  0  0  0
   40.4520   21.9880   35.5050 H   0  0  0  0  0  0  0  0  0  0  0  0
   41.0750   22.4930   37.7850 H   0  0  0  0  0  0  0  0  0  0  0  0
   37.2910   23.8500   38.7510 H   0  0  0  0  0  0  0  0  0  0  0  0
   37.5690   25.2180   33.5650 S   0  0  0  0  0  0  0  0  0  0  0  0
   39.0720   28.8920   30.7160 H   0  0  0  0  0  0  0  0  0  0  0  0
   38.3150   28.1610   30.8690 N   0  0  0  0  0  0  0  0  0  0  0  0
   38.5340   27.3890   31.9450 C   0  0  0  0  0  3  0  0  0  0  0  0
   37.6130   26.4000   32.2410 C   0  0  0  0  0  0  0  0  0  0  0  0
   36.5010   26.2530   31.4050 C   0  0  0  0  0  0  0  0  0  0  0  0
   35.5640   25.4100   31.5200 O   0  0  0  0  0  0  0  0  0  0  0  0
   36.3110   27.0550   30.3220 N   0  0  0  0  0  0  0  0  0  0  0  0
   37.2430   28.0080   30.0770 C   0  0  0  0  0  0  0  0  0  0  0  0
   37.1140   28.7800   29.0830 O   0  0  0  0  0  0  0  0  0  0  0  0
   35.5180   26.9990   29.6690 H   0  0  0  0  0  0  0  0  0  0  0  0
  1  2  1  0  0  0  0
  1 14  1  0  0  0  0
  1  4  1  0  0  0  0
  3  1  1  0  0  0  0
  4  5  1  0  0  0  0
  5  6  2  0  0  0  0
  5 10  1  0  0  0  0
  6  7  1  0  0  0  0
  7 12  1  0  0  0  0
  7  8  2  0  0  0  0
  9  8  1  0  0  0  0
  9 13  1  0  0  0  0
 10  9  2  0  0  0  0
 11  6  1  0  0  0  0
 15 16  1  0  0  0  0
 16 17  1  0  0  0  0
 17 18  2  0  0  0  0
 18 14  1  0  0  0  0
 19 20  2  0  0  0  0
 19 18  1  0  0  0  0
 21 19  1  0  0  0  0
 22 21  1  0  0  0  0
 22 16  1  0  0  0  0
 23 22  2  0  0  0  0
 24 21  1  0  0  0  0
M  END
>  <minimizedAffinity>
-4.25544262

$$$$

 OpenBabel03262521533D

 24 25  0  0  0  0  0  0  0  0999 V2000
   36.9940   24.3840   32.4310 C   0  0  0  0  0  0  0  0  0  0  0  0
   37.0570   25.3770   31.9220 H   0  0  0  0  0  0  0  0  0  0  0  0
   36.2220   24.3610   33.2030 H   0  0  0  0  0  0  0  0  0  0  0  0
   36.6040   23.2060   31.1140 S   0  0  0  0  0  0  0  0  0  0  0  0
   36.1430   21.6530   31.8780 C   0  0  0  0  0  0  0  0  0  0  0  0
   36.0540   20.5750   30.9980 C   0  0  0  0  0  0  0  0  0  0  0  0
   35.6970   19.3590   31.5640 C   0  0  0  0  0  0  0  0  0  0  0  0
   35.4510   19.2450   32.9080 N   0  0  0  0  0  0  0  0  0  0  0  0
   35.5580   20.3400   33.6980 C   0  0  0  0  0  0  0  0  0  0  0  0
   35.8990   21.5220   33.1820 N   0  0  0  0  0  0  0  0  0  0  0  0
   36.2290   20.5780   29.9420 H   0  0  0  0  0  0  0  0  0  0  0  0
   35.6040   18.4790   30.9650 H   0  0  0  0  0  0  0  0  0  0  0  0
   35.3420   20.1440   34.7400 H   0  0  0  0  0  0  0  0  0  0  0  0
   38.6580   24.0700   33.1210 S   0  0  0  0  0  0  0  0  0  0  0  0
   38.6130   21.2710   37.1250 H   0  0  0  0  0  0  0  0  0  0  0  0
   38.5240   22.2630   36.7550 N   0  0  0  0  0  0  0  0  0  0  0  0
   38.6510   22.3440   35.4210 C   0  0  0  0  0  3  0  0  0  0  0  0
   38.5540   23.5900   34.8270 C   0  0  0  0  0  0  0  0  0  0  0  0
   38.3280   24.7020   35.6450 C   0  0  0  0  0  0  0  0  0  0  0  0
   38.2120   25.9080   35.2800 O   0  0  0  0  0  0  0  0  0  0  0  0
   38.2030   24.5830   36.9950 N   0  0  0  0  0  0  0  0  0  0  0  0
   38.3070   23.3390   37.5250 C   0  0  0  0  0  0  0  0  0  0  0  0
   38.1980   23.1730   38.7750 O   0  0  0  0  0  0  0  0  0  0  0  0
   38.0370   25.3580   37.6500 H   0  0  0  0  0  0  0  0  0  0  0  0
  1 14  1  0  0  0  0
  1  3  1  0  0  0  0
  2  1  1  0  0  0  0
  4  5  1  0  0  0  0
  4  1  1  0  0  0  0
  5 10  1  0  0  0  0
  6  7  1  0  0  0  0
  6  5  2  0  0  0  0
  7  8  2  0  0  0  0
  8  9  1  0  0  0  0
  9 13  1  0  0  0  0
 10  9  2  0  0  0  0
 11  6  1  0  0  0  0
 12  7  1  0  0  0  0
 14 18  1  0  0  0  0
 16 15  1  0  0  0  0
 16 22  1  0  0  0  0
 17 16  1  0  0  0  0
 18 17  2  0  0  0  0
 18 19  1  0  0  0  0
 19 21  1  0  0  0  0
 20 19  2  0  0  0  0
 21 22  1  0  0  0  0
 21 24  1  0  0  0  0
 22 23  2  0  0  0  0
M  END
>  <minimizedAffinity>
-4.25411415

$$$$

 OpenBabel03262521533D

 24 25  0  0  0  0  0  0  0  0999 V2000
   37.0230   27.1910   34.4830 C   0  0  0  0  0  0  0  0  0  0  0  0
   36.2860   26.4030   34.7740 H   0  0  0  0  0  0  0  0  0  0  0  0
   36.5910   28.1940   34.5120 H   0  0  0  0  0  0  0  0  0  0  0  0
   38.3660   27.0480   35.6870 S   0  0  0  0  0  0  0  0  0  0  0  0
   38.7330   25.3090   35.9040 C   0  0  0  0  0  0  0  0  0  0  0  0
   37.7860   24.6030   36.6450 C   0  0  0  0  0  0  0  0  0  0  0  0
   38.0460   23.2510   36.8300 C   0  0  0  0  0  0  0  0  0  0  0  0
   39.1700   22.6670   36.3080 N   0  0  0  0  0  0  0  0  0  0  0  0
   40.0440   23.4200   35.5990 C   0  0  0  0  0  0  0  0  0  0  0  0
   39.8200   24.7210   35.4050 N   0  0  0  0  0  0  0  0  0  0  0  0
   36.8860   24.9800   37.0850 H   0  0  0  0  0  0  0  0  0  0  0  0
   37.3750   22.6320   37.3850 H   0  0  0  0  0  0  0  0  0  0  0  0
   40.8970   22.8640   35.2330 H   0  0  0  0  0  0  0  0  0  0  0  0
   37.5950   26.7450   32.8040 S   0  0  0  0  0  0  0  0  0  0  0  0
   37.3860   21.8690   32.5950 H   0  0  0  0  0  0  0  0  0  0  0  0
   36.9490   22.7760   32.2520 N   0  0  0  0  0  0  0  0  0  0  0  0
   37.5460   23.8710   32.7460 C   0  0  0  0  0  3  0  0  0  0  0  0
   37.0600   25.1100   32.3680 C   0  0  0  0  0  0  0  0  0  0  0  0
   35.9700   25.1600   31.4910 C   0  0  0  0  0  0  0  0  0  0  0  0
   35.3980   26.1940   31.0410 O   0  0  0  0  0  0  0  0  0  0  0  0
   35.3900   24.0270   31.0090 N   0  0  0  0  0  0  0  0  0  0  0  0
   35.9060   22.8390   31.4110 C   0  0  0  0  0  0  0  0  0  0  0  0
   35.4020   21.7560   30.9930 O   0  0  0  0  0  0  0  0  0  0  0  0
   34.5890   23.9940   30.3640 H   0  0  0  0  0  0  0  0  0  0  0  0
  1  3  1  0  0  0  0
  1  2  1  0  0  0  0
  1  4  1  0  0  0  0
  4  5  1  0  0  0  0
  5  6  1  0  0  0  0
  6  7  2  0  0  0  0
  6 11  1  0  0  0  0
  7 12  1  0  0  0  0
  8  7  1  0  0  0  0
  9  8  2  0  0  0  0
 10  9  1  0  0  0  0
 10  5  2  0  0  0  0
 13  9  1  0  0  0  0
 14  1  1  0  0  0  0
 16 15  1  0  0  0  0
 16 17  1  0  0  0  0
 18 17  2  0  0  0  0
 18 14  1  0  0  0  0
 19 18  1  0  0  0  0
 20 19  2  0  0  0  0
 21 22  1  0  0  0  0
 21 19  1  0  0  0  0
 22 16  1  0  0  0  0
 23 22  2  0  0  0  0
 24 21  1  0  0  0  0
M  END
>  <minimizedAffinity>
-4.22060537

$$$$

 OpenBabel03262521533D

 24 25  0  0  0  0  0  0  0  0999 V2000
   37.9140   22.0290   35.2910 C   0  0  0  0  0  0  0  0  0  0  0  0
   38.0130   20.9400   35.5230 H   0  0  0  0  0  0  0  0  0  0  0  0
   36.8990   22.3980   35.4530 H   0  0  0  0  0  0  0  0  0  0  0  0
   39.0720   22.8560   36.4080 S   0  0  0  0  0  0  0  0  0  0  0  0
   39.2070   24.5680   35.9010 C   0  0  0  0  0  0  0  0  0  0  0  0
   38.1750   25.3910   36.3500 C   0  0  0  0  0  0  0  0  0  0  0  0
   38.2530   26.7240   35.9700 C   0  0  0  0  0  0  0  0  0  0  0  0
   39.2900   27.1830   35.2000 N   0  0  0  0  0  0  0  0  0  0  0  0
   40.2550   26.3210   34.8020 C   0  0  0  0  0  0  0  0  0  0  0  0
   40.2060   25.0350   35.1520 N   0  0  0  0  0  0  0  0  0  0  0  0
   37.3330   25.1150   36.9520 H   0  0  0  0  0  0  0  0  0  0  0  0
   37.5060   27.4270   36.2680 H   0  0  0  0  0  0  0  0  0  0  0  0
   41.0260   26.7820   34.1980 H   0  0  0  0  0  0  0  0  0  0  0  0
   38.4360   22.2180   33.5480 S   0  0  0  0  0  0  0  0  0  0  0  0
   36.4320   26.4080   32.0330 H   0  0  0  0  0  0  0  0  0  0  0  0
   36.3980   25.3480   31.9570 N   0  0  0  0  0  0  0  0  0  0  0  0
   37.3240   24.7330   32.7090 C   0  0  0  0  0  3  0  0  0  0  0  0
   37.3720   23.3500   32.6890 C   0  0  0  0  0  0  0  0  0  0  0  0
   36.4560   22.6630   31.8860 C   0  0  0  0  0  0  0  0  0  0  0  0
   36.3540   21.4100   31.7440 O   0  0  0  0  0  0  0  0  0  0  0  0
   35.5300   23.3200   31.1360 N   0  0  0  0  0  0  0  0  0  0  0  0
   35.5250   24.6750   31.1930 C   0  0  0  0  0  0  0  0  0  0  0  0
   34.6840   25.3340   30.5150 O   0  0  0  0  0  0  0  0  0  0  0  0
   34.8300   22.8760   30.5270 H   0  0  0  0  0  0  0  0  0  0  0  0
  1  3  1  0  0  0  0
  1  2  1  0  0  0  0
  1  4  1  0  0  0  0
  5  6  1  0  0  0  0
  5  4  1  0  0  0  0
  6 11  1  0  0  0  0
  7 12  1  0  0  0  0
  7  6  2  0  0  0  0
  8  7  1  0  0  0  0
  9 10  1  0  0  0  0
  9  8  2  0  0  0  0
 10  5  2  0  0  0  0
 13  9  1  0  0  0  0
 14  1  1  0  0  0  0
 16 15  1  0  0  0  0
 16 17  1  0  0  0  0
 18 17  2  0  0  0  0
 18 14  1  0  0  0  0
 19 18  1  0  0  0  0
 20 19  2  0  0  0  0
 21 22  1  0  0  0  0
 21 19  1  0  0  0  0
 22 16  1  0  0  0  0
 23 22  2  0  0  0  0
 24 21  1  0  0  0  0
M  END
>  <minimizedAffinity>
-4.19772243

$$$$
