
 OpenBabel03272509043D

 34 36  0  0  0  0  0  0  0  0999 V2000
   37.5610   30.3480   51.1620 C   0  0  0  0  0  0  0  0  0  0  0  0
   38.0780   31.0010   50.0130 C   0  0  0  0  0  0  0  0  0  0  0  0
   37.4390   30.7440   48.7600 C   0  0  0  0  0  0  0  0  0  0  0  0
   36.3810   29.8900   48.7670 N   0  0  0  0  0  0  0  0  0  0  0  0
   35.9350   29.3020   49.8780 C   0  0  0  0  0  0  0  0  0  0  0  0
   36.5260   29.5340   51.0650 N   0  0  0  0  0  0  0  0  0  0  0  0
   38.1020   30.6040   52.0410 H   0  0  0  0  0  0  0  0  0  0  0  0
   38.9180   31.6810   50.0060 H   0  0  0  0  0  0  0  0  0  0  0  0
   37.9230   31.3780   47.5810 N   0  0  0  0  0  0  0  0  0  0  0  0
   38.9700   32.1960   47.8410 C   0  0  0  0  0  3  0  0  0  0  0  0
   39.5480   32.8860   46.7700 C   0  0  0  0  0  0  0  0  0  0  0  0
   40.3840   33.5610   46.8700 H   0  0  0  0  0  0  0  0  0  0  0  0
   39.0380   32.7090   45.5140 C   0  0  0  0  0  0  0  0  0  0  0  0
   39.4810   33.2770   44.4980 O   0  0  0  0  0  0  0  0  0  0  0  0
   37.9900   31.8820   45.2970 N   0  0  0  0  0  0  0  0  0  0  0  0
   37.4390   31.2210   46.3340 C   0  0  0  0  0  0  0  0  0  0  0  0
   36.4710   30.4180   46.3330 O   0  0  0  0  0  0  0  0  0  0  0  0
   37.5410   31.6880   44.3820 H   0  0  0  0  0  0  0  0  0  0  0  0
   34.8020   28.4210   49.7190 C   0  0  0  0  0  3  0  0  0  0  0  0
   34.3840   28.1450   48.5310 C   0  0  0  0  0  3  0  0  0  0  0  0
   33.2610   27.2810   48.1390 C   0  0  0  0  0  0  0  0  0  0  0  0
   32.4830   27.9280   47.6590 H   0  0  0  0  0  0  0  0  0  0  0  0
   32.7450   26.7960   48.9990 H   0  0  0  0  0  0  0  0  0  0  0  0
   33.6570   26.2550   47.1260 C   0  0  0  0  0  0  0  0  0  0  0  0
   33.8480   24.9160   47.3600 C   0  0  0  0  0  0  0  0  0  0  0  0
   34.2130   24.0600   46.3430 C   0  0  0  0  0  0  0  0  0  0  0  0
   34.4020   24.5260   45.0360 C   0  0  0  0  0  0  0  0  0  0  0  0
   34.2170   25.8540   44.7810 C   0  0  0  0  0  0  0  0  0  0  0  0
   33.8500   26.6990   45.8150 C   0  0  0  0  0  0  0  0  0  0  0  0
   33.6920   24.5850   48.3890 H   0  0  0  0  0  0  0  0  0  0  0  0
   34.3450   23.0150   46.6070 H   0  0  0  0  0  0  0  0  0  0  0  0
   34.6840   23.8150   44.2950 H   0  0  0  0  0  0  0  0  0  0  0  0
   34.3550   26.2530   43.7820 H   0  0  0  0  0  0  0  0  0  0  0  0
   33.7140   27.7340   45.5770 H   0  0  0  0  0  0  0  0  0  0  0  0
  1  7  1  0  0  0  0
  2  1  2  0  0  0  0
  3  4  2  0  0  0  0
  3  2  1  0  0  0  0
  4  5  1  0  0  0  0
  5  6  2  0  0  0  0
  6  1  1  0  0  0  0
  8  2  1  0  0  0  0
  9 10  1  0  0  0  0
  9  3  1  0  0  0  0
 11 12  1  0  0  0  0
 11 10  2  0  0  0  0
 13 11  1  0  0  0  0
 14 13  2  0  0  0  0
 15 13  1  0  0  0  0
 15 16  1  0  0  0  0
 16  9  1  0  0  0  0
 17 16  2  0  0  0  0
 18 15  1  0  0  0  0
 19  5  1  0  0  0  0
 20 19  2  0  0  0  0
 21 20  1  0  0  0  0
 21 23  1  0  0  0  0
 22 21  1  0  0  0  0
 24 25  1  0  0  0  0
 24 21  1  0  0  0  0
 25 30  1  0  0  0  0
 26 31  1  0  0  0  0
 26 25  2  0  0  0  0
 27 26  1  0  0  0  0
 28 27  2  0  0  0  0
 28 29  1  0  0  0  0
 29 24  2  0  0  0  0
 32 27  1  0  0  0  0
 33 28  1  0  0  0  0
 34 29  1  0  0  0  0
M  END
>  <minimizedAffinity>
-6.65960503

>  <minimizedRMSD>
0.726065934

$$$$
