
 OpenBabel03262520123D

 43 45  0  0  0  0  0  0  0  0999 V2000
   35.3140   30.4320   49.4470 C   0  0  0  0  0  0  0  0  0  0  0  0
   35.0320   31.4690   49.7820 H   0  0  0  0  0  0  0  0  0  0  0  0
   36.2130   30.1740   50.0720 H   0  0  0  0  0  0  0  0  0  0  0  0
   38.2100   31.6060   48.9560 Br  0  0  0  0  0  0  0  0  0  0  0  0
   36.9730   30.9580   47.6340 C   0  0  0  0  0  0  0  0  0  0  0  0
   37.3090   30.9730   46.3050 C   0  0  0  0  0  0  0  0  0  0  0  0
   36.3860   30.5100   45.4050 C   0  0  0  0  0  0  0  0  0  0  0  0
   35.1420   30.0330   45.7910 C   0  0  0  0  0  0  0  0  0  0  0  0
   34.8370   30.0350   47.1600 C   0  0  0  0  0  0  0  0  0  0  0  0
   35.7570   30.4960   48.0590 C   0  0  0  0  0  0  0  0  0  0  0  0
   36.7060   30.5430   44.3510 H   0  0  0  0  0  0  0  0  0  0  0  0
   34.5320   29.7060   44.9650 H   0  0  0  0  0  0  0  0  0  0  0  0
   33.8510   29.6520   47.2440 H   0  0  0  0  0  0  0  0  0  0  0  0
   39.8360   33.2640   45.0090 C   0  0  0  0  0  0  0  0  0  0  0  0
   41.0240   32.4810   44.9860 C   0  0  0  0  0  0  0  0  0  0  0  0
   40.9210   31.1740   45.4210 C   0  0  0  0  0  0  0  0  0  0  0  0
   39.7090   30.6820   45.8510 N   0  0  0  0  0  0  0  0  0  0  0  0
   38.6140   31.4710   45.8510 C   0  0  0  0  0  0  0  0  0  0  0  0
   38.6920   32.7430   45.4340 N   0  0  0  0  0  0  0  0  0  0  0  0
   39.9440   34.2740   44.6670 H   0  0  0  0  0  0  0  0  0  0  0  0
   41.9680   32.8940   44.6410 H   0  0  0  0  0  0  0  0  0  0  0  0
   41.8020   30.5440   45.4180 H   0  0  0  0  0  0  0  0  0  0  0  0
   34.2440   29.4550   49.7760 C   0  0  0  0  0  0  0  0  0  0  0  0
   33.2540   29.7810   49.5210 H   0  0  0  0  0  0  0  0  0  0  0  0
   34.2300   29.4600   50.9220 H   0  0  0  0  0  0  0  0  0  0  0  0
   34.6870   28.1500   49.4440 N   0  0  0  0  0  0  0  0  0  0  0  0
   35.2060   27.6390   50.1800 H   0  0  0  0  0  0  0  0  0  0  0  0
   33.8070   27.3270   48.7020 C   0  0  0  0  0  0  0  0  0  0  0  0
   34.0920   27.3080   47.6280 H   0  0  0  0  0  0  0  0  0  0  0  0
   33.9180   26.2890   49.0590 H   0  0  0  0  0  0  0  0  0  0  0  0
   32.4160   27.8560   48.8500 C   0  0  0  0  0  0  0  0  0  0  0  0
   31.8860   27.4340   49.7330 H   0  0  0  0  0  0  0  0  0  0  0  0
   32.2170   28.8940   48.6630 H   0  0  0  0  0  0  0  0  0  0  0  0
   31.6850   27.2030   47.7160 N   0  0  0  0  0  0  0  0  0  0  0  0
   32.2820   27.0950   46.4920 C   0  0  0  0  0  3  0  0  0  0  0  0
   31.6220   26.4980   45.4390 C   0  0  0  0  0  0  0  0  0  0  0  0
   32.0880   26.4100   44.4750 H   0  0  0  0  0  0  0  0  0  0  0  0
   30.3500   26.0000   45.6150 C   0  0  0  0  0  0  0  0  0  0  0  0
   29.6850   25.4430   44.7070 O   0  0  0  0  0  0  0  0  0  0  0  0
   29.8030   26.1290   46.8370 N   0  0  0  0  0  0  0  0  0  0  0  0
   30.4230   26.7070   47.8810 C   0  0  0  0  0  0  0  0  0  0  0  0
   29.9570   26.8480   49.0260 O   0  0  0  0  0  0  0  0  0  0  0  0
   28.8400   25.7900   47.0940 H   0  0  0  0  0  0  0  0  0  0  0  0
  1 23  1  0  0  0  0
  1  2  1  0  0  0  0
  1  3  1  0  0  0  0
  5 10  1  0  0  0  0
  5  4  1  0  0  0  0
  6  5  2  0  0  0  0
  7  8  2  0  0  0  0
  7  6  1  0  0  0  0
  8  9  1  0  0  0  0
  9 13  1  0  0  0  0
  9 10  2  0  0  0  0
 10  1  1  0  0  0  0
 11  7  1  0  0  0  0
 12  8  1  0  0  0  0
 14 19  1  0  0  0  0
 15 14  2  0  0  0  0
 15 16  1  0  0  0  0
 16 17  2  0  0  0  0
 17 18  1  0  0  0  0
 18  6  1  0  0  0  0
 19 18  2  0  0  0  0
 20 14  1  0  0  0  0
 21 15  1  0  0  0  0
 22 16  1  0  0  0  0
 23 25  1  0  0  0  0
 24 23  1  0  0  0  0
 26 23  1  0  0  0  0
 26 27  1  0  0  0  0
 28 31  1  0  0  0  0
 28 30  1  0  0  0  0
 28 26  1  0  0  0  0
 29 28  1  0  0  0  0
 31 32  1  0  0  0  0
 33 31  1  0  0  0  0
 34 41  1  0  0  0  0
 34 31  1  0  0  0  0
 35 34  1  0  0  0  0
 36 38  1  0  0  0  0
 36 35  2  0  0  0  0
 37 36  1  0  0  0  0
 38 40  1  0  0  0  0
 39 38  2  0  0  0  0
 40 43  1  0  0  0  0
 40 41  1  0  0  0  0
 41 42  2  0  0  0  0
M  END
>  <minimizedAffinity>
-5.35415459

>  <minimizedRMSD>
0.701847672

$$$$
