
 OpenBabel03272509043D

 34 36  0  0  0  0  0  0  0  0999 V2000
   37.3920   30.1460   51.5680 C   0  0  0  0  0  0  0  0  0  0  0  0
   38.0790   30.8290   50.5310 C   0  0  0  0  0  0  0  0  0  0  0  0
   37.5020   30.8030   49.2230 C   0  0  0  0  0  0  0  0  0  0  0  0
   36.3340   30.1230   49.0750 N   0  0  0  0  0  0  0  0  0  0  0  0
   35.7290   29.4970   50.0850 C   0  0  0  0  0  0  0  0  0  0  0  0
   36.2600   29.5120   51.3210 N   0  0  0  0  0  0  0  0  0  0  0  0
   37.9010   30.2240   52.4990 H   0  0  0  0  0  0  0  0  0  0  0  0
   39.0070   31.3710   50.6470 H   0  0  0  0  0  0  0  0  0  0  0  0
   38.1560   31.4760   48.1520 N   0  0  0  0  0  0  0  0  0  0  0  0
   38.8380   32.5630   48.5800 C   0  0  0  0  0  3  0  0  0  0  0  0
   39.5310   33.3220   47.6310 C   0  0  0  0  0  0  0  0  0  0  0  0
   40.1050   34.2050   47.8670 H   0  0  0  0  0  0  0  0  0  0  0  0
   39.4920   32.9380   46.3190 C   0  0  0  0  0  0  0  0  0  0  0  0
   40.0740   33.5440   45.4010 O   0  0  0  0  0  0  0  0  0  0  0  0
   38.7980   31.8430   45.9320 N   0  0  0  0  0  0  0  0  0  0  0  0
   38.1330   31.1190   46.8530 C   0  0  0  0  0  0  0  0  0  0  0  0
   37.4400   30.0830   46.6920 O   0  0  0  0  0  0  0  0  0  0  0  0
   38.7140   31.4820   44.9650 H   0  0  0  0  0  0  0  0  0  0  0  0
   34.4950   28.8190   49.7650 C   0  0  0  0  0  3  0  0  0  0  0  0
   34.4300   28.1100   48.6890 C   0  0  0  0  0  3  0  0  0  0  0  0
   33.2880   27.3430   48.1730 C   0  0  0  0  0  0  0  0  0  0  0  0
   32.5790   28.0650   47.6920 H   0  0  0  0  0  0  0  0  0  0  0  0
   32.6920   26.8350   48.9650 H   0  0  0  0  0  0  0  0  0  0  0  0
   33.6890   26.3610   47.1170 C   0  0  0  0  0  0  0  0  0  0  0  0
   33.9400   25.0250   47.3060 C   0  0  0  0  0  0  0  0  0  0  0  0
   34.3050   24.2140   46.2530 C   0  0  0  0  0  0  0  0  0  0  0  0
   34.4310   24.7240   44.9550 C   0  0  0  0  0  0  0  0  0  0  0  0
   34.1850   26.0500   44.7450 C   0  0  0  0  0  0  0  0  0  0  0  0
   33.8210   26.8500   45.8150 C   0  0  0  0  0  0  0  0  0  0  0  0
   33.8330   24.6600   48.3290 H   0  0  0  0  0  0  0  0  0  0  0  0
   34.4860   23.1680   46.4810 H   0  0  0  0  0  0  0  0  0  0  0  0
   34.7150   24.0450   44.1840 H   0  0  0  0  0  0  0  0  0  0  0  0
   34.2730   26.4820   43.7550 H   0  0  0  0  0  0  0  0  0  0  0  0
   33.6360   27.8850   45.6120 H   0  0  0  0  0  0  0  0  0  0  0  0
  1  7  1  0  0  0  0
  2  8  1  0  0  0  0
  2  1  2  0  0  0  0
  3  2  1  0  0  0  0
  4  3  2  0  0  0  0
  4  5  1  0  0  0  0
  5  6  2  0  0  0  0
  6  1  1  0  0  0  0
  9 10  1  0  0  0  0
  9  3  1  0  0  0  0
 11 12  1  0  0  0  0
 11 10  2  0  0  0  0
 13 11  1  0  0  0  0
 14 13  2  0  0  0  0
 15 13  1  0  0  0  0
 15 16  1  0  0  0  0
 16  9  1  0  0  0  0
 17 16  2  0  0  0  0
 18 15  1  0  0  0  0
 19  5  1  0  0  0  0
 20 19  2  0  0  0  0
 21 20  1  0  0  0  0
 21 23  1  0  0  0  0
 22 21  1  0  0  0  0
 24 25  1  0  0  0  0
 24 21  1  0  0  0  0
 25 30  1  0  0  0  0
 26 31  1  0  0  0  0
 26 25  2  0  0  0  0
 27 26  1  0  0  0  0
 28 27  2  0  0  0  0
 28 29  1  0  0  0  0
 29 24  2  0  0  0  0
 32 27  1  0  0  0  0
 33 28  1  0  0  0  0
 34 29  1  0  0  0  0
M  END
>  <minimizedAffinity>
-6.3317647

>  <minimizedRMSD>
0.693005383

$$$$
