
 OpenBabel03272508583D

 41 44  0  0  1  0  0  0  0  0999 V2000
   39.1510   31.4730   43.3290 C   0  0  0  0  0  0  0  0  0  0  0  0
   40.1690   30.5730   43.4950 C   0  0  0  0  0  0  0  0  0  0  0  0
   40.8900   30.2190   42.3600 C   0  0  0  0  0  0  0  0  0  0  0  0
   40.5360   30.7890   41.1560 C   0  0  0  0  0  0  0  0  0  0  0  0
   39.5060   31.6950   40.9990 C   0  0  0  0  0  0  0  0  0  0  0  0
   38.8250   32.0190   42.1280 N   0  0  0  0  0  0  0  0  0  0  0  0
   40.4300   30.1360   44.4520 H   0  0  0  0  0  0  0  0  0  0  0  0
   41.6970   29.5230   42.4140 H   0  0  0  0  0  0  0  0  0  0  0  0
   41.1140   30.4940   40.2960 H   0  0  0  0  0  0  0  0  0  0  0  0
   38.3590   31.8880   44.5120 C   0  0  0  0  0  0  0  0  0  0  0  0
   37.2630   32.4480   44.4130 O   0  0  0  0  0  0  0  0  0  0  0  0
   38.9350   31.6060   45.8200 N   0  0  0  0  0  0  0  0  0  0  0  0
   39.9280   31.3400   45.9740 H   0  0  0  0  0  0  0  0  0  0  0  0
   38.4270   31.0970   48.2050 C   0  0  2  0  0  0  0  0  0  0  0  0
   38.6670   32.5610   48.1140 C   0  0  0  0  0  0  0  0  0  0  0  0
   38.0640   31.7070   46.9680 C   0  0  1  0  0  0  0  0  0  0  0  0
   39.3690   30.5170   48.3090 H   0  0  0  0  0  0  0  0  0  0  0  0
   37.9780   33.2610   48.6330 H   0  0  0  0  0  0  0  0  0  0  0  0
   39.6730   32.9550   47.9830 H   0  0  0  0  0  0  0  0  0  0  0  0
   36.9740   31.9380   46.7650 H   0  0  0  0  0  0  0  0  0  0  0  0
   35.0630   30.2250   49.5190 C   0  0  0  0  0  0  0  0  0  0  0  0
   35.3900   29.5500   50.7290 C   0  0  0  0  0  0  0  0  0  0  0  0
   36.7810   29.4110   51.0820 C   0  0  0  0  0  0  0  0  0  0  0  0
   37.7440   29.9290   50.2460 N   0  0  0  0  0  0  0  0  0  0  0  0
   37.3420   30.5610   49.1070 C   0  0  0  0  0  0  0  0  0  0  0  0
   36.0190   30.7280   48.7090 N   0  0  0  0  0  0  0  0  0  0  0  0
   34.0270   30.3180   49.2750 H   0  0  0  0  0  0  0  0  0  0  0  0
   34.6500   29.1480   51.3750 H   0  0  0  0  0  0  0  0  0  0  0  0
   37.0370   28.8990   51.9980 H   0  0  0  0  0  0  0  0  0  0  0  0
   39.1760   32.2530   39.7010 C   0  0  0  0  0  0  0  0  0  0  0  0
   38.9400   33.4720   39.5830 O   0  0  0  0  0  0  0  0  0  0  0  0
   40.8790   29.9710   36.1700 H   0  0  0  0  0  0  0  0  0  0  0  0
   40.0750   30.1490   36.8140 N   0  0  0  0  0  0  0  0  0  0  0  0
   40.2440   31.0860   37.7870 C   0  0  0  0  0  3  0  0  0  0  0  0
   39.1540   31.2850   38.6110 C   0  0  0  0  0  0  0  0  0  0  0  0
   37.9610   30.5990   38.4850 C   0  0  0  0  0  0  0  0  0  0  0  0
   36.9820   30.7770   39.2250 O   0  0  0  0  0  0  0  0  0  0  0  0
   37.8450   29.6710   37.4920 N   0  0  0  0  0  0  0  0  0  0  0  0
   38.9170   29.4730   36.6800 C   0  0  0  0  0  0  0  0  0  0  0  0
   38.7480   28.6060   35.7850 O   0  0  0  0  0  0  0  0  0  0  0  0
   36.9520   29.1510   37.3900 H   0  0  0  0  0  0  0  0  0  0  0  0
  1  2  1  0  0  0  0
  1 10  1  0  0  0  0
  2  7  1  0  0  0  0
  3  8  1  0  0  0  0
  3  2  2  0  0  0  0
  4  3  1  0  0  0  0
  5  4  2  0  0  0  0
  5  6  1  0  0  0  0
  6  1  2  0  0  0  0
  9  4  1  0  0  0  0
 10 12  1  0  0  0  0
 11 10  2  0  0  0  0
 12 13  1  0  0  0  0
 12 16  1  0  0  0  0
 14 17  1  6  0  0  0
 14 25  1  0  0  0  0
 15 14  1  0  0  0  0
 15 18  1  0  0  0  0
 16 20  1  6  0  0  0
 16 15  1  0  0  0  0
 16 14  1  0  0  0  0
 19 15  1  0  0  0  0
 21 22  1  0  0  0  0
 22 23  2  0  0  0  0
 22 28  1  0  0  0  0
 23 29  1  0  0  0  0
 24 23  1  0  0  0  0
 25 24  2  0  0  0  0
 26 25  1  0  0  0  0
 26 21  2  0  0  0  0
 27 21  1  0  0  0  0
 30  5  1  0  0  0  0
 31 30  2  0  0  0  0
 32 33  1  0  0  0  0
 33 34  1  0  0  0  0
 34 35  2  0  0  0  0
 35 30  1  0  0  0  0
 36 35  1  0  0  0  0
 36 37  2  0  0  0  0
 38 36  1  0  0  0  0
 39 33  1  0  0  0  0
 39 38  1  0  0  0  0
 40 39  2  0  0  0  0
 41 38  1  0  0  0  0
M  END
>  <minimizedAffinity>
-4.93630886

>  <minimizedRMSD>
0.566510856

$$$$
