
 OpenBabel03272509043D

 34 36  0  0  0  0  0  0  0  0999 V2000
   38.6980   32.6260   49.3680 C   0  0  0  0  0  0  0  0  0  0  0  0
   39.0440   32.7910   48.0010 C   0  0  0  0  0  0  0  0  0  0  0  0
   38.5890   31.7990   47.0770 C   0  0  0  0  0  0  0  0  0  0  0  0
   37.8570   30.7700   47.5820 N   0  0  0  0  0  0  0  0  0  0  0  0
   37.5610   30.6620   48.8780 C   0  0  0  0  0  0  0  0  0  0  0  0
   37.9820   31.5880   49.7590 N   0  0  0  0  0  0  0  0  0  0  0  0
   39.0820   33.4120   49.9710 H   0  0  0  0  0  0  0  0  0  0  0  0
   39.6240   33.6080   47.5980 H   0  0  0  0  0  0  0  0  0  0  0  0
   38.9110   31.9250   45.6960 N   0  0  0  0  0  0  0  0  0  0  0  0
   37.8420   32.3080   44.9600 C   0  0  0  0  0  3  0  0  0  0  0  0
   38.0140   32.4700   43.5820 C   0  0  0  0  0  0  0  0  0  0  0  0
   37.2280   32.7730   42.9070 H   0  0  0  0  0  0  0  0  0  0  0  0
   39.2460   32.2380   43.0360 C   0  0  0  0  0  0  0  0  0  0  0  0
   39.5020   32.3550   41.8230 O   0  0  0  0  0  0  0  0  0  0  0  0
   40.2900   31.8560   43.8060 N   0  0  0  0  0  0  0  0  0  0  0  0
   40.1150   31.7020   45.1340 C   0  0  0  0  0  0  0  0  0  0  0  0
   40.9530   31.3570   46.0050 O   0  0  0  0  0  0  0  0  0  0  0  0
   41.2540   31.6600   43.4790 H   0  0  0  0  0  0  0  0  0  0  0  0
   36.7760   29.5110   49.2560 C   0  0  0  0  0  3  0  0  0  0  0  0
   35.5340   29.4590   48.9130 C   0  0  0  0  0  3  0  0  0  0  0  0
   34.5590   28.3940   49.1890 C   0  0  0  0  0  0  0  0  0  0  0  0
   33.6540   28.8690   49.6460 H   0  0  0  0  0  0  0  0  0  0  0  0
   34.9060   27.6480   49.9390 H   0  0  0  0  0  0  0  0  0  0  0  0
   34.1030   27.7020   47.9430 C   0  0  0  0  0  0  0  0  0  0  0  0
   33.7240   26.3870   47.8380 C   0  0  0  0  0  0  0  0  0  0  0  0
   33.3190   25.8560   46.6320 C   0  0  0  0  0  0  0  0  0  0  0  0
   33.2800   26.6400   45.4730 C   0  0  0  0  0  0  0  0  0  0  0  0
   33.6520   27.9500   45.5540 C   0  0  0  0  0  0  0  0  0  0  0  0
   34.0560   28.4660   46.7740 C   0  0  0  0  0  0  0  0  0  0  0  0
   33.7660   25.8050   48.7610 H   0  0  0  0  0  0  0  0  0  0  0  0
   33.0350   24.8080   46.6300 H   0  0  0  0  0  0  0  0  0  0  0  0
   32.9580   26.1710   44.5720 H   0  0  0  0  0  0  0  0  0  0  0  0
   33.6360   28.5890   44.6780 H   0  0  0  0  0  0  0  0  0  0  0  0
   34.3410   29.4980   46.8000 H   0  0  0  0  0  0  0  0  0  0  0  0
  1  6  1  0  0  0  0
  1  7  1  0  0  0  0
  2  1  2  0  0  0  0
  3  4  2  0  0  0  0
  3  2  1  0  0  0  0
  4  5  1  0  0  0  0
  5 19  1  0  0  0  0
  5  6  2  0  0  0  0
  8  2  1  0  0  0  0
  9  3  1  0  0  0  0
 10  9  1  0  0  0  0
 11 10  2  0  0  0  0
 12 11  1  0  0  0  0
 13 11  1  0  0  0  0
 13 15  1  0  0  0  0
 14 13  2  0  0  0  0
 15 16  1  0  0  0  0
 16  9  1  0  0  0  0
 16 17  2  0  0  0  0
 18 15  1  0  0  0  0
 20 21  1  0  0  0  0
 20 19  2  0  0  0  0
 21 22  1  0  0  0  0
 21 23  1  0  0  0  0
 24 21  1  0  0  0  0
 25 24  1  0  0  0  0
 25 30  1  0  0  0  0
 26 25  2  0  0  0  0
 27 28  2  0  0  0  0
 27 26  1  0  0  0  0
 28 29  1  0  0  0  0
 29 34  1  0  0  0  0
 29 24  2  0  0  0  0
 31 26  1  0  0  0  0
 32 27  1  0  0  0  0
 33 28  1  0  0  0  0
M  END
>  <minimizedAffinity>
-6.47699261

>  <minimizedRMSD>
2.55304027

$$$$
