
 OpenBabel03262521123D

 32 34  0  0  0  0  0  0  0  0999 V2000
   31.4140   28.9510   46.3320 C   0  0  0  0  0  0  0  0  0  0  0  0
   30.5610   28.3480   45.4430 C   0  0  0  0  0  0  0  0  0  0  0  0
   29.5760   27.7530   46.0960 N   0  0  0  0  0  0  0  0  0  0  0  0
   29.7550   27.9480   47.4060 C   0  0  0  0  0  0  0  0  0  0  0  0
   30.8770   28.6800   47.5500 N   0  0  0  0  0  0  0  0  0  0  0  0
   30.6750   28.3570   44.3830 H   0  0  0  0  0  0  0  0  0  0  0  0
   28.7460   27.2000   45.7920 H   0  0  0  0  0  0  0  0  0  0  0  0
   29.0910   27.5950   48.6140 N   0  0  0  0  0  0  0  0  0  0  0  0
   29.7610   27.6830   49.7890 C   0  0  0  0  0  0  0  0  0  0  0  0
   29.0980   27.3330   50.9620 C   0  0  0  0  0  0  0  0  0  0  0  0
   29.6050   27.3910   51.9340 H   0  0  0  0  0  0  0  0  0  0  0  0
   27.7690   26.9060   50.8730 C   0  0  0  0  0  0  0  0  0  0  0  0
   27.1320   26.5820   51.8950 O   0  0  0  0  0  0  0  0  0  0  0  0
   27.1340   26.8300   49.6970 N   0  0  0  0  0  0  0  0  0  0  0  0
   27.8000   27.1760   48.5570 C   0  0  0  0  0  0  0  0  0  0  0  0
   27.2410   27.1200   47.4160 O   0  0  0  0  0  0  0  0  0  0  0  0
   26.1260   26.5070   49.6180 H   0  0  0  0  0  0  0  0  0  0  0  0
   32.5850   29.6930   46.1100 O   0  0  0  0  0  0  0  0  0  0  0  0
   35.1410   29.3830   46.1440 O   0  0  0  0  0  0  0  0  0  0  0  0
   33.9330   29.2820   47.0570 P   0  0  2  0  0  0  0  0  0  0  0  0
   33.7640   27.6990   47.6810 O   0  0  0  0  0  0  0  0  0  0  0  0
   32.9980   27.7250   48.2870 H   0  0  0  0  0  0  0  0  0  0  0  0
   34.0370   30.3320   48.4010 O   0  0  0  0  0  0  0  0  0  0  0  0
   35.1020   30.2580   49.3010 C   0  0  0  0  0  0  0  0  0  0  0  0
   35.1530   29.4090   50.4280 C   0  0  0  0  0  0  0  0  0  0  0  0
   36.2940   29.4680   51.2160 C   0  0  0  0  0  0  0  0  0  0  0  0
   37.2960   30.3150   50.8900 N   0  0  0  0  0  0  0  0  0  0  0  0
   37.2050   31.1190   49.7910 C   0  0  0  0  0  0  0  0  0  0  0  0
   36.0990   31.0890   48.9910 N   0  0  0  0  0  0  0  0  0  0  0  0
   34.2920   28.7820   50.5790 H   0  0  0  0  0  0  0  0  0  0  0  0
   36.3160   28.8100   52.0740 H   0  0  0  0  0  0  0  0  0  0  0  0
   38.0410   31.7780   49.5790 H   0  0  0  0  0  0  0  0  0  0  0  0
  1  5  1  0  0  0  0
  2  3  1  0  0  0  0
  2  1  2  0  0  0  0
  3  4  1  0  0  0  0
  4  5  2  0  0  0  0
  4  8  1  0  0  0  0
  6  2  1  0  0  0  0
  7  3  1  0  0  0  0
  8  9  1  0  0  0  0
  9 10  2  0  0  0  0
 10 11  1  0  0  0  0
 12 10  1  0  0  0  0
 12 13  2  0  0  0  0
 14 12  1  0  0  0  0
 15  8  1  0  0  0  0
 15 14  1  0  0  0  0
 16 15  2  0  0  0  0
 17 14  1  0  0  0  0
 18  1  1  0  0  0  0
 18 20  1  0  0  0  0
 20 19  2  6  0  0  0
 20 21  1  0  0  0  0
 20 23  1  0  0  0  0
 21 22  1  0  0  0  0
 23 24  1  0  0  0  0
 24 25  1  0  0  0  0
 25 30  1  0  0  0  0
 25 26  2  0  0  0  0
 26 31  1  0  0  0  0
 27 26  1  0  0  0  0
 28 27  2  0  0  0  0
 29 24  2  0  0  0  0
 29 28  1  0  0  0  0
 32 28  1  0  0  0  0
M  END
>  <minimizedAffinity>
-5.69374752

>  <minimizedRMSD>
1.84729898

$$$$
