
 OpenBabel03262523493D

 22 23  0  0  0  0  0  0  0  0999 V2000
   36.7180   30.5540   50.7580 C   0  0  0  0  0  0  0  0  0  0  0  0
   36.6790   31.3500   51.5490 H   0  0  0  0  0  0  0  0  0  0  0  0
   35.6630   30.2720   50.5860 H   0  0  0  0  0  0  0  0  0  0  0  0
   37.4750   29.4390   51.2470 N   0  0  0  0  0  0  0  0  0  0  0  0
   37.8980   28.4700   50.4180 C   0  0  0  0  0  3  0  0  0  0  0  0
   38.6190   27.4140   50.9040 C   0  0  0  0  0  0  0  0  0  0  0  0
   39.0110   26.5800   50.3340 H   0  0  0  0  0  0  0  0  0  0  0  0
   38.8870   27.3900   52.2580 C   0  0  0  0  0  0  0  0  0  0  0  0
   39.5480   26.4560   52.8130 O   0  0  0  0  0  0  0  0  0  0  0  0
   38.4710   28.3590   53.1260 N   0  0  0  0  0  0  0  0  0  0  0  0
   37.7630   29.3650   52.5490 C   0  0  0  0  0  0  0  0  0  0  0  0
   37.3580   30.2820   53.3090 O   0  0  0  0  0  0  0  0  0  0  0  0
   38.6850   28.3200   54.1450 H   0  0  0  0  0  0  0  0  0  0  0  0
   37.2630   31.1060   49.4950 C   0  0  0  0  0  0  0  0  0  0  0  0
   38.2900   32.0600   49.5820 C   0  0  0  0  0  0  0  0  0  0  0  0
   38.7990   32.5740   48.3830 C   0  0  0  0  0  0  0  0  0  0  0  0
   38.2800   32.1310   47.1970 N   0  0  0  0  0  0  0  0  0  0  0  0
   37.2920   31.2120   47.1720 C   0  0  0  0  0  0  0  0  0  0  0  0
   36.7840   30.7010   48.3000 N   0  0  0  0  0  0  0  0  0  0  0  0
   38.6910   32.4010   50.5250 H   0  0  0  0  0  0  0  0  0  0  0  0
   39.5860   33.3060   48.4450 H   0  0  0  0  0  0  0  0  0  0  0  0
   36.9260   30.9040   46.2030 H   0  0  0  0  0  0  0  0  0  0  0  0
  1  4  1  0  0  0  0
  1  2  1  0  0  0  0
  3  1  1  0  0  0  0
  4 11  1  0  0  0  0
  5  6  2  0  0  0  0
  5  4  1  0  0  0  0
  6  8  1  0  0  0  0
  7  6  1  0  0  0  0
  8  9  2  0  0  0  0
  8 10  1  0  0  0  0
 10 13  1  0  0  0  0
 11 10  1  0  0  0  0
 11 12  2  0  0  0  0
 14 15  1  0  0  0  0
 14  1  1  0  0  0  0
 15 20  1  0  0  0  0
 16 21  1  0  0  0  0
 16 15  2  0  0  0  0
 17 16  1  0  0  0  0
 18 17  2  0  0  0  0
 18 19  1  0  0  0  0
 19 14  2  0  0  0  0
 22 18  1  0  0  0  0
M  END
>  <minimizedAffinity>
0.0979932919

>  <minimizedRMSD>
1.58902276

$$$$
