
 OpenBabel03272510043D

 38 40  0  0  0  0  0  0  0  0999 V2000
   33.9870   28.2720   46.0460 C   0  0  0  0  0  0  0  0  0  0  0  0
   34.3160   28.1330   47.3560 C   0  0  0  0  0  0  0  0  0  0  0  0
   33.7880   27.0780   48.0930 C   0  0  0  0  0  0  0  0  0  0  0  0
   32.9250   26.1510   47.5370 C   0  0  0  0  0  0  0  0  0  0  0  0
   32.5710   26.2650   46.2250 C   0  0  0  0  0  0  0  0  0  0  0  0
   33.1090   27.3140   45.5280 C   0  0  0  0  0  0  0  0  0  0  0  0
   34.0750   26.9900   49.1520 H   0  0  0  0  0  0  0  0  0  0  0  0
   32.5810   25.3770   48.2000 H   0  0  0  0  0  0  0  0  0  0  0  0
   31.9040   25.5250   45.8570 H   0  0  0  0  0  0  0  0  0  0  0  0
   32.7470   27.2980   44.4910 H   0  0  0  0  0  0  0  0  0  0  0  0
   36.3010   31.1610   47.9930 C   0  0  0  0  0  0  0  0  0  0  0  0
   35.4730   30.2300   47.3850 C   0  0  0  0  0  0  0  0  0  0  0  0
   35.1600   29.0690   48.0200 C   0  0  0  0  0  0  0  0  0  0  0  0
   35.6870   28.8760   49.2610 N   0  0  0  0  0  0  0  0  0  0  0  0
   36.4840   29.7720   49.8530 C   0  0  0  0  0  0  0  0  0  0  0  0
   36.7860   30.9080   49.2140 N   0  0  0  0  0  0  0  0  0  0  0  0
   36.6490   32.1150   47.6390 H   0  0  0  0  0  0  0  0  0  0  0  0
   35.2070   30.6870   46.4620 H   0  0  0  0  0  0  0  0  0  0  0  0
   36.9310   29.4650   51.2360 C   0  0  0  0  0  0  0  0  0  0  0  0
   37.4050   30.5850   51.8900 F   0  0  0  0  0  0  0  0  0  0  0  0
   35.7750   29.1130   52.0300 F   0  0  0  0  0  0  0  0  0  0  0  0
   37.7340   28.4370   51.3920 F   0  0  0  0  0  0  0  0  0  0  0  0
   34.6130   29.5100   45.0230 S   0  0  0  0  0  0  0  0  0  0  0  0
   33.8700   30.7810   45.2140 O   0  0  0  0  0  0  0  0  0  0  0  0
   33.9170   29.0950   43.7440 O   0  0  0  0  0  0  0  0  0  0  0  0
   36.0490   29.5160   44.1410 C   0  0  0  0  0  0  0  0  0  0  0  0
   36.6110   28.5540   44.4800 H   0  0  0  0  0  0  0  0  0  0  0  0
   35.9170   29.2700   43.0730 H   0  0  0  0  0  0  0  0  0  0  0  0
   37.0280   30.5110   44.3870 N   0  0  0  0  0  0  0  0  0  0  0  0
   38.1410   30.3740   45.1480 C   0  0  0  0  0  3  0  0  0  0  0  0
   39.0680   31.3750   45.3570 C   0  0  0  0  0  0  0  0  0  0  0  0
   39.9430   31.1730   45.9930 H   0  0  0  0  0  0  0  0  0  0  0  0
   38.8270   32.5910   44.7410 C   0  0  0  0  0  0  0  0  0  0  0  0
   39.6700   33.4870   44.9380 O   0  0  0  0  0  0  0  0  0  0  0  0
   37.7170   32.7480   43.9740 N   0  0  0  0  0  0  0  0  0  0  0  0
   36.8730   31.7390   43.8200 C   0  0  0  0  0  0  0  0  0  0  0  0
   35.8580   31.9760   43.0830 O   0  0  0  0  0  0  0  0  0  0  0  0
   37.5840   33.6850   43.5320 H   0  0  0  0  0  0  0  0  0  0  0  0
  1  2  1  0  0  0  0
  2 13  1  0  0  0  0
  2  3  2  0  0  0  0
  3  7  1  0  0  0  0
  4  3  1  0  0  0  0
  4  8  1  0  0  0  0
  5  4  2  0  0  0  0
  6  1  2  0  0  0  0
  6  5  1  0  0  0  0
  9  5  1  0  0  0  0
 10  6  1  0  0  0  0
 11 16  1  0  0  0  0
 12 11  2  0  0  0  0
 12 13  1  0  0  0  0
 13 14  2  0  0  0  0
 14 15  1  0  0  0  0
 15 19  1  0  0  0  0
 16 15  2  0  0  0  0
 17 11  1  0  0  0  0
 18 12  1  0  0  0  0
 19 22  1  0  0  0  0
 19 20  1  0  0  0  0
 19 21  1  0  0  0  0
 23 24  2  0  0  0  0
 23  1  1  0  0  0  0
 25 23  2  0  0  0  0
 26 29  1  0  0  0  0
 26 27  1  0  0  0  0
 26 23  1  0  0  0  0
 28 26  1  0  0  0  0
 29 30  1  0  0  0  0
 30 31  2  0  0  0  0
 31 32  1  0  0  0  0
 33 34  2  0  0  0  0
 33 31  1  0  0  0  0
 35 33  1  0  0  0  0
 36 35  1  0  0  0  0
 36 29  1  0  0  0  0
 37 36  2  0  0  0  0
 38 35  1  0  0  0  0
M  END
>  <minimizedAffinity>
-5.69505978

>  <minimizedRMSD>
4.83249331

$$$$
