
 OpenBabel03272507193D

 31 33  0  0  1  0  0  0  0  0999 V2000
   37.3100   31.1910   49.4760 C   0  0  0  0  0  0  0  0  0  0  0  0
   38.3560   32.0910   49.5360 C   0  0  0  0  0  0  0  0  0  0  0  0
   38.8300   32.5140   48.2680 C   0  0  0  0  0  0  0  0  0  0  0  0
   38.2630   32.0390   47.1090 N   0  0  0  0  0  0  0  0  0  0  0  0
   37.2410   31.1580   47.1290 C   0  0  0  0  0  0  0  0  0  0  0  0
   36.7570   30.7280   48.3350 N   0  0  0  0  0  0  0  0  0  0  0  0
   38.7960   32.4590   50.4500 H   0  0  0  0  0  0  0  0  0  0  0  0
   39.6530   33.2230   48.2230 H   0  0  0  0  0  0  0  0  0  0  0  0
   36.7160   30.7190   45.8820 N   0  0  0  0  0  0  0  0  0  0  0  0
   35.5320   30.0410   45.9220 C   0  0  0  0  0  3  0  0  0  0  0  0
   34.9600   29.5850   44.7530 C   0  0  0  0  0  0  0  0  0  0  0  0
   34.0320   29.0480   44.7250 H   0  0  0  0  0  0  0  0  0  0  0  0
   35.5730   29.8030   43.5200 C   0  0  0  0  0  0  0  0  0  0  0  0
   35.0520   29.3860   42.4500 O   0  0  0  0  0  0  0  0  0  0  0  0
   36.7460   30.4800   43.5350 N   0  0  0  0  0  0  0  0  0  0  0  0
   37.2890   30.9180   44.6730 C   0  0  0  0  0  0  0  0  0  0  0  0
   38.3870   31.5510   44.6870 O   0  0  0  0  0  0  0  0  0  0  0  0
   37.2240   30.6540   42.6080 H   0  0  0  0  0  0  0  0  0  0  0  0
   36.7610   30.7550   50.7980 C   0  0  1  0  0  0  0  0  0  0  0  0
   36.0440   29.4920   50.9630 C   0  0  2  0  0  0  0  0  0  0  0  0
   37.4950   29.5120   51.3440 C   0  0  0  0  0  0  0  0  0  0  0  0
   36.6560   31.5820   51.5330 H   0  0  0  0  0  0  0  0  0  0  0  0
   35.2310   29.5590   51.7460 H   0  0  0  0  0  0  0  0  0  0  0  0
   38.2150   28.9920   50.6810 H   0  0  0  0  0  0  0  0  0  0  0  0
   37.6680   29.5280   52.4290 H   0  0  0  0  0  0  0  0  0  0  0  0
   35.6680   28.8270   49.8030 O   0  0  0  0  0  0  0  0  0  0  0  0
   34.4420   28.4380   49.3790 C   0  0  0  0  0  0  0  0  0  0  0  0
   34.2790   27.4750   48.5990 O   0  0  0  0  0  0  0  0  0  0  0  0
   33.4950   29.2830   49.9570 N   0  0  0  0  0  0  0  0  0  0  0  0
   32.7020   29.9670   49.9690 H   0  0  0  0  0  0  0  0  0  0  0  0
   33.3380   29.4650   50.9860 H   0  0  0  0  0  0  0  0  0  0  0  0
  1  2  1  0  0  0  0
  1 19  1  0  0  0  0
  2  7  1  0  0  0  0
  3  2  2  0  0  0  0
  4  5  2  0  0  0  0
  4  3  1  0  0  0  0
  5  6  1  0  0  0  0
  6  1  2  0  0  0  0
  8  3  1  0  0  0  0
  9 10  1  0  0  0  0
  9  5  1  0  0  0  0
 11 10  2  0  0  0  0
 12 11  1  0  0  0  0
 13 15  1  0  0  0  0
 13 11  1  0  0  0  0
 14 13  2  0  0  0  0
 15 16  1  0  0  0  0
 16 17  2  0  0  0  0
 16  9  1  0  0  0  0
 18 15  1  0  0  0  0
 19 20  1  0  0  0  0
 19 21  1  0  0  0  0
 19 22  1  1  0  0  0
 20 21  1  0  0  0  0
 20 23  1  1  0  0  0
 21 25  1  0  0  0  0
 24 21  1  0  0  0  0
 26 20  1  0  0  0  0
 27 26  1  0  0  0  0
 27 29  1  0  0  0  0
 28 27  2  0  0  0  0
 29 30  1  0  0  0  0
 29 31  1  0  0  0  0
M  END
>  <minimizedAffinity>
-5.78901386

>  <minimizedRMSD>
0.197203442

$$$$
