
 OpenBabel03262520123D

 43 45  0  0  0  0  0  0  0  0999 V2000
   35.3160   30.4300   49.4480 C   0  0  0  0  0  0  0  0  0  0  0  0
   35.0350   31.4660   49.7830 H   0  0  0  0  0  0  0  0  0  0  0  0
   36.2150   30.1700   50.0720 H   0  0  0  0  0  0  0  0  0  0  0  0
   38.2120   31.6040   48.9550 Br  0  0  0  0  0  0  0  0  0  0  0  0
   36.9740   30.9570   47.6330 C   0  0  0  0  0  0  0  0  0  0  0  0
   37.3090   30.9730   46.3040 C   0  0  0  0  0  0  0  0  0  0  0  0
   36.3860   30.5110   45.4050 C   0  0  0  0  0  0  0  0  0  0  0  0
   35.1420   30.0330   45.7910 C   0  0  0  0  0  0  0  0  0  0  0  0
   34.8380   30.0340   47.1600 C   0  0  0  0  0  0  0  0  0  0  0  0
   35.7590   30.4950   48.0590 C   0  0  0  0  0  0  0  0  0  0  0  0
   36.7050   30.5440   44.3500 H   0  0  0  0  0  0  0  0  0  0  0  0
   34.5310   29.7070   44.9650 H   0  0  0  0  0  0  0  0  0  0  0  0
   33.8510   29.6510   47.2450 H   0  0  0  0  0  0  0  0  0  0  0  0
   39.8350   33.2640   45.0060 C   0  0  0  0  0  0  0  0  0  0  0  0
   41.0230   32.4820   44.9840 C   0  0  0  0  0  0  0  0  0  0  0  0
   40.9210   31.1760   45.4210 C   0  0  0  0  0  0  0  0  0  0  0  0
   39.7090   30.6840   45.8520 N   0  0  0  0  0  0  0  0  0  0  0  0
   38.6140   31.4720   45.8500 C   0  0  0  0  0  0  0  0  0  0  0  0
   38.6910   32.7430   45.4310 N   0  0  0  0  0  0  0  0  0  0  0  0
   39.9410   34.2730   44.6620 H   0  0  0  0  0  0  0  0  0  0  0  0
   41.9670   32.8960   44.6390 H   0  0  0  0  0  0  0  0  0  0  0  0
   41.8020   30.5470   45.4200 H   0  0  0  0  0  0  0  0  0  0  0  0
   34.2450   29.4540   49.7750 C   0  0  0  0  0  0  0  0  0  0  0  0
   33.2550   29.7810   49.5200 H   0  0  0  0  0  0  0  0  0  0  0  0
   34.2310   29.4580   50.9220 H   0  0  0  0  0  0  0  0  0  0  0  0
   34.6870   28.1490   49.4430 N   0  0  0  0  0  0  0  0  0  0  0  0
   35.2050   27.6370   50.1790 H   0  0  0  0  0  0  0  0  0  0  0  0
   33.8070   27.3260   48.7010 C   0  0  0  0  0  0  0  0  0  0  0  0
   34.0920   27.3060   47.6280 H   0  0  0  0  0  0  0  0  0  0  0  0
   33.9150   26.2880   49.0590 H   0  0  0  0  0  0  0  0  0  0  0  0
   32.4160   27.8570   48.8490 C   0  0  0  0  0  0  0  0  0  0  0  0
   31.8850   27.4360   49.7320 H   0  0  0  0  0  0  0  0  0  0  0  0
   32.2180   28.8950   48.6610 H   0  0  0  0  0  0  0  0  0  0  0  0
   31.6840   27.2040   47.7150 N   0  0  0  0  0  0  0  0  0  0  0  0
   32.2800   27.0960   46.4910 C   0  0  0  0  0  3  0  0  0  0  0  0
   31.6210   26.4980   45.4380 C   0  0  0  0  0  0  0  0  0  0  0  0
   32.0850   26.4120   44.4730 H   0  0  0  0  0  0  0  0  0  0  0  0
   30.3470   26.0010   45.6150 C   0  0  0  0  0  0  0  0  0  0  0  0
   29.6840   25.4440   44.7080 O   0  0  0  0  0  0  0  0  0  0  0  0
   29.8030   26.1290   46.8370 N   0  0  0  0  0  0  0  0  0  0  0  0
   30.4230   26.7080   47.8800 C   0  0  0  0  0  0  0  0  0  0  0  0
   29.9580   26.8480   49.0260 O   0  0  0  0  0  0  0  0  0  0  0  0
   28.8390   25.7890   47.0950 H   0  0  0  0  0  0  0  0  0  0  0  0
  1 23  1  0  0  0  0
  1  2  1  0  0  0  0
  1  3  1  0  0  0  0
  5 10  1  0  0  0  0
  5  4  1  0  0  0  0
  6  5  2  0  0  0  0
  7  8  2  0  0  0  0
  7  6  1  0  0  0  0
  8  9  1  0  0  0  0
  9 13  1  0  0  0  0
  9 10  2  0  0  0  0
 10  1  1  0  0  0  0
 11  7  1  0  0  0  0
 12  8  1  0  0  0  0
 14 19  1  0  0  0  0
 15 14  2  0  0  0  0
 15 16  1  0  0  0  0
 16 17  2  0  0  0  0
 18 17  1  0  0  0  0
 18  6  1  0  0  0  0
 19 18  2  0  0  0  0
 20 14  1  0  0  0  0
 21 15  1  0  0  0  0
 22 16  1  0  0  0  0
 23 25  1  0  0  0  0
 24 23  1  0  0  0  0
 26 23  1  0  0  0  0
 26 27  1  0  0  0  0
 28 31  1  0  0  0  0
 28 30  1  0  0  0  0
 28 26  1  0  0  0  0
 29 28  1  0  0  0  0
 31 32  1  0  0  0  0
 33 31  1  0  0  0  0
 34 41  1  0  0  0  0
 34 31  1  0  0  0  0
 35 34  1  0  0  0  0
 36 38  1  0  0  0  0
 36 35  2  0  0  0  0
 37 36  1  0  0  0  0
 38 40  1  0  0  0  0
 39 38  2  0  0  0  0
 40 43  1  0  0  0  0
 40 41  1  0  0  0  0
 41 42  2  0  0  0  0
M  END
>  <minimizedAffinity>
-5.35748863

>  <minimizedRMSD>
0.669966459

$$$$
