
 OpenBabel03262523583D

 29 31  0  0  0  0  0  0  0  0999 V2000
   39.8770   25.8940   35.3310 C   0  0  0  0  0  0  0  0  0  0  0  0
   39.5190   24.5220   35.2370 C   0  0  0  0  0  0  0  0  0  0  0  0
   38.3670   24.2040   34.5260 C   0  0  0  0  0  0  0  0  0  0  0  0
   37.6330   25.2140   33.9500 N   0  0  0  0  0  0  0  0  0  0  0  0
   38.0180   26.5230   34.0680 C   0  0  0  0  0  0  0  0  0  0  0  0
   39.1410   26.8570   34.7600 N   0  0  0  0  0  0  0  0  0  0  0  0
   40.7680   26.0970   35.8860 H   0  0  0  0  0  0  0  0  0  0  0  0
   38.0270   23.1990   34.4070 H   0  0  0  0  0  0  0  0  0  0  0  0
   38.7630   27.0280   31.0620 Br  0  0  0  0  0  0  0  0  0  0  0  0
   37.4650   27.9430   32.1350 C   0  0  0  0  0  0  0  0  0  0  0  0
   37.2460   27.6050   33.4600 C   0  0  0  0  0  0  0  0  0  0  0  0
   36.3000   28.3080   34.1600 C   0  0  0  0  0  0  0  0  0  0  0  0
   35.5570   29.3330   33.6140 C   0  0  0  0  0  0  0  0  0  0  0  0
   35.7910   29.6570   32.2860 C   0  0  0  0  0  0  0  0  0  0  0  0
   36.7450   28.9600   31.5540 C   0  0  0  0  0  0  0  0  0  0  0  0
   36.0870   28.0850   35.1990 H   0  0  0  0  0  0  0  0  0  0  0  0
   34.8080   29.8900   34.1650 H   0  0  0  0  0  0  0  0  0  0  0  0
   35.2500   30.4440   31.7940 H   0  0  0  0  0  0  0  0  0  0  0  0
   36.9090   29.2310   30.5190 H   0  0  0  0  0  0  0  0  0  0  0  0
   40.3000   23.5000   35.8450 N   0  0  0  0  0  0  0  0  0  0  0  0
   41.4330   22.9470   35.3750 C   0  0  0  0  0  3  0  0  0  0  0  0
   42.0530   21.9580   36.1170 C   0  0  0  0  0  0  0  0  0  0  0  0
   42.9640   21.5300   35.7140 H   0  0  0  0  0  0  0  0  0  0  0  0
   41.5240   21.5350   37.3240 C   0  0  0  0  0  0  0  0  0  0  0  0
   42.1010   20.6250   37.9970 O   0  0  0  0  0  0  0  0  0  0  0  0
   40.3870   22.1220   37.7470 N   0  0  0  0  0  0  0  0  0  0  0  0
   39.7810   23.0840   37.0320 C   0  0  0  0  0  0  0  0  0  0  0  0
   38.7180   23.5430   37.5600 O   0  0  0  0  0  0  0  0  0  0  0  0
   40.0390   21.7630   38.6610 H   0  0  0  0  0  0  0  0  0  0  0  0
  1  7  1  0  0  0  0
  2  1  1  0  0  0  0
  2 20  1  0  0  0  0
  3  2  2  0  0  0  0
  4  5  2  0  0  0  0
  4  3  1  0  0  0  0
  5  6  1  0  0  0  0
  6  1  2  0  0  0  0
  8  3  1  0  0  0  0
  9 10  1  0  0  0  0
 10 11  1  0  0  0  0
 11  5  1  0  0  0  0
 11 12  2  0  0  0  0
 12 16  1  0  0  0  0
 13 12  1  0  0  0  0
 13 17  1  0  0  0  0
 14 13  2  0  0  0  0
 15 10  2  0  0  0  0
 15 14  1  0  0  0  0
 18 14  1  0  0  0  0
 19 15  1  0  0  0  0
 20 27  1  0  0  0  0
 21 20  1  0  0  0  0
 21 22  2  0  0  0  0
 22 24  1  0  0  0  0
 23 22  1  0  0  0  0
 24 26  1  0  0  0  0
 24 25  2  0  0  0  0
 26 29  1  0  0  0  0
 27 28  2  0  0  0  0
 27 26  1  0  0  0  0
M  END
>  <minimizedAffinity>
-5.62328196

$$$$

 OpenBabel03262523583D

 29 31  0  0  0  0  0  0  0  0999 V2000
   38.2160   24.4910   34.4640 C   0  0  0  0  0  0  0  0  0  0  0  0
   39.3740   24.7660   35.2420 C   0  0  0  0  0  0  0  0  0  0  0  0
   39.7420   26.0970   35.4010 C   0  0  0  0  0  0  0  0  0  0  0  0
   38.9820   27.0790   34.8100 N   0  0  0  0  0  0  0  0  0  0  0  0
   37.8740   26.7660   34.0690 C   0  0  0  0  0  0  0  0  0  0  0  0
   37.4960   25.4700   33.8990 N   0  0  0  0  0  0  0  0  0  0  0  0
   37.9680   23.4560   34.3650 H   0  0  0  0  0  0  0  0  0  0  0  0
   40.5970   26.3910   35.9680 H   0  0  0  0  0  0  0  0  0  0  0  0
   38.6210   27.2490   31.0600 Br  0  0  0  0  0  0  0  0  0  0  0  0
   37.2740   28.1250   32.1070 C   0  0  0  0  0  0  0  0  0  0  0  0
   37.0590   27.8010   33.4360 C   0  0  0  0  0  0  0  0  0  0  0  0
   36.0770   28.4730   34.1150 C   0  0  0  0  0  0  0  0  0  0  0  0
   35.2930   29.4540   33.5450 C   0  0  0  0  0  0  0  0  0  0  0  0
   35.5250   29.7630   32.2120 C   0  0  0  0  0  0  0  0  0  0  0  0
   36.5140   29.0970   31.5010 C   0  0  0  0  0  0  0  0  0  0  0  0
   35.8660   28.2600   35.1560 H   0  0  0  0  0  0  0  0  0  0  0  0
   34.5150   29.9870   34.0790 H   0  0  0  0  0  0  0  0  0  0  0  0
   34.9530   30.5160   31.7020 H   0  0  0  0  0  0  0  0  0  0  0  0
   36.6750   29.3570   30.4630 H   0  0  0  0  0  0  0  0  0  0  0  0
   40.1390   23.7270   35.8400 N   0  0  0  0  0  0  0  0  0  0  0  0
   41.2830   23.1860   35.3840 C   0  0  0  0  0  3  0  0  0  0  0  0
   41.8840   22.1750   36.1150 C   0  0  0  0  0  0  0  0  0  0  0  0
   42.8050   21.7580   35.7240 H   0  0  0  0  0  0  0  0  0  0  0  0
   41.3240   21.7200   37.2960 C   0  0  0  0  0  0  0  0  0  0  0  0
   41.8840   20.7920   37.9580 O   0  0  0  0  0  0  0  0  0  0  0  0
   40.1770   22.2970   37.7060 N   0  0  0  0  0  0  0  0  0  0  0  0
   39.5900   23.2790   37.0020 C   0  0  0  0  0  0  0  0  0  0  0  0
   38.5130   23.7240   37.5160 O   0  0  0  0  0  0  0  0  0  0  0  0
   39.8050   21.9130   38.6000 H   0  0  0  0  0  0  0  0  0  0  0  0
  1  2  1  0  0  0  0
  2  3  2  0  0  0  0
  2 20  1  0  0  0  0
  3  8  1  0  0  0  0
  4  3  1  0  0  0  0
  5  4  2  0  0  0  0
  6  5  1  0  0  0  0
  6  1  2  0  0  0  0
  7  1  1  0  0  0  0
  9 10  1  0  0  0  0
 10 11  1  0  0  0  0
 11  5  1  0  0  0  0
 11 12  2  0  0  0  0
 12 16  1  0  0  0  0
 13 17  1  0  0  0  0
 13 12  1  0  0  0  0
 14 13  2  0  0  0  0
 15 10  2  0  0  0  0
 15 14  1  0  0  0  0
 18 14  1  0  0  0  0
 19 15  1  0  0  0  0
 20 27  1  0  0  0  0
 21 20  1  0  0  0  0
 21 22  2  0  0  0  0
 22 24  1  0  0  0  0
 23 22  1  0  0  0  0
 24 26  1  0  0  0  0
 24 25  2  0  0  0  0
 26 29  1  0  0  0  0
 27 28  2  0  0  0  0
 27 26  1  0  0  0  0
M  END
>  <minimizedAffinity>
-5.55858898

$$$$

 OpenBabel03262523583D

 29 31  0  0  0  0  0  0  0  0999 V2000
   36.8920   27.3520   33.8290 C   0  0  0  0  0  0  0  0  0  0  0  0
   37.0690   27.5310   32.4300 C   0  0  0  0  0  0  0  0  0  0  0  0
   36.5960   28.7120   31.8660 C   0  0  0  0  0  0  0  0  0  0  0  0
   35.9870   29.6440   32.6730 N   0  0  0  0  0  0  0  0  0  0  0  0
   35.8390   29.4260   34.0180 C   0  0  0  0  0  0  0  0  0  0  0  0
   36.2930   28.2780   34.5890 N   0  0  0  0  0  0  0  0  0  0  0  0
   37.2680   26.4320   34.2220 H   0  0  0  0  0  0  0  0  0  0  0  0
   36.6880   28.9260   30.8250 H   0  0  0  0  0  0  0  0  0  0  0  0
   32.7090   29.3880   33.8000 Br  0  0  0  0  0  0  0  0  0  0  0  0
   33.8110   30.5100   34.8960 C   0  0  0  0  0  0  0  0  0  0  0  0
   35.1920   30.4090   34.8850 C   0  0  0  0  0  0  0  0  0  0  0  0
   35.9090   31.2480   35.6980 C   0  0  0  0  0  0  0  0  0  0  0  0
   35.3280   32.1850   36.5260 C   0  0  0  0  0  0  0  0  0  0  0  0
   33.9430   32.2690   36.5220 C   0  0  0  0  0  0  0  0  0  0  0  0
   33.1930   31.4310   35.7070 C   0  0  0  0  0  0  0  0  0  0  0  0
   36.9910   31.2120   35.7290 H   0  0  0  0  0  0  0  0  0  0  0  0
   35.8920   32.8480   37.1700 H   0  0  0  0  0  0  0  0  0  0  0  0
   33.4210   32.9750   37.1410 H   0  0  0  0  0  0  0  0  0  0  0  0
   32.1140   31.5170   35.7230 H   0  0  0  0  0  0  0  0  0  0  0  0
   37.7040   26.5480   31.6220 N   0  0  0  0  0  0  0  0  0  0  0  0
   39.0040   26.4810   31.2830 C   0  0  0  0  0  3  0  0  0  0  0  0
   39.4350   25.4390   30.4820 C   0  0  0  0  0  0  0  0  0  0  0  0
   40.4880   25.4100   30.2250 H   0  0  0  0  0  0  0  0  0  0  0  0
   38.5510   24.4750   30.0300 C   0  0  0  0  0  0  0  0  0  0  0  0
   38.9580   23.5220   29.2960 O   0  0  0  0  0  0  0  0  0  0  0  0
   37.2590   24.5890   30.4000 N   0  0  0  0  0  0  0  0  0  0  0  0
   36.8350   25.5990   31.1780 C   0  0  0  0  0  0  0  0  0  0  0  0
   35.5910   25.5730   31.4420 O   0  0  0  0  0  0  0  0  0  0  0  0
   36.6440   23.8350   30.0300 H   0  0  0  0  0  0  0  0  0  0  0  0
  1  7  1  0  0  0  0
  1  6  1  0  0  0  0
  2  1  2  0  0  0  0
  3  2  1  0  0  0  0
  3  4  2  0  0  0  0
  4  5  1  0  0  0  0
  5  6  2  0  0  0  0
  5 11  1  0  0  0  0
  8  3  1  0  0  0  0
  9 10  1  0  0  0  0
 10 15  1  0  0  0  0
 11 10  2  0  0  0  0
 11 12  1  0  0  0  0
 12 16  1  0  0  0  0
 12 13  2  0  0  0  0
 13 17  1  0  0  0  0
 14 13  1  0  0  0  0
 14 18  1  0  0  0  0
 15 19  1  0  0  0  0
 15 14  2  0  0  0  0
 20  2  1  0  0  0  0
 21 20  1  0  0  0  0
 22 21  2  0  0  0  0
 23 22  1  0  0  0  0
 24 26  1  0  0  0  0
 24 22  1  0  0  0  0
 25 24  2  0  0  0  0
 26 27  1  0  0  0  0
 27 28  2  0  0  0  0
 27 20  1  0  0  0  0
 29 26  1  0  0  0  0
M  END
>  <minimizedAffinity>
-5.3499136

$$$$

 OpenBabel03262523583D

 29 31  0  0  0  0  0  0  0  0999 V2000
   39.1290   26.9920   34.2440 C   0  0  0  0  0  0  0  0  0  0  0  0
   38.0660   26.6660   33.3570 C   0  0  0  0  0  0  0  0  0  0  0  0
   37.6850   25.3320   33.2710 C   0  0  0  0  0  0  0  0  0  0  0  0
   38.3400   24.3950   34.0360 N   0  0  0  0  0  0  0  0  0  0  0  0
   39.3590   24.7560   34.8770 C   0  0  0  0  0  0  0  0  0  0  0  0
   39.7490   26.0560   34.9770 N   0  0  0  0  0  0  0  0  0  0  0  0
   39.3920   28.0270   34.2810 H   0  0  0  0  0  0  0  0  0  0  0  0
   36.8980   25.0020   32.6300 H   0  0  0  0  0  0  0  0  0  0  0  0
   37.8890   24.1240   37.5760 Br  0  0  0  0  0  0  0  0  0  0  0  0
   39.5330   23.3900   36.9160 C   0  0  0  0  0  0  0  0  0  0  0  0
   40.0620   23.7700   35.6940 C   0  0  0  0  0  0  0  0  0  0  0  0
   41.2410   23.1990   35.2940 C   0  0  0  0  0  0  0  0  0  0  0  0
   41.9280   22.2660   36.0430 C   0  0  0  0  0  0  0  0  0  0  0  0
   41.3810   21.8990   37.2640 C   0  0  0  0  0  0  0  0  0  0  0  0
   40.1860   22.4630   37.6940 C   0  0  0  0  0  0  0  0  0  0  0  0
   41.7000   23.4590   34.3480 H   0  0  0  0  0  0  0  0  0  0  0  0
   42.8600   21.8120   35.7290 H   0  0  0  0  0  0  0  0  0  0  0  0
   41.8590   21.1790   37.9020 H   0  0  0  0  0  0  0  0  0  0  0  0
   39.7800   22.1600   38.6500 H   0  0  0  0  0  0  0  0  0  0  0  0
   37.4090   27.6590   32.5790 N   0  0  0  0  0  0  0  0  0  0  0  0
   37.6260   27.9630   31.2870 C   0  0  0  0  0  3  0  0  0  0  0  0
   36.8790   28.9700   30.7010 C   0  0  0  0  0  0  0  0  0  0  0  0
   37.0750   29.1940   29.6590 H   0  0  0  0  0  0  0  0  0  0  0  0
   35.9210   29.6590   31.4240 C   0  0  0  0  0  0  0  0  0  0  0  0
   35.2410   30.5810   30.8760 O   0  0  0  0  0  0  0  0  0  0  0  0
   35.7450   29.3140   32.7160 N   0  0  0  0  0  0  0  0  0  0  0  0
   36.4660   28.3370   33.2900 C   0  0  0  0  0  0  0  0  0  0  0  0
   36.1870   28.1250   34.5130 O   0  0  0  0  0  0  0  0  0  0  0  0
   35.0110   29.8670   33.2060 H   0  0  0  0  0  0  0  0  0  0  0  0
  1  7  1  0  0  0  0
  1  6  1  0  0  0  0
  2  1  2  0  0  0  0
  3  2  1  0  0  0  0
  3  4  2  0  0  0  0
  4  5  1  0  0  0  0
  5  6  2  0  0  0  0
  5 11  1  0  0  0  0
  8  3  1  0  0  0  0
 10  9  1  0  0  0  0
 10 15  1  0  0  0  0
 11 10  2  0  0  0  0
 12 11  1  0  0  0  0
 12 13  2  0  0  0  0
 13 14  1  0  0  0  0
 14 15  2  0  0  0  0
 14 18  1  0  0  0  0
 15 19  1  0  0  0  0
 16 12  1  0  0  0  0
 17 13  1  0  0  0  0
 20 27  1  0  0  0  0
 20  2  1  0  0  0  0
 21 20  1  0  0  0  0
 22 21  2  0  0  0  0
 22 24  1  0  0  0  0
 23 22  1  0  0  0  0
 24 26  1  0  0  0  0
 25 24  2  0  0  0  0
 26 29  1  0  0  0  0
 26 27  1  0  0  0  0
 27 28  2  0  0  0  0
M  END
>  <minimizedAffinity>
-5.32859612

$$$$

 OpenBabel03262523583D

 29 31  0  0  0  0  0  0  0  0999 V2000
   39.3290   27.0440   33.4730 C   0  0  0  0  0  0  0  0  0  0  0  0
   38.4980   26.6140   32.4030 C   0  0  0  0  0  0  0  0  0  0  0  0
   37.7410   25.4630   32.5960 C   0  0  0  0  0  0  0  0  0  0  0  0
   37.8260   24.7980   33.7970 N   0  0  0  0  0  0  0  0  0  0  0  0
   38.6410   25.2510   34.8000 C   0  0  0  0  0  0  0  0  0  0  0  0
   39.3910   26.3740   34.6320 N   0  0  0  0  0  0  0  0  0  0  0  0
   39.8940   27.9310   33.2840 H   0  0  0  0  0  0  0  0  0  0  0  0
   37.0930   25.0720   31.8450 H   0  0  0  0  0  0  0  0  0  0  0  0
   40.8500   23.0230   34.8190 Br  0  0  0  0  0  0  0  0  0  0  0  0
   39.6710   23.5410   36.2390 C   0  0  0  0  0  0  0  0  0  0  0  0
   38.7390   24.5530   36.0800 C   0  0  0  0  0  0  0  0  0  0  0  0
   37.9340   24.8630   37.1440 C   0  0  0  0  0  0  0  0  0  0  0  0
   38.0020   24.2230   38.3630 C   0  0  0  0  0  0  0  0  0  0  0  0
   38.9430   23.2120   38.5020 C   0  0  0  0  0  0  0  0  0  0  0  0
   39.7720   22.8770   37.4390 C   0  0  0  0  0  0  0  0  0  0  0  0
   37.1880   25.6470   37.0760 H   0  0  0  0  0  0  0  0  0  0  0  0
   37.3670   24.4670   39.2070 H   0  0  0  0  0  0  0  0  0  0  0  0
   39.0540   22.6690   39.4220 H   0  0  0  0  0  0  0  0  0  0  0  0
   40.4970   22.0850   37.5720 H   0  0  0  0  0  0  0  0  0  0  0  0
   38.4330   27.3240   31.1720 N   0  0  0  0  0  0  0  0  0  0  0  0
   39.1640   27.1090   30.0630 C   0  0  0  0  0  3  0  0  0  0  0  0
   38.9530   27.9130   28.9560 C   0  0  0  0  0  0  0  0  0  0  0  0
   39.5560   27.7170   28.0770 H   0  0  0  0  0  0  0  0  0  0  0  0
   38.0100   28.9250   28.9790 C   0  0  0  0  0  0  0  0  0  0  0  0
   37.8250   29.6560   27.9580 O   0  0  0  0  0  0  0  0  0  0  0  0
   37.3060   29.0970   30.1160 N   0  0  0  0  0  0  0  0  0  0  0  0
   37.5050   28.3190   31.1940 C   0  0  0  0  0  0  0  0  0  0  0  0
   36.7660   28.6020   32.1910 O   0  0  0  0  0  0  0  0  0  0  0  0
   36.6120   29.8720   30.0720 H   0  0  0  0  0  0  0  0  0  0  0  0
  1  6  1  0  0  0  0
  2  3  1  0  0  0  0
  2  1  2  0  0  0  0
  3  4  2  0  0  0  0
  4  5  1  0  0  0  0
  5 11  1  0  0  0  0
  6  5  2  0  0  0  0
  7  1  1  0  0  0  0
  8  3  1  0  0  0  0
  9 10  1  0  0  0  0
 10 15  1  0  0  0  0
 11 10  2  0  0  0  0
 11 12  1  0  0  0  0
 12 13  2  0  0  0  0
 13 14  1  0  0  0  0
 13 17  1  0  0  0  0
 14 18  1  0  0  0  0
 15 19  1  0  0  0  0
 15 14  2  0  0  0  0
 16 12  1  0  0  0  0
 20 27  1  0  0  0  0
 20  2  1  0  0  0  0
 21 20  1  0  0  0  0
 22 24  1  0  0  0  0
 22 21  2  0  0  0  0
 23 22  1  0  0  0  0
 24 26  1  0  0  0  0
 25 24  2  0  0  0  0
 26 27  1  0  0  0  0
 27 28  2  0  0  0  0
 29 26  1  0  0  0  0
M  END
>  <minimizedAffinity>
-5.29066277

$$$$

 OpenBabel03262523583D

 29 31  0  0  0  0  0  0  0  0999 V2000
   38.8200   27.1480   34.7030 C   0  0  0  0  0  0  0  0  0  0  0  0
   37.7760   26.8460   33.7870 C   0  0  0  0  0  0  0  0  0  0  0  0
   37.5000   25.5050   33.5440 C   0  0  0  0  0  0  0  0  0  0  0  0
   38.2360   24.5400   34.1900 N   0  0  0  0  0  0  0  0  0  0  0  0
   39.2340   24.8790   35.0650 C   0  0  0  0  0  0  0  0  0  0  0  0
   39.5210   26.1850   35.3170 N   0  0  0  0  0  0  0  0  0  0  0  0
   39.0010   28.1890   34.8620 H   0  0  0  0  0  0  0  0  0  0  0  0
   36.7330   25.1910   32.8710 H   0  0  0  0  0  0  0  0  0  0  0  0
   37.8940   23.8800   37.7200 Br  0  0  0  0  0  0  0  0  0  0  0  0
   39.5580   23.3260   36.9460 C   0  0  0  0  0  0  0  0  0  0  0  0
   40.0230   23.8630   35.7570 C   0  0  0  0  0  0  0  0  0  0  0  0
   41.2220   23.4130   35.2700 C   0  0  0  0  0  0  0  0  0  0  0  0
   41.9890   22.4560   35.9000 C   0  0  0  0  0  0  0  0  0  0  0  0
   41.5060   21.9320   37.0900 C   0  0  0  0  0  0  0  0  0  0  0  0
   40.2930   22.3700   37.6060 C   0  0  0  0  0  0  0  0  0  0  0  0
   41.6330   23.7980   34.3440 H   0  0  0  0  0  0  0  0  0  0  0  0
   42.9370   22.0990   35.5160 H   0  0  0  0  0  0  0  0  0  0  0  0
   42.0480   21.1820   37.6370 H   0  0  0  0  0  0  0  0  0  0  0  0
   39.9370   21.9450   38.5360 H   0  0  0  0  0  0  0  0  0  0  0  0
   37.0320   27.8680   33.1350 N   0  0  0  0  0  0  0  0  0  0  0  0
   35.9710   28.5420   33.6150 C   0  0  0  0  0  3  0  0  0  0  0  0
   35.3780   29.5080   32.8220 C   0  0  0  0  0  0  0  0  0  0  0  0
   34.5250   30.0360   33.2340 H   0  0  0  0  0  0  0  0  0  0  0  0
   35.8590   29.7850   31.5540 C   0  0  0  0  0  0  0  0  0  0  0  0
   35.3060   30.6740   30.8360 O   0  0  0  0  0  0  0  0  0  0  0  0
   36.9240   29.0800   31.1230 N   0  0  0  0  0  0  0  0  0  0  0  0
   37.5050   28.1410   31.8880 C   0  0  0  0  0  0  0  0  0  0  0  0
   38.4990   27.5600   31.3460 O   0  0  0  0  0  0  0  0  0  0  0  0
   37.2390   29.3330   30.1640 H   0  0  0  0  0  0  0  0  0  0  0  0
  1  7  1  0  0  0  0
  1  6  1  0  0  0  0
  2  1  2  0  0  0  0
  3  2  1  0  0  0  0
  3  4  2  0  0  0  0
  4  5  1  0  0  0  0
  5  6  2  0  0  0  0
  5 11  1  0  0  0  0
  8  3  1  0  0  0  0
 10 15  1  0  0  0  0
 10  9  1  0  0  0  0
 11 10  2  0  0  0  0
 12 11  1  0  0  0  0
 12 13  2  0  0  0  0
 13 14  1  0  0  0  0
 14 15  2  0  0  0  0
 14 18  1  0  0  0  0
 15 19  1  0  0  0  0
 16 12  1  0  0  0  0
 17 13  1  0  0  0  0
 20 21  1  0  0  0  0
 20  2  1  0  0  0  0
 22 23  1  0  0  0  0
 22 21  2  0  0  0  0
 24 22  1  0  0  0  0
 25 24  2  0  0  0  0
 26 24  1  0  0  0  0
 26 27  1  0  0  0  0
 27 20  1  0  0  0  0
 28 27  2  0  0  0  0
 29 26  1  0  0  0  0
M  END
>  <minimizedAffinity>
-5.26254749

$$$$

 OpenBabel03262523583D

 29 31  0  0  0  0  0  0  0  0999 V2000
   35.3010   25.6230   30.8940 C   0  0  0  0  0  0  0  0  0  0  0  0
   36.1610   26.3740   31.7420 C   0  0  0  0  0  0  0  0  0  0  0  0
   37.0090   25.6670   32.5880 C   0  0  0  0  0  0  0  0  0  0  0  0
   36.9840   24.2920   32.5690 N   0  0  0  0  0  0  0  0  0  0  0  0
   36.1370   23.6120   31.7340 C   0  0  0  0  0  0  0  0  0  0  0  0
   35.2980   24.2830   30.8990 N   0  0  0  0  0  0  0  0  0  0  0  0
   34.6650   26.2030   30.2610 H   0  0  0  0  0  0  0  0  0  0  0  0
   37.6850   26.1520   33.2560 H   0  0  0  0  0  0  0  0  0  0  0  0
   38.6150   22.3490   30.2810 Br  0  0  0  0  0  0  0  0  0  0  0  0
   37.1300   21.4520   31.0960 C   0  0  0  0  0  0  0  0  0  0  0  0
   36.1010   22.1510   31.7050 C   0  0  0  0  0  0  0  0  0  0  0  0
   35.0760   21.4360   32.2650 C   0  0  0  0  0  0  0  0  0  0  0  0
   35.0140   20.0580   32.2530 C   0  0  0  0  0  0  0  0  0  0  0  0
   36.0540   19.3770   31.6380 C   0  0  0  0  0  0  0  0  0  0  0  0
   37.1060   20.0780   31.0630 C   0  0  0  0  0  0  0  0  0  0  0  0
   34.2450   21.9310   32.7540 H   0  0  0  0  0  0  0  0  0  0  0  0
   34.2040   19.4900   32.6960 H   0  0  0  0  0  0  0  0  0  0  0  0
   36.0730   18.3040   31.5900 H   0  0  0  0  0  0  0  0  0  0  0  0
   37.9050   19.5230   30.5890 H   0  0  0  0  0  0  0  0  0  0  0  0
   36.1630   27.7960   31.7380 N   0  0  0  0  0  0  0  0  0  0  0  0
   35.4170   28.6180   32.4980 C   0  0  0  0  0  3  0  0  0  0  0  0
   35.5630   29.9860   32.3470 C   0  0  0  0  0  0  0  0  0  0  0  0
   34.9490   30.6240   32.9720 H   0  0  0  0  0  0  0  0  0  0  0  0
   36.4590   30.5100   31.4320 C   0  0  0  0  0  0  0  0  0  0  0  0
   36.5850   31.7670   31.3010 O   0  0  0  0  0  0  0  0  0  0  0  0
   37.1820   29.6410   30.6960 N   0  0  0  0  0  0  0  0  0  0  0  0
   37.0450   28.3120   30.8390 C   0  0  0  0  0  0  0  0  0  0  0  0
   37.7930   27.6210   30.0760 O   0  0  0  0  0  0  0  0  0  0  0  0
   37.8370   30.0950   30.0270 H   0  0  0  0  0  0  0  0  0  0  0  0
  1  6  2  0  0  0  0
  1  2  1  0  0  0  0
  2  3  2  0  0  0  0
  3  8  1  0  0  0  0
  4  3  1  0  0  0  0
  5  4  2  0  0  0  0
  6  5  1  0  0  0  0
  7  1  1  0  0  0  0
  9 10  1  0  0  0  0
 10 11  1  0  0  0  0
 11  5  1  0  0  0  0
 11 12  2  0  0  0  0
 12 16  1  0  0  0  0
 13 12  1  0  0  0  0
 13 17  1  0  0  0  0
 14 13  2  0  0  0  0
 15 10  2  0  0  0  0
 15 14  1  0  0  0  0
 18 14  1  0  0  0  0
 19 15  1  0  0  0  0
 20  2  1  0  0  0  0
 20 21  1  0  0  0  0
 22 21  2  0  0  0  0
 22 23  1  0  0  0  0
 24 22  1  0  0  0  0
 25 24  2  0  0  0  0
 26 27  1  0  0  0  0
 26 24  1  0  0  0  0
 27 20  1  0  0  0  0
 28 27  2  0  0  0  0
 29 26  1  0  0  0  0
M  END
>  <minimizedAffinity>
-5.25180054

$$$$

 OpenBabel03262523583D

 29 31  0  0  0  0  0  0  0  0999 V2000
   38.7810   26.5920   35.3570 C   0  0  0  0  0  0  0  0  0  0  0  0
   38.6220   25.1990   35.1200 C   0  0  0  0  0  0  0  0  0  0  0  0
   37.8070   24.8140   34.0610 C   0  0  0  0  0  0  0  0  0  0  0  0
   37.1980   25.7810   33.2960 N   0  0  0  0  0  0  0  0  0  0  0  0
   37.3810   27.1120   33.5630 C   0  0  0  0  0  0  0  0  0  0  0  0
   38.1730   27.5110   34.5940 N   0  0  0  0  0  0  0  0  0  0  0  0
   39.4130   26.8460   36.1800 H   0  0  0  0  0  0  0  0  0  0  0  0
   37.6330   23.7900   33.8150 H   0  0  0  0  0  0  0  0  0  0  0  0
   38.8420   27.6280   30.8340 Br  0  0  0  0  0  0  0  0  0  0  0  0
   37.2720   28.4870   31.5240 C   0  0  0  0  0  0  0  0  0  0  0  0
   36.7390   28.1490   32.7570 C   0  0  0  0  0  0  0  0  0  0  0  0
   35.6160   28.8100   33.1790 C   0  0  0  0  0  0  0  0  0  0  0  0
   34.9890   29.7920   32.4420 C   0  0  0  0  0  0  0  0  0  0  0  0
   35.5380   30.1150   31.2100 C   0  0  0  0  0  0  0  0  0  0  0  0
   36.6770   29.4610   30.7580 C   0  0  0  0  0  0  0  0  0  0  0  0
   35.1560   28.5850   34.1340 H   0  0  0  0  0  0  0  0  0  0  0  0
   34.0990   30.3150   32.7730 H   0  0  0  0  0  0  0  0  0  0  0  0
   35.1040   30.8700   30.5800 H   0  0  0  0  0  0  0  0  0  0  0  0
   37.0870   29.7320   29.7930 H   0  0  0  0  0  0  0  0  0  0  0  0
   39.2650   24.2230   35.9300 N   0  0  0  0  0  0  0  0  0  0  0  0
   38.8130   23.6830   37.0770 C   0  0  0  0  0  3  0  0  0  0  0  0
   39.5910   22.7400   37.7250 C   0  0  0  0  0  0  0  0  0  0  0  0
   39.2020   22.3220   38.6460 H   0  0  0  0  0  0  0  0  0  0  0  0
   40.8160   22.3510   37.2110 C   0  0  0  0  0  0  0  0  0  0  0  0
   41.5210   21.4840   37.8150 O   0  0  0  0  0  0  0  0  0  0  0  0
   41.2200   22.9240   36.0600 N   0  0  0  0  0  0  0  0  0  0  0  0
   40.4700   23.8400   35.4260 C   0  0  0  0  0  0  0  0  0  0  0  0
   40.9830   24.2890   34.3520 O   0  0  0  0  0  0  0  0  0  0  0  0
   42.1480   22.5910   35.7240 H   0  0  0  0  0  0  0  0  0  0  0  0
  1  7  1  0  0  0  0
  2  1  1  0  0  0  0
  2 20  1  0  0  0  0
  3  2  2  0  0  0  0
  4  5  2  0  0  0  0
  4  3  1  0  0  0  0
  5  6  1  0  0  0  0
  6  1  2  0  0  0  0
  8  3  1  0  0  0  0
  9 10  1  0  0  0  0
 10 11  1  0  0  0  0
 11 12  2  0  0  0  0
 11  5  1  0  0  0  0
 12 16  1  0  0  0  0
 13 17  1  0  0  0  0
 13 12  1  0  0  0  0
 14 13  2  0  0  0  0
 15 14  1  0  0  0  0
 15 10  2  0  0  0  0
 18 14  1  0  0  0  0
 19 15  1  0  0  0  0
 20 21  1  0  0  0  0
 21 22  2  0  0  0  0
 22 23  1  0  0  0  0
 24 22  1  0  0  0  0
 24 25  2  0  0  0  0
 26 24  1  0  0  0  0
 27 20  1  0  0  0  0
 27 26  1  0  0  0  0
 28 27  2  0  0  0  0
 29 26  1  0  0  0  0
M  END
>  <minimizedAffinity>
-5.23693943

$$$$

 OpenBabel03262523583D

 29 31  0  0  0  0  0  0  0  0999 V2000
   35.8030   28.5390   32.2160 C   0  0  0  0  0  0  0  0  0  0  0  0
   36.5290   27.4470   32.7650 C   0  0  0  0  0  0  0  0  0  0  0  0
   36.8120   27.4810   34.1260 C   0  0  0  0  0  0  0  0  0  0  0  0
   36.3830   28.5510   34.8750 N   0  0  0  0  0  0  0  0  0  0  0  0
   35.6860   29.5810   34.3020 C   0  0  0  0  0  0  0  0  0  0  0  0
   35.3990   29.5700   32.9720 N   0  0  0  0  0  0  0  0  0  0  0  0
   35.6060   28.4760   31.1680 H   0  0  0  0  0  0  0  0  0  0  0  0
   37.3530   26.7030   34.6180 H   0  0  0  0  0  0  0  0  0  0  0  0
   32.6640   29.3730   35.1200 Br  0  0  0  0  0  0  0  0  0  0  0  0
   33.9110   30.7730   35.5210 C   0  0  0  0  0  0  0  0  0  0  0  0
   35.2260   30.7240   35.0870 C   0  0  0  0  0  0  0  0  0  0  0  0
   36.0540   31.7650   35.4160 C   0  0  0  0  0  0  0  0  0  0  0  0
   35.6490   32.8560   36.1550 C   0  0  0  0  0  0  0  0  0  0  0  0
   34.3290   32.8860   36.5800 C   0  0  0  0  0  0  0  0  0  0  0  0
   33.4670   31.8440   36.2600 C   0  0  0  0  0  0  0  0  0  0  0  0
   37.0920   31.7790   35.1030 H   0  0  0  0  0  0  0  0  0  0  0  0
   36.3030   33.6800   36.4160 H   0  0  0  0  0  0  0  0  0  0  0  0
   33.9420   33.7040   37.1590 H   0  0  0  0  0  0  0  0  0  0  0  0
   32.4420   31.8900   36.6040 H   0  0  0  0  0  0  0  0  0  0  0  0
   36.9590   26.3540   31.9630 N   0  0  0  0  0  0  0  0  0  0  0  0
   36.2860   25.2190   31.6970 C   0  0  0  0  0  3  0  0  0  0  0  0
   36.8760   24.2650   30.8880 C   0  0  0  0  0  0  0  0  0  0  0  0
   36.3120   23.3610   30.6910 H   0  0  0  0  0  0  0  0  0  0  0  0
   38.1380   24.4630   30.3560 C   0  0  0  0  0  0  0  0  0  0  0  0
   38.6710   23.5800   29.6150 O   0  0  0  0  0  0  0  0  0  0  0  0
   38.7680   25.6170   30.6550 N   0  0  0  0  0  0  0  0  0  0  0  0
   38.1990   26.5480   31.4390 C   0  0  0  0  0  0  0  0  0  0  0  0
   38.9150   27.5830   31.6310 O   0  0  0  0  0  0  0  0  0  0  0  0
   39.7120   25.7090   30.2260 H   0  0  0  0  0  0  0  0  0  0  0  0
  1  2  2  0  0  0  0
  1  6  1  0  0  0  0
  2  3  1  0  0  0  0
  3  8  1  0  0  0  0
  3  4  2  0  0  0  0
  5  4  1  0  0  0  0
  5 11  1  0  0  0  0
  6  5  2  0  0  0  0
  7  1  1  0  0  0  0
  9 10  1  0  0  0  0
 10 15  1  0  0  0  0
 11 12  1  0  0  0  0
 11 10  2  0  0  0  0
 12 13  2  0  0  0  0
 13 17  1  0  0  0  0
 13 14  1  0  0  0  0
 14 18  1  0  0  0  0
 15 14  2  0  0  0  0
 15 19  1  0  0  0  0
 16 12  1  0  0  0  0
 20  2  1  0  0  0  0
 21 20  1  0  0  0  0
 22 21  2  0  0  0  0
 23 22  1  0  0  0  0
 24 26  1  0  0  0  0
 24 22  1  0  0  0  0
 25 24  2  0  0  0  0
 26 27  1  0  0  0  0
 27 28  2  0  0  0  0
 27 20  1  0  0  0  0
 29 26  1  0  0  0  0
M  END
>  <minimizedAffinity>
-5.12018013

$$$$
