
 OpenBabel03272501083D

 41 44  0  0  1  0  0  0  0  0999 V2000
   38.1610   32.3830   46.5610 O   0  0  0  0  0  0  0  0  0  0  0  0
   38.9180   32.4820   47.6820 C   0  0  2  0  0  0  0  0  0  0  0  0
   38.0490   32.7680   48.9520 C   0  0  2  0  0  0  0  0  0  0  0  0
   39.0120   33.4650   49.7870 C   0  0  0  0  0  0  0  0  0  0  0  0
   39.8190   34.2430   48.9670 O   0  0  0  0  0  0  0  0  0  0  0  0
   39.6270   33.8640   47.6800 C   0  0  0  0  0  0  0  0  0  0  0  0
   39.6720   31.7250   47.8730 H   0  0  0  0  0  0  0  0  0  0  0  0
   37.2750   33.4580   48.5590 H   0  0  0  0  0  0  0  0  0  0  0  0
   38.4510   34.1790   50.4600 H   0  0  0  0  0  0  0  0  0  0  0  0
   39.6680   32.8660   50.4160 H   0  0  0  0  0  0  0  0  0  0  0  0
   39.0060   34.6030   47.1200 H   0  0  0  0  0  0  0  0  0  0  0  0
   40.5790   33.6970   47.1710 H   0  0  0  0  0  0  0  0  0  0  0  0
   37.3750   29.6330   50.9170 C   0  0  0  0  0  0  0  0  0  0  0  0
   38.0520   30.8030   50.4670 C   0  0  0  0  0  0  0  0  0  0  0  0
   37.4140   31.5800   49.4550 C   0  0  0  0  0  0  0  0  0  0  0  0
   36.1910   31.1740   48.9610 N   0  0  0  0  0  0  0  0  0  0  0  0
   35.6040   30.0630   49.4230 C   0  0  0  0  0  0  0  0  0  0  0  0
   36.1670   29.2920   50.3840 N   0  0  0  0  0  0  0  0  0  0  0  0
   37.8380   29.0330   51.6790 H   0  0  0  0  0  0  0  0  0  0  0  0
   38.9920   31.0710   50.8800 H   0  0  0  0  0  0  0  0  0  0  0  0
   34.6470   29.7670   49.0210 H   0  0  0  0  0  0  0  0  0  0  0  0
   40.4030   32.3280   44.4440 Cl  0  0  0  0  0  0  0  0  0  0  0  0
   38.9560   31.3560   44.4060 C   0  0  0  0  0  0  0  0  0  0  0  0
   38.1020   31.5750   45.4810 C   0  0  0  0  0  0  0  0  0  0  0  0
   36.9430   30.8150   45.4600 C   0  0  0  0  0  0  0  0  0  0  0  0
   36.6620   29.9140   44.4480 C   0  0  0  0  0  0  0  0  0  0  0  0
   37.5450   29.7470   43.4200 C   0  0  0  0  0  0  0  0  0  0  0  0
   38.7010   30.4740   43.3980 C   0  0  0  0  0  0  0  0  0  0  0  0
   36.1620   30.8480   46.2060 H   0  0  0  0  0  0  0  0  0  0  0  0
   35.7650   29.3100   44.4080 H   0  0  0  0  0  0  0  0  0  0  0  0
   37.4010   29.0650   42.5940 H   0  0  0  0  0  0  0  0  0  0  0  0
   39.6780   30.3630   42.3650 N   0  0  0  0  0  0  0  0  0  0  0  0
   40.5560   29.3550   42.5560 C   0  0  0  0  0  0  0  0  0  0  0  0
   41.5550   29.1340   41.6310 C   0  0  0  0  0  0  0  0  0  0  0  0
   42.2610   28.3220   41.7880 H   0  0  0  0  0  0  0  0  0  0  0  0
   41.7020   29.9140   40.4930 C   0  0  0  0  0  0  0  0  0  0  0  0
   42.6010   29.7420   39.6270 O   0  0  0  0  0  0  0  0  0  0  0  0
   40.7790   30.9020   40.3800 N   0  0  0  0  0  0  0  0  0  0  0  0
   39.8000   31.1260   41.2760 C   0  0  0  0  0  0  0  0  0  0  0  0
   38.9600   32.0350   41.1600 O   0  0  0  0  0  0  0  0  0  0  0  0
   40.8450   31.5180   39.5380 H   0  0  0  0  0  0  0  0  0  0  0  0
  1  2  1  0  0  0  0
  2  7  1  1  0  0  0
  2  3  1  0  0  0  0
  3  8  1  6  0  0  0
  3 15  1  0  0  0  0
  3  4  1  0  0  0  0
  4 10  1  0  0  0  0
  4  9  1  0  0  0  0
  5  4  1  0  0  0  0
  6  2  1  0  0  0  0
  6  5  1  0  0  0  0
 11  6  1  0  0  0  0
 12  6  1  0  0  0  0
 13 19  1  0  0  0  0
 14 20  1  0  0  0  0
 14 13  1  0  0  0  0
 15 14  2  0  0  0  0
 16 17  2  0  0  0  0
 16 15  1  0  0  0  0
 17 18  1  0  0  0  0
 18 13  2  0  0  0  0
 21 17  1  0  0  0  0
 23 22  1  0  0  0  0
 23 24  1  0  0  0  0
 24  1  1  0  0  0  0
 25 24  2  0  0  0  0
 25 29  1  0  0  0  0
 26 25  1  0  0  0  0
 27 26  2  0  0  0  0
 28 27  1  0  0  0  0
 28 23  2  0  0  0  0
 30 26  1  0  0  0  0
 31 27  1  0  0  0  0
 32 33  1  0  0  0  0
 32 28  1  0  0  0  0
 34 35  1  0  0  0  0
 34 33  2  0  0  0  0
 36 34  1  0  0  0  0
 37 36  2  0  0  0  0
 38 36  1  0  0  0  0
 38 39  1  0  0  0  0
 39 32  1  0  0  0  0
 40 39  2  0  0  0  0
 41 38  1  0  0  0  0
M  END
>  <minimizedAffinity>
-6.47039747

>  <minimizedRMSD>
1.3473897

$$$$
