
 OpenBabel03272508503D

 41 45  0  0  0  0  0  0  0  0999 V2000
   36.8370   27.2920   33.1810 C   0  0  0  0  0  0  0  0  0  0  0  0
   36.5380   28.0020   32.0370 C   0  0  0  0  0  0  0  0  0  0  0  0
   35.8740   29.1290   32.5120 C   0  0  0  0  0  0  0  0  0  0  0  0
   35.8010   29.0590   33.8770 C   0  0  0  0  0  0  0  0  0  0  0  0
   36.3930   27.9350   34.2560 O   0  0  0  0  0  0  0  0  0  0  0  0
   36.7430   27.7850   31.0010 H   0  0  0  0  0  0  0  0  0  0  0  0
   35.4660   29.9470   31.9600 H   0  0  0  0  0  0  0  0  0  0  0  0
   35.9910   30.9260   35.4550 C   0  0  0  0  0  0  0  0  0  0  0  0
   35.1880   30.0290   34.7800 C   0  0  0  0  0  0  0  0  0  0  0  0
   33.8020   30.0210   34.9330 C   0  0  0  0  0  0  0  0  0  0  0  0
   33.1990   30.9310   35.7840 C   0  0  0  0  0  0  0  0  0  0  0  0
   31.9200   31.1800   36.1450 N   0  0  0  0  0  0  0  0  0  0  0  0
   31.9500   32.1940   37.0130 N   0  0  0  0  0  0  0  0  0  0  0  0
   33.2110   32.5950   37.2110 C   0  0  0  0  0  0  0  0  0  0  0  0
   34.0430   31.8060   36.4360 C   0  0  0  0  0  0  0  0  0  0  0  0
   35.4060   31.8580   36.3230 C   0  0  0  0  0  0  0  0  0  0  0  0
   37.0640   30.9410   35.3450 H   0  0  0  0  0  0  0  0  0  0  0  0
   33.1660   29.3090   34.3960 H   0  0  0  0  0  0  0  0  0  0  0  0
   31.1010   30.6260   35.7650 H   0  0  0  0  0  0  0  0  0  0  0  0
   33.4440   33.4110   37.8830 H   0  0  0  0  0  0  0  0  0  0  0  0
   36.0080   32.5730   36.8680 H   0  0  0  0  0  0  0  0  0  0  0  0
   37.5450   26.0110   33.2000 C   0  0  0  0  0  0  0  0  0  0  0  0
   36.9780   25.0220   32.6950 O   0  0  0  0  0  0  0  0  0  0  0  0
   40.9250   26.9580   34.1890 C   0  0  0  0  0  0  0  0  0  0  0  0
   41.3740   25.8540   34.8960 C   0  0  0  0  0  0  0  0  0  0  0  0
   40.5300   24.7770   35.0420 C   0  0  0  0  0  0  0  0  0  0  0  0
   39.2960   24.8440   34.4880 N   0  0  0  0  0  0  0  0  0  0  0  0
   38.8730   25.9280   33.8000 C   0  0  0  0  0  0  0  0  0  0  0  0
   39.6940   26.9810   33.6560 N   0  0  0  0  0  0  0  0  0  0  0  0
   41.5960   27.8090   34.0760 H   0  0  0  0  0  0  0  0  0  0  0  0
   42.3810   25.8700   35.3150 H   0  0  0  0  0  0  0  0  0  0  0  0
   40.9850   23.6390   35.7670 N   0  0  0  0  0  0  0  0  0  0  0  0
   42.1840   23.0720   35.5030 C   0  0  0  0  0  3  0  0  0  0  0  0
   42.6290   21.9530   36.2170 C   0  0  0  0  0  0  0  0  0  0  0  0
   43.5900   21.4990   36.0050 H   0  0  0  0  0  0  0  0  0  0  0  0
   41.7730   21.4730   37.1950 C   0  0  0  0  0  0  0  0  0  0  0  0
   42.1360   20.4540   37.8730 O   0  0  0  0  0  0  0  0  0  0  0  0
   40.5680   22.0700   37.4350 N   0  0  0  0  0  0  0  0  0  0  0  0
   40.1800   23.1430   36.7260 C   0  0  0  0  0  0  0  0  0  0  0  0
   39.0540   23.6050   37.0370 O   0  0  0  0  0  0  0  0  0  0  0  0
   39.9680   21.6430   38.2010 H   0  0  0  0  0  0  0  0  0  0  0  0
  1 22  1  0  0  0  0
  1  5  1  0  0  0  0
  2  3  1  0  0  0  0
  2  1  2  0  0  0  0
  3  4  2  0  0  0  0
  4  5  1  0  0  0  0
  4  9  1  0  0  0  0
  6  2  1  0  0  0  0
  7  3  1  0  0  0  0
  8 16  1  0  0  0  0
  9 10  1  0  0  0  0
  9  8  2  0  0  0  0
 10 11  2  0  0  0  0
 11 12  1  0  0  0  0
 11 15  1  0  0  0  0
 12 13  1  0  0  0  0
 13 14  2  0  0  0  0
 14 20  1  0  0  0  0
 15 14  1  0  0  0  0
 16 15  2  0  0  0  0
 16 21  1  0  0  0  0
 17  8  1  0  0  0  0
 18 10  1  0  0  0  0
 19 12  1  0  0  0  0
 22 28  1  0  0  0  0
 23 22  2  0  0  0  0
 24 25  1  0  0  0  0
 25 26  2  0  0  0  0
 25 31  1  0  0  0  0
 26 32  1  0  0  0  0
 27 26  1  0  0  0  0
 28 27  2  0  0  0  0
 29 28  1  0  0  0  0
 29 24  2  0  0  0  0
 30 24  1  0  0  0  0
 32 39  1  0  0  0  0
 33 32  1  0  0  0  0
 33 34  2  0  0  0  0
 34 36  1  0  0  0  0
 35 34  1  0  0  0  0
 36 38  1  0  0  0  0
 36 37  2  0  0  0  0
 38 41  1  0  0  0  0
 39 40  2  0  0  0  0
 39 38  1  0  0  0  0
M  END
>  <minimizedAffinity>
-6.90556955

$$$$

 OpenBabel03272508503D

 41 45  0  0  0  0  0  0  0  0999 V2000
   36.1620   25.6500   31.9030 C   0  0  0  0  0  0  0  0  0  0  0  0
   35.0360   25.6560   31.1060 C   0  0  0  0  0  0  0  0  0  0  0  0
   34.8230   24.3100   30.8270 C   0  0  0  0  0  0  0  0  0  0  0  0
   35.7940   23.5680   31.4440 C   0  0  0  0  0  0  0  0  0  0  0  0
   36.5930   24.4070   32.0900 O   0  0  0  0  0  0  0  0  0  0  0  0
   34.4290   26.4730   30.7540 H   0  0  0  0  0  0  0  0  0  0  0  0
   34.0520   23.8620   30.2380 H   0  0  0  0  0  0  0  0  0  0  0  0
   34.9490   21.3180   31.9300 C   0  0  0  0  0  0  0  0  0  0  0  0
   35.9500   22.1170   31.4140 C   0  0  0  0  0  0  0  0  0  0  0  0
   37.1120   21.5770   30.8640 C   0  0  0  0  0  0  0  0  0  0  0  0
   37.2820   20.2040   30.8260 C   0  0  0  0  0  0  0  0  0  0  0  0
   38.2600   19.3870   30.3740 N   0  0  0  0  0  0  0  0  0  0  0  0
   37.8620   18.1340   30.6110 N   0  0  0  0  0  0  0  0  0  0  0  0
   36.6600   18.1350   31.1980 C   0  0  0  0  0  0  0  0  0  0  0  0
   36.2540   19.4490   31.3530 C   0  0  0  0  0  0  0  0  0  0  0  0
   35.0960   19.9250   31.9040 C   0  0  0  0  0  0  0  0  0  0  0  0
   34.0460   21.7250   32.3580 H   0  0  0  0  0  0  0  0  0  0  0  0
   37.9050   22.2120   30.4550 H   0  0  0  0  0  0  0  0  0  0  0  0
   39.1480   19.7520   29.9280 H   0  0  0  0  0  0  0  0  0  0  0  0
   36.1650   17.2120   31.4700 H   0  0  0  0  0  0  0  0  0  0  0  0
   34.3290   19.2720   32.3010 H   0  0  0  0  0  0  0  0  0  0  0  0
   36.7880   26.8500   32.4610 C   0  0  0  0  0  0  0  0  0  0  0  0
   36.7680   27.8920   31.7770 O   0  0  0  0  0  0  0  0  0  0  0  0
   37.8670   27.8790   35.7890 C   0  0  0  0  0  0  0  0  0  0  0  0
   38.5460   26.7680   36.2640 C   0  0  0  0  0  0  0  0  0  0  0  0
   38.6420   25.6590   35.4560 C   0  0  0  0  0  0  0  0  0  0  0  0
   38.0690   25.7020   34.2300 N   0  0  0  0  0  0  0  0  0  0  0  0
   37.4110   26.7930   33.7800 C   0  0  0  0  0  0  0  0  0  0  0  0
   37.3140   27.8780   34.5660 N   0  0  0  0  0  0  0  0  0  0  0  0
   37.7930   28.7560   36.4310 H   0  0  0  0  0  0  0  0  0  0  0  0
   38.9830   26.8060   37.2630 H   0  0  0  0  0  0  0  0  0  0  0  0
   39.3390   24.5140   35.9380 N   0  0  0  0  0  0  0  0  0  0  0  0
   40.6160   24.2640   35.5730 C   0  0  0  0  0  3  0  0  0  0  0  0
   41.2980   23.1380   36.0480 C   0  0  0  0  0  0  0  0  0  0  0  0
   42.3220   22.9380   35.7550 H   0  0  0  0  0  0  0  0  0  0  0  0
   40.5880   22.3110   36.9040 C   0  0  0  0  0  0  0  0  0  0  0  0
   41.1690   21.2710   37.3640 O   0  0  0  0  0  0  0  0  0  0  0  0
   39.2990   22.5940   37.2520 N   0  0  0  0  0  0  0  0  0  0  0  0
   38.6820   23.6860   36.7730 C   0  0  0  0  0  0  0  0  0  0  0  0
   37.4980   23.8410   37.1640 O   0  0  0  0  0  0  0  0  0  0  0  0
   38.8220   21.9110   37.9130 H   0  0  0  0  0  0  0  0  0  0  0  0
  1  5  1  0  0  0  0
  1 22  1  0  0  0  0
  2  1  2  0  0  0  0
  3  2  1  0  0  0  0
  3  4  2  0  0  0  0
  4  5  1  0  0  0  0
  6  2  1  0  0  0  0
  7  3  1  0  0  0  0
  8 17  1  0  0  0  0
  9  4  1  0  0  0  0
  9  8  2  0  0  0  0
 10  9  1  0  0  0  0
 11 10  2  0  0  0  0
 11 15  1  0  0  0  0
 12 13  1  0  0  0  0
 12 11  1  0  0  0  0
 13 14  2  0  0  0  0
 14 15  1  0  0  0  0
 14 20  1  0  0  0  0
 15 16  2  0  0  0  0
 16  8  1  0  0  0  0
 16 21  1  0  0  0  0
 18 10  1  0  0  0  0
 19 12  1  0  0  0  0
 22 28  1  0  0  0  0
 23 22  2  0  0  0  0
 24 25  1  0  0  0  0
 24 30  1  0  0  0  0
 25 31  1  0  0  0  0
 26 32  1  0  0  0  0
 26 25  2  0  0  0  0
 27 26  1  0  0  0  0
 28 27  2  0  0  0  0
 28 29  1  0  0  0  0
 29 24  2  0  0  0  0
 32 39  1  0  0  0  0
 33 32  1  0  0  0  0
 33 34  2  0  0  0  0
 34 36  1  0  0  0  0
 35 34  1  0  0  0  0
 36 38  1  0  0  0  0
 36 37  2  0  0  0  0
 38 41  1  0  0  0  0
 39 40  2  0  0  0  0
 39 38  1  0  0  0  0
M  END
>  <minimizedAffinity>
-6.88144684

$$$$

 OpenBabel03272508503D

 41 45  0  0  0  0  0  0  0  0999 V2000
   37.1380   27.7070   32.4780 C   0  0  0  0  0  0  0  0  0  0  0  0
   36.3620   28.1260   31.4180 C   0  0  0  0  0  0  0  0  0  0  0  0
   35.4230   28.9660   32.0080 C   0  0  0  0  0  0  0  0  0  0  0  0
   35.6590   29.0190   33.3560 C   0  0  0  0  0  0  0  0  0  0  0  0
   36.7050   28.2460   33.6130 O   0  0  0  0  0  0  0  0  0  0  0  0
   36.4220   27.8930   30.3670 H   0  0  0  0  0  0  0  0  0  0  0  0
   34.6260   29.5080   31.5470 H   0  0  0  0  0  0  0  0  0  0  0  0
   33.5730   29.5090   34.5470 C   0  0  0  0  0  0  0  0  0  0  0  0
   34.9130   29.7800   34.3540 C   0  0  0  0  0  0  0  0  0  0  0  0
   35.5780   30.7610   35.0870 C   0  0  0  0  0  0  0  0  0  0  0  0
   34.8910   31.4950   36.0380 C   0  0  0  0  0  0  0  0  0  0  0  0
   35.2310   32.4860   36.8910 N   0  0  0  0  0  0  0  0  0  0  0  0
   34.1310   32.8050   37.5780 N   0  0  0  0  0  0  0  0  0  0  0  0
   33.1040   32.0430   37.1830 C   0  0  0  0  0  0  0  0  0  0  0  0
   33.5540   31.1870   36.1940 C   0  0  0  0  0  0  0  0  0  0  0  0
   32.8520   30.2370   35.5030 C   0  0  0  0  0  0  0  0  0  0  0  0
   33.0470   28.7520   33.9850 H   0  0  0  0  0  0  0  0  0  0  0  0
   36.6410   30.9740   34.9330 H   0  0  0  0  0  0  0  0  0  0  0  0
   36.2120   32.8820   36.9450 H   0  0  0  0  0  0  0  0  0  0  0  0
   32.1210   32.1510   37.6240 H   0  0  0  0  0  0  0  0  0  0  0  0
   31.8010   30.0490   35.6780 H   0  0  0  0  0  0  0  0  0  0  0  0
   38.2770   26.7940   32.3620 C   0  0  0  0  0  0  0  0  0  0  0  0
   39.3530   27.2550   31.9320 O   0  0  0  0  0  0  0  0  0  0  0  0
   36.9890   23.3830   32.4390 C   0  0  0  0  0  0  0  0  0  0  0  0
   37.7730   22.7660   33.4000 C   0  0  0  0  0  0  0  0  0  0  0  0
   38.7470   23.5050   34.0310 C   0  0  0  0  0  0  0  0  0  0  0  0
   38.8960   24.8050   33.6840 N   0  0  0  0  0  0  0  0  0  0  0  0
   38.1230   25.3940   32.7440 C   0  0  0  0  0  0  0  0  0  0  0  0
   37.1720   24.6750   32.1260 N   0  0  0  0  0  0  0  0  0  0  0  0
   36.2190   22.7950   31.9410 H   0  0  0  0  0  0  0  0  0  0  0  0
   37.5950   21.7140   33.6280 H   0  0  0  0  0  0  0  0  0  0  0  0
   39.5560   22.8760   35.0200 N   0  0  0  0  0  0  0  0  0  0  0  0
   40.7680   22.3640   34.7130 C   0  0  0  0  0  3  0  0  0  0  0  0
   41.5610   21.7460   35.6870 C   0  0  0  0  0  0  0  0  0  0  0  0
   42.5340   21.3360   35.4400 H   0  0  0  0  0  0  0  0  0  0  0  0
   41.0300   21.6960   36.9660 C   0  0  0  0  0  0  0  0  0  0  0  0
   41.7170   21.1430   37.8880 O   0  0  0  0  0  0  0  0  0  0  0  0
   39.8010   22.2240   37.2410 N   0  0  0  0  0  0  0  0  0  0  0  0
   39.0720   22.8080   36.2750 C   0  0  0  0  0  0  0  0  0  0  0  0
   37.9590   23.2560   36.6490 O   0  0  0  0  0  0  0  0  0  0  0  0
   39.4610   22.1460   38.2450 H   0  0  0  0  0  0  0  0  0  0  0  0
  1  5  1  0  0  0  0
  2  3  1  0  0  0  0
  2  1  2  0  0  0  0
  3  4  2  0  0  0  0
  4  5  1  0  0  0  0
  4  9  1  0  0  0  0
  6  2  1  0  0  0  0
  7  3  1  0  0  0  0
  8 16  1  0  0  0  0
  9  8  2  0  0  0  0
  9 10  1  0  0  0  0
 10 11  2  0  0  0  0
 11 15  1  0  0  0  0
 11 12  1  0  0  0  0
 12 19  1  0  0  0  0
 12 13  1  0  0  0  0
 14 13  2  0  0  0  0
 14 20  1  0  0  0  0
 15 14  1  0  0  0  0
 16 21  1  0  0  0  0
 16 15  2  0  0  0  0
 17  8  1  0  0  0  0
 18 10  1  0  0  0  0
 22  1  1  0  0  0  0
 22 28  1  0  0  0  0
 23 22  2  0  0  0  0
 24 25  1  0  0  0  0
 25 31  1  0  0  0  0
 25 26  2  0  0  0  0
 26 32  1  0  0  0  0
 27 26  1  0  0  0  0
 28 27  2  0  0  0  0
 29 24  2  0  0  0  0
 29 28  1  0  0  0  0
 30 24  1  0  0  0  0
 32 39  1  0  0  0  0
 33 32  1  0  0  0  0
 33 34  2  0  0  0  0
 34 36  1  0  0  0  0
 35 34  1  0  0  0  0
 36 38  1  0  0  0  0
 36 37  2  0  0  0  0
 38 41  1  0  0  0  0
 39 40  2  0  0  0  0
 39 38  1  0  0  0  0
M  END
>  <minimizedAffinity>
-6.81562853

$$$$

 OpenBabel03272508503D

 41 45  0  0  0  0  0  0  0  0999 V2000
   38.5180   26.1270   33.5050 C   0  0  0  0  0  0  0  0  0  0  0  0
   39.4780   27.0970   33.7020 C   0  0  0  0  0  0  0  0  0  0  0  0
   40.5140   26.4120   34.3280 C   0  0  0  0  0  0  0  0  0  0  0  0
   40.1540   25.1010   34.4790 C   0  0  0  0  0  0  0  0  0  0  0  0
   38.9380   24.9550   33.9710 O   0  0  0  0  0  0  0  0  0  0  0  0
   39.4790   28.1460   33.4530 H   0  0  0  0  0  0  0  0  0  0  0  0
   41.4590   26.7860   34.6610 H   0  0  0  0  0  0  0  0  0  0  0  0
   42.1880   23.7350   34.5730 C   0  0  0  0  0  0  0  0  0  0  0  0
   40.9410   24.0320   35.0860 C   0  0  0  0  0  0  0  0  0  0  0  0
   40.4090   23.3380   36.1720 C   0  0  0  0  0  0  0  0  0  0  0  0
   41.1370   22.3210   36.7630 C   0  0  0  0  0  0  0  0  0  0  0  0
   40.9140   21.4810   37.7980 N   0  0  0  0  0  0  0  0  0  0  0  0
   41.9920   20.7000   37.9070 N   0  0  0  0  0  0  0  0  0  0  0  0
   42.8920   21.0230   36.9700 C   0  0  0  0  0  0  0  0  0  0  0  0
   42.3770   22.0630   36.2150 C   0  0  0  0  0  0  0  0  0  0  0  0
   42.9470   22.7090   35.1530 C   0  0  0  0  0  0  0  0  0  0  0  0
   42.6100   24.2650   33.7340 H   0  0  0  0  0  0  0  0  0  0  0  0
   39.4190   23.5750   36.5780 H   0  0  0  0  0  0  0  0  0  0  0  0
   40.0220   21.5010   38.3690 H   0  0  0  0  0  0  0  0  0  0  0  0
   43.8370   20.5020   36.8940 H   0  0  0  0  0  0  0  0  0  0  0  0
   43.9270   22.4530   34.7740 H   0  0  0  0  0  0  0  0  0  0  0  0
   37.2200   26.3630   32.8690 C   0  0  0  0  0  0  0  0  0  0  0  0
   36.5810   25.3730   32.4600 O   0  0  0  0  0  0  0  0  0  0  0  0
   36.4040   29.5790   31.3570 C   0  0  0  0  0  0  0  0  0  0  0  0
   35.8060   30.2780   32.3940 C   0  0  0  0  0  0  0  0  0  0  0  0
   35.6750   29.6610   33.6160 C   0  0  0  0  0  0  0  0  0  0  0  0
   36.1370   28.3950   33.7530 N   0  0  0  0  0  0  0  0  0  0  0  0
   36.7190   27.7270   32.7330 C   0  0  0  0  0  0  0  0  0  0  0  0
   36.8480   28.3260   31.5380 N   0  0  0  0  0  0  0  0  0  0  0  0
   36.5060   30.0710   30.3910 H   0  0  0  0  0  0  0  0  0  0  0  0
   35.4570   31.2950   32.2100 H   0  0  0  0  0  0  0  0  0  0  0  0
   35.0600   30.3730   34.6850 N   0  0  0  0  0  0  0  0  0  0  0  0
   35.7810   31.1770   35.4980 C   0  0  0  0  0  3  0  0  0  0  0  0
   35.1760   31.8760   36.5490 C   0  0  0  0  0  0  0  0  0  0  0  0
   35.7540   32.5200   37.2010 H   0  0  0  0  0  0  0  0  0  0  0  0
   33.8100   31.6920   36.6970 C   0  0  0  0  0  0  0  0  0  0  0  0
   33.2130   32.3110   37.6410 O   0  0  0  0  0  0  0  0  0  0  0  0
   33.1120   30.8720   35.8570 N   0  0  0  0  0  0  0  0  0  0  0  0
   33.7340   30.2200   34.8610 C   0  0  0  0  0  0  0  0  0  0  0  0
   32.9880   29.4960   34.1550 O   0  0  0  0  0  0  0  0  0  0  0  0
   32.0680   30.7830   36.0350 H   0  0  0  0  0  0  0  0  0  0  0  0
  1  2  2  0  0  0  0
  1  5  1  0  0  0  0
  2  3  1  0  0  0  0
  3  4  2  0  0  0  0
  3  7  1  0  0  0  0
  4  9  1  0  0  0  0
  5  4  1  0  0  0  0
  6  2  1  0  0  0  0
  8  9  2  0  0  0  0
  8 16  1  0  0  0  0
  9 10  1  0  0  0  0
 10 18  1  0  0  0  0
 10 11  2  0  0  0  0
 11 12  1  0  0  0  0
 12 13  1  0  0  0  0
 12 19  1  0  0  0  0
 14 13  2  0  0  0  0
 15 11  1  0  0  0  0
 15 14  1  0  0  0  0
 16 15  2  0  0  0  0
 17  8  1  0  0  0  0
 20 14  1  0  0  0  0
 21 16  1  0  0  0  0
 22  1  1  0  0  0  0
 23 22  2  0  0  0  0
 24 29  2  0  0  0  0
 24 25  1  0  0  0  0
 25 26  2  0  0  0  0
 26 27  1  0  0  0  0
 26 32  1  0  0  0  0
 28 22  1  0  0  0  0
 28 27  2  0  0  0  0
 29 28  1  0  0  0  0
 30 24  1  0  0  0  0
 31 25  1  0  0  0  0
 32 39  1  0  0  0  0
 32 33  1  0  0  0  0
 33 34  2  0  0  0  0
 34 36  1  0  0  0  0
 34 35  1  0  0  0  0
 36 37  2  0  0  0  0
 38 41  1  0  0  0  0
 38 36  1  0  0  0  0
 39 38  1  0  0  0  0
 40 39  2  0  0  0  0
M  END
>  <minimizedAffinity>
-6.81098795

$$$$

 OpenBabel03272508503D

 41 45  0  0  0  0  0  0  0  0999 V2000
   36.7800   25.9690   31.6780 C   0  0  0  0  0  0  0  0  0  0  0  0
   35.4950   25.9340   31.1800 C   0  0  0  0  0  0  0  0  0  0  0  0
   35.1970   24.5760   31.1300 C   0  0  0  0  0  0  0  0  0  0  0  0
   36.2770   23.8680   31.5850 C   0  0  0  0  0  0  0  0  0  0  0  0
   37.2230   24.7380   31.9100 O   0  0  0  0  0  0  0  0  0  0  0  0
   34.8330   26.7320   30.8840 H   0  0  0  0  0  0  0  0  0  0  0  0
   34.2990   24.0990   30.8040 H   0  0  0  0  0  0  0  0  0  0  0  0
   37.6510   21.8410   31.7130 C   0  0  0  0  0  0  0  0  0  0  0  0
   36.3970   22.4170   31.7010 C   0  0  0  0  0  0  0  0  0  0  0  0
   35.2350   21.6530   31.7960 C   0  0  0  0  0  0  0  0  0  0  0  0
   35.3230   20.2760   31.9060 C   0  0  0  0  0  0  0  0  0  0  0  0
   34.4180   19.2780   32.0130 N   0  0  0  0  0  0  0  0  0  0  0  0
   35.1030   18.1340   32.0870 N   0  0  0  0  0  0  0  0  0  0  0  0
   36.4180   18.3810   32.0300 C   0  0  0  0  0  0  0  0  0  0  0  0
   36.5980   19.7480   31.9140 C   0  0  0  0  0  0  0  0  0  0  0  0
   37.7700   20.4480   31.8230 C   0  0  0  0  0  0  0  0  0  0  0  0
   38.5570   22.4220   31.6390 H   0  0  0  0  0  0  0  0  0  0  0  0
   34.2400   22.1120   31.7870 H   0  0  0  0  0  0  0  0  0  0  0  0
   33.3740   19.4540   32.0290 H   0  0  0  0  0  0  0  0  0  0  0  0
   37.1430   17.5790   32.0760 H   0  0  0  0  0  0  0  0  0  0  0  0
   38.7390   19.9670   31.8350 H   0  0  0  0  0  0  0  0  0  0  0  0
   37.5440   27.1960   31.9150 C   0  0  0  0  0  0  0  0  0  0  0  0
   38.7780   27.0960   32.0630 O   0  0  0  0  0  0  0  0  0  0  0  0
   36.1540   30.3920   30.8440 C   0  0  0  0  0  0  0  0  0  0  0  0
   35.5690   30.8900   31.9980 C   0  0  0  0  0  0  0  0  0  0  0  0
   35.6430   30.1430   33.1500 C   0  0  0  0  0  0  0  0  0  0  0  0
   36.2840   28.9510   33.1060 N   0  0  0  0  0  0  0  0  0  0  0  0
   36.8500   28.4790   31.9740 C   0  0  0  0  0  0  0  0  0  0  0  0
   36.7800   29.2060   30.8470 N   0  0  0  0  0  0  0  0  0  0  0  0
   36.0940   30.9870   29.9330 H   0  0  0  0  0  0  0  0  0  0  0  0
   35.0690   31.8590   31.9580 H   0  0  0  0  0  0  0  0  0  0  0  0
   35.0430   30.6490   34.3390 N   0  0  0  0  0  0  0  0  0  0  0  0
   35.7310   31.4470   35.1860 C   0  0  0  0  0  3  0  0  0  0  0  0
   35.1400   31.9430   36.3540 C   0  0  0  0  0  0  0  0  0  0  0  0
   35.6920   32.5830   37.0330 H   0  0  0  0  0  0  0  0  0  0  0  0
   33.8250   31.5680   36.5800 C   0  0  0  0  0  0  0  0  0  0  0  0
   33.2440   31.9970   37.6330 O   0  0  0  0  0  0  0  0  0  0  0  0
   33.1610   30.7600   35.7030 N   0  0  0  0  0  0  0  0  0  0  0  0
   33.7660   30.3060   34.5930 C   0  0  0  0  0  0  0  0  0  0  0  0
   33.0540   29.5710   33.8630 O   0  0  0  0  0  0  0  0  0  0  0  0
   32.1550   30.5160   35.9460 H   0  0  0  0  0  0  0  0  0  0  0  0
  1  5  1  0  0  0  0
  1 22  1  0  0  0  0
  2  1  2  0  0  0  0
  3  2  1  0  0  0  0
  3  4  2  0  0  0  0
  4  9  1  0  0  0  0
  4  5  1  0  0  0  0
  6  2  1  0  0  0  0
  7  3  1  0  0  0  0
  8 16  1  0  0  0  0
  9  8  2  0  0  0  0
  9 10  1  0  0  0  0
 10 11  2  0  0  0  0
 11 15  1  0  0  0  0
 11 12  1  0  0  0  0
 12 19  1  0  0  0  0
 12 13  1  0  0  0  0
 14 20  1  0  0  0  0
 14 13  2  0  0  0  0
 15 14  1  0  0  0  0
 16 21  1  0  0  0  0
 16 15  2  0  0  0  0
 17  8  1  0  0  0  0
 18 10  1  0  0  0  0
 22 28  1  0  0  0  0
 22 23  2  0  0  0  0
 24 29  2  0  0  0  0
 24 25  1  0  0  0  0
 25 26  2  0  0  0  0
 26 32  1  0  0  0  0
 27 26  1  0  0  0  0
 28 27  2  0  0  0  0
 29 28  1  0  0  0  0
 30 24  1  0  0  0  0
 31 25  1  0  0  0  0
 32 39  1  0  0  0  0
 32 33  1  0  0  0  0
 33 34  2  0  0  0  0
 34 36  1  0  0  0  0
 34 35  1  0  0  0  0
 36 37  2  0  0  0  0
 38 41  1  0  0  0  0
 38 36  1  0  0  0  0
 39 38  1  0  0  0  0
 40 39  2  0  0  0  0
M  END
>  <minimizedAffinity>
-6.80349207

$$$$

 OpenBabel03272508503D

 41 45  0  0  0  0  0  0  0  0999 V2000
   35.9810   27.1540   31.3990 C   0  0  0  0  0  0  0  0  0  0  0  0
   36.6630   27.8350   30.4130 C   0  0  0  0  0  0  0  0  0  0  0  0
   36.7170   29.1400   30.8900 C   0  0  0  0  0  0  0  0  0  0  0  0
   36.0870   29.1960   32.1040 C   0  0  0  0  0  0  0  0  0  0  0  0
   35.6500   27.9770   32.3890 O   0  0  0  0  0  0  0  0  0  0  0  0
   37.0770   27.4910   29.4790 H   0  0  0  0  0  0  0  0  0  0  0  0
   37.1590   30.0010   30.4370 H   0  0  0  0  0  0  0  0  0  0  0  0
   35.9320   31.6270   32.3860 C   0  0  0  0  0  0  0  0  0  0  0  0
   35.9100   30.3700   32.9550 C   0  0  0  0  0  0  0  0  0  0  0  0
   35.7240   30.1850   34.3240 C   0  0  0  0  0  0  0  0  0  0  0  0
   35.5550   31.2820   35.1500 C   0  0  0  0  0  0  0  0  0  0  0  0
   35.3590   31.4410   36.4780 N   0  0  0  0  0  0  0  0  0  0  0  0
   35.2650   32.7550   36.7040 N   0  0  0  0  0  0  0  0  0  0  0  0
   35.3970   33.4310   35.5570 C   0  0  0  0  0  0  0  0  0  0  0  0
   35.5840   32.5170   34.5340 C   0  0  0  0  0  0  0  0  0  0  0  0
   35.7640   32.7560   33.1990 C   0  0  0  0  0  0  0  0  0  0  0  0
   36.0750   31.7820   31.3280 H   0  0  0  0  0  0  0  0  0  0  0  0
   35.7060   29.1860   34.7740 H   0  0  0  0  0  0  0  0  0  0  0  0
   35.3010   30.6240   37.1490 H   0  0  0  0  0  0  0  0  0  0  0  0
   35.3490   34.5110   35.5320 H   0  0  0  0  0  0  0  0  0  0  0  0
   35.7760   33.7550   32.7830 H   0  0  0  0  0  0  0  0  0  0  0  0
   35.6690   25.7240   31.3550 C   0  0  0  0  0  0  0  0  0  0  0  0
   34.4860   25.3900   31.1450 O   0  0  0  0  0  0  0  0  0  0  0  0
   38.1780   23.1860   30.6080 C   0  0  0  0  0  0  0  0  0  0  0  0
   38.7240   22.9000   31.8480 C   0  0  0  0  0  0  0  0  0  0  0  0
   38.2440   23.5690   32.9500 C   0  0  0  0  0  0  0  0  0  0  0  0
   37.2570   24.4780   32.7730 N   0  0  0  0  0  0  0  0  0  0  0  0
   36.7330   24.7450   31.5570 C   0  0  0  0  0  0  0  0  0  0  0  0
   37.1990   24.0950   30.4790 N   0  0  0  0  0  0  0  0  0  0  0  0
   38.5600   22.6540   29.7370 H   0  0  0  0  0  0  0  0  0  0  0  0
   39.5180   22.1540   31.9150 H   0  0  0  0  0  0  0  0  0  0  0  0
   38.8020   23.2800   34.2290 N   0  0  0  0  0  0  0  0  0  0  0  0
   39.9050   23.9220   34.6750 C   0  0  0  0  0  3  0  0  0  0  0  0
   40.4510   23.6360   35.9310 C   0  0  0  0  0  0  0  0  0  0  0  0
   41.3360   24.1510   36.2880 H   0  0  0  0  0  0  0  0  0  0  0  0
   39.7970   22.6660   36.6750 C   0  0  0  0  0  0  0  0  0  0  0  0
   40.2590   22.3720   37.8280 O   0  0  0  0  0  0  0  0  0  0  0  0
   38.6860   22.0370   36.1930 N   0  0  0  0  0  0  0  0  0  0  0  0
   38.1940   22.3430   34.9810 C   0  0  0  0  0  0  0  0  0  0  0  0
   37.1680   21.6980   34.6470 O   0  0  0  0  0  0  0  0  0  0  0  0
   38.2410   21.3050   36.8230 H   0  0  0  0  0  0  0  0  0  0  0  0
  1  5  1  0  0  0  0
  2  3  1  0  0  0  0
  2  1  2  0  0  0  0
  3  4  2  0  0  0  0
  4  5  1  0  0  0  0
  4  9  1  0  0  0  0
  6  2  1  0  0  0  0
  7  3  1  0  0  0  0
  8  9  2  0  0  0  0
  8 16  1  0  0  0  0
  9 10  1  0  0  0  0
 10 18  1  0  0  0  0
 10 11  2  0  0  0  0
 11 12  1  0  0  0  0
 12 13  1  0  0  0  0
 12 19  1  0  0  0  0
 14 13  2  0  0  0  0
 15 11  1  0  0  0  0
 15 14  1  0  0  0  0
 16 15  2  0  0  0  0
 17  8  1  0  0  0  0
 20 14  1  0  0  0  0
 21 16  1  0  0  0  0
 22  1  1  0  0  0  0
 22 28  1  0  0  0  0
 23 22  2  0  0  0  0
 24 25  1  0  0  0  0
 25 31  1  0  0  0  0
 25 26  2  0  0  0  0
 26 32  1  0  0  0  0
 27 26  1  0  0  0  0
 28 27  2  0  0  0  0
 29 24  2  0  0  0  0
 29 28  1  0  0  0  0
 30 24  1  0  0  0  0
 32 33  1  0  0  0  0
 32 39  1  0  0  0  0
 33 34  2  0  0  0  0
 34 35  1  0  0  0  0
 34 36  1  0  0  0  0
 36 37  2  0  0  0  0
 38 36  1  0  0  0  0
 38 41  1  0  0  0  0
 39 38  1  0  0  0  0
 40 39  2  0  0  0  0
M  END
>  <minimizedAffinity>
-6.74892092

$$$$

 OpenBabel03272508503D

 41 45  0  0  0  0  0  0  0  0999 V2000
   38.4840   25.3530   35.8250 C   0  0  0  0  0  0  0  0  0  0  0  0
   37.7780   24.6310   36.7630 C   0  0  0  0  0  0  0  0  0  0  0  0
   38.5520   23.4900   36.9520 C   0  0  0  0  0  0  0  0  0  0  0  0
   39.6570   23.5650   36.1470 C   0  0  0  0  0  0  0  0  0  0  0  0
   39.5900   24.7050   35.4750 O   0  0  0  0  0  0  0  0  0  0  0  0
   36.8480   24.8480   37.2640 H   0  0  0  0  0  0  0  0  0  0  0  0
   38.3730   22.6580   37.5980 H   0  0  0  0  0  0  0  0  0  0  0  0
   41.3950   22.4490   34.8250 C   0  0  0  0  0  0  0  0  0  0  0  0
   40.7310   22.5830   36.0280 C   0  0  0  0  0  0  0  0  0  0  0  0
   41.0550   21.8040   37.1380 C   0  0  0  0  0  0  0  0  0  0  0  0
   42.0690   20.8660   37.0480 C   0  0  0  0  0  0  0  0  0  0  0  0
   42.6130   19.9810   37.9120 N   0  0  0  0  0  0  0  0  0  0  0  0
   43.5760   19.3310   37.2520 N   0  0  0  0  0  0  0  0  0  0  0  0
   43.6570   19.7820   35.9940 C   0  0  0  0  0  0  0  0  0  0  0  0
   42.7030   20.7710   35.8260 C   0  0  0  0  0  0  0  0  0  0  0  0
   42.4260   21.5070   34.7070 C   0  0  0  0  0  0  0  0  0  0  0  0
   41.1520   23.0460   33.9600 H   0  0  0  0  0  0  0  0  0  0  0  0
   40.5280   21.9110   38.0920 H   0  0  0  0  0  0  0  0  0  0  0  0
   42.2810   19.8800   38.9130 H   0  0  0  0  0  0  0  0  0  0  0  0
   44.3800   19.3800   35.2970 H   0  0  0  0  0  0  0  0  0  0  0  0
   42.9650   21.3790   33.7770 H   0  0  0  0  0  0  0  0  0  0  0  0
   38.0670   26.6520   35.2930 C   0  0  0  0  0  0  0  0  0  0  0  0
   38.3770   27.6740   35.9370 O   0  0  0  0  0  0  0  0  0  0  0  0
   36.6090   25.6190   32.1140 C   0  0  0  0  0  0  0  0  0  0  0  0
   35.9160   26.7450   31.6980 C   0  0  0  0  0  0  0  0  0  0  0  0
   35.9390   27.8650   32.4950 C   0  0  0  0  0  0  0  0  0  0  0  0
   36.6390   27.8180   33.6540 N   0  0  0  0  0  0  0  0  0  0  0  0
   37.3100   26.7130   34.0460 C   0  0  0  0  0  0  0  0  0  0  0  0
   37.2900   25.6180   33.2700 N   0  0  0  0  0  0  0  0  0  0  0  0
   36.5890   24.7330   31.4800 H   0  0  0  0  0  0  0  0  0  0  0  0
   35.3740   26.7100   30.7520 H   0  0  0  0  0  0  0  0  0  0  0  0
   35.2290   29.0260   32.0730 N   0  0  0  0  0  0  0  0  0  0  0  0
   34.0380   29.3570   32.6190 C   0  0  0  0  0  3  0  0  0  0  0  0
   33.3420   30.4970   32.2030 C   0  0  0  0  0  0  0  0  0  0  0  0
   32.3870   30.7630   32.6410 H   0  0  0  0  0  0  0  0  0  0  0  0
   33.9460   31.2520   31.2100 C   0  0  0  0  0  0  0  0  0  0  0  0
   33.3490   32.3030   30.7980 O   0  0  0  0  0  0  0  0  0  0  0  0
   35.1500   30.8880   30.6800 N   0  0  0  0  0  0  0  0  0  0  0  0
   35.7840   29.7850   31.1090 C   0  0  0  0  0  0  0  0  0  0  0  0
   36.8850   29.5530   30.5480 O   0  0  0  0  0  0  0  0  0  0  0  0
   35.5490   31.5180   29.9220 H   0  0  0  0  0  0  0  0  0  0  0  0
  1  2  2  0  0  0  0
  2  3  1  0  0  0  0
  2  6  1  0  0  0  0
  3  7  1  0  0  0  0
  4  3  2  0  0  0  0
  5  1  1  0  0  0  0
  5  4  1  0  0  0  0
  8  9  1  0  0  0  0
  9  4  1  0  0  0  0
  9 10  2  0  0  0  0
 10 18  1  0  0  0  0
 11 10  1  0  0  0  0
 11 12  1  0  0  0  0
 12 19  1  0  0  0  0
 13 12  1  0  0  0  0
 14 13  2  0  0  0  0
 15 14  1  0  0  0  0
 15 11  2  0  0  0  0
 16  8  2  0  0  0  0
 16 15  1  0  0  0  0
 17  8  1  0  0  0  0
 20 14  1  0  0  0  0
 21 16  1  0  0  0  0
 22  1  1  0  0  0  0
 22 23  2  0  0  0  0
 24 29  1  0  0  0  0
 25 24  2  0  0  0  0
 25 26  1  0  0  0  0
 26 27  2  0  0  0  0
 27 28  1  0  0  0  0
 28 22  1  0  0  0  0
 29 28  2  0  0  0  0
 30 24  1  0  0  0  0
 31 25  1  0  0  0  0
 32 26  1  0  0  0  0
 32 33  1  0  0  0  0
 34 33  2  0  0  0  0
 34 35  1  0  0  0  0
 36 34  1  0  0  0  0
 37 36  2  0  0  0  0
 38 39  1  0  0  0  0
 38 36  1  0  0  0  0
 39 32  1  0  0  0  0
 40 39  2  0  0  0  0
 41 38  1  0  0  0  0
M  END
>  <minimizedAffinity>
-6.74083757

$$$$

 OpenBabel03272508503D

 41 45  0  0  0  0  0  0  0  0999 V2000
   37.2840   28.3500   31.5220 C   0  0  0  0  0  0  0  0  0  0  0  0
   36.6120   29.0690   30.5550 C   0  0  0  0  0  0  0  0  0  0  0  0
   35.6620   29.7840   31.2760 C   0  0  0  0  0  0  0  0  0  0  0  0
   35.7910   29.4800   32.6050 C   0  0  0  0  0  0  0  0  0  0  0  0
   36.7830   28.6080   32.7250 O   0  0  0  0  0  0  0  0  0  0  0  0
   36.7470   29.1070   29.4860 H   0  0  0  0  0  0  0  0  0  0  0  0
   34.9260   30.4700   30.9180 H   0  0  0  0  0  0  0  0  0  0  0  0
   33.6450   29.7280   33.7640 C   0  0  0  0  0  0  0  0  0  0  0  0
   34.9960   30.0040   33.7130 C   0  0  0  0  0  0  0  0  0  0  0  0
   35.6290   30.7710   34.6900 C   0  0  0  0  0  0  0  0  0  0  0  0
   34.8960   31.2780   35.7480 C   0  0  0  0  0  0  0  0  0  0  0  0
   35.1980   32.0340   36.8280 N   0  0  0  0  0  0  0  0  0  0  0  0
   34.0630   32.2110   37.5100 N   0  0  0  0  0  0  0  0  0  0  0  0
   33.0520   31.5870   36.8930 C   0  0  0  0  0  0  0  0  0  0  0  0
   33.5500   30.9750   35.7560 C   0  0  0  0  0  0  0  0  0  0  0  0
   32.8780   30.2300   34.8250 C   0  0  0  0  0  0  0  0  0  0  0  0
   33.1440   29.1370   33.0140 H   0  0  0  0  0  0  0  0  0  0  0  0
   36.7020   30.9880   34.6470 H   0  0  0  0  0  0  0  0  0  0  0  0
   36.1780   32.3830   37.0250 H   0  0  0  0  0  0  0  0  0  0  0  0
   32.0470   31.6120   37.2930 H   0  0  0  0  0  0  0  0  0  0  0  0
   31.8170   30.0320   34.8940 H   0  0  0  0  0  0  0  0  0  0  0  0
   38.3930   27.4330   31.2520 C   0  0  0  0  0  0  0  0  0  0  0  0
   38.5580   27.0460   30.0780 O   0  0  0  0  0  0  0  0  0  0  0  0
   41.3870   27.0180   33.2920 C   0  0  0  0  0  0  0  0  0  0  0  0
   40.9460   26.2460   34.3550 C   0  0  0  0  0  0  0  0  0  0  0  0
   39.6260   25.8610   34.3870 C   0  0  0  0  0  0  0  0  0  0  0  0
   38.8140   26.2530   33.3770 N   0  0  0  0  0  0  0  0  0  0  0  0
   39.2590   27.0050   32.3460 C   0  0  0  0  0  0  0  0  0  0  0  0
   40.5470   27.3840   32.3120 N   0  0  0  0  0  0  0  0  0  0  0  0
   42.4330   27.3220   33.2700 H   0  0  0  0  0  0  0  0  0  0  0  0
   41.6570   25.9680   35.1340 H   0  0  0  0  0  0  0  0  0  0  0  0
   39.1660   25.0670   35.4770 N   0  0  0  0  0  0  0  0  0  0  0  0
   39.4240   23.7420   35.5380 C   0  0  0  0  0  3  0  0  0  0  0  0
   38.9710   22.9640   36.6100 C   0  0  0  0  0  0  0  0  0  0  0  0
   39.1790   21.9010   36.6590 H   0  0  0  0  0  0  0  0  0  0  0  0
   38.2530   23.6330   37.5890 C   0  0  0  0  0  0  0  0  0  0  0  0
   37.8190   22.9650   38.5870 O   0  0  0  0  0  0  0  0  0  0  0  0
   38.0100   24.9730   37.4950 N   0  0  0  0  0  0  0  0  0  0  0  0
   38.4640   25.6820   36.4480 C   0  0  0  0  0  0  0  0  0  0  0  0
   38.1790   26.9060   36.4720 O   0  0  0  0  0  0  0  0  0  0  0  0
   37.4520   25.4140   38.2850 H   0  0  0  0  0  0  0  0  0  0  0  0
  1  5  1  0  0  0  0
  2  3  1  0  0  0  0
  2  1  2  0  0  0  0
  3  4  2  0  0  0  0
  4  5  1  0  0  0  0
  4  9  1  0  0  0  0
  6  2  1  0  0  0  0
  7  3  1  0  0  0  0
  8 16  1  0  0  0  0
  9  8  2  0  0  0  0
  9 10  1  0  0  0  0
 10 11  2  0  0  0  0
 11 15  1  0  0  0  0
 11 12  1  0  0  0  0
 12 19  1  0  0  0  0
 12 13  1  0  0  0  0
 14 20  1  0  0  0  0
 14 13  2  0  0  0  0
 15 14  1  0  0  0  0
 16 21  1  0  0  0  0
 16 15  2  0  0  0  0
 17  8  1  0  0  0  0
 18 10  1  0  0  0  0
 22  1  1  0  0  0  0
 22 28  1  0  0  0  0
 23 22  2  0  0  0  0
 24 25  1  0  0  0  0
 25 26  2  0  0  0  0
 25 31  1  0  0  0  0
 26 32  1  0  0  0  0
 27 26  1  0  0  0  0
 28 27  2  0  0  0  0
 29 28  1  0  0  0  0
 29 24  2  0  0  0  0
 30 24  1  0  0  0  0
 32 33  1  0  0  0  0
 32 39  1  0  0  0  0
 33 34  2  0  0  0  0
 34 35  1  0  0  0  0
 34 36  1  0  0  0  0
 36 37  2  0  0  0  0
 38 36  1  0  0  0  0
 38 41  1  0  0  0  0
 39 40  2  0  0  0  0
 39 38  1  0  0  0  0
M  END
>  <minimizedAffinity>
-6.70529795

$$$$

 OpenBabel03272508503D

 41 45  0  0  0  0  0  0  0  0999 V2000
   35.9190   27.9200   31.6650 C   0  0  0  0  0  0  0  0  0  0  0  0
   36.3100   28.9640   30.8530 C   0  0  0  0  0  0  0  0  0  0  0  0
   35.8620   30.0940   31.5290 C   0  0  0  0  0  0  0  0  0  0  0  0
   35.2390   29.7020   32.6840 C   0  0  0  0  0  0  0  0  0  0  0  0
   35.2890   28.3790   32.7410 O   0  0  0  0  0  0  0  0  0  0  0  0
   36.8370   28.9640   29.9120 H   0  0  0  0  0  0  0  0  0  0  0  0
   35.9540   31.1210   31.2520 H   0  0  0  0  0  0  0  0  0  0  0  0
   33.3710   31.0960   33.4480 C   0  0  0  0  0  0  0  0  0  0  0  0
   34.6210   30.5620   33.6900 C   0  0  0  0  0  0  0  0  0  0  0  0
   35.3150   30.8200   34.8710 C   0  0  0  0  0  0  0  0  0  0  0  0
   34.7500   31.6320   35.8380 C   0  0  0  0  0  0  0  0  0  0  0  0
   35.1470   32.0650   37.0550 N   0  0  0  0  0  0  0  0  0  0  0  0
   34.1680   32.8390   37.5330 N   0  0  0  0  0  0  0  0  0  0  0  0
   33.1620   32.9060   36.6530 C   0  0  0  0  0  0  0  0  0  0  0  0
   33.5000   32.1410   35.5500 C   0  0  0  0  0  0  0  0  0  0  0  0
   32.7760   31.9220   34.4100 C   0  0  0  0  0  0  0  0  0  0  0  0
   32.8250   30.9040   32.5370 H   0  0  0  0  0  0  0  0  0  0  0  0
   36.3060   30.3950   35.0620 H   0  0  0  0  0  0  0  0  0  0  0  0
   36.0790   31.7970   37.4810 H   0  0  0  0  0  0  0  0  0  0  0  0
   32.2720   33.4860   36.8590 H   0  0  0  0  0  0  0  0  0  0  0  0
   31.7970   32.3560   34.2500 H   0  0  0  0  0  0  0  0  0  0  0  0
   36.1690   26.5070   31.3750 C   0  0  0  0  0  0  0  0  0  0  0  0
   35.4200   25.9370   30.5580 O   0  0  0  0  0  0  0  0  0  0  0  0
   39.4430   24.9930   31.9100 C   0  0  0  0  0  0  0  0  0  0  0  0
   39.3740   24.5320   33.2150 C   0  0  0  0  0  0  0  0  0  0  0  0
   38.2130   24.7330   33.9250 C   0  0  0  0  0  0  0  0  0  0  0  0
   37.1870   25.3730   33.3150 N   0  0  0  0  0  0  0  0  0  0  0  0
   37.2690   25.8150   32.0410 C   0  0  0  0  0  0  0  0  0  0  0  0
   38.4010   25.6210   31.3460 N   0  0  0  0  0  0  0  0  0  0  0  0
   40.3640   24.8320   31.3510 H   0  0  0  0  0  0  0  0  0  0  0  0
   40.2410   24.0250   33.6410 H   0  0  0  0  0  0  0  0  0  0  0  0
   38.1360   24.2620   35.2670 N   0  0  0  0  0  0  0  0  0  0  0  0
   38.2310   25.1100   36.3150 C   0  0  0  0  0  3  0  0  0  0  0  0
   38.1550   24.6460   37.6330 C   0  0  0  0  0  0  0  0  0  0  0  0
   38.2320   25.3260   38.4730 H   0  0  0  0  0  0  0  0  0  0  0  0
   37.9790   23.2800   37.7890 C   0  0  0  0  0  0  0  0  0  0  0  0
   37.9030   22.8090   38.9730 O   0  0  0  0  0  0  0  0  0  0  0  0
   37.8870   22.4510   36.7070 N   0  0  0  0  0  0  0  0  0  0  0  0
   37.9640   22.9400   35.4590 C   0  0  0  0  0  0  0  0  0  0  0  0
   37.8660   22.0820   34.5460 O   0  0  0  0  0  0  0  0  0  0  0  0
   37.7520   21.4160   36.9090 H   0  0  0  0  0  0  0  0  0  0  0  0
  1  5  1  0  0  0  0
  2  3  1  0  0  0  0
  2  1  2  0  0  0  0
  3  4  2  0  0  0  0
  4  5  1  0  0  0  0
  4  9  1  0  0  0  0
  6  2  1  0  0  0  0
  7  3  1  0  0  0  0
  8  9  2  0  0  0  0
  8 16  1  0  0  0  0
  9 10  1  0  0  0  0
 10 18  1  0  0  0  0
 10 11  2  0  0  0  0
 11 12  1  0  0  0  0
 12 19  1  0  0  0  0
 12 13  1  0  0  0  0
 14 20  1  0  0  0  0
 14 13  2  0  0  0  0
 15 11  1  0  0  0  0
 15 14  1  0  0  0  0
 16 15  2  0  0  0  0
 17  8  1  0  0  0  0
 21 16  1  0  0  0  0
 22  1  1  0  0  0  0
 22 28  1  0  0  0  0
 23 22  2  0  0  0  0
 24 25  1  0  0  0  0
 25 31  1  0  0  0  0
 25 26  2  0  0  0  0
 26 32  1  0  0  0  0
 27 26  1  0  0  0  0
 28 27  2  0  0  0  0
 29 24  2  0  0  0  0
 29 28  1  0  0  0  0
 30 24  1  0  0  0  0
 32 39  1  0  0  0  0
 32 33  1  0  0  0  0
 33 34  2  0  0  0  0
 34 36  1  0  0  0  0
 34 35  1  0  0  0  0
 36 37  2  0  0  0  0
 38 41  1  0  0  0  0
 38 36  1  0  0  0  0
 39 38  1  0  0  0  0
 40 39  2  0  0  0  0
M  END
>  <minimizedAffinity>
-6.67284107

$$$$
