
 OpenBabel03262520123D

 43 45  0  0  0  0  0  0  0  0999 V2000
   34.9410   29.5160   48.5550 C   0  0  0  0  0  0  0  0  0  0  0  0
   35.2940   30.2430   49.3380 H   0  0  0  0  0  0  0  0  0  0  0  0
   35.4260   28.5420   48.8410 H   0  0  0  0  0  0  0  0  0  0  0  0
   37.8570   30.7420   48.6100 Br  0  0  0  0  0  0  0  0  0  0  0  0
   36.7410   30.4530   47.0710 C   0  0  0  0  0  0  0  0  0  0  0  0
   37.1870   30.7890   45.8200 C   0  0  0  0  0  0  0  0  0  0  0  0
   36.3480   30.5720   44.7600 C   0  0  0  0  0  0  0  0  0  0  0  0
   35.0800   30.0280   44.9110 C   0  0  0  0  0  0  0  0  0  0  0  0
   34.6620   29.6970   46.2080 C   0  0  0  0  0  0  0  0  0  0  0  0
   35.4980   29.9140   47.2670 C   0  0  0  0  0  0  0  0  0  0  0  0
   36.7540   30.8590   43.7760 H   0  0  0  0  0  0  0  0  0  0  0  0
   34.5450   29.9210   43.9820 H   0  0  0  0  0  0  0  0  0  0  0  0
   33.6750   29.3160   46.1130 H   0  0  0  0  0  0  0  0  0  0  0  0
   39.7840   33.2960   45.2860 C   0  0  0  0  0  0  0  0  0  0  0  0
   40.9840   32.5330   45.2230 C   0  0  0  0  0  0  0  0  0  0  0  0
   40.8640   31.1650   45.3680 C   0  0  0  0  0  0  0  0  0  0  0  0
   39.6250   30.5960   45.5630 N   0  0  0  0  0  0  0  0  0  0  0  0
   38.5200   31.3690   45.6130 C   0  0  0  0  0  0  0  0  0  0  0  0
   38.6140   32.6990   45.4750 N   0  0  0  0  0  0  0  0  0  0  0  0
   39.9050   34.3540   45.1700 H   0  0  0  0  0  0  0  0  0  0  0  0
   41.9500   33.0080   45.0680 H   0  0  0  0  0  0  0  0  0  0  0  0
   41.7530   30.5490   45.3260 H   0  0  0  0  0  0  0  0  0  0  0  0
   33.4700   29.3230   48.6290 C   0  0  0  0  0  0  0  0  0  0  0  0
   32.9110   29.9130   47.9280 H   0  0  0  0  0  0  0  0  0  0  0  0
   33.1960   29.7940   49.6380 H   0  0  0  0  0  0  0  0  0  0  0  0
   33.1890   27.9460   48.8070 N   0  0  0  0  0  0  0  0  0  0  0  0
   33.0220   27.6310   49.7790 H   0  0  0  0  0  0  0  0  0  0  0  0
   32.3410   27.3210   47.8620 C   0  0  0  0  0  0  0  0  0  0  0  0
   31.9380   28.0630   47.1390 H   0  0  0  0  0  0  0  0  0  0  0  0
   32.9450   26.6180   47.2630 H   0  0  0  0  0  0  0  0  0  0  0  0
   31.2170   26.6570   48.5920 C   0  0  0  0  0  0  0  0  0  0  0  0
   30.8010   25.7840   48.0420 H   0  0  0  0  0  0  0  0  0  0  0  0
   31.2720   26.5310   49.6560 H   0  0  0  0  0  0  0  0  0  0  0  0
   30.1010   27.6520   48.4680 N   0  0  0  0  0  0  0  0  0  0  0  0
   29.9380   28.3500   47.3060 C   0  0  0  0  0  0  0  0  0  0  0  0
   28.9180   29.2690   47.1750 C   0  0  0  0  0  0  0  0  0  0  0  0
   28.7860   29.8210   46.2630 H   0  0  0  0  0  0  0  0  0  0  0  0
   28.0510   29.4900   48.2230 C   0  0  0  0  0  0  0  0  0  0  0  0
   27.0990   30.3080   48.1810 O   0  0  0  0  0  0  0  0  0  0  0  0
   28.2510   28.7790   49.3460 N   0  0  0  0  0  0  0  0  0  0  0  0
   29.2370   27.8780   49.5000 C   0  0  0  0  0  0  0  0  0  0  0  0
   29.4590   27.1990   50.5200 O   0  0  0  0  0  0  0  0  0  0  0  0
   27.6560   28.8590   50.2120 H   0  0  0  0  0  0  0  0  0  0  0  0
  1 23  1  0  0  0  0
  1  3  1  0  0  0  0
  1  2  1  0  0  0  0
  5 10  1  0  0  0  0
  5  4  1  0  0  0  0
  6  5  2  0  0  0  0
  7  8  2  0  0  0  0
  7  6  1  0  0  0  0
  8  9  1  0  0  0  0
  9 10  2  0  0  0  0
 10  1  1  0  0  0  0
 11  7  1  0  0  0  0
 12  8  1  0  0  0  0
 13  9  1  0  0  0  0
 14 19  1  0  0  0  0
 15 14  2  0  0  0  0
 15 16  1  0  0  0  0
 16 17  2  0  0  0  0
 17 18  1  0  0  0  0
 18  6  1  0  0  0  0
 19 18  2  0  0  0  0
 20 14  1  0  0  0  0
 21 15  1  0  0  0  0
 22 16  1  0  0  0  0
 23 26  1  0  0  0  0
 23 25  1  0  0  0  0
 24 23  1  0  0  0  0
 26 27  1  0  0  0  0
 28 31  1  0  0  0  0
 28 26  1  0  0  0  0
 29 28  1  0  0  0  0
 30 28  1  0  0  0  0
 31 33  1  0  0  0  0
 32 31  1  0  0  0  0
 34 31  1  0  0  0  0
 34 41  1  0  0  0  0
 35 34  1  0  0  0  0
 36 35  2  0  0  0  0
 36 38  1  0  0  0  0
 37 36  1  0  0  0  0
 38 40  1  0  0  0  0
 39 38  2  0  0  0  0
 40 41  1  0  0  0  0
 40 43  1  0  0  0  0
 41 42  2  0  0  0  0
M  END
>  <minimizedAffinity>
-5.55007696

>  <minimizedRMSD>
2.90324712

$$$$
