
 OpenBabel03272508053D

 36 39  0  0  0  0  0  0  0  0999 V2000
   38.9040   30.8930   45.7720 C   0  0  0  0  0  0  0  0  0  0  0  0
   40.1000   31.5510   46.0250 C   0  0  0  0  0  0  0  0  0  0  0  0
   40.9280   31.4870   44.9160 C   0  0  0  0  0  0  0  0  0  0  0  0
   40.1880   30.7780   44.0160 N   0  0  0  0  0  0  0  0  0  0  0  0
   39.0220   30.4400   44.5200 N   0  0  0  0  0  0  0  0  0  0  0  0
   40.3640   32.0470   46.9450 H   0  0  0  0  0  0  0  0  0  0  0  0
   41.9140   31.8730   44.7380 H   0  0  0  0  0  0  0  0  0  0  0  0
   37.7920   30.7470   46.6840 C   0  0  0  0  0  0  0  0  0  0  0  0
   38.0100   30.9680   48.0720 C   0  0  0  0  0  0  0  0  0  0  0  0
   36.9230   30.8220   48.9240 C   0  0  0  0  0  0  0  0  0  0  0  0
   35.7240   30.4780   48.3950 N   0  0  0  0  0  0  0  0  0  0  0  0
   35.5370   30.2710   47.0670 C   0  0  0  0  0  0  0  0  0  0  0  0
   36.5790   30.4090   46.2230 N   0  0  0  0  0  0  0  0  0  0  0  0
   39.0020   31.2410   48.4220 H   0  0  0  0  0  0  0  0  0  0  0  0
   34.5400   30.0010   46.7410 H   0  0  0  0  0  0  0  0  0  0  0  0
   37.1370   31.0510   50.3860 C   0  0  0  0  0  0  0  0  0  0  0  0
   36.6180   32.2970   50.6450 F   0  0  0  0  0  0  0  0  0  0  0  0
   36.4700   30.1210   51.1670 F   0  0  0  0  0  0  0  0  0  0  0  0
   38.4870   31.0700   50.7180 F   0  0  0  0  0  0  0  0  0  0  0  0
   40.5570   30.4030   42.6550 C   0  0  0  0  0  0  0  0  0  0  0  0
   40.1910   31.2070   41.5600 C   0  0  0  0  0  0  0  0  0  0  0  0
   40.5820   30.8030   40.3140 C   0  0  0  0  0  0  0  0  0  0  0  0
   41.3360   29.5960   40.1600 C   0  0  0  0  0  0  0  0  0  0  0  0
   41.4850   29.0190   41.9110 S   0  0  0  0  0  0  0  0  0  0  0  0
   39.6220   32.1230   41.6460 H   0  0  0  0  0  0  0  0  0  0  0  0
   40.3960   31.2880   39.3690 H   0  0  0  0  0  0  0  0  0  0  0  0
   41.8580   28.9320   39.1330 N   0  0  0  0  0  0  0  0  0  0  0  0
   43.0950   29.2250   38.6840 C   0  0  0  0  0  3  0  0  0  0  0  0
   43.6380   28.5230   37.6030 C   0  0  0  0  0  0  0  0  0  0  0  0
   44.6170   28.7060   37.1960 H   0  0  0  0  0  0  0  0  0  0  0  0
   42.8500   27.5350   37.0370 C   0  0  0  0  0  0  0  0  0  0  0  0
   43.2220   26.8210   36.0490 O   0  0  0  0  0  0  0  0  0  0  0  0
   41.6090   27.2390   37.4840 N   0  0  0  0  0  0  0  0  0  0  0  0
   41.1370   27.9610   38.5420 C   0  0  0  0  0  0  0  0  0  0  0  0
   39.9860   27.6820   38.9550 O   0  0  0  0  0  0  0  0  0  0  0  0
   41.0080   26.4950   37.0630 H   0  0  0  0  0  0  0  0  0  0  0  0
  1  2  1  0  0  0  0
  1  8  1  0  0  0  0
  2  6  1  0  0  0  0
  3  2  2  0  0  0  0
  4  5  1  0  0  0  0
  4  3  1  0  0  0  0
  5  1  2  0  0  0  0
  7  3  1  0  0  0  0
  8  9  1  0  0  0  0
  9 14  1  0  0  0  0
  9 10  2  0  0  0  0
 10 16  1  0  0  0  0
 11 10  1  0  0  0  0
 12 11  2  0  0  0  0
 13  8  2  0  0  0  0
 13 12  1  0  0  0  0
 15 12  1  0  0  0  0
 16 17  1  0  0  0  0
 16 19  1  0  0  0  0
 16 18  1  0  0  0  0
 20  4  1  0  0  0  0
 21 25  1  0  0  0  0
 21 20  2  0  0  0  0
 22 21  1  0  0  0  0
 23 22  2  0  0  0  0
 23 24  1  0  0  0  0
 24 20  1  0  0  0  0
 26 22  1  0  0  0  0
 27 23  1  0  0  0  0
 28 27  1  0  0  0  0
 29 28  2  0  0  0  0
 30 29  1  0  0  0  0
 31 33  1  0  0  0  0
 31 29  1  0  0  0  0
 32 31  2  0  0  0  0
 33 34  1  0  0  0  0
 34 35  2  0  0  0  0
 34 27  1  0  0  0  0
 36 33  1  0  0  0  0
M  END
>  <minimizedAffinity>
-6.40708113

>  <minimizedRMSD>
0.789109051

$$$$
