
 OpenBabel03262520123D

 43 45  0  0  0  0  0  0  0  0999 V2000
   35.3820   30.5720   49.4900 C   0  0  0  0  0  0  0  0  0  0  0  0
   35.0830   31.6160   49.7840 H   0  0  0  0  0  0  0  0  0  0  0  0
   36.2890   30.3560   50.1190 H   0  0  0  0  0  0  0  0  0  0  0  0
   38.2610   31.7590   48.9330 Br  0  0  0  0  0  0  0  0  0  0  0  0
   37.0230   31.0460   47.6460 C   0  0  0  0  0  0  0  0  0  0  0  0
   37.3510   31.0130   46.3150 C   0  0  0  0  0  0  0  0  0  0  0  0
   36.4280   30.5050   45.4410 C   0  0  0  0  0  0  0  0  0  0  0  0
   35.1910   30.0290   45.8530 C   0  0  0  0  0  0  0  0  0  0  0  0
   34.8960   30.0800   47.2230 C   0  0  0  0  0  0  0  0  0  0  0  0
   35.8160   30.5870   48.0970 C   0  0  0  0  0  0  0  0  0  0  0  0
   36.7400   30.5000   44.3840 H   0  0  0  0  0  0  0  0  0  0  0  0
   34.5800   29.6630   45.0450 H   0  0  0  0  0  0  0  0  0  0  0  0
   33.9140   29.6900   47.3290 H   0  0  0  0  0  0  0  0  0  0  0  0
   39.8400   33.2760   44.9030 C   0  0  0  0  0  0  0  0  0  0  0  0
   41.0390   32.5100   44.9130 C   0  0  0  0  0  0  0  0  0  0  0  0
   40.9570   31.2250   45.4100 C   0  0  0  0  0  0  0  0  0  0  0  0
   39.7530   30.7360   45.8680 N   0  0  0  0  0  0  0  0  0  0  0  0
   38.6470   31.5080   45.8340 C   0  0  0  0  0  0  0  0  0  0  0  0
   38.7050   32.7590   45.3560 N   0  0  0  0  0  0  0  0  0  0  0  0
   39.9310   34.2700   44.5120 H   0  0  0  0  0  0  0  0  0  0  0  0
   41.9760   32.9200   44.5450 H   0  0  0  0  0  0  0  0  0  0  0  0
   41.8470   30.6090   45.4340 H   0  0  0  0  0  0  0  0  0  0  0  0
   34.3320   29.5910   49.8650 C   0  0  0  0  0  0  0  0  0  0  0  0
   33.3370   29.8780   49.5820 H   0  0  0  0  0  0  0  0  0  0  0  0
   34.3050   29.6620   51.0090 H   0  0  0  0  0  0  0  0  0  0  0  0
   34.8090   28.2800   49.6140 N   0  0  0  0  0  0  0  0  0  0  0  0
   35.2890   27.8060   50.4000 H   0  0  0  0  0  0  0  0  0  0  0  0
   33.9830   27.4140   48.8580 C   0  0  0  0  0  0  0  0  0  0  0  0
   34.3260   27.3610   47.8020 H   0  0  0  0  0  0  0  0  0  0  0  0
   34.0910   26.3920   49.2600 H   0  0  0  0  0  0  0  0  0  0  0  0
   32.5780   27.9230   48.9130 C   0  0  0  0  0  0  0  0  0  0  0  0
   32.0110   27.5330   49.7870 H   0  0  0  0  0  0  0  0  0  0  0  0
   32.3710   28.9470   48.6660 H   0  0  0  0  0  0  0  0  0  0  0  0
   31.9150   27.2040   47.7760 N   0  0  0  0  0  0  0  0  0  0  0  0
   32.5460   27.1080   46.5690 C   0  0  0  0  0  3  0  0  0  0  0  0
   31.9510   26.4500   45.5140 C   0  0  0  0  0  0  0  0  0  0  0  0
   32.4420   26.3720   44.5630 H   0  0  0  0  0  0  0  0  0  0  0  0
   30.7060   25.8800   45.6720 C   0  0  0  0  0  0  0  0  0  0  0  0
   30.1000   25.2660   44.7610 O   0  0  0  0  0  0  0  0  0  0  0  0
   30.1230   26.0000   46.8780 N   0  0  0  0  0  0  0  0  0  0  0  0
   30.6820   26.6360   47.9220 C   0  0  0  0  0  0  0  0  0  0  0  0
   30.1810   26.7710   49.0540 O   0  0  0  0  0  0  0  0  0  0  0  0
   29.1760   25.6080   47.1200 H   0  0  0  0  0  0  0  0  0  0  0  0
  1  2  1  0  0  0  0
  1 23  1  0  0  0  0
  1  3  1  0  0  0  0
  5 10  1  0  0  0  0
  5  4  1  0  0  0  0
  6  5  2  0  0  0  0
  7  8  2  0  0  0  0
  7  6  1  0  0  0  0
  8  9  1  0  0  0  0
  9 13  1  0  0  0  0
  9 10  2  0  0  0  0
 10  1  1  0  0  0  0
 11  7  1  0  0  0  0
 12  8  1  0  0  0  0
 14 15  2  0  0  0  0
 14 19  1  0  0  0  0
 15 16  1  0  0  0  0
 16 22  1  0  0  0  0
 16 17  2  0  0  0  0
 18 17  1  0  0  0  0
 18  6  1  0  0  0  0
 19 18  2  0  0  0  0
 20 14  1  0  0  0  0
 21 15  1  0  0  0  0
 23 25  1  0  0  0  0
 24 23  1  0  0  0  0
 26 23  1  0  0  0  0
 26 27  1  0  0  0  0
 28 31  1  0  0  0  0
 28 30  1  0  0  0  0
 28 26  1  0  0  0  0
 29 28  1  0  0  0  0
 31 32  1  0  0  0  0
 33 31  1  0  0  0  0
 34 41  1  0  0  0  0
 34 31  1  0  0  0  0
 35 34  1  0  0  0  0
 36 38  1  0  0  0  0
 36 35  2  0  0  0  0
 37 36  1  0  0  0  0
 38 40  1  0  0  0  0
 39 38  2  0  0  0  0
 40 43  1  0  0  0  0
 40 41  1  0  0  0  0
 41 42  2  0  0  0  0
M  END
>  <minimizedAffinity>
-5.33888626

>  <minimizedRMSD>
0.714493692

$$$$
