
 OpenBabel03262523583D

 29 31  0  0  0  0  0  0  0  0999 V2000
   35.8520   28.9440   49.3760 C   0  0  0  0  0  0  0  0  0  0  0  0
   35.9390   30.0870   48.5350 C   0  0  0  0  0  0  0  0  0  0  0  0
   35.1780   30.0890   47.3700 C   0  0  0  0  0  0  0  0  0  0  0  0
   34.3850   29.0030   47.0840 N   0  0  0  0  0  0  0  0  0  0  0  0
   34.3340   27.9240   47.9250 C   0  0  0  0  0  0  0  0  0  0  0  0
   35.0700   27.9000   49.0700 N   0  0  0  0  0  0  0  0  0  0  0  0
   36.4520   28.9810   50.2600 H   0  0  0  0  0  0  0  0  0  0  0  0
   35.1860   30.9060   46.6840 H   0  0  0  0  0  0  0  0  0  0  0  0
   31.4480   28.1570   49.1340 Br  0  0  0  0  0  0  0  0  0  0  0  0
   32.1930   26.7240   48.1010 C   0  0  0  0  0  0  0  0  0  0  0  0
   33.4950   26.7640   47.6310 C   0  0  0  0  0  0  0  0  0  0  0  0
   33.9520   25.6990   46.9000 C   0  0  0  0  0  0  0  0  0  0  0  0
   33.1850   24.5920   46.6080 C   0  0  0  0  0  0  0  0  0  0  0  0
   31.8830   24.5710   47.0870 C   0  0  0  0  0  0  0  0  0  0  0  0
   31.3940   25.6370   47.8310 C   0  0  0  0  0  0  0  0  0  0  0  0
   34.9620   25.6780   46.5080 H   0  0  0  0  0  0  0  0  0  0  0  0
   33.5440   23.7490   46.0290 H   0  0  0  0  0  0  0  0  0  0  0  0
   31.2270   23.7420   46.8980 H   0  0  0  0  0  0  0  0  0  0  0  0
   30.3750   25.5970   48.1930 H   0  0  0  0  0  0  0  0  0  0  0  0
   36.7690   31.1950   48.8590 N   0  0  0  0  0  0  0  0  0  0  0  0
   36.5590   32.1260   49.8080 C   0  0  0  0  0  0  0  0  0  0  0  0
   37.4910   33.1350   49.9730 C   0  0  0  0  0  0  0  0  0  0  0  0
   37.2960   33.8720   50.7440 H   0  0  0  0  0  0  0  0  0  0  0  0
   38.6240   33.1970   49.1810 C   0  0  0  0  0  0  0  0  0  0  0  0
   39.4720   34.1280   49.3410 O   0  0  0  0  0  0  0  0  0  0  0  0
   38.7850   32.2380   48.2460 N   0  0  0  0  0  0  0  0  0  0  0  0
   37.8840   31.2550   48.0810 C   0  0  0  0  0  0  0  0  0  0  0  0
   38.1730   30.4260   47.1600 O   0  0  0  0  0  0  0  0  0  0  0  0
   39.6550   32.3380   47.6830 H   0  0  0  0  0  0  0  0  0  0  0  0
  1  7  1  0  0  0  0
  2 20  1  0  0  0  0
  2  1  2  0  0  0  0
  3  2  1  0  0  0  0
  4  3  2  0  0  0  0
  4  5  1  0  0  0  0
  5  6  2  0  0  0  0
  6  1  1  0  0  0  0
  8  3  1  0  0  0  0
 10  9  1  0  0  0  0
 11  5  1  0  0  0  0
 11 10  2  0  0  0  0
 12 11  1  0  0  0  0
 13 12  2  0  0  0  0
 13 14  1  0  0  0  0
 14 15  2  0  0  0  0
 15 10  1  0  0  0  0
 15 19  1  0  0  0  0
 16 12  1  0  0  0  0
 17 13  1  0  0  0  0
 18 14  1  0  0  0  0
 20 21  1  0  0  0  0
 21 22  2  0  0  0  0
 22 23  1  0  0  0  0
 24 25  2  0  0  0  0
 24 22  1  0  0  0  0
 26 24  1  0  0  0  0
 27 26  1  0  0  0  0
 27 20  1  0  0  0  0
 28 27  2  0  0  0  0
 29 26  1  0  0  0  0
M  END
>  <minimizedAffinity>
-5.17639875

>  <minimizedRMSD>
4.62340212

$$$$
