
 OpenBabel03272509433D

 39 41  0  0  1  0  0  0  0  0999 V2000
   37.8200   31.1180   48.7630 C   0  0  0  0  0  0  0  0  0  0  0  0
   37.9190   32.1260   49.7240 C   0  0  0  0  0  0  0  0  0  0  0  0
   38.5740   33.3190   49.4760 C   0  0  0  0  0  0  0  0  0  0  0  0
   39.1600   33.5280   48.2180 C   0  0  0  0  0  0  0  0  0  0  0  0
   39.0550   32.5320   47.2850 C   0  0  0  0  0  0  0  0  0  0  0  0
   38.3890   31.3490   47.5740 C   0  0  0  0  0  0  0  0  0  0  0  0
   37.4600   31.9510   50.6930 H   0  0  0  0  0  0  0  0  0  0  0  0
   38.5950   34.0250   50.2780 H   0  0  0  0  0  0  0  0  0  0  0  0
   39.6400   34.4730   48.1170 H   0  0  0  0  0  0  0  0  0  0  0  0
   39.5550   32.8400   46.3710 H   0  0  0  0  0  0  0  0  0  0  0  0
   37.1640   29.8600   49.0430 C   0  0  2  0  0  0  0  0  0  0  0  0
   37.5450   29.1310   48.2290 H   0  0  0  0  0  0  0  0  0  0  0  0
   34.0190   30.2260   47.2590 C   0  0  0  0  0  0  0  0  0  0  0  0
   33.3330   29.0620   47.5480 C   0  0  0  0  0  0  0  0  0  0  0  0
   33.9210   28.1550   48.4180 C   0  0  0  0  0  0  0  0  0  0  0  0
   35.1550   28.4440   48.9560 N   0  0  0  0  0  0  0  0  0  0  0  0
   35.7580   29.5720   48.6390 C   0  0  0  0  0  0  0  0  0  0  0  0
   35.2020   30.4640   47.7980 N   0  0  0  0  0  0  0  0  0  0  0  0
   33.5760   30.9370   46.5870 H   0  0  0  0  0  0  0  0  0  0  0  0
   32.3720   28.9200   47.0780 H   0  0  0  0  0  0  0  0  0  0  0  0
   33.3970   27.2520   48.6480 H   0  0  0  0  0  0  0  0  0  0  0  0
   37.6800   29.2470   50.0500 O   0  0  0  0  0  0  0  0  0  0  0  0
   37.3970   29.6350   50.9280 H   0  0  0  0  0  0  0  0  0  0  0  0
   38.3780   30.3740   46.5090 C   0  0  0  0  0  3  0  0  0  0  0  0
   39.2060   30.4120   45.4590 C   0  0  0  0  0  3  0  0  0  0  0  0
   39.3100   29.4510   44.3370 C   0  0  0  0  0  0  0  0  0  0  0  0
   38.5130   28.6750   44.4920 H   0  0  0  0  0  0  0  0  0  0  0  0
   40.2560   28.9130   44.3370 H   0  0  0  0  0  0  0  0  0  0  0  0
   38.9410   30.2860   42.7900 S   0  0  0  0  0  0  0  0  0  0  0  0
   34.2450   30.6100   42.0470 H   0  0  0  0  0  0  0  0  0  0  0  0
   35.0980   31.1000   42.3820 N   0  0  0  0  0  0  0  0  0  0  0  0
   36.3190   30.5030   42.3890 C   0  0  0  0  0  3  0  0  0  0  0  0
   37.4250   31.2020   42.8440 C   0  0  0  0  0  0  0  0  0  0  0  0
   37.2420   32.4980   43.2800 C   0  0  0  0  0  0  0  0  0  0  0  0
   38.2900   33.0630   43.6770 O   0  0  0  0  0  0  0  0  0  0  0  0
   36.0380   33.0950   43.2770 N   0  0  0  0  0  0  0  0  0  0  0  0
   34.9910   32.3700   42.8220 C   0  0  0  0  0  0  0  0  0  0  0  0
   33.8340   32.9060   42.8050 O   0  0  0  0  0  0  0  0  0  0  0  0
   35.9690   34.0730   43.6190 H   0  0  0  0  0  0  0  0  0  0  0  0
  1 11  1  0  0  0  0
  1  2  1  0  0  0  0
  2  7  1  0  0  0  0
  3  2  2  0  0  0  0
  3  8  1  0  0  0  0
  4  3  1  0  0  0  0
  5  6  1  0  0  0  0
  5  4  2  0  0  0  0
  6  1  2  0  0  0  0
  9  4  1  0  0  0  0
 10  5  1  0  0  0  0
 11 12  1  6  0  0  0
 11 22  1  0  0  0  0
 13 14  2  0  0  0  0
 13 18  1  0  0  0  0
 14 15  1  0  0  0  0
 15 21  1  0  0  0  0
 15 16  2  0  0  0  0
 17 16  1  0  0  0  0
 17 11  1  0  0  0  0
 18 17  2  0  0  0  0
 19 13  1  0  0  0  0
 20 14  1  0  0  0  0
 22 23  1  0  0  0  0
 24  6  1  0  0  0  0
 25 24  2  0  0  0  0
 26 27  1  0  0  0  0
 26 25  1  0  0  0  0
 28 26  1  0  0  0  0
 29 33  1  0  0  0  0
 29 26  1  0  0  0  0
 30 31  1  0  0  0  0
 31 32  1  0  0  0  0
 31 37  1  0  0  0  0
 32 33  2  0  0  0  0
 33 34  1  0  0  0  0
 34 35  2  0  0  0  0
 36 34  1  0  0  0  0
 36 39  1  0  0  0  0
 37 36  1  0  0  0  0
 38 37  2  0  0  0  0
M  END
>  <minimizedAffinity>
-6.11914301

>  <minimizedRMSD>
1.06640112

$$$$
