
 OpenBabel03272501213D

 41 44  0  0  0  0  0  0  0  0999 V2000
   38.4810   32.8200   46.0100 O   0  0  0  0  0  0  0  0  0  0  0  0
   36.8730   32.2580   43.5010 Cl  0  0  0  0  0  0  0  0  0  0  0  0
   38.4730   31.6510   43.8040 C   0  0  0  0  0  0  0  0  0  0  0  0
   39.0390   32.0300   45.0270 C   0  0  0  0  0  0  0  0  0  0  0  0
   40.3160   31.5640   45.3040 C   0  0  0  0  0  0  0  0  0  0  0  0
   41.0380   30.7620   44.4490 C   0  0  0  0  0  0  0  0  0  0  0  0
   40.4660   30.3940   43.2390 C   0  0  0  0  0  0  0  0  0  0  0  0
   39.2020   30.8400   42.9390 C   0  0  0  0  0  0  0  0  0  0  0  0
   40.8390   31.8010   46.2210 H   0  0  0  0  0  0  0  0  0  0  0  0
   42.0320   30.4000   44.6650 H   0  0  0  0  0  0  0  0  0  0  0  0
   40.9520   29.7750   42.5160 H   0  0  0  0  0  0  0  0  0  0  0  0
   38.5740   30.4880   41.7110 N   0  0  0  0  0  0  0  0  0  0  0  0
   37.8260   29.3540   41.6100 C   0  0  0  0  0  0  0  0  0  0  0  0
   37.2180   29.0250   40.3970 C   0  0  0  0  0  0  0  0  0  0  0  0
   36.6170   28.1200   40.3030 H   0  0  0  0  0  0  0  0  0  0  0  0
   37.3850   29.8650   39.2980 C   0  0  0  0  0  0  0  0  0  0  0  0
   36.8460   29.5950   38.1820 O   0  0  0  0  0  0  0  0  0  0  0  0
   38.1350   30.9990   39.4080 N   0  0  0  0  0  0  0  0  0  0  0  0
   38.6770   31.2350   40.5980 C   0  0  0  0  0  0  0  0  0  0  0  0
   39.3680   32.2840   40.6910 O   0  0  0  0  0  0  0  0  0  0  0  0
   38.2580   31.6200   38.5960 H   0  0  0  0  0  0  0  0  0  0  0  0
   37.2490   31.5660   47.6580 C   0  0  0  0  0  0  0  0  0  0  0  0
   36.9610   31.1340   48.9490 C   0  0  0  0  0  0  0  0  0  0  0  0
   37.7790   31.6470   49.9380 C   0  0  0  0  0  0  0  0  0  0  0  0
   38.8190   32.5410   49.6210 C   0  0  0  0  0  0  0  0  0  0  0  0
   39.0420   32.9240   48.3080 C   0  0  0  0  0  0  0  0  0  0  0  0
   38.2400   32.4220   47.3240 C   0  0  0  0  0  0  0  0  0  0  0  0
   37.5730   31.3250   50.9510 H   0  0  0  0  0  0  0  0  0  0  0  0
   39.3780   32.8650   50.4770 H   0  0  0  0  0  0  0  0  0  0  0  0
   39.8660   33.6150   48.1610 H   0  0  0  0  0  0  0  0  0  0  0  0
   34.6970   30.6740   49.7750 C   0  0  0  0  0  0  0  0  0  0  0  0
   35.9020   30.2270   49.2480 C   0  0  0  0  0  0  0  0  0  0  0  0
   36.0140   28.8410   49.0290 C   0  0  0  0  0  0  0  0  0  0  0  0
   34.9690   28.0240   49.3330 N   0  0  0  0  0  0  0  0  0  0  0  0
   33.8180   28.5350   49.8470 C   0  0  0  0  0  0  0  0  0  0  0  0
   33.6770   29.8550   50.0700 N   0  0  0  0  0  0  0  0  0  0  0  0
   34.5190   31.7240   49.9780 H   0  0  0  0  0  0  0  0  0  0  0  0
   36.9340   28.4570   48.6200 H   0  0  0  0  0  0  0  0  0  0  0  0
   33.1220   27.7260   50.0170 H   0  0  0  0  0  0  0  0  0  0  0  0
   36.4640   31.0900   46.5920 O   0  0  0  0  0  0  0  0  0  0  0  0
   36.6000   30.2140   46.1390 H   0  0  0  0  0  0  0  0  0  0  0  0
  1 27  1  0  0  0  0
  2  3  1  0  0  0  0
  3  4  1  0  0  0  0
  4  5  2  0  0  0  0
  4  1  1  0  0  0  0
  5  9  1  0  0  0  0
  6 10  1  0  0  0  0
  6  5  1  0  0  0  0
  7  6  2  0  0  0  0
  8  7  1  0  0  0  0
  8  3  2  0  0  0  0
 11  7  1  0  0  0  0
 12  8  1  0  0  0  0
 13 12  1  0  0  0  0
 14 13  2  0  0  0  0
 15 14  1  0  0  0  0
 16 18  1  0  0  0  0
 16 14  1  0  0  0  0
 17 16  2  0  0  0  0
 18 19  1  0  0  0  0
 19 20  2  0  0  0  0
 19 12  1  0  0  0  0
 21 18  1  0  0  0  0
 22 23  1  0  0  0  0
 23 32  1  0  0  0  0
 23 24  2  0  0  0  0
 24 28  1  0  0  0  0
 25 24  1  0  0  0  0
 25 29  1  0  0  0  0
 26 25  2  0  0  0  0
 27 22  2  0  0  0  0
 27 26  1  0  0  0  0
 30 26  1  0  0  0  0
 31 37  1  0  0  0  0
 31 36  1  0  0  0  0
 32 31  2  0  0  0  0
 33 32  1  0  0  0  0
 33 34  2  0  0  0  0
 34 35  1  0  0  0  0
 35 39  1  0  0  0  0
 35 36  2  0  0  0  0
 38 33  1  0  0  0  0
 40 22  1  0  0  0  0
 41 40  1  0  0  0  0
M  END
>  <minimizedAffinity>
-5.55381775

>  <minimizedRMSD>
1.7176739

$$$$
