
 OpenBabel03272510043D

 38 40  0  0  0  0  0  0  0  0999 V2000
   34.2460   29.6350   43.6910 C   0  0  0  0  0  0  0  0  0  0  0  0
   34.0530   29.1850   44.9570 C   0  0  0  0  0  0  0  0  0  0  0  0
   32.9860   28.3360   45.2330 C   0  0  0  0  0  0  0  0  0  0  0  0
   32.0990   27.9270   44.2550 C   0  0  0  0  0  0  0  0  0  0  0  0
   32.2620   28.3640   42.9730 C   0  0  0  0  0  0  0  0  0  0  0  0
   33.3220   29.1970   42.7350 C   0  0  0  0  0  0  0  0  0  0  0  0
   32.8570   27.9860   46.2690 H   0  0  0  0  0  0  0  0  0  0  0  0
   31.3140   27.2680   44.5830 H   0  0  0  0  0  0  0  0  0  0  0  0
   31.5480   28.0170   42.2690 H   0  0  0  0  0  0  0  0  0  0  0  0
   33.3440   29.4800   41.6750 H   0  0  0  0  0  0  0  0  0  0  0  0
   36.8230   30.7750   46.7770 C   0  0  0  0  0  0  0  0  0  0  0  0
   35.9770   30.3660   45.7580 C   0  0  0  0  0  0  0  0  0  0  0  0
   34.8910   29.5940   46.0330 C   0  0  0  0  0  0  0  0  0  0  0  0
   34.6820   29.2570   47.3360 N   0  0  0  0  0  0  0  0  0  0  0  0
   35.4930   29.6520   48.3230 C   0  0  0  0  0  0  0  0  0  0  0  0
   36.5600   30.4070   48.0360 N   0  0  0  0  0  0  0  0  0  0  0  0
   37.7150   31.3750   46.7390 H   0  0  0  0  0  0  0  0  0  0  0  0
   36.3870   30.8180   44.8860 H   0  0  0  0  0  0  0  0  0  0  0  0
   35.1060   29.2700   49.7060 C   0  0  0  0  0  0  0  0  0  0  0  0
   36.1330   29.4740   50.6070 F   0  0  0  0  0  0  0  0  0  0  0  0
   34.0980   30.1940   50.1770 F   0  0  0  0  0  0  0  0  0  0  0  0
   34.5450   28.0940   49.8690 F   0  0  0  0  0  0  0  0  0  0  0  0
   35.5570   30.6510   43.2200 S   0  0  0  0  0  0  0  0  0  0  0  0
   35.2400   32.0780   43.4790 O   0  0  0  0  0  0  0  0  0  0  0  0
   35.2740   30.6800   41.7330 O   0  0  0  0  0  0  0  0  0  0  0  0
   37.1360   30.2140   42.8270 C   0  0  0  0  0  0  0  0  0  0  0  0
   37.2480   29.1200   43.2130 H   0  0  0  0  0  0  0  0  0  0  0  0
   37.2930   30.0310   41.7500 H   0  0  0  0  0  0  0  0  0  0  0  0
   38.2280   30.8480   43.4690 N   0  0  0  0  0  0  0  0  0  0  0  0
   38.4250   32.1820   43.5930 C   0  0  0  0  0  3  0  0  0  0  0  0
   39.5090   32.7540   44.2300 C   0  0  0  0  0  0  0  0  0  0  0  0
   39.5850   33.8490   44.2840 H   0  0  0  0  0  0  0  0  0  0  0  0
   40.4460   31.8890   44.7690 C   0  0  0  0  0  0  0  0  0  0  0  0
   41.4200   32.4140   45.3410 O   0  0  0  0  0  0  0  0  0  0  0  0
   40.2680   30.5470   44.6540 N   0  0  0  0  0  0  0  0  0  0  0  0
   39.2010   30.0750   44.0290 C   0  0  0  0  0  0  0  0  0  0  0  0
   39.1130   28.8020   43.9680 O   0  0  0  0  0  0  0  0  0  0  0  0
   41.0040   29.9400   45.0790 H   0  0  0  0  0  0  0  0  0  0  0  0
  1  2  1  0  0  0  0
  2  3  2  0  0  0  0
  2 13  1  0  0  0  0
  3  7  1  0  0  0  0
  4  8  1  0  0  0  0
  4  3  1  0  0  0  0
  5  4  2  0  0  0  0
  6  5  1  0  0  0  0
  6  1  2  0  0  0  0
  9  5  1  0  0  0  0
 10  6  1  0  0  0  0
 11 16  1  0  0  0  0
 12 13  1  0  0  0  0
 12 11  2  0  0  0  0
 13 14  2  0  0  0  0
 14 15  1  0  0  0  0
 15 19  1  0  0  0  0
 16 15  2  0  0  0  0
 17 11  1  0  0  0  0
 18 12  1  0  0  0  0
 19 22  1  0  0  0  0
 19 21  1  0  0  0  0
 19 20  1  0  0  0  0
 23 24  2  0  0  0  0
 23  1  1  0  0  0  0
 25 23  2  0  0  0  0
 26 27  1  0  0  0  0
 26 23  1  0  0  0  0
 26 29  1  0  0  0  0
 28 26  1  0  0  0  0
 29 30  1  0  0  0  0
 29 36  1  0  0  0  0
 30 31  2  0  0  0  0
 31 32  1  0  0  0  0
 31 33  1  0  0  0  0
 33 34  2  0  0  0  0
 35 33  1  0  0  0  0
 35 38  1  0  0  0  0
 36 35  1  0  0  0  0
 37 36  2  0  0  0  0
M  END
>  <minimizedAffinity>
-5.07859516

>  <minimizedRMSD>
4.21765184

$$$$
