
 OpenBabel03272508053D

 36 39  0  0  0  0  0  0  0  0999 V2000
   38.9040   30.8930   45.7720 C   0  0  0  0  0  0  0  0  0  0  0  0
   40.1000   31.5500   46.0250 C   0  0  0  0  0  0  0  0  0  0  0  0
   40.9280   31.4860   44.9170 C   0  0  0  0  0  0  0  0  0  0  0  0
   40.1880   30.7770   44.0160 N   0  0  0  0  0  0  0  0  0  0  0  0
   39.0220   30.4390   44.5200 N   0  0  0  0  0  0  0  0  0  0  0  0
   40.3640   32.0460   46.9450 H   0  0  0  0  0  0  0  0  0  0  0  0
   41.9140   31.8720   44.7390 H   0  0  0  0  0  0  0  0  0  0  0  0
   37.7920   30.7470   46.6840 C   0  0  0  0  0  0  0  0  0  0  0  0
   38.0090   30.9680   48.0720 C   0  0  0  0  0  0  0  0  0  0  0  0
   36.9230   30.8220   48.9250 C   0  0  0  0  0  0  0  0  0  0  0  0
   35.7230   30.4780   48.3950 N   0  0  0  0  0  0  0  0  0  0  0  0
   35.5370   30.2710   47.0660 C   0  0  0  0  0  0  0  0  0  0  0  0
   36.5790   30.4090   46.2230 N   0  0  0  0  0  0  0  0  0  0  0  0
   39.0020   31.2400   48.4230 H   0  0  0  0  0  0  0  0  0  0  0  0
   34.5400   30.0020   46.7410 H   0  0  0  0  0  0  0  0  0  0  0  0
   37.1370   31.0500   50.3870 C   0  0  0  0  0  0  0  0  0  0  0  0
   36.6170   32.2970   50.6450 F   0  0  0  0  0  0  0  0  0  0  0  0
   36.4700   30.1210   51.1670 F   0  0  0  0  0  0  0  0  0  0  0  0
   38.4870   31.0700   50.7180 F   0  0  0  0  0  0  0  0  0  0  0  0
   40.5560   30.4020   42.6560 C   0  0  0  0  0  0  0  0  0  0  0  0
   40.1900   31.2070   41.5600 C   0  0  0  0  0  0  0  0  0  0  0  0
   40.5810   30.8030   40.3150 C   0  0  0  0  0  0  0  0  0  0  0  0
   41.3360   29.5950   40.1610 C   0  0  0  0  0  0  0  0  0  0  0  0
   41.4850   29.0190   41.9110 S   0  0  0  0  0  0  0  0  0  0  0  0
   39.6210   32.1220   41.6460 H   0  0  0  0  0  0  0  0  0  0  0  0
   40.3950   31.2880   39.3690 H   0  0  0  0  0  0  0  0  0  0  0  0
   41.8580   28.9320   39.1330 N   0  0  0  0  0  0  0  0  0  0  0  0
   43.0940   29.2270   38.6840 C   0  0  0  0  0  3  0  0  0  0  0  0
   43.6390   28.5260   37.6030 C   0  0  0  0  0  0  0  0  0  0  0  0
   44.6180   28.7110   37.1960 H   0  0  0  0  0  0  0  0  0  0  0  0
   42.8520   27.5380   37.0370 C   0  0  0  0  0  0  0  0  0  0  0  0
   43.2250   26.8240   36.0490 O   0  0  0  0  0  0  0  0  0  0  0  0
   41.6120   27.2390   37.4830 N   0  0  0  0  0  0  0  0  0  0  0  0
   41.1390   27.9600   38.5420 C   0  0  0  0  0  0  0  0  0  0  0  0
   39.9870   27.6800   38.9540 O   0  0  0  0  0  0  0  0  0  0  0  0
   41.0120   26.4940   37.0620 H   0  0  0  0  0  0  0  0  0  0  0  0
  1  2  1  0  0  0  0
  1  8  1  0  0  0  0
  2  6  1  0  0  0  0
  3  2  2  0  0  0  0
  4  5  1  0  0  0  0
  4  3  1  0  0  0  0
  5  1  2  0  0  0  0
  7  3  1  0  0  0  0
  8  9  1  0  0  0  0
  9 14  1  0  0  0  0
  9 10  2  0  0  0  0
 10 16  1  0  0  0  0
 11 10  1  0  0  0  0
 12 11  2  0  0  0  0
 13  8  2  0  0  0  0
 13 12  1  0  0  0  0
 15 12  1  0  0  0  0
 16 17  1  0  0  0  0
 16 19  1  0  0  0  0
 16 18  1  0  0  0  0
 20  4  1  0  0  0  0
 21 25  1  0  0  0  0
 21 20  2  0  0  0  0
 22 21  1  0  0  0  0
 23 22  2  0  0  0  0
 23 24  1  0  0  0  0
 24 20  1  0  0  0  0
 26 22  1  0  0  0  0
 27 23  1  0  0  0  0
 28 27  1  0  0  0  0
 29 28  2  0  0  0  0
 30 29  1  0  0  0  0
 31 33  1  0  0  0  0
 31 29  1  0  0  0  0
 32 31  2  0  0  0  0
 33 34  1  0  0  0  0
 34 35  2  0  0  0  0
 34 27  1  0  0  0  0
 36 33  1  0  0  0  0
M  END
>  <minimizedAffinity>
-6.40712023

>  <minimizedRMSD>
0.441609979

$$$$
