
 OpenBabel03272500013D

 29 31  0  0  0  0  0  0  0  0999 V2000
   35.8160   29.1880   49.2840 C   0  0  0  0  0  0  0  0  0  0  0  0
   35.9970   30.2270   48.3490 C   0  0  0  0  0  0  0  0  0  0  0  0
   35.2700   30.1440   47.1600 C   0  0  0  0  0  0  0  0  0  0  0  0
   34.4420   29.0740   46.9890 N   0  0  0  0  0  0  0  0  0  0  0  0
   34.2910   28.1020   47.8970 C   0  0  0  0  0  0  0  0  0  0  0  0
   34.9870   28.1530   49.0670 N   0  0  0  0  0  0  0  0  0  0  0  0
   36.3410   29.1680   50.2390 H   0  0  0  0  0  0  0  0  0  0  0  0
   35.4060   30.9280   46.4510 H   0  0  0  0  0  0  0  0  0  0  0  0
   33.3680   27.1210   47.4510 N   0  0  0  0  0  0  0  0  0  0  0  0
   33.6360   26.3030   46.4130 C   0  0  0  0  0  0  0  0  0  0  0  0
   32.6860   25.3560   46.0210 C   0  0  0  0  0  0  0  0  0  0  0  0
   32.8510   24.6640   45.1820 H   0  0  0  0  0  0  0  0  0  0  0  0
   31.4900   25.3020   46.7290 C   0  0  0  0  0  0  0  0  0  0  0  0
   30.5990   24.4600   46.4080 O   0  0  0  0  0  0  0  0  0  0  0  0
   31.2290   26.1270   47.7690 N   0  0  0  0  0  0  0  0  0  0  0  0
   32.1760   27.0210   48.1100 C   0  0  0  0  0  0  0  0  0  0  0  0
   31.9620   27.8160   49.0870 O   0  0  0  0  0  0  0  0  0  0  0  0
   30.3260   26.0700   48.2880 H   0  0  0  0  0  0  0  0  0  0  0  0
   36.9010   31.2800   48.6750 N   0  0  0  0  0  0  0  0  0  0  0  0
   36.6640   32.1220   49.6920 C   0  0  0  0  0  0  0  0  0  0  0  0
   37.5810   33.1400   49.9750 C   0  0  0  0  0  0  0  0  0  0  0  0
   38.6780   33.1570   49.1280 C   0  0  0  0  0  0  0  0  0  0  0  0
   39.5280   34.0800   49.3690 O   0  0  0  0  0  0  0  0  0  0  0  0
   38.9340   32.3300   48.1100 N   0  0  0  0  0  0  0  0  0  0  0  0
   38.0070   31.3670   47.8900 C   0  0  0  0  0  0  0  0  0  0  0  0
   38.2360   30.5840   46.9370 O   0  0  0  0  0  0  0  0  0  0  0  0
   35.7740   32.0330   50.3070 H   0  0  0  0  0  0  0  0  0  0  0  0
   37.4650   33.8440   50.7600 H   0  0  0  0  0  0  0  0  0  0  0  0
   39.7950   32.4380   47.5380 H   0  0  0  0  0  0  0  0  0  0  0  0
  1  7  1  0  0  0  0
  2 19  1  0  0  0  0
  2  1  2  0  0  0  0
  3  2  1  0  0  0  0
  4  3  2  0  0  0  0
  4  5  1  0  0  0  0
  5  6  2  0  0  0  0
  6  1  1  0  0  0  0
  8  3  1  0  0  0  0
  9  5  1  0  0  0  0
  9 16  1  0  0  0  0
 10  9  1  0  0  0  0
 11 10  2  0  0  0  0
 11 13  1  0  0  0  0
 12 11  1  0  0  0  0
 13 15  1  0  0  0  0
 14 13  2  0  0  0  0
 15 16  1  0  0  0  0
 15 18  1  0  0  0  0
 16 17  2  0  0  0  0
 19 20  1  0  0  0  0
 20 21  2  0  0  0  0
 20 27  1  0  0  0  0
 21 28  1  0  0  0  0
 22 23  2  0  0  0  0
 22 21  1  0  0  0  0
 24 22  1  0  0  0  0
 25 24  1  0  0  0  0
 25 19  1  0  0  0  0
 26 25  2  0  0  0  0
 29 24  1  0  0  0  0
M  END
>  <minimizedAffinity>
-5.77141666

>  <minimizedRMSD>
1.02358842

$$$$
