
 OpenBabel03272509433D

 39 41  0  0  1  0  0  0  0  0999 V2000
   37.0080   30.9180   49.0420 C   0  0  0  0  0  0  0  0  0  0  0  0
   36.7240   31.7750   50.1060 C   0  0  0  0  0  0  0  0  0  0  0  0
   37.3060   33.0250   50.2210 C   0  0  0  0  0  0  0  0  0  0  0  0
   38.2130   33.4490   49.2380 C   0  0  0  0  0  0  0  0  0  0  0  0
   38.4820   32.5980   48.2000 C   0  0  0  0  0  0  0  0  0  0  0  0
   37.8760   31.3520   48.1220 C   0  0  0  0  0  0  0  0  0  0  0  0
   36.0190   31.4340   50.8580 H   0  0  0  0  0  0  0  0  0  0  0  0
   37.0230   33.6040   51.0730 H   0  0  0  0  0  0  0  0  0  0  0  0
   38.6110   34.4230   49.4080 H   0  0  0  0  0  0  0  0  0  0  0  0
   39.1980   33.0640   47.5280 H   0  0  0  0  0  0  0  0  0  0  0  0
   36.4200   29.5990   48.9480 C   0  0  2  0  0  0  0  0  0  0  0  0
   36.9480   29.0960   48.0490 H   0  0  0  0  0  0  0  0  0  0  0  0
   33.5580   30.1370   46.7750 C   0  0  0  0  0  0  0  0  0  0  0  0
   32.8710   28.9400   46.8240 C   0  0  0  0  0  0  0  0  0  0  0  0
   33.3510   27.9440   47.6620 C   0  0  0  0  0  0  0  0  0  0  0  0
   34.4860   28.1820   48.4050 N   0  0  0  0  0  0  0  0  0  0  0  0
   35.0970   29.3450   48.3110 C   0  0  0  0  0  0  0  0  0  0  0  0
   34.6440   30.3230   47.5050 N   0  0  0  0  0  0  0  0  0  0  0  0
   33.1980   30.9180   46.1300 H   0  0  0  0  0  0  0  0  0  0  0  0
   31.9920   28.8440   46.2050 H   0  0  0  0  0  0  0  0  0  0  0  0
   32.8250   27.0150   47.7080 H   0  0  0  0  0  0  0  0  0  0  0  0
   36.8620   28.7960   49.8520 O   0  0  0  0  0  0  0  0  0  0  0  0
   36.4510   28.9590   50.7500 H   0  0  0  0  0  0  0  0  0  0  0  0
   38.2720   30.5470   46.9900 C   0  0  0  0  0  3  0  0  0  0  0  0
   39.0640   30.9870   46.0060 C   0  0  0  0  0  3  0  0  0  0  0  0
   39.5630   30.2420   44.8270 C   0  0  0  0  0  0  0  0  0  0  0  0
   38.7300   29.5710   44.4830 H   0  0  0  0  0  0  0  0  0  0  0  0
   40.3950   29.5840   45.0730 H   0  0  0  0  0  0  0  0  0  0  0  0
   39.9050   31.3890   43.4880 S   0  0  0  0  0  0  0  0  0  0  0  0
   35.4970   33.0990   44.0810 H   0  0  0  0  0  0  0  0  0  0  0  0
   36.2710   32.9340   43.4080 N   0  0  0  0  0  0  0  0  0  0  0  0
   37.4420   32.3530   43.7820 C   0  0  0  0  0  3  0  0  0  0  0  0
   38.4440   32.1550   42.8440 C   0  0  0  0  0  0  0  0  0  0  0  0
   38.2100   32.5620   41.5470 C   0  0  0  0  0  0  0  0  0  0  0  0
   39.1640   32.3500   40.7590 O   0  0  0  0  0  0  0  0  0  0  0  0
   37.0550   33.1370   41.1710 N   0  0  0  0  0  0  0  0  0  0  0  0
   36.1110   33.3080   42.1220 C   0  0  0  0  0  0  0  0  0  0  0  0
   35.0030   33.8490   41.7980 O   0  0  0  0  0  0  0  0  0  0  0  0
   36.9430   33.4210   40.1780 H   0  0  0  0  0  0  0  0  0  0  0  0
  1  2  1  0  0  0  0
  2  3  2  0  0  0  0
  2  7  1  0  0  0  0
  3  8  1  0  0  0  0
  4  9  1  0  0  0  0
  4  3  1  0  0  0  0
  5  4  2  0  0  0  0
  6  5  1  0  0  0  0
  6  1  2  0  0  0  0
 10  5  1  0  0  0  0
 11 12  1  6  0  0  0
 11  1  1  0  0  0  0
 11 22  1  0  0  0  0
 13 14  2  0  0  0  0
 13 18  1  0  0  0  0
 14 15  1  0  0  0  0
 15 21  1  0  0  0  0
 15 16  2  0  0  0  0
 17 16  1  0  0  0  0
 17 11  1  0  0  0  0
 18 17  2  0  0  0  0
 19 13  1  0  0  0  0
 20 14  1  0  0  0  0
 22 23  1  0  0  0  0
 24  6  1  0  0  0  0
 25 24  2  0  0  0  0
 26 28  1  0  0  0  0
 26 25  1  0  0  0  0
 27 26  1  0  0  0  0
 29 26  1  0  0  0  0
 31 32  1  0  0  0  0
 31 30  1  0  0  0  0
 33 29  1  0  0  0  0
 33 32  2  0  0  0  0
 34 33  1  0  0  0  0
 35 34  2  0  0  0  0
 36 34  1  0  0  0  0
 36 37  1  0  0  0  0
 37 31  1  0  0  0  0
 38 37  2  0  0  0  0
 39 36  1  0  0  0  0
M  END
>  <minimizedAffinity>
-6.33115196

>  <minimizedRMSD>
0.905237615

$$$$
