
 OpenBabel03272506503D

 35 37  0  0  1  0  0  0  0  0999 V2000
   34.5110   30.1970   49.0990 C   0  0  1  0  0  0  0  0  0  0  0  0
   34.1900   30.3150   47.6720 C   0  0  0  0  0  0  0  0  0  0  0  0
   34.3700   29.0850   46.8460 C   0  0  0  0  0  0  0  0  0  0  0  0
   33.9790   27.8140   47.4610 C   0  0  1  0  0  0  0  0  0  0  0  0
   34.3090   27.6840   48.9060 C   0  0  0  0  0  0  0  0  0  0  0  0
   34.0290   28.9190   49.7030 C   0  0  0  0  0  0  0  0  0  0  0  0
   33.9130   30.9980   49.6470 H   0  0  0  0  0  0  0  0  0  0  0  0
   34.6310   31.1400   47.1260 H   0  0  0  0  0  0  0  0  0  0  0  0
   33.0780   30.5510   47.6290 H   0  0  0  0  0  0  0  0  0  0  0  0
   33.9020   29.2320   45.8570 H   0  0  0  0  0  0  0  0  0  0  0  0
   35.4640   29.0460   46.6130 H   0  0  0  0  0  0  0  0  0  0  0  0
   34.6360   27.0240   46.9600 H   0  0  0  0  0  0  0  0  0  0  0  0
   33.8260   26.8580   49.4140 H   0  0  0  0  0  0  0  0  0  0  0  0
   35.4160   27.4910   49.0090 H   0  0  0  0  0  0  0  0  0  0  0  0
   32.8910   28.9930   49.7240 H   0  0  0  0  0  0  0  0  0  0  0  0
   34.2940   28.7310   50.7360 H   0  0  0  0  0  0  0  0  0  0  0  0
   32.6530   27.3270   47.2270 N   0  0  0  0  0  0  0  0  0  0  0  0
   32.1610   26.7030   46.1740 C   0  0  0  0  0  0  0  0  0  0  0  0
   30.8780   26.2620   46.0140 C   0  0  0  0  0  0  0  0  0  0  0  0
   30.5440   25.7570   45.1240 H   0  0  0  0  0  0  0  0  0  0  0  0
   29.9760   26.4810   47.0550 C   0  0  0  0  0  0  0  0  0  0  0  0
   28.7880   26.0920   46.9510 O   0  0  0  0  0  0  0  0  0  0  0  0
   30.4780   27.1260   48.1480 N   0  0  0  0  0  0  0  0  0  0  0  0
   31.7540   27.5320   48.2340 C   0  0  0  0  0  0  0  0  0  0  0  0
   31.9670   28.1060   49.3540 O   0  0  0  0  0  0  0  0  0  0  0  0
   29.7400   27.2500   48.8790 H   0  0  0  0  0  0  0  0  0  0  0  0
   36.7680   31.2540   48.6370 C   0  0  0  0  0  0  0  0  0  0  0  0
   35.9080   30.5290   49.4820 C   0  0  0  0  0  0  0  0  0  0  0  0
   36.4160   30.1340   50.7040 C   0  0  0  0  0  0  0  0  0  0  0  0
   37.6930   30.4490   51.0330 N   0  0  0  0  0  0  0  0  0  0  0  0
   38.4910   31.1510   50.1880 C   0  0  0  0  0  0  0  0  0  0  0  0
   38.0140   31.5510   48.9850 N   0  0  0  0  0  0  0  0  0  0  0  0
   36.4710   31.6100   47.6660 H   0  0  0  0  0  0  0  0  0  0  0  0
   35.9030   29.5810   51.4690 H   0  0  0  0  0  0  0  0  0  0  0  0
   39.5030   31.3610   50.5350 H   0  0  0  0  0  0  0  0  0  0  0  0
  1 28  1  0  0  0  0
  1  7  1  1  0  0  0
  1  6  1  0  0  0  0
  2  1  1  0  0  0  0
  3  4  1  0  0  0  0
  3  2  1  0  0  0  0
  4 12  1  6  0  0  0
  4  5  1  0  0  0  0
  5 14  1  0  0  0  0
  5 13  1  0  0  0  0
  5  6  1  0  0  0  0
  6 15  1  0  0  0  0
  6 16  1  0  0  0  0
  8  2  1  0  0  0  0
  9  2  1  0  0  0  0
 10  3  1  0  0  0  0
 11  3  1  0  0  0  0
 17  4  1  0  0  0  0
 17 24  1  0  0  0  0
 18 17  1  0  0  0  0
 19 18  2  0  0  0  0
 19 21  1  0  0  0  0
 20 19  1  0  0  0  0
 21 23  1  0  0  0  0
 22 21  2  0  0  0  0
 23 24  1  0  0  0  0
 23 26  1  0  0  0  0
 24 25  2  0  0  0  0
 27 32  2  0  0  0  0
 27 28  1  0  0  0  0
 28 29  2  0  0  0  0
 29 30  1  0  0  0  0
 29 34  1  0  0  0  0
 31 35  1  0  0  0  0
 31 30  2  0  0  0  0
 32 31  1  0  0  0  0
 33 27  1  0  0  0  0
M  END
>  <minimizedAffinity>
-5.31282711

>  <minimizedRMSD>
0.208703905

$$$$
