
 OpenBabel03272507323D

 37 40  0  0  1  0  0  0  0  0999 V2000
   33.0860   27.5340   48.2430 C   0  0  0  0  0  0  0  0  0  0  0  0
   31.8580   27.4680   48.5850 O   0  0  0  0  0  0  0  0  0  0  0  0
   35.8550   29.1580   49.8150 C   0  0  0  0  0  0  0  0  0  0  0  0
   34.8400   29.6580   50.6050 C   0  0  0  0  0  0  0  0  0  0  0  0
   33.6360   29.1220   50.1290 C   0  0  0  0  0  0  0  0  0  0  0  0
   34.0000   28.3210   49.0690 C   0  0  0  0  0  0  0  0  0  0  0  0
   35.3060   28.3720   48.9230 O   0  0  0  0  0  0  0  0  0  0  0  0
   34.9030   30.3460   51.4550 H   0  0  0  0  0  0  0  0  0  0  0  0
   32.6580   29.3290   50.5440 H   0  0  0  0  0  0  0  0  0  0  0  0
   37.2480   29.5080   50.0300 C   0  0  0  0  0  0  0  0  0  0  0  0
   37.8980   28.9040   50.8950 O   0  0  0  0  0  0  0  0  0  0  0  0
   37.7920   30.5560   49.2070 C   0  0  0  0  0  0  0  0  0  0  0  0
   38.1370   31.7440   49.8370 C   0  0  0  0  0  0  0  0  0  0  0  0
   38.6650   32.7790   49.0640 C   0  0  0  0  0  0  0  0  0  0  0  0
   38.8140   32.5600   47.7110 N   0  0  0  0  0  0  0  0  0  0  0  0
   38.4730   31.4070   47.1400 C   0  0  0  0  0  0  0  0  0  0  0  0
   37.9640   30.4030   47.8740 N   0  0  0  0  0  0  0  0  0  0  0  0
   38.0080   31.8820   50.8970 H   0  0  0  0  0  0  0  0  0  0  0  0
   38.9330   33.7030   49.5540 H   0  0  0  0  0  0  0  0  0  0  0  0
   38.6210   31.3170   46.0750 H   0  0  0  0  0  0  0  0  0  0  0  0
   33.5840   26.8140   47.0230 C   0  0  1  0  0  0  0  0  0  0  0  0
   33.7660   25.2780   47.3480 C   0  0  0  0  0  0  0  0  0  0  0  0
   32.7710   25.7860   46.3760 C   0  0  2  0  0  0  0  0  0  0  0  0
   34.5430   27.2030   46.6240 H   0  0  0  0  0  0  0  0  0  0  0  0
   33.4650   24.9380   48.3350 H   0  0  0  0  0  0  0  0  0  0  0  0
   34.6700   24.8050   46.9380 H   0  0  0  0  0  0  0  0  0  0  0  0
   31.7130   25.7270   46.7720 H   0  0  0  0  0  0  0  0  0  0  0  0
   32.8800   25.6330   44.9620 N   0  0  0  0  0  0  0  0  0  0  0  0
   34.0310   25.9610   44.3010 C   0  0  0  0  0  3  0  0  0  0  0  0
   34.1450   25.8170   42.9320 C   0  0  0  0  0  0  0  0  0  0  0  0
   35.1120   26.1130   42.5340 H   0  0  0  0  0  0  0  0  0  0  0  0
   33.1030   25.3340   42.1680 C   0  0  0  0  0  0  0  0  0  0  0  0
   33.3530   25.2580   40.9370 O   0  0  0  0  0  0  0  0  0  0  0  0
   31.9740   25.0140   42.8270 N   0  0  0  0  0  0  0  0  0  0  0  0
   31.9060   25.1700   44.1600 C   0  0  0  0  0  0  0  0  0  0  0  0
   30.8080   24.8380   44.6500 O   0  0  0  0  0  0  0  0  0  0  0  0
   31.2080   24.6540   42.2280 H   0  0  0  0  0  0  0  0  0  0  0  0
  1  2  2  0  0  0  0
  1  6  1  0  0  0  0
  3 10  1  0  0  0  0
  3  4  2  0  0  0  0
  4  8  1  0  0  0  0
  5  9  1  0  0  0  0
  5  4  1  0  0  0  0
  6  5  2  0  0  0  0
  7  6  1  0  0  0  0
  7  3  1  0  0  0  0
 10 11  2  0  0  0  0
 12 13  1  0  0  0  0
 12 10  1  0  0  0  0
 13 18  1  0  0  0  0
 14 19  1  0  0  0  0
 14 13  2  0  0  0  0
 15 14  1  0  0  0  0
 16 15  2  0  0  0  0
 16 17  1  0  0  0  0
 17 12  2  0  0  0  0
 20 16  1  0  0  0  0
 21 24  1  6  0  0  0
 21 22  1  0  0  0  0
 21  1  1  0  0  0  0
 22 25  1  0  0  0  0
 23 27  1  1  0  0  0
 23 21  1  0  0  0  0
 23 22  1  0  0  0  0
 26 22  1  0  0  0  0
 28 23  1  0  0  0  0
 29 28  1  0  0  0  0
 30 29  2  0  0  0  0
 31 30  1  0  0  0  0
 32 34  1  0  0  0  0
 32 30  1  0  0  0  0
 33 32  2  0  0  0  0
 34 35  1  0  0  0  0
 35 36  2  0  0  0  0
 35 28  1  0  0  0  0
 37 34  1  0  0  0  0
M  END
>  <minimizedAffinity>
-4.9012351

>  <minimizedRMSD>
0.0596092194

$$$$
