
 OpenBabel03272509063D

 34 36  0  0  0  0  0  0  0  0999 V2000
   39.7180   26.2090   32.5170 C   0  0  0  0  0  0  0  0  0  0  0  0
   39.5740   25.3650   33.6480 C   0  0  0  0  0  0  0  0  0  0  0  0
   38.3820   25.4960   34.4270 C   0  0  0  0  0  0  0  0  0  0  0  0
   37.4760   26.4240   34.0210 N   0  0  0  0  0  0  0  0  0  0  0  0
   37.6610   27.1940   32.9480 C   0  0  0  0  0  0  0  0  0  0  0  0
   38.7780   27.0820   32.2050 N   0  0  0  0  0  0  0  0  0  0  0  0
   40.6350   26.0350   32.0060 H   0  0  0  0  0  0  0  0  0  0  0  0
   40.2940   24.6250   33.9720 H   0  0  0  0  0  0  0  0  0  0  0  0
   38.1950   24.6680   35.5700 N   0  0  0  0  0  0  0  0  0  0  0  0
   38.0820   25.3950   36.7060 C   0  0  0  0  0  3  0  0  0  0  0  0
   37.8930   24.7100   37.9110 C   0  0  0  0  0  0  0  0  0  0  0  0
   37.7920   25.1940   38.8700 H   0  0  0  0  0  0  0  0  0  0  0  0
   37.8300   23.3440   37.8940 C   0  0  0  0  0  0  0  0  0  0  0  0
   37.6660   22.6430   38.9090 O   0  0  0  0  0  0  0  0  0  0  0  0
   37.9470   22.6550   36.7360 N   0  0  0  0  0  0  0  0  0  0  0  0
   38.1290   23.3230   35.5810 C   0  0  0  0  0  0  0  0  0  0  0  0
   38.2580   22.8660   34.4170 O   0  0  0  0  0  0  0  0  0  0  0  0
   37.9120   21.6240   36.6310 H   0  0  0  0  0  0  0  0  0  0  0  0
   36.6050   28.1320   32.6490 C   0  0  0  0  0  3  0  0  0  0  0  0
   35.9090   28.6220   33.6180 C   0  0  0  0  0  3  0  0  0  0  0  0
   34.7980   29.5820   33.5440 C   0  0  0  0  0  0  0  0  0  0  0  0
   33.8420   28.9990   33.5250 H   0  0  0  0  0  0  0  0  0  0  0  0
   34.7880   30.1890   32.6100 H   0  0  0  0  0  0  0  0  0  0  0  0
   34.7370   30.4760   34.7420 C   0  0  0  0  0  0  0  0  0  0  0  0
   35.7670   31.2340   35.2420 C   0  0  0  0  0  0  0  0  0  0  0  0
   35.5920   32.0250   36.3580 C   0  0  0  0  0  0  0  0  0  0  0  0
   34.3600   32.0820   37.0200 C   0  0  0  0  0  0  0  0  0  0  0  0
   33.3230   31.3360   36.5400 C   0  0  0  0  0  0  0  0  0  0  0  0
   33.5160   30.5480   35.4180 C   0  0  0  0  0  0  0  0  0  0  0  0
   36.7130   31.1670   34.7020 H   0  0  0  0  0  0  0  0  0  0  0  0
   36.4540   32.5960   36.6920 H   0  0  0  0  0  0  0  0  0  0  0  0
   34.2900   32.7120   37.8770 H   0  0  0  0  0  0  0  0  0  0  0  0
   32.3540   31.3540   37.0260 H   0  0  0  0  0  0  0  0  0  0  0  0
   32.6800   29.9770   35.0710 H   0  0  0  0  0  0  0  0  0  0  0  0
  1  2  1  0  0  0  0
  2  8  1  0  0  0  0
  2  3  2  0  0  0  0
  3  9  1  0  0  0  0
  4  3  1  0  0  0  0
  5  4  2  0  0  0  0
  6  1  2  0  0  0  0
  6  5  1  0  0  0  0
  7  1  1  0  0  0  0
  9 16  1  0  0  0  0
  9 10  1  0  0  0  0
 10 11  2  0  0  0  0
 11 12  1  0  0  0  0
 13 11  1  0  0  0  0
 13 14  2  0  0  0  0
 15 13  1  0  0  0  0
 16 15  1  0  0  0  0
 17 16  2  0  0  0  0
 18 15  1  0  0  0  0
 19  5  1  0  0  0  0
 19 20  2  0  0  0  0
 21 20  1  0  0  0  0
 21 24  1  0  0  0  0
 22 21  1  0  0  0  0
 23 21  1  0  0  0  0
 24 25  2  0  0  0  0
 24 29  1  0  0  0  0
 25 26  1  0  0  0  0
 26 31  1  0  0  0  0
 26 27  2  0  0  0  0
 27 32  1  0  0  0  0
 28 27  1  0  0  0  0
 28 33  1  0  0  0  0
 29 28  2  0  0  0  0
 30 25  1  0  0  0  0
 34 29  1  0  0  0  0
M  END
>  <minimizedAffinity>
-6.13643551

$$$$

 OpenBabel03272509063D

 34 36  0  0  0  0  0  0  0  0999 V2000
   39.5060   25.9730   32.2090 C   0  0  0  0  0  0  0  0  0  0  0  0
   39.4330   25.1930   33.3920 C   0  0  0  0  0  0  0  0  0  0  0  0
   38.2790   25.3520   34.2220 C   0  0  0  0  0  0  0  0  0  0  0  0
   37.3380   26.2440   33.8110 N   0  0  0  0  0  0  0  0  0  0  0  0
   37.4560   26.9530   32.6890 C   0  0  0  0  0  0  0  0  0  0  0  0
   38.5360   26.8140   31.8970 N   0  0  0  0  0  0  0  0  0  0  0  0
   40.3980   25.7830   31.6630 H   0  0  0  0  0  0  0  0  0  0  0  0
   40.1800   24.4840   33.7200 H   0  0  0  0  0  0  0  0  0  0  0  0
   38.1630   24.5890   35.4180 N   0  0  0  0  0  0  0  0  0  0  0  0
   38.0960   25.3780   36.5150 C   0  0  0  0  0  3  0  0  0  0  0  0
   37.9790   24.7610   37.7660 C   0  0  0  0  0  0  0  0  0  0  0  0
   37.9180   25.2980   38.7000 H   0  0  0  0  0  0  0  0  0  0  0  0
   37.9380   23.3960   37.8290 C   0  0  0  0  0  0  0  0  0  0  0  0
   37.8360   22.7520   38.8890 O   0  0  0  0  0  0  0  0  0  0  0  0
   38.0080   22.6430   36.7080 N   0  0  0  0  0  0  0  0  0  0  0  0
   38.1200   23.2460   35.5090 C   0  0  0  0  0  0  0  0  0  0  0  0
   38.1990   22.7250   34.3670 O   0  0  0  0  0  0  0  0  0  0  0  0
   37.9840   21.6070   36.6630 H   0  0  0  0  0  0  0  0  0  0  0  0
   36.3720   27.8580   32.3910 C   0  0  0  0  0  3  0  0  0  0  0  0
   35.8570   28.5550   33.3460 C   0  0  0  0  0  3  0  0  0  0  0  0
   34.7570   29.5280   33.2720 C   0  0  0  0  0  0  0  0  0  0  0  0
   33.8010   28.9550   33.1590 H   0  0  0  0  0  0  0  0  0  0  0  0
   34.8040   30.1940   32.3800 H   0  0  0  0  0  0  0  0  0  0  0  0
   34.6300   30.3420   34.5210 C   0  0  0  0  0  0  0  0  0  0  0  0
   33.4900   30.5070   35.2680 C   0  0  0  0  0  0  0  0  0  0  0  0
   33.4920   31.2850   36.4060 C   0  0  0  0  0  0  0  0  0  0  0  0
   34.6560   31.9320   36.8400 C   0  0  0  0  0  0  0  0  0  0  0  0
   35.8000   31.7800   36.1120 C   0  0  0  0  0  0  0  0  0  0  0  0
   35.7800   30.9960   34.9710 C   0  0  0  0  0  0  0  0  0  0  0  0
   32.6020   29.9890   34.9020 H   0  0  0  0  0  0  0  0  0  0  0  0
   32.5520   31.3670   36.9440 H   0  0  0  0  0  0  0  0  0  0  0  0
   34.5920   32.5170   37.7280 H   0  0  0  0  0  0  0  0  0  0  0  0
   36.7210   32.2660   36.4150 H   0  0  0  0  0  0  0  0  0  0  0  0
   36.6960   30.9010   34.4260 H   0  0  0  0  0  0  0  0  0  0  0  0
  1  2  1  0  0  0  0
  2  8  1  0  0  0  0
  2  3  2  0  0  0  0
  3  9  1  0  0  0  0
  4  3  1  0  0  0  0
  5  4  2  0  0  0  0
  6  1  2  0  0  0  0
  6  5  1  0  0  0  0
  7  1  1  0  0  0  0
  9 16  1  0  0  0  0
  9 10  1  0  0  0  0
 10 11  2  0  0  0  0
 11 13  1  0  0  0  0
 11 12  1  0  0  0  0
 13 14  2  0  0  0  0
 15 13  1  0  0  0  0
 16 15  1  0  0  0  0
 17 16  2  0  0  0  0
 18 15  1  0  0  0  0
 19  5  1  0  0  0  0
 19 20  2  0  0  0  0
 21 20  1  0  0  0  0
 21 24  1  0  0  0  0
 22 21  1  0  0  0  0
 23 21  1  0  0  0  0
 24 29  2  0  0  0  0
 24 25  1  0  0  0  0
 25 26  2  0  0  0  0
 26 27  1  0  0  0  0
 26 31  1  0  0  0  0
 27 32  1  0  0  0  0
 28 33  1  0  0  0  0
 28 27  2  0  0  0  0
 29 28  1  0  0  0  0
 30 25  1  0  0  0  0
 34 29  1  0  0  0  0
M  END
>  <minimizedAffinity>
-6.07474422

$$$$

 OpenBabel03272509063D

 34 36  0  0  0  0  0  0  0  0999 V2000
   39.2200   25.2540   31.8350 C   0  0  0  0  0  0  0  0  0  0  0  0
   39.1920   24.5950   33.0910 C   0  0  0  0  0  0  0  0  0  0  0  0
   38.1410   24.9370   33.9980 C   0  0  0  0  0  0  0  0  0  0  0  0
   37.2450   25.8730   33.5830 N   0  0  0  0  0  0  0  0  0  0  0  0
   37.3170   26.4630   32.3900 C   0  0  0  0  0  0  0  0  0  0  0  0
   38.3010   26.1520   31.5260 N   0  0  0  0  0  0  0  0  0  0  0  0
   40.0370   24.9320   31.2360 H   0  0  0  0  0  0  0  0  0  0  0  0
   39.9030   23.8500   33.4220 H   0  0  0  0  0  0  0  0  0  0  0  0
   38.0730   24.3000   35.2690 N   0  0  0  0  0  0  0  0  0  0  0  0
   38.1780   25.1880   36.2840 C   0  0  0  0  0  3  0  0  0  0  0  0
   38.1280   24.7000   37.5950 C   0  0  0  0  0  0  0  0  0  0  0  0
   38.2020   25.3220   38.4740 H   0  0  0  0  0  0  0  0  0  0  0  0
   37.9750   23.3560   37.7960 C   0  0  0  0  0  0  0  0  0  0  0  0
   37.9190   22.8230   38.9200 O   0  0  0  0  0  0  0  0  0  0  0  0
   37.8740   22.5010   36.7530 N   0  0  0  0  0  0  0  0  0  0  0  0
   37.9230   22.9800   35.4950 C   0  0  0  0  0  0  0  0  0  0  0  0
   37.8480   22.3530   34.4080 O   0  0  0  0  0  0  0  0  0  0  0  0
   37.7570   21.4730   36.8120 H   0  0  0  0  0  0  0  0  0  0  0  0
   36.2910   27.4360   32.1000 C   0  0  0  0  0  3  0  0  0  0  0  0
   36.2300   28.5130   32.8070 C   0  0  0  0  0  3  0  0  0  0  0  0
   35.2780   29.6270   32.6860 C   0  0  0  0  0  0  0  0  0  0  0  0
   34.2710   29.2510   33.0030 H   0  0  0  0  0  0  0  0  0  0  0  0
   35.1380   29.9900   31.6430 H   0  0  0  0  0  0  0  0  0  0  0  0
   35.6190   30.7690   33.5910 C   0  0  0  0  0  0  0  0  0  0  0  0
   35.9070   32.0530   33.2020 C   0  0  0  0  0  0  0  0  0  0  0  0
   36.2080   33.0270   34.1300 C   0  0  0  0  0  0  0  0  0  0  0  0
   36.2290   32.7410   35.5000 C   0  0  0  0  0  0  0  0  0  0  0  0
   35.9450   31.4700   35.9090 C   0  0  0  0  0  0  0  0  0  0  0  0
   35.6450   30.5050   34.9630 C   0  0  0  0  0  0  0  0  0  0  0  0
   35.8810   32.2420   32.1270 H   0  0  0  0  0  0  0  0  0  0  0  0
   36.4240   34.0190   33.7440 H   0  0  0  0  0  0  0  0  0  0  0  0
   36.4690   33.5380   36.1670 H   0  0  0  0  0  0  0  0  0  0  0  0
   35.9520   31.2100   36.9610 H   0  0  0  0  0  0  0  0  0  0  0  0
   35.4280   29.5190   35.3210 H   0  0  0  0  0  0  0  0  0  0  0  0
  1  2  1  0  0  0  0
  2  8  1  0  0  0  0
  2  3  2  0  0  0  0
  3  9  1  0  0  0  0
  4  3  1  0  0  0  0
  5  4  2  0  0  0  0
  6  1  2  0  0  0  0
  6  5  1  0  0  0  0
  7  1  1  0  0  0  0
  9 16  1  0  0  0  0
  9 10  1  0  0  0  0
 10 11  2  0  0  0  0
 11 13  1  0  0  0  0
 11 12  1  0  0  0  0
 13 14  2  0  0  0  0
 15 18  1  0  0  0  0
 15 13  1  0  0  0  0
 16 15  1  0  0  0  0
 17 16  2  0  0  0  0
 19  5  1  0  0  0  0
 19 20  2  0  0  0  0
 21 20  1  0  0  0  0
 21 22  1  0  0  0  0
 21 24  1  0  0  0  0
 23 21  1  0  0  0  0
 24 29  1  0  0  0  0
 25 24  2  0  0  0  0
 25 26  1  0  0  0  0
 26 27  2  0  0  0  0
 27 28  1  0  0  0  0
 27 32  1  0  0  0  0
 28 33  1  0  0  0  0
 29 34  1  0  0  0  0
 29 28  2  0  0  0  0
 30 25  1  0  0  0  0
 31 26  1  0  0  0  0
M  END
>  <minimizedAffinity>
-6.06516361

$$$$

 OpenBabel03272509063D

 34 36  0  0  0  0  0  0  0  0999 V2000
   36.8340   24.2000   32.0650 C   0  0  0  0  0  0  0  0  0  0  0  0
   37.5910   23.4530   33.0040 C   0  0  0  0  0  0  0  0  0  0  0  0
   38.1370   24.1540   34.1240 C   0  0  0  0  0  0  0  0  0  0  0  0
   37.8880   25.4890   34.2020 N   0  0  0  0  0  0  0  0  0  0  0  0
   37.1690   26.1440   33.2900 C   0  0  0  0  0  0  0  0  0  0  0  0
   36.6480   25.4970   32.2300 N   0  0  0  0  0  0  0  0  0  0  0  0
   36.4730   23.5910   31.2720 H   0  0  0  0  0  0  0  0  0  0  0  0
   37.7900   22.3920   32.9440 H   0  0  0  0  0  0  0  0  0  0  0  0
   38.9030   23.4450   35.0920 N   0  0  0  0  0  0  0  0  0  0  0  0
   40.1690   23.9140   35.1760 C   0  0  0  0  0  3  0  0  0  0  0  0
   41.0380   23.3080   36.0910 C   0  0  0  0  0  0  0  0  0  0  0  0
   42.0650   23.6050   36.2350 H   0  0  0  0  0  0  0  0  0  0  0  0
   40.5760   22.2750   36.8580 C   0  0  0  0  0  0  0  0  0  0  0  0
   41.2670   21.6700   37.6980 O   0  0  0  0  0  0  0  0  0  0  0  0
   39.3020   21.8360   36.7430 N   0  0  0  0  0  0  0  0  0  0  0  0
   38.4730   22.4250   35.8600 C   0  0  0  0  0  0  0  0  0  0  0  0
   37.2690   22.1630   35.6110 O   0  0  0  0  0  0  0  0  0  0  0  0
   38.8700   21.0620   37.2820 H   0  0  0  0  0  0  0  0  0  0  0  0
   36.9940   27.5590   33.5150 C   0  0  0  0  0  3  0  0  0  0  0  0
   36.3290   28.2530   32.6540 C   0  0  0  0  0  3  0  0  0  0  0  0
   36.0310   29.6920   32.6830 C   0  0  0  0  0  0  0  0  0  0  0  0
   35.4980   29.9500   31.7320 H   0  0  0  0  0  0  0  0  0  0  0  0
   36.9370   30.3400   32.6920 H   0  0  0  0  0  0  0  0  0  0  0  0
   35.1170   30.0630   33.8070 C   0  0  0  0  0  0  0  0  0  0  0  0
   33.8490   29.5800   34.0150 C   0  0  0  0  0  0  0  0  0  0  0  0
   33.0960   29.9960   35.0910 C   0  0  0  0  0  0  0  0  0  0  0  0
   33.5970   30.9260   36.0100 C   0  0  0  0  0  0  0  0  0  0  0  0
   34.8560   31.4190   35.8230 C   0  0  0  0  0  0  0  0  0  0  0  0
   35.5980   30.9900   34.7360 C   0  0  0  0  0  0  0  0  0  0  0  0
   33.4890   28.8570   33.2800 H   0  0  0  0  0  0  0  0  0  0  0  0
   32.1020   29.5680   35.1880 H   0  0  0  0  0  0  0  0  0  0  0  0
   32.9650   31.2060   36.8220 H   0  0  0  0  0  0  0  0  0  0  0  0
   35.2780   32.1410   36.5130 H   0  0  0  0  0  0  0  0  0  0  0  0
   36.5810   31.3990   34.6220 H   0  0  0  0  0  0  0  0  0  0  0  0
  1  6  2  0  0  0  0
  1  2  1  0  0  0  0
  2  3  2  0  0  0  0
  3  4  1  0  0  0  0
  3  9  1  0  0  0  0
  5 19  1  0  0  0  0
  5  4  2  0  0  0  0
  6  5  1  0  0  0  0
  7  1  1  0  0  0  0
  8  2  1  0  0  0  0
  9 10  1  0  0  0  0
  9 16  1  0  0  0  0
 10 11  2  0  0  0  0
 11 12  1  0  0  0  0
 11 13  1  0  0  0  0
 13 14  2  0  0  0  0
 15 13  1  0  0  0  0
 15 18  1  0  0  0  0
 16 15  1  0  0  0  0
 17 16  2  0  0  0  0
 20 21  1  0  0  0  0
 20 19  2  0  0  0  0
 21 23  1  0  0  0  0
 21 24  1  0  0  0  0
 22 21  1  0  0  0  0
 24 25  2  0  0  0  0
 24 29  1  0  0  0  0
 25 26  1  0  0  0  0
 26 31  1  0  0  0  0
 26 27  2  0  0  0  0
 27 32  1  0  0  0  0
 28 27  1  0  0  0  0
 28 33  1  0  0  0  0
 29 28  2  0  0  0  0
 30 25  1  0  0  0  0
 34 29  1  0  0  0  0
M  END
>  <minimizedAffinity>
-5.97417259

$$$$

 OpenBabel03272509063D

 34 36  0  0  0  0  0  0  0  0999 V2000
   35.3410   24.8610   30.9610 C   0  0  0  0  0  0  0  0  0  0  0  0
   35.2160   26.2600   31.1650 C   0  0  0  0  0  0  0  0  0  0  0  0
   36.1330   26.8830   32.0680 C   0  0  0  0  0  0  0  0  0  0  0  0
   37.0570   26.0830   32.6630 N   0  0  0  0  0  0  0  0  0  0  0  0
   37.1300   24.7710   32.4370 C   0  0  0  0  0  0  0  0  0  0  0  0
   36.2750   24.1700   31.5890 N   0  0  0  0  0  0  0  0  0  0  0  0
   34.6160   24.4940   30.2750 H   0  0  0  0  0  0  0  0  0  0  0  0
   34.4820   26.8970   30.6910 H   0  0  0  0  0  0  0  0  0  0  0  0
   36.0450   28.2850   32.3020 N   0  0  0  0  0  0  0  0  0  0  0  0
   35.7900   28.5640   33.6010 C   0  0  0  0  0  3  0  0  0  0  0  0
   35.6780   29.9070   33.9780 C   0  0  0  0  0  0  0  0  0  0  0  0
   35.4770   30.2360   34.9850 H   0  0  0  0  0  0  0  0  0  0  0  0
   35.8280   30.8760   33.0250 C   0  0  0  0  0  0  0  0  0  0  0  0
   35.7470   32.0970   33.2560 O   0  0  0  0  0  0  0  0  0  0  0  0
   36.0820   30.5550   31.7360 N   0  0  0  0  0  0  0  0  0  0  0  0
   36.1890   29.2590   31.3830 C   0  0  0  0  0  0  0  0  0  0  0  0
   36.4190   28.7660   30.2500 O   0  0  0  0  0  0  0  0  0  0  0  0
   36.2100   31.2210   30.9520 H   0  0  0  0  0  0  0  0  0  0  0  0
   38.1670   24.0610   33.1470 C   0  0  0  0  0  3  0  0  0  0  0  0
   37.8770   22.9490   33.7320 C   0  0  0  0  0  3  0  0  0  0  0  0
   38.7660   22.0680   34.5030 C   0  0  0  0  0  0  0  0  0  0  0  0
   39.7890   22.1350   34.0520 H   0  0  0  0  0  0  0  0  0  0  0  0
   38.4930   20.9900   34.4450 H   0  0  0  0  0  0  0  0  0  0  0  0
   38.8930   22.4950   35.9320 C   0  0  0  0  0  0  0  0  0  0  0  0
   40.0260   22.4220   36.7020 C   0  0  0  0  0  0  0  0  0  0  0  0
   40.0250   22.8470   38.0130 C   0  0  0  0  0  0  0  0  0  0  0  0
   38.8680   23.3690   38.6040 C   0  0  0  0  0  0  0  0  0  0  0  0
   37.7290   23.4510   37.8560 C   0  0  0  0  0  0  0  0  0  0  0  0
   37.7490   23.0180   36.5410 C   0  0  0  0  0  0  0  0  0  0  0  0
   40.9100   22.0110   36.2100 H   0  0  0  0  0  0  0  0  0  0  0  0
   40.9610   22.7580   38.5570 H   0  0  0  0  0  0  0  0  0  0  0  0
   38.9310   23.6810   39.6210 H   0  0  0  0  0  0  0  0  0  0  0  0
   36.8130   23.8480   38.2790 H   0  0  0  0  0  0  0  0  0  0  0  0
   36.8380   23.0970   35.9850 H   0  0  0  0  0  0  0  0  0  0  0  0
  1  2  2  0  0  0  0
  1  6  1  0  0  0  0
  2  3  1  0  0  0  0
  3  9  1  0  0  0  0
  3  4  2  0  0  0  0
  5  4  1  0  0  0  0
  5 19  1  0  0  0  0
  6  5  2  0  0  0  0
  7  1  1  0  0  0  0
  8  2  1  0  0  0  0
  9 10  1  0  0  0  0
 10 11  2  0  0  0  0
 11 12  1  0  0  0  0
 13 14  2  0  0  0  0
 13 11  1  0  0  0  0
 15 13  1  0  0  0  0
 16 15  1  0  0  0  0
 16  9  1  0  0  0  0
 17 16  2  0  0  0  0
 18 15  1  0  0  0  0
 19 20  2  0  0  0  0
 20 21  1  0  0  0  0
 21 24  1  0  0  0  0
 22 21  1  0  0  0  0
 23 21  1  0  0  0  0
 24 29  2  0  0  0  0
 24 25  1  0  0  0  0
 25 26  2  0  0  0  0
 26 31  1  0  0  0  0
 26 27  1  0  0  0  0
 27 32  1  0  0  0  0
 28 33  1  0  0  0  0
 28 27  2  0  0  0  0
 29 28  1  0  0  0  0
 30 25  1  0  0  0  0
 34 29  1  0  0  0  0
M  END
>  <minimizedAffinity>
-5.79459429

$$$$

 OpenBabel03272509063D

 34 36  0  0  0  0  0  0  0  0999 V2000
   36.3240   29.0730   30.9610 C   0  0  0  0  0  0  0  0  0  0  0  0
   36.3830   27.6630   30.8080 C   0  0  0  0  0  0  0  0  0  0  0  0
   36.2620   26.8630   31.9870 C   0  0  0  0  0  0  0  0  0  0  0  0
   36.1000   27.5180   33.1670 N   0  0  0  0  0  0  0  0  0  0  0  0
   36.0530   28.8470   33.2550 C   0  0  0  0  0  0  0  0  0  0  0  0
   36.1650   29.6140   32.1550 N   0  0  0  0  0  0  0  0  0  0  0  0
   36.4230   29.5770   30.0300 H   0  0  0  0  0  0  0  0  0  0  0  0
   36.5110   27.1410   29.8710 H   0  0  0  0  0  0  0  0  0  0  0  0
   36.3140   25.4440   31.8810 N   0  0  0  0  0  0  0  0  0  0  0  0
   37.3500   24.9240   32.5790 C   0  0  0  0  0  3  0  0  0  0  0  0
   37.5240   23.5350   32.5650 C   0  0  0  0  0  0  0  0  0  0  0  0
   38.3170   23.0210   33.0870 H   0  0  0  0  0  0  0  0  0  0  0  0
   36.6470   22.7660   31.8520 C   0  0  0  0  0  0  0  0  0  0  0  0
   36.7150   21.5250   31.7750 O   0  0  0  0  0  0  0  0  0  0  0  0
   35.6240   23.3250   31.1670 N   0  0  0  0  0  0  0  0  0  0  0  0
   35.4640   24.6620   31.1870 C   0  0  0  0  0  0  0  0  0  0  0  0
   34.5860   25.3610   30.6210 O   0  0  0  0  0  0  0  0  0  0  0  0
   34.9160   22.8200   30.6030 H   0  0  0  0  0  0  0  0  0  0  0  0
   35.8770   29.3900   34.5810 C   0  0  0  0  0  3  0  0  0  0  0  0
   35.7780   30.6680   34.7270 C   0  0  0  0  0  3  0  0  0  0  0  0
   35.5960   31.4290   35.9720 C   0  0  0  0  0  0  0  0  0  0  0  0
   36.3160   31.0250   36.7280 H   0  0  0  0  0  0  0  0  0  0  0  0
   34.5900   31.3070   36.4330 H   0  0  0  0  0  0  0  0  0  0  0  0
   35.9150   32.8820   35.8030 C   0  0  0  0  0  0  0  0  0  0  0  0
   37.0270   33.4010   35.1890 C   0  0  0  0  0  0  0  0  0  0  0  0
   37.2160   34.7630   35.0920 C   0  0  0  0  0  0  0  0  0  0  0  0
   36.2800   35.6640   35.6160 C   0  0  0  0  0  0  0  0  0  0  0  0
   35.1670   35.1680   36.2300 C   0  0  0  0  0  0  0  0  0  0  0  0
   34.9940   33.7980   36.3190 C   0  0  0  0  0  0  0  0  0  0  0  0
   37.7360   32.6720   34.7910 H   0  0  0  0  0  0  0  0  0  0  0  0
   38.1200   35.0980   34.5910 H   0  0  0  0  0  0  0  0  0  0  0  0
   36.4840   36.7040   35.5080 H   0  0  0  0  0  0  0  0  0  0  0  0
   34.4200   35.8330   36.6490 H   0  0  0  0  0  0  0  0  0  0  0  0
   34.1090   33.4450   36.8080 H   0  0  0  0  0  0  0  0  0  0  0  0
  1  6  1  0  0  0  0
  2  1  2  0  0  0  0
  2  3  1  0  0  0  0
  3  4  2  0  0  0  0
  4  5  1  0  0  0  0
  5 19  1  0  0  0  0
  6  5  2  0  0  0  0
  7  1  1  0  0  0  0
  8  2  1  0  0  0  0
  9  3  1  0  0  0  0
  9 10  1  0  0  0  0
 11 10  2  0  0  0  0
 11 12  1  0  0  0  0
 13 11  1  0  0  0  0
 14 13  2  0  0  0  0
 15 16  1  0  0  0  0
 15 13  1  0  0  0  0
 16  9  1  0  0  0  0
 17 16  2  0  0  0  0
 18 15  1  0  0  0  0
 19 20  2  0  0  0  0
 20 21  1  0  0  0  0
 21 23  1  0  0  0  0
 21 22  1  0  0  0  0
 24 21  1  0  0  0  0
 24 29  1  0  0  0  0
 25 24  2  0  0  0  0
 26 25  1  0  0  0  0
 26 27  2  0  0  0  0
 27 28  1  0  0  0  0
 28 29  2  0  0  0  0
 28 33  1  0  0  0  0
 29 34  1  0  0  0  0
 30 25  1  0  0  0  0
 31 26  1  0  0  0  0
 32 27  1  0  0  0  0
M  END
>  <minimizedAffinity>
-5.77423954

$$$$

 OpenBabel03272509063D

 34 36  0  0  0  0  0  0  0  0999 V2000
   35.7750   21.5600   32.2150 C   0  0  0  0  0  0  0  0  0  0  0  0
   36.7150   21.3700   33.2600 C   0  0  0  0  0  0  0  0  0  0  0  0
   37.5970   22.4540   33.5660 C   0  0  0  0  0  0  0  0  0  0  0  0
   37.4650   23.5870   32.8270 N   0  0  0  0  0  0  0  0  0  0  0  0
   36.5620   23.7140   31.8540 C   0  0  0  0  0  0  0  0  0  0  0  0
   35.7260   22.7030   31.5540 N   0  0  0  0  0  0  0  0  0  0  0  0
   35.1680   20.7000   32.0660 H   0  0  0  0  0  0  0  0  0  0  0  0
   36.8220   20.4700   33.8490 H   0  0  0  0  0  0  0  0  0  0  0  0
   38.5560   22.3070   34.6080 N   0  0  0  0  0  0  0  0  0  0  0  0
   39.8220   22.4350   34.1490 C   0  0  0  0  0  3  0  0  0  0  0  0
   40.8720   22.3130   35.0670 C   0  0  0  0  0  0  0  0  0  0  0  0
   41.9150   22.3980   34.8050 H   0  0  0  0  0  0  0  0  0  0  0  0
   40.5780   22.0740   36.3800 C   0  0  0  0  0  0  0  0  0  0  0  0
   41.4370   21.9490   37.2730 O   0  0  0  0  0  0  0  0  0  0  0  0
   39.2970   21.9530   36.7990 N   0  0  0  0  0  0  0  0  0  0  0  0
   38.2940   22.0710   35.9080 C   0  0  0  0  0  0  0  0  0  0  0  0
   37.0540   21.9910   36.1000 O   0  0  0  0  0  0  0  0  0  0  0  0
   38.9850   21.7720   37.7710 H   0  0  0  0  0  0  0  0  0  0  0  0
   36.5480   24.9810   31.1610 C   0  0  0  0  0  3  0  0  0  0  0  0
   37.2340   25.9630   31.6380 C   0  0  0  0  0  3  0  0  0  0  0  0
   37.3630   27.3260   31.1030 C   0  0  0  0  0  0  0  0  0  0  0  0
   36.8220   27.3610   30.1220 H   0  0  0  0  0  0  0  0  0  0  0  0
   38.4110   27.6210   30.8670 H   0  0  0  0  0  0  0  0  0  0  0  0
   36.7240   28.3500   31.9870 C   0  0  0  0  0  0  0  0  0  0  0  0
   36.2860   29.5930   31.6040 C   0  0  0  0  0  0  0  0  0  0  0  0
   35.7080   30.4550   32.5110 C   0  0  0  0  0  0  0  0  0  0  0  0
   35.5490   30.0940   33.8540 C   0  0  0  0  0  0  0  0  0  0  0  0
   35.9770   28.8620   34.2570 C   0  0  0  0  0  0  0  0  0  0  0  0
   36.5550   28.0090   33.3320 C   0  0  0  0  0  0  0  0  0  0  0  0
   36.4250   29.8420   30.5500 H   0  0  0  0  0  0  0  0  0  0  0  0
   35.3870   31.4210   32.1310 H   0  0  0  0  0  0  0  0  0  0  0  0
   35.0950   30.8050   34.5060 H   0  0  0  0  0  0  0  0  0  0  0  0
   35.8720   28.5460   35.2890 H   0  0  0  0  0  0  0  0  0  0  0  0
   36.8790   27.0510   33.6840 H   0  0  0  0  0  0  0  0  0  0  0  0
  1  2  1  0  0  0  0
  2  3  2  0  0  0  0
  2  8  1  0  0  0  0
  3  9  1  0  0  0  0
  4  3  1  0  0  0  0
  5  4  2  0  0  0  0
  6  5  1  0  0  0  0
  6  1  2  0  0  0  0
  7  1  1  0  0  0  0
  9 16  1  0  0  0  0
 10  9  1  0  0  0  0
 10 11  2  0  0  0  0
 11 13  1  0  0  0  0
 12 11  1  0  0  0  0
 13 15  1  0  0  0  0
 13 14  2  0  0  0  0
 15 18  1  0  0  0  0
 16 17  2  0  0  0  0
 16 15  1  0  0  0  0
 19 20  2  0  0  0  0
 19  5  1  0  0  0  0
 21 20  1  0  0  0  0
 21 24  1  0  0  0  0
 22 21  1  0  0  0  0
 23 21  1  0  0  0  0
 24 29  1  0  0  0  0
 25 24  2  0  0  0  0
 25 26  1  0  0  0  0
 26 27  2  0  0  0  0
 27 28  1  0  0  0  0
 27 32  1  0  0  0  0
 28 33  1  0  0  0  0
 29 34  1  0  0  0  0
 29 28  2  0  0  0  0
 30 25  1  0  0  0  0
 31 26  1  0  0  0  0
M  END
>  <minimizedAffinity>
-5.68930674

$$$$

 OpenBabel03272509063D

 34 36  0  0  0  0  0  0  0  0999 V2000
   35.8690   30.2120   32.1850 C   0  0  0  0  0  0  0  0  0  0  0  0
   35.4530   31.2020   33.1130 C   0  0  0  0  0  0  0  0  0  0  0  0
   35.4900   30.8670   34.5030 C   0  0  0  0  0  0  0  0  0  0  0  0
   35.9220   29.6190   34.8280 N   0  0  0  0  0  0  0  0  0  0  0  0
   36.3020   28.7250   33.9140 C   0  0  0  0  0  0  0  0  0  0  0  0
   36.2720   29.0260   32.6030 N   0  0  0  0  0  0  0  0  0  0  0  0
   35.8040   30.5580   31.1810 H   0  0  0  0  0  0  0  0  0  0  0  0
   35.1100   32.1950   32.8570 H   0  0  0  0  0  0  0  0  0  0  0  0
   35.0840   31.8300   35.4690 N   0  0  0  0  0  0  0  0  0  0  0  0
   34.0260   31.3990   36.1950 C   0  0  0  0  0  3  0  0  0  0  0  0
   33.5180   32.2460   37.1860 C   0  0  0  0  0  0  0  0  0  0  0  0
   32.6790   31.9990   37.8190 H   0  0  0  0  0  0  0  0  0  0  0  0
   34.1060   33.4650   37.3800 C   0  0  0  0  0  0  0  0  0  0  0  0
   33.7300   34.2910   38.2340 O   0  0  0  0  0  0  0  0  0  0  0  0
   35.1620   33.8580   36.6330 N   0  0  0  0  0  0  0  0  0  0  0  0
   35.6440   33.0360   35.6810 C   0  0  0  0  0  0  0  0  0  0  0  0
   36.6070   33.2190   34.8930 O   0  0  0  0  0  0  0  0  0  0  0  0
   35.6670   34.7600   36.7110 H   0  0  0  0  0  0  0  0  0  0  0  0
   36.7340   27.4440   34.4200 C   0  0  0  0  0  3  0  0  0  0  0  0
   37.6840   27.4030   35.2910 C   0  0  0  0  0  3  0  0  0  0  0  0
   38.2770   26.2210   35.9350 C   0  0  0  0  0  0  0  0  0  0  0  0
   37.5730   25.3620   35.7870 H   0  0  0  0  0  0  0  0  0  0  0  0
   38.3910   26.3180   37.0380 H   0  0  0  0  0  0  0  0  0  0  0  0
   39.5790   25.8260   35.3120 C   0  0  0  0  0  0  0  0  0  0  0  0
   40.0670   24.5480   35.1960 C   0  0  0  0  0  0  0  0  0  0  0  0
   41.2860   24.3030   34.6000 C   0  0  0  0  0  0  0  0  0  0  0  0
   42.0680   25.3470   34.0940 C   0  0  0  0  0  0  0  0  0  0  0  0
   41.6010   26.6260   34.1980 C   0  0  0  0  0  0  0  0  0  0  0  0
   40.3750   26.8530   34.8000 C   0  0  0  0  0  0  0  0  0  0  0  0
   39.4320   23.7570   35.6010 H   0  0  0  0  0  0  0  0  0  0  0  0
   41.6030   23.2650   34.5460 H   0  0  0  0  0  0  0  0  0  0  0  0
   43.0000   25.0920   33.6440 H   0  0  0  0  0  0  0  0  0  0  0  0
   42.1780   27.4610   33.8180 H   0  0  0  0  0  0  0  0  0  0  0  0
   40.0420   27.8690   34.8640 H   0  0  0  0  0  0  0  0  0  0  0  0
  1  6  2  0  0  0  0
  1  2  1  0  0  0  0
  2  3  2  0  0  0  0
  3  4  1  0  0  0  0
  3  9  1  0  0  0  0
  5 19  1  0  0  0  0
  5  4  2  0  0  0  0
  6  5  1  0  0  0  0
  7  1  1  0  0  0  0
  8  2  1  0  0  0  0
  9 16  1  0  0  0  0
  9 10  1  0  0  0  0
 10 11  2  0  0  0  0
 11 13  1  0  0  0  0
 11 12  1  0  0  0  0
 13 14  2  0  0  0  0
 15 18  1  0  0  0  0
 15 13  1  0  0  0  0
 16 15  1  0  0  0  0
 17 16  2  0  0  0  0
 19 20  2  0  0  0  0
 20 21  1  0  0  0  0
 21 23  1  0  0  0  0
 22 21  1  0  0  0  0
 24 21  1  0  0  0  0
 25 24  1  0  0  0  0
 25 30  1  0  0  0  0
 26 25  2  0  0  0  0
 27 28  2  0  0  0  0
 27 26  1  0  0  0  0
 28 29  1  0  0  0  0
 29 34  1  0  0  0  0
 29 24  2  0  0  0  0
 31 26  1  0  0  0  0
 32 27  1  0  0  0  0
 33 28  1  0  0  0  0
M  END
>  <minimizedAffinity>
-5.55078793

$$$$

 OpenBabel03272509063D

 34 36  0  0  0  0  0  0  0  0999 V2000
   38.5280   20.9610   30.4350 C   0  0  0  0  0  0  0  0  0  0  0  0
   37.9220   20.6370   31.6760 C   0  0  0  0  0  0  0  0  0  0  0  0
   37.4570   21.7170   32.4900 C   0  0  0  0  0  0  0  0  0  0  0  0
   37.6340   22.9770   32.0080 N   0  0  0  0  0  0  0  0  0  0  0  0
   38.2120   23.2260   30.8330 C   0  0  0  0  0  0  0  0  0  0  0  0
   38.6540   22.2200   30.0560 N   0  0  0  0  0  0  0  0  0  0  0  0
   38.8380   20.0920   29.9060 H   0  0  0  0  0  0  0  0  0  0  0  0
   37.7800   19.6370   32.0600 H   0  0  0  0  0  0  0  0  0  0  0  0
   36.8410   21.4390   33.7430 N   0  0  0  0  0  0  0  0  0  0  0  0
   37.5250   21.9880   34.7740 C   0  0  0  0  0  3  0  0  0  0  0  0
   37.0330   21.7950   36.0690 C   0  0  0  0  0  0  0  0  0  0  0  0
   37.5020   22.1890   36.9580 H   0  0  0  0  0  0  0  0  0  0  0  0
   35.8900   21.0650   36.2410 C   0  0  0  0  0  0  0  0  0  0  0  0
   35.3710   20.8360   37.3490 O   0  0  0  0  0  0  0  0  0  0  0  0
   35.2360   20.5330   35.1830 N   0  0  0  0  0  0  0  0  0  0  0  0
   35.7170   20.7250   33.9400 C   0  0  0  0  0  0  0  0  0  0  0  0
   35.2570   20.3150   32.8430 O   0  0  0  0  0  0  0  0  0  0  0  0
   34.3660   19.9690   35.2210 H   0  0  0  0  0  0  0  0  0  0  0  0
   38.3260   24.6170   30.4640 C   0  0  0  0  0  3  0  0  0  0  0  0
   38.1690   25.5210   31.3700 C   0  0  0  0  0  3  0  0  0  0  0  0
   38.2420   26.9820   31.2190 C   0  0  0  0  0  0  0  0  0  0  0  0
   37.8230   27.2430   30.2140 H   0  0  0  0  0  0  0  0  0  0  0  0
   39.2800   27.3830   31.2140 H   0  0  0  0  0  0  0  0  0  0  0  0
   37.4120   27.7020   32.2350 C   0  0  0  0  0  0  0  0  0  0  0  0
   36.5480   28.7400   31.9880 C   0  0  0  0  0  0  0  0  0  0  0  0
   35.8330   29.3290   33.0080 C   0  0  0  0  0  0  0  0  0  0  0  0
   35.9610   28.8890   34.3310 C   0  0  0  0  0  0  0  0  0  0  0  0
   36.8140   27.8580   34.5990 C   0  0  0  0  0  0  0  0  0  0  0  0
   37.5250   27.2780   33.5620 C   0  0  0  0  0  0  0  0  0  0  0  0
   36.4720   29.0580   30.9460 H   0  0  0  0  0  0  0  0  0  0  0  0
   35.1690   30.1440   32.7330 H   0  0  0  0  0  0  0  0  0  0  0  0
   35.3800   29.3850   35.0740 H   0  0  0  0  0  0  0  0  0  0  0  0
   36.9410   27.4890   35.6110 H   0  0  0  0  0  0  0  0  0  0  0  0
   38.1850   26.4720   33.8100 H   0  0  0  0  0  0  0  0  0  0  0  0
  1  2  1  0  0  0  0
  2  8  1  0  0  0  0
  2  3  2  0  0  0  0
  3  9  1  0  0  0  0
  4  3  1  0  0  0  0
  5  4  2  0  0  0  0
  6  1  2  0  0  0  0
  6  5  1  0  0  0  0
  7  1  1  0  0  0  0
  9 16  1  0  0  0  0
  9 10  1  0  0  0  0
 10 11  2  0  0  0  0
 11 13  1  0  0  0  0
 11 12  1  0  0  0  0
 13 14  2  0  0  0  0
 15 18  1  0  0  0  0
 15 13  1  0  0  0  0
 16 15  1  0  0  0  0
 17 16  2  0  0  0  0
 19  5  1  0  0  0  0
 19 20  2  0  0  0  0
 21 20  1  0  0  0  0
 21 24  1  0  0  0  0
 22 21  1  0  0  0  0
 23 21  1  0  0  0  0
 24 29  1  0  0  0  0
 25 24  2  0  0  0  0
 25 26  1  0  0  0  0
 26 27  2  0  0  0  0
 27 28  1  0  0  0  0
 27 32  1  0  0  0  0
 28 33  1  0  0  0  0
 29 34  1  0  0  0  0
 29 28  2  0  0  0  0
 30 25  1  0  0  0  0
 31 26  1  0  0  0  0
M  END
>  <minimizedAffinity>
-5.51582336

$$$$
