
 OpenBabel03262520123D

 43 45  0  0  0  0  0  0  0  0999 V2000
   35.2550   30.3080   49.3180 C   0  0  0  0  0  0  0  0  0  0  0  0
   34.9800   31.3320   49.6940 H   0  0  0  0  0  0  0  0  0  0  0  0
   36.1340   30.0060   49.9510 H   0  0  0  0  0  0  0  0  0  0  0  0
   38.1760   31.4650   48.9520 Br  0  0  0  0  0  0  0  0  0  0  0  0
   36.9650   30.8950   47.5720 C   0  0  0  0  0  0  0  0  0  0  0  0
   37.3350   30.9670   46.2540 C   0  0  0  0  0  0  0  0  0  0  0  0
   36.4290   30.5580   45.3110 C   0  0  0  0  0  0  0  0  0  0  0  0
   35.1700   30.0800   45.6440 C   0  0  0  0  0  0  0  0  0  0  0  0
   34.8310   30.0230   47.0030 C   0  0  0  0  0  0  0  0  0  0  0  0
   35.7340   30.4300   47.9450 C   0  0  0  0  0  0  0  0  0  0  0  0
   36.7760   30.6360   44.2670 H   0  0  0  0  0  0  0  0  0  0  0  0
   34.5770   29.7990   44.7880 H   0  0  0  0  0  0  0  0  0  0  0  0
   33.8380   29.6490   47.0460 H   0  0  0  0  0  0  0  0  0  0  0  0
   39.9220   33.2840   45.1360 C   0  0  0  0  0  0  0  0  0  0  0  0
   41.1000   32.4860   45.0980 C   0  0  0  0  0  0  0  0  0  0  0  0
   40.9680   31.1600   45.4620 C   0  0  0  0  0  0  0  0  0  0  0  0
   39.7400   30.6640   45.8390 N   0  0  0  0  0  0  0  0  0  0  0  0
   38.6560   31.4690   45.8560 C   0  0  0  0  0  0  0  0  0  0  0  0
   38.7610   32.7590   45.5070 N   0  0  0  0  0  0  0  0  0  0  0  0
   40.0510   34.3090   44.8490 H   0  0  0  0  0  0  0  0  0  0  0  0
   42.0570   32.9020   44.7960 H   0  0  0  0  0  0  0  0  0  0  0  0
   41.8400   30.5180   45.4460 H   0  0  0  0  0  0  0  0  0  0  0  0
   34.1620   29.3340   49.5730 C   0  0  0  0  0  0  0  0  0  0  0  0
   33.2000   29.6460   49.2140 H   0  0  0  0  0  0  0  0  0  0  0  0
   34.0380   29.3750   50.7120 H   0  0  0  0  0  0  0  0  0  0  0  0
   34.6400   28.0230   49.3270 N   0  0  0  0  0  0  0  0  0  0  0  0
   35.2320   27.6030   50.0650 H   0  0  0  0  0  0  0  0  0  0  0  0
   33.7480   27.1010   48.7300 C   0  0  0  0  0  0  0  0  0  0  0  0
   34.1780   26.6800   47.7960 H   0  0  0  0  0  0  0  0  0  0  0  0
   33.6240   26.2440   49.4140 H   0  0  0  0  0  0  0  0  0  0  0  0
   32.4630   27.8040   48.4280 C   0  0  0  0  0  0  0  0  0  0  0  0
   31.7210   27.7200   49.2530 H   0  0  0  0  0  0  0  0  0  0  0  0
   32.4790   28.7570   47.9350 H   0  0  0  0  0  0  0  0  0  0  0  0
   31.8430   26.9340   47.3740 N   0  0  0  0  0  0  0  0  0  0  0  0
   30.5440   26.5330   47.5010 C   0  0  0  0  0  3  0  0  0  0  0  0
   29.9580   25.7340   46.5420 C   0  0  0  0  0  0  0  0  0  0  0  0
   28.9360   25.4170   46.6380 H   0  0  0  0  0  0  0  0  0  0  0  0
   30.6830   25.3330   45.4420 C   0  0  0  0  0  0  0  0  0  0  0  0
   30.2220   24.6070   44.5280 O   0  0  0  0  0  0  0  0  0  0  0  0
   31.9580   25.7520   45.3610 N   0  0  0  0  0  0  0  0  0  0  0  0
   32.5540   26.5310   46.2800 C   0  0  0  0  0  0  0  0  0  0  0  0
   33.7280   26.9420   46.2470 O   0  0  0  0  0  0  0  0  0  0  0  0
   32.6110   25.5130   44.5710 H   0  0  0  0  0  0  0  0  0  0  0  0
  1 23  1  0  0  0  0
  1  2  1  0  0  0  0
  1  3  1  0  0  0  0
  5 10  1  0  0  0  0
  5  4  1  0  0  0  0
  6  5  2  0  0  0  0
  7  8  2  0  0  0  0
  7  6  1  0  0  0  0
  8  9  1  0  0  0  0
  9 13  1  0  0  0  0
  9 10  2  0  0  0  0
 10  1  1  0  0  0  0
 11  7  1  0  0  0  0
 12  8  1  0  0  0  0
 14 19  1  0  0  0  0
 15 14  2  0  0  0  0
 15 16  1  0  0  0  0
 16 17  2  0  0  0  0
 17 18  1  0  0  0  0
 18  6  1  0  0  0  0
 19 18  2  0  0  0  0
 20 14  1  0  0  0  0
 21 15  1  0  0  0  0
 22 16  1  0  0  0  0
 23 25  1  0  0  0  0
 24 23  1  0  0  0  0
 26 23  1  0  0  0  0
 26 27  1  0  0  0  0
 28 26  1  0  0  0  0
 28 30  1  0  0  0  0
 29 28  1  0  0  0  0
 31 28  1  0  0  0  0
 31 32  1  0  0  0  0
 33 31  1  0  0  0  0
 34 35  1  0  0  0  0
 34 31  1  0  0  0  0
 36 37  1  0  0  0  0
 36 35  2  0  0  0  0
 38 36  1  0  0  0  0
 39 38  2  0  0  0  0
 40 38  1  0  0  0  0
 40 41  1  0  0  0  0
 41 34  1  0  0  0  0
 42 41  2  0  0  0  0
 43 40  1  0  0  0  0
M  END
>  <minimizedAffinity>
-4.90851259

>  <minimizedRMSD>
0.416397035

$$$$
