
 OpenBabel03272507323D

 37 40  0  0  1  0  0  0  0  0999 V2000
   33.1030   27.4670   48.1960 C   0  0  0  0  0  0  0  0  0  0  0  0
   31.8670   27.4120   48.5060 O   0  0  0  0  0  0  0  0  0  0  0  0
   35.8320   29.1290   49.8010 C   0  0  0  0  0  0  0  0  0  0  0  0
   34.7980   29.6320   50.5640 C   0  0  0  0  0  0  0  0  0  0  0  0
   33.6070   29.0830   50.0720 C   0  0  0  0  0  0  0  0  0  0  0  0
   33.9960   28.2710   49.0300 C   0  0  0  0  0  0  0  0  0  0  0  0
   35.3050   28.3280   48.9080 O   0  0  0  0  0  0  0  0  0  0  0  0
   34.8400   30.3320   51.4070 H   0  0  0  0  0  0  0  0  0  0  0  0
   32.6190   29.2880   50.4660 H   0  0  0  0  0  0  0  0  0  0  0  0
   37.2180   29.4910   50.0380 C   0  0  0  0  0  0  0  0  0  0  0  0
   37.8580   28.8950   50.9160 O   0  0  0  0  0  0  0  0  0  0  0  0
   37.7680   30.5410   49.2210 C   0  0  0  0  0  0  0  0  0  0  0  0
   38.1060   31.7270   49.8550 C   0  0  0  0  0  0  0  0  0  0  0  0
   38.6390   32.7640   49.0870 C   0  0  0  0  0  0  0  0  0  0  0  0
   38.7990   32.5470   47.7350 N   0  0  0  0  0  0  0  0  0  0  0  0
   38.4640   31.3940   47.1600 C   0  0  0  0  0  0  0  0  0  0  0  0
   37.9500   30.3890   47.8880 N   0  0  0  0  0  0  0  0  0  0  0  0
   37.9690   31.8650   50.9130 H   0  0  0  0  0  0  0  0  0  0  0  0
   38.9030   33.6880   49.5800 H   0  0  0  0  0  0  0  0  0  0  0  0
   38.6210   31.3050   46.0960 H   0  0  0  0  0  0  0  0  0  0  0  0
   33.6330   26.7190   47.0080 C   0  0  1  0  0  0  0  0  0  0  0  0
   33.7680   25.1840   47.3600 C   0  0  0  0  0  0  0  0  0  0  0  0
   32.8240   25.7000   46.3430 C   0  0  2  0  0  0  0  0  0  0  0  0
   34.6160   27.0810   46.6420 H   0  0  0  0  0  0  0  0  0  0  0  0
   33.4210   24.8650   48.3390 H   0  0  0  0  0  0  0  0  0  0  0  0
   34.6780   24.6860   46.9930 H   0  0  0  0  0  0  0  0  0  0  0  0
   31.7500   25.6690   46.6970 H   0  0  0  0  0  0  0  0  0  0  0  0
   32.9850   25.5230   44.9360 N   0  0  0  0  0  0  0  0  0  0  0  0
   34.0340   26.0900   44.2670 C   0  0  0  0  0  3  0  0  0  0  0  0
   34.1980   25.9260   42.9060 C   0  0  0  0  0  0  0  0  0  0  0  0
   35.0720   26.4300   42.5010 H   0  0  0  0  0  0  0  0  0  0  0  0
   33.3100   25.1820   42.1570 C   0  0  0  0  0  0  0  0  0  0  0  0
   33.5870   25.1200   40.9320 O   0  0  0  0  0  0  0  0  0  0  0  0
   32.2810   24.6270   42.8250 N   0  0  0  0  0  0  0  0  0  0  0  0
   32.1600   24.8130   44.1500 C   0  0  0  0  0  0  0  0  0  0  0  0
   31.1660   24.2480   44.6480 O   0  0  0  0  0  0  0  0  0  0  0  0
   31.6300   24.0730   42.2360 H   0  0  0  0  0  0  0  0  0  0  0  0
  1  2  2  0  0  0  0
  1  6  1  0  0  0  0
  3 10  1  0  0  0  0
  3  4  2  0  0  0  0
  4  8  1  0  0  0  0
  5  9  1  0  0  0  0
  5  4  1  0  0  0  0
  6  5  2  0  0  0  0
  7  6  1  0  0  0  0
  7  3  1  0  0  0  0
 10 11  2  0  0  0  0
 12 13  1  0  0  0  0
 12 10  1  0  0  0  0
 13 18  1  0  0  0  0
 14 19  1  0  0  0  0
 14 13  2  0  0  0  0
 15 14  1  0  0  0  0
 16 15  2  0  0  0  0
 16 17  1  0  0  0  0
 17 12  2  0  0  0  0
 20 16  1  0  0  0  0
 21 24  1  6  0  0  0
 21 22  1  0  0  0  0
 21  1  1  0  0  0  0
 22 25  1  0  0  0  0
 23 27  1  1  0  0  0
 23 21  1  0  0  0  0
 23 22  1  0  0  0  0
 26 22  1  0  0  0  0
 28 23  1  0  0  0  0
 29 28  1  0  0  0  0
 30 29  2  0  0  0  0
 31 30  1  0  0  0  0
 32 34  1  0  0  0  0
 32 30  1  0  0  0  0
 33 32  2  0  0  0  0
 34 35  1  0  0  0  0
 35 36  2  0  0  0  0
 35 28  1  0  0  0  0
 37 34  1  0  0  0  0
M  END
>  <minimizedAffinity>
-4.89082479

>  <minimizedRMSD>
0.652311146

$$$$
