
 OpenBabel03272504493D

 28 30  0  0  0  0  0  0  0  0999 V2000
   38.0070   24.8630   34.3990 C   0  0  0  0  0  0  0  0  0  0  0  0
   38.5950   25.1150   35.6600 C   0  0  0  0  0  0  0  0  0  0  0  0
   38.4610   26.4050   36.1850 C   0  0  0  0  0  0  0  0  0  0  0  0
   37.7740   27.3250   35.4370 N   0  0  0  0  0  0  0  0  0  0  0  0
   37.2340   27.0450   34.2500 C   0  0  0  0  0  0  0  0  0  0  0  0
   37.3470   25.8160   33.7250 N   0  0  0  0  0  0  0  0  0  0  0  0
   38.1310   23.8540   34.0240 H   0  0  0  0  0  0  0  0  0  0  0  0
   38.8950   26.6180   37.1340 H   0  0  0  0  0  0  0  0  0  0  0  0
   36.5150   28.0780   33.5120 C   0  0  0  0  0  0  0  0  0  0  0  0
   35.7130   28.9760   34.1670 C   0  0  0  0  0  0  0  0  0  0  0  0
   35.0170   29.9650   33.5130 C   0  0  0  0  0  0  0  0  0  0  0  0
   35.1730   30.0030   32.1490 C   0  0  0  0  0  0  0  0  0  0  0  0
   35.9810   29.1070   31.4390 C   0  0  0  0  0  0  0  0  0  0  0  0
   36.6380   28.1540   32.1660 N   0  0  0  0  0  0  0  0  0  0  0  0
   35.5910   28.9410   35.2560 H   0  0  0  0  0  0  0  0  0  0  0  0
   34.3770   30.6850   34.0170 H   0  0  0  0  0  0  0  0  0  0  0  0
   34.6790   30.7360   31.5150 H   0  0  0  0  0  0  0  0  0  0  0  0
   36.0880   29.1580   30.3600 H   0  0  0  0  0  0  0  0  0  0  0  0
   39.2840   24.0630   36.3300 N   0  0  0  0  0  0  0  0  0  0  0  0
   40.4740   23.8060   35.7520 C   0  0  0  0  0  3  0  0  0  0  0  0
   41.3150   22.8190   36.2410 C   0  0  0  0  0  0  0  0  0  0  0  0
   42.2660   22.5670   35.8320 H   0  0  0  0  0  0  0  0  0  0  0  0
   40.8640   22.1110   37.3560 C   0  0  0  0  0  0  0  0  0  0  0  0
   41.5850   21.1970   37.8510 O   0  0  0  0  0  0  0  0  0  0  0  0
   39.6690   22.4090   37.8930 N   0  0  0  0  0  0  0  0  0  0  0  0
   38.8730   23.3690   37.4010 C   0  0  0  0  0  0  0  0  0  0  0  0
   37.7430   23.6980   37.8550 O   0  0  0  0  0  0  0  0  0  0  0  0
   39.3110   21.8820   38.7390 H   0  0  0  0  0  0  0  0  0  0  0  0
  1  2  1  0  0  0  0
  2  3  2  0  0  0  0
  2 19  1  0  0  0  0
  3  8  1  0  0  0  0
  4  3  1  0  0  0  0
  5  4  2  0  0  0  0
  6  5  1  0  0  0  0
  6  1  2  0  0  0  0
  7  1  1  0  0  0  0
  9 10  1  0  0  0  0
  9  5  1  0  0  0  0
 10 15  1  0  0  0  0
 11 16  1  0  0  0  0
 11 10  2  0  0  0  0
 12 11  1  0  0  0  0
 13 12  2  0  0  0  0
 13 14  1  0  0  0  0
 14  9  2  0  0  0  0
 17 12  1  0  0  0  0
 18 13  1  0  0  0  0
 19 26  1  0  0  0  0
 20 21  2  0  0  0  0
 20 19  1  0  0  0  0
 21 23  1  0  0  0  0
 22 21  1  0  0  0  0
 23 24  2  0  0  0  0
 23 25  1  0  0  0  0
 25 28  1  0  0  0  0
 26 27  2  0  0  0  0
 26 25  1  0  0  0  0
M  END
>  <minimizedAffinity>
-5.77814054

$$$$

 OpenBabel03272504493D

 28 30  0  0  0  0  0  0  0  0999 V2000
   38.0200   24.8620   34.3760 C   0  0  0  0  0  0  0  0  0  0  0  0
   38.6000   25.1140   35.6400 C   0  0  0  0  0  0  0  0  0  0  0  0
   38.4650   26.4050   36.1630 C   0  0  0  0  0  0  0  0  0  0  0  0
   37.7820   27.3240   35.4110 N   0  0  0  0  0  0  0  0  0  0  0  0
   37.2490   27.0440   34.2210 C   0  0  0  0  0  0  0  0  0  0  0  0
   37.3640   25.8150   33.6980 N   0  0  0  0  0  0  0  0  0  0  0  0
   38.1450   23.8520   34.0020 H   0  0  0  0  0  0  0  0  0  0  0  0
   38.8940   26.6190   37.1140 H   0  0  0  0  0  0  0  0  0  0  0  0
   36.5350   28.0770   33.4790 C   0  0  0  0  0  0  0  0  0  0  0  0
   36.7230   28.2270   32.1300 C   0  0  0  0  0  0  0  0  0  0  0  0
   36.0720   29.1870   31.3910 C   0  0  0  0  0  0  0  0  0  0  0  0
   35.2110   29.9970   32.0900 C   0  0  0  0  0  0  0  0  0  0  0  0
   34.9870   29.8790   33.4670 C   0  0  0  0  0  0  0  0  0  0  0  0
   35.6750   28.8990   34.1260 N   0  0  0  0  0  0  0  0  0  0  0  0
   37.4130   27.5790   31.5760 H   0  0  0  0  0  0  0  0  0  0  0  0
   36.2100   29.3190   30.3210 H   0  0  0  0  0  0  0  0  0  0  0  0
   34.6340   30.7930   31.6240 H   0  0  0  0  0  0  0  0  0  0  0  0
   34.3000   30.5320   33.9970 H   0  0  0  0  0  0  0  0  0  0  0  0
   39.2850   24.0620   36.3150 N   0  0  0  0  0  0  0  0  0  0  0  0
   40.4820   23.8090   35.7470 C   0  0  0  0  0  3  0  0  0  0  0  0
   41.3200   22.8220   36.2430 C   0  0  0  0  0  0  0  0  0  0  0  0
   42.2750   22.5730   35.8420 H   0  0  0  0  0  0  0  0  0  0  0  0
   40.8590   22.1110   37.3520 C   0  0  0  0  0  0  0  0  0  0  0  0
   41.5770   21.1970   37.8520 O   0  0  0  0  0  0  0  0  0  0  0  0
   39.6580   22.4060   37.8780 N   0  0  0  0  0  0  0  0  0  0  0  0
   38.8650   23.3650   37.3800 C   0  0  0  0  0  0  0  0  0  0  0  0
   37.7310   23.6910   37.8240 O   0  0  0  0  0  0  0  0  0  0  0  0
   39.2930   21.8770   38.7190 H   0  0  0  0  0  0  0  0  0  0  0  0
  1  2  1  0  0  0  0
  2  3  2  0  0  0  0
  2 19  1  0  0  0  0
  3  8  1  0  0  0  0
  4  3  1  0  0  0  0
  5  4  2  0  0  0  0
  6  5  1  0  0  0  0
  6  1  2  0  0  0  0
  7  1  1  0  0  0  0
  9 14  1  0  0  0  0
  9  5  1  0  0  0  0
 10  9  2  0  0  0  0
 11 12  2  0  0  0  0
 11 10  1  0  0  0  0
 12 13  1  0  0  0  0
 13 18  1  0  0  0  0
 13 14  2  0  0  0  0
 15 10  1  0  0  0  0
 16 11  1  0  0  0  0
 17 12  1  0  0  0  0
 19 26  1  0  0  0  0
 20 21  2  0  0  0  0
 20 19  1  0  0  0  0
 21 23  1  0  0  0  0
 22 21  1  0  0  0  0
 23 24  2  0  0  0  0
 23 25  1  0  0  0  0
 25 28  1  0  0  0  0
 26 27  2  0  0  0  0
 26 25  1  0  0  0  0
M  END
>  <minimizedAffinity>
-5.7354517

$$$$

 OpenBabel03272504493D

 28 30  0  0  0  0  0  0  0  0999 V2000
   38.4540   27.1270   33.6900 C   0  0  0  0  0  0  0  0  0  0  0  0
   38.0580   26.4550   32.5110 C   0  0  0  0  0  0  0  0  0  0  0  0
   37.8730   25.0700   32.5920 C   0  0  0  0  0  0  0  0  0  0  0  0
   38.0900   24.4720   33.8060 N   0  0  0  0  0  0  0  0  0  0  0  0
   38.4630   25.1450   34.8950 C   0  0  0  0  0  0  0  0  0  0  0  0
   38.6470   26.4720   34.8450 N   0  0  0  0  0  0  0  0  0  0  0  0
   38.5880   28.1980   33.5900 H   0  0  0  0  0  0  0  0  0  0  0  0
   37.5740   24.5420   31.7170 H   0  0  0  0  0  0  0  0  0  0  0  0
   38.6750   24.4380   36.1540 C   0  0  0  0  0  0  0  0  0  0  0  0
   37.8920   24.7050   37.2470 C   0  0  0  0  0  0  0  0  0  0  0  0
   38.0550   24.0640   38.4520 C   0  0  0  0  0  0  0  0  0  0  0  0
   39.0600   23.1290   38.5000 C   0  0  0  0  0  0  0  0  0  0  0  0
   39.8830   22.8240   37.4090 C   0  0  0  0  0  0  0  0  0  0  0  0
   39.6540   23.5070   36.2480 N   0  0  0  0  0  0  0  0  0  0  0  0
   37.0910   25.4530   37.2050 H   0  0  0  0  0  0  0  0  0  0  0  0
   37.4440   24.2630   39.3280 H   0  0  0  0  0  0  0  0  0  0  0  0
   39.2930   22.5520   39.3920 H   0  0  0  0  0  0  0  0  0  0  0  0
   40.6720   22.0800   37.4720 H   0  0  0  0  0  0  0  0  0  0  0  0
   37.8670   27.2020   31.3130 N   0  0  0  0  0  0  0  0  0  0  0  0
   39.0390   27.6550   30.8230 C   0  0  0  0  0  3  0  0  0  0  0  0
   39.0900   28.4080   29.6600 C   0  0  0  0  0  0  0  0  0  0  0  0
   39.9800   28.7950   29.2210 H   0  0  0  0  0  0  0  0  0  0  0  0
   37.8720   28.6690   29.0310 C   0  0  0  0  0  0  0  0  0  0  0  0
   37.8510   29.3510   27.9650 O   0  0  0  0  0  0  0  0  0  0  0  0
   36.7340   28.1920   29.5630 N   0  0  0  0  0  0  0  0  0  0  0  0
   36.7110   27.4660   30.6900 C   0  0  0  0  0  0  0  0  0  0  0  0
   35.6810   26.9900   31.2410 O   0  0  0  0  0  0  0  0  0  0  0  0
   35.8020   28.3800   29.0990 H   0  0  0  0  0  0  0  0  0  0  0  0
  1  6  1  0  0  0  0
  2  3  1  0  0  0  0
  2  1  2  0  0  0  0
  3  4  2  0  0  0  0
  4  5  1  0  0  0  0
  5  9  1  0  0  0  0
  6  5  2  0  0  0  0
  7  1  1  0  0  0  0
  8  3  1  0  0  0  0
  9 14  2  0  0  0  0
  9 10  1  0  0  0  0
 10 11  2  0  0  0  0
 11 12  1  0  0  0  0
 11 16  1  0  0  0  0
 12 17  1  0  0  0  0
 13 18  1  0  0  0  0
 13 12  2  0  0  0  0
 14 13  1  0  0  0  0
 15 10  1  0  0  0  0
 19  2  1  0  0  0  0
 20 19  1  0  0  0  0
 21 20  2  0  0  0  0
 22 21  1  0  0  0  0
 23 25  1  0  0  0  0
 23 21  1  0  0  0  0
 24 23  2  0  0  0  0
 25 26  1  0  0  0  0
 26 27  2  0  0  0  0
 26 19  1  0  0  0  0
 28 25  1  0  0  0  0
M  END
>  <minimizedAffinity>
-5.51972008

$$$$

 OpenBabel03272504493D

 28 30  0  0  0  0  0  0  0  0999 V2000
   38.4230   25.2900   32.7690 C   0  0  0  0  0  0  0  0  0  0  0  0
   37.9600   26.6260   32.7510 C   0  0  0  0  0  0  0  0  0  0  0  0
   37.7140   27.2380   33.9850 C   0  0  0  0  0  0  0  0  0  0  0  0
   37.9390   26.4960   35.1150 N   0  0  0  0  0  0  0  0  0  0  0  0
   38.3770   25.2360   35.0870 C   0  0  0  0  0  0  0  0  0  0  0  0
   38.6210   24.6280   33.9180 N   0  0  0  0  0  0  0  0  0  0  0  0
   38.6030   24.8500   31.7950 H   0  0  0  0  0  0  0  0  0  0  0  0
   37.3660   28.2430   33.9970 H   0  0  0  0  0  0  0  0  0  0  0  0
   38.5940   24.5100   36.3340 C   0  0  0  0  0  0  0  0  0  0  0  0
   39.5410   23.5230   36.4140 C   0  0  0  0  0  0  0  0  0  0  0  0
   39.7790   22.8130   37.5670 C   0  0  0  0  0  0  0  0  0  0  0  0
   39.0050   23.1540   38.6490 C   0  0  0  0  0  0  0  0  0  0  0  0
   38.0270   24.1550   38.6130 C   0  0  0  0  0  0  0  0  0  0  0  0
   37.8540   24.8120   37.4270 N   0  0  0  0  0  0  0  0  0  0  0  0
   40.1570   23.2530   35.5470 H   0  0  0  0  0  0  0  0  0  0  0  0
   40.5260   22.0280   37.6480 H   0  0  0  0  0  0  0  0  0  0  0  0
   39.0940   22.6700   39.6190 H   0  0  0  0  0  0  0  0  0  0  0  0
   37.4270   24.4060   39.4830 H   0  0  0  0  0  0  0  0  0  0  0  0
   37.7680   27.2810   31.4990 N   0  0  0  0  0  0  0  0  0  0  0  0
   38.9120   27.8390   31.0550 C   0  0  0  0  0  3  0  0  0  0  0  0
   38.9570   28.5280   29.8530 C   0  0  0  0  0  0  0  0  0  0  0  0
   39.8250   28.9910   29.4460 H   0  0  0  0  0  0  0  0  0  0  0  0
   37.7620   28.6130   29.1360 C   0  0  0  0  0  0  0  0  0  0  0  0
   37.7360   29.2290   28.0320 O   0  0  0  0  0  0  0  0  0  0  0  0
   36.6520   28.0380   29.6270 N   0  0  0  0  0  0  0  0  0  0  0  0
   36.6340   27.3760   30.7930 C   0  0  0  0  0  0  0  0  0  0  0  0
   35.6290   26.8140   31.3090 O   0  0  0  0  0  0  0  0  0  0  0  0
   35.7370   28.0920   29.0970 H   0  0  0  0  0  0  0  0  0  0  0  0
  1  6  1  0  0  0  0
  2  1  2  0  0  0  0
  2  3  1  0  0  0  0
  3  8  1  0  0  0  0
  3  4  2  0  0  0  0
  5  4  1  0  0  0  0
  5  9  1  0  0  0  0
  6  5  2  0  0  0  0
  7  1  1  0  0  0  0
  9 10  2  0  0  0  0
  9 14  1  0  0  0  0
 10 11  1  0  0  0  0
 11 16  1  0  0  0  0
 11 12  2  0  0  0  0
 12 17  1  0  0  0  0
 13 12  1  0  0  0  0
 13 18  1  0  0  0  0
 14 13  2  0  0  0  0
 15 10  1  0  0  0  0
 19  2  1  0  0  0  0
 20 19  1  0  0  0  0
 21 20  2  0  0  0  0
 22 21  1  0  0  0  0
 23 25  1  0  0  0  0
 23 21  1  0  0  0  0
 24 23  2  0  0  0  0
 25 26  1  0  0  0  0
 26 27  2  0  0  0  0
 26 19  1  0  0  0  0
 28 25  1  0  0  0  0
M  END
>  <minimizedAffinity>
-5.38685846

$$$$

 OpenBabel03272504493D

 28 30  0  0  0  0  0  0  0  0999 V2000
   38.4200   23.7100   34.4470 C   0  0  0  0  0  0  0  0  0  0  0  0
   39.4210   24.1320   35.3510 C   0  0  0  0  0  0  0  0  0  0  0  0
   39.6460   25.5090   35.4650 C   0  0  0  0  0  0  0  0  0  0  0  0
   38.8790   26.3410   34.6920 N   0  0  0  0  0  0  0  0  0  0  0  0
   37.9430   25.9000   33.8510 C   0  0  0  0  0  0  0  0  0  0  0  0
   37.7080   24.5870   33.7230 N   0  0  0  0  0  0  0  0  0  0  0  0
   38.2750   22.6380   34.3850 H   0  0  0  0  0  0  0  0  0  0  0  0
   40.3940   25.8510   36.1400 H   0  0  0  0  0  0  0  0  0  0  0  0
   37.1650   26.8490   33.0610 C   0  0  0  0  0  0  0  0  0  0  0  0
   36.6500   27.9820   33.6350 C   0  0  0  0  0  0  0  0  0  0  0  0
   35.9110   28.9020   32.9300 C   0  0  0  0  0  0  0  0  0  0  0  0
   35.7170   28.6200   31.6000 C   0  0  0  0  0  0  0  0  0  0  0  0
   36.2250   27.4760   30.9720 C   0  0  0  0  0  0  0  0  0  0  0  0
   36.9480   26.6120   31.7450 N   0  0  0  0  0  0  0  0  0  0  0  0
   36.8060   28.2030   34.6980 H   0  0  0  0  0  0  0  0  0  0  0  0
   35.4960   29.8050   33.3690 H   0  0  0  0  0  0  0  0  0  0  0  0
   35.1530   29.2660   30.9310 H   0  0  0  0  0  0  0  0  0  0  0  0
   36.0570   27.2750   29.9170 H   0  0  0  0  0  0  0  0  0  0  0  0
   40.1470   23.1560   36.0940 N   0  0  0  0  0  0  0  0  0  0  0  0
   41.2250   22.7190   35.4130 C   0  0  0  0  0  3  0  0  0  0  0  0
   42.0770   21.7650   35.9490 C   0  0  0  0  0  0  0  0  0  0  0  0
   42.9430   21.3780   35.4650 H   0  0  0  0  0  0  0  0  0  0  0  0
   41.7570   21.2860   37.2200 C   0  0  0  0  0  0  0  0  0  0  0  0
   42.4940   20.4130   37.7630 O   0  0  0  0  0  0  0  0  0  0  0  0
   40.6700   21.7560   37.8530 N   0  0  0  0  0  0  0  0  0  0  0  0
   39.8610   22.6800   37.3140 C   0  0  0  0  0  0  0  0  0  0  0  0
   38.8280   23.1630   37.8530 O   0  0  0  0  0  0  0  0  0  0  0  0
   40.4120   21.4040   38.8170 H   0  0  0  0  0  0  0  0  0  0  0  0
  1  2  1  0  0  0  0
  2  3  2  0  0  0  0
  2 19  1  0  0  0  0
  3  8  1  0  0  0  0
  4  3  1  0  0  0  0
  5  4  2  0  0  0  0
  6  5  1  0  0  0  0
  6  1  2  0  0  0  0
  7  1  1  0  0  0  0
  9 10  1  0  0  0  0
  9  5  1  0  0  0  0
 10 15  1  0  0  0  0
 11 16  1  0  0  0  0
 11 10  2  0  0  0  0
 12 11  1  0  0  0  0
 13 12  2  0  0  0  0
 13 14  1  0  0  0  0
 14  9  2  0  0  0  0
 17 12  1  0  0  0  0
 18 13  1  0  0  0  0
 19 26  1  0  0  0  0
 20 21  2  0  0  0  0
 20 19  1  0  0  0  0
 21 23  1  0  0  0  0
 22 21  1  0  0  0  0
 23 24  2  0  0  0  0
 23 25  1  0  0  0  0
 25 28  1  0  0  0  0
 26 25  1  0  0  0  0
 26 27  2  0  0  0  0
M  END
>  <minimizedAffinity>
-5.2796278

$$$$

 OpenBabel03272504493D

 28 30  0  0  0  0  0  0  0  0999 V2000
   37.4650   27.7910   35.0750 C   0  0  0  0  0  0  0  0  0  0  0  0
   36.9570   27.4930   33.7890 C   0  0  0  0  0  0  0  0  0  0  0  0
   37.0630   26.1690   33.3480 C   0  0  0  0  0  0  0  0  0  0  0  0
   37.6500   25.2650   34.1940 N   0  0  0  0  0  0  0  0  0  0  0  0
   38.1160   25.5890   35.4000 C   0  0  0  0  0  0  0  0  0  0  0  0
   38.0270   26.8500   35.8470 N   0  0  0  0  0  0  0  0  0  0  0  0
   37.3660   28.8260   35.3830 H   0  0  0  0  0  0  0  0  0  0  0  0
   36.6870   25.9200   32.3840 H   0  0  0  0  0  0  0  0  0  0  0  0
   38.7290   24.5690   36.2450 C   0  0  0  0  0  0  0  0  0  0  0  0
   38.2410   24.3150   37.5000 C   0  0  0  0  0  0  0  0  0  0  0  0
   38.7870   23.3640   38.3300 C   0  0  0  0  0  0  0  0  0  0  0  0
   39.8620   22.6750   37.8240 C   0  0  0  0  0  0  0  0  0  0  0  0
   40.3930   22.9010   36.5480 C   0  0  0  0  0  0  0  0  0  0  0  0
   39.7910   23.8650   35.7880 N   0  0  0  0  0  0  0  0  0  0  0  0
   37.3830   24.8670   37.9010 H   0  0  0  0  0  0  0  0  0  0  0  0
   38.4130   23.1490   39.3280 H   0  0  0  0  0  0  0  0  0  0  0  0
   40.3830   21.8970   38.3780 H   0  0  0  0  0  0  0  0  0  0  0  0
   41.2440   22.3430   36.1710 H   0  0  0  0  0  0  0  0  0  0  0  0
   36.3700   28.5340   33.0130 N   0  0  0  0  0  0  0  0  0  0  0  0
   37.0060   28.6880   31.8340 C   0  0  0  0  0  3  0  0  0  0  0  0
   36.6020   29.6470   30.9180 C   0  0  0  0  0  0  0  0  0  0  0  0
   37.0600   29.8200   29.9720 H   0  0  0  0  0  0  0  0  0  0  0  0
   35.5100   30.4360   31.2800 C   0  0  0  0  0  0  0  0  0  0  0  0
   35.0920   31.3290   30.4880 O   0  0  0  0  0  0  0  0  0  0  0  0
   34.9130   30.2380   32.4680 N   0  0  0  0  0  0  0  0  0  0  0  0
   35.3230   29.3050   33.3380 C   0  0  0  0  0  0  0  0  0  0  0  0
   34.8090   29.0680   34.4660 O   0  0  0  0  0  0  0  0  0  0  0  0
   34.0830   30.8280   32.7590 H   0  0  0  0  0  0  0  0  0  0  0  0
  1  7  1  0  0  0  0
  1  6  1  0  0  0  0
  2  1  2  0  0  0  0
  3  2  1  0  0  0  0
  3  4  2  0  0  0  0
  4  5  1  0  0  0  0
  5  6  2  0  0  0  0
  5  9  1  0  0  0  0
  8  3  1  0  0  0  0
  9 10  1  0  0  0  0
 10 15  1  0  0  0  0
 10 11  2  0  0  0  0
 11 16  1  0  0  0  0
 12 11  1  0  0  0  0
 12 17  1  0  0  0  0
 13 12  2  0  0  0  0
 14  9  2  0  0  0  0
 14 13  1  0  0  0  0
 18 13  1  0  0  0  0
 19 26  1  0  0  0  0
 19  2  1  0  0  0  0
 20 19  1  0  0  0  0
 21 23  1  0  0  0  0
 21 20  2  0  0  0  0
 22 21  1  0  0  0  0
 23 25  1  0  0  0  0
 24 23  2  0  0  0  0
 25 28  1  0  0  0  0
 25 26  1  0  0  0  0
 26 27  2  0  0  0  0
M  END
>  <minimizedAffinity>
-5.17331171

$$$$

 OpenBabel03272504493D

 28 30  0  0  0  0  0  0  0  0999 V2000
   37.8260   25.3260   34.1370 C   0  0  0  0  0  0  0  0  0  0  0  0
   38.5740   25.5700   35.3120 C   0  0  0  0  0  0  0  0  0  0  0  0
   38.4790   26.8450   35.8820 C   0  0  0  0  0  0  0  0  0  0  0  0
   37.6700   27.7580   35.2570 N   0  0  0  0  0  0  0  0  0  0  0  0
   36.9810   27.4860   34.1490 C   0  0  0  0  0  0  0  0  0  0  0  0
   37.0540   26.2720   33.5840 N   0  0  0  0  0  0  0  0  0  0  0  0
   37.9250   24.3290   33.7250 H   0  0  0  0  0  0  0  0  0  0  0  0
   39.0320   27.0520   36.7670 H   0  0  0  0  0  0  0  0  0  0  0  0
   36.1390   28.5120   33.5410 C   0  0  0  0  0  0  0  0  0  0  0  0
   36.2730   28.8340   32.2160 C   0  0  0  0  0  0  0  0  0  0  0  0
   35.5020   29.7930   31.6030 C   0  0  0  0  0  0  0  0  0  0  0  0
   34.5770   30.4180   32.4030 C   0  0  0  0  0  0  0  0  0  0  0  0
   34.4050   30.1200   33.7610 C   0  0  0  0  0  0  0  0  0  0  0  0
   35.2120   29.1540   34.2920 N   0  0  0  0  0  0  0  0  0  0  0  0
   37.0130   28.3330   31.5810 H   0  0  0  0  0  0  0  0  0  0  0  0
   35.5960   30.0610   30.5540 H   0  0  0  0  0  0  0  0  0  0  0  0
   33.9060   31.1930   32.0420 H   0  0  0  0  0  0  0  0  0  0  0  0
   33.6660   30.6300   34.3730 H   0  0  0  0  0  0  0  0  0  0  0  0
   39.3780   24.5260   35.8570 N   0  0  0  0  0  0  0  0  0  0  0  0
   38.7610   23.9170   36.8880 C   0  0  0  0  0  3  0  0  0  0  0  0
   39.3620   22.8690   37.5690 C   0  0  0  0  0  0  0  0  0  0  0  0
   38.9300   22.3460   38.3900 H   0  0  0  0  0  0  0  0  0  0  0  0
   40.6300   22.4850   37.1310 C   0  0  0  0  0  0  0  0  0  0  0  0
   41.2320   21.5360   37.7110 O   0  0  0  0  0  0  0  0  0  0  0  0
   41.1980   23.1290   36.0970 N   0  0  0  0  0  0  0  0  0  0  0  0
   40.5960   24.1400   35.4550 C   0  0  0  0  0  0  0  0  0  0  0  0
   41.0720   24.7840   34.4800 O   0  0  0  0  0  0  0  0  0  0  0  0
   42.1590   22.8510   35.7520 H   0  0  0  0  0  0  0  0  0  0  0  0
  1  2  1  0  0  0  0
  2 19  1  0  0  0  0
  2  3  2  0  0  0  0
  3  8  1  0  0  0  0
  4  3  1  0  0  0  0
  5  4  2  0  0  0  0
  6  1  2  0  0  0  0
  6  5  1  0  0  0  0
  7  1  1  0  0  0  0
  9  5  1  0  0  0  0
  9 14  1  0  0  0  0
 10  9  2  0  0  0  0
 11 10  1  0  0  0  0
 11 12  2  0  0  0  0
 12 13  1  0  0  0  0
 13 14  2  0  0  0  0
 13 18  1  0  0  0  0
 15 10  1  0  0  0  0
 16 11  1  0  0  0  0
 17 12  1  0  0  0  0
 19 20  1  0  0  0  0
 20 21  2  0  0  0  0
 21 22  1  0  0  0  0
 23 21  1  0  0  0  0
 23 24  2  0  0  0  0
 25 23  1  0  0  0  0
 26 19  1  0  0  0  0
 26 25  1  0  0  0  0
 27 26  2  0  0  0  0
 28 25  1  0  0  0  0
M  END
>  <minimizedAffinity>
-5.12536478

$$$$

 OpenBabel03272504493D

 28 30  0  0  0  0  0  0  0  0999 V2000
   38.4950   26.7540   35.8480 C   0  0  0  0  0  0  0  0  0  0  0  0
   38.5630   25.4870   35.2250 C   0  0  0  0  0  0  0  0  0  0  0  0
   37.8130   25.3030   34.0580 C   0  0  0  0  0  0  0  0  0  0  0  0
   37.0710   26.3640   33.6090 N   0  0  0  0  0  0  0  0  0  0  0  0
   37.0360   27.5450   34.2290 C   0  0  0  0  0  0  0  0  0  0  0  0
   37.7460   27.7470   35.3480 N   0  0  0  0  0  0  0  0  0  0  0  0
   39.0890   26.8590   36.7490 H   0  0  0  0  0  0  0  0  0  0  0  0
   37.8480   24.3580   33.5700 H   0  0  0  0  0  0  0  0  0  0  0  0
   36.2210   28.6290   33.6890 C   0  0  0  0  0  0  0  0  0  0  0  0
   35.6850   29.5800   34.5170 C   0  0  0  0  0  0  0  0  0  0  0  0
   34.9110   30.6180   34.0530 C   0  0  0  0  0  0  0  0  0  0  0  0
   34.7050   30.6490   32.6950 C   0  0  0  0  0  0  0  0  0  0  0  0
   35.2350   29.6990   31.8130 C   0  0  0  0  0  0  0  0  0  0  0  0
   35.9920   28.7000   32.3570 N   0  0  0  0  0  0  0  0  0  0  0  0
   35.8510   29.5510   35.6000 H   0  0  0  0  0  0  0  0  0  0  0  0
   34.4780   31.3800   34.6950 H   0  0  0  0  0  0  0  0  0  0  0  0
   34.1140   31.4160   32.2010 H   0  0  0  0  0  0  0  0  0  0  0  0
   35.0560   29.7460   30.7420 H   0  0  0  0  0  0  0  0  0  0  0  0
   39.3780   24.4690   35.8020 N   0  0  0  0  0  0  0  0  0  0  0  0
   38.7620   23.8770   36.8450 C   0  0  0  0  0  3  0  0  0  0  0  0
   39.3730   22.8560   37.5570 C   0  0  0  0  0  0  0  0  0  0  0  0
   38.9430   22.3490   38.3880 H   0  0  0  0  0  0  0  0  0  0  0  0
   40.6490   22.4790   37.1360 C   0  0  0  0  0  0  0  0  0  0  0  0
   41.2610   21.5530   37.7450 O   0  0  0  0  0  0  0  0  0  0  0  0
   41.2150   23.1030   36.0900 N   0  0  0  0  0  0  0  0  0  0  0  0
   40.6040   24.0880   35.4170 C   0  0  0  0  0  0  0  0  0  0  0  0
   41.0770   24.7140   34.4290 O   0  0  0  0  0  0  0  0  0  0  0  0
   42.1820   22.8290   35.7570 H   0  0  0  0  0  0  0  0  0  0  0  0
  1  7  1  0  0  0  0
  2 19  1  0  0  0  0
  2  1  2  0  0  0  0
  3  2  1  0  0  0  0
  4  3  2  0  0  0  0
  4  5  1  0  0  0  0
  5  6  2  0  0  0  0
  6  1  1  0  0  0  0
  8  3  1  0  0  0  0
  9  5  1  0  0  0  0
  9 10  1  0  0  0  0
 10 15  1  0  0  0  0
 11 10  2  0  0  0  0
 11 16  1  0  0  0  0
 12 11  1  0  0  0  0
 13 14  1  0  0  0  0
 13 12  2  0  0  0  0
 14  9  2  0  0  0  0
 17 12  1  0  0  0  0
 18 13  1  0  0  0  0
 19 20  1  0  0  0  0
 20 21  2  0  0  0  0
 21 22  1  0  0  0  0
 23 21  1  0  0  0  0
 23 24  2  0  0  0  0
 25 23  1  0  0  0  0
 26 19  1  0  0  0  0
 26 25  1  0  0  0  0
 27 26  2  0  0  0  0
 28 25  1  0  0  0  0
M  END
>  <minimizedAffinity>
-5.12482691

$$$$

 OpenBabel03272504493D

 28 30  0  0  0  0  0  0  0  0999 V2000
   37.0010   27.3140   33.6970 C   0  0  0  0  0  0  0  0  0  0  0  0
   36.6160   27.2010   32.3410 C   0  0  0  0  0  0  0  0  0  0  0  0
   35.6860   28.1280   31.8570 C   0  0  0  0  0  0  0  0  0  0  0  0
   35.2210   29.0740   32.7330 N   0  0  0  0  0  0  0  0  0  0  0  0
   35.6110   29.1450   34.0060 C   0  0  0  0  0  0  0  0  0  0  0  0
   36.5010   28.2690   34.4940 N   0  0  0  0  0  0  0  0  0  0  0  0
   37.7220   26.5790   34.0360 H   0  0  0  0  0  0  0  0  0  0  0  0
   35.3810   28.0630   30.8390 H   0  0  0  0  0  0  0  0  0  0  0  0
   35.0710   30.1820   34.8790 C   0  0  0  0  0  0  0  0  0  0  0  0
   35.9050   31.0480   35.5370 C   0  0  0  0  0  0  0  0  0  0  0  0
   35.4390   32.0390   36.3690 C   0  0  0  0  0  0  0  0  0  0  0  0
   34.0750   32.1130   36.5050 C   0  0  0  0  0  0  0  0  0  0  0  0
   33.1860   31.2510   35.8520 C   0  0  0  0  0  0  0  0  0  0  0  0
   33.7310   30.2940   35.0430 N   0  0  0  0  0  0  0  0  0  0  0  0
   36.9930   30.9840   35.4270 H   0  0  0  0  0  0  0  0  0  0  0  0
   36.0860   32.7340   36.8990 H   0  0  0  0  0  0  0  0  0  0  0  0
   33.5790   32.8510   37.1320 H   0  0  0  0  0  0  0  0  0  0  0  0
   32.1100   31.3300   35.9760 H   0  0  0  0  0  0  0  0  0  0  0  0
   37.1800   26.1660   31.5400 N   0  0  0  0  0  0  0  0  0  0  0  0
   38.4530   26.4470   31.1970 C   0  0  0  0  0  3  0  0  0  0  0  0
   39.1980   25.5760   30.4170 C   0  0  0  0  0  0  0  0  0  0  0  0
   40.2060   25.7380   30.1120 H   0  0  0  0  0  0  0  0  0  0  0  0
   38.5620   24.4020   30.0100 C   0  0  0  0  0  0  0  0  0  0  0  0
   39.1870   23.5660   29.2960 O   0  0  0  0  0  0  0  0  0  0  0  0
   37.2910   24.1730   30.3820 N   0  0  0  0  0  0  0  0  0  0  0  0
   36.5910   25.0320   31.1360 C   0  0  0  0  0  0  0  0  0  0  0  0
   35.3990   24.8780   31.5190 O   0  0  0  0  0  0  0  0  0  0  0  0
   36.7930   23.2880   30.0820 H   0  0  0  0  0  0  0  0  0  0  0  0
  1  7  1  0  0  0  0
  1  6  1  0  0  0  0
  2  1  2  0  0  0  0
  3  2  1  0  0  0  0
  3  4  2  0  0  0  0
  4  5  1  0  0  0  0
  5  6  2  0  0  0  0
  5  9  1  0  0  0  0
  8  3  1  0  0  0  0
  9 14  2  0  0  0  0
  9 10  1  0  0  0  0
 10 11  2  0  0  0  0
 11 12  1  0  0  0  0
 11 16  1  0  0  0  0
 12 17  1  0  0  0  0
 13 18  1  0  0  0  0
 13 12  2  0  0  0  0
 14 13  1  0  0  0  0
 15 10  1  0  0  0  0
 19  2  1  0  0  0  0
 20 19  1  0  0  0  0
 21 20  2  0  0  0  0
 22 21  1  0  0  0  0
 23 25  1  0  0  0  0
 23 21  1  0  0  0  0
 24 23  2  0  0  0  0
 25 26  1  0  0  0  0
 26 27  2  0  0  0  0
 26 19  1  0  0  0  0
 28 25  1  0  0  0  0
M  END
>  <minimizedAffinity>
-5.10103369

$$$$
