
 OpenBabel03272507333D

 37 40  0  0  1  0  0  0  0  0999 V2000
   33.0970   27.4940   48.2120 C   0  0  0  0  0  0  0  0  0  0  0  0
   31.8680   27.4150   48.5470 O   0  0  0  0  0  0  0  0  0  0  0  0
   35.8380   29.1420   49.8080 C   0  0  0  0  0  0  0  0  0  0  0  0
   34.8110   29.6440   50.5810 C   0  0  0  0  0  0  0  0  0  0  0  0
   33.6150   29.1000   50.0930 C   0  0  0  0  0  0  0  0  0  0  0  0
   33.9960   28.2920   49.0450 C   0  0  0  0  0  0  0  0  0  0  0  0
   35.3050   28.3470   48.9150 O   0  0  0  0  0  0  0  0  0  0  0  0
   34.8600   30.3390   51.4260 H   0  0  0  0  0  0  0  0  0  0  0  0
   32.6310   29.3050   50.4940 H   0  0  0  0  0  0  0  0  0  0  0  0
   37.2270   29.5010   50.0380 C   0  0  0  0  0  0  0  0  0  0  0  0
   37.8690   28.9030   50.9140 O   0  0  0  0  0  0  0  0  0  0  0  0
   37.7760   30.5480   49.2180 C   0  0  0  0  0  0  0  0  0  0  0  0
   38.1160   31.7360   49.8490 C   0  0  0  0  0  0  0  0  0  0  0  0
   38.6490   32.7710   49.0780 C   0  0  0  0  0  0  0  0  0  0  0  0
   38.8060   32.5510   47.7260 N   0  0  0  0  0  0  0  0  0  0  0  0
   38.4690   31.3960   47.1540 C   0  0  0  0  0  0  0  0  0  0  0  0
   37.9560   30.3930   47.8860 N   0  0  0  0  0  0  0  0  0  0  0  0
   37.9810   31.8760   50.9070 H   0  0  0  0  0  0  0  0  0  0  0  0
   38.9140   33.6950   49.5680 H   0  0  0  0  0  0  0  0  0  0  0  0
   38.6240   31.3060   46.0900 H   0  0  0  0  0  0  0  0  0  0  0  0
   33.6110   26.7810   46.9960 C   0  0  1  0  0  0  0  0  0  0  0  0
   33.8030   25.2460   47.3200 C   0  0  0  0  0  0  0  0  0  0  0  0
   32.8120   25.7470   46.3410 C   0  0  2  0  0  0  0  0  0  0  0  0
   34.5700   27.1780   46.6050 H   0  0  0  0  0  0  0  0  0  0  0  0
   33.4960   24.9020   48.3040 H   0  0  0  0  0  0  0  0  0  0  0  0
   34.7140   24.7810   46.9170 H   0  0  0  0  0  0  0  0  0  0  0  0
   31.7510   25.6790   46.7280 H   0  0  0  0  0  0  0  0  0  0  0  0
   32.9330   25.5970   44.9270 N   0  0  0  0  0  0  0  0  0  0  0  0
   34.0420   25.0210   44.3690 C   0  0  0  0  0  3  0  0  0  0  0  0
   34.1680   24.8720   43.0030 C   0  0  0  0  0  0  0  0  0  0  0  0
   35.0980   24.4000   42.6940 H   0  0  0  0  0  0  0  0  0  0  0  0
   33.1820   25.2960   42.1360 C   0  0  0  0  0  0  0  0  0  0  0  0
   33.4370   25.0940   40.9200 O   0  0  0  0  0  0  0  0  0  0  0  0
   32.0950   25.8610   42.6940 N   0  0  0  0  0  0  0  0  0  0  0  0
   32.0140   25.9860   44.0300 C   0  0  0  0  0  0  0  0  0  0  0  0
   30.9580   26.5240   44.4190 O   0  0  0  0  0  0  0  0  0  0  0  0
   31.3710   26.1700   42.0190 H   0  0  0  0  0  0  0  0  0  0  0  0
  1  2  2  0  0  0  0
  1  6  1  0  0  0  0
  3 10  1  0  0  0  0
  3  4  2  0  0  0  0
  4  8  1  0  0  0  0
  5  9  1  0  0  0  0
  5  4  1  0  0  0  0
  6  5  2  0  0  0  0
  7  6  1  0  0  0  0
  7  3  1  0  0  0  0
 10 11  2  0  0  0  0
 12 13  1  0  0  0  0
 12 10  1  0  0  0  0
 13 18  1  0  0  0  0
 14 19  1  0  0  0  0
 14 13  2  0  0  0  0
 15 14  1  0  0  0  0
 16 15  2  0  0  0  0
 16 17  1  0  0  0  0
 17 12  2  0  0  0  0
 20 16  1  0  0  0  0
 21 24  1  6  0  0  0
 21 22  1  0  0  0  0
 21  1  1  0  0  0  0
 22 25  1  0  0  0  0
 23 27  1  1  0  0  0
 23 21  1  0  0  0  0
 23 22  1  0  0  0  0
 26 22  1  0  0  0  0
 28 23  1  0  0  0  0
 29 28  1  0  0  0  0
 30 29  2  0  0  0  0
 31 30  1  0  0  0  0
 32 34  1  0  0  0  0
 32 30  1  0  0  0  0
 33 32  2  0  0  0  0
 34 35  1  0  0  0  0
 35 36  2  0  0  0  0
 35 28  1  0  0  0  0
 37 34  1  0  0  0  0
M  END
>  <minimizedAffinity>
-4.87051487

>  <minimizedRMSD>
0.0902859718

$$$$
