
 OpenBabel03272508253D

 26 28  0  0  1  0  0  0  0  0999 V2000
   35.7670   30.5790   49.0080 C   0  0  1  0  0  0  0  0  0  0  0  0
   35.4430   29.4170   48.1900 C   0  0  1  0  0  0  0  0  0  0  0  0
   36.1450   29.1880   49.5040 C   0  0  0  0  0  0  0  0  0  0  0  0
   35.0540   31.1460   49.6610 H   0  0  0  0  0  0  0  0  0  0  0  0
   36.1370   29.2670   47.3090 H   0  0  0  0  0  0  0  0  0  0  0  0
   37.2170   28.9010   49.5200 H   0  0  0  0  0  0  0  0  0  0  0  0
   35.5180   28.7460   50.3000 H   0  0  0  0  0  0  0  0  0  0  0  0
   34.1170   28.9420   47.9610 N   0  0  0  0  0  0  0  0  0  0  0  0
   33.4470   28.1660   48.8610 C   0  0  0  0  0  3  0  0  0  0  0  0
   32.1770   27.6900   48.6840 C   0  0  0  0  0  0  0  0  0  0  0  0
   31.7310   27.0720   49.4730 H   0  0  0  0  0  0  0  0  0  0  0  0
   31.5270   28.0190   47.5080 C   0  0  0  0  0  0  0  0  0  0  0  0
   30.3580   27.5970   47.3170 O   0  0  0  0  0  0  0  0  0  0  0  0
   32.1760   28.7960   46.5920 N   0  0  0  0  0  0  0  0  0  0  0  0
   33.4340   29.2300   46.8390 C   0  0  0  0  0  0  0  0  0  0  0  0
   33.9250   29.9250   45.9410 O   0  0  0  0  0  0  0  0  0  0  0  0
   31.6210   28.9910   45.7520 H   0  0  0  0  0  0  0  0  0  0  0  0
   36.9680   31.4390   48.7030 C   0  0  0  0  0  0  0  0  0  0  0  0
   37.3700   32.3450   49.7000 C   0  0  0  0  0  0  0  0  0  0  0  0
   38.4590   33.1460   49.4010 C   0  0  0  0  0  0  0  0  0  0  0  0
   39.0720   33.0250   48.1940 N   0  0  0  0  0  0  0  0  0  0  0  0
   38.6560   32.1310   47.2430 C   0  0  0  0  0  0  0  0  0  0  0  0
   37.5840   31.3360   47.5260 N   0  0  0  0  0  0  0  0  0  0  0  0
   36.8850   32.4450   50.6610 H   0  0  0  0  0  0  0  0  0  0  0  0
   38.8560   33.8830   50.1010 H   0  0  0  0  0  0  0  0  0  0  0  0
   39.1840   32.0810   46.3010 H   0  0  0  0  0  0  0  0  0  0  0  0
  1  3  1  0  0  0  0
  1  4  1  1  0  0  0
  2  5  1  6  0  0  0
  2  1  1  0  0  0  0
  2  3  1  0  0  0  0
  3  6  1  0  0  0  0
  3  7  1  0  0  0  0
  8  2  1  0  0  0  0
  8  9  1  0  0  0  0
 10  9  2  0  0  0  0
 10 11  1  0  0  0  0
 12 10  1  0  0  0  0
 13 12  2  0  0  0  0
 14 15  1  0  0  0  0
 14 12  1  0  0  0  0
 15  8  1  0  0  0  0
 16 15  2  0  0  0  0
 17 14  1  0  0  0  0
 18  1  1  0  0  0  0
 18 19  1  0  0  0  0
 19 24  1  0  0  0  0
 20 19  2  0  0  0  0
 20 25  1  0  0  0  0
 21 20  1  0  0  0  0
 22 23  1  0  0  0  0
 22 21  2  0  0  0  0
 23 18  2  0  0  0  0
 26 22  1  0  0  0  0
M  END
>  <minimizedAffinity>
-5.05302382

>  <minimizedRMSD>
2.0483346

$$$$
