
 OpenBabel03262520123D

 43 45  0  0  0  0  0  0  0  0999 V2000
   35.2930   30.3770   49.3870 C   0  0  0  0  0  0  0  0  0  0  0  0
   35.0560   31.4150   49.7490 H   0  0  0  0  0  0  0  0  0  0  0  0
   36.1750   30.0590   50.0090 H   0  0  0  0  0  0  0  0  0  0  0  0
   38.1900   31.5660   48.9370 Br  0  0  0  0  0  0  0  0  0  0  0  0
   36.9670   30.9310   47.5960 C   0  0  0  0  0  0  0  0  0  0  0  0
   37.3160   30.9640   46.2700 C   0  0  0  0  0  0  0  0  0  0  0  0
   36.4030   30.5090   45.3560 C   0  0  0  0  0  0  0  0  0  0  0  0
   35.1560   30.0230   45.7240 C   0  0  0  0  0  0  0  0  0  0  0  0
   34.8390   30.0070   47.0900 C   0  0  0  0  0  0  0  0  0  0  0  0
   35.7490   30.4600   48.0040 C   0  0  0  0  0  0  0  0  0  0  0  0
   36.7320   30.5560   44.3050 H   0  0  0  0  0  0  0  0  0  0  0  0
   34.5550   29.7050   44.8880 H   0  0  0  0  0  0  0  0  0  0  0  0
   33.8530   29.6190   47.1610 H   0  0  0  0  0  0  0  0  0  0  0  0
   39.8450   33.2770   45.0210 C   0  0  0  0  0  0  0  0  0  0  0  0
   41.0370   32.5000   45.0050 C   0  0  0  0  0  0  0  0  0  0  0  0
   40.9350   31.1900   45.4270 C   0  0  0  0  0  0  0  0  0  0  0  0
   39.7210   30.6880   45.8400 N   0  0  0  0  0  0  0  0  0  0  0  0
   38.6230   31.4720   45.8350 C   0  0  0  0  0  0  0  0  0  0  0  0
   38.6990   32.7470   45.4290 N   0  0  0  0  0  0  0  0  0  0  0  0
   39.9520   34.2900   44.6890 H   0  0  0  0  0  0  0  0  0  0  0  0
   41.9830   32.9210   44.6730 H   0  0  0  0  0  0  0  0  0  0  0  0
   41.8190   30.5640   45.4290 H   0  0  0  0  0  0  0  0  0  0  0  0
   34.1770   29.4410   49.6800 C   0  0  0  0  0  0  0  0  0  0  0  0
   33.2210   29.7670   49.3180 H   0  0  0  0  0  0  0  0  0  0  0  0
   34.0620   29.5220   50.8180 H   0  0  0  0  0  0  0  0  0  0  0  0
   34.6180   28.1100   49.4740 N   0  0  0  0  0  0  0  0  0  0  0  0
   35.0210   27.6260   50.2950 H   0  0  0  0  0  0  0  0  0  0  0  0
   33.8150   27.2710   48.6660 C   0  0  0  0  0  0  0  0  0  0  0  0
   34.1830   27.2600   47.6170 H   0  0  0  0  0  0  0  0  0  0  0  0
   33.9200   26.2340   49.0300 H   0  0  0  0  0  0  0  0  0  0  0  0
   32.4060   27.7700   48.7070 C   0  0  0  0  0  0  0  0  0  0  0  0
   31.8240   27.3470   49.5560 H   0  0  0  0  0  0  0  0  0  0  0  0
   32.1980   28.8000   48.4910 H   0  0  0  0  0  0  0  0  0  0  0  0
   31.7720   27.0850   47.5330 N   0  0  0  0  0  0  0  0  0  0  0  0
   31.6540   25.7250   47.5220 C   0  0  0  0  0  3  0  0  0  0  0  0
   31.0730   25.0790   46.4510 C   0  0  0  0  0  0  0  0  0  0  0  0
   30.9780   24.0090   46.4370 H   0  0  0  0  0  0  0  0  0  0  0  0
   30.6020   25.8060   45.3800 C   0  0  0  0  0  0  0  0  0  0  0  0
   30.0620   25.2920   44.3700 O   0  0  0  0  0  0  0  0  0  0  0  0
   30.7400   27.1430   45.4370 N   0  0  0  0  0  0  0  0  0  0  0  0
   31.3030   27.7970   46.4670 C   0  0  0  0  0  0  0  0  0  0  0  0
   31.4510   29.0300   46.5620 O   0  0  0  0  0  0  0  0  0  0  0  0
   30.4210   27.8030   44.6810 H   0  0  0  0  0  0  0  0  0  0  0  0
  1 23  1  0  0  0  0
  1  2  1  0  0  0  0
  1  3  1  0  0  0  0
  5 10  1  0  0  0  0
  5  4  1  0  0  0  0
  6  5  2  0  0  0  0
  7  8  2  0  0  0  0
  7  6  1  0  0  0  0
  8  9  1  0  0  0  0
  9 13  1  0  0  0  0
  9 10  2  0  0  0  0
 10  1  1  0  0  0  0
 11  7  1  0  0  0  0
 12  8  1  0  0  0  0
 14 19  1  0  0  0  0
 15 14  2  0  0  0  0
 15 16  1  0  0  0  0
 16 22  1  0  0  0  0
 16 17  2  0  0  0  0
 18 17  1  0  0  0  0
 18  6  1  0  0  0  0
 19 18  2  0  0  0  0
 20 14  1  0  0  0  0
 21 15  1  0  0  0  0
 23 25  1  0  0  0  0
 24 23  1  0  0  0  0
 26 23  1  0  0  0  0
 26 27  1  0  0  0  0
 28 31  1  0  0  0  0
 28 30  1  0  0  0  0
 28 26  1  0  0  0  0
 29 28  1  0  0  0  0
 31 32  1  0  0  0  0
 33 31  1  0  0  0  0
 34 31  1  0  0  0  0
 35 34  1  0  0  0  0
 36 35  2  0  0  0  0
 37 36  1  0  0  0  0
 38 40  1  0  0  0  0
 38 36  1  0  0  0  0
 39 38  2  0  0  0  0
 40 41  1  0  0  0  0
 41 42  2  0  0  0  0
 41 34  1  0  0  0  0
 43 40  1  0  0  0  0
M  END
>  <minimizedAffinity>
-5.2357049

>  <minimizedRMSD>
0.654829979

$$$$
