
 OpenBabel03272504463D

 31 33  0  0  0  0  0  0  0  0999 V2000
   35.8130   28.9140   31.6150 C   0  0  0  0  0  0  0  0  0  0  0  0
   35.4150   29.8640   32.5520 C   0  0  0  0  0  0  0  0  0  0  0  0
   35.6350   29.7440   33.9220 C   0  0  0  0  0  0  0  0  0  0  0  0
   36.2750   28.6150   34.2730 N   0  0  0  0  0  0  0  0  0  0  0  0
   36.6680   27.6820   33.3790 C   0  0  0  0  0  0  0  0  0  0  0  0
   36.4460   27.8220   32.0860 N   0  0  0  0  0  0  0  0  0  0  0  0
   35.6120   29.0640   30.5610 H   0  0  0  0  0  0  0  0  0  0  0  0
   37.3320   26.5550   33.9490 N   0  0  0  0  0  0  0  0  0  0  0  0
   37.3580   25.3470   33.3520 C   0  0  0  0  0  3  0  0  0  0  0  0
   38.0020   24.2590   33.9070 C   0  0  0  0  0  0  0  0  0  0  0  0
   37.9920   23.3150   33.3890 H   0  0  0  0  0  0  0  0  0  0  0  0
   38.6110   24.5140   35.1160 C   0  0  0  0  0  0  0  0  0  0  0  0
   39.2220   23.5540   35.6810 O   0  0  0  0  0  0  0  0  0  0  0  0
   38.6040   25.6960   35.7320 N   0  0  0  0  0  0  0  0  0  0  0  0
   37.9530   26.7270   35.1330 C   0  0  0  0  0  0  0  0  0  0  0  0
   37.9790   27.8280   35.7660 O   0  0  0  0  0  0  0  0  0  0  0  0
   39.0920   25.8060   36.6490 H   0  0  0  0  0  0  0  0  0  0  0  0
   32.8590   29.3460   34.8410 Cl  0  0  0  0  0  0  0  0  0  0  0  0
   33.9150   30.6250   35.3700 C   0  0  0  0  0  0  0  0  0  0  0  0
   35.2150   30.7420   34.8860 C   0  0  0  0  0  0  0  0  0  0  0  0
   35.9810   31.7690   35.3470 C   0  0  0  0  0  0  0  0  0  0  0  0
   35.5120   32.6860   36.2710 C   0  0  0  0  0  0  0  0  0  0  0  0
   34.1940   32.5420   36.7430 C   0  0  0  0  0  0  0  0  0  0  0  0
   33.6680   33.7300   37.9020 Cl  0  0  0  0  0  0  0  0  0  0  0  0
   33.4050   31.5230   36.2970 C   0  0  0  0  0  0  0  0  0  0  0  0
   36.9830   31.8040   34.9320 H   0  0  0  0  0  0  0  0  0  0  0  0
   36.2080   33.4610   36.5670 H   0  0  0  0  0  0  0  0  0  0  0  0
   32.3880   31.4270   36.6740 H   0  0  0  0  0  0  0  0  0  0  0  0
   34.7410   31.0270   32.0590 N   0  0  0  0  0  0  0  0  0  0  0  0
   33.7220   30.7420   32.0960 H   0  0  0  0  0  0  0  0  0  0  0  0
   35.1510   31.9250   31.7430 H   0  0  0  0  0  0  0  0  0  0  0  0
  1  6  2  0  0  0  0
  1  2  1  0  0  0  0
  2  3  2  0  0  0  0
  3  4  1  0  0  0  0
  3 20  1  0  0  0  0
  5  8  1  0  0  0  0
  5  4  2  0  0  0  0
  6  5  1  0  0  0  0
  7  1  1  0  0  0  0
  8 15  1  0  0  0  0
  9 10  2  0  0  0  0
  9  8  1  0  0  0  0
 10 12  1  0  0  0  0
 11 10  1  0  0  0  0
 12 13  2  0  0  0  0
 12 14  1  0  0  0  0
 14 17  1  0  0  0  0
 15 14  1  0  0  0  0
 15 16  2  0  0  0  0
 18 19  1  0  0  0  0
 19 25  1  0  0  0  0
 20 21  1  0  0  0  0
 20 19  2  0  0  0  0
 21 22  2  0  0  0  0
 22 27  1  0  0  0  0
 22 23  1  0  0  0  0
 23 24  1  0  0  0  0
 25 28  1  0  0  0  0
 25 23  2  0  0  0  0
 26 21  1  0  0  0  0
 29 30  1  0  0  0  0
 29  2  1  0  0  0  0
 31 29  1  0  0  0  0
M  END
>  <minimizedAffinity>
-5.98389387

$$$$

 OpenBabel03272504463D

 31 33  0  0  0  0  0  0  0  0999 V2000
   36.6520   30.3860   30.3020 C   0  0  0  0  0  0  0  0  0  0  0  0
   36.5900   28.9960   30.3580 C   0  0  0  0  0  0  0  0  0  0  0  0
   36.2110   28.2810   31.4920 C   0  0  0  0  0  0  0  0  0  0  0  0
   35.9050   29.0560   32.5470 N   0  0  0  0  0  0  0  0  0  0  0  0
   35.9600   30.4050   32.5110 C   0  0  0  0  0  0  0  0  0  0  0  0
   36.3230   31.0570   31.4220 N   0  0  0  0  0  0  0  0  0  0  0  0
   36.9540   30.8850   29.3890 H   0  0  0  0  0  0  0  0  0  0  0  0
   35.5980   31.0470   33.7330 N   0  0  0  0  0  0  0  0  0  0  0  0
   36.0370   32.2770   34.0660 C   0  0  0  0  0  3  0  0  0  0  0  0
   35.6840   32.8950   35.2490 C   0  0  0  0  0  0  0  0  0  0  0  0
   36.0640   33.8790   35.4690 H   0  0  0  0  0  0  0  0  0  0  0  0
   34.8500   32.1500   36.0530 C   0  0  0  0  0  0  0  0  0  0  0  0
   34.4870   32.6620   37.1580 O   0  0  0  0  0  0  0  0  0  0  0  0
   34.3980   30.9330   35.7520 N   0  0  0  0  0  0  0  0  0  0  0  0
   34.7820   30.3810   34.5730 C   0  0  0  0  0  0  0  0  0  0  0  0
   34.3210   29.2200   34.3400 O   0  0  0  0  0  0  0  0  0  0  0  0
   33.7660   30.4350   36.4190 H   0  0  0  0  0  0  0  0  0  0  0  0
   38.5980   27.0760   32.7420 Cl  0  0  0  0  0  0  0  0  0  0  0  0
   37.2400   26.1860   32.1120 C   0  0  0  0  0  0  0  0  0  0  0  0
   36.1510   26.8330   31.5370 C   0  0  0  0  0  0  0  0  0  0  0  0
   35.1270   26.0680   31.0650 C   0  0  0  0  0  0  0  0  0  0  0  0
   35.1380   24.6870   31.1420 C   0  0  0  0  0  0  0  0  0  0  0  0
   36.2530   24.0610   31.7300 C   0  0  0  0  0  0  0  0  0  0  0  0
   36.2020   22.3220   31.7940 Cl  0  0  0  0  0  0  0  0  0  0  0  0
   37.2920   24.8020   32.2090 C   0  0  0  0  0  0  0  0  0  0  0  0
   34.3080   26.6320   30.6290 H   0  0  0  0  0  0  0  0  0  0  0  0
   34.2700   24.1820   30.7360 H   0  0  0  0  0  0  0  0  0  0  0  0
   38.1460   24.3010   32.6610 H   0  0  0  0  0  0  0  0  0  0  0  0
   36.9390   28.2770   29.1710 N   0  0  0  0  0  0  0  0  0  0  0  0
   37.9770   28.1130   29.2910 H   0  0  0  0  0  0  0  0  0  0  0  0
   36.3240   27.9880   28.3870 H   0  0  0  0  0  0  0  0  0  0  0  0
  1  2  2  0  0  0  0
  1  6  1  0  0  0  0
  2  3  1  0  0  0  0
  3 20  1  0  0  0  0
  3  4  2  0  0  0  0
  5  4  1  0  0  0  0
  5  8  1  0  0  0  0
  6  5  2  0  0  0  0
  7  1  1  0  0  0  0
  8  9  1  0  0  0  0
  8 15  1  0  0  0  0
  9 10  2  0  0  0  0
 10 11  1  0  0  0  0
 10 12  1  0  0  0  0
 12 13  2  0  0  0  0
 14 12  1  0  0  0  0
 14 17  1  0  0  0  0
 15 14  1  0  0  0  0
 16 15  2  0  0  0  0
 19 25  1  0  0  0  0
 19 18  1  0  0  0  0
 20 19  2  0  0  0  0
 21 22  2  0  0  0  0
 21 20  1  0  0  0  0
 22 23  1  0  0  0  0
 23 24  1  0  0  0  0
 23 25  2  0  0  0  0
 25 28  1  0  0  0  0
 26 21  1  0  0  0  0
 27 22  1  0  0  0  0
 29 30  1  0  0  0  0
 29  2  1  0  0  0  0
 31 29  1  0  0  0  0
M  END
>  <minimizedAffinity>
-5.98138905

$$$$

 OpenBabel03272504463D

 31 33  0  0  0  0  0  0  0  0999 V2000
   35.8190   23.7810   31.3520 C   0  0  0  0  0  0  0  0  0  0  0  0
   35.7390   25.1590   31.1700 C   0  0  0  0  0  0  0  0  0  0  0  0
   36.4750   26.0840   31.9070 C   0  0  0  0  0  0  0  0  0  0  0  0
   37.2840   25.5280   32.8260 N   0  0  0  0  0  0  0  0  0  0  0  0
   37.3740   24.1940   33.0170 C   0  0  0  0  0  0  0  0  0  0  0  0
   36.6650   23.3400   32.3040 N   0  0  0  0  0  0  0  0  0  0  0  0
   35.2200   23.1110   30.7470 H   0  0  0  0  0  0  0  0  0  0  0  0
   38.2890   23.8010   34.0400 N   0  0  0  0  0  0  0  0  0  0  0  0
   38.1750   22.6350   34.7090 C   0  0  0  0  0  3  0  0  0  0  0  0
   39.0620   22.2590   35.6970 C   0  0  0  0  0  0  0  0  0  0  0  0
   38.9260   21.3170   36.2020 H   0  0  0  0  0  0  0  0  0  0  0  0
   40.0660   23.1710   35.9390 C   0  0  0  0  0  0  0  0  0  0  0  0
   40.9160   22.8850   36.8380 O   0  0  0  0  0  0  0  0  0  0  0  0
   40.2060   24.3300   35.2950 N   0  0  0  0  0  0  0  0  0  0  0  0
   39.3000   24.6410   34.3330 C   0  0  0  0  0  0  0  0  0  0  0  0
   39.4830   25.7580   33.7540 O   0  0  0  0  0  0  0  0  0  0  0  0
   40.9980   24.9660   35.5400 H   0  0  0  0  0  0  0  0  0  0  0  0
   38.5210   27.1130   30.0450 Cl  0  0  0  0  0  0  0  0  0  0  0  0
   37.3120   28.0820   30.8410 C   0  0  0  0  0  0  0  0  0  0  0  0
   36.3810   27.5170   31.7070 C   0  0  0  0  0  0  0  0  0  0  0  0
   35.4670   28.3400   32.2930 C   0  0  0  0  0  0  0  0  0  0  0  0
   35.4370   29.7020   32.0540 C   0  0  0  0  0  0  0  0  0  0  0  0
   36.3910   30.2450   31.1730 C   0  0  0  0  0  0  0  0  0  0  0  0
   36.2970   31.9650   30.9170 Cl  0  0  0  0  0  0  0  0  0  0  0  0
   37.3180   29.4450   30.5730 C   0  0  0  0  0  0  0  0  0  0  0  0
   34.7700   27.8380   32.9550 H   0  0  0  0  0  0  0  0  0  0  0  0
   34.6670   30.2580   32.5730 H   0  0  0  0  0  0  0  0  0  0  0  0
   38.0470   29.8820   29.8940 H   0  0  0  0  0  0  0  0  0  0  0  0
   34.8420   25.6340   30.1610 N   0  0  0  0  0  0  0  0  0  0  0  0
   33.9400   25.7750   30.6950 H   0  0  0  0  0  0  0  0  0  0  0  0
   35.0320   25.7990   29.1540 H   0  0  0  0  0  0  0  0  0  0  0  0
  1  6  1  0  0  0  0
  2  1  2  0  0  0  0
  2  3  1  0  0  0  0
  3  4  2  0  0  0  0
  4  5  1  0  0  0  0
  5  8  1  0  0  0  0
  6  5  2  0  0  0  0
  7  1  1  0  0  0  0
  8 15  1  0  0  0  0
  8  9  1  0  0  0  0
  9 10  2  0  0  0  0
 10 12  1  0  0  0  0
 10 11  1  0  0  0  0
 12 13  2  0  0  0  0
 14 17  1  0  0  0  0
 14 12  1  0  0  0  0
 15 14  1  0  0  0  0
 16 15  2  0  0  0  0
 18 19  1  0  0  0  0
 19 20  1  0  0  0  0
 20  3  1  0  0  0  0
 20 21  2  0  0  0  0
 21 26  1  0  0  0  0
 22 21  1  0  0  0  0
 22 27  1  0  0  0  0
 23 22  2  0  0  0  0
 24 23  1  0  0  0  0
 25 19  2  0  0  0  0
 25 23  1  0  0  0  0
 28 25  1  0  0  0  0
 29 30  1  0  0  0  0
 29  2  1  0  0  0  0
 31 29  1  0  0  0  0
M  END
>  <minimizedAffinity>
-5.60244799

$$$$

 OpenBabel03272504463D

 31 33  0  0  0  0  0  0  0  0999 V2000
   38.5070   24.9950   35.0490 C   0  0  0  0  0  0  0  0  0  0  0  0
   38.1190   26.1730   34.4160 C   0  0  0  0  0  0  0  0  0  0  0  0
   37.4340   26.2140   33.2040 C   0  0  0  0  0  0  0  0  0  0  0  0
   37.1750   25.0010   32.6850 N   0  0  0  0  0  0  0  0  0  0  0  0
   37.5440   23.8490   33.2840 C   0  0  0  0  0  0  0  0  0  0  0  0
   38.1920   23.8400   34.4340 N   0  0  0  0  0  0  0  0  0  0  0  0
   39.0380   25.0290   35.9930 H   0  0  0  0  0  0  0  0  0  0  0  0
   37.1770   22.6660   32.5750 N   0  0  0  0  0  0  0  0  0  0  0  0
   37.8390   21.5000   32.7130 C   0  0  0  0  0  3  0  0  0  0  0  0
   37.4800   20.3580   32.0250 C   0  0  0  0  0  0  0  0  0  0  0  0
   38.0430   19.4510   32.1710 H   0  0  0  0  0  0  0  0  0  0  0  0
   36.3940   20.5130   31.1910 C   0  0  0  0  0  0  0  0  0  0  0  0
   36.0120   19.4980   30.5290 O   0  0  0  0  0  0  0  0  0  0  0  0
   35.7190   21.6510   31.0330 N   0  0  0  0  0  0  0  0  0  0  0  0
   36.1220   22.7390   31.7390 C   0  0  0  0  0  0  0  0  0  0  0  0
   35.4420   23.7950   31.5480 O   0  0  0  0  0  0  0  0  0  0  0  0
   34.9050   21.6840   30.3790 H   0  0  0  0  0  0  0  0  0  0  0  0
   39.2630   27.0010   31.0240 Cl  0  0  0  0  0  0  0  0  0  0  0  0
   37.8480   27.8900   31.5150 C   0  0  0  0  0  0  0  0  0  0  0  0
   37.0360   27.4480   32.5550 C   0  0  0  0  0  0  0  0  0  0  0  0
   35.9470   28.1980   32.8820 C   0  0  0  0  0  0  0  0  0  0  0  0
   35.6270   29.3680   32.2170 C   0  0  0  0  0  0  0  0  0  0  0  0
   36.4670   29.7890   31.1680 C   0  0  0  0  0  0  0  0  0  0  0  0
   36.0070   31.2700   30.3750 Cl  0  0  0  0  0  0  0  0  0  0  0  0
   37.5640   29.0590   30.8210 C   0  0  0  0  0  0  0  0  0  0  0  0
   35.3560   27.8000   33.7000 H   0  0  0  0  0  0  0  0  0  0  0  0
   34.7380   29.8820   32.5610 H   0  0  0  0  0  0  0  0  0  0  0  0
   38.2010   29.3990   30.0080 H   0  0  0  0  0  0  0  0  0  0  0  0
   38.4510   27.4050   35.0650 N   0  0  0  0  0  0  0  0  0  0  0  0
   39.3970   27.6400   34.6540 H   0  0  0  0  0  0  0  0  0  0  0  0
   37.8990   27.9350   35.7660 H   0  0  0  0  0  0  0  0  0  0  0  0
  1  7  1  0  0  0  0
  2  1  2  0  0  0  0
  2 29  1  0  0  0  0
  3  2  1  0  0  0  0
  4  3  2  0  0  0  0
  4  5  1  0  0  0  0
  5  6  2  0  0  0  0
  6  1  1  0  0  0  0
  8  9  1  0  0  0  0
  8  5  1  0  0  0  0
 10 11  1  0  0  0  0
 10  9  2  0  0  0  0
 12 10  1  0  0  0  0
 13 12  2  0  0  0  0
 14 12  1  0  0  0  0
 14 15  1  0  0  0  0
 15  8  1  0  0  0  0
 16 15  2  0  0  0  0
 17 14  1  0  0  0  0
 18 19  1  0  0  0  0
 19 20  1  0  0  0  0
 20 21  2  0  0  0  0
 20  3  1  0  0  0  0
 21 26  1  0  0  0  0
 22 27  1  0  0  0  0
 22 21  1  0  0  0  0
 23 22  2  0  0  0  0
 24 23  1  0  0  0  0
 25 23  1  0  0  0  0
 25 19  2  0  0  0  0
 28 25  1  0  0  0  0
 29 31  1  0  0  0  0
 30 29  1  0  0  0  0
M  END
>  <minimizedAffinity>
-5.42459154

$$$$

 OpenBabel03272504463D

 31 33  0  0  0  0  0  0  0  0999 V2000
   38.7700   23.1350   31.3900 C   0  0  0  0  0  0  0  0  0  0  0  0
   38.6060   24.3840   30.7970 C   0  0  0  0  0  0  0  0  0  0  0  0
   38.3260   25.5500   31.5070 C   0  0  0  0  0  0  0  0  0  0  0  0
   38.2270   25.3670   32.8350 N   0  0  0  0  0  0  0  0  0  0  0  0
   38.3830   24.1630   33.4280 C   0  0  0  0  0  0  0  0  0  0  0  0
   38.6470   23.0750   32.7300 N   0  0  0  0  0  0  0  0  0  0  0  0
   38.9870   22.2640   30.7830 H   0  0  0  0  0  0  0  0  0  0  0  0
   38.2390   24.1760   34.8470 N   0  0  0  0  0  0  0  0  0  0  0  0
   37.8720   23.0860   35.5510 C   0  0  0  0  0  3  0  0  0  0  0  0
   37.7340   23.1030   36.9250 C   0  0  0  0  0  0  0  0  0  0  0  0
   37.4380   22.2050   37.4400 H   0  0  0  0  0  0  0  0  0  0  0  0
   38.0020   24.3220   37.5090 C   0  0  0  0  0  0  0  0  0  0  0  0
   37.8930   24.4050   38.7720 O   0  0  0  0  0  0  0  0  0  0  0  0
   38.3660   25.4170   36.8410 N   0  0  0  0  0  0  0  0  0  0  0  0
   38.4840   25.3340   35.4910 C   0  0  0  0  0  0  0  0  0  0  0  0
   38.8330   26.4080   34.9090 O   0  0  0  0  0  0  0  0  0  0  0  0
   38.5510   26.3040   37.3620 H   0  0  0  0  0  0  0  0  0  0  0  0
   35.4900   26.3150   31.2130 Cl  0  0  0  0  0  0  0  0  0  0  0  0
   36.8470   27.2790   30.7010 C   0  0  0  0  0  0  0  0  0  0  0  0
   38.1570   26.8440   30.8770 C   0  0  0  0  0  0  0  0  0  0  0  0
   39.1650   27.6550   30.4490 C   0  0  0  0  0  0  0  0  0  0  0  0
   38.9270   28.8810   29.8550 C   0  0  0  0  0  0  0  0  0  0  0  0
   37.5920   29.2950   29.6910 C   0  0  0  0  0  0  0  0  0  0  0  0
   37.3650   30.8470   28.9360 Cl  0  0  0  0  0  0  0  0  0  0  0  0
   36.5640   28.5030   30.1080 C   0  0  0  0  0  0  0  0  0  0  0  0
   40.1610   27.2590   30.6160 H   0  0  0  0  0  0  0  0  0  0  0  0
   39.8050   29.4410   29.5550 H   0  0  0  0  0  0  0  0  0  0  0  0
   35.5380   28.8400   29.9740 H   0  0  0  0  0  0  0  0  0  0  0  0
   38.7350   24.4550   29.3730 N   0  0  0  0  0  0  0  0  0  0  0  0
   37.7430   24.3010   29.0390 H   0  0  0  0  0  0  0  0  0  0  0  0
   39.5910   24.6170   28.8110 H   0  0  0  0  0  0  0  0  0  0  0  0
  1  6  1  0  0  0  0
  2  1  2  0  0  0  0
  2  3  1  0  0  0  0
  3  4  2  0  0  0  0
  4  5  1  0  0  0  0
  5  8  1  0  0  0  0
  6  5  2  0  0  0  0
  7  1  1  0  0  0  0
  8 15  1  0  0  0  0
  8  9  1  0  0  0  0
  9 10  2  0  0  0  0
 10 11  1  0  0  0  0
 10 12  1  0  0  0  0
 12 13  2  0  0  0  0
 14 17  1  0  0  0  0
 14 12  1  0  0  0  0
 15 14  1  0  0  0  0
 16 15  2  0  0  0  0
 19 20  1  0  0  0  0
 19 18  1  0  0  0  0
 20  3  1  0  0  0  0
 21 26  1  0  0  0  0
 21 20  2  0  0  0  0
 22 21  1  0  0  0  0
 23 22  2  0  0  0  0
 23 25  1  0  0  0  0
 24 23  1  0  0  0  0
 25 19  2  0  0  0  0
 27 22  1  0  0  0  0
 28 25  1  0  0  0  0
 29  2  1  0  0  0  0
 30 29  1  0  0  0  0
 31 29  1  0  0  0  0
M  END
>  <minimizedAffinity>
-5.38846302

$$$$

 OpenBabel03272504463D

 31 33  0  0  0  0  0  0  0  0999 V2000
   36.6450   24.4500   31.0050 C   0  0  0  0  0  0  0  0  0  0  0  0
   37.3790   23.8580   32.0290 C   0  0  0  0  0  0  0  0  0  0  0  0
   37.7630   24.5210   33.1920 C   0  0  0  0  0  0  0  0  0  0  0  0
   37.3600   25.8020   33.2470 N   0  0  0  0  0  0  0  0  0  0  0  0
   36.6480   26.3930   32.2640 C   0  0  0  0  0  0  0  0  0  0  0  0
   36.2970   25.7410   31.1710 N   0  0  0  0  0  0  0  0  0  0  0  0
   36.3760   23.8820   30.1230 H   0  0  0  0  0  0  0  0  0  0  0  0
   36.3160   27.7590   32.5090 N   0  0  0  0  0  0  0  0  0  0  0  0
   36.0690   28.6380   31.5170 C   0  0  0  0  0  3  0  0  0  0  0  0
   35.7490   29.9580   31.7590 C   0  0  0  0  0  0  0  0  0  0  0  0
   35.5610   30.6200   30.9290 H   0  0  0  0  0  0  0  0  0  0  0  0
   35.7030   30.2980   33.0930 C   0  0  0  0  0  0  0  0  0  0  0  0
   35.4130   31.5000   33.3840 O   0  0  0  0  0  0  0  0  0  0  0  0
   35.9420   29.4540   34.0970 N   0  0  0  0  0  0  0  0  0  0  0  0
   36.2520   28.1670   33.7920 C   0  0  0  0  0  0  0  0  0  0  0  0
   36.4700   27.4090   34.7880 O   0  0  0  0  0  0  0  0  0  0  0  0
   35.8860   29.7930   35.0830 H   0  0  0  0  0  0  0  0  0  0  0  0
   40.6750   24.8790   32.8660 Cl  0  0  0  0  0  0  0  0  0  0  0  0
   39.9120   24.0140   34.1710 C   0  0  0  0  0  0  0  0  0  0  0  0
   38.5280   23.8910   34.2510 C   0  0  0  0  0  0  0  0  0  0  0  0
   38.0050   23.1990   35.3020 C   0  0  0  0  0  0  0  0  0  0  0  0
   38.7990   22.6230   36.2780 C   0  0  0  0  0  0  0  0  0  0  0  0
   40.1950   22.7650   36.1700 C   0  0  0  0  0  0  0  0  0  0  0  0
   41.1340   22.0170   37.4310 Cl  0  0  0  0  0  0  0  0  0  0  0  0
   40.7450   23.4520   35.1290 C   0  0  0  0  0  0  0  0  0  0  0  0
   36.9220   23.1400   35.3060 H   0  0  0  0  0  0  0  0  0  0  0  0
   38.2750   22.0970   37.0660 H   0  0  0  0  0  0  0  0  0  0  0  0
   41.8270   23.5520   35.0620 H   0  0  0  0  0  0  0  0  0  0  0  0
   37.7520   22.4860   31.8580 N   0  0  0  0  0  0  0  0  0  0  0  0
   38.6960   22.5560   31.3870 H   0  0  0  0  0  0  0  0  0  0  0  0
   37.2240   21.6360   32.1300 H   0  0  0  0  0  0  0  0  0  0  0  0
  1  6  2  0  0  0  0
  1  2  1  0  0  0  0
  2  3  2  0  0  0  0
  3  4  1  0  0  0  0
  3 20  1  0  0  0  0
  5  8  1  0  0  0  0
  5  4  2  0  0  0  0
  6  5  1  0  0  0  0
  7  1  1  0  0  0  0
  8 15  1  0  0  0  0
  9 10  2  0  0  0  0
  9  8  1  0  0  0  0
 10 12  1  0  0  0  0
 11 10  1  0  0  0  0
 12 13  2  0  0  0  0
 12 14  1  0  0  0  0
 14 17  1  0  0  0  0
 15 14  1  0  0  0  0
 15 16  2  0  0  0  0
 18 19  1  0  0  0  0
 19 20  2  0  0  0  0
 19 25  1  0  0  0  0
 20 21  1  0  0  0  0
 21 26  1  0  0  0  0
 21 22  2  0  0  0  0
 22 27  1  0  0  0  0
 23 22  1  0  0  0  0
 23 24  1  0  0  0  0
 25 23  2  0  0  0  0
 28 25  1  0  0  0  0
 29  2  1  0  0  0  0
 29 31  1  0  0  0  0
 30 29  1  0  0  0  0
M  END
>  <minimizedAffinity>
-5.32544184

$$$$

 OpenBabel03272504463D

 31 33  0  0  0  0  0  0  0  0999 V2000
   38.2960   24.7490   34.8640 C   0  0  0  0  0  0  0  0  0  0  0  0
   38.0480   23.6180   34.0900 C   0  0  0  0  0  0  0  0  0  0  0  0
   37.3670   23.6430   32.8750 C   0  0  0  0  0  0  0  0  0  0  0  0
   36.9610   24.8690   32.5040 N   0  0  0  0  0  0  0  0  0  0  0  0
   37.1920   25.9770   33.2410 C   0  0  0  0  0  0  0  0  0  0  0  0
   37.8410   25.9240   34.3890 N   0  0  0  0  0  0  0  0  0  0  0  0
   38.8320   24.6650   35.8020 H   0  0  0  0  0  0  0  0  0  0  0  0
   36.6820   27.1840   32.6760 N   0  0  0  0  0  0  0  0  0  0  0  0
   36.3680   28.2610   33.4240 C   0  0  0  0  0  3  0  0  0  0  0  0
   35.8740   29.4270   32.8730 C   0  0  0  0  0  0  0  0  0  0  0  0
   35.6380   30.2590   33.5160 H   0  0  0  0  0  0  0  0  0  0  0  0
   35.7320   29.3940   31.5040 C   0  0  0  0  0  0  0  0  0  0  0  0
   35.2820   30.4370   30.9340 O   0  0  0  0  0  0  0  0  0  0  0  0
   36.0340   28.3460   30.7370 N   0  0  0  0  0  0  0  0  0  0  0  0
   36.5160   27.2290   31.3400 C   0  0  0  0  0  0  0  0  0  0  0  0
   36.7850   26.2630   30.5600 O   0  0  0  0  0  0  0  0  0  0  0  0
   35.8970   28.4040   29.7030 H   0  0  0  0  0  0  0  0  0  0  0  0
   39.5500   23.0550   30.9770 Cl  0  0  0  0  0  0  0  0  0  0  0  0
   38.0990   22.1100   31.1580 C   0  0  0  0  0  0  0  0  0  0  0  0
   37.1150   22.4570   32.0800 C   0  0  0  0  0  0  0  0  0  0  0  0
   36.0070   21.6690   32.1620 C   0  0  0  0  0  0  0  0  0  0  0  0
   35.8350   20.5480   31.3690 C   0  0  0  0  0  0  0  0  0  0  0  0
   36.8470   20.2230   30.4470 C   0  0  0  0  0  0  0  0  0  0  0  0
   36.5650   18.8020   29.4810 Cl  0  0  0  0  0  0  0  0  0  0  0  0
   37.9660   20.9950   30.3420 C   0  0  0  0  0  0  0  0  0  0  0  0
   35.2790   21.9920   32.8990 H   0  0  0  0  0  0  0  0  0  0  0  0
   34.9150   19.9960   31.5210 H   0  0  0  0  0  0  0  0  0  0  0  0
   38.7380   20.7270   29.6240 H   0  0  0  0  0  0  0  0  0  0  0  0
   38.5290   22.3650   34.5890 N   0  0  0  0  0  0  0  0  0  0  0  0
   37.7100   22.0080   35.1560 H   0  0  0  0  0  0  0  0  0  0  0  0
   39.4530   21.9210   34.4320 H   0  0  0  0  0  0  0  0  0  0  0  0
  1  7  1  0  0  0  0
  2 29  1  0  0  0  0
  2  1  2  0  0  0  0
  3  2  1  0  0  0  0
  4  3  2  0  0  0  0
  4  5  1  0  0  0  0
  5  6  2  0  0  0  0
  6  1  1  0  0  0  0
  8  5  1  0  0  0  0
  8  9  1  0  0  0  0
 10  9  2  0  0  0  0
 10 11  1  0  0  0  0
 12 10  1  0  0  0  0
 13 12  2  0  0  0  0
 14 15  1  0  0  0  0
 14 12  1  0  0  0  0
 15  8  1  0  0  0  0
 16 15  2  0  0  0  0
 17 14  1  0  0  0  0
 18 19  1  0  0  0  0
 19 20  1  0  0  0  0
 20 21  2  0  0  0  0
 20  3  1  0  0  0  0
 21 26  1  0  0  0  0
 22 27  1  0  0  0  0
 22 21  1  0  0  0  0
 23 22  2  0  0  0  0
 24 23  1  0  0  0  0
 25 23  1  0  0  0  0
 25 19  2  0  0  0  0
 28 25  1  0  0  0  0
 29 30  1  0  0  0  0
 31 29  1  0  0  0  0
M  END
>  <minimizedAffinity>
-5.321208

$$$$

 OpenBabel03272504463D

 31 33  0  0  0  0  0  0  0  0999 V2000
   36.6970   29.4370   30.6750 C   0  0  0  0  0  0  0  0  0  0  0  0
   35.5440   29.7840   31.3740 C   0  0  0  0  0  0  0  0  0  0  0  0
   35.0960   29.1190   32.5130 C   0  0  0  0  0  0  0  0  0  0  0  0
   35.8830   28.0960   32.8900 N   0  0  0  0  0  0  0  0  0  0  0  0
   37.0040   27.7450   32.2250 C   0  0  0  0  0  0  0  0  0  0  0  0
   37.4050   28.3930   31.1480 N   0  0  0  0  0  0  0  0  0  0  0  0
   36.9930   29.9940   29.7950 H   0  0  0  0  0  0  0  0  0  0  0  0
   37.7020   26.6320   32.7830 N   0  0  0  0  0  0  0  0  0  0  0  0
   38.5100   25.8390   32.0510 C   0  0  0  0  0  3  0  0  0  0  0  0
   39.1830   24.7630   32.5940 C   0  0  0  0  0  0  0  0  0  0  0  0
   39.8170   24.1600   31.9650 H   0  0  0  0  0  0  0  0  0  0  0  0
   38.9600   24.5730   33.9400 C   0  0  0  0  0  0  0  0  0  0  0  0
   39.5510   23.5980   34.5020 O   0  0  0  0  0  0  0  0  0  0  0  0
   38.1680   25.3380   34.6910 N   0  0  0  0  0  0  0  0  0  0  0  0
   37.5350   26.3810   34.0960 C   0  0  0  0  0  0  0  0  0  0  0  0
   36.7930   27.0750   34.8600 O   0  0  0  0  0  0  0  0  0  0  0  0
   38.0530   25.1250   35.7070 H   0  0  0  0  0  0  0  0  0  0  0  0
   35.6490   30.7920   34.8820 Cl  0  0  0  0  0  0  0  0  0  0  0  0
   34.0670   30.2810   34.3630 C   0  0  0  0  0  0  0  0  0  0  0  0
   33.8920   29.4900   33.2310 C   0  0  0  0  0  0  0  0  0  0  0  0
   32.6240   29.1300   32.8890 C   0  0  0  0  0  0  0  0  0  0  0  0
   31.5190   29.5240   33.6230 C   0  0  0  0  0  0  0  0  0  0  0  0
   31.7270   30.3240   34.7620 C   0  0  0  0  0  0  0  0  0  0  0  0
   30.2940   30.7820   35.6400 Cl  0  0  0  0  0  0  0  0  0  0  0  0
   32.9860   30.6980   35.1280 C   0  0  0  0  0  0  0  0  0  0  0  0
   32.5560   28.5160   31.9970 H   0  0  0  0  0  0  0  0  0  0  0  0
   30.5590   29.1800   33.2580 H   0  0  0  0  0  0  0  0  0  0  0  0
   33.1270   31.3170   36.0120 H   0  0  0  0  0  0  0  0  0  0  0  0
   34.7860   30.8920   30.8770 N   0  0  0  0  0  0  0  0  0  0  0  0
   34.1000   30.4310   30.2160 H   0  0  0  0  0  0  0  0  0  0  0  0
   34.8860   31.8980   31.1090 H   0  0  0  0  0  0  0  0  0  0  0  0
  1  6  2  0  0  0  0
  1  2  1  0  0  0  0
  2  3  2  0  0  0  0
  3  4  1  0  0  0  0
  3 20  1  0  0  0  0
  5  8  1  0  0  0  0
  5  4  2  0  0  0  0
  6  5  1  0  0  0  0
  7  1  1  0  0  0  0
  8 15  1  0  0  0  0
  9 10  2  0  0  0  0
  9  8  1  0  0  0  0
 10 12  1  0  0  0  0
 11 10  1  0  0  0  0
 12 13  2  0  0  0  0
 12 14  1  0  0  0  0
 14 17  1  0  0  0  0
 15 14  1  0  0  0  0
 15 16  2  0  0  0  0
 19 18  1  0  0  0  0
 19 25  1  0  0  0  0
 20 19  2  0  0  0  0
 21 20  1  0  0  0  0
 21 22  2  0  0  0  0
 22 23  1  0  0  0  0
 23 25  2  0  0  0  0
 23 24  1  0  0  0  0
 25 28  1  0  0  0  0
 26 21  1  0  0  0  0
 27 22  1  0  0  0  0
 29 31  1  0  0  0  0
 29  2  1  0  0  0  0
 30 29  1  0  0  0  0
M  END
>  <minimizedAffinity>
-5.32017565

$$$$

 OpenBabel03272504463D

 31 33  0  0  0  0  0  0  0  0999 V2000
   37.2770   24.4090   32.1280 C   0  0  0  0  0  0  0  0  0  0  0  0
   36.7180   25.6830   32.1000 C   0  0  0  0  0  0  0  0  0  0  0  0
   37.3050   26.8020   32.6870 C   0  0  0  0  0  0  0  0  0  0  0  0
   38.4770   26.5460   33.2930 N   0  0  0  0  0  0  0  0  0  0  0  0
   39.0340   25.3170   33.3320 C   0  0  0  0  0  0  0  0  0  0  0  0
   38.4550   24.2740   32.7670 N   0  0  0  0  0  0  0  0  0  0  0  0
   36.7710   23.5770   31.6530 H   0  0  0  0  0  0  0  0  0  0  0  0
   40.2810   25.2500   34.0230 N   0  0  0  0  0  0  0  0  0  0  0  0
   40.7380   24.1150   34.5900 C   0  0  0  0  0  3  0  0  0  0  0  0
   41.9450   24.0550   35.2590 C   0  0  0  0  0  0  0  0  0  0  0  0
   42.2650   23.1230   35.6950 H   0  0  0  0  0  0  0  0  0  0  0  0
   42.6350   25.2470   35.2960 C   0  0  0  0  0  0  0  0  0  0  0  0
   43.7540   25.2590   35.8970 O   0  0  0  0  0  0  0  0  0  0  0  0
   42.2100   26.3840   34.7450 N   0  0  0  0  0  0  0  0  0  0  0  0
   41.0150   26.3770   34.1010 C   0  0  0  0  0  0  0  0  0  0  0  0
   40.6610   27.4890   33.5980 O   0  0  0  0  0  0  0  0  0  0  0  0
   42.7960   27.2460   34.8190 H   0  0  0  0  0  0  0  0  0  0  0  0
   38.0200   28.3080   30.2510 Cl  0  0  0  0  0  0  0  0  0  0  0  0
   37.0000   28.9010   31.5320 C   0  0  0  0  0  0  0  0  0  0  0  0
   36.7120   28.1240   32.6500 C   0  0  0  0  0  0  0  0  0  0  0  0
   35.9060   28.6580   33.6110 C   0  0  0  0  0  0  0  0  0  0  0  0
   35.3730   29.9300   33.5080 C   0  0  0  0  0  0  0  0  0  0  0  0
   35.6830   30.6920   32.3650 C   0  0  0  0  0  0  0  0  0  0  0  0
   34.9800   32.2830   32.3000 Cl  0  0  0  0  0  0  0  0  0  0  0  0
   36.4870   30.1830   31.3890 C   0  0  0  0  0  0  0  0  0  0  0  0
   35.7190   28.0020   34.4550 H   0  0  0  0  0  0  0  0  0  0  0  0
   34.7460   30.2500   34.3310 H   0  0  0  0  0  0  0  0  0  0  0  0
   36.7140   30.7860   30.5120 H   0  0  0  0  0  0  0  0  0  0  0  0
   35.4650   25.8340   31.4240 N   0  0  0  0  0  0  0  0  0  0  0  0
   34.7600   25.6750   32.1960 H   0  0  0  0  0  0  0  0  0  0  0  0
   35.2940   26.0460   30.4230 H   0  0  0  0  0  0  0  0  0  0  0  0
  1  6  1  0  0  0  0
  2  1  2  0  0  0  0
  2  3  1  0  0  0  0
  3  4  2  0  0  0  0
  4  5  1  0  0  0  0
  5  8  1  0  0  0  0
  6  5  2  0  0  0  0
  7  1  1  0  0  0  0
  8 15  1  0  0  0  0
  8  9  1  0  0  0  0
  9 10  2  0  0  0  0
 10 12  1  0  0  0  0
 10 11  1  0  0  0  0
 12 13  2  0  0  0  0
 14 17  1  0  0  0  0
 14 12  1  0  0  0  0
 15 14  1  0  0  0  0
 16 15  2  0  0  0  0
 18 19  1  0  0  0  0
 19 20  1  0  0  0  0
 20  3  1  0  0  0  0
 20 21  2  0  0  0  0
 21 26  1  0  0  0  0
 22 21  1  0  0  0  0
 22 27  1  0  0  0  0
 23 22  2  0  0  0  0
 24 23  1  0  0  0  0
 25 19  2  0  0  0  0
 25 23  1  0  0  0  0
 28 25  1  0  0  0  0
 29  2  1  0  0  0  0
 29 30  1  0  0  0  0
 31 29  1  0  0  0  0
M  END
>  <minimizedAffinity>
-5.26199007

$$$$
