
 OpenBabel03272509433D

 39 41  0  0  1  0  0  0  0  0999 V2000
   37.1540   30.9330   49.0740 C   0  0  0  0  0  0  0  0  0  0  0  0
   36.8870   31.8670   50.0760 C   0  0  0  0  0  0  0  0  0  0  0  0
   37.4310   33.1390   50.0620 C   0  0  0  0  0  0  0  0  0  0  0  0
   38.2810   33.5060   49.0070 C   0  0  0  0  0  0  0  0  0  0  0  0
   38.5340   32.5810   48.0320 C   0  0  0  0  0  0  0  0  0  0  0  0
   37.9670   31.3150   48.0830 C   0  0  0  0  0  0  0  0  0  0  0  0
   36.2270   31.5690   50.8860 H   0  0  0  0  0  0  0  0  0  0  0  0
   37.1660   33.7780   50.8760 H   0  0  0  0  0  0  0  0  0  0  0  0
   38.6520   34.5020   49.0790 H   0  0  0  0  0  0  0  0  0  0  0  0
   39.2040   33.0110   47.2920 H   0  0  0  0  0  0  0  0  0  0  0  0
   36.6080   29.5930   49.1160 C   0  0  2  0  0  0  0  0  0  0  0  0
   37.0820   29.0450   48.2130 H   0  0  0  0  0  0  0  0  0  0  0  0
   33.6180   29.8240   47.0640 C   0  0  0  0  0  0  0  0  0  0  0  0
   32.9380   28.6510   47.3290 C   0  0  0  0  0  0  0  0  0  0  0  0
   33.4720   27.7860   48.2740 C   0  0  0  0  0  0  0  0  0  0  0  0
   34.6490   28.1230   48.9040 N   0  0  0  0  0  0  0  0  0  0  0  0
   35.2490   29.2570   48.6040 C   0  0  0  0  0  0  0  0  0  0  0  0
   34.7450   30.1090   47.6920 N   0  0  0  0  0  0  0  0  0  0  0  0
   33.2170   30.5040   46.3350 H   0  0  0  0  0  0  0  0  0  0  0  0
   32.0240   28.4710   46.7860 H   0  0  0  0  0  0  0  0  0  0  0  0
   32.9520   26.8760   48.4870 H   0  0  0  0  0  0  0  0  0  0  0  0
   37.1460   28.8690   50.0330 O   0  0  0  0  0  0  0  0  0  0  0  0
   36.8000   29.0810   50.9480 H   0  0  0  0  0  0  0  0  0  0  0  0
   38.3410   30.4300   47.0040 C   0  0  0  0  0  3  0  0  0  0  0  0
   38.9690   30.8360   45.8940 C   0  0  0  0  0  3  0  0  0  0  0  0
   39.4310   30.0170   44.7510 C   0  0  0  0  0  0  0  0  0  0  0  0
   39.0500   28.9730   44.9160 H   0  0  0  0  0  0  0  0  0  0  0  0
   40.5160   29.9360   44.7100 H   0  0  0  0  0  0  0  0  0  0  0  0
   38.6830   30.6210   43.2330 S   0  0  0  0  0  0  0  0  0  0  0  0
   34.3780   28.6830   43.8780 H   0  0  0  0  0  0  0  0  0  0  0  0
   34.9080   29.5570   43.6950 N   0  0  0  0  0  0  0  0  0  0  0  0
   36.2640   29.5730   43.5890 C   0  0  0  0  0  3  0  0  0  0  0  0
   36.9220   30.7670   43.3430 C   0  0  0  0  0  0  0  0  0  0  0  0
   36.1630   31.9130   43.2130 C   0  0  0  0  0  0  0  0  0  0  0  0
   36.8320   32.9520   42.9920 O   0  0  0  0  0  0  0  0  0  0  0  0
   34.8240   31.9050   43.3160 N   0  0  0  0  0  0  0  0  0  0  0  0
   34.2300   30.7140   43.5560 C   0  0  0  0  0  0  0  0  0  0  0  0
   32.9600   30.6710   43.6600 O   0  0  0  0  0  0  0  0  0  0  0  0
   34.3130   32.8030   43.2080 H   0  0  0  0  0  0  0  0  0  0  0  0
  1 11  1  0  0  0  0
  1  2  1  0  0  0  0
  2  7  1  0  0  0  0
  3  2  2  0  0  0  0
  3  8  1  0  0  0  0
  4  9  1  0  0  0  0
  4  3  1  0  0  0  0
  5  6  1  0  0  0  0
  5  4  2  0  0  0  0
  6  1  2  0  0  0  0
 10  5  1  0  0  0  0
 11 12  1  6  0  0  0
 11 22  1  0  0  0  0
 13 14  2  0  0  0  0
 13 18  1  0  0  0  0
 14 15  1  0  0  0  0
 15 21  1  0  0  0  0
 15 16  2  0  0  0  0
 17 16  1  0  0  0  0
 17 11  1  0  0  0  0
 18 17  2  0  0  0  0
 19 13  1  0  0  0  0
 20 14  1  0  0  0  0
 22 23  1  0  0  0  0
 24  6  1  0  0  0  0
 25 24  2  0  0  0  0
 26 27  1  0  0  0  0
 26 25  1  0  0  0  0
 28 26  1  0  0  0  0
 29 33  1  0  0  0  0
 29 26  1  0  0  0  0
 31 30  1  0  0  0  0
 32 31  1  0  0  0  0
 33 32  2  0  0  0  0
 34 36  1  0  0  0  0
 34 33  1  0  0  0  0
 35 34  2  0  0  0  0
 36 37  1  0  0  0  0
 37 38  2  0  0  0  0
 37 31  1  0  0  0  0
 39 36  1  0  0  0  0
M  END
>  <minimizedAffinity>
-5.80720234

>  <minimizedRMSD>
1.06120157

$$$$
