
 OpenBabel03272509043D

 34 36  0  0  0  0  0  0  0  0999 V2000
   36.8620   30.8660   50.8390 C   0  0  0  0  0  0  0  0  0  0  0  0
   37.4710   31.5230   49.7380 C   0  0  0  0  0  0  0  0  0  0  0  0
   37.2350   30.9890   48.4330 C   0  0  0  0  0  0  0  0  0  0  0  0
   36.4410   29.8880   48.3480 N   0  0  0  0  0  0  0  0  0  0  0  0
   35.8920   29.3090   49.4160 C   0  0  0  0  0  0  0  0  0  0  0  0
   36.1060   29.7990   50.6510 N   0  0  0  0  0  0  0  0  0  0  0  0
   37.0980   31.3370   51.7620 H   0  0  0  0  0  0  0  0  0  0  0  0
   38.1020   32.3980   49.8040 H   0  0  0  0  0  0  0  0  0  0  0  0
   37.8250   31.6160   47.3000 N   0  0  0  0  0  0  0  0  0  0  0  0
   37.2710   31.1900   46.1410 C   0  0  0  0  0  3  0  0  0  0  0  0
   37.7550   31.7240   44.9430 C   0  0  0  0  0  0  0  0  0  0  0  0
   37.3830   31.4520   43.9670 H   0  0  0  0  0  0  0  0  0  0  0  0
   38.7620   32.6480   44.9880 C   0  0  0  0  0  0  0  0  0  0  0  0
   39.2620   33.1820   43.9800 O   0  0  0  0  0  0  0  0  0  0  0  0
   39.2890   33.0490   46.1680 N   0  0  0  0  0  0  0  0  0  0  0  0
   38.8150   32.5280   47.3170 C   0  0  0  0  0  0  0  0  0  0  0  0
   39.1720   32.7710   48.4990 O   0  0  0  0  0  0  0  0  0  0  0  0
   40.0500   33.7400   46.2960 H   0  0  0  0  0  0  0  0  0  0  0  0
   35.0740   28.1470   49.1590 C   0  0  0  0  0  3  0  0  0  0  0  0
   33.9700   28.2890   48.5080 C   0  0  0  0  0  3  0  0  0  0  0  0
   32.9930   27.2550   48.1380 C   0  0  0  0  0  0  0  0  0  0  0  0
   32.1290   27.7640   47.6400 H   0  0  0  0  0  0  0  0  0  0  0  0
   32.5530   26.7190   49.0090 H   0  0  0  0  0  0  0  0  0  0  0  0
   33.5460   26.2750   47.1520 C   0  0  0  0  0  0  0  0  0  0  0  0
   33.8530   24.9600   47.4010 C   0  0  0  0  0  0  0  0  0  0  0  0
   34.3590   24.1480   46.4090 C   0  0  0  0  0  0  0  0  0  0  0  0
   34.5770   24.6340   45.1140 C   0  0  0  0  0  0  0  0  0  0  0  0
   34.2780   25.9380   44.8450 C   0  0  0  0  0  0  0  0  0  0  0  0
   33.7710   26.7400   45.8540 C   0  0  0  0  0  0  0  0  0  0  0  0
   33.6710   24.6140   48.4200 H   0  0  0  0  0  0  0  0  0  0  0  0
   34.5770   23.1190   46.6830 H   0  0  0  0  0  0  0  0  0  0  0  0
   34.9700   23.9560   44.3920 H   0  0  0  0  0  0  0  0  0  0  0  0
   34.4340   26.3520   43.8550 H   0  0  0  0  0  0  0  0  0  0  0  0
   33.5480   27.7570   45.6060 H   0  0  0  0  0  0  0  0  0  0  0  0
  1  7  1  0  0  0  0
  2  8  1  0  0  0  0
  2  1  2  0  0  0  0
  3  2  1  0  0  0  0
  4  3  2  0  0  0  0
  4  5  1  0  0  0  0
  5  6  2  0  0  0  0
  6  1  1  0  0  0  0
  9 16  1  0  0  0  0
  9  3  1  0  0  0  0
 10  9  1  0  0  0  0
 11 13  1  0  0  0  0
 11 10  2  0  0  0  0
 12 11  1  0  0  0  0
 13 15  1  0  0  0  0
 14 13  2  0  0  0  0
 15 18  1  0  0  0  0
 15 16  1  0  0  0  0
 16 17  2  0  0  0  0
 19  5  1  0  0  0  0
 20 19  2  0  0  0  0
 21 20  1  0  0  0  0
 21 23  1  0  0  0  0
 22 21  1  0  0  0  0
 24 25  1  0  0  0  0
 24 21  1  0  0  0  0
 25 30  1  0  0  0  0
 26 31  1  0  0  0  0
 26 25  2  0  0  0  0
 27 26  1  0  0  0  0
 28 27  2  0  0  0  0
 28 29  1  0  0  0  0
 29 24  2  0  0  0  0
 32 27  1  0  0  0  0
 33 28  1  0  0  0  0
 34 29  1  0  0  0  0
M  END
>  <minimizedAffinity>
-6.41492558

>  <minimizedRMSD>
0.995920658

$$$$
