
 OpenBabel03272510173D

 29 31  0  0  0  0  0  0  0  0999 V2000
   37.2390   29.4900   51.2800 Br  0  0  0  0  0  0  0  0  0  0  0  0
   36.0280   29.3090   49.8170 C   0  0  0  0  0  0  0  0  0  0  0  0
   36.0870   30.1630   48.7370 C   0  0  0  0  0  0  0  0  0  0  0  0
   35.1720   29.9640   47.7160 C   0  0  0  0  0  0  0  0  0  0  0  0
   34.2170   28.9530   47.7430 C   0  0  0  0  0  0  0  0  0  0  0  0
   34.1970   28.1310   48.8380 C   0  0  0  0  0  0  0  0  0  0  0  0
   35.0980   28.3120   49.8630 C   0  0  0  0  0  0  0  0  0  0  0  0
   35.2630   30.6700   46.8830 H   0  0  0  0  0  0  0  0  0  0  0  0
   33.4380   27.3650   48.8110 H   0  0  0  0  0  0  0  0  0  0  0  0
   35.0120   27.6140   50.6930 H   0  0  0  0  0  0  0  0  0  0  0  0
   33.3730   28.9220   46.5960 N   0  0  0  0  0  0  0  0  0  0  0  0
   33.6680   29.2540   45.3300 C   0  0  0  0  0  3  0  0  0  0  0  0
   32.6790   29.1400   44.3760 C   0  0  0  0  0  0  0  0  0  0  0  0
   32.9520   29.4180   43.3600 H   0  0  0  0  0  0  0  0  0  0  0  0
   31.4030   28.6940   44.7090 C   0  0  0  0  0  0  0  0  0  0  0  0
   30.5150   28.6020   43.8040 O   0  0  0  0  0  0  0  0  0  0  0  0
   31.1550   28.3720   45.9960 N   0  0  0  0  0  0  0  0  0  0  0  0
   32.1260   28.4830   46.9310 C   0  0  0  0  0  0  0  0  0  0  0  0
   31.7370   28.1460   48.0750 O   0  0  0  0  0  0  0  0  0  0  0  0
   30.1820   28.0420   46.1940 H   0  0  0  0  0  0  0  0  0  0  0  0
   37.8660   33.2440   49.5210 C   0  0  0  0  0  0  0  0  0  0  0  0
   38.9290   33.2630   48.5990 C   0  0  0  0  0  0  0  0  0  0  0  0
   39.0240   32.2060   47.7080 C   0  0  0  0  0  0  0  0  0  0  0  0
   38.0900   31.2060   47.7680 N   0  0  0  0  0  0  0  0  0  0  0  0
   37.0760   31.2290   48.6800 C   0  0  0  0  0  0  0  0  0  0  0  0
   36.9740   32.2470   49.5450 N   0  0  0  0  0  0  0  0  0  0  0  0
   37.8460   34.0950   50.1870 H   0  0  0  0  0  0  0  0  0  0  0  0
   39.6880   33.9950   48.4870 H   0  0  0  0  0  0  0  0  0  0  0  0
   39.7550   32.0330   46.9300 H   0  0  0  0  0  0  0  0  0  0  0  0
  2  7  1  0  0  0  0
  2  1  1  0  0  0  0
  3  2  2  0  0  0  0
  4  5  2  0  0  0  0
  4  3  1  0  0  0  0
  5  6  1  0  0  0  0
  6  7  2  0  0  0  0
  7 10  1  0  0  0  0
  8  4  1  0  0  0  0
  9  6  1  0  0  0  0
 11 18  1  0  0  0  0
 11  5  1  0  0  0  0
 12 11  1  0  0  0  0
 13 15  1  0  0  0  0
 13 12  2  0  0  0  0
 14 13  1  0  0  0  0
 15 17  1  0  0  0  0
 16 15  2  0  0  0  0
 17 20  1  0  0  0  0
 17 18  1  0  0  0  0
 18 19  2  0  0  0  0
 21 26  1  0  0  0  0
 21 27  1  0  0  0  0
 22 21  2  0  0  0  0
 23 24  2  0  0  0  0
 23 22  1  0  0  0  0
 24 25  1  0  0  0  0
 25  3  1  0  0  0  0
 25 26  2  0  0  0  0
 28 22  1  0  0  0  0
 29 23  1  0  0  0  0
M  END
>  <minimizedAffinity>
-5.9253974

>  <minimizedRMSD>
0.722916484

$$$$
