
 OpenBabel03272509043D

 34 36  0  0  0  0  0  0  0  0999 V2000
   37.1900   30.6490   50.9970 C   0  0  0  0  0  0  0  0  0  0  0  0
   37.7100   31.2800   49.8360 C   0  0  0  0  0  0  0  0  0  0  0  0
   37.2960   30.7740   48.5640 C   0  0  0  0  0  0  0  0  0  0  0  0
   36.4330   29.7230   48.5660 N   0  0  0  0  0  0  0  0  0  0  0  0
   35.9750   29.1660   49.6870 C   0  0  0  0  0  0  0  0  0  0  0  0
   36.3550   29.6310   50.8920 N   0  0  0  0  0  0  0  0  0  0  0  0
   37.5570   31.0960   51.8890 H   0  0  0  0  0  0  0  0  0  0  0  0
   38.3950   32.1160   49.8330 H   0  0  0  0  0  0  0  0  0  0  0  0
   37.7910   31.3770   47.3730 N   0  0  0  0  0  0  0  0  0  0  0  0
   39.0200   31.9140   47.5520 C   0  0  0  0  0  3  0  0  0  0  0  0
   39.6300   32.5420   46.4610 C   0  0  0  0  0  0  0  0  0  0  0  0
   40.6070   33.0000   46.4980 H   0  0  0  0  0  0  0  0  0  0  0  0
   38.9670   32.5870   45.2670 C   0  0  0  0  0  0  0  0  0  0  0  0
   39.4230   33.1210   44.2380 O   0  0  0  0  0  0  0  0  0  0  0  0
   37.7390   32.0380   45.1290 N   0  0  0  0  0  0  0  0  0  0  0  0
   37.1580   31.4360   46.1850 C   0  0  0  0  0  0  0  0  0  0  0  0
   36.0360   30.8730   46.2550 O   0  0  0  0  0  0  0  0  0  0  0  0
   37.1660   32.0260   44.2650 H   0  0  0  0  0  0  0  0  0  0  0  0
   35.0660   28.0570   49.5210 C   0  0  0  0  0  3  0  0  0  0  0  0
   34.2010   28.0940   48.5640 C   0  0  0  0  0  3  0  0  0  0  0  0
   33.1900   27.0860   48.2130 C   0  0  0  0  0  0  0  0  0  0  0  0
   32.3090   27.6230   47.7780 H   0  0  0  0  0  0  0  0  0  0  0  0
   32.7880   26.5280   49.0890 H   0  0  0  0  0  0  0  0  0  0  0  0
   33.6750   26.1310   47.1690 C   0  0  0  0  0  0  0  0  0  0  0  0
   33.9690   24.8030   47.3570 C   0  0  0  0  0  0  0  0  0  0  0  0
   34.4100   24.0170   46.3150 C   0  0  0  0  0  0  0  0  0  0  0  0
   34.5730   24.5440   45.0280 C   0  0  0  0  0  0  0  0  0  0  0  0
   34.2860   25.8610   44.8180 C   0  0  0  0  0  0  0  0  0  0  0  0
   33.8440   26.6360   45.8770 C   0  0  0  0  0  0  0  0  0  0  0  0
   33.8310   24.4250   48.3720 H   0  0  0  0  0  0  0  0  0  0  0  0
   34.6220   22.9760   46.5430 H   0  0  0  0  0  0  0  0  0  0  0  0
   34.9170   23.8840   44.2650 H   0  0  0  0  0  0  0  0  0  0  0  0
   34.4000   26.3060   43.8360 H   0  0  0  0  0  0  0  0  0  0  0  0
   33.6290   27.6660   45.6740 H   0  0  0  0  0  0  0  0  0  0  0  0
  1  7  1  0  0  0  0
  2  1  2  0  0  0  0
  3  4  2  0  0  0  0
  3  2  1  0  0  0  0
  4  5  1  0  0  0  0
  5  6  2  0  0  0  0
  6  1  1  0  0  0  0
  8  2  1  0  0  0  0
  9 10  1  0  0  0  0
  9  3  1  0  0  0  0
 11 12  1  0  0  0  0
 11 10  2  0  0  0  0
 13 11  1  0  0  0  0
 14 13  2  0  0  0  0
 15 13  1  0  0  0  0
 15 16  1  0  0  0  0
 16 17  2  0  0  0  0
 16  9  1  0  0  0  0
 18 15  1  0  0  0  0
 19  5  1  0  0  0  0
 20 19  2  0  0  0  0
 21 20  1  0  0  0  0
 21 23  1  0  0  0  0
 22 21  1  0  0  0  0
 24 25  1  0  0  0  0
 24 21  1  0  0  0  0
 25 30  1  0  0  0  0
 26 31  1  0  0  0  0
 26 25  2  0  0  0  0
 27 26  1  0  0  0  0
 28 27  2  0  0  0  0
 28 29  1  0  0  0  0
 29 24  2  0  0  0  0
 32 27  1  0  0  0  0
 33 28  1  0  0  0  0
 34 29  1  0  0  0  0
M  END
>  <minimizedAffinity>
-6.0098176

>  <minimizedRMSD>
0.859873891

$$$$
