
 OpenBabel03272507193D

 31 33  0  0  1  0  0  0  0  0999 V2000
   37.3200   31.2120   49.4530 C   0  0  0  0  0  0  0  0  0  0  0  0
   38.3050   32.1810   49.4890 C   0  0  0  0  0  0  0  0  0  0  0  0
   38.7660   32.5860   48.2110 C   0  0  0  0  0  0  0  0  0  0  0  0
   38.2460   32.0320   47.0650 N   0  0  0  0  0  0  0  0  0  0  0  0
   37.2840   31.0880   47.1080 C   0  0  0  0  0  0  0  0  0  0  0  0
   36.8130   30.6710   48.3240 N   0  0  0  0  0  0  0  0  0  0  0  0
   38.7080   32.6100   50.3930 H   0  0  0  0  0  0  0  0  0  0  0  0
   39.5420   33.3450   48.1480 H   0  0  0  0  0  0  0  0  0  0  0  0
   36.8040   30.5690   45.8730 N   0  0  0  0  0  0  0  0  0  0  0  0
   35.5250   30.0960   45.8640 C   0  0  0  0  0  3  0  0  0  0  0  0
   34.9890   29.5780   44.7040 C   0  0  0  0  0  0  0  0  0  0  0  0
   33.9900   29.1920   44.6400 H   0  0  0  0  0  0  0  0  0  0  0  0
   35.7360   29.5270   43.5290 C   0  0  0  0  0  0  0  0  0  0  0  0
   35.2490   29.0540   42.4660 O   0  0  0  0  0  0  0  0  0  0  0  0
   37.0010   30.0100   43.5890 N   0  0  0  0  0  0  0  0  0  0  0  0
   37.5080   30.5090   44.7190 C   0  0  0  0  0  0  0  0  0  0  0  0
   38.6910   30.9600   44.7780 O   0  0  0  0  0  0  0  0  0  0  0  0
   37.5810   29.9780   42.7060 H   0  0  0  0  0  0  0  0  0  0  0  0
   36.7840   30.7910   50.7850 C   0  0  1  0  0  0  0  0  0  0  0  0
   36.0690   29.5290   50.9700 C   0  0  2  0  0  0  0  0  0  0  0  0
   37.5240   29.5540   51.3380 C   0  0  0  0  0  0  0  0  0  0  0  0
   36.6840   31.6260   51.5110 H   0  0  0  0  0  0  0  0  0  0  0  0
   35.2630   29.6040   51.7600 H   0  0  0  0  0  0  0  0  0  0  0  0
   38.2380   29.0280   50.6740 H   0  0  0  0  0  0  0  0  0  0  0  0
   37.7070   29.5820   52.4210 H   0  0  0  0  0  0  0  0  0  0  0  0
   35.6830   28.8510   49.8210 O   0  0  0  0  0  0  0  0  0  0  0  0
   34.4520   28.4640   49.4080 C   0  0  0  0  0  0  0  0  0  0  0  0
   34.2810   27.4980   48.6330 O   0  0  0  0  0  0  0  0  0  0  0  0
   33.5130   29.3150   49.9910 N   0  0  0  0  0  0  0  0  0  0  0  0
   32.7220   30.0010   50.0060 H   0  0  0  0  0  0  0  0  0  0  0  0
   33.3650   29.5010   51.0200 H   0  0  0  0  0  0  0  0  0  0  0  0
  1  2  1  0  0  0  0
  1 19  1  0  0  0  0
  2  7  1  0  0  0  0
  3  2  2  0  0  0  0
  4  5  2  0  0  0  0
  4  3  1  0  0  0  0
  5  6  1  0  0  0  0
  6  1  2  0  0  0  0
  8  3  1  0  0  0  0
  9  5  1  0  0  0  0
 10  9  1  0  0  0  0
 11 10  2  0  0  0  0
 12 11  1  0  0  0  0
 13 15  1  0  0  0  0
 13 11  1  0  0  0  0
 14 13  2  0  0  0  0
 15 16  1  0  0  0  0
 16 17  2  0  0  0  0
 16  9  1  0  0  0  0
 18 15  1  0  0  0  0
 19 20  1  0  0  0  0
 19 21  1  0  0  0  0
 19 22  1  1  0  0  0
 20 21  1  0  0  0  0
 20 23  1  1  0  0  0
 21 25  1  0  0  0  0
 24 21  1  0  0  0  0
 26 20  1  0  0  0  0
 27 26  1  0  0  0  0
 27 29  1  0  0  0  0
 28 27  2  0  0  0  0
 29 30  1  0  0  0  0
 29 31  1  0  0  0  0
M  END
>  <minimizedAffinity>
-5.81502581

>  <minimizedRMSD>
0.134706512

$$$$
