
 OpenBabel03272509433D

 39 41  0  0  1  0  0  0  0  0999 V2000
   37.0370   30.9170   49.0740 C   0  0  0  0  0  0  0  0  0  0  0  0
   36.7410   31.8370   50.0810 C   0  0  0  0  0  0  0  0  0  0  0  0
   37.3220   33.0920   50.1270 C   0  0  0  0  0  0  0  0  0  0  0  0
   38.2400   33.4560   49.1310 C   0  0  0  0  0  0  0  0  0  0  0  0
   38.5200   32.5450   48.1490 C   0  0  0  0  0  0  0  0  0  0  0  0
   37.9150   31.2960   48.1390 C   0  0  0  0  0  0  0  0  0  0  0  0
   36.0280   31.5410   50.8450 H   0  0  0  0  0  0  0  0  0  0  0  0
   37.0300   33.7210   50.9400 H   0  0  0  0  0  0  0  0  0  0  0  0
   38.6350   34.4380   49.2460 H   0  0  0  0  0  0  0  0  0  0  0  0
   39.2430   32.9700   47.4580 H   0  0  0  0  0  0  0  0  0  0  0  0
   36.4500   29.5940   49.0540 C   0  0  2  0  0  0  0  0  0  0  0  0
   36.9520   29.0540   48.1610 H   0  0  0  0  0  0  0  0  0  0  0  0
   33.5970   29.9320   46.8290 C   0  0  0  0  0  0  0  0  0  0  0  0
   32.8510   28.7940   47.0660 C   0  0  0  0  0  0  0  0  0  0  0  0
   33.2890   27.9170   48.0490 C   0  0  0  0  0  0  0  0  0  0  0  0
   34.4420   28.2100   48.7430 N   0  0  0  0  0  0  0  0  0  0  0  0
   35.1090   29.3120   48.4670 C   0  0  0  0  0  0  0  0  0  0  0  0
   34.6980   30.1740   47.5190 N   0  0  0  0  0  0  0  0  0  0  0  0
   33.2690   30.6200   46.0710 H   0  0  0  0  0  0  0  0  0  0  0  0
   31.9620   28.6470   46.4720 H   0  0  0  0  0  0  0  0  0  0  0  0
   32.7180   27.0350   48.2410 H   0  0  0  0  0  0  0  0  0  0  0  0
   36.9200   28.8310   49.9770 O   0  0  0  0  0  0  0  0  0  0  0  0
   36.5350   29.0310   50.8790 H   0  0  0  0  0  0  0  0  0  0  0  0
   38.3230   30.4240   47.0630 C   0  0  0  0  0  3  0  0  0  0  0  0
   38.7750   30.8620   45.8820 C   0  0  0  0  0  3  0  0  0  0  0  0
   39.2550   30.0650   44.7300 C   0  0  0  0  0  0  0  0  0  0  0  0
   38.3780   29.9150   44.0440 H   0  0  0  0  0  0  0  0  0  0  0  0
   39.5810   29.0680   45.0210 H   0  0  0  0  0  0  0  0  0  0  0  0
   40.4860   31.0020   43.8180 S   0  0  0  0  0  0  0  0  0  0  0  0
   38.1690   34.6520   41.8130 H   0  0  0  0  0  0  0  0  0  0  0  0
   38.6440   33.7430   41.6500 N   0  0  0  0  0  0  0  0  0  0  0  0
   39.1960   33.0230   42.6640 C   0  0  0  0  0  3  0  0  0  0  0  0
   39.8190   31.8160   42.3930 C   0  0  0  0  0  0  0  0  0  0  0  0
   39.8560   31.3830   41.0830 C   0  0  0  0  0  0  0  0  0  0  0  0
   40.4380   30.2830   40.9190 O   0  0  0  0  0  0  0  0  0  0  0  0
   39.3130   32.0890   40.0770 N   0  0  0  0  0  0  0  0  0  0  0  0
   38.7180   33.2590   40.3940 C   0  0  0  0  0  0  0  0  0  0  0  0
   38.1930   33.9540   39.4630 O   0  0  0  0  0  0  0  0  0  0  0  0
   39.3770   31.7070   39.1130 H   0  0  0  0  0  0  0  0  0  0  0  0
  1  2  1  0  0  0  0
  2  3  2  0  0  0  0
  2  7  1  0  0  0  0
  3  8  1  0  0  0  0
  4  9  1  0  0  0  0
  4  3  1  0  0  0  0
  5  4  2  0  0  0  0
  6  5  1  0  0  0  0
  6  1  2  0  0  0  0
 10  5  1  0  0  0  0
 11 12  1  6  0  0  0
 11  1  1  0  0  0  0
 11 22  1  0  0  0  0
 13 14  2  0  0  0  0
 13 18  1  0  0  0  0
 14 15  1  0  0  0  0
 15 21  1  0  0  0  0
 15 16  2  0  0  0  0
 17 16  1  0  0  0  0
 17 11  1  0  0  0  0
 18 17  2  0  0  0  0
 19 13  1  0  0  0  0
 20 14  1  0  0  0  0
 22 23  1  0  0  0  0
 24  6  1  0  0  0  0
 25 24  2  0  0  0  0
 26 28  1  0  0  0  0
 26 25  1  0  0  0  0
 27 26  1  0  0  0  0
 29 26  1  0  0  0  0
 31 30  1  0  0  0  0
 31 32  1  0  0  0  0
 33 32  2  0  0  0  0
 33 29  1  0  0  0  0
 34 33  1  0  0  0  0
 35 34  2  0  0  0  0
 36 37  1  0  0  0  0
 36 34  1  0  0  0  0
 37 31  1  0  0  0  0
 38 37  2  0  0  0  0
 39 36  1  0  0  0  0
M  END
>  <minimizedAffinity>
-6.13051558

>  <minimizedRMSD>
2.28949451

$$$$
