
 OpenBabel03272508573D

 41 44  0  0  1  0  0  0  0  0999 V2000
   39.1570   31.4650   43.3420 C   0  0  0  0  0  0  0  0  0  0  0  0
   40.1650   30.5530   43.5090 C   0  0  0  0  0  0  0  0  0  0  0  0
   40.8890   30.1990   42.3750 C   0  0  0  0  0  0  0  0  0  0  0  0
   40.5480   30.7800   41.1730 C   0  0  0  0  0  0  0  0  0  0  0  0
   39.5290   31.6980   41.0160 C   0  0  0  0  0  0  0  0  0  0  0  0
   38.8450   32.0220   42.1420 N   0  0  0  0  0  0  0  0  0  0  0  0
   40.4160   30.1080   44.4640 H   0  0  0  0  0  0  0  0  0  0  0  0
   41.6890   29.4940   42.4310 H   0  0  0  0  0  0  0  0  0  0  0  0
   41.1280   30.4840   40.3150 H   0  0  0  0  0  0  0  0  0  0  0  0
   38.3630   31.8820   44.5230 C   0  0  0  0  0  0  0  0  0  0  0  0
   37.2690   32.4450   44.4200 O   0  0  0  0  0  0  0  0  0  0  0  0
   38.9340   31.5970   45.8320 N   0  0  0  0  0  0  0  0  0  0  0  0
   39.9250   31.3260   45.9900 H   0  0  0  0  0  0  0  0  0  0  0  0
   38.4210   31.0970   48.2190 C   0  0  2  0  0  0  0  0  0  0  0  0
   38.6540   32.5620   48.1200 C   0  0  0  0  0  0  0  0  0  0  0  0
   38.0590   31.6990   46.9780 C   0  0  1  0  0  0  0  0  0  0  0  0
   39.3660   30.5220   48.3280 H   0  0  0  0  0  0  0  0  0  0  0  0
   37.9600   33.2610   48.6340 H   0  0  0  0  0  0  0  0  0  0  0  0
   39.6590   32.9600   47.9900 H   0  0  0  0  0  0  0  0  0  0  0  0
   36.9690   31.9230   46.7700 H   0  0  0  0  0  0  0  0  0  0  0  0
   35.0590   30.2160   49.5280 C   0  0  0  0  0  0  0  0  0  0  0  0
   35.3860   29.5480   50.7420 C   0  0  0  0  0  0  0  0  0  0  0  0
   36.7770   29.4170   51.0990 C   0  0  0  0  0  0  0  0  0  0  0  0
   37.7390   29.9350   50.2630 N   0  0  0  0  0  0  0  0  0  0  0  0
   37.3360   30.5600   49.1200 C   0  0  0  0  0  0  0  0  0  0  0  0
   36.0140   30.7200   48.7190 N   0  0  0  0  0  0  0  0  0  0  0  0
   34.0220   30.3030   49.2820 H   0  0  0  0  0  0  0  0  0  0  0  0
   34.6460   29.1460   51.3890 H   0  0  0  0  0  0  0  0  0  0  0  0
   37.0320   28.9100   52.0180 H   0  0  0  0  0  0  0  0  0  0  0  0
   39.2130   32.2670   39.7190 C   0  0  0  0  0  0  0  0  0  0  0  0
   38.8910   33.4680   39.6220 O   0  0  0  0  0  0  0  0  0  0  0  0
   41.2220   30.2230   36.2030 H   0  0  0  0  0  0  0  0  0  0  0  0
   40.3830   30.3210   36.8180 N   0  0  0  0  0  0  0  0  0  0  0  0
   40.4410   31.2390   37.8210 C   0  0  0  0  0  3  0  0  0  0  0  0
   39.3080   31.3310   38.6050 C   0  0  0  0  0  0  0  0  0  0  0  0
   38.1780   30.5600   38.4130 C   0  0  0  0  0  0  0  0  0  0  0  0
   37.1590   30.6410   39.1160 O   0  0  0  0  0  0  0  0  0  0  0  0
   38.1720   29.6530   37.3930 N   0  0  0  0  0  0  0  0  0  0  0  0
   39.2860   29.5620   36.6210 C   0  0  0  0  0  0  0  0  0  0  0  0
   39.2200   28.7090   35.6980 O   0  0  0  0  0  0  0  0  0  0  0  0
   37.3260   29.0710   37.2420 H   0  0  0  0  0  0  0  0  0  0  0  0
  1  2  1  0  0  0  0
  1 10  1  0  0  0  0
  2  7  1  0  0  0  0
  3  8  1  0  0  0  0
  3  2  2  0  0  0  0
  4  3  1  0  0  0  0
  5  4  2  0  0  0  0
  5  6  1  0  0  0  0
  6  1  2  0  0  0  0
  9  4  1  0  0  0  0
 10 12  1  0  0  0  0
 11 10  2  0  0  0  0
 12 13  1  0  0  0  0
 12 16  1  0  0  0  0
 14 17  1  6  0  0  0
 14 25  1  0  0  0  0
 15 14  1  0  0  0  0
 15 18  1  0  0  0  0
 16 20  1  6  0  0  0
 16 15  1  0  0  0  0
 16 14  1  0  0  0  0
 19 15  1  0  0  0  0
 21 22  1  0  0  0  0
 22 23  2  0  0  0  0
 22 28  1  0  0  0  0
 23 29  1  0  0  0  0
 24 23  1  0  0  0  0
 25 24  2  0  0  0  0
 26 25  1  0  0  0  0
 26 21  2  0  0  0  0
 27 21  1  0  0  0  0
 30  5  1  0  0  0  0
 31 30  2  0  0  0  0
 32 33  1  0  0  0  0
 33 34  1  0  0  0  0
 34 35  2  0  0  0  0
 35 30  1  0  0  0  0
 36 35  1  0  0  0  0
 36 37  2  0  0  0  0
 38 36  1  0  0  0  0
 39 33  1  0  0  0  0
 39 38  1  0  0  0  0
 40 39  2  0  0  0  0
 41 38  1  0  0  0  0
M  END
>  <minimizedAffinity>
-4.96979427

>  <minimizedRMSD>
0.316026658

$$$$
