
 OpenBabel03272510043D

 38 40  0  0  0  0  0  0  0  0999 V2000
   32.3660   26.6510   44.5640 C   0  0  0  0  0  0  0  0  0  0  0  0
   32.1080   27.0580   45.8340 C   0  0  0  0  0  0  0  0  0  0  0  0
   31.2080   26.3440   46.6180 C   0  0  0  0  0  0  0  0  0  0  0  0
   30.5520   25.2200   46.1500 C   0  0  0  0  0  0  0  0  0  0  0  0
   30.7860   24.7880   44.8770 C   0  0  0  0  0  0  0  0  0  0  0  0
   31.6770   25.5120   44.1320 C   0  0  0  0  0  0  0  0  0  0  0  0
   31.0210   26.6970   47.6450 H   0  0  0  0  0  0  0  0  0  0  0  0
   29.8810   24.7480   46.8450 H   0  0  0  0  0  0  0  0  0  0  0  0
   30.2500   23.9220   44.5750 H   0  0  0  0  0  0  0  0  0  0  0  0
   31.7760   25.0680   43.1330 H   0  0  0  0  0  0  0  0  0  0  0  0
   32.8730   30.6070   46.4060 C   0  0  0  0  0  0  0  0  0  0  0  0
   32.3090   29.4430   45.9070 C   0  0  0  0  0  0  0  0  0  0  0  0
   32.7030   28.2300   46.3800 C   0  0  0  0  0  0  0  0  0  0  0  0
   33.6570   28.2220   47.3520 N   0  0  0  0  0  0  0  0  0  0  0  0
   34.2020   29.3420   47.8390 C   0  0  0  0  0  0  0  0  0  0  0  0
   33.8070   30.5270   47.3600 N   0  0  0  0  0  0  0  0  0  0  0  0
   32.6850   31.6340   46.1480 H   0  0  0  0  0  0  0  0  0  0  0  0
   31.5870   29.7870   45.2050 H   0  0  0  0  0  0  0  0  0  0  0  0
   35.1800   29.1890   48.9460 C   0  0  0  0  0  0  0  0  0  0  0  0
   34.8960   30.0240   50.0090 F   0  0  0  0  0  0  0  0  0  0  0  0
   35.0140   27.8770   49.5330 F   0  0  0  0  0  0  0  0  0  0  0  0
   36.4550   29.2240   48.6300 F   0  0  0  0  0  0  0  0  0  0  0  0
   33.4940   27.4260   43.5160 S   0  0  0  0  0  0  0  0  0  0  0  0
   32.8070   28.3920   42.6220 O   0  0  0  0  0  0  0  0  0  0  0  0
   33.6270   26.3150   42.4960 O   0  0  0  0  0  0  0  0  0  0  0  0
   35.1760   27.4340   43.6050 C   0  0  0  0  0  0  0  0  0  0  0  0
   35.4190   27.0740   44.6860 H   0  0  0  0  0  0  0  0  0  0  0  0
   35.6560   26.6160   43.0410 H   0  0  0  0  0  0  0  0  0  0  0  0
   35.8830   28.6610   43.5560 N   0  0  0  0  0  0  0  0  0  0  0  0
   35.8230   29.6620   44.4670 C   0  0  0  0  0  3  0  0  0  0  0  0
   36.5340   30.8420   44.3740 C   0  0  0  0  0  0  0  0  0  0  0  0
   36.4230   31.6000   45.1640 H   0  0  0  0  0  0  0  0  0  0  0  0
   37.3570   30.9930   43.2710 C   0  0  0  0  0  0  0  0  0  0  0  0
   37.9930   32.0610   43.1970 O   0  0  0  0  0  0  0  0  0  0  0  0
   37.4310   30.0010   42.3460 N   0  0  0  0  0  0  0  0  0  0  0  0
   36.7170   28.8970   42.5060 C   0  0  0  0  0  0  0  0  0  0  0  0
   36.8480   28.0170   41.5890 O   0  0  0  0  0  0  0  0  0  0  0  0
   38.0670   30.1660   41.5340 H   0  0  0  0  0  0  0  0  0  0  0  0
  1  2  1  0  0  0  0
  2 13  1  0  0  0  0
  2  3  2  0  0  0  0
  3  7  1  0  0  0  0
  4  3  1  0  0  0  0
  4  8  1  0  0  0  0
  5  4  2  0  0  0  0
  6  1  2  0  0  0  0
  6  5  1  0  0  0  0
  9  5  1  0  0  0  0
 10  6  1  0  0  0  0
 11 16  1  0  0  0  0
 12 13  1  0  0  0  0
 12 11  2  0  0  0  0
 13 14  2  0  0  0  0
 14 15  1  0  0  0  0
 15 19  1  0  0  0  0
 16 15  2  0  0  0  0
 17 11  1  0  0  0  0
 18 12  1  0  0  0  0
 19 21  1  0  0  0  0
 19 20  1  0  0  0  0
 22 19  1  0  0  0  0
 23 26  1  0  0  0  0
 23  1  1  0  0  0  0
 24 23  2  0  0  0  0
 25 23  2  0  0  0  0
 26 27  1  0  0  0  0
 28 26  1  0  0  0  0
 29 26  1  0  0  0  0
 29 30  1  0  0  0  0
 31 30  2  0  0  0  0
 31 32  1  0  0  0  0
 33 31  1  0  0  0  0
 34 33  2  0  0  0  0
 35 36  1  0  0  0  0
 35 33  1  0  0  0  0
 36 29  1  0  0  0  0
 37 36  2  0  0  0  0
 38 35  1  0  0  0  0
M  END
>  <minimizedAffinity>
-3.67139149

>  <minimizedRMSD>
6.87107944

$$$$
