
 OpenBabel03272500033D

 29 31  0  0  0  0  0  0  0  0999 V2000
   37.8400   27.4170   35.2970 C   0  0  0  0  0  0  0  0  0  0  0  0
   37.2550   27.0740   34.0600 C   0  0  0  0  0  0  0  0  0  0  0  0
   37.4730   25.7770   33.5940 C   0  0  0  0  0  0  0  0  0  0  0  0
   38.2290   24.9390   34.3590 N   0  0  0  0  0  0  0  0  0  0  0  0
   38.7710   25.2940   35.5310 C   0  0  0  0  0  0  0  0  0  0  0  0
   38.5780   26.5530   36.0140 N   0  0  0  0  0  0  0  0  0  0  0  0
   37.7240   28.4060   35.7400 H   0  0  0  0  0  0  0  0  0  0  0  0
   37.0330   25.5170   32.6590 H   0  0  0  0  0  0  0  0  0  0  0  0
   39.5030   24.2220   36.1040 N   0  0  0  0  0  0  0  0  0  0  0  0
   40.6440   23.7580   35.5560 C   0  0  0  0  0  3  0  0  0  0  0  0
   41.3180   22.6980   36.1680 C   0  0  0  0  0  0  0  0  0  0  0  0
   42.2520   22.2800   35.7650 H   0  0  0  0  0  0  0  0  0  0  0  0
   40.7740   22.1630   37.3300 C   0  0  0  0  0  0  0  0  0  0  0  0
   41.3510   21.2010   37.9190 O   0  0  0  0  0  0  0  0  0  0  0  0
   39.6270   22.6340   37.8730 N   0  0  0  0  0  0  0  0  0  0  0  0
   39.0140   23.6580   37.2480 C   0  0  0  0  0  0  0  0  0  0  0  0
   37.9300   24.1260   37.7330 O   0  0  0  0  0  0  0  0  0  0  0  0
   39.2360   22.2200   38.7470 H   0  0  0  0  0  0  0  0  0  0  0  0
   36.4910   28.0660   33.3770 N   0  0  0  0  0  0  0  0  0  0  0  0
   35.4140   28.6340   33.9380 C   0  0  0  0  0  0  0  0  0  0  0  0
   34.6950   29.6030   33.2290 C   0  0  0  0  0  0  0  0  0  0  0  0
   35.2080   29.8710   31.9690 C   0  0  0  0  0  0  0  0  0  0  0  0
   34.5660   30.7520   31.3040 O   0  0  0  0  0  0  0  0  0  0  0  0
   36.2780   29.3160   31.3910 N   0  0  0  0  0  0  0  0  0  0  0  0
   36.9290   28.3870   32.1310 C   0  0  0  0  0  0  0  0  0  0  0  0
   37.9350   27.8590   31.5990 O   0  0  0  0  0  0  0  0  0  0  0  0
   35.0820   28.3630   34.9360 H   0  0  0  0  0  0  0  0  0  0  0  0
   33.8340   30.0970   33.6030 H   0  0  0  0  0  0  0  0  0  0  0  0
   36.5720   29.5960   30.4340 H   0  0  0  0  0  0  0  0  0  0  0  0
  1  7  1  0  0  0  0
  1  6  1  0  0  0  0
  2  1  2  0  0  0  0
  3  2  1  0  0  0  0
  3  4  2  0  0  0  0
  4  5  1  0  0  0  0
  5  6  2  0  0  0  0
  5  9  1  0  0  0  0
  8  3  1  0  0  0  0
  9 16  1  0  0  0  0
 10  9  1  0  0  0  0
 10 11  2  0  0  0  0
 11 13  1  0  0  0  0
 12 11  1  0  0  0  0
 13 15  1  0  0  0  0
 13 14  2  0  0  0  0
 15 18  1  0  0  0  0
 16 17  2  0  0  0  0
 16 15  1  0  0  0  0
 19 20  1  0  0  0  0
 19  2  1  0  0  0  0
 20 27  1  0  0  0  0
 21 28  1  0  0  0  0
 21 20  2  0  0  0  0
 22 21  1  0  0  0  0
 23 22  2  0  0  0  0
 24 22  1  0  0  0  0
 24 25  1  0  0  0  0
 25 19  1  0  0  0  0
 26 25  2  0  0  0  0
 29 24  1  0  0  0  0
M  END
>  <minimizedAffinity>
-5.89971161

$$$$

 OpenBabel03272500033D

 29 31  0  0  0  0  0  0  0  0999 V2000
   40.2430   25.6630   35.0600 C   0  0  0  0  0  0  0  0  0  0  0  0
   39.6230   24.4080   35.2300 C   0  0  0  0  0  0  0  0  0  0  0  0
   38.3450   24.2540   34.6920 C   0  0  0  0  0  0  0  0  0  0  0  0
   37.7890   25.3180   34.0450 N   0  0  0  0  0  0  0  0  0  0  0  0
   38.4040   26.4990   33.8990 C   0  0  0  0  0  0  0  0  0  0  0  0
   39.6520   26.6820   34.4130 N   0  0  0  0  0  0  0  0  0  0  0  0
   41.2400   25.8750   35.4460 H   0  0  0  0  0  0  0  0  0  0  0  0
   37.8740   23.3060   34.8210 H   0  0  0  0  0  0  0  0  0  0  0  0
   37.5900   27.4160   33.1850 N   0  0  0  0  0  0  0  0  0  0  0  0
   36.4490   27.9140   33.6990 C   0  0  0  0  0  3  0  0  0  0  0  0
   35.6910   28.8140   32.9460 C   0  0  0  0  0  0  0  0  0  0  0  0
   34.7520   29.2520   33.3160 H   0  0  0  0  0  0  0  0  0  0  0  0
   36.1560   29.1590   31.6810 C   0  0  0  0  0  0  0  0  0  0  0  0
   35.5010   29.9710   30.9620 O   0  0  0  0  0  0  0  0  0  0  0  0
   37.3030   28.6530   31.1720 N   0  0  0  0  0  0  0  0  0  0  0  0
   37.9990   27.7900   31.9370 C   0  0  0  0  0  0  0  0  0  0  0  0
   39.0860   27.2940   31.4860 O   0  0  0  0  0  0  0  0  0  0  0  0
   37.6350   28.9250   30.2210 H   0  0  0  0  0  0  0  0  0  0  0  0
   40.3360   23.3920   35.9340 N   0  0  0  0  0  0  0  0  0  0  0  0
   41.4980   22.9030   35.4770 C   0  0  0  0  0  0  0  0  0  0  0  0
   42.1620   21.9070   36.2020 C   0  0  0  0  0  0  0  0  0  0  0  0
   41.5050   21.5270   37.3620 C   0  0  0  0  0  0  0  0  0  0  0  0
   42.0940   20.6190   38.0390 O   0  0  0  0  0  0  0  0  0  0  0  0
   40.3480   22.0010   37.8350 N   0  0  0  0  0  0  0  0  0  0  0  0
   39.7580   22.9630   37.0860 C   0  0  0  0  0  0  0  0  0  0  0  0
   38.6710   23.4150   37.5200 O   0  0  0  0  0  0  0  0  0  0  0  0
   41.9420   23.2620   34.5530 H   0  0  0  0  0  0  0  0  0  0  0  0
   43.0820   21.4700   35.9070 H   0  0  0  0  0  0  0  0  0  0  0  0
   39.9470   21.6390   38.7230 H   0  0  0  0  0  0  0  0  0  0  0  0
  1  2  1  0  0  0  0
  1  7  1  0  0  0  0
  2 19  1  0  0  0  0
  3  8  1  0  0  0  0
  3  2  2  0  0  0  0
  4  3  1  0  0  0  0
  5  4  2  0  0  0  0
  5  6  1  0  0  0  0
  6  1  2  0  0  0  0
  9 10  1  0  0  0  0
  9  5  1  0  0  0  0
 11 12  1  0  0  0  0
 11 10  2  0  0  0  0
 13 11  1  0  0  0  0
 14 13  2  0  0  0  0
 15 13  1  0  0  0  0
 15 16  1  0  0  0  0
 16  9  1  0  0  0  0
 17 16  2  0  0  0  0
 18 15  1  0  0  0  0
 19 25  1  0  0  0  0
 20 19  1  0  0  0  0
 20 21  2  0  0  0  0
 21 22  1  0  0  0  0
 22 24  1  0  0  0  0
 22 23  2  0  0  0  0
 24 29  1  0  0  0  0
 25 26  2  0  0  0  0
 25 24  1  0  0  0  0
 27 20  1  0  0  0  0
 28 21  1  0  0  0  0
M  END
>  <minimizedAffinity>
-5.83706713

$$$$

 OpenBabel03272500033D

 29 31  0  0  0  0  0  0  0  0999 V2000
   36.2010   28.3480   31.8120 C   0  0  0  0  0  0  0  0  0  0  0  0
   36.9560   27.3180   32.4100 C   0  0  0  0  0  0  0  0  0  0  0  0
   37.0460   27.3250   33.8030 C   0  0  0  0  0  0  0  0  0  0  0  0
   36.4030   28.3180   34.4820 N   0  0  0  0  0  0  0  0  0  0  0  0
   35.6930   29.2830   33.8850 C   0  0  0  0  0  0  0  0  0  0  0  0
   35.5860   29.3050   32.5270 N   0  0  0  0  0  0  0  0  0  0  0  0
   36.0750   28.4240   30.7320 H   0  0  0  0  0  0  0  0  0  0  0  0
   37.6170   26.5480   34.2570 H   0  0  0  0  0  0  0  0  0  0  0  0
   35.1370   30.1750   34.8380 N   0  0  0  0  0  0  0  0  0  0  0  0
   35.9020   31.0020   35.5780 C   0  0  0  0  0  3  0  0  0  0  0  0
   35.2950   31.8580   36.5010 C   0  0  0  0  0  0  0  0  0  0  0  0
   35.8690   32.5530   37.1310 H   0  0  0  0  0  0  0  0  0  0  0  0
   33.9090   31.8170   36.6140 C   0  0  0  0  0  0  0  0  0  0  0  0
   33.3160   32.5750   37.4380 O   0  0  0  0  0  0  0  0  0  0  0  0
   33.1490   30.9840   35.8670 N   0  0  0  0  0  0  0  0  0  0  0  0
   33.7800   30.1780   34.9910 C   0  0  0  0  0  0  0  0  0  0  0  0
   33.0920   29.3790   34.2700 O   0  0  0  0  0  0  0  0  0  0  0  0
   32.1100   30.9690   35.9660 H   0  0  0  0  0  0  0  0  0  0  0  0
   37.5710   26.3500   31.5620 N   0  0  0  0  0  0  0  0  0  0  0  0
   38.8340   26.4900   31.1350 C   0  0  0  0  0  0  0  0  0  0  0  0
   39.3950   25.5140   30.3030 C   0  0  0  0  0  0  0  0  0  0  0  0
   38.5340   24.4690   30.0060 C   0  0  0  0  0  0  0  0  0  0  0  0
   39.0260   23.5670   29.2480 O   0  0  0  0  0  0  0  0  0  0  0  0
   37.2730   24.3110   30.4200 N   0  0  0  0  0  0  0  0  0  0  0  0
   36.7910   25.2900   31.2220 C   0  0  0  0  0  0  0  0  0  0  0  0
   35.6080   25.1520   31.6170 O   0  0  0  0  0  0  0  0  0  0  0  0
   39.4390   27.3460   31.4200 H   0  0  0  0  0  0  0  0  0  0  0  0
   40.3850   25.5530   29.9250 H   0  0  0  0  0  0  0  0  0  0  0  0
   36.7170   23.4810   30.1320 H   0  0  0  0  0  0  0  0  0  0  0  0
  1  2  2  0  0  0  0
  1  6  1  0  0  0  0
  2  3  1  0  0  0  0
  3  8  1  0  0  0  0
  3  4  2  0  0  0  0
  5  4  1  0  0  0  0
  5  9  1  0  0  0  0
  6  5  2  0  0  0  0
  7  1  1  0  0  0  0
  9 16  1  0  0  0  0
  9 10  1  0  0  0  0
 10 11  2  0  0  0  0
 11 13  1  0  0  0  0
 11 12  1  0  0  0  0
 13 14  2  0  0  0  0
 15 18  1  0  0  0  0
 15 13  1  0  0  0  0
 16 15  1  0  0  0  0
 17 16  2  0  0  0  0
 19  2  1  0  0  0  0
 20 27  1  0  0  0  0
 20 19  1  0  0  0  0
 21 20  2  0  0  0  0
 22 21  1  0  0  0  0
 22 24  1  0  0  0  0
 23 22  2  0  0  0  0
 24 25  1  0  0  0  0
 25 19  1  0  0  0  0
 25 26  2  0  0  0  0
 28 21  1  0  0  0  0
 29 24  1  0  0  0  0
M  END
>  <minimizedAffinity>
-5.5859971

$$$$

 OpenBabel03272500033D

 29 31  0  0  0  0  0  0  0  0999 V2000
   38.9610   26.7850   34.7680 C   0  0  0  0  0  0  0  0  0  0  0  0
   38.4120   26.3760   33.5360 C   0  0  0  0  0  0  0  0  0  0  0  0
   38.5750   25.0360   33.1830 C   0  0  0  0  0  0  0  0  0  0  0  0
   39.2470   24.2230   34.0460 N   0  0  0  0  0  0  0  0  0  0  0  0
   39.7570   24.6410   35.2120 C   0  0  0  0  0  0  0  0  0  0  0  0
   39.6160   25.9430   35.5860 N   0  0  0  0  0  0  0  0  0  0  0  0
   38.8830   27.8120   35.1270 H   0  0  0  0  0  0  0  0  0  0  0  0
   38.1620   24.7250   32.2510 H   0  0  0  0  0  0  0  0  0  0  0  0
   40.4000   23.5800   35.9010 N   0  0  0  0  0  0  0  0  0  0  0  0
   41.5350   23.0120   35.4470 C   0  0  0  0  0  3  0  0  0  0  0  0
   42.1200   21.9700   36.1710 C   0  0  0  0  0  0  0  0  0  0  0  0
   43.0450   21.4710   35.8470 H   0  0  0  0  0  0  0  0  0  0  0  0
   41.4950   21.5610   37.3440 C   0  0  0  0  0  0  0  0  0  0  0  0
   41.9890   20.6190   38.0330 O   0  0  0  0  0  0  0  0  0  0  0  0
   40.3550   22.1360   37.7930 N   0  0  0  0  0  0  0  0  0  0  0  0
   39.8300   23.1370   37.0610 C   0  0  0  0  0  0  0  0  0  0  0  0
   38.7550   23.7010   37.4550 O   0  0  0  0  0  0  0  0  0  0  0  0
   39.9020   21.8150   38.6760 H   0  0  0  0  0  0  0  0  0  0  0  0
   37.7360   27.3490   32.7410 N   0  0  0  0  0  0  0  0  0  0  0  0
   38.1330   27.6370   31.4930 C   0  0  0  0  0  0  0  0  0  0  0  0
   37.4380   28.5990   30.7510 C   0  0  0  0  0  0  0  0  0  0  0  0
   36.3710   29.1660   31.4300 C   0  0  0  0  0  0  0  0  0  0  0  0
   35.7230   30.0480   30.7710 O   0  0  0  0  0  0  0  0  0  0  0  0
   35.9590   28.8950   32.6720 N   0  0  0  0  0  0  0  0  0  0  0  0
   36.6740   27.9540   33.3350 C   0  0  0  0  0  0  0  0  0  0  0  0
   36.2970   27.6910   34.5020 O   0  0  0  0  0  0  0  0  0  0  0  0
   38.9850   27.1400   31.0380 H   0  0  0  0  0  0  0  0  0  0  0  0
   37.6900   28.8820   29.7610 H   0  0  0  0  0  0  0  0  0  0  0  0
   35.1400   29.3860   33.0820 H   0  0  0  0  0  0  0  0  0  0  0  0
  1  7  1  0  0  0  0
  1  6  1  0  0  0  0
  2  1  2  0  0  0  0
  3  2  1  0  0  0  0
  3  4  2  0  0  0  0
  4  5  1  0  0  0  0
  5  6  2  0  0  0  0
  5  9  1  0  0  0  0
  8  3  1  0  0  0  0
  9 16  1  0  0  0  0
 10  9  1  0  0  0  0
 10 11  2  0  0  0  0
 11 13  1  0  0  0  0
 12 11  1  0  0  0  0
 13 15  1  0  0  0  0
 13 14  2  0  0  0  0
 15 18  1  0  0  0  0
 16 17  2  0  0  0  0
 16 15  1  0  0  0  0
 19 25  1  0  0  0  0
 19  2  1  0  0  0  0
 20 19  1  0  0  0  0
 21 22  1  0  0  0  0
 21 20  2  0  0  0  0
 22 24  1  0  0  0  0
 23 22  2  0  0  0  0
 24 29  1  0  0  0  0
 24 25  1  0  0  0  0
 25 26  2  0  0  0  0
 27 20  1  0  0  0  0
 28 21  1  0  0  0  0
M  END
>  <minimizedAffinity>
-5.53117514

$$$$

 OpenBabel03272500033D

 29 31  0  0  0  0  0  0  0  0999 V2000
   37.0580   26.0750   33.2080 C   0  0  0  0  0  0  0  0  0  0  0  0
   37.0480   27.3680   33.7700 C   0  0  0  0  0  0  0  0  0  0  0  0
   37.7140   27.5370   34.9850 C   0  0  0  0  0  0  0  0  0  0  0  0
   38.3240   26.4500   35.5380 N   0  0  0  0  0  0  0  0  0  0  0  0
   38.3160   25.2330   34.9780 C   0  0  0  0  0  0  0  0  0  0  0  0
   37.6740   25.0350   33.7940 N   0  0  0  0  0  0  0  0  0  0  0  0
   36.5640   25.8490   32.2630 H   0  0  0  0  0  0  0  0  0  0  0  0
   37.7070   28.5130   35.4120 H   0  0  0  0  0  0  0  0  0  0  0  0
   39.0290   24.2980   35.7740 N   0  0  0  0  0  0  0  0  0  0  0  0
   38.5860   23.9000   36.9830 C   0  0  0  0  0  3  0  0  0  0  0  0
   39.3330   22.9760   37.7180 C   0  0  0  0  0  0  0  0  0  0  0  0
   39.0200   22.6170   38.7100 H   0  0  0  0  0  0  0  0  0  0  0  0
   40.5170   22.5050   37.1610 C   0  0  0  0  0  0  0  0  0  0  0  0
   41.2280   21.6660   37.7930 O   0  0  0  0  0  0  0  0  0  0  0  0
   40.9550   22.9100   35.9470 N   0  0  0  0  0  0  0  0  0  0  0  0
   40.1990   23.8010   35.2760 C   0  0  0  0  0  0  0  0  0  0  0  0
   40.5830   24.2050   34.1270 O   0  0  0  0  0  0  0  0  0  0  0  0
   41.8450   22.5430   35.5460 H   0  0  0  0  0  0  0  0  0  0  0  0
   36.3630   28.4050   33.0690 N   0  0  0  0  0  0  0  0  0  0  0  0
   35.2590   28.9810   33.5660 C   0  0  0  0  0  0  0  0  0  0  0  0
   34.6220   29.9940   32.8410 C   0  0  0  0  0  0  0  0  0  0  0  0
   35.2400   30.2950   31.6370 C   0  0  0  0  0  0  0  0  0  0  0  0
   34.6740   31.2180   30.9590 O   0  0  0  0  0  0  0  0  0  0  0  0
   36.3390   29.7340   31.1230 N   0  0  0  0  0  0  0  0  0  0  0  0
   36.9070   28.7600   31.8750 C   0  0  0  0  0  0  0  0  0  0  0  0
   37.9390   28.2260   31.4030 O   0  0  0  0  0  0  0  0  0  0  0  0
   34.8430   28.6810   34.5230 H   0  0  0  0  0  0  0  0  0  0  0  0
   33.7470   30.4970   33.1660 H   0  0  0  0  0  0  0  0  0  0  0  0
   36.7150   30.0420   30.2040 H   0  0  0  0  0  0  0  0  0  0  0  0
  1  2  2  0  0  0  0
  1  6  1  0  0  0  0
  2  3  1  0  0  0  0
  3  8  1  0  0  0  0
  3  4  2  0  0  0  0
  5  4  1  0  0  0  0
  5  9  1  0  0  0  0
  6  5  2  0  0  0  0
  7  1  1  0  0  0  0
  9 10  1  0  0  0  0
 10 11  2  0  0  0  0
 11 12  1  0  0  0  0
 13 11  1  0  0  0  0
 13 14  2  0  0  0  0
 15 13  1  0  0  0  0
 16  9  1  0  0  0  0
 16 15  1  0  0  0  0
 17 16  2  0  0  0  0
 18 15  1  0  0  0  0
 19 20  1  0  0  0  0
 19  2  1  0  0  0  0
 20 27  1  0  0  0  0
 21 28  1  0  0  0  0
 21 20  2  0  0  0  0
 22 21  1  0  0  0  0
 23 22  2  0  0  0  0
 24 22  1  0  0  0  0
 24 25  1  0  0  0  0
 25 19  1  0  0  0  0
 26 25  2  0  0  0  0
 29 24  1  0  0  0  0
M  END
>  <minimizedAffinity>
-5.45463943

$$$$

 OpenBabel03272500033D

 29 31  0  0  0  0  0  0  0  0999 V2000
   35.6620   28.0420   32.0910 C   0  0  0  0  0  0  0  0  0  0  0  0
   36.6000   27.1610   32.6670 C   0  0  0  0  0  0  0  0  0  0  0  0
   36.9500   27.3890   33.9980 C   0  0  0  0  0  0  0  0  0  0  0  0
   36.3660   28.4380   34.6440 N   0  0  0  0  0  0  0  0  0  0  0  0
   35.4760   29.2580   34.0690 C   0  0  0  0  0  0  0  0  0  0  0  0
   35.1130   29.0630   32.7710 N   0  0  0  0  0  0  0  0  0  0  0  0
   35.3290   27.9420   31.0580 H   0  0  0  0  0  0  0  0  0  0  0  0
   37.6600   26.7250   34.4350 H   0  0  0  0  0  0  0  0  0  0  0  0
   35.0370   30.2560   34.9780 N   0  0  0  0  0  0  0  0  0  0  0  0
   35.8550   31.2280   35.4270 C   0  0  0  0  0  3  0  0  0  0  0  0
   35.3620   32.1820   36.3210 C   0  0  0  0  0  0  0  0  0  0  0  0
   35.9840   32.9970   36.7200 H   0  0  0  0  0  0  0  0  0  0  0  0
   34.0310   32.0830   36.7130 C   0  0  0  0  0  0  0  0  0  0  0  0
   33.5420   32.9260   37.5220 O   0  0  0  0  0  0  0  0  0  0  0  0
   33.2170   31.1030   36.2580 N   0  0  0  0  0  0  0  0  0  0  0  0
   33.7380   30.2080   35.3960 C   0  0  0  0  0  0  0  0  0  0  0  0
   32.9960   29.2690   34.9480 O   0  0  0  0  0  0  0  0  0  0  0  0
   32.2210   31.0460   36.5630 H   0  0  0  0  0  0  0  0  0  0  0  0
   37.1230   26.1090   31.8580 N   0  0  0  0  0  0  0  0  0  0  0  0
   36.4320   24.9820   31.6350 C   0  0  0  0  0  0  0  0  0  0  0  0
   36.9860   23.9770   30.8350 C   0  0  0  0  0  0  0  0  0  0  0  0
   38.2460   24.2830   30.3440 C   0  0  0  0  0  0  0  0  0  0  0  0
   38.7710   23.3790   29.6110 O   0  0  0  0  0  0  0  0  0  0  0  0
   38.9530   25.3980   30.5540 N   0  0  0  0  0  0  0  0  0  0  0  0
   38.3590   26.3310   31.3370 C   0  0  0  0  0  0  0  0  0  0  0  0
   39.0120   27.3820   31.5410 O   0  0  0  0  0  0  0  0  0  0  0  0
   35.4450   24.8270   32.0620 H   0  0  0  0  0  0  0  0  0  0  0  0
   36.5030   23.0590   30.6130 H   0  0  0  0  0  0  0  0  0  0  0  0
   39.8950   25.5200   30.1320 H   0  0  0  0  0  0  0  0  0  0  0  0
  1  2  2  0  0  0  0
  1  6  1  0  0  0  0
  2  3  1  0  0  0  0
  3  8  1  0  0  0  0
  3  4  2  0  0  0  0
  5  4  1  0  0  0  0
  5  9  1  0  0  0  0
  6  5  2  0  0  0  0
  7  1  1  0  0  0  0
  9 16  1  0  0  0  0
  9 10  1  0  0  0  0
 10 11  2  0  0  0  0
 11 13  1  0  0  0  0
 11 12  1  0  0  0  0
 13 14  2  0  0  0  0
 15 18  1  0  0  0  0
 15 13  1  0  0  0  0
 16 15  1  0  0  0  0
 17 16  2  0  0  0  0
 19  2  1  0  0  0  0
 20 19  1  0  0  0  0
 20 27  1  0  0  0  0
 21 20  2  0  0  0  0
 22 24  1  0  0  0  0
 22 21  1  0  0  0  0
 23 22  2  0  0  0  0
 24 25  1  0  0  0  0
 25 26  2  0  0  0  0
 25 19  1  0  0  0  0
 28 21  1  0  0  0  0
 29 24  1  0  0  0  0
M  END
>  <minimizedAffinity>
-5.43108511

$$$$

 OpenBabel03272500033D

 29 31  0  0  0  0  0  0  0  0999 V2000
   36.7380   26.5750   32.9170 C   0  0  0  0  0  0  0  0  0  0  0  0
   36.6500   27.8640   33.4830 C   0  0  0  0  0  0  0  0  0  0  0  0
   37.1720   28.0300   34.7660 C   0  0  0  0  0  0  0  0  0  0  0  0
   37.7250   26.9440   35.3780 N   0  0  0  0  0  0  0  0  0  0  0  0
   37.7950   25.7320   34.8140 C   0  0  0  0  0  0  0  0  0  0  0  0
   37.2940   25.5360   33.5630 N   0  0  0  0  0  0  0  0  0  0  0  0
   36.3570   26.3510   31.9200 H   0  0  0  0  0  0  0  0  0  0  0  0
   37.1050   29.0030   35.1960 H   0  0  0  0  0  0  0  0  0  0  0  0
   38.4220   24.7980   35.6800 N   0  0  0  0  0  0  0  0  0  0  0  0
   37.8480   24.3860   36.8280 C   0  0  0  0  0  3  0  0  0  0  0  0
   38.5160   23.4650   37.6380 C   0  0  0  0  0  0  0  0  0  0  0  0
   38.0960   23.0950   38.5850 H   0  0  0  0  0  0  0  0  0  0  0  0
   39.7610   23.0090   37.2170 C   0  0  0  0  0  0  0  0  0  0  0  0
   40.4030   22.1730   37.9200 O   0  0  0  0  0  0  0  0  0  0  0  0
   40.3300   23.4280   36.0630 N   0  0  0  0  0  0  0  0  0  0  0  0
   39.6460   24.3160   35.3160 C   0  0  0  0  0  0  0  0  0  0  0  0
   40.1550   24.7320   34.2210 O   0  0  0  0  0  0  0  0  0  0  0  0
   41.2640   23.0730   35.7640 H   0  0  0  0  0  0  0  0  0  0  0  0
   36.0390   28.8990   32.7140 N   0  0  0  0  0  0  0  0  0  0  0  0
   36.5750   29.3300   31.5630 C   0  0  0  0  0  0  0  0  0  0  0  0
   35.9400   30.3480   30.8440 C   0  0  0  0  0  0  0  0  0  0  0  0
   34.7750   30.8100   31.4360 C   0  0  0  0  0  0  0  0  0  0  0  0
   34.1790   31.7400   30.7950 O   0  0  0  0  0  0  0  0  0  0  0  0
   34.2240   30.3950   32.5810 N   0  0  0  0  0  0  0  0  0  0  0  0
   34.8880   29.4070   33.2280 C   0  0  0  0  0  0  0  0  0  0  0  0
   34.3800   29.0090   34.3030 O   0  0  0  0  0  0  0  0  0  0  0  0
   37.4960   28.9080   31.1720 H   0  0  0  0  0  0  0  0  0  0  0  0
   36.3010   30.7440   29.9280 H   0  0  0  0  0  0  0  0  0  0  0  0
   33.3410   30.8170   32.9320 H   0  0  0  0  0  0  0  0  0  0  0  0
  1  2  2  0  0  0  0
  1  6  1  0  0  0  0
  2  3  1  0  0  0  0
  3  8  1  0  0  0  0
  3  4  2  0  0  0  0
  5  4  1  0  0  0  0
  5  9  1  0  0  0  0
  6  5  2  0  0  0  0
  7  1  1  0  0  0  0
  9 10  1  0  0  0  0
 10 11  2  0  0  0  0
 11 12  1  0  0  0  0
 13 11  1  0  0  0  0
 13 14  2  0  0  0  0
 15 13  1  0  0  0  0
 16  9  1  0  0  0  0
 16 15  1  0  0  0  0
 17 16  2  0  0  0  0
 18 15  1  0  0  0  0
 19 25  1  0  0  0  0
 19  2  1  0  0  0  0
 20 19  1  0  0  0  0
 21 22  1  0  0  0  0
 21 20  2  0  0  0  0
 22 24  1  0  0  0  0
 23 22  2  0  0  0  0
 24 29  1  0  0  0  0
 24 25  1  0  0  0  0
 25 26  2  0  0  0  0
 27 20  1  0  0  0  0
 28 21  1  0  0  0  0
M  END
>  <minimizedAffinity>
-5.3825202

$$$$

 OpenBabel03272500033D

 29 31  0  0  0  0  0  0  0  0999 V2000
   35.4520   29.4340   32.7260 C   0  0  0  0  0  0  0  0  0  0  0  0
   35.6840   29.2950   34.1100 C   0  0  0  0  0  0  0  0  0  0  0  0
   36.4010   28.1700   34.5220 C   0  0  0  0  0  0  0  0  0  0  0  0
   36.8230   27.2940   33.5670 N   0  0  0  0  0  0  0  0  0  0  0  0
   36.5870   27.4550   32.2580 C   0  0  0  0  0  0  0  0  0  0  0  0
   35.8900   28.5410   31.8230 N   0  0  0  0  0  0  0  0  0  0  0  0
   34.9010   30.2800   32.3120 H   0  0  0  0  0  0  0  0  0  0  0  0
   36.5770   28.0620   35.5680 H   0  0  0  0  0  0  0  0  0  0  0  0
   37.1430   26.3910   31.5020 N   0  0  0  0  0  0  0  0  0  0  0  0
   36.6690   25.1310   31.5770 C   0  0  0  0  0  3  0  0  0  0  0  0
   37.2600   24.1270   30.8070 C   0  0  0  0  0  0  0  0  0  0  0  0
   36.9140   23.0830   30.8290 H   0  0  0  0  0  0  0  0  0  0  0  0
   38.3270   24.4770   29.9870 C   0  0  0  0  0  0  0  0  0  0  0  0
   38.8940   23.5990   29.2710 O   0  0  0  0  0  0  0  0  0  0  0  0
   38.7980   25.7440   29.9180 N   0  0  0  0  0  0  0  0  0  0  0  0
   38.1940   26.6770   30.6780 C   0  0  0  0  0  0  0  0  0  0  0  0
   38.6140   27.8830   30.6380 O   0  0  0  0  0  0  0  0  0  0  0  0
   39.5990   25.9870   29.2950 H   0  0  0  0  0  0  0  0  0  0  0  0
   35.1760   30.3000   34.9850 N   0  0  0  0  0  0  0  0  0  0  0  0
   35.9700   31.2450   35.5080 C   0  0  0  0  0  0  0  0  0  0  0  0
   35.4260   32.2110   36.3620 C   0  0  0  0  0  0  0  0  0  0  0  0
   34.0640   32.0660   36.5750 C   0  0  0  0  0  0  0  0  0  0  0  0
   33.5460   32.9380   37.3520 O   0  0  0  0  0  0  0  0  0  0  0  0
   33.2540   31.1330   36.0650 N   0  0  0  0  0  0  0  0  0  0  0  0
   33.8440   30.2290   35.2460 C   0  0  0  0  0  0  0  0  0  0  0  0
   33.0940   29.3480   34.7620 O   0  0  0  0  0  0  0  0  0  0  0  0
   37.0320   31.2830   35.2850 H   0  0  0  0  0  0  0  0  0  0  0  0
   35.9870   32.9890   36.8150 H   0  0  0  0  0  0  0  0  0  0  0  0
   32.2410   31.1220   36.2960 H   0  0  0  0  0  0  0  0  0  0  0  0
  1  2  1  0  0  0  0
  2  3  2  0  0  0  0
  2 19  1  0  0  0  0
  3  8  1  0  0  0  0
  4  3  1  0  0  0  0
  5  4  2  0  0  0  0
  6  5  1  0  0  0  0
  6  1  2  0  0  0  0
  7  1  1  0  0  0  0
  9 10  1  0  0  0  0
  9  5  1  0  0  0  0
 11 12  1  0  0  0  0
 11 10  2  0  0  0  0
 13 11  1  0  0  0  0
 14 13  2  0  0  0  0
 15 13  1  0  0  0  0
 15 16  1  0  0  0  0
 16  9  1  0  0  0  0
 17 16  2  0  0  0  0
 18 15  1  0  0  0  0
 19 25  1  0  0  0  0
 19 20  1  0  0  0  0
 20 21  2  0  0  0  0
 21 22  1  0  0  0  0
 21 28  1  0  0  0  0
 22 23  2  0  0  0  0
 24 29  1  0  0  0  0
 24 22  1  0  0  0  0
 25 24  1  0  0  0  0
 26 25  2  0  0  0  0
 27 20  1  0  0  0  0
M  END
>  <minimizedAffinity>
-5.35029554

$$$$

 OpenBabel03272500033D

 29 31  0  0  0  0  0  0  0  0999 V2000
   39.2590   27.2820   32.4580 C   0  0  0  0  0  0  0  0  0  0  0  0
   38.0810   27.2950   31.6830 C   0  0  0  0  0  0  0  0  0  0  0  0
   37.0120   26.5230   32.1420 C   0  0  0  0  0  0  0  0  0  0  0  0
   37.1810   25.8170   33.2970 N   0  0  0  0  0  0  0  0  0  0  0  0
   38.3130   25.8260   34.0110 C   0  0  0  0  0  0  0  0  0  0  0  0
   39.3750   26.5690   33.5910 N   0  0  0  0  0  0  0  0  0  0  0  0
   40.1440   27.8540   32.1780 H   0  0  0  0  0  0  0  0  0  0  0  0
   36.1210   26.5300   31.5570 H   0  0  0  0  0  0  0  0  0  0  0  0
   38.2000   25.0030   35.1620 N   0  0  0  0  0  0  0  0  0  0  0  0
   38.0980   23.6620   35.0780 C   0  0  0  0  0  3  0  0  0  0  0  0
   37.9900   22.9060   36.2480 C   0  0  0  0  0  0  0  0  0  0  0  0
   37.9030   21.8100   36.2380 H   0  0  0  0  0  0  0  0  0  0  0  0
   37.9920   23.5830   37.4630 C   0  0  0  0  0  0  0  0  0  0  0  0
   37.8950   22.9380   38.5500 O   0  0  0  0  0  0  0  0  0  0  0  0
   38.0940   24.9300   37.5390 N   0  0  0  0  0  0  0  0  0  0  0  0
   38.1980   25.6140   36.3830 C   0  0  0  0  0  0  0  0  0  0  0  0
   38.2960   26.8870   36.4190 O   0  0  0  0  0  0  0  0  0  0  0  0
   38.0950   25.4180   38.4600 H   0  0  0  0  0  0  0  0  0  0  0  0
   38.0610   28.0850   30.4960 N   0  0  0  0  0  0  0  0  0  0  0  0
   38.7150   27.7070   29.3880 C   0  0  0  0  0  0  0  0  0  0  0  0
   38.6660   28.5160   28.2470 C   0  0  0  0  0  0  0  0  0  0  0  0
   37.9100   29.6660   28.4070 C   0  0  0  0  0  0  0  0  0  0  0  0
   37.8530   30.4190   27.3770 O   0  0  0  0  0  0  0  0  0  0  0  0
   37.2520   30.0620   29.5010 N   0  0  0  0  0  0  0  0  0  0  0  0
   37.3390   29.2340   30.5700 C   0  0  0  0  0  0  0  0  0  0  0  0
   36.7250   29.5950   31.6030 O   0  0  0  0  0  0  0  0  0  0  0  0
   39.2850   26.7840   29.3510 H   0  0  0  0  0  0  0  0  0  0  0  0
   39.1560   28.2870   27.3340 H   0  0  0  0  0  0  0  0  0  0  0  0
   36.7130   30.9510   29.5080 H   0  0  0  0  0  0  0  0  0  0  0  0
  1  6  1  0  0  0  0
  2  3  1  0  0  0  0
  2  1  2  0  0  0  0
  3  4  2  0  0  0  0
  4  5  1  0  0  0  0
  5  9  1  0  0  0  0
  6  5  2  0  0  0  0
  7  1  1  0  0  0  0
  8  3  1  0  0  0  0
  9 16  1  0  0  0  0
 10  9  1  0  0  0  0
 10 11  2  0  0  0  0
 11 13  1  0  0  0  0
 12 11  1  0  0  0  0
 13 15  1  0  0  0  0
 13 14  2  0  0  0  0
 15 18  1  0  0  0  0
 16 17  2  0  0  0  0
 16 15  1  0  0  0  0
 19 25  1  0  0  0  0
 19  2  1  0  0  0  0
 20 19  1  0  0  0  0
 21 22  1  0  0  0  0
 21 20  2  0  0  0  0
 22 24  1  0  0  0  0
 23 22  2  0  0  0  0
 24 29  1  0  0  0  0
 24 25  1  0  0  0  0
 25 26  2  0  0  0  0
 27 20  1  0  0  0  0
 28 21  1  0  0  0  0
M  END
>  <minimizedAffinity>
-5.27696371

$$$$
