
 OpenBabel03272510173D

 29 31  0  0  0  0  0  0  0  0999 V2000
   37.2830   29.3180   51.0380 Br  0  0  0  0  0  0  0  0  0  0  0  0
   35.9580   29.3110   49.6670 C   0  0  0  0  0  0  0  0  0  0  0  0
   35.9870   30.2370   48.6460 C   0  0  0  0  0  0  0  0  0  0  0  0
   34.9880   30.1630   47.6900 C   0  0  0  0  0  0  0  0  0  0  0  0
   33.9780   29.2080   47.7220 C   0  0  0  0  0  0  0  0  0  0  0  0
   33.9900   28.3100   48.7570 C   0  0  0  0  0  0  0  0  0  0  0  0
   34.9750   28.3660   49.7170 C   0  0  0  0  0  0  0  0  0  0  0  0
   35.0590   30.9230   46.9020 H   0  0  0  0  0  0  0  0  0  0  0  0
   33.1860   27.5910   48.7370 H   0  0  0  0  0  0  0  0  0  0  0  0
   34.9090   27.6150   50.5020 H   0  0  0  0  0  0  0  0  0  0  0  0
   33.0510   29.3070   46.6460 N   0  0  0  0  0  0  0  0  0  0  0  0
   33.1800   29.9680   45.4850 C   0  0  0  0  0  3  0  0  0  0  0  0
   32.1380   29.9200   44.5840 C   0  0  0  0  0  0  0  0  0  0  0  0
   32.2770   30.4670   43.6530 H   0  0  0  0  0  0  0  0  0  0  0  0
   30.9760   29.2050   44.8610 C   0  0  0  0  0  0  0  0  0  0  0  0
   30.0350   29.1810   44.0090 O   0  0  0  0  0  0  0  0  0  0  0  0
   30.8940   28.5560   46.0430 N   0  0  0  0  0  0  0  0  0  0  0  0
   31.9160   28.6040   46.9260 C   0  0  0  0  0  0  0  0  0  0  0  0
   31.6830   27.9500   47.9730 O   0  0  0  0  0  0  0  0  0  0  0  0
   30.0000   28.0330   46.2030 H   0  0  0  0  0  0  0  0  0  0  0  0
   37.9690   33.1820   49.4620 C   0  0  0  0  0  0  0  0  0  0  0  0
   38.9930   33.1790   48.4950 C   0  0  0  0  0  0  0  0  0  0  0  0
   38.9890   32.1530   47.5630 C   0  0  0  0  0  0  0  0  0  0  0  0
   38.0040   31.2050   47.6290 N   0  0  0  0  0  0  0  0  0  0  0  0
   37.0320   31.2480   48.5840 C   0  0  0  0  0  0  0  0  0  0  0  0
   37.0250   32.2360   49.4900 N   0  0  0  0  0  0  0  0  0  0  0  0
   38.0270   34.0070   50.1590 H   0  0  0  0  0  0  0  0  0  0  0  0
   39.7870   33.8710   48.3770 H   0  0  0  0  0  0  0  0  0  0  0  0
   39.6760   31.9700   46.7480 H   0  0  0  0  0  0  0  0  0  0  0  0
  2  7  1  0  0  0  0
  2  1  1  0  0  0  0
  3  2  2  0  0  0  0
  4  5  2  0  0  0  0
  4  3  1  0  0  0  0
  5  6  1  0  0  0  0
  6  7  2  0  0  0  0
  7 10  1  0  0  0  0
  8  4  1  0  0  0  0
  9  6  1  0  0  0  0
 11 18  1  0  0  0  0
 11  5  1  0  0  0  0
 12 11  1  0  0  0  0
 13 15  1  0  0  0  0
 13 12  2  0  0  0  0
 14 13  1  0  0  0  0
 15 17  1  0  0  0  0
 16 15  2  0  0  0  0
 17 20  1  0  0  0  0
 17 18  1  0  0  0  0
 18 19  2  0  0  0  0
 21 26  1  0  0  0  0
 21 27  1  0  0  0  0
 22 21  2  0  0  0  0
 23 24  2  0  0  0  0
 23 22  1  0  0  0  0
 24 25  1  0  0  0  0
 25  3  1  0  0  0  0
 25 26  2  0  0  0  0
 28 22  1  0  0  0  0
 29 23  1  0  0  0  0
M  END
>  <minimizedAffinity>
-6.06181765

>  <minimizedRMSD>
0.122138791

$$$$
