
 OpenBabel03262520123D

 43 45  0  0  0  0  0  0  0  0999 V2000
   35.2690   30.0090   49.1540 C   0  0  0  0  0  0  0  0  0  0  0  0
   35.3260   30.9840   49.7120 H   0  0  0  0  0  0  0  0  0  0  0  0
   36.0120   29.3460   49.6770 H   0  0  0  0  0  0  0  0  0  0  0  0
   38.1660   31.2540   48.8910 Br  0  0  0  0  0  0  0  0  0  0  0  0
   36.9830   30.7350   47.4650 C   0  0  0  0  0  0  0  0  0  0  0  0
   37.3650   30.8910   46.1580 C   0  0  0  0  0  0  0  0  0  0  0  0
   36.4800   30.5150   45.1830 C   0  0  0  0  0  0  0  0  0  0  0  0
   35.2290   29.9900   45.4720 C   0  0  0  0  0  0  0  0  0  0  0  0
   34.8770   29.8470   46.8220 C   0  0  0  0  0  0  0  0  0  0  0  0
   35.7590   30.2210   47.7970 C   0  0  0  0  0  0  0  0  0  0  0  0
   36.8360   30.6600   44.1490 H   0  0  0  0  0  0  0  0  0  0  0  0
   34.6520   29.7440   44.5960 H   0  0  0  0  0  0  0  0  0  0  0  0
   33.8930   29.4480   46.8310 H   0  0  0  0  0  0  0  0  0  0  0  0
   39.9010   33.3200   45.1690 C   0  0  0  0  0  0  0  0  0  0  0  0
   41.1040   32.5600   45.1340 C   0  0  0  0  0  0  0  0  0  0  0  0
   41.0070   31.2210   45.4550 C   0  0  0  0  0  0  0  0  0  0  0  0
   39.7870   30.6760   45.7890 N   0  0  0  0  0  0  0  0  0  0  0  0
   38.6780   31.4450   45.8060 C   0  0  0  0  0  0  0  0  0  0  0  0
   38.7500   32.7480   45.4980 N   0  0  0  0  0  0  0  0  0  0  0  0
   40.0040   34.3560   44.9160 H   0  0  0  0  0  0  0  0  0  0  0  0
   42.0540   33.0150   44.8670 H   0  0  0  0  0  0  0  0  0  0  0  0
   41.8990   30.6070   45.4400 H   0  0  0  0  0  0  0  0  0  0  0  0
   33.9290   29.3850   49.3040 C   0  0  0  0  0  0  0  0  0  0  0  0
   33.1470   29.8820   48.7620 H   0  0  0  0  0  0  0  0  0  0  0  0
   33.6610   29.6020   50.3970 H   0  0  0  0  0  0  0  0  0  0  0  0
   34.0630   27.9760   49.2570 N   0  0  0  0  0  0  0  0  0  0  0  0
   34.1340   27.4890   50.1680 H   0  0  0  0  0  0  0  0  0  0  0  0
   33.2870   27.2730   48.3050 C   0  0  0  0  0  0  0  0  0  0  0  0
   33.5830   27.5490   47.2700 H   0  0  0  0  0  0  0  0  0  0  0  0
   33.5070   26.1960   48.4030 H   0  0  0  0  0  0  0  0  0  0  0  0
   31.8450   27.6010   48.5270 C   0  0  0  0  0  0  0  0  0  0  0  0
   31.2500   26.7250   48.8670 H   0  0  0  0  0  0  0  0  0  0  0  0
   31.5730   28.5320   48.9870 H   0  0  0  0  0  0  0  0  0  0  0  0
   31.3250   27.7960   47.1330 N   0  0  0  0  0  0  0  0  0  0  0  0
   31.5220   28.9860   46.4930 C   0  0  0  0  0  3  0  0  0  0  0  0
   31.0520   29.1830   45.2120 C   0  0  0  0  0  0  0  0  0  0  0  0
   31.2040   30.1170   44.7050 H   0  0  0  0  0  0  0  0  0  0  0  0
   30.3740   28.1720   44.5650 C   0  0  0  0  0  0  0  0  0  0  0  0
   29.9160   28.2740   43.4000 O   0  0  0  0  0  0  0  0  0  0  0  0
   30.2040   27.0190   45.2350 N   0  0  0  0  0  0  0  0  0  0  0  0
   30.6530   26.8020   46.4830 C   0  0  0  0  0  0  0  0  0  0  0  0
   30.5190   25.7530   47.1400 O   0  0  0  0  0  0  0  0  0  0  0  0
   29.7060   26.1770   44.8470 H   0  0  0  0  0  0  0  0  0  0  0  0
  1 23  1  0  0  0  0
  1  3  1  0  0  0  0
  1  2  1  0  0  0  0
  5 10  1  0  0  0  0
  5  4  1  0  0  0  0
  6  5  2  0  0  0  0
  7  8  2  0  0  0  0
  7  6  1  0  0  0  0
  8  9  1  0  0  0  0
  9 13  1  0  0  0  0
  9 10  2  0  0  0  0
 10  1  1  0  0  0  0
 11  7  1  0  0  0  0
 12  8  1  0  0  0  0
 14 19  1  0  0  0  0
 15 14  2  0  0  0  0
 15 16  1  0  0  0  0
 16 17  2  0  0  0  0
 17 18  1  0  0  0  0
 18  6  1  0  0  0  0
 19 18  2  0  0  0  0
 20 14  1  0  0  0  0
 21 15  1  0  0  0  0
 22 16  1  0  0  0  0
 23 25  1  0  0  0  0
 24 23  1  0  0  0  0
 26 23  1  0  0  0  0
 26 27  1  0  0  0  0
 28 30  1  0  0  0  0
 28 31  1  0  0  0  0
 28 26  1  0  0  0  0
 29 28  1  0  0  0  0
 31 32  1  0  0  0  0
 31 33  1  0  0  0  0
 34 31  1  0  0  0  0
 35 34  1  0  0  0  0
 36 35  2  0  0  0  0
 37 36  1  0  0  0  0
 38 36  1  0  0  0  0
 38 40  1  0  0  0  0
 39 38  2  0  0  0  0
 40 41  1  0  0  0  0
 41 34  1  0  0  0  0
 41 42  2  0  0  0  0
 43 40  1  0  0  0  0
M  END
>  <minimizedAffinity>
-4.97222328

>  <minimizedRMSD>
1.78701437

$$$$
