
 OpenBabel03272507323D

 37 40  0  0  1  0  0  0  0  0999 V2000
   33.1920   27.6030   48.2080 C   0  0  0  0  0  0  0  0  0  0  0  0
   31.9500   27.5790   48.4990 O   0  0  0  0  0  0  0  0  0  0  0  0
   35.9370   29.2170   49.8330 C   0  0  0  0  0  0  0  0  0  0  0  0
   34.9200   29.6390   50.6650 C   0  0  0  0  0  0  0  0  0  0  0  0
   33.7250   29.0950   50.1760 C   0  0  0  0  0  0  0  0  0  0  0  0
   34.0950   28.3690   49.0660 C   0  0  0  0  0  0  0  0  0  0  0  0
   35.3970   28.4680   48.9040 O   0  0  0  0  0  0  0  0  0  0  0  0
   34.9760   30.2780   51.5540 H   0  0  0  0  0  0  0  0  0  0  0  0
   32.7480   29.2470   50.6170 H   0  0  0  0  0  0  0  0  0  0  0  0
   37.3220   29.5970   50.0480 C   0  0  0  0  0  0  0  0  0  0  0  0
   37.9760   29.0260   50.9320 O   0  0  0  0  0  0  0  0  0  0  0  0
   37.8540   30.6340   49.2020 C   0  0  0  0  0  0  0  0  0  0  0  0
   38.1850   31.8380   49.8070 C   0  0  0  0  0  0  0  0  0  0  0  0
   38.7010   32.8620   49.0110 C   0  0  0  0  0  0  0  0  0  0  0  0
   38.8510   32.6170   47.6630 N   0  0  0  0  0  0  0  0  0  0  0  0
   38.5220   31.4480   47.1170 C   0  0  0  0  0  0  0  0  0  0  0  0
   38.0260   30.4540   47.8720 N   0  0  0  0  0  0  0  0  0  0  0  0
   38.0560   31.9970   50.8640 H   0  0  0  0  0  0  0  0  0  0  0  0
   38.9590   33.7990   49.4810 H   0  0  0  0  0  0  0  0  0  0  0  0
   38.6710   31.3370   46.0540 H   0  0  0  0  0  0  0  0  0  0  0  0
   33.7170   26.8570   47.0160 C   0  0  1  0  0  0  0  0  0  0  0  0
   33.7520   25.3080   47.3290 C   0  0  0  0  0  0  0  0  0  0  0  0
   32.8740   25.9040   46.2980 C   0  0  2  0  0  0  0  0  0  0  0  0
   34.7300   27.1710   46.6920 H   0  0  0  0  0  0  0  0  0  0  0  0
   33.3550   24.9850   48.2880 H   0  0  0  0  0  0  0  0  0  0  0  0
   34.6430   24.7680   46.9780 H   0  0  0  0  0  0  0  0  0  0  0  0
   31.7890   25.9270   46.6170 H   0  0  0  0  0  0  0  0  0  0  0  0
   33.0710   25.7560   44.8920 N   0  0  0  0  0  0  0  0  0  0  0  0
   34.1670   25.1050   44.3960 C   0  0  0  0  0  3  0  0  0  0  0  0
   34.3660   24.9570   43.0380 C   0  0  0  0  0  0  0  0  0  0  0  0
   35.2760   24.4200   42.7810 H   0  0  0  0  0  0  0  0  0  0  0  0
   33.4700   25.4590   42.1170 C   0  0  0  0  0  0  0  0  0  0  0  0
   33.7840   25.2480   40.9180 O   0  0  0  0  0  0  0  0  0  0  0  0
   32.3950   26.0980   42.6160 N   0  0  0  0  0  0  0  0  0  0  0  0
   32.2400   26.2190   43.9450 C   0  0  0  0  0  0  0  0  0  0  0  0
   31.2050   26.8310   44.2760 O   0  0  0  0  0  0  0  0  0  0  0  0
   31.7380   26.4650   41.9010 H   0  0  0  0  0  0  0  0  0  0  0  0
  1  2  2  0  0  0  0
  1  6  1  0  0  0  0
  3 10  1  0  0  0  0
  3  4  2  0  0  0  0
  4  8  1  0  0  0  0
  5  9  1  0  0  0  0
  5  4  1  0  0  0  0
  6  5  2  0  0  0  0
  7  6  1  0  0  0  0
  7  3  1  0  0  0  0
 10 11  2  0  0  0  0
 12 13  1  0  0  0  0
 12 10  1  0  0  0  0
 13 18  1  0  0  0  0
 14 19  1  0  0  0  0
 14 13  2  0  0  0  0
 15 14  1  0  0  0  0
 16 15  2  0  0  0  0
 16 17  1  0  0  0  0
 17 12  2  0  0  0  0
 20 16  1  0  0  0  0
 21 24  1  6  0  0  0
 21 22  1  0  0  0  0
 21  1  1  0  0  0  0
 22 25  1  0  0  0  0
 23 27  1  1  0  0  0
 23 21  1  0  0  0  0
 23 22  1  0  0  0  0
 26 22  1  0  0  0  0
 28 23  1  0  0  0  0
 29 28  1  0  0  0  0
 30 29  2  0  0  0  0
 31 30  1  0  0  0  0
 32 34  1  0  0  0  0
 32 30  1  0  0  0  0
 33 32  2  0  0  0  0
 34 35  1  0  0  0  0
 35 36  2  0  0  0  0
 35 28  1  0  0  0  0
 37 34  1  0  0  0  0
M  END
>  <minimizedAffinity>
-4.88139725

>  <minimizedRMSD>
0.956468701

$$$$
