
 OpenBabel03272509433D

 39 41  0  0  1  0  0  0  0  0999 V2000
   37.0960   30.9290   49.0290 C   0  0  0  0  0  0  0  0  0  0  0  0
   36.8430   31.8610   50.0370 C   0  0  0  0  0  0  0  0  0  0  0  0
   37.4360   33.1110   50.0490 C   0  0  0  0  0  0  0  0  0  0  0  0
   38.3220   33.4570   49.0180 C   0  0  0  0  0  0  0  0  0  0  0  0
   38.5600   32.5340   48.0370 C   0  0  0  0  0  0  0  0  0  0  0  0
   37.9440   31.2910   48.0600 C   0  0  0  0  0  0  0  0  0  0  0  0
   36.1540   31.5790   50.8280 H   0  0  0  0  0  0  0  0  0  0  0  0
   37.1780   33.7510   50.8660 H   0  0  0  0  0  0  0  0  0  0  0  0
   38.7300   34.4370   49.1090 H   0  0  0  0  0  0  0  0  0  0  0  0
   39.2620   32.9460   47.3160 H   0  0  0  0  0  0  0  0  0  0  0  0
   36.4970   29.6110   49.0420 C   0  0  2  0  0  0  0  0  0  0  0  0
   36.9890   29.0470   48.1590 H   0  0  0  0  0  0  0  0  0  0  0  0
   33.6070   29.9640   46.8680 C   0  0  0  0  0  0  0  0  0  0  0  0
   32.8750   28.8150   47.0960 C   0  0  0  0  0  0  0  0  0  0  0  0
   33.3360   27.9250   48.0550 C   0  0  0  0  0  0  0  0  0  0  0  0
   34.4970   28.2150   48.7360 N   0  0  0  0  0  0  0  0  0  0  0  0
   35.1500   29.3280   48.4710 C   0  0  0  0  0  0  0  0  0  0  0  0
   34.7160   30.2040   47.5450 N   0  0  0  0  0  0  0  0  0  0  0  0
   33.2620   30.6630   46.1280 H   0  0  0  0  0  0  0  0  0  0  0  0
   31.9780   28.6720   46.5120 H   0  0  0  0  0  0  0  0  0  0  0  0
   32.7750   27.0340   48.2390 H   0  0  0  0  0  0  0  0  0  0  0  0
   36.9670   28.8650   49.9790 O   0  0  0  0  0  0  0  0  0  0  0  0
   36.5900   29.0890   50.8790 H   0  0  0  0  0  0  0  0  0  0  0  0
   38.3070   30.4040   46.9790 C   0  0  0  0  0  3  0  0  0  0  0  0
   38.9030   30.8120   45.8520 C   0  0  0  0  0  3  0  0  0  0  0  0
   39.3520   29.9930   44.7040 C   0  0  0  0  0  0  0  0  0  0  0  0
   38.7180   29.0650   44.6910 H   0  0  0  0  0  0  0  0  0  0  0  0
   40.3800   29.6510   44.8140 H   0  0  0  0  0  0  0  0  0  0  0  0
   39.0310   30.8730   43.1710 S   0  0  0  0  0  0  0  0  0  0  0  0
   35.5540   34.1230   43.4010 H   0  0  0  0  0  0  0  0  0  0  0  0
   35.7940   33.1360   43.1810 N   0  0  0  0  0  0  0  0  0  0  0  0
   37.0640   32.6620   43.2870 C   0  0  0  0  0  3  0  0  0  0  0  0
   37.3320   31.3360   42.9830 C   0  0  0  0  0  0  0  0  0  0  0  0
   36.2830   30.5370   42.5790 C   0  0  0  0  0  0  0  0  0  0  0  0
   36.6060   29.3520   42.3230 O   0  0  0  0  0  0  0  0  0  0  0  0
   35.0250   31.0000   42.4710 N   0  0  0  0  0  0  0  0  0  0  0  0
   34.8170   32.2990   42.7790 C   0  0  0  0  0  0  0  0  0  0  0  0
   33.6360   32.7700   42.6880 O   0  0  0  0  0  0  0  0  0  0  0  0
   34.2820   30.3450   42.1610 H   0  0  0  0  0  0  0  0  0  0  0  0
  1 11  1  0  0  0  0
  1  2  1  0  0  0  0
  2  3  2  0  0  0  0
  2  7  1  0  0  0  0
  3  8  1  0  0  0  0
  4  9  1  0  0  0  0
  4  3  1  0  0  0  0
  5  6  1  0  0  0  0
  5  4  2  0  0  0  0
  6  1  2  0  0  0  0
 10  5  1  0  0  0  0
 11 12  1  6  0  0  0
 11 22  1  0  0  0  0
 13 14  2  0  0  0  0
 13 18  1  0  0  0  0
 14 15  1  0  0  0  0
 15 21  1  0  0  0  0
 15 16  2  0  0  0  0
 17 16  1  0  0  0  0
 17 11  1  0  0  0  0
 18 17  2  0  0  0  0
 19 13  1  0  0  0  0
 20 14  1  0  0  0  0
 22 23  1  0  0  0  0
 24  6  1  0  0  0  0
 25 24  2  0  0  0  0
 26 28  1  0  0  0  0
 26 25  1  0  0  0  0
 27 26  1  0  0  0  0
 29 26  1  0  0  0  0
 31 32  1  0  0  0  0
 31 30  1  0  0  0  0
 33 29  1  0  0  0  0
 33 32  2  0  0  0  0
 34 33  1  0  0  0  0
 35 34  2  0  0  0  0
 36 34  1  0  0  0  0
 36 37  1  0  0  0  0
 37 31  1  0  0  0  0
 38 37  2  0  0  0  0
 39 36  1  0  0  0  0
M  END
>  <minimizedAffinity>
-6.08698273

>  <minimizedRMSD>
0.35847646

$$$$
