
 OpenBabel03272510173D

 29 31  0  0  0  0  0  0  0  0999 V2000
   37.0150   29.7560   51.2550 Br  0  0  0  0  0  0  0  0  0  0  0  0
   35.9890   29.4460   49.6780 C   0  0  0  0  0  0  0  0  0  0  0  0
   36.1890   30.2010   48.5420 C   0  0  0  0  0  0  0  0  0  0  0  0
   35.4020   29.9130   47.4390 C   0  0  0  0  0  0  0  0  0  0  0  0
   34.4370   28.9110   47.4380 C   0  0  0  0  0  0  0  0  0  0  0  0
   34.2750   28.1900   48.5910 C   0  0  0  0  0  0  0  0  0  0  0  0
   35.0470   28.4590   49.6980 C   0  0  0  0  0  0  0  0  0  0  0  0
   35.6020   30.5430   46.5640 H   0  0  0  0  0  0  0  0  0  0  0  0
   33.5150   27.4260   48.5390 H   0  0  0  0  0  0  0  0  0  0  0  0
   34.8530   27.8390   50.5700 H   0  0  0  0  0  0  0  0  0  0  0  0
   33.7390   28.7790   46.2040 N   0  0  0  0  0  0  0  0  0  0  0  0
   33.7820   27.7700   45.3200 C   0  0  0  0  0  3  0  0  0  0  0  0
   33.0090   27.8630   44.1820 C   0  0  0  0  0  0  0  0  0  0  0  0
   33.0680   27.0270   43.4880 H   0  0  0  0  0  0  0  0  0  0  0  0
   32.2020   28.9720   43.9470 C   0  0  0  0  0  0  0  0  0  0  0  0
   31.5030   29.0250   42.8870 O   0  0  0  0  0  0  0  0  0  0  0  0
   32.1920   29.9610   44.8650 N   0  0  0  0  0  0  0  0  0  0  0  0
   32.9500   29.8690   45.9810 C   0  0  0  0  0  0  0  0  0  0  0  0
   32.8300   30.8680   46.7320 O   0  0  0  0  0  0  0  0  0  0  0  0
   31.5700   30.7720   44.6410 H   0  0  0  0  0  0  0  0  0  0  0  0
   38.0180   33.2270   49.4170 C   0  0  0  0  0  0  0  0  0  0  0  0
   39.0700   33.2680   48.4820 C   0  0  0  0  0  0  0  0  0  0  0  0
   39.1390   32.2440   47.5510 C   0  0  0  0  0  0  0  0  0  0  0  0
   38.1930   31.2550   47.5870 N   0  0  0  0  0  0  0  0  0  0  0  0
   37.1910   31.2560   48.5110 C   0  0  0  0  0  0  0  0  0  0  0  0
   37.1140   32.2420   49.4160 N   0  0  0  0  0  0  0  0  0  0  0  0
   38.0190   34.0530   50.1150 H   0  0  0  0  0  0  0  0  0  0  0  0
   39.8370   33.9940   48.3890 H   0  0  0  0  0  0  0  0  0  0  0  0
   39.8580   32.0910   46.7580 H   0  0  0  0  0  0  0  0  0  0  0  0
  2  7  1  0  0  0  0
  2  1  1  0  0  0  0
  3  2  2  0  0  0  0
  4  3  1  0  0  0  0
  5  4  2  0  0  0  0
  5  6  1  0  0  0  0
  6  7  2  0  0  0  0
  7 10  1  0  0  0  0
  8  4  1  0  0  0  0
  9  6  1  0  0  0  0
 11  5  1  0  0  0  0
 12 11  1  0  0  0  0
 13 12  2  0  0  0  0
 14 13  1  0  0  0  0
 15 13  1  0  0  0  0
 15 17  1  0  0  0  0
 16 15  2  0  0  0  0
 17 18  1  0  0  0  0
 18 11  1  0  0  0  0
 18 19  2  0  0  0  0
 20 17  1  0  0  0  0
 21 27  1  0  0  0  0
 22 21  2  0  0  0  0
 23 24  2  0  0  0  0
 23 22  1  0  0  0  0
 24 25  1  0  0  0  0
 25  3  1  0  0  0  0
 25 26  2  0  0  0  0
 26 21  1  0  0  0  0
 28 22  1  0  0  0  0
 29 23  1  0  0  0  0
M  END
>  <minimizedAffinity>
-5.85937786

>  <minimizedRMSD>
0.877185524

$$$$
