
 OpenBabel03272508253D

 26 28  0  0  1  0  0  0  0  0999 V2000
   36.3590   30.9670   47.5310 C   0  0  1  0  0  0  0  0  0  0  0  0
   37.2420   30.4650   46.4860 C   0  0  1  0  0  0  0  0  0  0  0  0
   35.7850   30.0860   46.4280 C   0  0  0  0  0  0  0  0  0  0  0  0
   35.9300   32.0010   47.5940 H   0  0  0  0  0  0  0  0  0  0  0  0
   37.8920   29.5980   46.8110 H   0  0  0  0  0  0  0  0  0  0  0  0
   35.4680   29.0530   46.6820 H   0  0  0  0  0  0  0  0  0  0  0  0
   35.2020   30.5850   45.6320 H   0  0  0  0  0  0  0  0  0  0  0  0
   37.8400   31.2840   45.4810 N   0  0  0  0  0  0  0  0  0  0  0  0
   37.1670   31.6890   44.3660 C   0  0  0  0  0  3  0  0  0  0  0  0
   37.7000   32.4720   43.3790 C   0  0  0  0  0  0  0  0  0  0  0  0
   37.0690   32.7410   42.5220 H   0  0  0  0  0  0  0  0  0  0  0  0
   39.0130   32.8810   43.5230 C   0  0  0  0  0  0  0  0  0  0  0  0
   39.5300   33.6030   42.6310 O   0  0  0  0  0  0  0  0  0  0  0  0
   39.7080   32.4880   44.6290 N   0  0  0  0  0  0  0  0  0  0  0  0
   39.1120   31.7120   45.5660 C   0  0  0  0  0  0  0  0  0  0  0  0
   39.8340   31.4160   46.5250 O   0  0  0  0  0  0  0  0  0  0  0  0
   40.6720   32.8350   44.6550 H   0  0  0  0  0  0  0  0  0  0  0  0
   36.3060   30.3140   48.8900 C   0  0  0  0  0  0  0  0  0  0  0  0
   35.0330   30.1390   49.4620 C   0  0  0  0  0  0  0  0  0  0  0  0
   34.9980   29.5610   50.7190 C   0  0  0  0  0  0  0  0  0  0  0  0
   36.1590   29.1970   51.3260 N   0  0  0  0  0  0  0  0  0  0  0  0
   37.3840   29.3810   50.7410 C   0  0  0  0  0  0  0  0  0  0  0  0
   37.4320   29.9500   49.5030 N   0  0  0  0  0  0  0  0  0  0  0  0
   34.1080   30.4270   48.9840 H   0  0  0  0  0  0  0  0  0  0  0  0
   34.0650   29.3780   51.2560 H   0  0  0  0  0  0  0  0  0  0  0  0
   38.2730   29.0710   51.2730 H   0  0  0  0  0  0  0  0  0  0  0  0
  1  4  1  6  0  0  0
  1 18  1  0  0  0  0
  2  5  1  1  0  0  0
  2  1  1  0  0  0  0
  3  2  1  0  0  0  0
  3  6  1  0  0  0  0
  3  1  1  0  0  0  0
  7  3  1  0  0  0  0
  8 15  1  0  0  0  0
  8  2  1  0  0  0  0
  9  8  1  0  0  0  0
 10 12  1  0  0  0  0
 10  9  2  0  0  0  0
 11 10  1  0  0  0  0
 12 14  1  0  0  0  0
 13 12  2  0  0  0  0
 14 17  1  0  0  0  0
 14 15  1  0  0  0  0
 15 16  2  0  0  0  0
 18 19  2  0  0  0  0
 18 23  1  0  0  0  0
 19 20  1  0  0  0  0
 20 25  1  0  0  0  0
 20 21  2  0  0  0  0
 22 26  1  0  0  0  0
 22 21  1  0  0  0  0
 23 22  2  0  0  0  0
 24 19  1  0  0  0  0
M  END
>  <minimizedAffinity>
-4.3382535

>  <minimizedRMSD>
7.09106398

$$$$
