
 OpenBabel03272507333D

 37 40  0  0  1  0  0  0  0  0999 V2000
   32.9990   27.7790   48.3690 C   0  0  0  0  0  0  0  0  0  0  0  0
   31.8030   27.7050   48.8080 O   0  0  0  0  0  0  0  0  0  0  0  0
   35.9160   29.2640   49.8070 C   0  0  0  0  0  0  0  0  0  0  0  0
   34.9760   29.7300   50.7040 C   0  0  0  0  0  0  0  0  0  0  0  0
   33.7280   29.2410   50.2960 C   0  0  0  0  0  0  0  0  0  0  0  0
   33.9910   28.5010   49.1650 C   0  0  0  0  0  0  0  0  0  0  0  0
   35.2820   28.5420   48.9160 O   0  0  0  0  0  0  0  0  0  0  0  0
   35.1200   30.3640   51.5860 H   0  0  0  0  0  0  0  0  0  0  0  0
   32.7900   29.4360   50.8010 H   0  0  0  0  0  0  0  0  0  0  0  0
   37.3280   29.5810   49.9290 C   0  0  0  0  0  0  0  0  0  0  0  0
   38.0150   28.9740   50.7630 O   0  0  0  0  0  0  0  0  0  0  0  0
   37.8460   30.6010   49.0550 C   0  0  0  0  0  0  0  0  0  0  0  0
   38.2000   31.8110   49.6330 C   0  0  0  0  0  0  0  0  0  0  0  0
   38.7040   32.8200   48.8090 C   0  0  0  0  0  0  0  0  0  0  0  0
   38.8210   32.5530   47.4620 N   0  0  0  0  0  0  0  0  0  0  0  0
   38.4710   31.3780   46.9420 C   0  0  0  0  0  0  0  0  0  0  0  0
   37.9860   30.3990   47.7240 N   0  0  0  0  0  0  0  0  0  0  0  0
   38.0970   31.9880   50.6890 H   0  0  0  0  0  0  0  0  0  0  0  0
   38.9800   33.7620   49.2590 H   0  0  0  0  0  0  0  0  0  0  0  0
   38.5940   31.2500   45.8780 H   0  0  0  0  0  0  0  0  0  0  0  0
   33.3830   27.1340   47.0690 C   0  0  1  0  0  0  0  0  0  0  0  0
   33.7530   25.6170   47.3150 C   0  0  0  0  0  0  0  0  0  0  0  0
   32.5860   26.0440   46.5100 C   0  0  2  0  0  0  0  0  0  0  0  0
   34.2350   27.6220   46.5520 H   0  0  0  0  0  0  0  0  0  0  0  0
   33.6290   25.2310   48.3230 H   0  0  0  0  0  0  0  0  0  0  0  0
   34.6300   25.2420   46.7670 H   0  0  0  0  0  0  0  0  0  0  0  0
   31.6060   25.8750   47.0480 H   0  0  0  0  0  0  0  0  0  0  0  0
   32.5050   25.9280   45.0900 N   0  0  0  0  0  0  0  0  0  0  0  0
   33.5140   25.3530   44.3680 C   0  0  0  0  0  3  0  0  0  0  0  0
   33.4450   25.2370   42.9940 C   0  0  0  0  0  0  0  0  0  0  0  0
   34.3140   24.7600   42.5460 H   0  0  0  0  0  0  0  0  0  0  0  0
   32.3550   25.6960   42.2850 C   0  0  0  0  0  0  0  0  0  0  0  0
   32.4330   25.5230   41.0410 O   0  0  0  0  0  0  0  0  0  0  0  0
   31.3680   26.2620   43.0030 N   0  0  0  0  0  0  0  0  0  0  0  0
   31.4760   26.3530   44.3400 C   0  0  0  0  0  0  0  0  0  0  0  0
   30.4950   26.8960   44.8870 O   0  0  0  0  0  0  0  0  0  0  0  0
   30.5600   26.5980   42.4450 H   0  0  0  0  0  0  0  0  0  0  0  0
  1  2  2  0  0  0  0
  1  6  1  0  0  0  0
  3 10  1  0  0  0  0
  3  4  2  0  0  0  0
  4  8  1  0  0  0  0
  5  4  1  0  0  0  0
  5  9  1  0  0  0  0
  6  5  2  0  0  0  0
  7  6  1  0  0  0  0
  7  3  1  0  0  0  0
 10 11  2  0  0  0  0
 12 13  1  0  0  0  0
 12 10  1  0  0  0  0
 13 18  1  0  0  0  0
 14 19  1  0  0  0  0
 14 13  2  0  0  0  0
 15 14  1  0  0  0  0
 16 15  2  0  0  0  0
 16 17  1  0  0  0  0
 17 12  2  0  0  0  0
 20 16  1  0  0  0  0
 21 24  1  6  0  0  0
 21 22  1  0  0  0  0
 21  1  1  0  0  0  0
 22 25  1  0  0  0  0
 23 27  1  1  0  0  0
 23 21  1  0  0  0  0
 23 22  1  0  0  0  0
 26 22  1  0  0  0  0
 28 23  1  0  0  0  0
 29 28  1  0  0  0  0
 30 29  2  0  0  0  0
 31 30  1  0  0  0  0
 32 30  1  0  0  0  0
 32 34  1  0  0  0  0
 33 32  2  0  0  0  0
 34 35  1  0  0  0  0
 35 36  2  0  0  0  0
 35 28  1  0  0  0  0
 37 34  1  0  0  0  0
M  END
>  <minimizedAffinity>
-4.88637686

>  <minimizedRMSD>
1.26283634

$$$$
