
 OpenBabel03272507193D

 31 33  0  0  1  0  0  0  0  0999 V2000
   37.3920   31.2480   49.4340 C   0  0  0  0  0  0  0  0  0  0  0  0
   38.2940   32.2890   49.5440 C   0  0  0  0  0  0  0  0  0  0  0  0
   38.8270   32.7270   48.3050 C   0  0  0  0  0  0  0  0  0  0  0  0
   38.4460   32.1350   47.1240 N   0  0  0  0  0  0  0  0  0  0  0  0
   37.5580   31.1190   47.0950 C   0  0  0  0  0  0  0  0  0  0  0  0
   37.0220   30.6690   48.2720 N   0  0  0  0  0  0  0  0  0  0  0  0
   38.5880   32.7490   50.4750 H   0  0  0  0  0  0  0  0  0  0  0  0
   39.5440   33.5430   48.2990 H   0  0  0  0  0  0  0  0  0  0  0  0
   37.2220   30.5650   45.8280 N   0  0  0  0  0  0  0  0  0  0  0  0
   35.9040   30.2850   45.6140 C   0  0  0  0  0  3  0  0  0  0  0  0
   35.5000   29.7450   44.4110 C   0  0  0  0  0  0  0  0  0  0  0  0
   34.4790   29.5050   44.1880 H   0  0  0  0  0  0  0  0  0  0  0  0
   36.4210   29.4780   43.3980 C   0  0  0  0  0  0  0  0  0  0  0  0
   36.0550   28.9860   42.2970 O   0  0  0  0  0  0  0  0  0  0  0  0
   37.7170   29.7750   43.6620 N   0  0  0  0  0  0  0  0  0  0  0  0
   38.0950   30.2970   44.8310 C   0  0  0  0  0  0  0  0  0  0  0  0
   39.3070   30.5740   45.0770 O   0  0  0  0  0  0  0  0  0  0  0  0
   38.4290   29.5780   42.9040 H   0  0  0  0  0  0  0  0  0  0  0  0
   36.7820   30.7880   50.7200 C   0  0  1  0  0  0  0  0  0  0  0  0
   36.0390   29.5340   50.8220 C   0  0  2  0  0  0  0  0  0  0  0  0
   37.4730   29.5190   51.2630 C   0  0  0  0  0  0  0  0  0  0  0  0
   36.6590   31.5970   51.4710 H   0  0  0  0  0  0  0  0  0  0  0  0
   35.1950   29.5940   51.5730 H   0  0  0  0  0  0  0  0  0  0  0  0
   38.2110   29.0040   50.6170 H   0  0  0  0  0  0  0  0  0  0  0  0
   37.6010   29.5040   52.3540 H   0  0  0  0  0  0  0  0  0  0  0  0
   35.7010   28.9050   49.6310 O   0  0  0  0  0  0  0  0  0  0  0  0
   34.4990   28.4670   49.1860 C   0  0  0  0  0  0  0  0  0  0  0  0
   34.3910   27.5260   48.3700 O   0  0  0  0  0  0  0  0  0  0  0  0
   33.5060   29.2370   49.7900 N   0  0  0  0  0  0  0  0  0  0  0  0
   32.6770   29.8770   49.8240 H   0  0  0  0  0  0  0  0  0  0  0  0
   33.3360   29.3720   50.8250 H   0  0  0  0  0  0  0  0  0  0  0  0
  1  2  1  0  0  0  0
  1 19  1  0  0  0  0
  2  7  1  0  0  0  0
  3  2  2  0  0  0  0
  4  3  1  0  0  0  0
  5  4  2  0  0  0  0
  5  6  1  0  0  0  0
  6  1  2  0  0  0  0
  8  3  1  0  0  0  0
  9  5  1  0  0  0  0
 10  9  1  0  0  0  0
 11 10  2  0  0  0  0
 12 11  1  0  0  0  0
 13 15  1  0  0  0  0
 13 11  1  0  0  0  0
 14 13  2  0  0  0  0
 15 16  1  0  0  0  0
 16 17  2  0  0  0  0
 16  9  1  0  0  0  0
 18 15  1  0  0  0  0
 19 20  1  0  0  0  0
 19 21  1  0  0  0  0
 19 22  1  1  0  0  0
 20 21  1  0  0  0  0
 20 23  1  1  0  0  0
 21 25  1  0  0  0  0
 24 21  1  0  0  0  0
 26 20  1  0  0  0  0
 27 26  1  0  0  0  0
 27 29  1  0  0  0  0
 28 27  2  0  0  0  0
 29 30  1  0  0  0  0
 29 31  1  0  0  0  0
M  END
>  <minimizedAffinity>
-5.85567617

>  <minimizedRMSD>
0.350392878

$$$$
