
 OpenBabel03272502203D

 29 31  0  0  0  0  0  0  0  0999 V2000
   37.3670   23.9230   32.3700 C   0  0  0  0  0  0  0  0  0  0  0  0
   37.1320   22.6890   31.7270 C   0  0  0  0  0  0  0  0  0  0  0  0
   37.3260   21.5390   32.4750 C   0  0  0  0  0  0  0  0  0  0  0  0
   37.7310   21.6420   33.7820 N   0  0  0  0  0  0  0  0  0  0  0  0
   37.9460   22.8660   34.3570 C   0  0  0  0  0  0  0  0  0  0  0  0
   37.7640   24.0060   33.6520 N   0  0  0  0  0  0  0  0  0  0  0  0
   36.8140   22.6860   30.6940 H   0  0  0  0  0  0  0  0  0  0  0  0
   37.1520   20.5890   32.0020 H   0  0  0  0  0  0  0  0  0  0  0  0
   40.9660   22.1590   34.7770 Br  0  0  0  0  0  0  0  0  0  0  0  0
   39.6800   22.6970   36.0930 C   0  0  0  0  0  0  0  0  0  0  0  0
   38.3760   22.9770   35.7480 C   0  0  0  0  0  0  0  0  0  0  0  0
   37.5180   23.3540   36.7480 C   0  0  0  0  0  0  0  0  0  0  0  0
   37.8870   23.4710   38.0750 C   0  0  0  0  0  0  0  0  0  0  0  0
   39.1970   23.1850   38.3890 C   0  0  0  0  0  0  0  0  0  0  0  0
   40.0810   22.8020   37.3990 C   0  0  0  0  0  0  0  0  0  0  0  0
   36.5070   23.5660   36.4470 H   0  0  0  0  0  0  0  0  0  0  0  0
   37.1660   23.7730   38.8150 H   0  0  0  0  0  0  0  0  0  0  0  0
   39.5380   23.2610   39.4190 H   0  0  0  0  0  0  0  0  0  0  0  0
   41.1170   22.5740   37.6430 H   0  0  0  0  0  0  0  0  0  0  0  0
   37.2010   25.1670   31.7030 N   0  0  0  0  0  0  0  0  0  0  0  0
   38.2720   25.9880   31.5880 C   0  0  0  0  0  3  0  0  0  0  0  0
   38.1440   27.2190   30.9380 C   0  0  0  0  0  0  0  0  0  0  0  0
   38.9800   27.9080   30.8260 H   0  0  0  0  0  0  0  0  0  0  0  0
   36.9200   27.5900   30.4170 C   0  0  0  0  0  0  0  0  0  0  0  0
   36.7870   28.6960   29.8280 O   0  0  0  0  0  0  0  0  0  0  0  0
   35.8840   26.7160   30.5680 N   0  0  0  0  0  0  0  0  0  0  0  0
   36.0100   25.5310   31.1930 C   0  0  0  0  0  0  0  0  0  0  0  0
   34.9960   24.7900   31.2840 O   0  0  0  0  0  0  0  0  0  0  0  0
   34.9750   27.0460   30.1530 H   0  0  0  0  0  0  0  0  0  0  0  0
  1  6  1  0  0  0  0
  2  1  2  0  0  0  0
  2  3  1  0  0  0  0
  3  4  2  0  0  0  0
  4  5  1  0  0  0  0
  5 11  1  0  0  0  0
  6  5  2  0  0  0  0
  7  2  1  0  0  0  0
  8  3  1  0  0  0  0
  9 10  1  0  0  0  0
 10 15  1  0  0  0  0
 11 10  2  0  0  0  0
 11 12  1  0  0  0  0
 12 13  2  0  0  0  0
 13 14  1  0  0  0  0
 13 17  1  0  0  0  0
 14 18  1  0  0  0  0
 15 19  1  0  0  0  0
 15 14  2  0  0  0  0
 16 12  1  0  0  0  0
 20  1  1  0  0  0  0
 21 20  1  0  0  0  0
 22 21  2  0  0  0  0
 23 22  1  0  0  0  0
 24 26  1  0  0  0  0
 24 22  1  0  0  0  0
 25 24  2  0  0  0  0
 26 27  1  0  0  0  0
 27 28  2  0  0  0  0
 27 20  1  0  0  0  0
 29 26  1  0  0  0  0
M  END
>  <minimizedAffinity>
-5.64646101

$$$$

 OpenBabel03272502203D

 29 31  0  0  0  0  0  0  0  0999 V2000
   36.1450   28.0660   31.8350 C   0  0  0  0  0  0  0  0  0  0  0  0
   36.5650   28.8360   30.7290 C   0  0  0  0  0  0  0  0  0  0  0  0
   36.4500   30.2130   30.8380 C   0  0  0  0  0  0  0  0  0  0  0  0
   35.9440   30.7610   31.9890 N   0  0  0  0  0  0  0  0  0  0  0  0
   35.5510   29.9670   33.0330 C   0  0  0  0  0  0  0  0  0  0  0  0
   35.6520   28.6200   32.9560 N   0  0  0  0  0  0  0  0  0  0  0  0
   36.9530   28.3330   29.8550 H   0  0  0  0  0  0  0  0  0  0  0  0
   36.7630   30.8160   30.0050 H   0  0  0  0  0  0  0  0  0  0  0  0
   32.4300   29.8100   33.2110 Br  0  0  0  0  0  0  0  0  0  0  0  0
   33.6540   30.5560   34.4830 C   0  0  0  0  0  0  0  0  0  0  0  0
   35.0130   30.5490   34.2580 C   0  0  0  0  0  0  0  0  0  0  0  0
   35.8210   31.1040   35.2180 C   0  0  0  0  0  0  0  0  0  0  0  0
   35.3510   31.6640   36.3900 C   0  0  0  0  0  0  0  0  0  0  0  0
   33.9880   31.6570   36.5860 C   0  0  0  0  0  0  0  0  0  0  0  0
   33.1530   31.1040   35.6340 C   0  0  0  0  0  0  0  0  0  0  0  0
   36.8770   31.0830   35.0130 H   0  0  0  0  0  0  0  0  0  0  0  0
   36.0370   32.0840   37.1050 H   0  0  0  0  0  0  0  0  0  0  0  0
   33.5670   32.0860   37.4920 H   0  0  0  0  0  0  0  0  0  0  0  0
   32.0740   31.0960   35.7860 H   0  0  0  0  0  0  0  0  0  0  0  0
   36.2160   26.6460   31.8380 N   0  0  0  0  0  0  0  0  0  0  0  0
   35.2890   25.9500   31.1380 C   0  0  0  0  0  3  0  0  0  0  0  0
   35.3290   24.5530   31.1190 C   0  0  0  0  0  0  0  0  0  0  0  0
   34.6020   23.9570   30.5700 H   0  0  0  0  0  0  0  0  0  0  0  0
   36.3190   23.8910   31.8190 C   0  0  0  0  0  0  0  0  0  0  0  0
   36.3690   22.6320   31.8130 O   0  0  0  0  0  0  0  0  0  0  0  0
   37.2200   24.6530   32.5020 N   0  0  0  0  0  0  0  0  0  0  0  0
   37.1790   25.9980   32.5180 C   0  0  0  0  0  0  0  0  0  0  0  0
   38.0550   26.6160   33.1780 O   0  0  0  0  0  0  0  0  0  0  0  0
   37.9530   24.1000   33.0180 H   0  0  0  0  0  0  0  0  0  0  0  0
  1 20  1  0  0  0  0
  1  6  1  0  0  0  0
  2  3  1  0  0  0  0
  2  1  2  0  0  0  0
  3  4  2  0  0  0  0
  4  5  1  0  0  0  0
  5 11  1  0  0  0  0
  6  5  2  0  0  0  0
  7  2  1  0  0  0  0
  8  3  1  0  0  0  0
  9 10  1  0  0  0  0
 10 15  1  0  0  0  0
 11 10  2  0  0  0  0
 11 12  1  0  0  0  0
 12 13  2  0  0  0  0
 13 14  1  0  0  0  0
 13 17  1  0  0  0  0
 14 18  1  0  0  0  0
 15 19  1  0  0  0  0
 15 14  2  0  0  0  0
 16 12  1  0  0  0  0
 20 27  1  0  0  0  0
 21 20  1  0  0  0  0
 22 21  2  0  0  0  0
 22 24  1  0  0  0  0
 23 22  1  0  0  0  0
 24 26  1  0  0  0  0
 25 24  2  0  0  0  0
 26 27  1  0  0  0  0
 26 29  1  0  0  0  0
 27 28  2  0  0  0  0
M  END
>  <minimizedAffinity>
-5.52816963

$$$$

 OpenBabel03272502203D

 29 31  0  0  0  0  0  0  0  0999 V2000
   36.5470   28.1890   33.5450 C   0  0  0  0  0  0  0  0  0  0  0  0
   36.5640   28.6460   32.2090 C   0  0  0  0  0  0  0  0  0  0  0  0
   35.6760   29.6550   31.8740 C   0  0  0  0  0  0  0  0  0  0  0  0
   34.8340   30.1600   32.8320 N   0  0  0  0  0  0  0  0  0  0  0  0
   34.8590   29.6810   34.1140 C   0  0  0  0  0  0  0  0  0  0  0  0
   35.7150   28.6960   34.4710 N   0  0  0  0  0  0  0  0  0  0  0  0
   37.2570   28.1990   31.5100 H   0  0  0  0  0  0  0  0  0  0  0  0
   35.6740   30.0150   30.8620 H   0  0  0  0  0  0  0  0  0  0  0  0
   36.0840   32.0910   35.6910 Br  0  0  0  0  0  0  0  0  0  0  0  0
   34.3600   31.2830   35.9130 C   0  0  0  0  0  0  0  0  0  0  0  0
   33.9630   30.2180   35.1340 C   0  0  0  0  0  0  0  0  0  0  0  0
   32.7140   29.6970   35.3560 C   0  0  0  0  0  0  0  0  0  0  0  0
   31.8370   30.1770   36.3090 C   0  0  0  0  0  0  0  0  0  0  0  0
   32.2640   31.2420   37.0730 C   0  0  0  0  0  0  0  0  0  0  0  0
   33.5170   31.7850   36.8680 C   0  0  0  0  0  0  0  0  0  0  0  0
   32.4330   28.8660   34.7320 H   0  0  0  0  0  0  0  0  0  0  0  0
   30.8690   29.7250   36.4350 H   0  0  0  0  0  0  0  0  0  0  0  0
   31.6120   31.6580   37.8370 H   0  0  0  0  0  0  0  0  0  0  0  0
   33.8570   32.6270   37.4700 H   0  0  0  0  0  0  0  0  0  0  0  0
   37.4130   27.1590   34.0030 N   0  0  0  0  0  0  0  0  0  0  0  0
   38.3120   27.4540   34.9730 C   0  0  0  0  0  3  0  0  0  0  0  0
   39.1790   26.4650   35.4480 C   0  0  0  0  0  0  0  0  0  0  0  0
   39.9150   26.6610   36.2250 H   0  0  0  0  0  0  0  0  0  0  0  0
   39.1110   25.1900   34.9210 C   0  0  0  0  0  0  0  0  0  0  0  0
   39.8850   24.2870   35.3370 O   0  0  0  0  0  0  0  0  0  0  0  0
   38.1830   24.9620   33.9480 N   0  0  0  0  0  0  0  0  0  0  0  0
   37.3490   25.9160   33.4930 C   0  0  0  0  0  0  0  0  0  0  0  0
   36.5250   25.6110   32.5910 O   0  0  0  0  0  0  0  0  0  0  0  0
   38.1720   23.9760   33.5810 H   0  0  0  0  0  0  0  0  0  0  0  0
  1 20  1  0  0  0  0
  1  6  1  0  0  0  0
  2  1  2  0  0  0  0
  3  2  1  0  0  0  0
  3  4  2  0  0  0  0
  4  5  1  0  0  0  0
  5  6  2  0  0  0  0
  5 11  1  0  0  0  0
  7  2  1  0  0  0  0
  8  3  1  0  0  0  0
  9 10  1  0  0  0  0
 10 15  1  0  0  0  0
 11 12  1  0  0  0  0
 11 10  2  0  0  0  0
 12 13  2  0  0  0  0
 13 17  1  0  0  0  0
 13 14  1  0  0  0  0
 14 18  1  0  0  0  0
 15 14  2  0  0  0  0
 15 19  1  0  0  0  0
 16 12  1  0  0  0  0
 20 21  1  0  0  0  0
 21 22  2  0  0  0  0
 22 23  1  0  0  0  0
 24 25  2  0  0  0  0
 24 22  1  0  0  0  0
 26 24  1  0  0  0  0
 27 26  1  0  0  0  0
 27 20  1  0  0  0  0
 28 27  2  0  0  0  0
 29 26  1  0  0  0  0
M  END
>  <minimizedAffinity>
-5.47267008

$$$$

 OpenBabel03272502203D

 29 31  0  0  0  0  0  0  0  0999 V2000
   36.0250   23.5730   31.6550 C   0  0  0  0  0  0  0  0  0  0  0  0
   35.2220   24.3340   30.7790 C   0  0  0  0  0  0  0  0  0  0  0  0
   35.2940   25.7130   30.8910 C   0  0  0  0  0  0  0  0  0  0  0  0
   36.1250   26.2730   31.8280 N   0  0  0  0  0  0  0  0  0  0  0  0
   36.8840   25.4880   32.6540 C   0  0  0  0  0  0  0  0  0  0  0  0
   36.8350   24.1390   32.5670 N   0  0  0  0  0  0  0  0  0  0  0  0
   34.5910   23.8220   30.0660 H   0  0  0  0  0  0  0  0  0  0  0  0
   34.6880   26.3090   30.2330 H   0  0  0  0  0  0  0  0  0  0  0  0
   39.7940   25.9590   31.6010 Br  0  0  0  0  0  0  0  0  0  0  0  0
   39.0840   26.3510   33.3370 C   0  0  0  0  0  0  0  0  0  0  0  0
   37.7690   26.0830   33.6510 C   0  0  0  0  0  0  0  0  0  0  0  0
   37.3390   26.3940   34.9150 C   0  0  0  0  0  0  0  0  0  0  0  0
   38.1440   26.9580   35.8860 C   0  0  0  0  0  0  0  0  0  0  0  0
   39.4540   27.2140   35.5420 C   0  0  0  0  0  0  0  0  0  0  0  0
   39.9110   26.9110   34.2750 C   0  0  0  0  0  0  0  0  0  0  0  0
   36.3080   26.1720   35.1290 H   0  0  0  0  0  0  0  0  0  0  0  0
   37.7470   27.1790   36.8610 H   0  0  0  0  0  0  0  0  0  0  0  0
   40.1300   27.6570   36.2700 H   0  0  0  0  0  0  0  0  0  0  0  0
   40.9460   27.1110   34.0000 H   0  0  0  0  0  0  0  0  0  0  0  0
   36.0340   22.1520   31.6320 N   0  0  0  0  0  0  0  0  0  0  0  0
   35.0380   21.4890   32.2660 C   0  0  0  0  0  3  0  0  0  0  0  0
   35.0150   20.0910   32.2630 C   0  0  0  0  0  0  0  0  0  0  0  0
   34.2330   19.5200   32.7610 H   0  0  0  0  0  0  0  0  0  0  0  0
   36.0140   19.3950   31.6110 C   0  0  0  0  0  0  0  0  0  0  0  0
   36.0090   18.1350   31.5980 O   0  0  0  0  0  0  0  0  0  0  0  0
   36.9860   20.1260   30.9930 N   0  0  0  0  0  0  0  0  0  0  0  0
   37.0050   21.4720   30.9970 C   0  0  0  0  0  0  0  0  0  0  0  0
   37.9440   22.0590   30.3990 O   0  0  0  0  0  0  0  0  0  0  0  0
   37.7220   19.5480   30.5110 H   0  0  0  0  0  0  0  0  0  0  0  0
  1  6  1  0  0  0  0
  2  3  1  0  0  0  0
  2  1  2  0  0  0  0
  3  4  2  0  0  0  0
  4  5  1  0  0  0  0
  5 11  1  0  0  0  0
  6  5  2  0  0  0  0
  7  2  1  0  0  0  0
  8  3  1  0  0  0  0
  9 10  1  0  0  0  0
 10 11  2  0  0  0  0
 10 15  1  0  0  0  0
 11 12  1  0  0  0  0
 12 16  1  0  0  0  0
 12 13  2  0  0  0  0
 13 17  1  0  0  0  0
 14 13  1  0  0  0  0
 14 18  1  0  0  0  0
 15 14  2  0  0  0  0
 19 15  1  0  0  0  0
 20  1  1  0  0  0  0
 20 21  1  0  0  0  0
 22 21  2  0  0  0  0
 22 23  1  0  0  0  0
 24 22  1  0  0  0  0
 25 24  2  0  0  0  0
 26 27  1  0  0  0  0
 26 24  1  0  0  0  0
 27 20  1  0  0  0  0
 28 27  2  0  0  0  0
 29 26  1  0  0  0  0
M  END
>  <minimizedAffinity>
-5.46338701

$$$$

 OpenBabel03272502203D

 29 31  0  0  0  0  0  0  0  0999 V2000
   37.9300   23.3160   32.5350 C   0  0  0  0  0  0  0  0  0  0  0  0
   38.1670   24.5760   31.9460 C   0  0  0  0  0  0  0  0  0  0  0  0
   38.5690   25.6020   32.7860 C   0  0  0  0  0  0  0  0  0  0  0  0
   38.7170   25.3590   34.1280 N   0  0  0  0  0  0  0  0  0  0  0  0
   38.4740   24.1160   34.6490 C   0  0  0  0  0  0  0  0  0  0  0  0
   38.0810   23.0950   33.8530 N   0  0  0  0  0  0  0  0  0  0  0  0
   38.0290   24.6930   30.8800 H   0  0  0  0  0  0  0  0  0  0  0  0
   38.7540   26.5690   32.3560 H   0  0  0  0  0  0  0  0  0  0  0  0
   41.1070   22.5710   35.3410 Br  0  0  0  0  0  0  0  0  0  0  0  0
   39.7420   23.1840   36.5390 C   0  0  0  0  0  0  0  0  0  0  0  0
   38.6320   23.8560   36.0770 C   0  0  0  0  0  0  0  0  0  0  0  0
   37.7010   24.2610   36.9990 C   0  0  0  0  0  0  0  0  0  0  0  0
   37.8150   24.0350   38.3570 C   0  0  0  0  0  0  0  0  0  0  0  0
   38.9360   23.3600   38.7890 C   0  0  0  0  0  0  0  0  0  0  0  0
   39.8870   22.9420   37.8800 C   0  0  0  0  0  0  0  0  0  0  0  0
   36.8460   24.7830   36.6060 H   0  0  0  0  0  0  0  0  0  0  0  0
   37.0490   24.3780   39.0310 H   0  0  0  0  0  0  0  0  0  0  0  0
   39.0730   23.1570   39.8480 H   0  0  0  0  0  0  0  0  0  0  0  0
   40.7750   22.4080   38.2170 H   0  0  0  0  0  0  0  0  0  0  0  0
   37.5150   22.1900   31.7730 N   0  0  0  0  0  0  0  0  0  0  0  0
   38.4610   21.3380   31.3120 C   0  0  0  0  0  3  0  0  0  0  0  0
   38.0890   20.2200   30.5590 C   0  0  0  0  0  0  0  0  0  0  0  0
   38.8170   19.5120   30.1690 H   0  0  0  0  0  0  0  0  0  0  0  0
   36.7530   19.9950   30.2900 C   0  0  0  0  0  0  0  0  0  0  0  0
   36.3990   18.9920   29.6130 O   0  0  0  0  0  0  0  0  0  0  0  0
   35.8540   20.8930   30.7850 N   0  0  0  0  0  0  0  0  0  0  0  0
   36.2150   21.9680   31.5100 C   0  0  0  0  0  0  0  0  0  0  0  0
   35.3130   22.7410   31.9250 O   0  0  0  0  0  0  0  0  0  0  0  0
   34.8500   20.6750   30.5520 H   0  0  0  0  0  0  0  0  0  0  0  0
  1  6  1  0  0  0  0
  2  1  2  0  0  0  0
  2  3  1  0  0  0  0
  3  4  2  0  0  0  0
  4  5  1  0  0  0  0
  5 11  1  0  0  0  0
  6  5  2  0  0  0  0
  7  2  1  0  0  0  0
  8  3  1  0  0  0  0
  9 10  1  0  0  0  0
 10 15  1  0  0  0  0
 11 10  2  0  0  0  0
 11 12  1  0  0  0  0
 12 13  2  0  0  0  0
 13 14  1  0  0  0  0
 13 17  1  0  0  0  0
 14 18  1  0  0  0  0
 15 19  1  0  0  0  0
 15 14  2  0  0  0  0
 16 12  1  0  0  0  0
 20  1  1  0  0  0  0
 21 20  1  0  0  0  0
 22 21  2  0  0  0  0
 23 22  1  0  0  0  0
 24 22  1  0  0  0  0
 24 26  1  0  0  0  0
 25 24  2  0  0  0  0
 26 27  1  0  0  0  0
 27 20  1  0  0  0  0
 27 28  2  0  0  0  0
 29 26  1  0  0  0  0
M  END
>  <minimizedAffinity>
-5.36119986

$$$$

 OpenBabel03272502203D

 29 31  0  0  0  0  0  0  0  0999 V2000
   35.3840   29.9290   32.8320 C   0  0  0  0  0  0  0  0  0  0  0  0
   35.7410   30.7460   31.7380 C   0  0  0  0  0  0  0  0  0  0  0  0
   36.2380   30.1130   30.6110 C   0  0  0  0  0  0  0  0  0  0  0  0
   36.3630   28.7460   30.6020 N   0  0  0  0  0  0  0  0  0  0  0  0
   36.0020   28.0000   31.6920 C   0  0  0  0  0  0  0  0  0  0  0  0
   35.5130   28.5910   32.8060 N   0  0  0  0  0  0  0  0  0  0  0  0
   35.6140   31.8160   31.8180 H   0  0  0  0  0  0  0  0  0  0  0  0
   36.5160   30.7190   29.7680 H   0  0  0  0  0  0  0  0  0  0  0  0
   38.6340   26.9880   33.0520 Br  0  0  0  0  0  0  0  0  0  0  0  0
   37.2410   25.9480   32.2450 C   0  0  0  0  0  0  0  0  0  0  0  0
   36.1340   26.5460   31.6830 C   0  0  0  0  0  0  0  0  0  0  0  0
   35.1830   25.7310   31.1250 C   0  0  0  0  0  0  0  0  0  0  0  0
   35.2700   24.3530   31.0970 C   0  0  0  0  0  0  0  0  0  0  0  0
   36.3880   23.7840   31.6670 C   0  0  0  0  0  0  0  0  0  0  0  0
   37.3610   24.5830   32.2350 C   0  0  0  0  0  0  0  0  0  0  0  0
   34.3310   26.2290   30.6950 H   0  0  0  0  0  0  0  0  0  0  0  0
   34.4890   23.7670   30.6450 H   0  0  0  0  0  0  0  0  0  0  0  0
   36.5060   22.7030   31.6710 H   0  0  0  0  0  0  0  0  0  0  0  0
   38.2460   24.1380   32.6860 H   0  0  0  0  0  0  0  0  0  0  0  0
   34.8630   30.4670   34.0400 N   0  0  0  0  0  0  0  0  0  0  0  0
   35.7300   30.9760   34.9480 C   0  0  0  0  0  3  0  0  0  0  0  0
   35.2520   31.5130   36.1470 C   0  0  0  0  0  0  0  0  0  0  0  0
   35.9140   31.9310   36.9030 H   0  0  0  0  0  0  0  0  0  0  0  0
   33.8930   31.5190   36.3960 C   0  0  0  0  0  0  0  0  0  0  0  0
   33.4450   31.9990   37.4720 O   0  0  0  0  0  0  0  0  0  0  0  0
   33.0780   30.9910   35.4400 N   0  0  0  0  0  0  0  0  0  0  0  0
   33.5410   30.4750   34.2860 C   0  0  0  0  0  0  0  0  0  0  0  0
   32.7100   30.0090   33.4620 O   0  0  0  0  0  0  0  0  0  0  0  0
   32.0530   31.0200   35.6780 H   0  0  0  0  0  0  0  0  0  0  0  0
  1 20  1  0  0  0  0
  2  7  1  0  0  0  0
  2  1  2  0  0  0  0
  3  2  1  0  0  0  0
  4  3  2  0  0  0  0
  4  5  1  0  0  0  0
  5  6  2  0  0  0  0
  6  1  1  0  0  0  0
  8  3  1  0  0  0  0
 10  9  1  0  0  0  0
 11  5  1  0  0  0  0
 11 10  2  0  0  0  0
 12 11  1  0  0  0  0
 13 12  2  0  0  0  0
 13 14  1  0  0  0  0
 14 18  1  0  0  0  0
 14 15  2  0  0  0  0
 15 10  1  0  0  0  0
 15 19  1  0  0  0  0
 16 12  1  0  0  0  0
 17 13  1  0  0  0  0
 20 27  1  0  0  0  0
 20 21  1  0  0  0  0
 21 22  2  0  0  0  0
 22 24  1  0  0  0  0
 22 23  1  0  0  0  0
 24 25  2  0  0  0  0
 26 29  1  0  0  0  0
 26 24  1  0  0  0  0
 27 26  1  0  0  0  0
 28 27  2  0  0  0  0
M  END
>  <minimizedAffinity>
-5.30959129

$$$$

 OpenBabel03272502203D

 29 31  0  0  0  0  0  0  0  0999 V2000
   35.6250   29.1320   34.0410 C   0  0  0  0  0  0  0  0  0  0  0  0
   35.2940   29.0950   32.6690 C   0  0  0  0  0  0  0  0  0  0  0  0
   35.8670   28.0900   31.9070 C   0  0  0  0  0  0  0  0  0  0  0  0
   36.7160   27.1900   32.5010 N   0  0  0  0  0  0  0  0  0  0  0  0
   37.0030   27.2710   33.8370 C   0  0  0  0  0  0  0  0  0  0  0  0
   36.4580   28.2410   34.6070 N   0  0  0  0  0  0  0  0  0  0  0  0
   34.6180   29.8390   32.2720 H   0  0  0  0  0  0  0  0  0  0  0  0
   35.6280   28.0470   30.8600 H   0  0  0  0  0  0  0  0  0  0  0  0
   39.8170   27.1340   32.4730 Br  0  0  0  0  0  0  0  0  0  0  0  0
   39.1820   26.1390   33.9820 C   0  0  0  0  0  0  0  0  0  0  0  0
   37.9050   26.3140   34.4700 C   0  0  0  0  0  0  0  0  0  0  0  0
   37.5280   25.5620   35.5530 C   0  0  0  0  0  0  0  0  0  0  0  0
   38.3510   24.6470   36.1800 C   0  0  0  0  0  0  0  0  0  0  0  0
   39.6210   24.4940   35.6690 C   0  0  0  0  0  0  0  0  0  0  0  0
   40.0260   25.2400   34.5790 C   0  0  0  0  0  0  0  0  0  0  0  0
   36.5250   25.7220   35.9100 H   0  0  0  0  0  0  0  0  0  0  0  0
   37.9960   24.0870   37.0280 H   0  0  0  0  0  0  0  0  0  0  0  0
   40.3090   23.7860   36.1260 H   0  0  0  0  0  0  0  0  0  0  0  0
   41.0290   25.1210   34.1730 H   0  0  0  0  0  0  0  0  0  0  0  0
   35.0980   30.1160   34.9200 N   0  0  0  0  0  0  0  0  0  0  0  0
   35.9470   31.0270   35.4540 C   0  0  0  0  0  3  0  0  0  0  0  0
   35.4620   32.0100   36.3230 C   0  0  0  0  0  0  0  0  0  0  0  0
   36.1110   32.7590   36.7740 H   0  0  0  0  0  0  0  0  0  0  0  0
   34.1160   32.0420   36.6320 C   0  0  0  0  0  0  0  0  0  0  0  0
   33.6630   32.9210   37.4130 O   0  0  0  0  0  0  0  0  0  0  0  0
   33.3190   31.0950   36.0590 N   0  0  0  0  0  0  0  0  0  0  0  0
   33.7880   30.1510   35.2220 C   0  0  0  0  0  0  0  0  0  0  0  0
   32.9750   29.3190   34.7430 O   0  0  0  0  0  0  0  0  0  0  0  0
   32.3030   31.1650   36.3260 H   0  0  0  0  0  0  0  0  0  0  0  0
  1  6  1  0  0  0  0
  1 20  1  0  0  0  0
  2  1  2  0  0  0  0
  3  4  2  0  0  0  0
  3  2  1  0  0  0  0
  4  5  1  0  0  0  0
  5 11  1  0  0  0  0
  5  6  2  0  0  0  0
  7  2  1  0  0  0  0
  8  3  1  0  0  0  0
  9 10  1  0  0  0  0
 10 11  2  0  0  0  0
 10 15  1  0  0  0  0
 11 12  1  0  0  0  0
 12 16  1  0  0  0  0
 12 13  2  0  0  0  0
 13 17  1  0  0  0  0
 14 18  1  0  0  0  0
 14 13  1  0  0  0  0
 15 14  2  0  0  0  0
 19 15  1  0  0  0  0
 20 27  1  0  0  0  0
 20 21  1  0  0  0  0
 21 22  2  0  0  0  0
 22 24  1  0  0  0  0
 22 23  1  0  0  0  0
 24 25  2  0  0  0  0
 26 29  1  0  0  0  0
 26 24  1  0  0  0  0
 27 26  1  0  0  0  0
 28 27  2  0  0  0  0
M  END
>  <minimizedAffinity>
-5.24455976

$$$$

 OpenBabel03272502203D

 29 31  0  0  0  0  0  0  0  0999 V2000
   37.8450   23.4440   33.1880 C   0  0  0  0  0  0  0  0  0  0  0  0
   37.3140   22.4450   32.3440 C   0  0  0  0  0  0  0  0  0  0  0  0
   36.6540   22.8680   31.2010 C   0  0  0  0  0  0  0  0  0  0  0  0
   36.5440   24.2100   30.9400 N   0  0  0  0  0  0  0  0  0  0  0  0
   37.0790   25.1390   31.7930 C   0  0  0  0  0  0  0  0  0  0  0  0
   37.7280   24.7560   32.9160 N   0  0  0  0  0  0  0  0  0  0  0  0
   37.4390   21.4070   32.6150 H   0  0  0  0  0  0  0  0  0  0  0  0
   36.2420   22.1220   30.5460 H   0  0  0  0  0  0  0  0  0  0  0  0
   39.4600   26.2670   30.1040 Br  0  0  0  0  0  0  0  0  0  0  0  0
   37.9360   27.2110   30.7820 C   0  0  0  0  0  0  0  0  0  0  0  0
   36.9630   26.5670   31.5160 C   0  0  0  0  0  0  0  0  0  0  0  0
   35.9050   27.3140   31.9650 C   0  0  0  0  0  0  0  0  0  0  0  0
   35.7580   28.6660   31.7240 C   0  0  0  0  0  0  0  0  0  0  0  0
   36.7470   29.2810   30.9870 C   0  0  0  0  0  0  0  0  0  0  0  0
   37.8230   28.5510   30.5230 C   0  0  0  0  0  0  0  0  0  0  0  0
   35.1620   26.7820   32.5360 H   0  0  0  0  0  0  0  0  0  0  0  0
   34.9030   29.1970   32.1040 H   0  0  0  0  0  0  0  0  0  0  0  0
   36.6800   30.3450   30.7690 H   0  0  0  0  0  0  0  0  0  0  0  0
   38.6070   29.0340   29.9410 H   0  0  0  0  0  0  0  0  0  0  0  0
   38.5410   23.1300   34.3860 N   0  0  0  0  0  0  0  0  0  0  0  0
   39.7280   23.7400   34.6230 C   0  0  0  0  0  3  0  0  0  0  0  0
   40.4400   23.4550   35.7920 C   0  0  0  0  0  0  0  0  0  0  0  0
   41.3970   23.9220   36.0190 H   0  0  0  0  0  0  0  0  0  0  0  0
   39.9250   22.5490   36.6990 C   0  0  0  0  0  0  0  0  0  0  0  0
   40.5550   22.2810   37.7570 O   0  0  0  0  0  0  0  0  0  0  0  0
   38.7270   21.9730   36.3980 N   0  0  0  0  0  0  0  0  0  0  0  0
   38.0430   22.2500   35.2720 C   0  0  0  0  0  0  0  0  0  0  0  0
   36.9440   21.6670   35.0810 O   0  0  0  0  0  0  0  0  0  0  0  0
   38.3790   21.2920   37.1210 H   0  0  0  0  0  0  0  0  0  0  0  0
  1 20  1  0  0  0  0
  2  7  1  0  0  0  0
  2  1  2  0  0  0  0
  3  2  1  0  0  0  0
  4  3  2  0  0  0  0
  4  5  1  0  0  0  0
  5  6  2  0  0  0  0
  6  1  1  0  0  0  0
  8  3  1  0  0  0  0
  9 10  1  0  0  0  0
 10 11  1  0  0  0  0
 11  5  1  0  0  0  0
 11 12  2  0  0  0  0
 12 16  1  0  0  0  0
 13 12  1  0  0  0  0
 13 17  1  0  0  0  0
 14 13  2  0  0  0  0
 15 10  2  0  0  0  0
 15 14  1  0  0  0  0
 18 14  1  0  0  0  0
 19 15  1  0  0  0  0
 20 21  1  0  0  0  0
 20 27  1  0  0  0  0
 21 22  2  0  0  0  0
 22 23  1  0  0  0  0
 22 24  1  0  0  0  0
 24 25  2  0  0  0  0
 26 24  1  0  0  0  0
 26 29  1  0  0  0  0
 27 26  1  0  0  0  0
 28 27  2  0  0  0  0
M  END
>  <minimizedAffinity>
-5.19541311

$$$$

 OpenBabel03272502203D

 29 31  0  0  0  0  0  0  0  0999 V2000
   37.8330   27.5270   31.9990 C   0  0  0  0  0  0  0  0  0  0  0  0
   38.9670   27.4590   31.1600 C   0  0  0  0  0  0  0  0  0  0  0  0
   39.8920   26.4630   31.4270 C   0  0  0  0  0  0  0  0  0  0  0  0
   39.6770   25.6010   32.4730 N   0  0  0  0  0  0  0  0  0  0  0  0
   38.5590   25.7120   33.2560 C   0  0  0  0  0  0  0  0  0  0  0  0
   37.6380   26.6740   33.0190 N   0  0  0  0  0  0  0  0  0  0  0  0
   39.0690   28.1730   30.3550 H   0  0  0  0  0  0  0  0  0  0  0  0
   40.7620   26.3960   30.8000 H   0  0  0  0  0  0  0  0  0  0  0  0
   38.5240   27.1340   36.0450 Br  0  0  0  0  0  0  0  0  0  0  0  0
   38.2850   25.2710   35.6610 C   0  0  0  0  0  0  0  0  0  0  0  0
   38.3280   24.7950   34.3680 C   0  0  0  0  0  0  0  0  0  0  0  0
   38.1490   23.4490   34.1790 C   0  0  0  0  0  0  0  0  0  0  0  0
   37.9280   22.5490   35.2030 C   0  0  0  0  0  0  0  0  0  0  0  0
   37.8910   23.0560   36.4840 C   0  0  0  0  0  0  0  0  0  0  0  0
   38.0680   24.4080   36.7020 C   0  0  0  0  0  0  0  0  0  0  0  0
   38.1880   23.1080   33.1580 H   0  0  0  0  0  0  0  0  0  0  0  0
   37.7940   21.5030   34.9900 H   0  0  0  0  0  0  0  0  0  0  0  0
   37.7200   22.3900   37.3270 H   0  0  0  0  0  0  0  0  0  0  0  0
   38.0400   24.8120   37.7130 H   0  0  0  0  0  0  0  0  0  0  0  0
   36.8180   28.5060   31.8200 N   0  0  0  0  0  0  0  0  0  0  0  0
   36.1800   28.9820   32.9160 C   0  0  0  0  0  3  0  0  0  0  0  0
   35.1760   29.9460   32.7780 C   0  0  0  0  0  0  0  0  0  0  0  0
   34.6390   30.3530   33.6320 H   0  0  0  0  0  0  0  0  0  0  0  0
   34.8420   30.4040   31.5180 C   0  0  0  0  0  0  0  0  0  0  0  0
   33.9390   31.2720   31.3750 O   0  0  0  0  0  0  0  0  0  0  0  0
   35.5240   29.8810   30.4590 N   0  0  0  0  0  0  0  0  0  0  0  0
   36.4900   28.9550   30.5960 C   0  0  0  0  0  0  0  0  0  0  0  0
   37.0650   28.5310   29.5590 O   0  0  0  0  0  0  0  0  0  0  0  0
   35.2310   30.2640   29.5240 H   0  0  0  0  0  0  0  0  0  0  0  0
  1  6  1  0  0  0  0
  2  3  1  0  0  0  0
  2  1  2  0  0  0  0
  3  4  2  0  0  0  0
  4  5  1  0  0  0  0
  5 11  1  0  0  0  0
  6  5  2  0  0  0  0
  7  2  1  0  0  0  0
  8  3  1  0  0  0  0
 10  9  1  0  0  0  0
 10 15  1  0  0  0  0
 11 10  2  0  0  0  0
 12 11  1  0  0  0  0
 12 13  2  0  0  0  0
 13 14  1  0  0  0  0
 14 15  2  0  0  0  0
 14 18  1  0  0  0  0
 15 19  1  0  0  0  0
 16 12  1  0  0  0  0
 17 13  1  0  0  0  0
 20  1  1  0  0  0  0
 20 21  1  0  0  0  0
 22 21  2  0  0  0  0
 22 23  1  0  0  0  0
 24 22  1  0  0  0  0
 25 24  2  0  0  0  0
 26 27  1  0  0  0  0
 26 24  1  0  0  0  0
 27 20  1  0  0  0  0
 28 27  2  0  0  0  0
 29 26  1  0  0  0  0
M  END
>  <minimizedAffinity>
-5.16113997

$$$$
