
 OpenBabel03272506443D

 33 35  0  0  1  0  0  0  0  0999 V2000
   32.3930   28.3670   47.4800 C   0  0  2  0  0  0  0  0  0  0  0  0
   33.6290   28.4290   48.3640 C   0  0  1  0  0  0  0  0  0  0  0  0
   34.1830   27.1840   48.4020 O   0  0  0  0  0  0  0  0  0  0  0  0
   33.5560   26.3800   47.4760 C   0  0  0  0  0  0  0  0  0  0  0  0
   32.8670   27.3240   46.4760 C   0  0  1  0  0  0  0  0  0  0  0  0
   31.5420   27.9850   48.0610 H   0  0  0  0  0  0  0  0  0  0  0  0
   33.3660   28.8580   49.3400 H   0  0  0  0  0  0  0  0  0  0  0  0
   34.2470   25.6810   46.9860 H   0  0  0  0  0  0  0  0  0  0  0  0
   32.7250   25.8590   48.0100 H   0  0  0  0  0  0  0  0  0  0  0  0
   33.6640   27.7470   45.8690 H   0  0  0  0  0  0  0  0  0  0  0  0
   32.1420   29.5970   46.8800 O   0  0  0  0  0  0  0  0  0  0  0  0
   32.8300   29.7360   46.1810 H   0  0  0  0  0  0  0  0  0  0  0  0
   34.8080   29.5520   47.5220 S   0  0  0  0  0  0  0  0  0  0  0  0
   37.3900   29.4770   50.5310 C   0  0  0  0  0  0  0  0  0  0  0  0
   37.9960   30.7370   50.5150 C   0  0  0  0  0  0  0  0  0  0  0  0
   37.5830   31.6530   49.5230 C   0  0  0  0  0  0  0  0  0  0  0  0
   36.6300   31.2600   48.6490 N   0  0  0  0  0  0  0  0  0  0  0  0
   36.0640   30.0350   48.6920 C   0  0  0  0  0  0  0  0  0  0  0  0
   36.4380   29.1460   49.6240 N   0  0  0  0  0  0  0  0  0  0  0  0
   37.6700   28.7400   51.2700 H   0  0  0  0  0  0  0  0  0  0  0  0
   38.7430   30.9960   51.2260 H   0  0  0  0  0  0  0  0  0  0  0  0
   38.0260   32.6410   49.4710 H   0  0  0  0  0  0  0  0  0  0  0  0
   31.8360   26.6690   45.8520 O   0  0  0  0  0  0  0  0  0  0  0  0
   31.3400   28.2140   41.6360 H   0  0  0  0  0  0  0  0  0  0  0  0
   31.4330   27.3990   42.2630 N   0  0  0  0  0  0  0  0  0  0  0  0
   31.5610   27.6910   43.5640 C   0  0  0  0  0  3  0  0  0  0  0  0
   31.6900   26.6640   44.4730 C   0  0  0  0  0  0  0  0  0  0  0  0
   31.6840   25.3460   44.0130 C   0  0  0  0  0  0  0  0  0  0  0  0
   31.7900   24.2860   44.6910 O   0  0  0  0  0  0  0  0  0  0  0  0
   31.5520   25.0660   42.6840 N   0  0  0  0  0  0  0  0  0  0  0  0
   31.4270   26.1130   41.8170 C   0  0  0  0  0  0  0  0  0  0  0  0
   31.3010   25.9370   40.5810 O   0  0  0  0  0  0  0  0  0  0  0  0
   31.5380   24.1290   42.2660 H   0  0  0  0  0  0  0  0  0  0  0  0
  1  6  1  1  0  0  0
  1  2  1  0  0  0  0
  2  3  1  0  0  0  0
  2  7  1  1  0  0  0
  4  9  1  0  0  0  0
  4  3  1  0  0  0  0
  5 10  1  6  0  0  0
  5  4  1  0  0  0  0
  5  1  1  0  0  0  0
  8  4  1  0  0  0  0
 11  1  1  0  0  0  0
 12 11  1  0  0  0  0
 13  2  1  0  0  0  0
 13 18  1  0  0  0  0
 14 20  1  0  0  0  0
 15 14  1  0  0  0  0
 15 21  1  0  0  0  0
 16 15  2  0  0  0  0
 17 18  2  0  0  0  0
 17 16  1  0  0  0  0
 18 19  1  0  0  0  0
 19 14  2  0  0  0  0
 22 16  1  0  0  0  0
 23  5  1  0  0  0  0
 24 25  1  0  0  0  0
 25 26  1  0  0  0  0
 26 27  2  0  0  0  0
 27 23  1  0  0  0  0
 28 27  1  0  0  0  0
 28 29  2  0  0  0  0
 30 28  1  0  0  0  0
 31 25  1  0  0  0  0
 31 30  1  0  0  0  0
 32 31  2  0  0  0  0
 33 30  1  0  0  0  0
M  END
>  <minimizedAffinity>
-3.735816

>  <minimizedRMSD>
0.167220503

$$$$
