
 OpenBabel03272503063D

 33 35  0  0  0  0  0  0  0  0999 V2000
   38.5290   30.4290   47.3610 F   0  0  0  0  0  0  0  0  0  0  0  0
   38.7710   31.6650   47.8330 C   0  0  0  0  0  0  0  0  0  0  0  0
   38.1700   32.0770   48.9890 C   0  0  0  0  0  0  0  0  0  0  0  0
   38.4590   33.3520   49.4220 C   0  0  0  0  0  0  0  0  0  0  0  0
   39.3120   34.1990   48.7430 C   0  0  0  0  0  0  0  0  0  0  0  0
   39.9120   33.7670   47.5770 C   0  0  0  0  0  0  0  0  0  0  0  0
   39.6300   32.4930   47.1340 C   0  0  0  0  0  0  0  0  0  0  0  0
   37.9820   33.6860   50.3430 H   0  0  0  0  0  0  0  0  0  0  0  0
   39.5310   35.2000   49.0940 H   0  0  0  0  0  0  0  0  0  0  0  0
   40.5830   34.3730   47.0030 H   0  0  0  0  0  0  0  0  0  0  0  0
   36.7580   29.5880   51.4550 C   0  0  0  0  0  0  0  0  0  0  0  0
   37.6500   30.4720   50.8240 C   0  0  0  0  0  0  0  0  0  0  0  0
   37.2780   31.1540   49.6730 C   0  0  0  0  0  0  0  0  0  0  0  0
   36.0130   30.9260   49.1850 N   0  0  0  0  0  0  0  0  0  0  0  0
   35.1730   30.0750   49.8040 C   0  0  0  0  0  0  0  0  0  0  0  0
   35.5320   29.4210   50.9110 N   0  0  0  0  0  0  0  0  0  0  0  0
   37.0650   29.0650   52.3530 H   0  0  0  0  0  0  0  0  0  0  0  0
   38.6190   30.6150   51.2400 H   0  0  0  0  0  0  0  0  0  0  0  0
   34.2120   29.9940   49.3110 H   0  0  0  0  0  0  0  0  0  0  0  0
   39.4140   32.0890   44.7550 C   0  0  0  0  0  0  0  0  0  0  0  0
   38.2650   32.6190   44.9910 O   0  0  0  0  0  0  0  0  0  0  0  0
   40.2240   31.9950   45.9170 N   0  0  0  0  0  0  0  0  0  0  0  0
   41.1610   31.5910   45.8410 H   0  0  0  0  0  0  0  0  0  0  0  0
   41.3890   29.0730   42.0990 H   0  0  0  0  0  0  0  0  0  0  0  0
   40.8580   29.9690   42.1250 N   0  0  0  0  0  0  0  0  0  0  0  0
   40.4800   30.4630   43.3150 C   0  0  0  0  0  0  0  0  0  0  0  0
   39.7620   31.6620   43.4200 C   0  0  0  0  0  0  0  0  0  0  0  0
   39.5030   32.2500   42.2020 C   0  0  0  0  0  0  0  0  0  0  0  0
   38.8730   33.3100   42.2420 O   0  0  0  0  0  0  0  0  0  0  0  0
   39.8870   31.7440   41.0200 N   0  0  0  0  0  0  0  0  0  0  0  0
   40.5730   30.5900   40.9670 C   0  0  0  0  0  0  0  0  0  0  0  0
   40.9550   30.0750   39.9010 O   0  0  0  0  0  0  0  0  0  0  0  0
   39.6430   32.2630   40.1540 H   0  0  0  0  0  0  0  0  0  0  0  0
  1  2  1  0  0  0  0
  2  3  1  0  0  0  0
  3  4  2  0  0  0  0
  3 13  1  0  0  0  0
  4  8  1  0  0  0  0
  5  9  1  0  0  0  0
  5  4  1  0  0  0  0
  6  5  2  0  0  0  0
  7  6  1  0  0  0  0
  7  2  2  0  0  0  0
 10  6  1  0  0  0  0
 11 17  1  0  0  0  0
 12 18  1  0  0  0  0
 12 11  2  0  0  0  0
 13 12  1  0  0  0  0
 14 13  2  0  0  0  0
 14 15  1  0  0  0  0
 15 16  2  0  0  0  0
 16 11  1  0  0  0  0
 19 15  1  0  0  0  0
 20 21  2  0  0  0  0
 20 22  1  0  0  0  0
 22  7  1  0  0  0  0
 23 22  1  0  0  0  0
 24 25  1  0  0  0  0
 25 26  1  0  0  0  0
 26 27  2  0  0  0  0
 27 20  1  0  0  0  0
 28 29  2  0  0  0  0
 28 27  1  0  0  0  0
 30 28  1  0  0  0  0
 31 30  1  0  0  0  0
 31 25  1  0  0  0  0
 32 31  2  0  0  0  0
 33 30  1  0  0  0  0
M  END
>  <minimizedAffinity>
-6.94526148

>  <minimizedRMSD>
0.399767518

$$$$
