
 OpenBabel03272504423D

 46 48  0  0  0  0  0  0  0  0999 V2000
   34.7310   29.3540   48.7560 C   0  0  0  0  0  0  0  0  0  0  0  0
   35.6390   29.3380   49.4060 H   0  0  0  0  0  0  0  0  0  0  0  0
   34.1260   30.2010   49.1950 H   0  0  0  0  0  0  0  0  0  0  0  0
   37.4950   30.4180   48.4990 Cl  0  0  0  0  0  0  0  0  0  0  0  0
   36.3660   30.2690   47.1460 C   0  0  0  0  0  0  0  0  0  0  0  0
   36.7520   30.6540   45.9110 C   0  0  0  0  0  0  0  0  0  0  0  0
   35.8790   30.5400   44.8530 C   0  0  0  0  0  0  0  0  0  0  0  0
   34.6110   30.0260   45.0840 C   0  0  0  0  0  0  0  0  0  0  0  0
   34.2770   29.6450   46.3970 C   0  0  0  0  0  0  0  0  0  0  0  0
   35.1200   29.7510   47.4370 C   0  0  0  0  0  0  0  0  0  0  0  0
   36.2140   30.8600   43.8570 H   0  0  0  0  0  0  0  0  0  0  0  0
   34.0060   29.9790   44.1910 H   0  0  0  0  0  0  0  0  0  0  0  0
   33.3060   29.2990   46.3560 H   0  0  0  0  0  0  0  0  0  0  0  0
   39.7380   32.8210   46.0280 C   0  0  0  0  0  0  0  0  0  0  0  0
   40.6180   32.1030   45.1520 C   0  0  0  0  0  0  0  0  0  0  0  0
   40.1480   30.9100   44.5630 C   0  0  0  0  0  0  0  0  0  0  0  0
   38.8870   30.4940   44.8470 N   0  0  0  0  0  0  0  0  0  0  0  0
   38.0820   31.1950   45.6790 C   0  0  0  0  0  0  0  0  0  0  0  0
   38.5120   32.3330   46.2500 N   0  0  0  0  0  0  0  0  0  0  0  0
   40.1380   33.7230   46.4540 H   0  0  0  0  0  0  0  0  0  0  0  0
   41.6110   32.4780   44.9590 H   0  0  0  0  0  0  0  0  0  0  0  0
   41.0360   30.2380   43.7140 N   0  0  0  0  0  0  0  0  0  0  0  0
   41.9920   29.9150   43.9540 H   0  0  0  0  0  0  0  0  0  0  0  0
   40.5400   30.1350   42.7980 H   0  0  0  0  0  0  0  0  0  0  0  0
   34.0080   28.1030   48.9690 C   0  0  0  0  0  0  0  0  0  0  0  0
   34.4500   27.4460   49.7700 H   0  0  0  0  0  0  0  0  0  0  0  0
   34.0630   27.4770   48.0390 H   0  0  0  0  0  0  0  0  0  0  0  0
   32.6990   28.3200   49.3050 O   0  0  0  0  0  0  0  0  0  0  0  0
   32.4490   26.6870   47.2640 O   0  0  0  0  0  0  0  0  0  0  0  0
   31.6810   27.4850   48.2870 P   0  0  2  0  0  0  0  0  0  0  0  0
   30.7210   28.6840   47.4830 O   0  0  0  0  0  0  0  0  0  0  0  0
   28.6240   26.2400   44.4700 H   0  0  0  0  0  0  0  0  0  0  0  0
   29.1410   27.1280   44.6850 N   0  0  0  0  0  0  0  0  0  0  0  0
   29.6200   27.3830   45.9350 C   0  0  0  0  0  3  0  0  0  0  0  0
   30.3060   28.5780   46.1810 C   0  0  0  0  0  0  0  0  0  0  0  0
   30.4610   29.4410   45.1350 C   0  0  0  0  0  0  0  0  0  0  0  0
   31.0830   30.4920   45.4240 O   0  0  0  0  0  0  0  0  0  0  0  0
   29.9890   29.1870   43.9060 N   0  0  0  0  0  0  0  0  0  0  0  0
   29.3250   28.0230   43.6820 C   0  0  0  0  0  0  0  0  0  0  0  0
   28.8980   27.8200   42.5170 O   0  0  0  0  0  0  0  0  0  0  0  0
   30.1350   29.8820   43.1400 H   0  0  0  0  0  0  0  0  0  0  0  0
   30.6120   26.5020   49.0770 O   0  0  0  0  0  0  0  0  0  0  0  0
   29.7250   27.2410   49.8280 C   0  0  0  0  0  0  0  0  0  0  0  0
   29.3060   26.5660   50.9730 F   0  0  0  0  0  0  0  0  0  0  0  0
   30.2910   28.4140   50.2800 F   0  0  0  0  0  0  0  0  0  0  0  0
   28.5990   27.5340   49.0630 F   0  0  0  0  0  0  0  0  0  0  0  0
  1 25  1  0  0  0  0
  1  3  1  0  0  0  0
  1  2  1  0  0  0  0
  5 10  1  0  0  0  0
  5  4  1  0  0  0  0
  6  5  2  0  0  0  0
  7  8  2  0  0  0  0
  7  6  1  0  0  0  0
  8  9  1  0  0  0  0
  9 10  2  0  0  0  0
 10  1  1  0  0  0  0
 11  7  1  0  0  0  0
 12  8  1  0  0  0  0
 13  9  1  0  0  0  0
 14 19  1  0  0  0  0
 14 20  1  0  0  0  0
 15 14  2  0  0  0  0
 16 17  2  0  0  0  0
 16 15  1  0  0  0  0
 17 18  1  0  0  0  0
 18  6  1  0  0  0  0
 18 19  2  0  0  0  0
 21 15  1  0  0  0  0
 22 23  1  0  0  0  0
 22 16  1  0  0  0  0
 24 22  1  0  0  0  0
 25 28  1  0  0  0  0
 25 26  1  0  0  0  0
 27 25  1  0  0  0  0
 30 29  2  6  0  0  0
 30 42  1  0  0  0  0
 30 28  1  0  0  0  0
 31 30  1  0  0  0  0
 32 33  1  0  0  0  0
 33 34  1  0  0  0  0
 34 35  2  0  0  0  0
 35 31  1  0  0  0  0
 36 37  2  0  0  0  0
 36 35  1  0  0  0  0
 38 36  1  0  0  0  0
 39 38  1  0  0  0  0
 39 33  1  0  0  0  0
 40 39  2  0  0  0  0
 41 38  1  0  0  0  0
 42 43  1  0  0  0  0
 43 45  1  0  0  0  0
 43 44  1  0  0  0  0
 46 43  1  0  0  0  0
M  END
>  <minimizedAffinity>
-5.75735569

>  <minimizedRMSD>
0.673354626

$$$$
