
 OpenBabel03272506443D

 33 35  0  0  1  0  0  0  0  0999 V2000
   32.3970   28.3590   47.4790 C   0  0  2  0  0  0  0  0  0  0  0  0
   33.6300   28.4310   48.3660 C   0  0  1  0  0  0  0  0  0  0  0  0
   34.1920   27.1890   48.4080 O   0  0  0  0  0  0  0  0  0  0  0  0
   33.5730   26.3810   47.4830 C   0  0  0  0  0  0  0  0  0  0  0  0
   32.8800   27.3180   46.4780 C   0  0  1  0  0  0  0  0  0  0  0  0
   31.5470   27.9720   48.0580 H   0  0  0  0  0  0  0  0  0  0  0  0
   33.3610   28.8600   49.3420 H   0  0  0  0  0  0  0  0  0  0  0  0
   34.2690   25.6850   46.9960 H   0  0  0  0  0  0  0  0  0  0  0  0
   32.7440   25.8550   48.0140 H   0  0  0  0  0  0  0  0  0  0  0  0
   33.6760   27.7440   45.8730 H   0  0  0  0  0  0  0  0  0  0  0  0
   32.1390   29.5870   46.8760 O   0  0  0  0  0  0  0  0  0  0  0  0
   32.8290   29.7290   46.1790 H   0  0  0  0  0  0  0  0  0  0  0  0
   34.8040   29.5610   47.5270 S   0  0  0  0  0  0  0  0  0  0  0  0
   37.3900   29.4800   50.5320 C   0  0  0  0  0  0  0  0  0  0  0  0
   37.9980   30.7380   50.5150 C   0  0  0  0  0  0  0  0  0  0  0  0
   37.5860   31.6550   49.5240 C   0  0  0  0  0  0  0  0  0  0  0  0
   36.6310   31.2640   48.6520 N   0  0  0  0  0  0  0  0  0  0  0  0
   36.0630   30.0410   48.6950 C   0  0  0  0  0  0  0  0  0  0  0  0
   36.4350   29.1510   49.6260 N   0  0  0  0  0  0  0  0  0  0  0  0
   37.6690   28.7420   51.2710 H   0  0  0  0  0  0  0  0  0  0  0  0
   38.7470   30.9950   51.2260 H   0  0  0  0  0  0  0  0  0  0  0  0
   38.0310   32.6420   49.4720 H   0  0  0  0  0  0  0  0  0  0  0  0
   31.8560   26.6550   45.8520 O   0  0  0  0  0  0  0  0  0  0  0  0
   31.4260   27.8600   41.5200 H   0  0  0  0  0  0  0  0  0  0  0  0
   31.5660   27.1020   42.2070 N   0  0  0  0  0  0  0  0  0  0  0  0
   31.5990   27.4910   43.4880 C   0  0  0  0  0  3  0  0  0  0  0  0
   31.7810   26.5440   44.4720 C   0  0  0  0  0  0  0  0  0  0  0  0
   31.9260   25.2040   44.1060 C   0  0  0  0  0  0  0  0  0  0  0  0
   32.1000   24.2080   44.8630 O   0  0  0  0  0  0  0  0  0  0  0  0
   31.8890   24.8260   42.7960 N   0  0  0  0  0  0  0  0  0  0  0  0
   31.7060   25.7950   41.8530 C   0  0  0  0  0  0  0  0  0  0  0  0
   31.6610   25.5260   40.6290 O   0  0  0  0  0  0  0  0  0  0  0  0
   31.9870   23.8660   42.4450 H   0  0  0  0  0  0  0  0  0  0  0  0
  1  6  1  1  0  0  0
  1  2  1  0  0  0  0
  2  3  1  0  0  0  0
  2  7  1  1  0  0  0
  4  9  1  0  0  0  0
  4  3  1  0  0  0  0
  5 10  1  6  0  0  0
  5  1  1  0  0  0  0
  5  4  1  0  0  0  0
  8  4  1  0  0  0  0
 11  1  1  0  0  0  0
 12 11  1  0  0  0  0
 13  2  1  0  0  0  0
 13 18  1  0  0  0  0
 14 20  1  0  0  0  0
 15 14  1  0  0  0  0
 15 21  1  0  0  0  0
 16 15  2  0  0  0  0
 17 18  2  0  0  0  0
 17 16  1  0  0  0  0
 18 19  1  0  0  0  0
 19 14  2  0  0  0  0
 22 16  1  0  0  0  0
 23  5  1  0  0  0  0
 24 25  1  0  0  0  0
 25 26  1  0  0  0  0
 26 27  2  0  0  0  0
 27 23  1  0  0  0  0
 28 27  1  0  0  0  0
 28 29  2  0  0  0  0
 30 28  1  0  0  0  0
 31 25  1  0  0  0  0
 31 30  1  0  0  0  0
 32 31  2  0  0  0  0
 33 30  1  0  0  0  0
M  END
>  <minimizedAffinity>
-3.73613811

>  <minimizedRMSD>
0.107112564

$$$$
