
 OpenBabel03272508283D

 39 42  0  0  1  0  0  0  0  0999 V2000
   33.6100   28.9060   47.1740 C   0  0  2  0  0  0  0  0  0  0  0  0
   34.3450   28.0500   48.1980 C   0  0  2  0  0  0  0  0  0  0  0  0
   33.4370   27.8130   49.1950 O   0  0  0  0  0  0  0  0  0  0  0  0
   32.1600   27.9300   48.7280 C   0  0  0  0  0  0  0  0  0  0  0  0
   32.2290   28.2410   47.2440 C   0  0  1  0  0  0  0  0  0  0  0  0
   33.4640   29.9440   47.4950 H   0  0  0  0  0  0  0  0  0  0  0  0
   34.6340   27.1310   47.6550 H   0  0  0  0  0  0  0  0  0  0  0  0
   31.6640   28.7500   49.2970 H   0  0  0  0  0  0  0  0  0  0  0  0
   31.6520   26.9530   48.9060 H   0  0  0  0  0  0  0  0  0  0  0  0
   32.3050   27.2840   46.7140 H   0  0  0  0  0  0  0  0  0  0  0  0
   35.4520   30.2720   48.9340 C   0  0  1  0  0  0  0  0  0  0  0  0
   35.5080   28.8500   48.6880 C   0  0  1  0  0  0  0  0  0  0  0  0
   35.6110   29.2940   50.1110 C   0  0  0  0  0  0  0  0  0  0  0  0
   34.5620   30.9100   49.0640 H   0  0  0  0  0  0  0  0  0  0  0  0
   36.4860   28.4770   48.2630 H   0  0  0  0  0  0  0  0  0  0  0  0
   36.5770   29.2520   50.6410 H   0  0  0  0  0  0  0  0  0  0  0  0
   34.7140   29.1110   50.7320 H   0  0  0  0  0  0  0  0  0  0  0  0
   36.6900   31.1410   48.7540 C   0  0  0  0  0  0  0  0  0  0  0  0
   36.9160   32.1280   49.7170 C   0  0  0  0  0  0  0  0  0  0  0  0
   38.0430   32.9070   49.4950 C   0  0  0  0  0  0  0  0  0  0  0  0
   38.8480   32.7000   48.4080 N   0  0  0  0  0  0  0  0  0  0  0  0
   38.5830   31.7260   47.5000 C   0  0  0  0  0  0  0  0  0  0  0  0
   37.4910   30.9380   47.6750 N   0  0  0  0  0  0  0  0  0  0  0  0
   36.2520   32.2400   50.5430 H   0  0  0  0  0  0  0  0  0  0  0  0
   38.2660   33.6870   50.2120 H   0  0  0  0  0  0  0  0  0  0  0  0
   39.2480   31.6100   46.6670 H   0  0  0  0  0  0  0  0  0  0  0  0
   34.1360   28.8390   45.9060 O   0  0  0  0  0  0  0  0  0  0  0  0
   34.7450   28.0770   45.7380 H   0  0  0  0  0  0  0  0  0  0  0  0
   31.2380   29.0590   46.8000 O   0  0  0  0  0  0  0  0  0  0  0  0
   28.8390   27.2160   43.4500 H   0  0  0  0  0  0  0  0  0  0  0  0
   28.7830   27.6400   44.4210 N   0  0  0  0  0  0  0  0  0  0  0  0
   30.0060   28.0060   44.8420 C   0  0  0  0  0  3  0  0  0  0  0  0
   30.1550   28.5820   46.0860 C   0  0  0  0  0  0  0  0  0  0  0  0
   29.0000   28.7580   46.8600 C   0  0  0  0  0  0  0  0  0  0  0  0
   28.8990   29.2570   48.0120 O   0  0  0  0  0  0  0  0  0  0  0  0
   27.7810   28.3690   46.3870 N   0  0  0  0  0  0  0  0  0  0  0  0
   27.6790   27.8110   45.1680 C   0  0  0  0  0  0  0  0  0  0  0  0
   26.6170   27.4140   44.6230 O   0  0  0  0  0  0  0  0  0  0  0  0
   26.8800   28.4640   46.8960 H   0  0  0  0  0  0  0  0  0  0  0  0
  1  5  1  0  0  0  0
  1  6  1  1  0  0  0
  1  2  1  0  0  0  0
  2  7  1  6  0  0  0
  2 12  1  0  0  0  0
  2  3  1  0  0  0  0
  4  9  1  0  0  0  0
  4  3  1  0  0  0  0
  4  8  1  0  0  0  0
  5 10  1  6  0  0  0
  5  4  1  0  0  0  0
 11 14  1  6  0  0  0
 11 13  1  0  0  0  0
 12 15  1  6  0  0  0
 12 11  1  0  0  0  0
 12 13  1  0  0  0  0
 13 16  1  0  0  0  0
 13 17  1  0  0  0  0
 18 11  1  0  0  0  0
 18 19  1  0  0  0  0
 19 24  1  0  0  0  0
 20 19  2  0  0  0  0
 20 25  1  0  0  0  0
 21 20  1  0  0  0  0
 22 23  1  0  0  0  0
 22 21  2  0  0  0  0
 23 18  2  0  0  0  0
 26 22  1  0  0  0  0
 27  1  1  0  0  0  0
 28 27  1  0  0  0  0
 29  5  1  0  0  0  0
 30 31  1  0  0  0  0
 31 32  1  0  0  0  0
 31 37  1  0  0  0  0
 32 33  2  0  0  0  0
 33 29  1  0  0  0  0
 33 34  1  0  0  0  0
 34 35  2  0  0  0  0
 36 34  1  0  0  0  0
 36 39  1  0  0  0  0
 37 36  1  0  0  0  0
 38 37  2  0  0  0  0
M  END
>  <minimizedAffinity>
-5.37686348

>  <minimizedRMSD>
1.45101488

$$$$
