
 OpenBabel03272505093D

 30 32  0  0  0  0  0  0  0  0999 V2000
   35.7080   30.5520   46.2200 Cl  0  0  0  0  0  0  0  0  0  0  0  0
   36.0910   30.0550   47.8500 C   0  0  0  0  0  0  0  0  0  0  0  0
   37.3490   30.3390   48.3030 C   0  0  0  0  0  0  0  0  0  0  0  0
   37.6790   29.9500   49.6040 C   0  0  0  0  0  0  0  0  0  0  0  0
   36.7450   29.3050   50.3770 C   0  0  0  0  0  0  0  0  0  0  0  0
   35.4900   29.0530   49.8470 C   0  0  0  0  0  0  0  0  0  0  0  0
   35.1040   29.4090   48.5760 C   0  0  0  0  0  0  0  0  0  0  0  0
   38.6680   30.1620   49.9860 H   0  0  0  0  0  0  0  0  0  0  0  0
   36.9930   29.0010   51.3850 H   0  0  0  0  0  0  0  0  0  0  0  0
   34.7600   28.5400   50.4750 H   0  0  0  0  0  0  0  0  0  0  0  0
   39.4880   33.0020   46.9950 C   0  0  0  0  0  0  0  0  0  0  0  0
   40.1290   32.4180   45.8930 C   0  0  0  0  0  0  0  0  0  0  0  0
   39.8050   31.0940   45.6170 C   0  0  0  0  0  0  0  0  0  0  0  0
   38.9040   30.4380   46.4090 N   0  0  0  0  0  0  0  0  0  0  0  0
   38.3200   31.0310   47.4440 C   0  0  0  0  0  0  0  0  0  0  0  0
   38.6170   32.3120   47.7300 N   0  0  0  0  0  0  0  0  0  0  0  0
   39.6720   34.0240   47.2880 H   0  0  0  0  0  0  0  0  0  0  0  0
   40.8290   33.0120   45.3210 H   0  0  0  0  0  0  0  0  0  0  0  0
   40.2760   30.6210   44.7850 H   0  0  0  0  0  0  0  0  0  0  0  0
   33.5040   29.1000   47.8870 S   0  0  0  0  0  0  0  0  0  0  0  0
   34.2670   24.4490   46.6440 H   0  0  0  0  0  0  0  0  0  0  0  0
   33.6020   25.1240   47.0800 N   0  0  0  0  0  0  0  0  0  0  0  0
   34.0420   26.3950   47.1210 C   0  0  0  0  0  3  0  0  0  0  0  0
   33.1880   27.3400   47.6950 C   0  0  0  0  0  0  0  0  0  0  0  0
   31.9470   26.9370   48.1920 C   0  0  0  0  0  0  0  0  0  0  0  0
   31.1200   27.7180   48.7220 O   0  0  0  0  0  0  0  0  0  0  0  0
   31.5590   25.6470   48.1230 N   0  0  0  0  0  0  0  0  0  0  0  0
   32.4060   24.7640   47.5640 C   0  0  0  0  0  0  0  0  0  0  0  0
   32.1280   23.5560   47.4610 O   0  0  0  0  0  0  0  0  0  0  0  0
   30.6310   25.3120   48.4880 H   0  0  0  0  0  0  0  0  0  0  0  0
  1  2  1  0  0  0  0
  2  3  2  0  0  0  0
  2  7  1  0  0  0  0
  3  4  1  0  0  0  0
  4  8  1  0  0  0  0
  4  5  2  0  0  0  0
  5  9  1  0  0  0  0
  6  5  1  0  0  0  0
  6 10  1  0  0  0  0
  7  6  2  0  0  0  0
 11 17  1  0  0  0  0
 11 16  1  0  0  0  0
 12 11  2  0  0  0  0
 13 12  1  0  0  0  0
 13 14  2  0  0  0  0
 14 15  1  0  0  0  0
 15 16  2  0  0  0  0
 15  3  1  0  0  0  0
 18 12  1  0  0  0  0
 19 13  1  0  0  0  0
 20  7  1  0  0  0  0
 21 22  1  0  0  0  0
 22 23  1  0  0  0  0
 22 28  1  0  0  0  0
 23 24  2  0  0  0  0
 24 20  1  0  0  0  0
 24 25  1  0  0  0  0
 25 26  2  0  0  0  0
 27 25  1  0  0  0  0
 27 30  1  0  0  0  0
 28 27  1  0  0  0  0
 29 28  2  0  0  0  0
M  END
>  <minimizedAffinity>
-5.47784948

>  <minimizedRMSD>
1.29794335

$$$$
