
 OpenBabel03272504423D

 46 48  0  0  0  0  0  0  0  0999 V2000
   34.4520   29.2840   48.8310 C   0  0  0  0  0  0  0  0  0  0  0  0
   35.3230   29.2980   49.5300 H   0  0  0  0  0  0  0  0  0  0  0  0
   33.8020   30.1190   49.2290 H   0  0  0  0  0  0  0  0  0  0  0  0
   37.2160   30.3720   48.7060 Cl  0  0  0  0  0  0  0  0  0  0  0  0
   36.1560   30.2080   47.3000 C   0  0  0  0  0  0  0  0  0  0  0  0
   36.5990   30.5930   46.0840 C   0  0  0  0  0  0  0  0  0  0  0  0
   35.7790   30.4680   44.9850 C   0  0  0  0  0  0  0  0  0  0  0  0
   34.5060   29.9440   45.1560 C   0  0  0  0  0  0  0  0  0  0  0  0
   34.1120   29.5640   46.4530 C   0  0  0  0  0  0  0  0  0  0  0  0
   34.9020   29.6810   47.5310 C   0  0  0  0  0  0  0  0  0  0  0  0
   36.1600   30.7880   44.0060 H   0  0  0  0  0  0  0  0  0  0  0  0
   33.9460   29.8890   44.2350 H   0  0  0  0  0  0  0  0  0  0  0  0
   33.1470   29.2090   46.3640 H   0  0  0  0  0  0  0  0  0  0  0  0
   39.5860   32.7370   46.4100 C   0  0  0  0  0  0  0  0  0  0  0  0
   40.4810   32.0810   45.5000 C   0  0  0  0  0  0  0  0  0  0  0  0
   40.0190   30.9350   44.8200 C   0  0  0  0  0  0  0  0  0  0  0  0
   38.7530   30.5020   45.0510 N   0  0  0  0  0  0  0  0  0  0  0  0
   37.9340   31.1450   45.9150 C   0  0  0  0  0  0  0  0  0  0  0  0
   38.3550   32.2390   46.5740 N   0  0  0  0  0  0  0  0  0  0  0  0
   39.9790   33.6060   46.9060 H   0  0  0  0  0  0  0  0  0  0  0  0
   41.4770   32.4660   45.3530 H   0  0  0  0  0  0  0  0  0  0  0  0
   40.9220   30.3220   43.9410 N   0  0  0  0  0  0  0  0  0  0  0  0
   41.8720   29.9790   44.1760 H   0  0  0  0  0  0  0  0  0  0  0  0
   40.4420   30.2860   43.0120 H   0  0  0  0  0  0  0  0  0  0  0  0
   33.7520   28.0160   49.0180 C   0  0  0  0  0  0  0  0  0  0  0  0
   34.1710   27.3760   49.8440 H   0  0  0  0  0  0  0  0  0  0  0  0
   33.8700   27.3860   48.0950 H   0  0  0  0  0  0  0  0  0  0  0  0
   32.4230   28.2010   49.2860 O   0  0  0  0  0  0  0  0  0  0  0  0
   32.3040   26.3640   47.4130 O   0  0  0  0  0  0  0  0  0  0  0  0
   31.4790   27.3270   48.2290 P   0  0  2  0  0  0  0  0  0  0  0  0
   30.7380   28.4900   47.1790 O   0  0  0  0  0  0  0  0  0  0  0  0
   28.9350   25.9510   44.0550 H   0  0  0  0  0  0  0  0  0  0  0  0
   28.8180   26.7580   44.7160 N   0  0  0  0  0  0  0  0  0  0  0  0
   29.8280   27.1450   45.5450 C   0  0  0  0  0  3  0  0  0  0  0  0
   29.6320   28.2270   46.4130 C   0  0  0  0  0  0  0  0  0  0  0  0
   28.4170   28.8470   46.3800 C   0  0  0  0  0  0  0  0  0  0  0  0
   28.3090   29.8080   47.1810 O   0  0  0  0  0  0  0  0  0  0  0  0
   27.4270   28.4640   45.5620 N   0  0  0  0  0  0  0  0  0  0  0  0
   27.6300   27.4140   44.7270 C   0  0  0  0  0  0  0  0  0  0  0  0
   26.6770   27.0840   43.9760 O   0  0  0  0  0  0  0  0  0  0  0  0
   26.5140   28.9740   45.5780 H   0  0  0  0  0  0  0  0  0  0  0  0
   30.2360   26.5190   48.9620 O   0  0  0  0  0  0  0  0  0  0  0  0
   29.6230   27.3110   49.9070 C   0  0  0  0  0  0  0  0  0  0  0  0
   29.3720   26.6250   51.0940 F   0  0  0  0  0  0  0  0  0  0  0  0
   30.4110   28.3850   50.2630 F   0  0  0  0  0  0  0  0  0  0  0  0
   28.4070   27.7730   49.4100 F   0  0  0  0  0  0  0  0  0  0  0  0
  1 25  1  0  0  0  0
  1  3  1  0  0  0  0
  1  2  1  0  0  0  0
  5 10  1  0  0  0  0
  5  4  1  0  0  0  0
  6  5  2  0  0  0  0
  7  8  2  0  0  0  0
  7  6  1  0  0  0  0
  8  9  1  0  0  0  0
  9 10  2  0  0  0  0
 10  1  1  0  0  0  0
 11  7  1  0  0  0  0
 12  8  1  0  0  0  0
 13  9  1  0  0  0  0
 14 19  1  0  0  0  0
 14 20  1  0  0  0  0
 15 14  2  0  0  0  0
 16 17  2  0  0  0  0
 16 15  1  0  0  0  0
 17 18  1  0  0  0  0
 18  6  1  0  0  0  0
 18 19  2  0  0  0  0
 21 15  1  0  0  0  0
 22 23  1  0  0  0  0
 22 16  1  0  0  0  0
 24 22  1  0  0  0  0
 25 28  1  0  0  0  0
 25 26  1  0  0  0  0
 27 25  1  0  0  0  0
 30 29  2  6  0  0  0
 30 42  1  0  0  0  0
 30 28  1  0  0  0  0
 31 30  1  0  0  0  0
 32 33  1  0  0  0  0
 33 39  1  0  0  0  0
 33 34  1  0  0  0  0
 34 35  2  0  0  0  0
 35 31  1  0  0  0  0
 36 35  1  0  0  0  0
 36 37  2  0  0  0  0
 38 41  1  0  0  0  0
 38 36  1  0  0  0  0
 39 38  1  0  0  0  0
 40 39  2  0  0  0  0
 42 43  1  0  0  0  0
 43 45  1  0  0  0  0
 43 44  1  0  0  0  0
 46 43  1  0  0  0  0
M  END
>  <minimizedAffinity>
-6.01882458

>  <minimizedRMSD>
0.59521842

$$$$
