
 OpenBabel03272501063D

 31 33  0  0  1  0  0  0  0  0999 V2000
   37.6580   25.6250   35.4630 C   0  0  2  0  0  0  0  0  0  0  0  0
   38.3280   25.5810   34.0630 C   0  0  2  0  0  0  0  0  0  0  0  0
   38.7010   27.0080   33.9750 C   0  0  0  0  0  0  0  0  0  0  0  0
   39.1570   27.3870   35.2210 O   0  0  0  0  0  0  0  0  0  0  0  0
   38.7060   26.4840   36.1550 C   0  0  0  0  0  0  0  0  0  0  0  0
   36.7150   26.1490   35.3470 H   0  0  0  0  0  0  0  0  0  0  0  0
   39.2290   24.9220   34.2350 H   0  0  0  0  0  0  0  0  0  0  0  0
   39.3940   27.2590   33.1510 H   0  0  0  0  0  0  0  0  0  0  0  0
   37.7430   27.5810   33.7990 H   0  0  0  0  0  0  0  0  0  0  0  0
   39.5060   25.7940   36.4800 H   0  0  0  0  0  0  0  0  0  0  0  0
   38.3180   27.0090   37.0250 H   0  0  0  0  0  0  0  0  0  0  0  0
   35.7490   25.3660   31.3170 C   0  0  0  0  0  0  0  0  0  0  0  0
   36.5990   25.9240   32.3050 C   0  0  0  0  0  0  0  0  0  0  0  0
   37.4520   25.0650   33.0420 C   0  0  0  0  0  0  0  0  0  0  0  0
   37.4030   23.7270   32.7540 N   0  0  0  0  0  0  0  0  0  0  0  0
   36.5870   23.2330   31.8150 C   0  0  0  0  0  0  0  0  0  0  0  0
   35.7640   24.0290   31.0950 N   0  0  0  0  0  0  0  0  0  0  0  0
   35.1510   26.1230   30.8270 H   0  0  0  0  0  0  0  0  0  0  0  0
   36.6360   26.9820   32.5300 H   0  0  0  0  0  0  0  0  0  0  0  0
   36.5540   22.1730   31.5930 H   0  0  0  0  0  0  0  0  0  0  0  0
   37.5810   24.3630   36.0330 O   0  0  0  0  0  0  0  0  0  0  0  0
   41.1720   21.7150   35.3320 H   0  0  0  0  0  0  0  0  0  0  0  0
   40.5340   22.1620   36.0410 N   0  0  0  0  0  0  0  0  0  0  0  0
   39.5290   22.9290   35.5970 C   0  0  0  0  0  3  0  0  0  0  0  0
   38.6200   23.5710   36.4220 C   0  0  0  0  0  0  0  0  0  0  0  0
   38.8220   23.3650   37.7820 C   0  0  0  0  0  0  0  0  0  0  0  0
   38.0800   23.8810   38.6640 O   0  0  0  0  0  0  0  0  0  0  0  0
   39.8150   22.6070   38.2240 N   0  0  0  0  0  0  0  0  0  0  0  0
   40.6680   22.0070   37.3700 C   0  0  0  0  0  0  0  0  0  0  0  0
   41.6410   21.2680   37.7110 O   0  0  0  0  0  0  0  0  0  0  0  0
   39.9970   22.4290   39.2480 H   0  0  0  0  0  0  0  0  0  0  0  0
  1  6  1  6  0  0  0
  1 21  1  0  0  0  0
  1  5  1  0  0  0  0
  2  7  1  1  0  0  0
  2  1  1  0  0  0  0
  3  2  1  0  0  0  0
  3  4  1  0  0  0  0
  4  5  1  0  0  0  0
  5 10  1  0  0  0  0
  5 11  1  0  0  0  0
  8  3  1  0  0  0  0
  9  3  1  0  0  0  0
 12 13  1  0  0  0  0
 13 19  1  0  0  0  0
 13 14  2  0  0  0  0
 14  2  1  0  0  0  0
 15 14  1  0  0  0  0
 16 15  2  0  0  0  0
 17 12  2  0  0  0  0
 17 16  1  0  0  0  0
 18 12  1  0  0  0  0
 20 16  1  0  0  0  0
 21 25  1  0  0  0  0
 22 23  1  0  0  0  0
 23 29  1  0  0  0  0
 24 23  1  0  0  0  0
 24 25  2  0  0  0  0
 25 26  1  0  0  0  0
 26 28  1  0  0  0  0
 26 27  2  0  0  0  0
 28 31  1  0  0  0  0
 29 30  2  0  0  0  0
 29 28  1  0  0  0  0
M  END
>  <minimizedAffinity>
-5.46139812

$$$$

 OpenBabel03272501063D

 31 33  0  0  1  0  0  0  0  0999 V2000
   37.0600   23.8650   32.7310 C   0  0  2  0  0  0  0  0  0  0  0  0
   36.5760   23.3330   31.3560 C   0  0  2  0  0  0  0  0  0  0  0  0
   35.4910   24.3100   31.1330 C   0  0  0  0  0  0  0  0  0  0  0  0
   35.9590   25.5390   31.5490 O   0  0  0  0  0  0  0  0  0  0  0  0
   37.0320   25.3470   32.3880 C   0  0  0  0  0  0  0  0  0  0  0  0
   36.2990   23.6020   33.4590 H   0  0  0  0  0  0  0  0  0  0  0  0
   37.4620   23.5280   30.6840 H   0  0  0  0  0  0  0  0  0  0  0  0
   35.0710   24.3160   30.1100 H   0  0  0  0  0  0  0  0  0  0  0  0
   34.6560   24.0310   31.8400 H   0  0  0  0  0  0  0  0  0  0  0  0
   37.9910   25.5660   31.8850 H   0  0  0  0  0  0  0  0  0  0  0  0
   36.9400   25.9850   33.2650 H   0  0  0  0  0  0  0  0  0  0  0  0
   34.8060   20.1070   32.1960 C   0  0  0  0  0  0  0  0  0  0  0  0
   35.1200   21.4900   32.1830 C   0  0  0  0  0  0  0  0  0  0  0  0
   36.2090   21.9390   31.3960 C   0  0  0  0  0  0  0  0  0  0  0  0
   36.9060   20.9980   30.6840 N   0  0  0  0  0  0  0  0  0  0  0  0
   36.5820   19.7000   30.7200 C   0  0  0  0  0  0  0  0  0  0  0  0
   35.5470   19.2430   31.4610 N   0  0  0  0  0  0  0  0  0  0  0  0
   33.9570   19.8950   32.8320 H   0  0  0  0  0  0  0  0  0  0  0  0
   34.5680   22.2310   32.7460 H   0  0  0  0  0  0  0  0  0  0  0  0
   37.1380   18.9610   30.1550 H   0  0  0  0  0  0  0  0  0  0  0  0
   38.3460   23.4370   33.0230 O   0  0  0  0  0  0  0  0  0  0  0  0
   38.4570   21.2310   36.9630 H   0  0  0  0  0  0  0  0  0  0  0  0
   38.9080   21.9590   36.3500 N   0  0  0  0  0  0  0  0  0  0  0  0
   38.3610   22.2080   35.1520 C   0  0  0  0  0  3  0  0  0  0  0  0
   38.8550   23.1390   34.2520 C   0  0  0  0  0  0  0  0  0  0  0  0
   39.9880   23.8200   34.6820 C   0  0  0  0  0  0  0  0  0  0  0  0
   40.5590   24.7000   33.9790 O   0  0  0  0  0  0  0  0  0  0  0  0
   40.5310   23.5750   35.8660 N   0  0  0  0  0  0  0  0  0  0  0  0
   40.0040   22.6560   36.6980 C   0  0  0  0  0  0  0  0  0  0  0  0
   40.4610   22.3640   37.8450 O   0  0  0  0  0  0  0  0  0  0  0  0
   41.3890   24.0740   36.2240 H   0  0  0  0  0  0  0  0  0  0  0  0
  1 21  1  0  0  0  0
  1  6  1  1  0  0  0
  2  7  1  6  0  0  0
  2 14  1  0  0  0  0
  2  1  1  0  0  0  0
  3  2  1  0  0  0  0
  3  4  1  0  0  0  0
  3  9  1  0  0  0  0
  4  5  1  0  0  0  0
  5  1  1  0  0  0  0
  5 11  1  0  0  0  0
  8  3  1  0  0  0  0
 10  5  1  0  0  0  0
 12 18  1  0  0  0  0
 13 12  1  0  0  0  0
 13 19  1  0  0  0  0
 14 13  2  0  0  0  0
 15 16  2  0  0  0  0
 15 14  1  0  0  0  0
 16 17  1  0  0  0  0
 17 12  2  0  0  0  0
 20 16  1  0  0  0  0
 21 25  1  0  0  0  0
 23 29  1  0  0  0  0
 23 22  1  0  0  0  0
 24 23  1  0  0  0  0
 25 26  1  0  0  0  0
 25 24  2  0  0  0  0
 26 28  1  0  0  0  0
 27 26  2  0  0  0  0
 28 31  1  0  0  0  0
 28 29  1  0  0  0  0
 29 30  2  0  0  0  0
M  END
>  <minimizedAffinity>
-4.95111465

$$$$

 OpenBabel03272501063D

 31 33  0  0  1  0  0  0  0  0999 V2000
   36.9450   24.8120   32.8480 C   0  0  2  0  0  0  0  0  0  0  0  0
   36.9620   24.2410   31.4050 C   0  0  2  0  0  0  0  0  0  0  0  0
   35.9690   25.1600   30.8140 C   0  0  0  0  0  0  0  0  0  0  0  0
   36.2210   26.4160   31.3270 O   0  0  0  0  0  0  0  0  0  0  0  0
   36.9670   26.2870   32.4750 C   0  0  0  0  0  0  0  0  0  0  0  0
   36.0010   24.5190   33.2940 H   0  0  0  0  0  0  0  0  0  0  0  0
   38.0110   24.4730   31.0540 H   0  0  0  0  0  0  0  0  0  0  0  0
   35.9070   25.1340   29.7100 H   0  0  0  0  0  0  0  0  0  0  0  0
   34.9610   24.8480   31.2170 H   0  0  0  0  0  0  0  0  0  0  0  0
   38.0280   26.5470   32.3070 H   0  0  0  0  0  0  0  0  0  0  0  0
   36.5650   26.9290   33.2560 H   0  0  0  0  0  0  0  0  0  0  0  0
   35.2070   20.9270   31.8230 C   0  0  0  0  0  0  0  0  0  0  0  0
   35.4490   22.3220   31.8820 C   0  0  0  0  0  0  0  0  0  0  0  0
   36.6640   22.8310   31.3600 C   0  0  0  0  0  0  0  0  0  0  0  0
   37.5460   21.9330   30.8220 N   0  0  0  0  0  0  0  0  0  0  0  0
   37.2860   20.6210   30.7830 C   0  0  0  0  0  0  0  0  0  0  0  0
   36.1350   20.1060   31.2730 N   0  0  0  0  0  0  0  0  0  0  0  0
   34.2480   20.6670   32.2520 H   0  0  0  0  0  0  0  0  0  0  0  0
   34.7500   23.0300   32.3080 H   0  0  0  0  0  0  0  0  0  0  0  0
   37.9890   19.9150   30.3560 H   0  0  0  0  0  0  0  0  0  0  0  0
   38.0830   24.4510   33.5550 O   0  0  0  0  0  0  0  0  0  0  0  0
   38.1680   25.4210   37.9650 H   0  0  0  0  0  0  0  0  0  0  0  0
   38.2080   24.6690   37.2300 N   0  0  0  0  0  0  0  0  0  0  0  0
   38.1240   25.0330   35.9430 C   0  0  0  0  0  3  0  0  0  0  0  0
   38.1630   24.1440   34.8810 C   0  0  0  0  0  0  0  0  0  0  0  0
   38.2980   22.8090   35.2440 C   0  0  0  0  0  0  0  0  0  0  0  0
   38.3500   21.8760   34.3940 O   0  0  0  0  0  0  0  0  0  0  0  0
   38.3810   22.4460   36.5170 N   0  0  0  0  0  0  0  0  0  0  0  0
   38.3370   23.3590   37.5060 C   0  0  0  0  0  0  0  0  0  0  0  0
   38.4090   23.0950   38.7450 O   0  0  0  0  0  0  0  0  0  0  0  0
   38.4850   21.4430   36.8270 H   0  0  0  0  0  0  0  0  0  0  0  0
  1  6  1  1  0  0  0
  1 21  1  0  0  0  0
  2  7  1  6  0  0  0
  2  1  1  0  0  0  0
  3  9  1  0  0  0  0
  3  4  1  0  0  0  0
  3  2  1  0  0  0  0
  4  5  1  0  0  0  0
  5  1  1  0  0  0  0
  5 11  1  0  0  0  0
  8  3  1  0  0  0  0
 10  5  1  0  0  0  0
 12 13  1  0  0  0  0
 12 18  1  0  0  0  0
 13 19  1  0  0  0  0
 14  2  1  0  0  0  0
 14 13  2  0  0  0  0
 15 14  1  0  0  0  0
 16 15  2  0  0  0  0
 16 17  1  0  0  0  0
 17 12  2  0  0  0  0
 20 16  1  0  0  0  0
 21 25  1  0  0  0  0
 23 29  1  0  0  0  0
 23 22  1  0  0  0  0
 24 23  1  0  0  0  0
 25 26  1  0  0  0  0
 25 24  2  0  0  0  0
 26 28  1  0  0  0  0
 27 26  2  0  0  0  0
 28 31  1  0  0  0  0
 28 29  1  0  0  0  0
 29 30  2  0  0  0  0
M  END
>  <minimizedAffinity>
-4.87406206

$$$$

 OpenBabel03272501063D

 31 33  0  0  1  0  0  0  0  0999 V2000
   36.9020   25.9100   32.9840 C   0  0  2  0  0  0  0  0  0  0  0  0
   37.0390   25.4900   31.4960 C   0  0  2  0  0  0  0  0  0  0  0  0
   35.9570   26.3350   30.9490 C   0  0  0  0  0  0  0  0  0  0  0  0
   36.0310   27.5550   31.5890 O   0  0  0  0  0  0  0  0  0  0  0  0
   36.7490   27.4050   32.7530 C   0  0  0  0  0  0  0  0  0  0  0  0
   35.9880   25.4600   33.3570 H   0  0  0  0  0  0  0  0  0  0  0  0
   38.0600   25.8830   31.2150 H   0  0  0  0  0  0  0  0  0  0  0  0
   35.9360   26.4110   29.8460 H   0  0  0  0  0  0  0  0  0  0  0  0
   34.9840   25.8630   31.2750 H   0  0  0  0  0  0  0  0  0  0  0  0
   37.7740   27.8090   32.6580 H   0  0  0  0  0  0  0  0  0  0  0  0
   36.2440   27.9130   33.5720 H   0  0  0  0  0  0  0  0  0  0  0  0
   35.6230   21.9980   31.2900 C   0  0  0  0  0  0  0  0  0  0  0  0
   35.6830   23.4020   31.4790 C   0  0  0  0  0  0  0  0  0  0  0  0
   36.9230   24.0660   31.3040 C   0  0  0  0  0  0  0  0  0  0  0  0
   38.0050   23.3030   30.9580 N   0  0  0  0  0  0  0  0  0  0  0  0
   37.9140   21.9790   30.7870 C   0  0  0  0  0  0  0  0  0  0  0  0
   36.7440   21.3180   30.9460 N   0  0  0  0  0  0  0  0  0  0  0  0
   34.6250   21.6140   31.4520 H   0  0  0  0  0  0  0  0  0  0  0  0
   34.8260   24.0030   31.7530 H   0  0  0  0  0  0  0  0  0  0  0  0
   38.7750   21.3810   30.5130 H   0  0  0  0  0  0  0  0  0  0  0  0
   38.0520   25.6230   33.7040 O   0  0  0  0  0  0  0  0  0  0  0  0
   38.3340   21.9340   36.2950 H   0  0  0  0  0  0  0  0  0  0  0  0
   38.2840   22.9850   36.2650 N   0  0  0  0  0  0  0  0  0  0  0  0
   38.2040   23.5840   35.0680 C   0  0  0  0  0  3  0  0  0  0  0  0
   38.1330   24.9560   34.8910 C   0  0  0  0  0  0  0  0  0  0  0  0
   38.1520   25.6970   36.0660 C   0  0  0  0  0  0  0  0  0  0  0  0
   38.0940   26.9590   36.0750 O   0  0  0  0  0  0  0  0  0  0  0  0
   38.2310   25.1080   37.2510 N   0  0  0  0  0  0  0  0  0  0  0  0
   38.2970   23.7660   37.3590 C   0  0  0  0  0  0  0  0  0  0  0  0
   38.3750   23.1260   38.4520 O   0  0  0  0  0  0  0  0  0  0  0  0
   38.2460   25.6390   38.1630 H   0  0  0  0  0  0  0  0  0  0  0  0
  1  6  1  1  0  0  0
  1 21  1  0  0  0  0
  2  7  1  6  0  0  0
  2  1  1  0  0  0  0
  3  9  1  0  0  0  0
  3  2  1  0  0  0  0
  3  4  1  0  0  0  0
  4  5  1  0  0  0  0
  5  1  1  0  0  0  0
  5 11  1  0  0  0  0
  8  3  1  0  0  0  0
 10  5  1  0  0  0  0
 12 18  1  0  0  0  0
 12 13  1  0  0  0  0
 13 19  1  0  0  0  0
 14 13  2  0  0  0  0
 14  2  1  0  0  0  0
 15 14  1  0  0  0  0
 16 17  1  0  0  0  0
 16 15  2  0  0  0  0
 17 12  2  0  0  0  0
 20 16  1  0  0  0  0
 21 25  1  0  0  0  0
 23 22  1  0  0  0  0
 23 29  1  0  0  0  0
 24 23  1  0  0  0  0
 25 24  2  0  0  0  0
 25 26  1  0  0  0  0
 26 27  2  0  0  0  0
 26 28  1  0  0  0  0
 28 29  1  0  0  0  0
 28 31  1  0  0  0  0
 29 30  2  0  0  0  0
M  END
>  <minimizedAffinity>
-4.79126501

$$$$

 OpenBabel03272501063D

 31 33  0  0  1  0  0  0  0  0999 V2000
   38.4250   25.3580   34.9220 C   0  0  2  0  0  0  0  0  0  0  0  0
   39.3610   26.5830   34.7460 C   0  0  2  0  0  0  0  0  0  0  0  0
   38.6210   27.5260   35.6090 C   0  0  0  0  0  0  0  0  0  0  0  0
   38.2010   26.8190   36.7170 O   0  0  0  0  0  0  0  0  0  0  0  0
   38.2280   25.4750   36.4260 C   0  0  0  0  0  0  0  0  0  0  0  0
   37.5130   25.5740   34.3740 H   0  0  0  0  0  0  0  0  0  0  0  0
   40.3220   26.2380   35.2290 H   0  0  0  0  0  0  0  0  0  0  0  0
   39.1630   28.4580   35.8540 H   0  0  0  0  0  0  0  0  0  0  0  0
   37.6870   27.8150   35.0440 H   0  0  0  0  0  0  0  0  0  0  0  0
   39.0940   24.9710   36.8910 H   0  0  0  0  0  0  0  0  0  0  0  0
   37.3140   24.9990   36.7730 H   0  0  0  0  0  0  0  0  0  0  0  0
   38.6560   27.6220   31.1870 C   0  0  0  0  0  0  0  0  0  0  0  0
   38.4290   27.2710   32.5420 C   0  0  0  0  0  0  0  0  0  0  0  0
   39.5390   26.9550   33.3650 C   0  0  0  0  0  0  0  0  0  0  0  0
   40.7830   27.0060   32.7950 N   0  0  0  0  0  0  0  0  0  0  0  0
   40.9620   27.3400   31.5120 C   0  0  0  0  0  0  0  0  0  0  0  0
   39.9220   27.6480   30.7030 N   0  0  0  0  0  0  0  0  0  0  0  0
   37.7320   27.8400   30.6690 H   0  0  0  0  0  0  0  0  0  0  0  0
   37.4450   27.2320   32.9900 H   0  0  0  0  0  0  0  0  0  0  0  0
   41.9490   27.3790   31.0670 H   0  0  0  0  0  0  0  0  0  0  0  0
   39.0630   24.1730   34.5850 O   0  0  0  0  0  0  0  0  0  0  0  0
   42.9220   23.0560   36.6490 H   0  0  0  0  0  0  0  0  0  0  0  0
   41.9090   22.8160   36.4890 N   0  0  0  0  0  0  0  0  0  0  0  0
   41.1880   23.6090   35.6850 C   0  0  0  0  0  3  0  0  0  0  0  0
   39.8490   23.4050   35.3920 C   0  0  0  0  0  0  0  0  0  0  0  0
   39.2830   22.2930   36.0030 C   0  0  0  0  0  0  0  0  0  0  0  0
   38.0730   21.9690   35.8380 O   0  0  0  0  0  0  0  0  0  0  0  0
   39.9940   21.5070   36.7990 N   0  0  0  0  0  0  0  0  0  0  0  0
   41.2940   21.7580   37.0460 C   0  0  0  0  0  0  0  0  0  0  0  0
   42.0430   21.0570   37.7930 O   0  0  0  0  0  0  0  0  0  0  0  0
   39.5960   20.6550   37.2780 H   0  0  0  0  0  0  0  0  0  0  0  0
  1  6  1  6  0  0  0
  1  5  1  0  0  0  0
  2  1  1  0  0  0  0
  2  7  1  1  0  0  0
  2  3  1  0  0  0  0
  3  8  1  0  0  0  0
  3  4  1  0  0  0  0
  5  4  1  0  0  0  0
  5 11  1  0  0  0  0
  5 10  1  0  0  0  0
  9  3  1  0  0  0  0
 12 13  1  0  0  0  0
 13 19  1  0  0  0  0
 13 14  2  0  0  0  0
 14  2  1  0  0  0  0
 15 14  1  0  0  0  0
 16 15  2  0  0  0  0
 17 12  2  0  0  0  0
 17 16  1  0  0  0  0
 18 12  1  0  0  0  0
 20 16  1  0  0  0  0
 21  1  1  0  0  0  0
 21 25  1  0  0  0  0
 23 22  1  0  0  0  0
 23 29  1  0  0  0  0
 24 23  1  0  0  0  0
 25 24  2  0  0  0  0
 25 26  1  0  0  0  0
 26 28  1  0  0  0  0
 27 26  2  0  0  0  0
 28 29  1  0  0  0  0
 28 31  1  0  0  0  0
 29 30  2  0  0  0  0
M  END
>  <minimizedAffinity>
-4.74844122

$$$$

 OpenBabel03272501063D

 31 33  0  0  1  0  0  0  0  0999 V2000
   39.0570   24.1350   33.3790 C   0  0  2  0  0  0  0  0  0  0  0  0
   39.7670   24.8440   34.5620 C   0  0  2  0  0  0  0  0  0  0  0  0
   41.1600   24.5840   34.1450 C   0  0  0  0  0  0  0  0  0  0  0  0
   41.2150   24.7620   32.7770 O   0  0  0  0  0  0  0  0  0  0  0  0
   39.9400   24.6790   32.2660 C   0  0  0  0  0  0  0  0  0  0  0  0
   39.1920   23.0680   33.5210 H   0  0  0  0  0  0  0  0  0  0  0  0
   39.4800   25.9270   34.4180 H   0  0  0  0  0  0  0  0  0  0  0  0
   41.9280   25.1550   34.6990 H   0  0  0  0  0  0  0  0  0  0  0  0
   41.3530   23.4870   34.3310 H   0  0  0  0  0  0  0  0  0  0  0  0
   39.5350   25.6730   32.0080 H   0  0  0  0  0  0  0  0  0  0  0  0
   39.9360   24.0530   31.3750 H   0  0  0  0  0  0  0  0  0  0  0  0
   37.9150   24.3710   37.8160 C   0  0  0  0  0  0  0  0  0  0  0  0
   38.2720   24.9050   36.5520 C   0  0  0  0  0  0  0  0  0  0  0  0
   39.3580   24.3310   35.8460 C   0  0  0  0  0  0  0  0  0  0  0  0
   40.0090   23.2790   36.4340 N   0  0  0  0  0  0  0  0  0  0  0  0
   39.6460   22.8000   37.6290 C   0  0  0  0  0  0  0  0  0  0  0  0
   38.6130   23.3270   38.3260 N   0  0  0  0  0  0  0  0  0  0  0  0
   37.0740   24.8940   38.2500 H   0  0  0  0  0  0  0  0  0  0  0  0
   37.7560   25.7370   36.0900 H   0  0  0  0  0  0  0  0  0  0  0  0
   40.1650   21.9670   38.0890 H   0  0  0  0  0  0  0  0  0  0  0  0
   37.7450   24.5630   33.2390 O   0  0  0  0  0  0  0  0  0  0  0  0
   36.9860   29.0030   32.9130 H   0  0  0  0  0  0  0  0  0  0  0  0
   36.9110   28.0620   32.4470 N   0  0  0  0  0  0  0  0  0  0  0  0
   37.3530   26.9860   33.1120 C   0  0  0  0  0  3  0  0  0  0  0  0
   37.3110   25.6950   32.6130 C   0  0  0  0  0  0  0  0  0  0  0  0
   36.7660   25.5800   31.3400 C   0  0  0  0  0  0  0  0  0  0  0  0
   36.6560   24.4700   30.7460 O   0  0  0  0  0  0  0  0  0  0  0  0
   36.3280   26.6420   30.6800 N   0  0  0  0  0  0  0  0  0  0  0  0
   36.3950   27.8750   31.2190 C   0  0  0  0  0  0  0  0  0  0  0  0
   35.9990   28.9400   30.6550 O   0  0  0  0  0  0  0  0  0  0  0  0
   35.9070   26.5910   29.7130 H   0  0  0  0  0  0  0  0  0  0  0  0
  1  6  1  1  0  0  0
  1  2  1  0  0  0  0
  2  7  1  6  0  0  0
  2 14  1  0  0  0  0
  3  9  1  0  0  0  0
  3  2  1  0  0  0  0
  3  8  1  0  0  0  0
  4  3  1  0  0  0  0
  5  4  1  0  0  0  0
  5  1  1  0  0  0  0
 10  5  1  0  0  0  0
 11  5  1  0  0  0  0
 12 18  1  0  0  0  0
 12 17  1  0  0  0  0
 13 12  2  0  0  0  0
 14 15  2  0  0  0  0
 14 13  1  0  0  0  0
 15 16  1  0  0  0  0
 16 20  1  0  0  0  0
 16 17  2  0  0  0  0
 19 13  1  0  0  0  0
 21  1  1  0  0  0  0
 23 22  1  0  0  0  0
 23 24  1  0  0  0  0
 25 24  2  0  0  0  0
 25 21  1  0  0  0  0
 26 25  1  0  0  0  0
 27 26  2  0  0  0  0
 28 29  1  0  0  0  0
 28 26  1  0  0  0  0
 29 23  1  0  0  0  0
 30 29  2  0  0  0  0
 31 28  1  0  0  0  0
M  END
>  <minimizedAffinity>
-4.67444086

$$$$

 OpenBabel03272501063D

 31 33  0  0  1  0  0  0  0  0999 V2000
   39.1970   23.5490   33.3650 C   0  0  2  0  0  0  0  0  0  0  0  0
   39.6570   24.5610   34.4480 C   0  0  2  0  0  0  0  0  0  0  0  0
   41.0850   24.6160   34.0780 C   0  0  0  0  0  0  0  0  0  0  0  0
   41.1480   24.6270   32.6990 O   0  0  0  0  0  0  0  0  0  0  0  0
   39.9580   24.1550   32.1950 C   0  0  0  0  0  0  0  0  0  0  0  0
   39.5920   22.5790   33.6490 H   0  0  0  0  0  0  0  0  0  0  0  0
   39.1110   25.5070   34.1590 H   0  0  0  0  0  0  0  0  0  0  0  0
   41.6610   25.4300   34.5560 H   0  0  0  0  0  0  0  0  0  0  0  0
   41.5420   23.6380   34.4090 H   0  0  0  0  0  0  0  0  0  0  0  0
   39.3250   24.9720   31.8050 H   0  0  0  0  0  0  0  0  0  0  0  0
   40.1480   23.4420   31.3960 H   0  0  0  0  0  0  0  0  0  0  0  0
   37.9640   24.2080   37.8030 C   0  0  0  0  0  0  0  0  0  0  0  0
   38.2280   24.6600   36.4850 C   0  0  0  0  0  0  0  0  0  0  0  0
   39.3400   24.1270   35.7860 C   0  0  0  0  0  0  0  0  0  0  0  0
   40.1050   23.1950   36.4340 N   0  0  0  0  0  0  0  0  0  0  0  0
   39.8280   22.7910   37.6790 C   0  0  0  0  0  0  0  0  0  0  0  0
   38.7740   23.2810   38.3700 N   0  0  0  0  0  0  0  0  0  0  0  0
   37.0910   24.6890   38.2250 H   0  0  0  0  0  0  0  0  0  0  0  0
   37.6210   25.3970   35.9760 H   0  0  0  0  0  0  0  0  0  0  0  0
   40.4390   22.0530   38.1860 H   0  0  0  0  0  0  0  0  0  0  0  0
   37.8260   23.6050   33.1610 O   0  0  0  0  0  0  0  0  0  0  0  0
   35.8610   19.6240   33.9880 H   0  0  0  0  0  0  0  0  0  0  0  0
   35.9500   20.4410   33.3300 N   0  0  0  0  0  0  0  0  0  0  0  0
   36.7850   21.4350   33.6590 C   0  0  0  0  0  3  0  0  0  0  0  0
   36.9930   22.5630   32.8810 C   0  0  0  0  0  0  0  0  0  0  0  0
   36.2580   22.6000   31.7030 C   0  0  0  0  0  0  0  0  0  0  0  0
   36.3360   23.5600   30.8840 O   0  0  0  0  0  0  0  0  0  0  0  0
   35.4310   21.6180   31.3740 N   0  0  0  0  0  0  0  0  0  0  0  0
   35.2710   20.5450   32.1730 C   0  0  0  0  0  0  0  0  0  0  0  0
   34.5020   19.5660   31.9330 O   0  0  0  0  0  0  0  0  0  0  0  0
   34.8590   21.6140   30.4870 H   0  0  0  0  0  0  0  0  0  0  0  0
  1  6  1  1  0  0  0
  1  2  1  0  0  0  0
  2  7  1  6  0  0  0
  2 14  1  0  0  0  0
  3  9  1  0  0  0  0
  3  2  1  0  0  0  0
  3  8  1  0  0  0  0
  4  3  1  0  0  0  0
  5  4  1  0  0  0  0
  5  1  1  0  0  0  0
 10  5  1  0  0  0  0
 11  5  1  0  0  0  0
 12 18  1  0  0  0  0
 12 17  1  0  0  0  0
 13 12  2  0  0  0  0
 14 15  2  0  0  0  0
 14 13  1  0  0  0  0
 15 16  1  0  0  0  0
 16 20  1  0  0  0  0
 16 17  2  0  0  0  0
 19 13  1  0  0  0  0
 21  1  1  0  0  0  0
 23 24  1  0  0  0  0
 23 22  1  0  0  0  0
 25 21  1  0  0  0  0
 25 24  2  0  0  0  0
 26 25  1  0  0  0  0
 27 26  2  0  0  0  0
 28 26  1  0  0  0  0
 28 29  1  0  0  0  0
 29 23  1  0  0  0  0
 30 29  2  0  0  0  0
 31 28  1  0  0  0  0
M  END
>  <minimizedAffinity>
-4.65838814

$$$$

 OpenBabel03272501063D

 31 33  0  0  1  0  0  0  0  0999 V2000
   37.8780   23.3020   32.0730 C   0  0  2  0  0  0  0  0  0  0  0  0
   36.7420   24.3580   32.1400 C   0  0  2  0  0  0  0  0  0  0  0  0
   35.7950   23.6920   31.2230 C   0  0  0  0  0  0  0  0  0  0  0  0
   35.8370   22.3420   31.5060 O   0  0  0  0  0  0  0  0  0  0  0  0
   37.0020   22.0640   32.1830 C   0  0  0  0  0  0  0  0  0  0  0  0
   38.3360   23.3910   31.0930 H   0  0  0  0  0  0  0  0  0  0  0  0
   36.4020   24.2950   33.2150 H   0  0  0  0  0  0  0  0  0  0  0  0
   34.7730   24.1140   31.2190 H   0  0  0  0  0  0  0  0  0  0  0  0
   36.2160   23.8120   30.1820 H   0  0  0  0  0  0  0  0  0  0  0  0
   36.8220   21.9080   33.2620 H   0  0  0  0  0  0  0  0  0  0  0  0
   37.4710   21.1730   31.7710 H   0  0  0  0  0  0  0  0  0  0  0  0
   37.1860   28.1050   32.0730 C   0  0  0  0  0  0  0  0  0  0  0  0
   36.7250   26.8250   32.4730 C   0  0  0  0  0  0  0  0  0  0  0  0
   37.1880   25.6810   31.7790 C   0  0  0  0  0  0  0  0  0  0  0  0
   38.0670   25.8800   30.7470 N   0  0  0  0  0  0  0  0  0  0  0  0
   38.4810   27.1030   30.3950 C   0  0  0  0  0  0  0  0  0  0  0  0
   38.0560   28.2130   31.0400 N   0  0  0  0  0  0  0  0  0  0  0  0
   36.7600   28.8930   32.6800 H   0  0  0  0  0  0  0  0  0  0  0  0
   36.0310   26.6710   33.2890 H   0  0  0  0  0  0  0  0  0  0  0  0
   39.1760   27.2530   29.5770 H   0  0  0  0  0  0  0  0  0  0  0  0
   38.7410   23.4100   33.1530 O   0  0  0  0  0  0  0  0  0  0  0  0
   37.3010   21.2640   36.8570 H   0  0  0  0  0  0  0  0  0  0  0  0
   37.6520   22.1670   36.4440 N   0  0  0  0  0  0  0  0  0  0  0  0
   37.9500   22.1960   35.1380 C   0  0  0  0  0  3  0  0  0  0  0  0
   38.4200   23.3180   34.4750 C   0  0  0  0  0  0  0  0  0  0  0  0
   38.5680   24.4470   35.2720 C   0  0  0  0  0  0  0  0  0  0  0  0
   38.9850   25.5490   34.8180 O   0  0  0  0  0  0  0  0  0  0  0  0
   38.2730   24.4210   36.5640 N   0  0  0  0  0  0  0  0  0  0  0  0
   37.8200   23.2970   37.1530 C   0  0  0  0  0  0  0  0  0  0  0  0
   37.5160   23.1900   38.3810 O   0  0  0  0  0  0  0  0  0  0  0  0
   38.3730   25.2590   37.1980 H   0  0  0  0  0  0  0  0  0  0  0  0
  1  6  1  6  0  0  0
  1  2  1  0  0  0  0
  1  5  1  0  0  0  0
  1 21  1  0  0  0  0
  2  7  1  1  0  0  0
  3  4  1  0  0  0  0
  3  2  1  0  0  0  0
  4  5  1  0  0  0  0
  5 10  1  0  0  0  0
  8  3  1  0  0  0  0
  9  3  1  0  0  0  0
 11  5  1  0  0  0  0
 12 13  1  0  0  0  0
 12 18  1  0  0  0  0
 13 19  1  0  0  0  0
 14  2  1  0  0  0  0
 14 13  2  0  0  0  0
 15 14  1  0  0  0  0
 16 15  2  0  0  0  0
 16 17  1  0  0  0  0
 17 12  2  0  0  0  0
 20 16  1  0  0  0  0
 21 25  1  0  0  0  0
 23 22  1  0  0  0  0
 23 29  1  0  0  0  0
 24 23  1  0  0  0  0
 25 24  2  0  0  0  0
 25 26  1  0  0  0  0
 26 28  1  0  0  0  0
 27 26  2  0  0  0  0
 28 29  1  0  0  0  0
 28 31  1  0  0  0  0
 29 30  2  0  0  0  0
M  END
>  <minimizedAffinity>
-4.64137173

$$$$

 OpenBabel03272501063D

 31 33  0  0  1  0  0  0  0  0999 V2000
   37.7940   23.9320   33.6360 C   0  0  2  0  0  0  0  0  0  0  0  0
   38.8290   22.9590   34.2620 C   0  0  2  0  0  0  0  0  0  0  0  0
   38.3010   21.7060   33.6850 C   0  0  0  0  0  0  0  0  0  0  0  0
   37.9420   21.9790   32.3810 O   0  0  0  0  0  0  0  0  0  0  0  0
   37.7900   23.3390   32.2360 C   0  0  0  0  0  0  0  0  0  0  0  0
   36.8530   23.7680   34.1510 H   0  0  0  0  0  0  0  0  0  0  0  0
   39.7980   23.2720   33.7730 H   0  0  0  0  0  0  0  0  0  0  0  0
   38.9650   20.8280   33.7900 H   0  0  0  0  0  0  0  0  0  0  0  0
   37.3440   21.4750   34.2370 H   0  0  0  0  0  0  0  0  0  0  0  0
   38.6460   23.7930   31.7050 H   0  0  0  0  0  0  0  0  0  0  0  0
   36.8770   23.5560   31.6850 H   0  0  0  0  0  0  0  0  0  0  0  0
   40.0540   22.8010   37.8280 C   0  0  0  0  0  0  0  0  0  0  0  0
   40.0560   22.7040   36.4140 C   0  0  0  0  0  0  0  0  0  0  0  0
   38.8820   23.0510   35.7000 C   0  0  0  0  0  0  0  0  0  0  0  0
   37.7990   23.4660   36.4280 N   0  0  0  0  0  0  0  0  0  0  0  0
   37.8310   23.5460   37.7640 C   0  0  0  0  0  0  0  0  0  0  0  0
   38.9370   23.2220   38.4710 N   0  0  0  0  0  0  0  0  0  0  0  0
   41.0050   22.5100   38.2520 H   0  0  0  0  0  0  0  0  0  0  0  0
   40.9130   22.3760   35.8410 H   0  0  0  0  0  0  0  0  0  0  0  0
   36.9700   23.8750   38.3340 H   0  0  0  0  0  0  0  0  0  0  0  0
   38.2580   25.2390   33.6320 O   0  0  0  0  0  0  0  0  0  0  0  0
   35.5000   28.3210   31.8170 H   0  0  0  0  0  0  0  0  0  0  0  0
   36.0380   28.0150   32.6690 N   0  0  0  0  0  0  0  0  0  0  0  0
   36.7580   26.8880   32.5960 C   0  0  0  0  0  3  0  0  0  0  0  0
   37.5080   26.3770   33.6440 C   0  0  0  0  0  0  0  0  0  0  0  0
   37.4650   27.1300   34.8110 C   0  0  0  0  0  0  0  0  0  0  0  0
   38.0950   26.8000   35.8560 O   0  0  0  0  0  0  0  0  0  0  0  0
   36.7530   28.2460   34.8860 N   0  0  0  0  0  0  0  0  0  0  0  0
   36.0440   28.6920   33.8310 C   0  0  0  0  0  0  0  0  0  0  0  0
   35.3390   29.7470   33.8210 O   0  0  0  0  0  0  0  0  0  0  0  0
   36.7000   28.8420   35.7550 H   0  0  0  0  0  0  0  0  0  0  0  0
  1  6  1  1  0  0  0
  1  2  1  0  0  0  0
  2  7  1  6  0  0  0
  2 14  1  0  0  0  0
  3  8  1  0  0  0  0
  3  9  1  0  0  0  0
  3  2  1  0  0  0  0
  4  3  1  0  0  0  0
  5  4  1  0  0  0  0
  5  1  1  0  0  0  0
 10  5  1  0  0  0  0
 11  5  1  0  0  0  0
 12 18  1  0  0  0  0
 12 17  1  0  0  0  0
 13 12  2  0  0  0  0
 14 13  1  0  0  0  0
 14 15  2  0  0  0  0
 15 16  1  0  0  0  0
 16 20  1  0  0  0  0
 16 17  2  0  0  0  0
 19 13  1  0  0  0  0
 21  1  1  0  0  0  0
 21 25  1  0  0  0  0
 22 23  1  0  0  0  0
 23 29  1  0  0  0  0
 24 23  1  0  0  0  0
 24 25  2  0  0  0  0
 25 26  1  0  0  0  0
 26 28  1  0  0  0  0
 26 27  2  0  0  0  0
 28 31  1  0  0  0  0
 29 28  1  0  0  0  0
 30 29  2  0  0  0  0
M  END
>  <minimizedAffinity>
-4.59114552

$$$$
