
 OpenBabel03272508283D

 39 42  0  0  1  0  0  0  0  0999 V2000
   33.8740   28.9340   47.2770 C   0  0  2  0  0  0  0  0  0  0  0  0
   34.6100   28.1590   48.3630 C   0  0  2  0  0  0  0  0  0  0  0  0
   33.7020   27.9990   49.3760 O   0  0  0  0  0  0  0  0  0  0  0  0
   32.4250   28.0780   48.9010 C   0  0  0  0  0  0  0  0  0  0  0  0
   32.4940   28.2750   47.3980 C   0  0  1  0  0  0  0  0  0  0  0  0
   33.7270   29.9920   47.5180 H   0  0  0  0  0  0  0  0  0  0  0  0
   34.9000   27.2010   47.8920 H   0  0  0  0  0  0  0  0  0  0  0  0
   31.9280   28.9380   49.4060 H   0  0  0  0  0  0  0  0  0  0  0  0
   31.9180   27.1170   49.1540 H   0  0  0  0  0  0  0  0  0  0  0  0
   32.5700   27.2800   46.9420 H   0  0  0  0  0  0  0  0  0  0  0  0
   35.6830   30.4120   49.0530 C   0  0  1  0  0  0  0  0  0  0  0  0
   35.7720   28.9950   48.7910 C   0  0  1  0  0  0  0  0  0  0  0  0
   35.9460   29.4310   50.2090 C   0  0  0  0  0  0  0  0  0  0  0  0
   34.7800   31.0180   49.2430 H   0  0  0  0  0  0  0  0  0  0  0  0
   36.7340   28.6600   48.3040 H   0  0  0  0  0  0  0  0  0  0  0  0
   36.9420   29.4190   50.6790 H   0  0  0  0  0  0  0  0  0  0  0  0
   35.0950   29.2120   50.8810 H   0  0  0  0  0  0  0  0  0  0  0  0
   36.8770   31.3260   48.8080 C   0  0  0  0  0  0  0  0  0  0  0  0
   37.0700   32.3720   49.7140 C   0  0  0  0  0  0  0  0  0  0  0  0
   38.1570   33.1880   49.4330 C   0  0  0  0  0  0  0  0  0  0  0  0
   38.9560   32.9590   48.3450 N   0  0  0  0  0  0  0  0  0  0  0  0
   38.7240   31.9270   47.4950 C   0  0  0  0  0  0  0  0  0  0  0  0
   37.6720   31.1010   47.7290 N   0  0  0  0  0  0  0  0  0  0  0  0
   36.4120   32.4980   50.5430 H   0  0  0  0  0  0  0  0  0  0  0  0
   38.3530   34.0150   50.1030 H   0  0  0  0  0  0  0  0  0  0  0  0
   39.3820   31.7960   46.6590 H   0  0  0  0  0  0  0  0  0  0  0  0
   34.3990   28.7700   46.0170 O   0  0  0  0  0  0  0  0  0  0  0  0
   35.0090   27.9980   45.9080 H   0  0  0  0  0  0  0  0  0  0  0  0
   31.5020   29.0560   46.8930 O   0  0  0  0  0  0  0  0  0  0  0  0
   27.8320   26.9340   45.3410 H   0  0  0  0  0  0  0  0  0  0  0  0
   28.6850   27.5010   45.0640 N   0  0  0  0  0  0  0  0  0  0  0  0
   29.4050   27.8260   46.1500 C   0  0  0  0  0  3  0  0  0  0  0  0
   30.5580   28.5670   46.0090 C   0  0  0  0  0  0  0  0  0  0  0  0
   30.9260   28.9490   44.7110 C   0  0  0  0  0  0  0  0  0  0  0  0
   31.9290   29.6200   44.3480 O   0  0  0  0  0  0  0  0  0  0  0  0
   30.1610   28.5940   43.6390 N   0  0  0  0  0  0  0  0  0  0  0  0
   29.0430   27.8710   43.8210 C   0  0  0  0  0  0  0  0  0  0  0  0
   28.2570   27.4830   42.9180 O   0  0  0  0  0  0  0  0  0  0  0  0
   30.3640   28.8370   42.6490 H   0  0  0  0  0  0  0  0  0  0  0  0
  1  5  1  0  0  0  0
  1  6  1  1  0  0  0
  1  2  1  0  0  0  0
  2  7  1  6  0  0  0
  2 12  1  0  0  0  0
  2  3  1  0  0  0  0
  4  9  1  0  0  0  0
  4  3  1  0  0  0  0
  4  8  1  0  0  0  0
  5 10  1  6  0  0  0
  5  4  1  0  0  0  0
 11 14  1  6  0  0  0
 11 13  1  0  0  0  0
 12 15  1  6  0  0  0
 12 11  1  0  0  0  0
 12 13  1  0  0  0  0
 13 16  1  0  0  0  0
 13 17  1  0  0  0  0
 18 11  1  0  0  0  0
 18 19  1  0  0  0  0
 19 24  1  0  0  0  0
 20 19  2  0  0  0  0
 20 25  1  0  0  0  0
 21 20  1  0  0  0  0
 22 23  1  0  0  0  0
 22 21  2  0  0  0  0
 23 18  2  0  0  0  0
 26 22  1  0  0  0  0
 27  1  1  0  0  0  0
 28 27  1  0  0  0  0
 29  5  1  0  0  0  0
 31 30  1  0  0  0  0
 31 32  1  0  0  0  0
 33 32  2  0  0  0  0
 33 29  1  0  0  0  0
 34 33  1  0  0  0  0
 35 34  2  0  0  0  0
 36 37  1  0  0  0  0
 36 34  1  0  0  0  0
 37 31  1  0  0  0  0
 38 37  2  0  0  0  0
 39 36  1  0  0  0  0
M  END
>  <minimizedAffinity>
-4.92317772

>  <minimizedRMSD>
0.307967603

$$$$
