
 OpenBabel03272505093D

 30 32  0  0  0  0  0  0  0  0999 V2000
   35.9220   30.5680   45.8680 Cl  0  0  0  0  0  0  0  0  0  0  0  0
   36.2100   30.1290   47.5340 C   0  0  0  0  0  0  0  0  0  0  0  0
   37.4390   30.4320   48.0490 C   0  0  0  0  0  0  0  0  0  0  0  0
   37.6940   30.0890   49.3800 C   0  0  0  0  0  0  0  0  0  0  0  0
   36.7160   29.4690   50.1190 C   0  0  0  0  0  0  0  0  0  0  0  0
   35.4940   29.1960   49.5260 C   0  0  0  0  0  0  0  0  0  0  0  0
   35.1830   29.5070   48.2240 C   0  0  0  0  0  0  0  0  0  0  0  0
   38.6580   30.3170   49.8110 H   0  0  0  0  0  0  0  0  0  0  0  0
   36.9050   29.2010   51.1500 H   0  0  0  0  0  0  0  0  0  0  0  0
   34.7290   28.7030   50.1280 H   0  0  0  0  0  0  0  0  0  0  0  0
   39.6300   33.0600   46.7580 C   0  0  0  0  0  0  0  0  0  0  0  0
   40.3520   32.4320   45.7310 C   0  0  0  0  0  0  0  0  0  0  0  0
   40.0640   31.0920   45.5010 C   0  0  0  0  0  0  0  0  0  0  0  0
   39.1190   30.4610   46.2620 N   0  0  0  0  0  0  0  0  0  0  0  0
   38.4590   31.0950   47.2240 C   0  0  0  0  0  0  0  0  0  0  0  0
   38.7200   32.3940   47.4650 N   0  0  0  0  0  0  0  0  0  0  0  0
   39.7810   34.0980   47.0100 H   0  0  0  0  0  0  0  0  0  0  0  0
   41.0830   33.0090   45.1790 H   0  0  0  0  0  0  0  0  0  0  0  0
   40.5960   30.5860   44.7280 H   0  0  0  0  0  0  0  0  0  0  0  0
   33.6250   29.1700   47.4540 S   0  0  0  0  0  0  0  0  0  0  0  0
   34.1460   24.4780   46.2390 H   0  0  0  0  0  0  0  0  0  0  0  0
   33.5750   25.1700   46.7730 N   0  0  0  0  0  0  0  0  0  0  0  0
   34.0120   26.4400   46.6870 C   0  0  0  0  0  3  0  0  0  0  0  0
   33.2820   27.4060   47.3840 C   0  0  0  0  0  0  0  0  0  0  0  0
   32.1610   27.0230   48.1230 C   0  0  0  0  0  0  0  0  0  0  0  0
   31.4510   27.8250   48.7770 O   0  0  0  0  0  0  0  0  0  0  0  0
   31.7710   25.7340   48.1720 N   0  0  0  0  0  0  0  0  0  0  0  0
   32.4960   24.8300   47.4890 C   0  0  0  0  0  0  0  0  0  0  0  0
   32.2060   23.6210   47.4810 O   0  0  0  0  0  0  0  0  0  0  0  0
   30.9310   25.4150   48.7190 H   0  0  0  0  0  0  0  0  0  0  0  0
  1  2  1  0  0  0  0
  2  3  2  0  0  0  0
  2  7  1  0  0  0  0
  3  4  1  0  0  0  0
  4  8  1  0  0  0  0
  4  5  2  0  0  0  0
  5  9  1  0  0  0  0
  6  5  1  0  0  0  0
  6 10  1  0  0  0  0
  7  6  2  0  0  0  0
 11 17  1  0  0  0  0
 11 16  1  0  0  0  0
 12 11  2  0  0  0  0
 13 12  1  0  0  0  0
 13 14  2  0  0  0  0
 14 15  1  0  0  0  0
 15 16  2  0  0  0  0
 15  3  1  0  0  0  0
 18 12  1  0  0  0  0
 19 13  1  0  0  0  0
 20  7  1  0  0  0  0
 21 22  1  0  0  0  0
 22 28  1  0  0  0  0
 23 22  1  0  0  0  0
 23 24  2  0  0  0  0
 24 20  1  0  0  0  0
 24 25  1  0  0  0  0
 25 27  1  0  0  0  0
 25 26  2  0  0  0  0
 27 30  1  0  0  0  0
 28 27  1  0  0  0  0
 29 28  2  0  0  0  0
M  END
>  <minimizedAffinity>
-5.45086861

>  <minimizedRMSD>
1.27403891

$$$$
