
 OpenBabel03262521473D

 31 32  0  0  0  0  0  0  0  0999 V2000
   35.6920   29.2680   51.1130 O   0  0  0  0  0  0  0  0  0  0  0  0
   36.8930   29.1650   50.4030 C   0  0  0  0  0  0  0  0  0  0  0  0
   37.4540   28.2400   50.6600 H   0  0  0  0  0  0  0  0  0  0  0  0
   36.7040   29.1330   49.3000 H   0  0  0  0  0  0  0  0  0  0  0  0
   37.7070   30.3870   50.6870 C   0  0  0  0  0  0  0  0  0  0  0  0
   38.6580   30.0700   51.2080 H   0  0  0  0  0  0  0  0  0  0  0  0
   37.2280   31.0830   51.4100 H   0  0  0  0  0  0  0  0  0  0  0  0
   38.0960   31.1410   49.5000 C   0  0  0  0  0  0  0  0  0  0  0  0
   38.5350   32.4650   49.5680 C   0  0  0  0  0  0  0  0  0  0  0  0
   38.8860   33.1000   48.3690 C   0  0  0  0  0  0  0  0  0  0  0  0
   38.7770   32.3820   47.1890 N   0  0  0  0  0  0  0  0  0  0  0  0
   38.3450   31.0970   47.1760 C   0  0  0  0  0  0  0  0  0  0  0  0
   38.0050   30.4840   48.3480 N   0  0  0  0  0  0  0  0  0  0  0  0
   38.6010   32.9770   50.5170 H   0  0  0  0  0  0  0  0  0  0  0  0
   39.2300   34.1150   48.3580 H   0  0  0  0  0  0  0  0  0  0  0  0
   38.2760   30.5760   46.2280 H   0  0  0  0  0  0  0  0  0  0  0  0
   34.6380   30.5340   49.0970 O   0  0  0  0  0  0  0  0  0  0  0  0
   34.3620   29.3900   50.0900 P   0  0  2  0  0  0  0  0  0  0  0  0
   32.9710   29.8170   50.9090 O   0  0  0  0  0  0  0  0  0  0  0  0
   32.9790   29.3690   51.7930 H   0  0  0  0  0  0  0  0  0  0  0  0
   34.0970   27.9550   49.2660 O   0  0  0  0  0  0  0  0  0  0  0  0
   33.6670   27.1510   44.9690 H   0  0  0  0  0  0  0  0  0  0  0  0
   33.1780   27.2880   45.8870 N   0  0  0  0  0  0  0  0  0  0  0  0
   33.8770   27.5370   47.0340 C   0  0  0  0  0  0  0  0  0  0  0  0
   33.2140   27.7180   48.2560 C   0  0  0  0  0  0  0  0  0  0  0  0
   31.8300   27.6360   48.2450 C   0  0  0  0  0  0  0  0  0  0  0  0
   31.3380   27.8130   49.3910 O   0  0  0  0  0  0  0  0  0  0  0  0
   31.1840   27.3880   47.0910 N   0  0  0  0  0  0  0  0  0  0  0  0
   31.8450   27.2200   45.9440 C   0  0  0  0  0  0  0  0  0  0  0  0
   31.1250   26.9930   44.9270 O   0  0  0  0  0  0  0  0  0  0  0  0
   30.1290   27.3420   47.1810 H   0  0  0  0  0  0  0  0  0  0  0  0
  2  3  1  0  0  0  0
  2  5  1  0  0  0  0
  2  1  1  0  0  0  0
  4  2  1  0  0  0  0
  5  6  1  0  0  0  0
  5  7  1  0  0  0  0
  8  9  1  0  0  0  0
  8  5  1  0  0  0  0
  9 14  1  0  0  0  0
 10  9  2  0  0  0  0
 11 10  1  0  0  0  0
 12 11  2  0  0  0  0
 12 13  1  0  0  0  0
 13  8  2  0  0  0  0
 15 10  1  0  0  0  0
 16 12  1  0  0  0  0
 18 17  2  6  0  0  0
 18 19  1  0  0  0  0
 18  1  1  0  0  0  0
 19 20  1  0  0  0  0
 21 18  1  0  0  0  0
 22 23  1  0  0  0  0
 23 29  1  0  0  0  0
 23 24  1  0  0  0  0
 24 25  2  0  0  0  0
 25 21  1  0  0  0  0
 26 25  1  0  0  0  0
 26 27  2  0  0  0  0
 28 31  1  0  0  0  0
 28 26  1  0  0  0  0
 29 28  1  0  0  0  0
 30 29  2  0  0  0  0
M  END
>  <minimizedAffinity>
-5.20590782

>  <minimizedRMSD>
0.765794396

$$$$
