
 OpenBabel03272508283D

 39 42  0  0  1  0  0  0  0  0999 V2000
   33.6460   28.7620   47.2000 C   0  0  2  0  0  0  0  0  0  0  0  0
   34.3720   28.0260   48.3190 C   0  0  2  0  0  0  0  0  0  0  0  0
   33.4780   27.9590   49.3530 O   0  0  0  0  0  0  0  0  0  0  0  0
   32.1960   28.0590   48.8950 C   0  0  0  0  0  0  0  0  0  0  0  0
   32.2450   28.1630   47.3820 C   0  0  1  0  0  0  0  0  0  0  0  0
   33.5420   29.8380   47.3800 H   0  0  0  0  0  0  0  0  0  0  0  0
   34.6180   27.0310   47.9010 H   0  0  0  0  0  0  0  0  0  0  0  0
   31.7400   28.9650   49.3550 H   0  0  0  0  0  0  0  0  0  0  0  0
   31.6590   27.1340   49.2120 H   0  0  0  0  0  0  0  0  0  0  0  0
   32.2760   27.1420   46.9850 H   0  0  0  0  0  0  0  0  0  0  0  0
   35.5060   30.2320   49.0580 C   0  0  1  0  0  0  0  0  0  0  0  0
   35.5720   28.8410   48.6780 C   0  0  1  0  0  0  0  0  0  0  0  0
   35.9030   29.1680   50.0970 C   0  0  0  0  0  0  0  0  0  0  0  0
   34.6290   30.8090   49.3950 H   0  0  0  0  0  0  0  0  0  0  0  0
   36.4740   28.5570   48.0610 H   0  0  0  0  0  0  0  0  0  0  0  0
   36.9460   29.1330   50.4500 H   0  0  0  0  0  0  0  0  0  0  0  0
   35.1340   28.8870   50.8410 H   0  0  0  0  0  0  0  0  0  0  0  0
   36.6610   31.1780   48.7530 C   0  0  0  0  0  0  0  0  0  0  0  0
   36.9690   32.1350   49.7230 C   0  0  0  0  0  0  0  0  0  0  0  0
   38.0130   32.9860   49.3860 C   0  0  0  0  0  0  0  0  0  0  0  0
   38.6680   32.8690   48.1900 N   0  0  0  0  0  0  0  0  0  0  0  0
   38.3290   31.9200   47.2810 C   0  0  0  0  0  0  0  0  0  0  0  0
   37.3130   31.0640   47.5660 N   0  0  0  0  0  0  0  0  0  0  0  0
   36.4210   32.1750   50.6360 H   0  0  0  0  0  0  0  0  0  0  0  0
   38.2930   33.7470   50.1030 H   0  0  0  0  0  0  0  0  0  0  0  0
   38.8760   31.8760   46.3600 H   0  0  0  0  0  0  0  0  0  0  0  0
   34.1420   28.5050   45.9440 O   0  0  0  0  0  0  0  0  0  0  0  0
   34.7210   27.7050   45.8720 H   0  0  0  0  0  0  0  0  0  0  0  0
   31.2730   28.9500   46.8470 O   0  0  0  0  0  0  0  0  0  0  0  0
   26.9820   27.5530   46.7400 H   0  0  0  0  0  0  0  0  0  0  0  0
   27.8690   27.6640   46.1690 N   0  0  0  0  0  0  0  0  0  0  0  0
   28.8460   28.2000   46.9210 C   0  0  0  0  0  3  0  0  0  0  0  0
   30.0870   28.4290   46.3660 C   0  0  0  0  0  0  0  0  0  0  0  0
   30.2670   28.0830   45.0200 C   0  0  0  0  0  0  0  0  0  0  0  0
   31.3040   28.2020   44.3140 O   0  0  0  0  0  0  0  0  0  0  0  0
   29.2440   27.5410   44.2990 N   0  0  0  0  0  0  0  0  0  0  0  0
   28.0480   27.3350   44.8780 C   0  0  0  0  0  0  0  0  0  0  0  0
   27.0310   26.8450   44.3210 O   0  0  0  0  0  0  0  0  0  0  0  0
   29.2950   27.2590   43.3000 H   0  0  0  0  0  0  0  0  0  0  0  0
  1  6  1  1  0  0  0
  1  5  1  0  0  0  0
  1  2  1  0  0  0  0
  2  7  1  6  0  0  0
  2 12  1  0  0  0  0
  2  3  1  0  0  0  0
  4  9  1  0  0  0  0
  4  3  1  0  0  0  0
  4  8  1  0  0  0  0
  5 10  1  6  0  0  0
  5  4  1  0  0  0  0
 11 14  1  1  0  0  0
 11 13  1  0  0  0  0
 12 15  1  6  0  0  0
 12 11  1  0  0  0  0
 12 13  1  0  0  0  0
 13 16  1  0  0  0  0
 13 17  1  0  0  0  0
 18 11  1  0  0  0  0
 18 19  1  0  0  0  0
 19 24  1  0  0  0  0
 20 19  2  0  0  0  0
 20 25  1  0  0  0  0
 21 20  1  0  0  0  0
 22 23  1  0  0  0  0
 22 21  2  0  0  0  0
 23 18  2  0  0  0  0
 26 22  1  0  0  0  0
 27  1  1  0  0  0  0
 28 27  1  0  0  0  0
 29  5  1  0  0  0  0
 31 30  1  0  0  0  0
 31 32  1  0  0  0  0
 33 29  1  0  0  0  0
 33 32  2  0  0  0  0
 34 33  1  0  0  0  0
 35 34  2  0  0  0  0
 36 37  1  0  0  0  0
 36 34  1  0  0  0  0
 37 31  1  0  0  0  0
 38 37  2  0  0  0  0
 39 36  1  0  0  0  0
M  END
>  <minimizedAffinity>
-5.11271763

>  <minimizedRMSD>
1.10243249

$$$$
