
 OpenBabel03272505093D

 30 32  0  0  0  0  0  0  0  0999 V2000
   38.1770   27.1650   33.0400 Cl  0  0  0  0  0  0  0  0  0  0  0  0
   37.0900   26.0330   32.2720 C   0  0  0  0  0  0  0  0  0  0  0  0
   36.0320   26.5620   31.5860 C   0  0  0  0  0  0  0  0  0  0  0  0
   35.1480   25.6760   30.9630 C   0  0  0  0  0  0  0  0  0  0  0  0
   35.3670   24.3230   31.0560 C   0  0  0  0  0  0  0  0  0  0  0  0
   36.4630   23.8650   31.7690 C   0  0  0  0  0  0  0  0  0  0  0  0
   37.3670   24.6830   32.4030 C   0  0  0  0  0  0  0  0  0  0  0  0
   34.3030   26.0680   30.4150 H   0  0  0  0  0  0  0  0  0  0  0  0
   34.6880   23.6310   30.5770 H   0  0  0  0  0  0  0  0  0  0  0  0
   36.6210   22.7870   31.8320 H   0  0  0  0  0  0  0  0  0  0  0  0
   36.3190   30.0070   30.3920 C   0  0  0  0  0  0  0  0  0  0  0  0
   35.5270   30.7460   31.2840 C   0  0  0  0  0  0  0  0  0  0  0  0
   34.9000   30.0300   32.2970 C   0  0  0  0  0  0  0  0  0  0  0  0
   35.0750   28.6760   32.3780 N   0  0  0  0  0  0  0  0  0  0  0  0
   35.8340   28.0160   31.5110 C   0  0  0  0  0  0  0  0  0  0  0  0
   36.4520   28.6880   30.5220 N   0  0  0  0  0  0  0  0  0  0  0  0
   36.8460   30.4720   29.5740 H   0  0  0  0  0  0  0  0  0  0  0  0
   35.4450   31.8160   31.1440 H   0  0  0  0  0  0  0  0  0  0  0  0
   34.2910   30.5630   32.9910 H   0  0  0  0  0  0  0  0  0  0  0  0
   38.7740   24.1130   33.3120 S   0  0  0  0  0  0  0  0  0  0  0  0
   38.2760   25.2740   38.0190 H   0  0  0  0  0  0  0  0  0  0  0  0
   38.1820   24.5190   37.3060 N   0  0  0  0  0  0  0  0  0  0  0  0
   38.5130   24.8870   36.0550 C   0  0  0  0  0  3  0  0  0  0  0  0
   38.4040   23.9130   35.0600 C   0  0  0  0  0  0  0  0  0  0  0  0
   37.9690   22.6290   35.3970 C   0  0  0  0  0  0  0  0  0  0  0  0
   37.8430   21.6960   34.5680 O   0  0  0  0  0  0  0  0  0  0  0  0
   37.6510   22.3180   36.6690 N   0  0  0  0  0  0  0  0  0  0  0  0
   37.7670   23.2800   37.6020 C   0  0  0  0  0  0  0  0  0  0  0  0
   37.4950   23.0770   38.7980 O   0  0  0  0  0  0  0  0  0  0  0  0
   37.3200   21.3600   36.9550 H   0  0  0  0  0  0  0  0  0  0  0  0
  2  7  1  0  0  0  0
  2  1  1  0  0  0  0
  3  2  2  0  0  0  0
  4  5  2  0  0  0  0
  4  3  1  0  0  0  0
  5  6  1  0  0  0  0
  6 10  1  0  0  0  0
  6  7  2  0  0  0  0
  7 20  1  0  0  0  0
  8  4  1  0  0  0  0
  9  5  1  0  0  0  0
 11 16  2  0  0  0  0
 11 12  1  0  0  0  0
 12 13  2  0  0  0  0
 13 14  1  0  0  0  0
 13 19  1  0  0  0  0
 15  3  1  0  0  0  0
 15 14  2  0  0  0  0
 16 15  1  0  0  0  0
 17 11  1  0  0  0  0
 18 12  1  0  0  0  0
 20 24  1  0  0  0  0
 22 28  1  0  0  0  0
 22 21  1  0  0  0  0
 23 22  1  0  0  0  0
 24 25  1  0  0  0  0
 24 23  2  0  0  0  0
 25 27  1  0  0  0  0
 26 25  2  0  0  0  0
 27 30  1  0  0  0  0
 27 28  1  0  0  0  0
 28 29  2  0  0  0  0
M  END
>  <minimizedAffinity>
-5.79840469

$$$$

 OpenBabel03272505093D

 30 32  0  0  0  0  0  0  0  0999 V2000
   38.5950   27.1320   32.5460 Cl  0  0  0  0  0  0  0  0  0  0  0  0
   37.3330   26.0470   32.0160 C   0  0  0  0  0  0  0  0  0  0  0  0
   36.3020   26.5980   31.3060 C   0  0  0  0  0  0  0  0  0  0  0  0
   35.2800   25.7490   30.8720 C   0  0  0  0  0  0  0  0  0  0  0  0
   35.3410   24.4090   31.1660 C   0  0  0  0  0  0  0  0  0  0  0  0
   36.4180   23.9260   31.8900 C   0  0  0  0  0  0  0  0  0  0  0  0
   37.4540   24.7080   32.3450 C   0  0  0  0  0  0  0  0  0  0  0  0
   34.4540   26.1600   30.3090 H   0  0  0  0  0  0  0  0  0  0  0  0
   34.5540   23.7460   30.8330 H   0  0  0  0  0  0  0  0  0  0  0  0
   36.4500   22.8590   32.1150 H   0  0  0  0  0  0  0  0  0  0  0  0
   36.9870   29.7690   29.6180 C   0  0  0  0  0  0  0  0  0  0  0  0
   36.2880   30.7200   30.3770 C   0  0  0  0  0  0  0  0  0  0  0  0
   35.5830   30.2410   31.4750 C   0  0  0  0  0  0  0  0  0  0  0  0
   35.5990   28.9030   31.7590 N   0  0  0  0  0  0  0  0  0  0  0  0
   36.2750   28.0370   31.0120 C   0  0  0  0  0  0  0  0  0  0  0  0
   36.9660   28.4790   29.9440 N   0  0  0  0  0  0  0  0  0  0  0  0
   37.5640   30.0440   28.7490 H   0  0  0  0  0  0  0  0  0  0  0  0
   36.3310   31.7600   30.0780 H   0  0  0  0  0  0  0  0  0  0  0  0
   35.0410   30.9380   32.0720 H   0  0  0  0  0  0  0  0  0  0  0  0
   38.8400   24.1050   33.2660 S   0  0  0  0  0  0  0  0  0  0  0  0
   37.2860   21.3160   36.9490 H   0  0  0  0  0  0  0  0  0  0  0  0
   37.6270   22.2620   36.6720 N   0  0  0  0  0  0  0  0  0  0  0  0
   37.9160   22.3920   35.3640 C   0  0  0  0  0  3  0  0  0  0  0  0
   38.3780   23.6400   34.9400 C   0  0  0  0  0  0  0  0  0  0  0  0
   38.5160   24.6760   35.8680 C   0  0  0  0  0  0  0  0  0  0  0  0
   38.9230   25.8240   35.5730 O   0  0  0  0  0  0  0  0  0  0  0  0
   38.2110   24.4860   37.1670 N   0  0  0  0  0  0  0  0  0  0  0  0
   37.7690   23.2720   37.5400 C   0  0  0  0  0  0  0  0  0  0  0  0
   37.4650   23.0130   38.7180 O   0  0  0  0  0  0  0  0  0  0  0  0
   38.3050   25.2460   37.8900 H   0  0  0  0  0  0  0  0  0  0  0  0
  2  7  1  0  0  0  0
  2  1  1  0  0  0  0
  3  2  2  0  0  0  0
  4  5  2  0  0  0  0
  4  3  1  0  0  0  0
  5  6  1  0  0  0  0
  6 10  1  0  0  0  0
  6  7  2  0  0  0  0
  7 20  1  0  0  0  0
  8  4  1  0  0  0  0
  9  5  1  0  0  0  0
 11 16  2  0  0  0  0
 11 12  1  0  0  0  0
 12 13  2  0  0  0  0
 13 14  1  0  0  0  0
 13 19  1  0  0  0  0
 15  3  1  0  0  0  0
 15 14  2  0  0  0  0
 16 15  1  0  0  0  0
 17 11  1  0  0  0  0
 18 12  1  0  0  0  0
 20 24  1  0  0  0  0
 22 21  1  0  0  0  0
 22 28  1  0  0  0  0
 23 22  1  0  0  0  0
 24 23  2  0  0  0  0
 24 25  1  0  0  0  0
 25 27  1  0  0  0  0
 26 25  2  0  0  0  0
 27 28  1  0  0  0  0
 27 30  1  0  0  0  0
 28 29  2  0  0  0  0
M  END
>  <minimizedAffinity>
-5.72984743

$$$$

 OpenBabel03272505093D

 30 32  0  0  0  0  0  0  0  0999 V2000
   37.3280   27.7360   34.9070 Cl  0  0  0  0  0  0  0  0  0  0  0  0
   37.4040   26.3140   33.8960 C   0  0  0  0  0  0  0  0  0  0  0  0
   37.0350   26.4660   32.5880 C   0  0  0  0  0  0  0  0  0  0  0  0
   37.0870   25.3410   31.7590 C   0  0  0  0  0  0  0  0  0  0  0  0
   37.5010   24.1370   32.2750 C   0  0  0  0  0  0  0  0  0  0  0  0
   37.8590   24.0640   33.6110 C   0  0  0  0  0  0  0  0  0  0  0  0
   37.8290   25.1320   34.4770 C   0  0  0  0  0  0  0  0  0  0  0  0
   36.8000   25.4340   30.7210 H   0  0  0  0  0  0  0  0  0  0  0  0
   37.5440   23.2630   31.6400 H   0  0  0  0  0  0  0  0  0  0  0  0
   38.1850   23.1000   34.0040 H   0  0  0  0  0  0  0  0  0  0  0  0
   37.1120   29.6410   30.7740 C   0  0  0  0  0  0  0  0  0  0  0  0
   35.8730   30.2310   31.0630 C   0  0  0  0  0  0  0  0  0  0  0  0
   35.0200   29.5110   31.8920 C   0  0  0  0  0  0  0  0  0  0  0  0
   35.4140   28.2940   32.3750 N   0  0  0  0  0  0  0  0  0  0  0  0
   36.5980   27.7720   32.0750 C   0  0  0  0  0  0  0  0  0  0  0  0
   37.4410   28.4510   31.2750 N   0  0  0  0  0  0  0  0  0  0  0  0
   37.8410   30.1220   30.1420 H   0  0  0  0  0  0  0  0  0  0  0  0
   35.6440   31.1990   30.6360 H   0  0  0  0  0  0  0  0  0  0  0  0
   34.0700   29.9330   32.1300 H   0  0  0  0  0  0  0  0  0  0  0  0
   38.2890   25.0550   36.1840 S   0  0  0  0  0  0  0  0  0  0  0  0
   42.3090   22.3830   35.5100 H   0  0  0  0  0  0  0  0  0  0  0  0
   41.4760   22.5440   36.1170 N   0  0  0  0  0  0  0  0  0  0  0  0
   40.6680   23.5390   35.7060 C   0  0  0  0  0  3  0  0  0  0  0  0
   39.5380   23.7970   36.4840 C   0  0  0  0  0  0  0  0  0  0  0  0
   39.2970   23.0300   37.6260 C   0  0  0  0  0  0  0  0  0  0  0  0
   38.3080   23.1940   38.3800 O   0  0  0  0  0  0  0  0  0  0  0  0
   40.1420   22.0450   37.9890 N   0  0  0  0  0  0  0  0  0  0  0  0
   41.2210   21.8240   37.2170 C   0  0  0  0  0  0  0  0  0  0  0  0
   42.0510   20.9350   37.4790 O   0  0  0  0  0  0  0  0  0  0  0  0
   39.9890   21.4500   38.8440 H   0  0  0  0  0  0  0  0  0  0  0  0
  2  7  1  0  0  0  0
  2  1  1  0  0  0  0
  3  2  2  0  0  0  0
  4  5  2  0  0  0  0
  4  3  1  0  0  0  0
  5  6  1  0  0  0  0
  6 10  1  0  0  0  0
  6  7  2  0  0  0  0
  7 20  1  0  0  0  0
  8  4  1  0  0  0  0
  9  5  1  0  0  0  0
 11 12  2  0  0  0  0
 11 16  1  0  0  0  0
 12 13  1  0  0  0  0
 13 19  1  0  0  0  0
 13 14  2  0  0  0  0
 15 14  1  0  0  0  0
 15  3  1  0  0  0  0
 16 15  2  0  0  0  0
 17 11  1  0  0  0  0
 18 12  1  0  0  0  0
 20 24  1  0  0  0  0
 21 22  1  0  0  0  0
 22 28  1  0  0  0  0
 23 22  1  0  0  0  0
 23 24  2  0  0  0  0
 24 25  1  0  0  0  0
 25 27  1  0  0  0  0
 25 26  2  0  0  0  0
 27 30  1  0  0  0  0
 28 29  2  0  0  0  0
 28 27  1  0  0  0  0
M  END
>  <minimizedAffinity>
-5.60766697

$$$$

 OpenBabel03272505093D

 30 32  0  0  0  0  0  0  0  0999 V2000
   36.7760   25.5030   32.3160 Cl  0  0  0  0  0  0  0  0  0  0  0  0
   37.4240   26.1270   33.8140 C   0  0  0  0  0  0  0  0  0  0  0  0
   37.2380   27.4590   34.0600 C   0  0  0  0  0  0  0  0  0  0  0  0
   37.7490   27.9820   35.2520 C   0  0  0  0  0  0  0  0  0  0  0  0
   38.4110   27.1540   36.1260 C   0  0  0  0  0  0  0  0  0  0  0  0
   38.5580   25.8150   35.8060 C   0  0  0  0  0  0  0  0  0  0  0  0
   38.0800   25.2410   34.6510 C   0  0  0  0  0  0  0  0  0  0  0  0
   37.6160   29.0320   35.4700 H   0  0  0  0  0  0  0  0  0  0  0  0
   38.8080   27.5510   37.0500 H   0  0  0  0  0  0  0  0  0  0  0  0
   39.0860   25.1720   36.5120 H   0  0  0  0  0  0  0  0  0  0  0  0
   34.5850   29.5100   32.6020 C   0  0  0  0  0  0  0  0  0  0  0  0
   35.1030   29.9100   31.3610 C   0  0  0  0  0  0  0  0  0  0  0  0
   36.3790   29.4570   31.0460 C   0  0  0  0  0  0  0  0  0  0  0  0
   37.0540   28.6650   31.9320 N   0  0  0  0  0  0  0  0  0  0  0  0
   36.5250   28.3100   33.0980 C   0  0  0  0  0  0  0  0  0  0  0  0
   35.2900   28.7360   33.4240 N   0  0  0  0  0  0  0  0  0  0  0  0
   33.6040   29.8100   32.9350 H   0  0  0  0  0  0  0  0  0  0  0  0
   34.4970   30.5390   30.7210 H   0  0  0  0  0  0  0  0  0  0  0  0
   36.8010   29.7440   30.1100 H   0  0  0  0  0  0  0  0  0  0  0  0
   38.2550   23.5310   34.2310 S   0  0  0  0  0  0  0  0  0  0  0  0
   42.6370   21.6680   35.2740 H   0  0  0  0  0  0  0  0  0  0  0  0
   41.6760   21.8590   35.6340 N   0  0  0  0  0  0  0  0  0  0  0  0
   40.8580   22.4610   34.7510 C   0  0  0  0  0  3  0  0  0  0  0  0
   39.5590   22.7390   35.1830 C   0  0  0  0  0  0  0  0  0  0  0  0
   39.1730   22.3890   36.4790 C   0  0  0  0  0  0  0  0  0  0  0  0
   38.0290   22.6020   36.9460 O   0  0  0  0  0  0  0  0  0  0  0  0
   40.0370   21.7870   37.3200 N   0  0  0  0  0  0  0  0  0  0  0  0
   41.2800   21.5340   36.8720 C   0  0  0  0  0  0  0  0  0  0  0  0
   42.1390   20.9820   37.5820 O   0  0  0  0  0  0  0  0  0  0  0  0
   39.7770   21.5120   38.3020 H   0  0  0  0  0  0  0  0  0  0  0  0
  1  2  1  0  0  0  0
  2  3  2  0  0  0  0
  2  7  1  0  0  0  0
  3  4  1  0  0  0  0
  4  8  1  0  0  0  0
  4  5  2  0  0  0  0
  5  9  1  0  0  0  0
  6  5  1  0  0  0  0
  6 10  1  0  0  0  0
  7  6  2  0  0  0  0
 11 17  1  0  0  0  0
 11 16  1  0  0  0  0
 12 11  2  0  0  0  0
 13 12  1  0  0  0  0
 13 14  2  0  0  0  0
 14 15  1  0  0  0  0
 15 16  2  0  0  0  0
 15  3  1  0  0  0  0
 18 12  1  0  0  0  0
 19 13  1  0  0  0  0
 20  7  1  0  0  0  0
 20 24  1  0  0  0  0
 21 22  1  0  0  0  0
 22 28  1  0  0  0  0
 23 24  2  0  0  0  0
 23 22  1  0  0  0  0
 24 25  1  0  0  0  0
 25 26  2  0  0  0  0
 25 27  1  0  0  0  0
 27 30  1  0  0  0  0
 28 27  1  0  0  0  0
 28 29  2  0  0  0  0
M  END
>  <minimizedAffinity>
-5.5440197

$$$$

 OpenBabel03272505093D

 30 32  0  0  0  0  0  0  0  0999 V2000
   37.4690   21.8560   34.9010 Cl  0  0  0  0  0  0  0  0  0  0  0  0
   37.7750   22.9650   33.5870 C   0  0  0  0  0  0  0  0  0  0  0  0
   37.2800   22.6200   32.3600 C   0  0  0  0  0  0  0  0  0  0  0  0
   37.5130   23.4920   31.2920 C   0  0  0  0  0  0  0  0  0  0  0  0
   38.2200   24.6500   31.5040 C   0  0  0  0  0  0  0  0  0  0  0  0
   38.6880   24.9300   32.7780 C   0  0  0  0  0  0  0  0  0  0  0  0
   38.4930   24.1150   33.8670 C   0  0  0  0  0  0  0  0  0  0  0  0
   37.1330   23.2420   30.3110 H   0  0  0  0  0  0  0  0  0  0  0  0
   38.4030   25.3300   30.6830 H   0  0  0  0  0  0  0  0  0  0  0  0
   39.2470   25.8550   32.9280 H   0  0  0  0  0  0  0  0  0  0  0  0
   36.6030   19.0970   31.6480 C   0  0  0  0  0  0  0  0  0  0  0  0
   35.2140   18.9770   31.8010 C   0  0  0  0  0  0  0  0  0  0  0  0
   34.5260   20.1330   32.1520 C   0  0  0  0  0  0  0  0  0  0  0  0
   35.2120   21.3020   32.3300 N   0  0  0  0  0  0  0  0  0  0  0  0
   36.5300   21.3710   32.1750 C   0  0  0  0  0  0  0  0  0  0  0  0
   37.2170   20.2640   31.8340 N   0  0  0  0  0  0  0  0  0  0  0  0
   37.2230   18.2570   31.3770 H   0  0  0  0  0  0  0  0  0  0  0  0
   34.7530   18.0100   31.6420 H   0  0  0  0  0  0  0  0  0  0  0  0
   33.4690   20.0740   32.2770 H   0  0  0  0  0  0  0  0  0  0  0  0
   39.0800   24.4620   35.5010 S   0  0  0  0  0  0  0  0  0  0  0  0
   42.8620   21.3880   35.4650 H   0  0  0  0  0  0  0  0  0  0  0  0
   42.0510   21.7460   36.0150 N   0  0  0  0  0  0  0  0  0  0  0  0
   41.3230   22.6890   35.3880 C   0  0  0  0  0  3  0  0  0  0  0  0
   40.2250   23.2030   36.0800 C   0  0  0  0  0  0  0  0  0  0  0  0
   39.9330   22.7270   37.3620 C   0  0  0  0  0  0  0  0  0  0  0  0
   38.9680   23.1330   38.0520 O   0  0  0  0  0  0  0  0  0  0  0  0
   40.6990   21.7810   37.9390 N   0  0  0  0  0  0  0  0  0  0  0  0
   41.7490   21.3080   37.2440 C   0  0  0  0  0  0  0  0  0  0  0  0
   42.5050   20.4340   37.7030 O   0  0  0  0  0  0  0  0  0  0  0  0
   40.5050   21.4030   38.9020 H   0  0  0  0  0  0  0  0  0  0  0  0
  2  7  1  0  0  0  0
  2  1  1  0  0  0  0
  3  2  2  0  0  0  0
  4  5  2  0  0  0  0
  4  3  1  0  0  0  0
  5  6  1  0  0  0  0
  6 10  1  0  0  0  0
  6  7  2  0  0  0  0
  7 20  1  0  0  0  0
  8  4  1  0  0  0  0
  9  5  1  0  0  0  0
 11 12  2  0  0  0  0
 11 16  1  0  0  0  0
 12 13  1  0  0  0  0
 13 19  1  0  0  0  0
 13 14  2  0  0  0  0
 15 14  1  0  0  0  0
 15  3  1  0  0  0  0
 16 15  2  0  0  0  0
 17 11  1  0  0  0  0
 18 12  1  0  0  0  0
 20 24  1  0  0  0  0
 21 22  1  0  0  0  0
 22 28  1  0  0  0  0
 23 22  1  0  0  0  0
 23 24  2  0  0  0  0
 24 25  1  0  0  0  0
 25 27  1  0  0  0  0
 25 26  2  0  0  0  0
 27 30  1  0  0  0  0
 28 29  2  0  0  0  0
 28 27  1  0  0  0  0
M  END
>  <minimizedAffinity>
-5.33416986

$$$$

 OpenBabel03272505093D

 30 32  0  0  0  0  0  0  0  0999 V2000
   38.2490   23.7110   33.4810 Cl  0  0  0  0  0  0  0  0  0  0  0  0
   38.1170   25.2650   34.2690 C   0  0  0  0  0  0  0  0  0  0  0  0
   38.7980   25.4210   35.4430 C   0  0  0  0  0  0  0  0  0  0  0  0
   38.7070   26.6560   36.0930 C   0  0  0  0  0  0  0  0  0  0  0  0
   37.9480   27.6590   35.5390 C   0  0  0  0  0  0  0  0  0  0  0  0
   37.2870   27.4220   34.3450 C   0  0  0  0  0  0  0  0  0  0  0  0
   37.3360   26.2320   33.6590 C   0  0  0  0  0  0  0  0  0  0  0  0
   39.2350   26.8060   37.0230 H   0  0  0  0  0  0  0  0  0  0  0  0
   37.8730   28.6170   36.0350 H   0  0  0  0  0  0  0  0  0  0  0  0
   36.6890   28.2300   33.9200 H   0  0  0  0  0  0  0  0  0  0  0  0
   39.7520   22.6180   37.5890 C   0  0  0  0  0  0  0  0  0  0  0  0
   41.0220   22.2460   37.1240 C   0  0  0  0  0  0  0  0  0  0  0  0
   41.5330   22.9820   36.0600 C   0  0  0  0  0  0  0  0  0  0  0  0
   40.7980   24.0050   35.5300 N   0  0  0  0  0  0  0  0  0  0  0  0
   39.5990   24.3240   36.0020 C   0  0  0  0  0  0  0  0  0  0  0  0
   39.0840   23.6260   37.0320 N   0  0  0  0  0  0  0  0  0  0  0  0
   39.2730   22.1080   38.4100 H   0  0  0  0  0  0  0  0  0  0  0  0
   41.5330   21.4210   37.6040 H   0  0  0  0  0  0  0  0  0  0  0  0
   42.4970   22.7230   35.6830 H   0  0  0  0  0  0  0  0  0  0  0  0
   36.5020   25.9170   32.1300 S   0  0  0  0  0  0  0  0  0  0  0  0
   36.2350   29.9940   29.4720 H   0  0  0  0  0  0  0  0  0  0  0  0
   36.7550   29.1030   29.6300 N   0  0  0  0  0  0  0  0  0  0  0  0
   36.2660   28.3380   30.6230 C   0  0  0  0  0  3  0  0  0  0  0  0
   36.9260   27.1330   30.8750 C   0  0  0  0  0  0  0  0  0  0  0  0
   38.0370   26.7810   30.1060 C   0  0  0  0  0  0  0  0  0  0  0  0
   38.6870   25.7210   30.2660 O   0  0  0  0  0  0  0  0  0  0  0  0
   38.4820   27.5890   29.1230 N   0  0  0  0  0  0  0  0  0  0  0  0
   37.8230   28.7410   28.9070 C   0  0  0  0  0  0  0  0  0  0  0  0
   38.1670   29.5430   28.0200 O   0  0  0  0  0  0  0  0  0  0  0  0
   39.3170   27.3520   28.5270 H   0  0  0  0  0  0  0  0  0  0  0  0
  1  2  1  0  0  0  0
  2  3  1  0  0  0  0
  3 15  1  0  0  0  0
  3  4  2  0  0  0  0
  4  8  1  0  0  0  0
  5  9  1  0  0  0  0
  5  4  1  0  0  0  0
  6  5  2  0  0  0  0
  7  2  2  0  0  0  0
  7  6  1  0  0  0  0
 10  6  1  0  0  0  0
 11 17  1  0  0  0  0
 12 11  1  0  0  0  0
 12 18  1  0  0  0  0
 13 12  2  0  0  0  0
 14 15  2  0  0  0  0
 14 13  1  0  0  0  0
 15 16  1  0  0  0  0
 16 11  2  0  0  0  0
 19 13  1  0  0  0  0
 20  7  1  0  0  0  0
 21 22  1  0  0  0  0
 22 23  1  0  0  0  0
 23 24  2  0  0  0  0
 24 20  1  0  0  0  0
 25 26  2  0  0  0  0
 25 24  1  0  0  0  0
 27 25  1  0  0  0  0
 28 27  1  0  0  0  0
 28 22  1  0  0  0  0
 29 28  2  0  0  0  0
 30 27  1  0  0  0  0
M  END
>  <minimizedAffinity>
-5.2723999

$$$$

 OpenBabel03272505093D

 30 32  0  0  0  0  0  0  0  0999 V2000
   37.4030   25.1090   33.5230 Cl  0  0  0  0  0  0  0  0  0  0  0  0
   38.9480   25.9230   33.5450 C   0  0  0  0  0  0  0  0  0  0  0  0
   39.7220   25.7480   34.6580 C   0  0  0  0  0  0  0  0  0  0  0  0
   40.9630   26.3910   34.7000 C   0  0  0  0  0  0  0  0  0  0  0  0
   41.3610   27.1650   33.6370 C   0  0  0  0  0  0  0  0  0  0  0  0
   40.5200   27.2930   32.5440 C   0  0  0  0  0  0  0  0  0  0  0  0
   39.2890   26.6880   32.4430 C   0  0  0  0  0  0  0  0  0  0  0  0
   41.5940   26.2690   35.5680 H   0  0  0  0  0  0  0  0  0  0  0  0
   42.3190   27.6650   33.6620 H   0  0  0  0  0  0  0  0  0  0  0  0
   40.8520   27.9120   31.7090 H   0  0  0  0  0  0  0  0  0  0  0  0
   39.4530   22.8860   36.9190 C   0  0  0  0  0  0  0  0  0  0  0  0
   38.4600   23.2640   37.8350 C   0  0  0  0  0  0  0  0  0  0  0  0
   37.8920   24.5200   37.6510 C   0  0  0  0  0  0  0  0  0  0  0  0
   38.3140   25.3100   36.6180 N   0  0  0  0  0  0  0  0  0  0  0  0
   39.2590   24.9110   35.7740 C   0  0  0  0  0  0  0  0  0  0  0  0
   39.8230   23.6990   35.9310 N   0  0  0  0  0  0  0  0  0  0  0  0
   39.9510   21.9320   36.9780 H   0  0  0  0  0  0  0  0  0  0  0  0
   38.1880   22.5750   38.6240 H   0  0  0  0  0  0  0  0  0  0  0  0
   37.1340   24.8370   38.3310 H   0  0  0  0  0  0  0  0  0  0  0  0
   38.2060   26.8370   31.0510 S   0  0  0  0  0  0  0  0  0  0  0  0
   35.0180   29.7780   33.2720 H   0  0  0  0  0  0  0  0  0  0  0  0
   35.5020   29.5570   32.3750 N   0  0  0  0  0  0  0  0  0  0  0  0
   36.3480   28.5120   32.4390 C   0  0  0  0  0  3  0  0  0  0  0  0
   37.0230   28.1740   31.2650 C   0  0  0  0  0  0  0  0  0  0  0  0
   36.7970   28.9130   30.1010 C   0  0  0  0  0  0  0  0  0  0  0  0
   37.3600   28.6770   29.0060 O   0  0  0  0  0  0  0  0  0  0  0  0
   35.9370   29.9500   30.0970 N   0  0  0  0  0  0  0  0  0  0  0  0
   35.3040   30.2490   31.2460 C   0  0  0  0  0  0  0  0  0  0  0  0
   34.4930   31.1890   31.3280 O   0  0  0  0  0  0  0  0  0  0  0  0
   35.7450   30.5270   29.2370 H   0  0  0  0  0  0  0  0  0  0  0  0
  1  2  1  0  0  0  0
  2  3  1  0  0  0  0
  3  4  2  0  0  0  0
  3 15  1  0  0  0  0
  4  8  1  0  0  0  0
  5  9  1  0  0  0  0
  5  4  1  0  0  0  0
  6  5  2  0  0  0  0
  7  6  1  0  0  0  0
  7  2  2  0  0  0  0
 10  6  1  0  0  0  0
 11 17  1  0  0  0  0
 11 12  1  0  0  0  0
 12 18  1  0  0  0  0
 13 12  2  0  0  0  0
 13 19  1  0  0  0  0
 14 13  1  0  0  0  0
 15 16  1  0  0  0  0
 15 14  2  0  0  0  0
 16 11  2  0  0  0  0
 20 24  1  0  0  0  0
 20  7  1  0  0  0  0
 22 23  1  0  0  0  0
 22 21  1  0  0  0  0
 24 23  2  0  0  0  0
 25 24  1  0  0  0  0
 26 25  2  0  0  0  0
 27 25  1  0  0  0  0
 27 28  1  0  0  0  0
 28 29  2  0  0  0  0
 28 22  1  0  0  0  0
 30 27  1  0  0  0  0
M  END
>  <minimizedAffinity>
-5.21796227

$$$$

 OpenBabel03272505093D

 30 32  0  0  0  0  0  0  0  0999 V2000
   39.1360   26.4090   34.7320 Cl  0  0  0  0  0  0  0  0  0  0  0  0
   38.4610   25.1640   33.7090 C   0  0  0  0  0  0  0  0  0  0  0  0
   38.1760   23.9650   34.3010 C   0  0  0  0  0  0  0  0  0  0  0  0
   37.6360   22.9530   33.5020 C   0  0  0  0  0  0  0  0  0  0  0  0
   37.4120   23.1890   32.1680 C   0  0  0  0  0  0  0  0  0  0  0  0
   37.7270   24.4310   31.6410 C   0  0  0  0  0  0  0  0  0  0  0  0
   38.2600   25.4660   32.3730 C   0  0  0  0  0  0  0  0  0  0  0  0
   37.4020   21.9960   33.9460 H   0  0  0  0  0  0  0  0  0  0  0  0
   36.9940   22.4110   31.5440 H   0  0  0  0  0  0  0  0  0  0  0  0
   37.5420   24.6010   30.5790 H   0  0  0  0  0  0  0  0  0  0  0  0
   39.8340   22.8390   37.3600 C   0  0  0  0  0  0  0  0  0  0  0  0
   39.0010   23.2980   38.3920 C   0  0  0  0  0  0  0  0  0  0  0  0
   37.8640   23.9990   38.0050 C   0  0  0  0  0  0  0  0  0  0  0  0
   37.6150   24.2060   36.6760 N   0  0  0  0  0  0  0  0  0  0  0  0
   38.4320   23.7530   35.7320 C   0  0  0  0  0  0  0  0  0  0  0  0
   39.5380   23.0700   36.0830 N   0  0  0  0  0  0  0  0  0  0  0  0
   40.7370   22.2850   37.5600 H   0  0  0  0  0  0  0  0  0  0  0  0
   39.2760   23.0890   39.4170 H   0  0  0  0  0  0  0  0  0  0  0  0
   37.2110   24.3620   38.7650 H   0  0  0  0  0  0  0  0  0  0  0  0
   38.6620   27.0590   31.7160 S   0  0  0  0  0  0  0  0  0  0  0  0
   34.9010   29.5790   33.5210 H   0  0  0  0  0  0  0  0  0  0  0  0
   35.4580   29.3610   32.6670 N   0  0  0  0  0  0  0  0  0  0  0  0
   36.4730   28.4990   32.8650 C   0  0  0  0  0  3  0  0  0  0  0  0
   37.2520   28.1730   31.7530 C   0  0  0  0  0  0  0  0  0  0  0  0
   36.9520   28.7390   30.5110 C   0  0  0  0  0  0  0  0  0  0  0  0
   37.5980   28.5020   29.4640 O   0  0  0  0  0  0  0  0  0  0  0  0
   35.9220   29.5970   30.3730 N   0  0  0  0  0  0  0  0  0  0  0  0
   35.1930   29.8890   31.4650 C   0  0  0  0  0  0  0  0  0  0  0  0
   34.2250   30.6700   31.4250 O   0  0  0  0  0  0  0  0  0  0  0  0
   35.6710   30.0410   29.4520 H   0  0  0  0  0  0  0  0  0  0  0  0
  2  3  1  0  0  0  0
  2  1  1  0  0  0  0
  3 15  1  0  0  0  0
  4  8  1  0  0  0  0
  4  3  2  0  0  0  0
  5  4  1  0  0  0  0
  6  5  2  0  0  0  0
  6  7  1  0  0  0  0
  7  2  2  0  0  0  0
  9  5  1  0  0  0  0
 10  6  1  0  0  0  0
 11 17  1  0  0  0  0
 11 12  1  0  0  0  0
 12 18  1  0  0  0  0
 13 12  2  0  0  0  0
 13 19  1  0  0  0  0
 14 13  1  0  0  0  0
 15 16  1  0  0  0  0
 15 14  2  0  0  0  0
 16 11  2  0  0  0  0
 20 24  1  0  0  0  0
 20  7  1  0  0  0  0
 22 23  1  0  0  0  0
 22 21  1  0  0  0  0
 24 23  2  0  0  0  0
 25 24  1  0  0  0  0
 26 25  2  0  0  0  0
 27 25  1  0  0  0  0
 27 28  1  0  0  0  0
 28 22  1  0  0  0  0
 29 28  2  0  0  0  0
 30 27  1  0  0  0  0
M  END
>  <minimizedAffinity>
-5.14695549

$$$$

 OpenBabel03272505093D

 30 32  0  0  0  0  0  0  0  0999 V2000
   36.5540   27.8460   34.8320 Cl  0  0  0  0  0  0  0  0  0  0  0  0
   36.4340   28.5540   33.2390 C   0  0  0  0  0  0  0  0  0  0  0  0
   35.6890   29.6940   33.1250 C   0  0  0  0  0  0  0  0  0  0  0  0
   35.5780   30.2790   31.8600 C   0  0  0  0  0  0  0  0  0  0  0  0
   36.2110   29.6990   30.7870 C   0  0  0  0  0  0  0  0  0  0  0  0
   36.9480   28.5430   30.9840 C   0  0  0  0  0  0  0  0  0  0  0  0
   37.0960   27.9210   32.2010 C   0  0  0  0  0  0  0  0  0  0  0  0
   34.9950   31.1810   31.7420 H   0  0  0  0  0  0  0  0  0  0  0  0
   36.1300   30.1460   29.8060 H   0  0  0  0  0  0  0  0  0  0  0  0
   37.4440   28.0970   30.1210 H   0  0  0  0  0  0  0  0  0  0  0  0
   35.2150   31.6730   36.1640 C   0  0  0  0  0  0  0  0  0  0  0  0
   33.8790   31.4360   36.5230 C   0  0  0  0  0  0  0  0  0  0  0  0
   33.1570   30.5840   35.6950 C   0  0  0  0  0  0  0  0  0  0  0  0
   33.7590   30.0310   34.6000 N   0  0  0  0  0  0  0  0  0  0  0  0
   35.0280   30.2830   34.2980 C   0  0  0  0  0  0  0  0  0  0  0  0
   35.7480   31.1040   35.0850 N   0  0  0  0  0  0  0  0  0  0  0  0
   35.8560   32.3170   36.7440 H   0  0  0  0  0  0  0  0  0  0  0  0
   33.4840   31.9170   37.4080 H   0  0  0  0  0  0  0  0  0  0  0  0
   32.1380   30.3850   35.9410 H   0  0  0  0  0  0  0  0  0  0  0  0
   38.0390   26.4470   32.4690 S   0  0  0  0  0  0  0  0  0  0  0  0
   34.5680   23.6340   30.5220 H   0  0  0  0  0  0  0  0  0  0  0  0
   35.3990   23.6610   31.1510 N   0  0  0  0  0  0  0  0  0  0  0  0
   35.9650   24.8760   31.2780 C   0  0  0  0  0  3  0  0  0  0  0  0
   37.0830   24.9680   32.1100 C   0  0  0  0  0  0  0  0  0  0  0  0
   37.5540   23.8240   32.7600 C   0  0  0  0  0  0  0  0  0  0  0  0
   38.5500   23.8180   33.5230 O   0  0  0  0  0  0  0  0  0  0  0  0
   36.9460   22.6330   32.5940 N   0  0  0  0  0  0  0  0  0  0  0  0
   35.8720   22.5810   31.7860 C   0  0  0  0  0  0  0  0  0  0  0  0
   35.2520   21.5230   31.5790 O   0  0  0  0  0  0  0  0  0  0  0  0
   37.2770   21.7540   33.0690 H   0  0  0  0  0  0  0  0  0  0  0  0
  2  1  1  0  0  0  0
  3  2  1  0  0  0  0
  3 15  1  0  0  0  0
  4  3  2  0  0  0  0
  5  6  2  0  0  0  0
  5  4  1  0  0  0  0
  6  7  1  0  0  0  0
  7 20  1  0  0  0  0
  7  2  2  0  0  0  0
  8  4  1  0  0  0  0
  9  5  1  0  0  0  0
 10  6  1  0  0  0  0
 11 12  1  0  0  0  0
 11 17  1  0  0  0  0
 12 18  1  0  0  0  0
 13 19  1  0  0  0  0
 13 12  2  0  0  0  0
 14 13  1  0  0  0  0
 15 14  2  0  0  0  0
 15 16  1  0  0  0  0
 16 11  2  0  0  0  0
 21 22  1  0  0  0  0
 22 23  1  0  0  0  0
 22 28  1  0  0  0  0
 23 24  2  0  0  0  0
 24 20  1  0  0  0  0
 24 25  1  0  0  0  0
 25 26  2  0  0  0  0
 27 25  1  0  0  0  0
 27 30  1  0  0  0  0
 28 27  1  0  0  0  0
 29 28  2  0  0  0  0
M  END
>  <minimizedAffinity>
-5.14021587

$$$$
