
 OpenBabel03272504423D

 46 48  0  0  0  0  0  0  0  0999 V2000
   34.4590   29.2650   48.8420 C   0  0  0  0  0  0  0  0  0  0  0  0
   35.3340   29.2600   49.5350 H   0  0  0  0  0  0  0  0  0  0  0  0
   33.8230   30.1040   49.2520 H   0  0  0  0  0  0  0  0  0  0  0  0
   37.2210   30.3580   48.7170 Cl  0  0  0  0  0  0  0  0  0  0  0  0
   36.1590   30.1980   47.3120 C   0  0  0  0  0  0  0  0  0  0  0  0
   36.5980   30.5890   46.0970 C   0  0  0  0  0  0  0  0  0  0  0  0
   35.7770   30.4670   44.9990 C   0  0  0  0  0  0  0  0  0  0  0  0
   34.5050   29.9400   45.1700 C   0  0  0  0  0  0  0  0  0  0  0  0
   34.1140   29.5540   46.4650 C   0  0  0  0  0  0  0  0  0  0  0  0
   34.9060   29.6670   47.5430 C   0  0  0  0  0  0  0  0  0  0  0  0
   36.1560   30.7910   44.0200 H   0  0  0  0  0  0  0  0  0  0  0  0
   33.9440   29.8880   44.2490 H   0  0  0  0  0  0  0  0  0  0  0  0
   33.1490   29.1980   46.3770 H   0  0  0  0  0  0  0  0  0  0  0  0
   39.5810   32.7380   46.4240 C   0  0  0  0  0  0  0  0  0  0  0  0
   40.4770   32.0850   45.5140 C   0  0  0  0  0  0  0  0  0  0  0  0
   40.0180   30.9390   44.8320 C   0  0  0  0  0  0  0  0  0  0  0  0
   38.7520   30.5040   45.0630 N   0  0  0  0  0  0  0  0  0  0  0  0
   37.9320   31.1440   45.9290 C   0  0  0  0  0  0  0  0  0  0  0  0
   38.3510   32.2370   46.5890 N   0  0  0  0  0  0  0  0  0  0  0  0
   39.9730   33.6070   46.9220 H   0  0  0  0  0  0  0  0  0  0  0  0
   41.4730   32.4720   45.3670 H   0  0  0  0  0  0  0  0  0  0  0  0
   40.9210   30.3290   43.9520 N   0  0  0  0  0  0  0  0  0  0  0  0
   41.8720   29.9880   44.1860 H   0  0  0  0  0  0  0  0  0  0  0  0
   40.4410   30.2930   43.0230 H   0  0  0  0  0  0  0  0  0  0  0  0
   33.7420   28.0050   49.0210 C   0  0  0  0  0  0  0  0  0  0  0  0
   34.1230   27.3750   49.8740 H   0  0  0  0  0  0  0  0  0  0  0  0
   33.8910   27.3590   48.1140 H   0  0  0  0  0  0  0  0  0  0  0  0
   32.4040   28.2030   49.2340 O   0  0  0  0  0  0  0  0  0  0  0  0
   32.3240   26.0990   47.6650 O   0  0  0  0  0  0  0  0  0  0  0  0
   31.4960   27.2150   48.2490 P   0  0  2  0  0  0  0  0  0  0  0  0
   30.9050   28.2270   46.9720 O   0  0  0  0  0  0  0  0  0  0  0  0
   26.9320   30.0470   46.3810 H   0  0  0  0  0  0  0  0  0  0  0  0
   27.5680   29.2310   46.1970 N   0  0  0  0  0  0  0  0  0  0  0  0
   28.8420   29.2060   46.6820 C   0  0  0  0  0  3  0  0  0  0  0  0
   29.6590   28.1010   46.4170 C   0  0  0  0  0  0  0  0  0  0  0  0
   29.1260   27.0890   45.6720 C   0  0  0  0  0  0  0  0  0  0  0  0
   29.9110   26.1300   45.4700 O   0  0  0  0  0  0  0  0  0  0  0  0
   27.8730   27.1170   45.1960 N   0  0  0  0  0  0  0  0  0  0  0  0
   27.0900   28.1960   45.4610 C   0  0  0  0  0  0  0  0  0  0  0  0
   25.9220   28.1870   44.9990 O   0  0  0  0  0  0  0  0  0  0  0  0
   27.5130   26.3170   44.6300 H   0  0  0  0  0  0  0  0  0  0  0  0
   30.1570   26.5900   48.9910 O   0  0  0  0  0  0  0  0  0  0  0  0
   29.6880   27.4440   49.9650 C   0  0  0  0  0  0  0  0  0  0  0  0
   29.3520   26.7760   51.1400 F   0  0  0  0  0  0  0  0  0  0  0  0
   30.6400   28.3730   50.3300 F   0  0  0  0  0  0  0  0  0  0  0  0
   28.5530   28.1020   49.5000 F   0  0  0  0  0  0  0  0  0  0  0  0
  1 25  1  0  0  0  0
  1  3  1  0  0  0  0
  1  2  1  0  0  0  0
  5 10  1  0  0  0  0
  5  4  1  0  0  0  0
  6  5  2  0  0  0  0
  7  8  2  0  0  0  0
  7  6  1  0  0  0  0
  8  9  1  0  0  0  0
  9 10  2  0  0  0  0
 10  1  1  0  0  0  0
 11  7  1  0  0  0  0
 12  8  1  0  0  0  0
 13  9  1  0  0  0  0
 14 19  1  0  0  0  0
 14 20  1  0  0  0  0
 15 14  2  0  0  0  0
 16 17  2  0  0  0  0
 16 15  1  0  0  0  0
 17 18  1  0  0  0  0
 18  6  1  0  0  0  0
 18 19  2  0  0  0  0
 21 15  1  0  0  0  0
 22 23  1  0  0  0  0
 22 16  1  0  0  0  0
 24 22  1  0  0  0  0
 25 28  1  0  0  0  0
 25 26  1  0  0  0  0
 27 25  1  0  0  0  0
 30 29  2  6  0  0  0
 30 42  1  0  0  0  0
 30 28  1  0  0  0  0
 31 30  1  0  0  0  0
 33 32  1  0  0  0  0
 33 34  1  0  0  0  0
 35 34  2  0  0  0  0
 35 31  1  0  0  0  0
 36 35  1  0  0  0  0
 37 36  2  0  0  0  0
 38 39  1  0  0  0  0
 38 36  1  0  0  0  0
 39 33  1  0  0  0  0
 40 39  2  0  0  0  0
 41 38  1  0  0  0  0
 42 43  1  0  0  0  0
 43 45  1  0  0  0  0
 43 44  1  0  0  0  0
 46 43  1  0  0  0  0
M  END
>  <minimizedAffinity>
-6.14203978

>  <minimizedRMSD>
0.703584969

$$$$
