
 OpenBabel03262522193D

 25 26  0  0  0  0  0  0  0  0999 V2000
   39.2440   27.0260   35.4470 O   0  0  0  0  0  0  0  0  0  0  0  0
   38.0170   26.2360   35.0420 P   0  0  1  0  0  0  0  0  0  0  0  0
   36.6830   27.2820   34.9820 O   0  0  0  0  0  0  0  0  0  0  0  0
   37.0400   28.1780   34.7800 H   0  0  0  0  0  0  0  0  0  0  0  0
   38.2460   25.6670   33.4690 O   0  0  0  0  0  0  0  0  0  0  0  0
   36.4060   25.3630   31.9630 C   0  0  0  0  0  0  0  0  0  0  0  0
   37.4300   24.8270   32.7580 C   0  0  0  0  0  0  0  0  0  0  0  0
   37.5500   23.4370   32.7730 C   0  0  0  0  0  0  0  0  0  0  0  0
   36.6890   22.6860   32.0320 N   0  0  0  0  0  0  0  0  0  0  0  0
   35.7200   23.2580   31.2830 C   0  0  0  0  0  0  0  0  0  0  0  0
   35.5760   24.6060   31.2460 N   0  0  0  0  0  0  0  0  0  0  0  0
   36.2340   26.4300   31.8870 H   0  0  0  0  0  0  0  0  0  0  0  0
   38.3270   22.9830   33.3750 H   0  0  0  0  0  0  0  0  0  0  0  0
   35.0590   22.6430   30.7120 H   0  0  0  0  0  0  0  0  0  0  0  0
   37.8030   25.0190   36.1690 O   0  0  0  0  0  0  0  0  0  0  0  0
   41.5180   22.4750   35.5500 H   0  0  0  0  0  0  0  0  0  0  0  0
   40.7170   22.7620   36.1800 N   0  0  0  0  0  0  0  0  0  0  0  0
   39.8550   23.6790   35.7030 C   0  0  0  0  0  3  0  0  0  0  0  0
   38.7910   24.0940   36.4770 C   0  0  0  0  0  0  0  0  0  0  0  0
   38.6520   23.5320   37.7510 C   0  0  0  0  0  0  0  0  0  0  0  0
   37.7370   23.8080   38.5740 O   0  0  0  0  0  0  0  0  0  0  0  0
   39.5360   22.6150   38.1990 N   0  0  0  0  0  0  0  0  0  0  0  0
   40.5510   22.2400   37.4190 C   0  0  0  0  0  0  0  0  0  0  0  0
   41.4120   21.4030   37.7450 O   0  0  0  0  0  0  0  0  0  0  0  0
   39.5150   22.1470   39.1220 H   0  0  0  0  0  0  0  0  0  0  0  0
  2  1  2  1  0  0  0
  2 15  1  0  0  0  0
  3  2  1  0  0  0  0
  4  3  1  0  0  0  0
  5  2  1  0  0  0  0
  6  7  1  0  0  0  0
  7  8  2  0  0  0  0
  7  5  1  0  0  0  0
  8 13  1  0  0  0  0
  9  8  1  0  0  0  0
 10  9  2  0  0  0  0
 11 10  1  0  0  0  0
 11  6  2  0  0  0  0
 12  6  1  0  0  0  0
 14 10  1  0  0  0  0
 15 19  1  0  0  0  0
 16 17  1  0  0  0  0
 17 23  1  0  0  0  0
 18 17  1  0  0  0  0
 18 19  2  0  0  0  0
 19 20  1  0  0  0  0
 20 22  1  0  0  0  0
 20 21  2  0  0  0  0
 22 25  1  0  0  0  0
 23 24  2  0  0  0  0
 23 22  1  0  0  0  0
M  END
>  <minimizedAffinity>
-5.2434535

$$$$

 OpenBabel03262522193D

 25 26  0  0  0  0  0  0  0  0999 V2000
   39.3040   26.2290   34.5480 O   0  0  0  0  0  0  0  0  0  0  0  0
   38.0870   26.2560   35.4500 P   0  0  1  0  0  0  0  0  0  0  0  0
   38.4010   27.2780   36.7670 O   0  0  0  0  0  0  0  0  0  0  0  0
   39.0580   27.9420   36.4540 H   0  0  0  0  0  0  0  0  0  0  0  0
   36.8080   26.9550   34.5980 O   0  0  0  0  0  0  0  0  0  0  0  0
   36.6510   28.4550   32.7340 C   0  0  0  0  0  0  0  0  0  0  0  0
   36.7130   27.1490   33.2460 C   0  0  0  0  0  0  0  0  0  0  0  0
   36.6720   26.1100   32.3160 C   0  0  0  0  0  0  0  0  0  0  0  0
   36.5760   26.4040   30.9900 N   0  0  0  0  0  0  0  0  0  0  0  0
   36.5200   27.6830   30.5540 C   0  0  0  0  0  0  0  0  0  0  0  0
   36.5580   28.7170   31.4310 N   0  0  0  0  0  0  0  0  0  0  0  0
   36.6760   29.3260   33.3770 H   0  0  0  0  0  0  0  0  0  0  0  0
   36.7170   25.0870   32.6690 H   0  0  0  0  0  0  0  0  0  0  0  0
   36.4450   27.8830   29.5090 H   0  0  0  0  0  0  0  0  0  0  0  0
   37.7850   24.6850   35.9400 O   0  0  0  0  0  0  0  0  0  0  0  0
   41.3730   21.9460   35.4080 H   0  0  0  0  0  0  0  0  0  0  0  0
   40.6550   22.3740   36.0570 N   0  0  0  0  0  0  0  0  0  0  0  0
   39.7540   23.2130   35.5130 C   0  0  0  0  0  3  0  0  0  0  0  0
   38.7920   23.8020   36.3070 C   0  0  0  0  0  0  0  0  0  0  0  0
   38.7960   23.4980   37.6720 C   0  0  0  0  0  0  0  0  0  0  0  0
   37.9860   23.9550   38.5250 O   0  0  0  0  0  0  0  0  0  0  0  0
   39.7160   22.6530   38.1860 N   0  0  0  0  0  0  0  0  0  0  0  0
   40.6280   22.1030   37.3840 C   0  0  0  0  0  0  0  0  0  0  0  0
   41.5120   21.3150   37.7650 O   0  0  0  0  0  0  0  0  0  0  0  0
   39.7970   22.3690   39.1780 H   0  0  0  0  0  0  0  0  0  0  0  0
  2  1  2  6  0  0  0
  2 15  1  0  0  0  0
  2  3  1  0  0  0  0
  4  3  1  0  0  0  0
  5  2  1  0  0  0  0
  6  7  1  0  0  0  0
  6 12  1  0  0  0  0
  7  5  1  0  0  0  0
  8 13  1  0  0  0  0
  8  7  2  0  0  0  0
  9  8  1  0  0  0  0
 10  9  2  0  0  0  0
 10 11  1  0  0  0  0
 11  6  2  0  0  0  0
 14 10  1  0  0  0  0
 15 19  1  0  0  0  0
 16 17  1  0  0  0  0
 17 23  1  0  0  0  0
 18 17  1  0  0  0  0
 18 19  2  0  0  0  0
 19 20  1  0  0  0  0
 20 22  1  0  0  0  0
 20 21  2  0  0  0  0
 22 25  1  0  0  0  0
 23 24  2  0  0  0  0
 23 22  1  0  0  0  0
M  END
>  <minimizedAffinity>
-5.19319105

$$$$

 OpenBabel03262522193D

 25 26  0  0  0  0  0  0  0  0999 V2000
   39.7530   26.9630   34.2260 O   0  0  0  0  0  0  0  0  0  0  0  0
   38.7640   26.5140   35.2810 P   0  0  1  0  0  0  0  0  0  0  0  0
   38.7300   27.6640   36.5280 O   0  0  0  0  0  0  0  0  0  0  0  0
   38.9780   28.5250   36.1190 H   0  0  0  0  0  0  0  0  0  0  0  0
   37.2210   26.5080   34.5970 O   0  0  0  0  0  0  0  0  0  0  0  0
   36.8020   25.7870   32.3490 C   0  0  0  0  0  0  0  0  0  0  0  0
   36.8790   26.8110   33.3060 C   0  0  0  0  0  0  0  0  0  0  0  0
   36.5960   28.1040   32.8640 C   0  0  0  0  0  0  0  0  0  0  0  0
   36.2660   28.3050   31.5590 N   0  0  0  0  0  0  0  0  0  0  0  0
   36.2070   27.2790   30.6800 C   0  0  0  0  0  0  0  0  0  0  0  0
   36.4770   26.0100   31.0760 N   0  0  0  0  0  0  0  0  0  0  0  0
   37.0040   24.7520   32.5960 H   0  0  0  0  0  0  0  0  0  0  0  0
   36.6450   28.9230   33.5700 H   0  0  0  0  0  0  0  0  0  0  0  0
   35.9460   27.4670   29.6620 H   0  0  0  0  0  0  0  0  0  0  0  0
   39.2580   25.0140   35.8320 O   0  0  0  0  0  0  0  0  0  0  0  0
   37.3020   21.3720   33.9450 H   0  0  0  0  0  0  0  0  0  0  0  0
   37.4300   21.9840   34.7990 N   0  0  0  0  0  0  0  0  0  0  0  0
   38.2510   23.0450   34.6780 C   0  0  0  0  0  3  0  0  0  0  0  0
   38.4590   23.8810   35.7550 C   0  0  0  0  0  0  0  0  0  0  0  0
   37.7960   23.5840   36.9510 C   0  0  0  0  0  0  0  0  0  0  0  0
   37.8840   24.2490   38.0200 O   0  0  0  0  0  0  0  0  0  0  0  0
   36.9810   22.5110   37.0380 N   0  0  0  0  0  0  0  0  0  0  0  0
   36.8050   21.7280   35.9730 C   0  0  0  0  0  0  0  0  0  0  0  0
   36.0750   20.7210   35.9570 O   0  0  0  0  0  0  0  0  0  0  0  0
   36.4510   22.2130   37.8750 H   0  0  0  0  0  0  0  0  0  0  0  0
  2  1  2  6  0  0  0
  2 15  1  0  0  0  0
  2  3  1  0  0  0  0
  4  3  1  0  0  0  0
  5  2  1  0  0  0  0
  6 12  1  0  0  0  0
  6  7  1  0  0  0  0
  7  5  1  0  0  0  0
  8  7  2  0  0  0  0
  8 13  1  0  0  0  0
  9  8  1  0  0  0  0
 10 11  1  0  0  0  0
 10  9  2  0  0  0  0
 11  6  2  0  0  0  0
 14 10  1  0  0  0  0
 16 17  1  0  0  0  0
 17 23  1  0  0  0  0
 18 17  1  0  0  0  0
 18 19  2  0  0  0  0
 19 15  1  0  0  0  0
 19 20  1  0  0  0  0
 20 22  1  0  0  0  0
 20 21  2  0  0  0  0
 22 25  1  0  0  0  0
 23 22  1  0  0  0  0
 24 23  2  0  0  0  0
M  END
>  <minimizedAffinity>
-4.85662985

$$$$

 OpenBabel03262522193D

 25 26  0  0  0  0  0  0  0  0999 V2000
   36.6910   27.7280   34.6820 O   0  0  0  0  0  0  0  0  0  0  0  0
   37.7100   26.6110   34.6050 P   0  0  1  0  0  0  0  0  0  0  0  0
   39.2380   27.2310   35.0010 O   0  0  0  0  0  0  0  0  0  0  0  0
   39.0810   27.9970   35.5990 H   0  0  0  0  0  0  0  0  0  0  0  0
   37.3380   25.4670   35.7890 O   0  0  0  0  0  0  0  0  0  0  0  0
   38.0270   24.2600   37.7420 C   0  0  0  0  0  0  0  0  0  0  0  0
   38.1890   24.5750   36.3840 C   0  0  0  0  0  0  0  0  0  0  0  0
   39.2370   23.9410   35.7140 C   0  0  0  0  0  0  0  0  0  0  0  0
   40.0310   23.0680   36.3930 N   0  0  0  0  0  0  0  0  0  0  0  0
   39.8280   22.8020   37.7040 C   0  0  0  0  0  0  0  0  0  0  0  0
   38.8190   23.4010   38.3840 N   0  0  0  0  0  0  0  0  0  0  0  0
   37.2440   24.7000   38.3460 H   0  0  0  0  0  0  0  0  0  0  0  0
   39.3970   24.1560   34.6660 H   0  0  0  0  0  0  0  0  0  0  0  0
   40.4670   22.1130   38.2100 H   0  0  0  0  0  0  0  0  0  0  0  0
   37.6720   25.9980   33.0480 O   0  0  0  0  0  0  0  0  0  0  0  0
   39.4900   28.8590   30.0210 H   0  0  0  0  0  0  0  0  0  0  0  0
   38.6550   28.2890   30.3320 N   0  0  0  0  0  0  0  0  0  0  0  0
   38.7870   27.5670   31.4610 C   0  0  0  0  0  3  0  0  0  0  0  0
   37.7340   26.8030   31.9190 C   0  0  0  0  0  0  0  0  0  0  0  0
   36.5490   26.8120   31.1750 C   0  0  0  0  0  0  0  0  0  0  0  0
   35.5020   26.1680   31.4610 O   0  0  0  0  0  0  0  0  0  0  0  0
   36.4500   27.5470   30.0460 N   0  0  0  0  0  0  0  0  0  0  0  0
   37.4920   28.2730   29.6380 C   0  0  0  0  0  0  0  0  0  0  0  0
   37.4950   28.9790   28.6140 O   0  0  0  0  0  0  0  0  0  0  0  0
   35.6190   27.6160   29.4330 H   0  0  0  0  0  0  0  0  0  0  0  0
  2  1  2  1  0  0  0
  2  3  1  0  0  0  0
  2  5  1  0  0  0  0
  3  4  1  0  0  0  0
  5  7  1  0  0  0  0
  6 12  1  0  0  0  0
  6 11  1  0  0  0  0
  7  6  2  0  0  0  0
  8  7  1  0  0  0  0
  8  9  2  0  0  0  0
  9 10  1  0  0  0  0
 10 14  1  0  0  0  0
 10 11  2  0  0  0  0
 13  8  1  0  0  0  0
 15  2  1  0  0  0  0
 16 17  1  0  0  0  0
 17 18  1  0  0  0  0
 18 19  2  0  0  0  0
 19 15  1  0  0  0  0
 20 21  2  0  0  0  0
 20 19  1  0  0  0  0
 22 20  1  0  0  0  0
 23 22  1  0  0  0  0
 23 17  1  0  0  0  0
 24 23  2  0  0  0  0
 25 22  1  0  0  0  0
M  END
>  <minimizedAffinity>
-4.8156209

$$$$

 OpenBabel03262522193D

 25 26  0  0  0  0  0  0  0  0999 V2000
   39.1950   27.4270   35.3560 O   0  0  0  0  0  0  0  0  0  0  0  0
   39.5780   26.4060   34.3050 P   0  0  1  0  0  0  0  0  0  0  0  0
   41.2590   26.1830   34.3410 O   0  0  0  0  0  0  0  0  0  0  0  0
   41.5480   26.3860   35.2600 H   0  0  0  0  0  0  0  0  0  0  0  0
   38.8920   24.9220   34.7300 O   0  0  0  0  0  0  0  0  0  0  0  0
   37.8730   24.6470   36.8820 C   0  0  0  0  0  0  0  0  0  0  0  0
   38.8860   24.3290   35.9640 C   0  0  0  0  0  0  0  0  0  0  0  0
   39.8440   23.4050   36.3830 C   0  0  0  0  0  0  0  0  0  0  0  0
   39.7520   22.8700   37.6310 N   0  0  0  0  0  0  0  0  0  0  0  0
   38.7520   23.2130   38.4750 C   0  0  0  0  0  0  0  0  0  0  0  0
   37.8050   24.1080   38.0980 N   0  0  0  0  0  0  0  0  0  0  0  0
   37.0850   25.3520   36.6480 H   0  0  0  0  0  0  0  0  0  0  0  0
   40.6430   23.1330   35.7060 H   0  0  0  0  0  0  0  0  0  0  0  0
   38.7060   22.7770   39.4480 H   0  0  0  0  0  0  0  0  0  0  0  0
   39.0580   26.9840   32.8240 O   0  0  0  0  0  0  0  0  0  0  0  0
   36.7390   24.1190   30.1660 H   0  0  0  0  0  0  0  0  0  0  0  0
   36.7360   24.9850   30.7740 N   0  0  0  0  0  0  0  0  0  0  0  0
   37.9020   25.3390   31.3470 C   0  0  0  0  0  3  0  0  0  0  0  0
   37.9640   26.4590   32.1510 C   0  0  0  0  0  0  0  0  0  0  0  0
   36.7870   27.1920   32.3410 C   0  0  0  0  0  0  0  0  0  0  0  0
   36.6810   28.2330   33.0450 O   0  0  0  0  0  0  0  0  0  0  0  0
   35.6340   26.8080   31.7520 N   0  0  0  0  0  0  0  0  0  0  0  0
   35.6170   25.7200   30.9810 C   0  0  0  0  0  0  0  0  0  0  0  0
   34.6060   25.2900   30.3980 O   0  0  0  0  0  0  0  0  0  0  0  0
   34.7190   27.2850   31.8330 H   0  0  0  0  0  0  0  0  0  0  0  0
  2  3  1  0  0  0  0
  2  5  1  0  0  0  0
  2  1  2  1  0  0  0
  3  4  1  0  0  0  0
  5  7  1  0  0  0  0
  6 11  1  0  0  0  0
  7  8  1  0  0  0  0
  7  6  2  0  0  0  0
  8  9  2  0  0  0  0
  9 10  1  0  0  0  0
 10 14  1  0  0  0  0
 11 10  2  0  0  0  0
 12  6  1  0  0  0  0
 13  8  1  0  0  0  0
 15  2  1  0  0  0  0
 16 17  1  0  0  0  0
 17 23  1  0  0  0  0
 17 18  1  0  0  0  0
 18 19  2  0  0  0  0
 19 20  1  0  0  0  0
 19 15  1  0  0  0  0
 20 21  2  0  0  0  0
 22 25  1  0  0  0  0
 22 20  1  0  0  0  0
 23 22  1  0  0  0  0
 24 23  2  0  0  0  0
M  END
>  <minimizedAffinity>
-4.63957739

$$$$

 OpenBabel03262522193D

 25 26  0  0  0  0  0  0  0  0999 V2000
   39.3250   27.1580   35.5150 O   0  0  0  0  0  0  0  0  0  0  0  0
   40.1330   26.6020   34.3610 P   0  0  1  0  0  0  0  0  0  0  0  0
   41.7700   26.9750   34.6050 O   0  0  0  0  0  0  0  0  0  0  0  0
   41.8960   27.0490   35.5790 H   0  0  0  0  0  0  0  0  0  0  0  0
   40.0180   24.9180   34.3920 O   0  0  0  0  0  0  0  0  0  0  0  0
   39.1590   23.7630   36.3080 C   0  0  0  0  0  0  0  0  0  0  0  0
   40.2290   24.0870   35.4600 C   0  0  0  0  0  0  0  0  0  0  0  0
   41.4680   23.5270   35.7710 C   0  0  0  0  0  0  0  0  0  0  0  0
   41.5780   22.7120   36.8560 N   0  0  0  0  0  0  0  0  0  0  0  0
   40.5110   22.4330   37.6400 C   0  0  0  0  0  0  0  0  0  0  0  0
   39.2920   22.9610   37.3650 N   0  0  0  0  0  0  0  0  0  0  0  0
   38.1600   24.1480   36.1480 H   0  0  0  0  0  0  0  0  0  0  0  0
   42.3200   23.7530   35.1430 H   0  0  0  0  0  0  0  0  0  0  0  0
   40.6270   21.7910   38.4840 H   0  0  0  0  0  0  0  0  0  0  0  0
   39.5420   27.2870   32.9530 O   0  0  0  0  0  0  0  0  0  0  0  0
   35.0330   27.3300   32.3920 H   0  0  0  0  0  0  0  0  0  0  0  0
   35.9740   26.9490   32.0940 N   0  0  0  0  0  0  0  0  0  0  0  0
   37.0590   27.4040   32.7480 C   0  0  0  0  0  3  0  0  0  0  0  0
   38.3140   26.9450   32.4050 C   0  0  0  0  0  0  0  0  0  0  0  0
   38.4070   26.0080   31.3700 C   0  0  0  0  0  0  0  0  0  0  0  0
   39.4770   25.4960   30.9420 O   0  0  0  0  0  0  0  0  0  0  0  0
   37.2970   25.5730   30.7340 N   0  0  0  0  0  0  0  0  0  0  0  0
   36.1030   26.0410   31.0970 C   0  0  0  0  0  0  0  0  0  0  0  0
   35.0280   25.7000   30.5710 O   0  0  0  0  0  0  0  0  0  0  0  0
   37.2670   24.8850   29.9620 H   0  0  0  0  0  0  0  0  0  0  0  0
  2  5  1  0  0  0  0
  2  3  1  0  0  0  0
  2  1  2  1  0  0  0
  3  4  1  0  0  0  0
  5  7  1  0  0  0  0
  6 11  1  0  0  0  0
  7  8  1  0  0  0  0
  7  6  2  0  0  0  0
  8  9  2  0  0  0  0
  9 10  1  0  0  0  0
 10 14  1  0  0  0  0
 11 10  2  0  0  0  0
 12  6  1  0  0  0  0
 13  8  1  0  0  0  0
 15  2  1  0  0  0  0
 17 16  1  0  0  0  0
 17 18  1  0  0  0  0
 19 18  2  0  0  0  0
 19 15  1  0  0  0  0
 20 19  1  0  0  0  0
 21 20  2  0  0  0  0
 22 23  1  0  0  0  0
 22 20  1  0  0  0  0
 23 17  1  0  0  0  0
 24 23  2  0  0  0  0
 25 22  1  0  0  0  0
M  END
>  <minimizedAffinity>
-4.54158783

$$$$

 OpenBabel03262522193D

 25 26  0  0  0  0  0  0  0  0999 V2000
   37.6250   23.8950   30.5210 O   0  0  0  0  0  0  0  0  0  0  0  0
   37.0460   23.8550   31.9200 P   0  0  1  0  0  0  0  0  0  0  0  0
   36.4190   25.3850   32.3010 O   0  0  0  0  0  0  0  0  0  0  0  0
   36.1620   25.8000   31.4460 H   0  0  0  0  0  0  0  0  0  0  0  0
   35.7360   22.7890   31.9240 O   0  0  0  0  0  0  0  0  0  0  0  0
   36.9430   20.7850   31.3980 C   0  0  0  0  0  0  0  0  0  0  0  0
   35.7730   21.4230   31.8390 C   0  0  0  0  0  0  0  0  0  0  0  0
   34.6970   20.5980   32.1690 C   0  0  0  0  0  0  0  0  0  0  0  0
   34.8300   19.2490   32.0510 N   0  0  0  0  0  0  0  0  0  0  0  0
   35.9830   18.6890   31.6200 C   0  0  0  0  0  0  0  0  0  0  0  0
   37.0480   19.4610   31.2910 N   0  0  0  0  0  0  0  0  0  0  0  0
   37.8300   21.3400   31.1190 H   0  0  0  0  0  0  0  0  0  0  0  0
   33.7750   21.0500   32.5130 H   0  0  0  0  0  0  0  0  0  0  0  0
   36.0580   17.6280   31.5370 H   0  0  0  0  0  0  0  0  0  0  0  0
   38.2750   23.4090   32.9630 O   0  0  0  0  0  0  0  0  0  0  0  0
   37.3470   21.2020   36.8260 H   0  0  0  0  0  0  0  0  0  0  0  0
   37.6030   22.1100   36.3470 N   0  0  0  0  0  0  0  0  0  0  0  0
   37.7490   22.0820   35.0090 C   0  0  0  0  0  3  0  0  0  0  0  0
   38.0810   23.2340   34.3270 C   0  0  0  0  0  0  0  0  0  0  0  0
   38.2570   24.4060   35.0700 C   0  0  0  0  0  0  0  0  0  0  0  0
   38.5610   25.5340   34.5950 O   0  0  0  0  0  0  0  0  0  0  0  0
   38.1030   24.3990   36.4120 N   0  0  0  0  0  0  0  0  0  0  0  0
   37.7800   23.2640   37.0340 C   0  0  0  0  0  0  0  0  0  0  0  0
   37.6180   23.1610   38.2630 O   0  0  0  0  0  0  0  0  0  0  0  0
   38.2120   25.2130   37.0430 H   0  0  0  0  0  0  0  0  0  0  0  0
  2  1  2  6  0  0  0
  2  5  1  0  0  0  0
  2  3  1  0  0  0  0
  2 15  1  0  0  0  0
  4  3  1  0  0  0  0
  6  7  1  0  0  0  0
  7  5  1  0  0  0  0
  7  8  2  0  0  0  0
  8 13  1  0  0  0  0
  9  8  1  0  0  0  0
 10  9  2  0  0  0  0
 11  6  2  0  0  0  0
 11 10  1  0  0  0  0
 12  6  1  0  0  0  0
 14 10  1  0  0  0  0
 15 19  1  0  0  0  0
 17 16  1  0  0  0  0
 17 23  1  0  0  0  0
 18 17  1  0  0  0  0
 19 18  2  0  0  0  0
 19 20  1  0  0  0  0
 20 22  1  0  0  0  0
 21 20  2  0  0  0  0
 22 23  1  0  0  0  0
 22 25  1  0  0  0  0
 23 24  2  0  0  0  0
M  END
>  <minimizedAffinity>
-4.53681517

$$$$

 OpenBabel03262522193D

 25 26  0  0  0  0  0  0  0  0999 V2000
   34.5790   25.6510   31.1490 O   0  0  0  0  0  0  0  0  0  0  0  0
   36.0280   26.0870   31.2230 P   0  0  1  0  0  0  0  0  0  0  0  0
   36.3530   27.1390   29.9330 O   0  0  0  0  0  0  0  0  0  0  0  0
   35.5000   27.5750   29.7080 H   0  0  0  0  0  0  0  0  0  0  0  0
   36.2430   26.9850   32.6360 O   0  0  0  0  0  0  0  0  0  0  0  0
   37.1370   26.7760   34.8510 C   0  0  0  0  0  0  0  0  0  0  0  0
   37.3260   26.9750   33.4740 C   0  0  0  0  0  0  0  0  0  0  0  0
   38.6400   27.1550   33.0420 C   0  0  0  0  0  0  0  0  0  0  0  0
   39.6510   27.1290   33.9530 N   0  0  0  0  0  0  0  0  0  0  0  0
   39.4100   26.9330   35.2690 C   0  0  0  0  0  0  0  0  0  0  0  0
   38.1440   26.7540   35.7230 N   0  0  0  0  0  0  0  0  0  0  0  0
   36.1540   26.6270   35.2810 H   0  0  0  0  0  0  0  0  0  0  0  0
   38.8300   27.3130   31.9880 H   0  0  0  0  0  0  0  0  0  0  0  0
   40.2230   26.9180   35.9610 H   0  0  0  0  0  0  0  0  0  0  0  0
   36.9740   24.7090   31.1560 O   0  0  0  0  0  0  0  0  0  0  0  0
   34.5300   20.8970   31.5430 H   0  0  0  0  0  0  0  0  0  0  0  0
   35.3170   21.5030   31.9080 N   0  0  0  0  0  0  0  0  0  0  0  0
   35.5590   22.6570   31.2580 C   0  0  0  0  0  3  0  0  0  0  0  0
   36.5720   23.4900   31.6850 C   0  0  0  0  0  0  0  0  0  0  0  0
   37.3200   23.0910   32.7980 C   0  0  0  0  0  0  0  0  0  0  0  0
   38.2740   23.7400   33.3070 O   0  0  0  0  0  0  0  0  0  0  0  0
   37.0510   21.9260   33.4270 N   0  0  0  0  0  0  0  0  0  0  0  0
   36.0620   21.1500   32.9820 C   0  0  0  0  0  0  0  0  0  0  0  0
   35.7410   20.0630   33.4950 O   0  0  0  0  0  0  0  0  0  0  0  0
   37.5470   21.5500   34.2530 H   0  0  0  0  0  0  0  0  0  0  0  0
  2  1  2  6  0  0  0
  2  5  1  0  0  0  0
  3  2  1  0  0  0  0
  4  3  1  0  0  0  0
  5  7  1  0  0  0  0
  6 12  1  0  0  0  0
  6 11  1  0  0  0  0
  7  6  2  0  0  0  0
  8  7  1  0  0  0  0
  8  9  2  0  0  0  0
  9 10  1  0  0  0  0
 10 11  2  0  0  0  0
 10 14  1  0  0  0  0
 13  8  1  0  0  0  0
 15  2  1  0  0  0  0
 15 19  1  0  0  0  0
 16 17  1  0  0  0  0
 17 23  1  0  0  0  0
 18 19  2  0  0  0  0
 18 17  1  0  0  0  0
 19 20  1  0  0  0  0
 20 21  2  0  0  0  0
 20 22  1  0  0  0  0
 22 25  1  0  0  0  0
 23 22  1  0  0  0  0
 23 24  2  0  0  0  0
M  END
>  <minimizedAffinity>
-4.47823715

$$$$

 OpenBabel03262522193D

 25 26  0  0  0  0  0  0  0  0999 V2000
   36.8870   27.4530   34.3250 O   0  0  0  0  0  0  0  0  0  0  0  0
   38.0760   26.8190   35.0160 P   0  0  1  0  0  0  0  0  0  0  0  0
   38.5840   27.8310   36.2780 O   0  0  0  0  0  0  0  0  0  0  0  0
   37.7890   28.3340   36.5690 H   0  0  0  0  0  0  0  0  0  0  0  0
   37.5670   25.3790   35.7360 O   0  0  0  0  0  0  0  0  0  0  0  0
   39.4420   23.9030   35.9640 C   0  0  0  0  0  0  0  0  0  0  0  0
   38.3080   24.5250   36.5090 C   0  0  0  0  0  0  0  0  0  0  0  0
   38.0040   24.2230   37.8370 C   0  0  0  0  0  0  0  0  0  0  0  0
   38.8030   23.3600   38.5240 N   0  0  0  0  0  0  0  0  0  0  0  0
   39.8850   22.7890   37.9470 C   0  0  0  0  0  0  0  0  0  0  0  0
   40.2080   23.0620   36.6580 N   0  0  0  0  0  0  0  0  0  0  0  0
   39.7580   24.0750   34.9430 H   0  0  0  0  0  0  0  0  0  0  0  0
   37.1370   24.6810   38.2950 H   0  0  0  0  0  0  0  0  0  0  0  0
   40.4920   22.1160   38.5100 H   0  0  0  0  0  0  0  0  0  0  0  0
   39.2740   26.6050   33.8680 O   0  0  0  0  0  0  0  0  0  0  0  0
   37.7240   23.2460   31.2290 H   0  0  0  0  0  0  0  0  0  0  0  0
   38.2920   24.1350   31.3150 N   0  0  0  0  0  0  0  0  0  0  0  0
   38.3590   24.7090   32.5310 C   0  0  0  0  0  3  0  0  0  0  0  0
   39.0850   25.8690   32.7070 C   0  0  0  0  0  0  0  0  0  0  0  0
   39.7320   26.4100   31.5910 C   0  0  0  0  0  0  0  0  0  0  0  0
   40.4300   27.4610   31.5900 O   0  0  0  0  0  0  0  0  0  0  0  0
   39.6430   25.8090   30.3850 N   0  0  0  0  0  0  0  0  0  0  0  0
   38.9320   24.6880   30.2570 C   0  0  0  0  0  0  0  0  0  0  0  0
   38.7940   24.0650   29.1900 O   0  0  0  0  0  0  0  0  0  0  0  0
   40.0850   26.1340   29.5070 H   0  0  0  0  0  0  0  0  0  0  0  0
  2  1  2  6  0  0  0
  2  5  1  0  0  0  0
  2  3  1  0  0  0  0
  3  4  1  0  0  0  0
  5  7  1  0  0  0  0
  6  7  2  0  0  0  0
  6 11  1  0  0  0  0
  7  8  1  0  0  0  0
  8 13  1  0  0  0  0
  8  9  2  0  0  0  0
 10 14  1  0  0  0  0
 10  9  1  0  0  0  0
 11 10  2  0  0  0  0
 12  6  1  0  0  0  0
 15  2  1  0  0  0  0
 16 17  1  0  0  0  0
 17 18  1  0  0  0  0
 18 19  2  0  0  0  0
 19 15  1  0  0  0  0
 20 19  1  0  0  0  0
 21 20  2  0  0  0  0
 22 20  1  0  0  0  0
 23 22  1  0  0  0  0
 23 17  1  0  0  0  0
 24 23  2  0  0  0  0
 25 22  1  0  0  0  0
M  END
>  <minimizedAffinity>
-4.37856388

$$$$
