
 OpenBabel03262521563D

 40 42  0  0  1  0  0  0  0  0999 V2000
   31.5380   26.7360   48.4350 C   0  0  1  0  0  0  0  0  0  0  0  0
   32.2110   28.0830   48.3180 C   0  0  2  0  0  0  0  0  0  0  0  0
   32.0990   28.5090   46.8820 C   0  0  0  0  0  0  0  0  0  0  0  0
   31.4420   27.6030   46.0840 O   0  0  0  0  0  0  0  0  0  0  0  0
   30.1470   27.3410   46.5290 C   0  0  0  0  0  0  0  0  0  0  0  0
   30.1000   26.9170   47.9710 C   0  0  2  0  0  0  0  0  0  0  0  0
   31.6040   26.3380   49.4540 H   0  0  0  0  0  0  0  0  0  0  0  0
   31.6720   28.7720   49.0010 H   0  0  0  0  0  0  0  0  0  0  0  0
   33.1090   28.6570   46.4350 H   0  0  0  0  0  0  0  0  0  0  0  0
   31.5410   29.4700   46.8530 H   0  0  0  0  0  0  0  0  0  0  0  0
   29.7290   26.5120   45.9250 H   0  0  0  0  0  0  0  0  0  0  0  0
   29.4900   28.2200   46.3530 H   0  0  0  0  0  0  0  0  0  0  0  0
   29.5040   26.0030   48.1150 H   0  0  0  0  0  0  0  0  0  0  0  0
   32.1230   25.7960   47.5880 O   0  0  0  0  0  0  0  0  0  0  0  0
   33.0310   26.1400   47.3240 H   0  0  0  0  0  0  0  0  0  0  0  0
   33.9330   28.0230   48.8610 S   0  0  0  0  0  0  0  0  0  0  0  0
   34.2870   29.4130   49.9550 C   0  0  0  0  0  0  0  0  0  0  0  0
   34.0510   30.4000   49.4760 H   0  0  0  0  0  0  0  0  0  0  0  0
   33.5760   29.3330   50.8270 H   0  0  0  0  0  0  0  0  0  0  0  0
   35.9450   29.4590   50.5910 S   0  0  0  0  0  0  0  0  0  0  0  0
   36.9280   30.5650   49.5870 C   0  0  0  0  0  0  0  0  0  0  0  0
   37.0080   31.8660   50.0480 C   0  0  0  0  0  0  0  0  0  0  0  0
   37.7580   32.7980   49.3230 C   0  0  0  0  0  0  0  0  0  0  0  0
   38.3760   32.3540   48.1810 N   0  0  0  0  0  0  0  0  0  0  0  0
   38.2590   31.0720   47.7830 C   0  0  0  0  0  0  0  0  0  0  0  0
   37.5580   30.1920   48.4580 N   0  0  0  0  0  0  0  0  0  0  0  0
   36.5160   32.2100   50.9530 H   0  0  0  0  0  0  0  0  0  0  0  0
   37.8250   33.8050   49.6710 H   0  0  0  0  0  0  0  0  0  0  0  0
   38.8010   30.8780   46.8690 H   0  0  0  0  0  0  0  0  0  0  0  0
   29.5870   27.9380   48.7590 O   0  0  0  0  0  0  0  0  0  0  0  0
   25.7080   30.1540   47.9130 H   0  0  0  0  0  0  0  0  0  0  0  0
   26.2500   29.4640   48.5030 N   0  0  0  0  0  0  0  0  0  0  0  0
   27.5320   29.1730   48.2360 C   0  0  0  0  0  0  0  0  0  0  0  0
   28.2850   28.2870   48.9640 C   0  0  0  0  0  0  0  0  0  0  0  0
   27.6780   27.6490   50.0520 C   0  0  0  0  0  0  0  0  0  0  0  0
   28.2270   26.8010   50.8330 O   0  0  0  0  0  0  0  0  0  0  0  0
   26.3730   27.9460   50.3220 N   0  0  0  0  0  0  0  0  0  0  0  0
   25.7010   28.8290   49.5570 C   0  0  0  0  0  0  0  0  0  0  0  0
   24.4860   29.1180   49.7940 O   0  0  0  0  0  0  0  0  0  0  0  0
   25.8490   27.5070   51.1240 H   0  0  0  0  0  0  0  0  0  0  0  0
  1  7  1  1  0  0  0
  2  1  1  0  0  0  0
  2 16  1  0  0  0  0
  2  8  1  1  0  0  0
  3  2  1  0  0  0  0
  4  5  1  0  0  0  0
  4  3  1  0  0  0  0
  5  6  1  0  0  0  0
  6 13  1  1  0  0  0
  6  1  1  0  0  0  0
  6 30  1  0  0  0  0
  9  3  1  0  0  0  0
 10  3  1  0  0  0  0
 11  5  1  0  0  0  0
 12  5  1  0  0  0  0
 14  1  1  0  0  0  0
 15 14  1  0  0  0  0
 16 17  1  0  0  0  0
 17 20  1  0  0  0  0
 17 19  1  0  0  0  0
 18 17  1  0  0  0  0
 21 22  1  0  0  0  0
 21 20  1  0  0  0  0
 22 27  1  0  0  0  0
 23 28  1  0  0  0  0
 23 22  2  0  0  0  0
 24 23  1  0  0  0  0
 25 24  2  0  0  0  0
 25 26  1  0  0  0  0
 26 21  2  0  0  0  0
 29 25  1  0  0  0  0
 30 34  1  0  0  0  0
 31 32  1  0  0  0  0
 32 38  1  0  0  0  0
 33 32  1  0  0  0  0
 33 34  2  0  0  0  0
 34 35  1  0  0  0  0
 35 37  1  0  0  0  0
 35 36  2  0  0  0  0
 37 40  1  0  0  0  0
 38 39  2  0  0  0  0
 38 37  1  0  0  0  0
M  END
>  <minimizedAffinity>
-6.04512739

>  <minimizedRMSD>
1.87220228

$$$$
