
 OpenBabel03262522173D

 46 49  0  0  1  0  0  0  0  0999 V2000
   39.4330   26.8790   32.8660 C   0  0  0  0  0  0  0  0  0  0  0  0
   39.5850   25.8080   32.7050 H   0  0  0  0  0  0  0  0  0  0  0  0
   40.3800   27.3960   32.6030 H   0  0  0  0  0  0  0  0  0  0  0  0
   38.2400   25.7170   36.0030 C   0  0  1  0  0  0  0  0  0  0  0  0
   39.4890   25.8710   35.1390 C   0  0  0  0  0  0  0  0  0  0  0  0
   39.1310   27.1030   34.3350 C   0  0  2  0  0  0  0  0  0  0  0  0
   37.8230   27.3970   34.5560 O   0  0  0  0  0  0  0  0  0  0  0  0
   37.1880   26.2540   35.0380 C   0  0  0  0  0  0  0  0  0  0  0  0
   38.3650   26.4070   36.8550 H   0  0  0  0  0  0  0  0  0  0  0  0
   40.3950   25.9640   35.7400 H   0  0  0  0  0  0  0  0  0  0  0  0
   39.4960   25.0030   34.4690 H   0  0  0  0  0  0  0  0  0  0  0  0
   39.8170   27.9010   34.6880 H   0  0  0  0  0  0  0  0  0  0  0  0
   36.2820   26.5750   35.5720 H   0  0  0  0  0  0  0  0  0  0  0  0
   37.0410   25.5130   34.2480 H   0  0  0  0  0  0  0  0  0  0  0  0
   38.0070   24.4000   36.3150 O   0  0  0  0  0  0  0  0  0  0  0  0
   41.3720   21.5740   35.1790 H   0  0  0  0  0  0  0  0  0  0  0  0
   40.7990   22.0110   35.9360 N   0  0  0  0  0  0  0  0  0  0  0  0
   39.8580   22.8610   35.5020 C   0  0  0  0  0  3  0  0  0  0  0  0
   39.0450   23.4920   36.4170 C   0  0  0  0  0  0  0  0  0  0  0  0
   39.2510   23.2050   37.7740 C   0  0  0  0  0  0  0  0  0  0  0  0
   38.6170   23.6740   38.7800 O   0  0  0  0  0  0  0  0  0  0  0  0
   40.2250   22.3290   38.1630 N   0  0  0  0  0  0  0  0  0  0  0  0
   40.9980   21.7330   37.2360 C   0  0  0  0  0  0  0  0  0  0  0  0
   41.9010   20.9230   37.5830 O   0  0  0  0  0  0  0  0  0  0  0  0
   40.4240   22.0770   39.1520 H   0  0  0  0  0  0  0  0  0  0  0  0
   38.0780   27.6020   31.9140 S   0  0  0  0  0  0  0  0  0  0  0  0
   36.7740   23.9220   31.1490 C   0  0  0  0  0  0  0  0  0  0  0  0
   35.4050   24.1000   30.8730 C   0  0  0  0  0  0  0  0  0  0  0  0
   34.8290   25.3400   30.9090 C   0  0  0  0  0  0  0  0  0  0  0  0
   35.6630   26.3990   31.2290 C   0  0  0  0  0  0  0  0  0  0  0  0
   36.9830   26.2120   31.4930 C   0  0  0  0  0  0  0  0  0  0  0  0
   37.5610   24.9750   31.4580 N   0  0  0  0  0  0  0  0  0  0  0  0
   34.7920   23.2450   30.6270 H   0  0  0  0  0  0  0  0  0  0  0  0
   33.7770   25.4980   30.7000 H   0  0  0  0  0  0  0  0  0  0  0  0
   35.2700   27.4060   31.2740 H   0  0  0  0  0  0  0  0  0  0  0  0
   37.2960   22.5860   31.0890 C   0  0  0  0  0  0  0  0  0  0  0  0
   38.3560   22.3430   30.5180 O   0  0  0  0  0  0  0  0  0  0  0  0
   36.1940   20.3900   30.8670 C   0  0  0  0  0  0  0  0  0  0  0  0
   36.6030   21.4410   31.7010 C   0  0  0  0  0  0  0  0  0  0  0  0
   36.3420   21.3630   33.0740 C   0  0  0  0  0  0  0  0  0  0  0  0
   35.6930   20.2660   33.5620 N   0  0  0  0  0  0  0  0  0  0  0  0
   35.3100   19.2680   32.7320 C   0  0  0  0  0  0  0  0  0  0  0  0
   35.5550   19.3300   31.4160 N   0  0  0  0  0  0  0  0  0  0  0  0
   36.4080   20.4750   29.8090 H   0  0  0  0  0  0  0  0  0  0  0  0
   36.6650   22.1820   33.7030 H   0  0  0  0  0  0  0  0  0  0  0  0
   34.7940   18.3920   33.1180 H   0  0  0  0  0  0  0  0  0  0  0  0
  1  6  1  0  0  0  0
  2  1  1  0  0  0  0
  3  1  1  0  0  0  0
  4 15  1  0  0  0  0
  4  9  1  1  0  0  0
  5 10  1  0  0  0  0
  5  4  1  0  0  0  0
  6  7  1  0  0  0  0
  6 12  1  1  0  0  0
  6  5  1  0  0  0  0
  7  8  1  0  0  0  0
  8 13  1  0  0  0  0
  8  4  1  0  0  0  0
 11  5  1  0  0  0  0
 14  8  1  0  0  0  0
 15 19  1  0  0  0  0
 16 17  1  0  0  0  0
 17 23  1  0  0  0  0
 18 17  1  0  0  0  0
 18 19  2  0  0  0  0
 19 20  1  0  0  0  0
 20 22  1  0  0  0  0
 20 21  2  0  0  0  0
 22 25  1  0  0  0  0
 23 24  2  0  0  0  0
 23 22  1  0  0  0  0
 26  1  1  0  0  0  0
 27 32  1  0  0  0  0
 28 29  1  0  0  0  0
 28 27  2  0  0  0  0
 29 30  2  0  0  0  0
 30 35  1  0  0  0  0
 30 31  1  0  0  0  0
 31 26  1  0  0  0  0
 32 31  2  0  0  0  0
 33 28  1  0  0  0  0
 34 29  1  0  0  0  0
 36 27  1  0  0  0  0
 36 39  1  0  0  0  0
 37 36  2  0  0  0  0
 38 43  2  0  0  0  0
 38 39  1  0  0  0  0
 39 40  2  0  0  0  0
 40 41  1  0  0  0  0
 40 45  1  0  0  0  0
 42 46  1  0  0  0  0
 42 41  2  0  0  0  0
 43 42  1  0  0  0  0
 44 38  1  0  0  0  0
M  END
>  <minimizedAffinity>
-6.67276287

$$$$

 OpenBabel03262522173D

 46 49  0  0  1  0  0  0  0  0999 V2000
   36.8260   26.6010   32.8720 C   0  0  0  0  0  0  0  0  0  0  0  0
   36.2030   26.9770   33.6890 H   0  0  0  0  0  0  0  0  0  0  0  0
   36.4700   25.5790   32.6220 H   0  0  0  0  0  0  0  0  0  0  0  0
   39.2720   25.3930   35.1470 C   0  0  1  0  0  0  0  0  0  0  0  0
   38.5880   25.1170   33.8100 C   0  0  0  0  0  0  0  0  0  0  0  0
   38.2590   26.5250   33.3610 C   0  0  2  0  0  0  0  0  0  0  0  0
   38.5000   27.3750   34.3940 O   0  0  0  0  0  0  0  0  0  0  0  0
   38.5070   26.6400   35.5780 C   0  0  0  0  0  0  0  0  0  0  0  0
   40.3190   25.6480   34.9140 H   0  0  0  0  0  0  0  0  0  0  0  0
   39.2310   24.5580   33.1280 H   0  0  0  0  0  0  0  0  0  0  0  0
   37.6540   24.5990   34.0550 H   0  0  0  0  0  0  0  0  0  0  0  0
   38.9110   26.7200   32.4830 H   0  0  0  0  0  0  0  0  0  0  0  0
   39.0700   27.2170   36.3260 H   0  0  0  0  0  0  0  0  0  0  0  0
   37.4970   26.3370   35.8680 H   0  0  0  0  0  0  0  0  0  0  0  0
   39.0790   24.3580   36.0290 O   0  0  0  0  0  0  0  0  0  0  0  0
   42.7380   21.7450   35.4130 H   0  0  0  0  0  0  0  0  0  0  0  0
   41.9240   22.0030   36.0170 N   0  0  0  0  0  0  0  0  0  0  0  0
   41.1540   22.9830   35.5240 C   0  0  0  0  0  3  0  0  0  0  0  0
   40.0540   23.4020   36.2400 C   0  0  0  0  0  0  0  0  0  0  0  0
   39.7980   22.7680   37.4640 C   0  0  0  0  0  0  0  0  0  0  0  0
   38.8420   22.9970   38.2800 O   0  0  0  0  0  0  0  0  0  0  0  0
   40.6160   21.7720   37.9200 N   0  0  0  0  0  0  0  0  0  0  0  0
   41.6810   21.3940   37.1900 C   0  0  0  0  0  0  0  0  0  0  0  0
   42.4430   20.4760   37.6010 O   0  0  0  0  0  0  0  0  0  0  0  0
   40.4760   21.2670   38.8180 H   0  0  0  0  0  0  0  0  0  0  0  0
   36.8120   27.6170   31.3790 S   0  0  0  0  0  0  0  0  0  0  0  0
   35.6100   30.6290   33.6840 C   0  0  0  0  0  0  0  0  0  0  0  0
   35.4970   31.7110   32.7920 C   0  0  0  0  0  0  0  0  0  0  0  0
   35.7790   31.5690   31.4620 C   0  0  0  0  0  0  0  0  0  0  0  0
   36.1800   30.3080   31.0490 C   0  0  0  0  0  0  0  0  0  0  0  0
   36.2850   29.2710   31.9220 C   0  0  0  0  0  0  0  0  0  0  0  0
   36.0030   29.4120   33.2510 N   0  0  0  0  0  0  0  0  0  0  0  0
   35.1800   32.6770   33.1590 H   0  0  0  0  0  0  0  0  0  0  0  0
   35.6990   32.3890   30.7580 H   0  0  0  0  0  0  0  0  0  0  0  0
   36.4190   30.1280   30.0090 H   0  0  0  0  0  0  0  0  0  0  0  0
   35.2930   30.8670   35.0640 C   0  0  0  0  0  0  0  0  0  0  0  0
   36.1750   31.0980   35.8880 O   0  0  0  0  0  0  0  0  0  0  0  0
   33.6070   31.6310   36.6950 C   0  0  0  0  0  0  0  0  0  0  0  0
   33.9100   30.8510   35.5690 C   0  0  0  0  0  0  0  0  0  0  0  0
   32.8980   30.0940   34.9710 C   0  0  0  0  0  0  0  0  0  0  0  0
   31.6410   30.1350   35.5020 N   0  0  0  0  0  0  0  0  0  0  0  0
   31.3780   30.8950   36.5890 C   0  0  0  0  0  0  0  0  0  0  0  0
   32.3400   31.6260   37.1710 N   0  0  0  0  0  0  0  0  0  0  0  0
   34.4090   32.2070   37.1390 H   0  0  0  0  0  0  0  0  0  0  0  0
   33.1490   29.4990   34.1030 H   0  0  0  0  0  0  0  0  0  0  0  0
   30.3780   30.9300   37.0140 H   0  0  0  0  0  0  0  0  0  0  0  0
  1  6  1  0  0  0  0
  1  2  1  0  0  0  0
  3  1  1  0  0  0  0
  4  9  1  6  0  0  0
  4  8  1  0  0  0  0
  4 15  1  0  0  0  0
  5 11  1  0  0  0  0
  5  4  1  0  0  0  0
  6 12  1  6  0  0  0
  6  5  1  0  0  0  0
  6  7  1  0  0  0  0
  7  8  1  0  0  0  0
  8 14  1  0  0  0  0
  8 13  1  0  0  0  0
 10  5  1  0  0  0  0
 15 19  1  0  0  0  0
 16 17  1  0  0  0  0
 17 23  1  0  0  0  0
 18 17  1  0  0  0  0
 18 19  2  0  0  0  0
 19 20  1  0  0  0  0
 20 22  1  0  0  0  0
 20 21  2  0  0  0  0
 22 25  1  0  0  0  0
 23 24  2  0  0  0  0
 23 22  1  0  0  0  0
 26 31  1  0  0  0  0
 26  1  1  0  0  0  0
 27 36  1  0  0  0  0
 28 33  1  0  0  0  0
 28 27  2  0  0  0  0
 29 28  1  0  0  0  0
 30 29  2  0  0  0  0
 30 31  1  0  0  0  0
 31 32  2  0  0  0  0
 32 27  1  0  0  0  0
 34 29  1  0  0  0  0
 35 30  1  0  0  0  0
 36 39  1  0  0  0  0
 36 37  2  0  0  0  0
 38 44  1  0  0  0  0
 38 43  1  0  0  0  0
 39 38  2  0  0  0  0
 40 41  2  0  0  0  0
 40 39  1  0  0  0  0
 41 42  1  0  0  0  0
 42 46  1  0  0  0  0
 42 43  2  0  0  0  0
 45 40  1  0  0  0  0
M  END
>  <minimizedAffinity>
-6.04001856

$$$$

 OpenBabel03262522173D

 46 49  0  0  1  0  0  0  0  0999 V2000
   42.6620   26.5390   34.1690 C   0  0  0  0  0  0  0  0  0  0  0  0
   43.4860   27.2580   34.1430 H   0  0  0  0  0  0  0  0  0  0  0  0
   42.1060   26.7000   35.1170 H   0  0  0  0  0  0  0  0  0  0  0  0
   42.3670   23.0450   34.7350 C   0  0  1  0  0  0  0  0  0  0  0  0
   42.2190   24.1410   33.6820 C   0  0  0  0  0  0  0  0  0  0  0  0
   43.2490   25.1410   34.1640 C   0  0  2  0  0  0  0  0  0  0  0  0
   43.6820   24.7560   35.3930 O   0  0  0  0  0  0  0  0  0  0  0  0
   42.7340   23.8950   35.9450 C   0  0  0  0  0  0  0  0  0  0  0  0
   43.2270   22.4290   34.4240 H   0  0  0  0  0  0  0  0  0  0  0  0
   42.3860   23.7640   32.6710 H   0  0  0  0  0  0  0  0  0  0  0  0
   41.2200   24.5650   33.8310 H   0  0  0  0  0  0  0  0  0  0  0  0
   44.0560   25.1320   33.4010 H   0  0  0  0  0  0  0  0  0  0  0  0
   43.2380   23.2960   36.7170 H   0  0  0  0  0  0  0  0  0  0  0  0
   41.8400   24.4360   36.2660 H   0  0  0  0  0  0  0  0  0  0  0  0
   41.1800   22.3800   34.9320 O   0  0  0  0  0  0  0  0  0  0  0  0
   39.8020   22.3900   39.2550 H   0  0  0  0  0  0  0  0  0  0  0  0
   39.6100   22.6580   38.2630 N   0  0  0  0  0  0  0  0  0  0  0  0
   40.5640   22.2960   37.3940 C   0  0  0  0  0  3  0  0  0  0  0  0
   40.4130   22.5990   36.0600 C   0  0  0  0  0  0  0  0  0  0  0  0
   39.2490   23.2820   35.6780 C   0  0  0  0  0  0  0  0  0  0  0  0
   38.9100   23.6590   34.5050 O   0  0  0  0  0  0  0  0  0  0  0  0
   38.3060   23.6280   36.6060 N   0  0  0  0  0  0  0  0  0  0  0  0
   38.4930   23.3120   37.9000 C   0  0  0  0  0  0  0  0  0  0  0  0
   37.6300   23.6260   38.7650 O   0  0  0  0  0  0  0  0  0  0  0  0
   37.4250   24.1340   36.3830 H   0  0  0  0  0  0  0  0  0  0  0  0
   41.5130   26.6530   32.7800 S   0  0  0  0  0  0  0  0  0  0  0  0
   37.5920   27.1900   33.1790 C   0  0  0  0  0  0  0  0  0  0  0  0
   37.4100   27.3240   34.5680 C   0  0  0  0  0  0  0  0  0  0  0  0
   38.4670   27.2570   35.4330 C   0  0  0  0  0  0  0  0  0  0  0  0
   39.7150   27.0520   34.8670 C   0  0  0  0  0  0  0  0  0  0  0  0
   39.8760   26.9240   33.5230 C   0  0  0  0  0  0  0  0  0  0  0  0
   38.8210   26.9900   32.6580 N   0  0  0  0  0  0  0  0  0  0  0  0
   36.4170   27.4830   34.9660 H   0  0  0  0  0  0  0  0  0  0  0  0
   38.3480   27.3580   36.5060 H   0  0  0  0  0  0  0  0  0  0  0  0
   40.5930   26.9890   35.4960 H   0  0  0  0  0  0  0  0  0  0  0  0
   36.4270   27.2720   32.3440 C   0  0  0  0  0  0  0  0  0  0  0  0
   35.9140   26.2640   31.8680 O   0  0  0  0  0  0  0  0  0  0  0  0
   36.3720   29.3540   31.0200 C   0  0  0  0  0  0  0  0  0  0  0  0
   35.7840   28.5550   32.0130 C   0  0  0  0  0  0  0  0  0  0  0  0
   34.6190   29.0000   32.6460 C   0  0  0  0  0  0  0  0  0  0  0  0
   34.0860   30.2020   32.2790 N   0  0  0  0  0  0  0  0  0  0  0  0
   34.6750   30.9510   31.3190 C   0  0  0  0  0  0  0  0  0  0  0  0
   35.7920   30.5350   30.7050 N   0  0  0  0  0  0  0  0  0  0  0  0
   37.2720   28.9860   30.5460 H   0  0  0  0  0  0  0  0  0  0  0  0
   34.1790   28.3720   33.4080 H   0  0  0  0  0  0  0  0  0  0  0  0
   34.2530   31.9090   31.0250 H   0  0  0  0  0  0  0  0  0  0  0  0
  1  3  1  0  0  0  0
  2  1  1  0  0  0  0
  4  9  1  6  0  0  0
  4 15  1  0  0  0  0
  4  8  1  0  0  0  0
  5 11  1  0  0  0  0
  5  6  1  0  0  0  0
  5  4  1  0  0  0  0
  6 12  1  6  0  0  0
  6  1  1  0  0  0  0
  6  7  1  0  0  0  0
  7  8  1  0  0  0  0
  8 14  1  0  0  0  0
  8 13  1  0  0  0  0
 10  5  1  0  0  0  0
 15 19  1  0  0  0  0
 17 16  1  0  0  0  0
 18 17  1  0  0  0  0
 19 18  2  0  0  0  0
 20 19  1  0  0  0  0
 20 22  1  0  0  0  0
 21 20  2  0  0  0  0
 22 23  1  0  0  0  0
 23 17  1  0  0  0  0
 23 24  2  0  0  0  0
 25 22  1  0  0  0  0
 26 31  1  0  0  0  0
 26  1  1  0  0  0  0
 27 28  1  0  0  0  0
 28 33  1  0  0  0  0
 28 29  2  0  0  0  0
 29 34  1  0  0  0  0
 30 29  1  0  0  0  0
 30 35  1  0  0  0  0
 31 30  2  0  0  0  0
 32 27  2  0  0  0  0
 32 31  1  0  0  0  0
 36 27  1  0  0  0  0
 37 36  2  0  0  0  0
 38 39  1  0  0  0  0
 39 36  1  0  0  0  0
 39 40  2  0  0  0  0
 40 45  1  0  0  0  0
 41 40  1  0  0  0  0
 42 41  2  0  0  0  0
 43 38  2  0  0  0  0
 43 42  1  0  0  0  0
 44 38  1  0  0  0  0
 46 42  1  0  0  0  0
M  END
>  <minimizedAffinity>
-5.97320843

$$$$

 OpenBabel03262522173D

 46 49  0  0  1  0  0  0  0  0999 V2000
   38.4600   26.0470   30.9790 C   0  0  0  0  0  0  0  0  0  0  0  0
   38.1910   26.6340   30.0960 H   0  0  0  0  0  0  0  0  0  0  0  0
   39.5650   25.9360   30.9840 H   0  0  0  0  0  0  0  0  0  0  0  0
   37.9200   22.7510   32.1880 C   0  0  1  0  0  0  0  0  0  0  0  0
   37.3810   24.1800   32.2170 C   0  0  0  0  0  0  0  0  0  0  0  0
   37.8190   24.6780   30.8560 C   0  0  2  0  0  0  0  0  0  0  0  0
   38.6580   23.7600   30.3100 O   0  0  0  0  0  0  0  0  0  0  0  0
   39.1650   22.9610   31.3340 C   0  0  0  0  0  0  0  0  0  0  0  0
   37.1760   22.1490   31.6400 H   0  0  0  0  0  0  0  0  0  0  0  0
   36.3030   24.2080   32.3890 H   0  0  0  0  0  0  0  0  0  0  0  0
   37.9610   24.7010   32.9870 H   0  0  0  0  0  0  0  0  0  0  0  0
   36.8850   24.8100   30.2700 H   0  0  0  0  0  0  0  0  0  0  0  0
   39.5040   22.0170   30.8830 H   0  0  0  0  0  0  0  0  0  0  0  0
   39.9040   23.4980   31.9340 H   0  0  0  0  0  0  0  0  0  0  0  0
   38.2460   22.3160   33.4500 O   0  0  0  0  0  0  0  0  0  0  0  0
   34.6140   20.0380   34.9380 H   0  0  0  0  0  0  0  0  0  0  0  0
   35.4380   20.6390   35.1660 N   0  0  0  0  0  0  0  0  0  0  0  0
   36.1800   20.9930   34.1080 C   0  0  0  0  0  3  0  0  0  0  0  0
   37.2910   21.7840   34.2960 C   0  0  0  0  0  0  0  0  0  0  0  0
   37.5880   22.1830   35.6070 C   0  0  0  0  0  0  0  0  0  0  0  0
   38.5610   22.9100   36.0030 O   0  0  0  0  0  0  0  0  0  0  0  0
   36.7980   21.7940   36.6520 N   0  0  0  0  0  0  0  0  0  0  0  0
   35.7210   21.0200   36.4240 C   0  0  0  0  0  0  0  0  0  0  0  0
   34.9840   20.6550   37.3810 O   0  0  0  0  0  0  0  0  0  0  0  0
   36.9680   22.0590   37.6430 H   0  0  0  0  0  0  0  0  0  0  0  0
   37.9270   26.7590   32.5510 S   0  0  0  0  0  0  0  0  0  0  0  0
   35.0410   29.4930   32.6990 C   0  0  0  0  0  0  0  0  0  0  0  0
   35.2160   30.2330   31.5150 C   0  0  0  0  0  0  0  0  0  0  0  0
   36.2150   29.9320   30.6300 C   0  0  0  0  0  0  0  0  0  0  0  0
   37.0330   28.8650   30.9650 C   0  0  0  0  0  0  0  0  0  0  0  0
   36.8520   28.1590   32.1120 C   0  0  0  0  0  0  0  0  0  0  0  0
   35.8560   28.4580   32.9970 N   0  0  0  0  0  0  0  0  0  0  0  0
   34.5530   31.0580   31.2950 H   0  0  0  0  0  0  0  0  0  0  0  0
   36.3670   30.4890   29.7130 H   0  0  0  0  0  0  0  0  0  0  0  0
   37.8420   28.5740   30.3070 H   0  0  0  0  0  0  0  0  0  0  0  0
   33.9680   29.8780   33.5720 C   0  0  0  0  0  0  0  0  0  0  0  0
   32.8070   29.5570   33.3320 O   0  0  0  0  0  0  0  0  0  0  0  0
   35.3910   31.3880   34.9070 C   0  0  0  0  0  0  0  0  0  0  0  0
   34.1910   30.6710   34.7920 C   0  0  0  0  0  0  0  0  0  0  0  0
   33.2550   30.7360   35.8310 C   0  0  0  0  0  0  0  0  0  0  0  0
   33.5390   31.4950   36.9290 N   0  0  0  0  0  0  0  0  0  0  0  0
   34.7060   32.1740   37.0120 C   0  0  0  0  0  0  0  0  0  0  0  0
   35.6100   32.1210   36.0240 N   0  0  0  0  0  0  0  0  0  0  0  0
   36.0980   31.3210   34.0900 H   0  0  0  0  0  0  0  0  0  0  0  0
   32.3350   30.1780   35.7250 H   0  0  0  0  0  0  0  0  0  0  0  0
   34.9350   32.7800   37.8860 H   0  0  0  0  0  0  0  0  0  0  0  0
  1  3  1  0  0  0  0
  1 26  1  0  0  0  0
  2  1  1  0  0  0  0
  4  9  1  6  0  0  0
  4  5  1  0  0  0  0
  4 15  1  0  0  0  0
  5 10  1  0  0  0  0
  5 11  1  0  0  0  0
  6 12  1  6  0  0  0
  6  1  1  0  0  0  0
  6  5  1  0  0  0  0
  7  6  1  0  0  0  0
  7  8  1  0  0  0  0
  8 14  1  0  0  0  0
  8  4  1  0  0  0  0
 13  8  1  0  0  0  0
 15 19  1  0  0  0  0
 16 17  1  0  0  0  0
 17 23  1  0  0  0  0
 18 19  2  0  0  0  0
 18 17  1  0  0  0  0
 19 20  1  0  0  0  0
 20 21  2  0  0  0  0
 20 22  1  0  0  0  0
 22 25  1  0  0  0  0
 23 22  1  0  0  0  0
 23 24  2  0  0  0  0
 27 32  1  0  0  0  0
 27 36  1  0  0  0  0
 28 27  2  0  0  0  0
 29 30  2  0  0  0  0
 29 28  1  0  0  0  0
 30 31  1  0  0  0  0
 31 26  1  0  0  0  0
 31 32  2  0  0  0  0
 33 28  1  0  0  0  0
 34 29  1  0  0  0  0
 35 30  1  0  0  0  0
 36 39  1  0  0  0  0
 37 36  2  0  0  0  0
 38 43  1  0  0  0  0
 39 38  2  0  0  0  0
 39 40  1  0  0  0  0
 40 41  2  0  0  0  0
 41 42  1  0  0  0  0
 42 46  1  0  0  0  0
 43 42  2  0  0  0  0
 44 38  1  0  0  0  0
 45 40  1  0  0  0  0
M  END
>  <minimizedAffinity>
-5.96470642

$$$$

 OpenBabel03262522173D

 46 49  0  0  1  0  0  0  0  0999 V2000
   35.7780   25.1240   31.7840 C   0  0  0  0  0  0  0  0  0  0  0  0
   35.7990   24.6710   32.7800 H   0  0  0  0  0  0  0  0  0  0  0  0
   34.7230   25.3910   31.5600 H   0  0  0  0  0  0  0  0  0  0  0  0
   37.1810   21.9510   31.0190 C   0  0  1  0  0  0  0  0  0  0  0  0
   35.8670   22.7010   31.2290 C   0  0  0  0  0  0  0  0  0  0  0  0
   36.2580   24.0930   30.7800 C   0  0  2  0  0  0  0  0  0  0  0  0
   37.6050   24.1280   30.6050 O   0  0  0  0  0  0  0  0  0  0  0  0
   38.1700   23.0720   31.3190 C   0  0  0  0  0  0  0  0  0  0  0  0
   37.2180   21.6830   29.9500 H   0  0  0  0  0  0  0  0  0  0  0  0
   35.0460   22.2540   30.6670 H   0  0  0  0  0  0  0  0  0  0  0  0
   35.7010   22.7140   32.3120 H   0  0  0  0  0  0  0  0  0  0  0  0
   35.6970   24.2740   29.8390 H   0  0  0  0  0  0  0  0  0  0  0  0
   39.1560   22.8630   30.8790 H   0  0  0  0  0  0  0  0  0  0  0  0
   38.1560   23.2610   32.3950 H   0  0  0  0  0  0  0  0  0  0  0  0
   37.3120   20.9160   31.9130 O   0  0  0  0  0  0  0  0  0  0  0  0
   37.4090   22.3340   36.2230 H   0  0  0  0  0  0  0  0  0  0  0  0
   36.9480   21.7430   35.4940 N   0  0  0  0  0  0  0  0  0  0  0  0
   37.5140   21.8120   34.2810 C   0  0  0  0  0  3  0  0  0  0  0  0
   36.9850   21.0730   33.2470 C   0  0  0  0  0  0  0  0  0  0  0  0
   35.8660   20.2760   33.5260 C   0  0  0  0  0  0  0  0  0  0  0  0
   35.2230   19.5190   32.7220 O   0  0  0  0  0  0  0  0  0  0  0  0
   35.3280   20.2420   34.7820 N   0  0  0  0  0  0  0  0  0  0  0  0
   35.8750   20.9800   35.7640 C   0  0  0  0  0  0  0  0  0  0  0  0
   35.3870   20.9560   36.9270 O   0  0  0  0  0  0  0  0  0  0  0  0
   34.5000   19.6710   35.0480 H   0  0  0  0  0  0  0  0  0  0  0  0
   36.8150   26.5910   31.5980 S   0  0  0  0  0  0  0  0  0  0  0  0
   39.4410   26.2550   34.5670 C   0  0  0  0  0  0  0  0  0  0  0  0
   38.9230   27.0930   35.5720 C   0  0  0  0  0  0  0  0  0  0  0  0
   37.7600   27.7890   35.3870 C   0  0  0  0  0  0  0  0  0  0  0  0
   37.1300   27.6210   34.1640 C   0  0  0  0  0  0  0  0  0  0  0  0
   37.6420   26.8090   33.2030 C   0  0  0  0  0  0  0  0  0  0  0  0
   38.8030   26.1130   33.3850 N   0  0  0  0  0  0  0  0  0  0  0  0
   39.4490   27.1920   36.5110 H   0  0  0  0  0  0  0  0  0  0  0  0
   37.3440   28.4390   36.1480 H   0  0  0  0  0  0  0  0  0  0  0  0
   36.2060   28.1440   33.9540 H   0  0  0  0  0  0  0  0  0  0  0  0
   40.6670   25.5620   34.8450 C   0  0  0  0  0  0  0  0  0  0  0  0
   41.7570   26.0760   34.6060 O   0  0  0  0  0  0  0  0  0  0  0  0
   39.7050   23.8700   36.3620 C   0  0  0  0  0  0  0  0  0  0  0  0
   40.6940   24.2090   35.4260 C   0  0  0  0  0  0  0  0  0  0  0  0
   41.6600   23.2580   35.0790 C   0  0  0  0  0  0  0  0  0  0  0  0
   41.6140   22.0260   35.6640 N   0  0  0  0  0  0  0  0  0  0  0  0
   40.6490   21.7280   36.5640 C   0  0  0  0  0  0  0  0  0  0  0  0
   39.7180   22.6300   36.9040 N   0  0  0  0  0  0  0  0  0  0  0  0
   38.9700   24.6230   36.6120 H   0  0  0  0  0  0  0  0  0  0  0  0
   42.4140   23.5360   34.3550 H   0  0  0  0  0  0  0  0  0  0  0  0
   40.6100   20.7470   37.0310 H   0  0  0  0  0  0  0  0  0  0  0  0
  1  2  1  0  0  0  0
  3  1  1  0  0  0  0
  4  9  1  6  0  0  0
  4  5  1  0  0  0  0
  4  8  1  0  0  0  0
  4 15  1  0  0  0  0
  5 11  1  0  0  0  0
  6 12  1  6  0  0  0
  6  5  1  0  0  0  0
  6  1  1  0  0  0  0
  7  6  1  0  0  0  0
  7  8  1  0  0  0  0
  8 14  1  0  0  0  0
 10  5  1  0  0  0  0
 13  8  1  0  0  0  0
 15 19  1  0  0  0  0
 17 23  1  0  0  0  0
 17 16  1  0  0  0  0
 18 17  1  0  0  0  0
 19 20  1  0  0  0  0
 19 18  2  0  0  0  0
 20 22  1  0  0  0  0
 21 20  2  0  0  0  0
 22 25  1  0  0  0  0
 22 23  1  0  0  0  0
 23 24  2  0  0  0  0
 26  1  1  0  0  0  0
 26 31  1  0  0  0  0
 27 36  1  0  0  0  0
 27 28  1  0  0  0  0
 28 33  1  0  0  0  0
 29 28  2  0  0  0  0
 29 34  1  0  0  0  0
 30 29  1  0  0  0  0
 31 32  1  0  0  0  0
 31 30  2  0  0  0  0
 32 27  2  0  0  0  0
 35 30  1  0  0  0  0
 36 39  1  0  0  0  0
 37 36  2  0  0  0  0
 38 44  1  0  0  0  0
 38 43  1  0  0  0  0
 39 38  2  0  0  0  0
 40 39  1  0  0  0  0
 40 41  2  0  0  0  0
 41 42  1  0  0  0  0
 42 43  2  0  0  0  0
 42 46  1  0  0  0  0
 45 40  1  0  0  0  0
M  END
>  <minimizedAffinity>
-5.95238018

$$$$

 OpenBabel03262522173D

 46 49  0  0  1  0  0  0  0  0999 V2000
   35.7770   26.9640   31.9710 C   0  0  0  0  0  0  0  0  0  0  0  0
   34.9140   27.0540   31.3050 H   0  0  0  0  0  0  0  0  0  0  0  0
   35.4360   26.4510   32.8950 H   0  0  0  0  0  0  0  0  0  0  0  0
   35.4530   29.9920   33.7990 C   0  0  1  0  0  0  0  0  0  0  0  0
   36.1020   28.6100   33.8070 C   0  0  0  0  0  0  0  0  0  0  0  0
   36.2570   28.3590   32.3220 C   0  0  2  0  0  0  0  0  0  0  0  0
   35.5810   29.3250   31.6480 O   0  0  0  0  0  0  0  0  0  0  0  0
   34.6440   29.8920   32.5110 C   0  0  0  0  0  0  0  0  0  0  0  0
   36.2730   30.7200   33.6810 H   0  0  0  0  0  0  0  0  0  0  0  0
   37.0350   28.5980   34.3730 H   0  0  0  0  0  0  0  0  0  0  0  0
   35.3420   27.9260   34.2020 H   0  0  0  0  0  0  0  0  0  0  0  0
   37.3500   28.3830   32.1270 H   0  0  0  0  0  0  0  0  0  0  0  0
   34.3900   30.8880   32.1190 H   0  0  0  0  0  0  0  0  0  0  0  0
   33.8020   29.2180   32.6880 H   0  0  0  0  0  0  0  0  0  0  0  0
   34.6360   30.1660   34.8910 O   0  0  0  0  0  0  0  0  0  0  0  0
   36.0500   34.1310   36.5860 H   0  0  0  0  0  0  0  0  0  0  0  0
   35.3440   33.3610   36.6030 N   0  0  0  0  0  0  0  0  0  0  0  0
   35.5690   32.3770   35.7210 C   0  0  0  0  0  3  0  0  0  0  0  0
   34.6980   31.3120   35.6590 C   0  0  0  0  0  0  0  0  0  0  0  0
   33.6060   31.3170   36.5390 C   0  0  0  0  0  0  0  0  0  0  0  0
   32.6850   30.4380   36.6490 O   0  0  0  0  0  0  0  0  0  0  0  0
   33.4230   32.3460   37.4200 N   0  0  0  0  0  0  0  0  0  0  0  0
   34.2980   33.3670   37.4470 C   0  0  0  0  0  0  0  0  0  0  0  0
   34.1390   34.3220   38.2560 O   0  0  0  0  0  0  0  0  0  0  0  0
   32.6330   32.4030   38.0950 H   0  0  0  0  0  0  0  0  0  0  0  0
   37.1790   26.0640   31.2750 S   0  0  0  0  0  0  0  0  0  0  0  0
   37.9240   22.7420   33.3340 C   0  0  0  0  0  0  0  0  0  0  0  0
   36.8980   21.8640   32.9390 C   0  0  0  0  0  0  0  0  0  0  0  0
   35.9450   22.2450   32.0350 C   0  0  0  0  0  0  0  0  0  0  0  0
   36.0480   23.5340   31.5370 C   0  0  0  0  0  0  0  0  0  0  0  0
   37.0440   24.3720   31.9280 C   0  0  0  0  0  0  0  0  0  0  0  0
   37.9970   23.9930   32.8300 N   0  0  0  0  0  0  0  0  0  0  0  0
   36.8570   20.8660   33.3530 H   0  0  0  0  0  0  0  0  0  0  0  0
   35.1470   21.5840   31.7170 H   0  0  0  0  0  0  0  0  0  0  0  0
   35.3260   23.8980   30.8180 H   0  0  0  0  0  0  0  0  0  0  0  0
   38.8820   22.2600   34.2870 C   0  0  0  0  0  0  0  0  0  0  0  0
   39.8000   21.5190   33.9470 O   0  0  0  0  0  0  0  0  0  0  0  0
   39.9890   22.4750   36.4820 C   0  0  0  0  0  0  0  0  0  0  0  0
   38.8240   22.6200   35.7140 C   0  0  0  0  0  0  0  0  0  0  0  0
   37.6600   23.0980   36.3240 C   0  0  0  0  0  0  0  0  0  0  0  0
   37.6900   23.4100   37.6530 N   0  0  0  0  0  0  0  0  0  0  0  0
   38.8280   23.2590   38.3680 C   0  0  0  0  0  0  0  0  0  0  0  0
   39.9500   22.8020   37.7950 N   0  0  0  0  0  0  0  0  0  0  0  0
   40.8760   22.1030   35.9860 H   0  0  0  0  0  0  0  0  0  0  0  0
   36.7710   23.2050   35.7170 H   0  0  0  0  0  0  0  0  0  0  0  0
   38.8560   23.5060   39.4270 H   0  0  0  0  0  0  0  0  0  0  0  0
  1  6  1  0  0  0  0
  1  3  1  0  0  0  0
  2  1  1  0  0  0  0
  4  9  1  6  0  0  0
  4  5  1  0  0  0  0
  4 15  1  0  0  0  0
  5 11  1  0  0  0  0
  5 10  1  0  0  0  0
  6 12  1  6  0  0  0
  6  5  1  0  0  0  0
  7  6  1  0  0  0  0
  7  8  1  0  0  0  0
  8 14  1  0  0  0  0
  8  4  1  0  0  0  0
 13  8  1  0  0  0  0
 15 19  1  0  0  0  0
 16 17  1  0  0  0  0
 17 23  1  0  0  0  0
 18 17  1  0  0  0  0
 19 18  2  0  0  0  0
 19 20  1  0  0  0  0
 20 21  2  0  0  0  0
 20 22  1  0  0  0  0
 22 23  1  0  0  0  0
 22 25  1  0  0  0  0
 23 24  2  0  0  0  0
 26 31  1  0  0  0  0
 26  1  1  0  0  0  0
 27 36  1  0  0  0  0
 28 27  1  0  0  0  0
 28 33  1  0  0  0  0
 29 28  2  0  0  0  0
 30 31  2  0  0  0  0
 30 29  1  0  0  0  0
 31 32  1  0  0  0  0
 32 27  2  0  0  0  0
 34 29  1  0  0  0  0
 35 30  1  0  0  0  0
 36 39  1  0  0  0  0
 37 36  2  0  0  0  0
 38 43  1  0  0  0  0
 39 40  1  0  0  0  0
 39 38  2  0  0  0  0
 40 41  2  0  0  0  0
 41 42  1  0  0  0  0
 42 46  1  0  0  0  0
 43 42  2  0  0  0  0
 44 38  1  0  0  0  0
 45 40  1  0  0  0  0
M  END
>  <minimizedAffinity>
-5.88091707

$$$$

 OpenBabel03262522173D

 46 49  0  0  1  0  0  0  0  0999 V2000
   39.2970   26.5190   35.0580 C   0  0  0  0  0  0  0  0  0  0  0  0
   39.7250   27.3080   34.4330 H   0  0  0  0  0  0  0  0  0  0  0  0
   39.7020   26.6470   36.0840 H   0  0  0  0  0  0  0  0  0  0  0  0
   38.8670   23.0110   34.7000 C   0  0  1  0  0  0  0  0  0  0  0  0
   38.5420   24.3640   34.0720 C   0  0  0  0  0  0  0  0  0  0  0  0
   39.7420   25.1780   34.5080 C   0  0  2  0  0  0  0  0  0  0  0  0
   40.4480   24.4530   35.4140 O   0  0  0  0  0  0  0  0  0  0  0  0
   39.6100   23.4760   35.9480 C   0  0  0  0  0  0  0  0  0  0  0  0
   39.5610   22.5060   34.0070 H   0  0  0  0  0  0  0  0  0  0  0  0
   38.4050   24.2930   32.9910 H   0  0  0  0  0  0  0  0  0  0  0  0
   37.6550   24.7330   34.6010 H   0  0  0  0  0  0  0  0  0  0  0  0
   40.3170   25.3840   33.5800 H   0  0  0  0  0  0  0  0  0  0  0  0
   40.2460   22.6770   36.3550 H   0  0  0  0  0  0  0  0  0  0  0  0
   38.8800   23.9060   36.6380 H   0  0  0  0  0  0  0  0  0  0  0  0
   37.7230   22.3240   35.0250 O   0  0  0  0  0  0  0  0  0  0  0  0
   36.7550   20.1270   31.1740 H   0  0  0  0  0  0  0  0  0  0  0  0
   36.5280   20.2930   32.1810 N   0  0  0  0  0  0  0  0  0  0  0  0
   37.3210   21.1860   32.7910 C   0  0  0  0  0  3  0  0  0  0  0  0
   37.1100   21.4790   34.1200 C   0  0  0  0  0  0  0  0  0  0  0  0
   36.0600   20.8160   34.7710 C   0  0  0  0  0  0  0  0  0  0  0  0
   35.6930   20.9360   35.9890 O   0  0  0  0  0  0  0  0  0  0  0  0
   35.2810   19.9140   34.1020 N   0  0  0  0  0  0  0  0  0  0  0  0
   35.5210   19.6560   32.8040 C   0  0  0  0  0  0  0  0  0  0  0  0
   34.8090   18.8250   32.1760 O   0  0  0  0  0  0  0  0  0  0  0  0
   34.4900   19.3930   34.5320 H   0  0  0  0  0  0  0  0  0  0  0  0
   37.4920   26.5070   35.1300 S   0  0  0  0  0  0  0  0  0  0  0  0
   35.5600   29.4780   33.3230 C   0  0  0  0  0  0  0  0  0  0  0  0
   36.0920   29.4830   32.0200 C   0  0  0  0  0  0  0  0  0  0  0  0
   37.0540   28.5870   31.6420 C   0  0  0  0  0  0  0  0  0  0  0  0
   37.4690   27.6850   32.6080 C   0  0  0  0  0  0  0  0  0  0  0  0
   36.9460   27.6920   33.8630 C   0  0  0  0  0  0  0  0  0  0  0  0
   35.9860   28.5850   34.2420 N   0  0  0  0  0  0  0  0  0  0  0  0
   35.7380   30.2060   31.2990 H   0  0  0  0  0  0  0  0  0  0  0  0
   37.4770   28.5750   30.6440 H   0  0  0  0  0  0  0  0  0  0  0  0
   38.2280   26.9490   32.3740 H   0  0  0  0  0  0  0  0  0  0  0  0
   34.5540   30.4540   33.6350 C   0  0  0  0  0  0  0  0  0  0  0  0
   33.6310   30.6850   32.8590 O   0  0  0  0  0  0  0  0  0  0  0  0
   35.6040   32.1490   35.0870 C   0  0  0  0  0  0  0  0  0  0  0  0
   34.5670   31.2260   34.8880 C   0  0  0  0  0  0  0  0  0  0  0  0
   33.5890   31.0750   35.8770 C   0  0  0  0  0  0  0  0  0  0  0  0
   33.6740   31.8310   37.0110 N   0  0  0  0  0  0  0  0  0  0  0  0
   34.6860   32.7120   37.1750 C   0  0  0  0  0  0  0  0  0  0  0  0
   35.6290   32.8670   36.2350 N   0  0  0  0  0  0  0  0  0  0  0  0
   36.3480   32.2470   34.3070 H   0  0  0  0  0  0  0  0  0  0  0  0
   32.7960   30.3600   35.7070 H   0  0  0  0  0  0  0  0  0  0  0  0
   34.7560   33.3160   38.0770 H   0  0  0  0  0  0  0  0  0  0  0  0
  1 26  1  0  0  0  0
  1  3  1  0  0  0  0
  2  1  1  0  0  0  0
  4  9  1  6  0  0  0
  4 15  1  0  0  0  0
  4  8  1  0  0  0  0
  5  6  1  0  0  0  0
  5 11  1  0  0  0  0
  5  4  1  0  0  0  0
  6 12  1  6  0  0  0
  6  1  1  0  0  0  0
  6  7  1  0  0  0  0
  7  8  1  0  0  0  0
  8 13  1  0  0  0  0
  8 14  1  0  0  0  0
 10  5  1  0  0  0  0
 16 17  1  0  0  0  0
 17 18  1  0  0  0  0
 17 23  1  0  0  0  0
 18 19  2  0  0  0  0
 19 20  1  0  0  0  0
 19 15  1  0  0  0  0
 20 21  2  0  0  0  0
 22 25  1  0  0  0  0
 22 20  1  0  0  0  0
 23 22  1  0  0  0  0
 24 23  2  0  0  0  0
 27 36  1  0  0  0  0
 27 32  1  0  0  0  0
 28 27  2  0  0  0  0
 29 28  1  0  0  0  0
 29 30  2  0  0  0  0
 30 31  1  0  0  0  0
 31 32  2  0  0  0  0
 31 26  1  0  0  0  0
 33 28  1  0  0  0  0
 34 29  1  0  0  0  0
 35 30  1  0  0  0  0
 36 39  1  0  0  0  0
 37 36  2  0  0  0  0
 38 43  1  0  0  0  0
 39 38  2  0  0  0  0
 39 40  1  0  0  0  0
 40 41  2  0  0  0  0
 41 42  1  0  0  0  0
 42 46  1  0  0  0  0
 43 42  2  0  0  0  0
 44 38  1  0  0  0  0
 45 40  1  0  0  0  0
M  END
>  <minimizedAffinity>
-5.79087734

$$$$

 OpenBabel03262522173D

 46 49  0  0  1  0  0  0  0  0999 V2000
   36.5080   29.2650   31.8750 C   0  0  0  0  0  0  0  0  0  0  0  0
   37.3680   29.5980   32.4630 H   0  0  0  0  0  0  0  0  0  0  0  0
   36.7390   29.4550   30.8050 H   0  0  0  0  0  0  0  0  0  0  0  0
   34.5360   30.8680   34.3570 C   0  0  1  0  0  0  0  0  0  0  0  0
   35.6830   31.0740   33.3700 C   0  0  0  0  0  0  0  0  0  0  0  0
   35.3030   30.0920   32.2820 C   0  0  2  0  0  0  0  0  0  0  0  0
   34.2760   29.3250   32.7320 O   0  0  0  0  0  0  0  0  0  0  0  0
   34.2550   29.3880   34.1240 C   0  0  0  0  0  0  0  0  0  0  0  0
   33.6960   31.4800   33.9870 H   0  0  0  0  0  0  0  0  0  0  0  0
   35.7620   32.1120   33.0420 H   0  0  0  0  0  0  0  0  0  0  0  0
   36.5820   30.7060   33.8780 H   0  0  0  0  0  0  0  0  0  0  0  0
   35.0250   30.7110   31.4030 H   0  0  0  0  0  0  0  0  0  0  0  0
   33.2420   29.1160   34.4550 H   0  0  0  0  0  0  0  0  0  0  0  0
   35.0730   28.8130   34.5650 H   0  0  0  0  0  0  0  0  0  0  0  0
   34.9410   31.1040   35.6480 O   0  0  0  0  0  0  0  0  0  0  0  0
   35.6060   35.4950   36.5810 H   0  0  0  0  0  0  0  0  0  0  0  0
   35.0760   34.6170   36.7820 N   0  0  0  0  0  0  0  0  0  0  0  0
   35.4450   33.5620   36.0420 C   0  0  0  0  0  3  0  0  0  0  0  0
   34.8110   32.3540   36.2250 C   0  0  0  0  0  0  0  0  0  0  0  0
   33.7980   32.2930   37.1920 C   0  0  0  0  0  0  0  0  0  0  0  0
   33.0870   31.2830   37.5200 O   0  0  0  0  0  0  0  0  0  0  0  0
   33.4600   33.4000   37.9200 N   0  0  0  0  0  0  0  0  0  0  0  0
   34.1050   34.5610   37.7100 C   0  0  0  0  0  0  0  0  0  0  0  0
   33.8020   35.5890   38.3760 O   0  0  0  0  0  0  0  0  0  0  0  0
   32.7190   33.4150   38.6500 H   0  0  0  0  0  0  0  0  0  0  0  0
   36.0720   27.5250   32.0880 S   0  0  0  0  0  0  0  0  0  0  0  0
   37.9640   25.2020   34.7060 C   0  0  0  0  0  0  0  0  0  0  0  0
   38.3400   26.0870   35.7320 C   0  0  0  0  0  0  0  0  0  0  0  0
   38.0340   27.4190   35.6700 C   0  0  0  0  0  0  0  0  0  0  0  0
   37.3390   27.8390   34.5470 C   0  0  0  0  0  0  0  0  0  0  0  0
   36.9830   26.9730   33.5620 C   0  0  0  0  0  0  0  0  0  0  0  0
   37.2870   25.6430   33.6230 N   0  0  0  0  0  0  0  0  0  0  0  0
   38.8800   25.7140   36.5910 H   0  0  0  0  0  0  0  0  0  0  0  0
   38.3140   28.1170   36.4500 H   0  0  0  0  0  0  0  0  0  0  0  0
   37.0660   28.8810   34.4360 H   0  0  0  0  0  0  0  0  0  0  0  0
   38.3250   23.8200   34.8520 C   0  0  0  0  0  0  0  0  0  0  0  0
   37.6270   22.9270   34.3820 O   0  0  0  0  0  0  0  0  0  0  0  0
   40.7860   23.7150   35.0050 C   0  0  0  0  0  0  0  0  0  0  0  0
   39.5410   23.3960   35.5670 C   0  0  0  0  0  0  0  0  0  0  0  0
   39.4970   22.6930   36.7760 C   0  0  0  0  0  0  0  0  0  0  0  0
   40.6710   22.3360   37.3750 N   0  0  0  0  0  0  0  0  0  0  0  0
   41.8570   22.6570   36.8090 C   0  0  0  0  0  0  0  0  0  0  0  0
   41.9120   23.3300   35.6510 N   0  0  0  0  0  0  0  0  0  0  0  0
   40.7910   24.2590   34.0700 H   0  0  0  0  0  0  0  0  0  0  0  0
   38.5290   22.4550   37.1960 H   0  0  0  0  0  0  0  0  0  0  0  0
   42.7930   22.3740   37.2840 H   0  0  0  0  0  0  0  0  0  0  0  0
  1 26  1  0  0  0  0
  1  6  1  0  0  0  0
  1  2  1  0  0  0  0
  3  1  1  0  0  0  0
  4  9  1  6  0  0  0
  4 15  1  0  0  0  0
  5 11  1  0  0  0  0
  5  4  1  0  0  0  0
  6 12  1  6  0  0  0
  6  7  1  0  0  0  0
  6  5  1  0  0  0  0
  7  8  1  0  0  0  0
  8  4  1  0  0  0  0
  8 13  1  0  0  0  0
  8 14  1  0  0  0  0
 10  5  1  0  0  0  0
 15 19  1  0  0  0  0
 16 17  1  0  0  0  0
 17 23  1  0  0  0  0
 18 19  2  0  0  0  0
 18 17  1  0  0  0  0
 19 20  1  0  0  0  0
 20 21  2  0  0  0  0
 20 22  1  0  0  0  0
 22 25  1  0  0  0  0
 23 22  1  0  0  0  0
 23 24  2  0  0  0  0
 26 31  1  0  0  0  0
 27 36  1  0  0  0  0
 27 28  1  0  0  0  0
 28 33  1  0  0  0  0
 29 28  2  0  0  0  0
 29 34  1  0  0  0  0
 30 29  1  0  0  0  0
 31 32  1  0  0  0  0
 31 30  2  0  0  0  0
 32 27  2  0  0  0  0
 35 30  1  0  0  0  0
 36 39  1  0  0  0  0
 37 36  2  0  0  0  0
 38 39  2  0  0  0  0
 38 43  1  0  0  0  0
 39 40  1  0  0  0  0
 40 45  1  0  0  0  0
 40 41  2  0  0  0  0
 42 46  1  0  0  0  0
 42 41  1  0  0  0  0
 43 42  2  0  0  0  0
 44 38  1  0  0  0  0
M  END
>  <minimizedAffinity>
-5.76545143

$$$$

 OpenBabel03262522173D

 46 49  0  0  1  0  0  0  0  0999 V2000
   41.2970   26.2970   34.3660 C   0  0  0  0  0  0  0  0  0  0  0  0
   41.3190   27.0230   33.5480 H   0  0  0  0  0  0  0  0  0  0  0  0
   41.8080   26.7600   35.2380 H   0  0  0  0  0  0  0  0  0  0  0  0
   41.9210   22.8050   34.5410 C   0  0  1  0  0  0  0  0  0  0  0  0
   41.1310   23.8810   33.8000 C   0  0  0  0  0  0  0  0  0  0  0  0
   42.0660   25.0640   33.9320 C   0  0  2  0  0  0  0  0  0  0  0  0
   43.0560   24.7370   34.8040 O   0  0  0  0  0  0  0  0  0  0  0  0
   42.6200   23.6680   35.5850 C   0  0  0  0  0  0  0  0  0  0  0  0
   42.6540   22.4070   33.8200 H   0  0  0  0  0  0  0  0  0  0  0  0
   40.9040   23.5900   32.7730 H   0  0  0  0  0  0  0  0  0  0  0  0
   40.2390   24.0680   34.4090 H   0  0  0  0  0  0  0  0  0  0  0  0
   42.4440   25.2640   32.9070 H   0  0  0  0  0  0  0  0  0  0  0  0
   43.5110   23.1650   35.9890 H   0  0  0  0  0  0  0  0  0  0  0  0
   41.8750   23.9850   36.3200 H   0  0  0  0  0  0  0  0  0  0  0  0
   41.0840   21.8870   35.1290 O   0  0  0  0  0  0  0  0  0  0  0  0
   39.8260   23.0530   39.3310 H   0  0  0  0  0  0  0  0  0  0  0  0
   39.5410   22.8280   38.3500 N   0  0  0  0  0  0  0  0  0  0  0  0
   40.5590   22.5360   37.5270 C   0  0  0  0  0  3  0  0  0  0  0  0
   40.2950   22.2250   36.2120 C   0  0  0  0  0  0  0  0  0  0  0  0
   38.9550   22.2310   35.8010 C   0  0  0  0  0  0  0  0  0  0  0  0
   38.4910   21.9750   34.6380 O   0  0  0  0  0  0  0  0  0  0  0  0
   37.9550   22.5350   36.6810 N   0  0  0  0  0  0  0  0  0  0  0  0
   38.2550   22.8330   37.9580 C   0  0  0  0  0  0  0  0  0  0  0  0
   37.3410   23.1150   38.7800 O   0  0  0  0  0  0  0  0  0  0  0  0
   36.9440   22.5540   36.4350 H   0  0  0  0  0  0  0  0  0  0  0  0
   39.6440   25.7630   34.8610 S   0  0  0  0  0  0  0  0  0  0  0  0
   36.9040   25.3470   32.0060 C   0  0  0  0  0  0  0  0  0  0  0  0
   36.9490   26.5720   31.3150 C   0  0  0  0  0  0  0  0  0  0  0  0
   37.8100   27.5670   31.6880 C   0  0  0  0  0  0  0  0  0  0  0  0
   38.6270   27.3000   32.7750 C   0  0  0  0  0  0  0  0  0  0  0  0
   38.5730   26.1130   33.4330 C   0  0  0  0  0  0  0  0  0  0  0  0
   37.7140   25.1170   33.0630 N   0  0  0  0  0  0  0  0  0  0  0  0
   36.2930   26.7360   30.4720 H   0  0  0  0  0  0  0  0  0  0  0  0
   37.8600   28.5170   31.1690 H   0  0  0  0  0  0  0  0  0  0  0  0
   39.3310   28.0460   33.1210 H   0  0  0  0  0  0  0  0  0  0  0  0
   35.9710   24.3580   31.5480 C   0  0  0  0  0  0  0  0  0  0  0  0
   34.8760   24.6790   31.0930 O   0  0  0  0  0  0  0  0  0  0  0  0
   37.4260   22.4550   30.9580 C   0  0  0  0  0  0  0  0  0  0  0  0
   36.2640   22.9160   31.5940 C   0  0  0  0  0  0  0  0  0  0  0  0
   35.4330   21.9980   32.2460 C   0  0  0  0  0  0  0  0  0  0  0  0
   35.7770   20.6770   32.2420 N   0  0  0  0  0  0  0  0  0  0  0  0
   36.9040   20.2620   31.6190 C   0  0  0  0  0  0  0  0  0  0  0  0
   37.7080   21.1310   30.9920 N   0  0  0  0  0  0  0  0  0  0  0  0
   38.0510   23.1850   30.4610 H   0  0  0  0  0  0  0  0  0  0  0  0
   34.5410   22.3700   32.7320 H   0  0  0  0  0  0  0  0  0  0  0  0
   37.1810   19.2110   31.6150 H   0  0  0  0  0  0  0  0  0  0  0  0
  1 26  1  0  0  0  0
  1  3  1  0  0  0  0
  2  1  1  0  0  0  0
  4  9  1  6  0  0  0
  4 15  1  0  0  0  0
  4  8  1  0  0  0  0
  5  6  1  0  0  0  0
  5 11  1  0  0  0  0
  5  4  1  0  0  0  0
  6 12  1  6  0  0  0
  6  1  1  0  0  0  0
  6  7  1  0  0  0  0
  7  8  1  0  0  0  0
  8 13  1  0  0  0  0
  8 14  1  0  0  0  0
 10  5  1  0  0  0  0
 15 19  1  0  0  0  0
 17 16  1  0  0  0  0
 18 17  1  0  0  0  0
 19 18  2  0  0  0  0
 20 19  1  0  0  0  0
 20 22  1  0  0  0  0
 21 20  2  0  0  0  0
 22 23  1  0  0  0  0
 23 17  1  0  0  0  0
 23 24  2  0  0  0  0
 25 22  1  0  0  0  0
 27 32  1  0  0  0  0
 28 29  1  0  0  0  0
 28 27  2  0  0  0  0
 29 30  2  0  0  0  0
 30 35  1  0  0  0  0
 30 31  1  0  0  0  0
 31 26  1  0  0  0  0
 32 31  2  0  0  0  0
 33 28  1  0  0  0  0
 34 29  1  0  0  0  0
 36 39  1  0  0  0  0
 36 27  1  0  0  0  0
 37 36  2  0  0  0  0
 38 43  2  0  0  0  0
 38 39  1  0  0  0  0
 39 40  2  0  0  0  0
 40 45  1  0  0  0  0
 41 40  1  0  0  0  0
 42 41  2  0  0  0  0
 43 42  1  0  0  0  0
 44 38  1  0  0  0  0
 46 42  1  0  0  0  0
M  END
>  <minimizedAffinity>
-5.74299383

$$$$
