
 OpenBabel03272509193D

 34 36  0  0  0  0  0  0  0  0999 V2000
   38.0580   31.1620   47.7240 C   0  0  0  0  0  0  0  0  0  0  0  0
   37.1000   31.2710   48.7200 C   0  0  0  0  0  0  0  0  0  0  0  0
   37.2070   32.4240   49.5000 C   0  0  0  0  0  0  0  0  0  0  0  0
   38.2130   33.3750   49.2690 C   0  0  0  0  0  0  0  0  0  0  0  0
   39.1290   33.1660   48.2350 C   0  0  0  0  0  0  0  0  0  0  0  0
   39.0480   32.0380   47.4490 C   0  0  0  0  0  0  0  0  0  0  0  0
   36.4910   32.5630   50.2890 H   0  0  0  0  0  0  0  0  0  0  0  0
   38.2810   34.2610   49.8820 H   0  0  0  0  0  0  0  0  0  0  0  0
   39.8970   33.9030   48.0660 H   0  0  0  0  0  0  0  0  0  0  0  0
   34.9130   30.3020   48.1730 C   0  0  0  0  0  0  0  0  0  0  0  0
   36.0760   30.2970   48.9500 C   0  0  0  0  0  0  0  0  0  0  0  0
   36.1970   29.3230   49.9420 C   0  0  0  0  0  0  0  0  0  0  0  0
   35.1690   28.4360   50.0900 N   0  0  0  0  0  0  0  0  0  0  0  0
   34.0610   28.4760   49.3160 C   0  0  0  0  0  0  0  0  0  0  0  0
   33.9300   29.4090   48.3560 N   0  0  0  0  0  0  0  0  0  0  0  0
   34.8300   31.0640   47.4050 H   0  0  0  0  0  0  0  0  0  0  0  0
   33.2970   27.7360   49.5000 H   0  0  0  0  0  0  0  0  0  0  0  0
   37.3930   29.2630   50.7930 C   0  0  0  0  0  0  0  0  0  0  0  0
   37.3000   29.8680   51.7260 H   0  0  0  0  0  0  0  0  0  0  0  0
   37.7150   28.2400   51.0650 H   0  0  0  0  0  0  0  0  0  0  0  0
   38.2430   29.7260   50.2310 H   0  0  0  0  0  0  0  0  0  0  0  0
   38.0260   30.0180   46.8820 O   0  0  0  0  0  0  0  0  0  0  0  0
   37.1610   29.7190   46.4470 H   0  0  0  0  0  0  0  0  0  0  0  0
   39.9750   31.8840   46.4470 O   0  0  0  0  0  0  0  0  0  0  0  0
   38.3450   30.4930   42.4640 H   0  0  0  0  0  0  0  0  0  0  0  0
   38.7520   31.2960   43.0120 N   0  0  0  0  0  0  0  0  0  0  0  0
   39.0390   30.9660   44.2800 C   0  0  0  0  0  3  0  0  0  0  0  0
   39.5770   31.9020   45.1290 C   0  0  0  0  0  0  0  0  0  0  0  0
   39.7990   33.1750   44.6100 C   0  0  0  0  0  0  0  0  0  0  0  0
   40.2770   34.1870   45.1890 O   0  0  0  0  0  0  0  0  0  0  0  0
   39.4970   33.4860   43.3150 N   0  0  0  0  0  0  0  0  0  0  0  0
   38.9650   32.5190   42.5130 C   0  0  0  0  0  0  0  0  0  0  0  0
   38.6350   32.6370   41.3140 O   0  0  0  0  0  0  0  0  0  0  0  0
   39.6230   34.3850   42.8470 H   0  0  0  0  0  0  0  0  0  0  0  0
  1  2  1  0  0  0  0
  2 11  1  0  0  0  0
  2  3  2  0  0  0  0
  3  7  1  0  0  0  0
  4  3  1  0  0  0  0
  4  8  1  0  0  0  0
  5  4  2  0  0  0  0
  6  1  2  0  0  0  0
  6  5  1  0  0  0  0
  9  5  1  0  0  0  0
 10 15  2  0  0  0  0
 10 11  1  0  0  0  0
 11 12  2  0  0  0  0
 12 13  1  0  0  0  0
 12 18  1  0  0  0  0
 14 17  1  0  0  0  0
 14 13  2  0  0  0  0
 15 14  1  0  0  0  0
 16 10  1  0  0  0  0
 18 20  1  0  0  0  0
 18 19  1  0  0  0  0
 21 18  1  0  0  0  0
 22  1  1  0  0  0  0
 23 22  1  0  0  0  0
 24  6  1  0  0  0  0
 25 26  1  0  0  0  0
 26 27  1  0  0  0  0
 27 28  2  0  0  0  0
 28 24  1  0  0  0  0
 29 28  1  0  0  0  0
 29 30  2  0  0  0  0
 31 29  1  0  0  0  0
 32 26  1  0  0  0  0
 32 31  1  0  0  0  0
 33 32  2  0  0  0  0
 34 31  1  0  0  0  0
M  END
>  <minimizedAffinity>
-6.46995449

>  <minimizedRMSD>
1.10257566

$$$$
