
 OpenBabel03272503473D

 25 26  0  0  0  0  0  0  0  0999 V2000
   36.9530   27.0710   35.0980 O   0  0  0  0  0  0  0  0  0  0  0  0
   38.0800   26.0630   35.0630 P   0  0  2  0  0  0  0  0  0  0  0  0
   39.4770   26.8580   35.6050 O   0  0  0  0  0  0  0  0  0  0  0  0
   39.8900   27.3900   34.8920 H   0  0  0  0  0  0  0  0  0  0  0  0
   38.3650   25.4820   33.4670 O   0  0  0  0  0  0  0  0  0  0  0  0
   37.3690   24.8790   32.7140 C   0  0  0  0  0  0  0  0  0  0  0  0
   36.3850   25.5330   31.9560 C   0  0  0  0  0  0  0  0  0  0  0  0
   35.4590   24.7810   31.2560 C   0  0  0  0  0  0  0  0  0  0  0  0
   35.5460   23.4130   31.3360 N   0  0  0  0  0  0  0  0  0  0  0  0
   36.5050   22.8090   32.0750 C   0  0  0  0  0  0  0  0  0  0  0  0
   37.4220   23.5340   32.7680 N   0  0  0  0  0  0  0  0  0  0  0  0
   36.4460   26.6230   31.9900 H   0  0  0  0  0  0  0  0  0  0  0  0
   34.7280   25.3170   30.6920 H   0  0  0  0  0  0  0  0  0  0  0  0
   36.4950   21.7200   32.0790 H   0  0  0  0  0  0  0  0  0  0  0  0
   37.7340   24.7010   36.0040 O   0  0  0  0  0  0  0  0  0  0  0  0
   41.4570   22.2020   35.4240 H   0  0  0  0  0  0  0  0  0  0  0  0
   40.7100   22.5270   36.0700 N   0  0  0  0  0  0  0  0  0  0  0  0
   39.8030   23.3620   35.5310 C   0  0  0  0  0  3  0  0  0  0  0  0
   38.7790   23.8400   36.3230 C   0  0  0  0  0  0  0  0  0  0  0  0
   38.7140   23.4460   37.6530 C   0  0  0  0  0  0  0  0  0  0  0  0
   37.8500   23.7870   38.5140 O   0  0  0  0  0  0  0  0  0  0  0  0
   39.6320   22.6070   38.1860 N   0  0  0  0  0  0  0  0  0  0  0  0
   40.6260   22.1610   37.3630 C   0  0  0  0  0  0  0  0  0  0  0  0
   41.5350   21.3740   37.7550 O   0  0  0  0  0  0  0  0  0  0  0  0
   39.6470   22.2700   39.1730 H   0  0  0  0  0  0  0  0  0  0  0  0
  2  1  2  1  0  0  0
  2  3  1  0  0  0  0
  2 15  1  0  0  0  0
  4  3  1  0  0  0  0
  5  2  1  0  0  0  0
  6 11  1  0  0  0  0
  6  5  1  0  0  0  0
  7 12  1  0  0  0  0
  7  6  2  0  0  0  0
  8  9  2  0  0  0  0
  8  7  1  0  0  0  0
  9 10  1  0  0  0  0
 10 14  1  0  0  0  0
 10 11  2  0  0  0  0
 13  8  1  0  0  0  0
 15 19  1  0  0  0  0
 16 17  1  0  0  0  0
 17 23  1  0  0  0  0
 18 17  1  0  0  0  0
 18 19  2  0  0  0  0
 19 20  1  0  0  0  0
 20 22  1  0  0  0  0
 20 21  2  0  0  0  0
 22 25  1  0  0  0  0
 23 24  2  0  0  0  0
 23 22  1  0  0  0  0
M  END
>  <minimizedAffinity>
-5.21045256

$$$$

 OpenBabel03272503473D

 25 26  0  0  0  0  0  0  0  0999 V2000
   39.3050   26.9380   35.2210 O   0  0  0  0  0  0  0  0  0  0  0  0
   38.0740   26.0930   34.9810 P   0  0  2  0  0  0  0  0  0  0  0  0
   38.2720   25.3410   33.4730 O   0  0  0  0  0  0  0  0  0  0  0  0
   38.0400   25.9440   32.7350 H   0  0  0  0  0  0  0  0  0  0  0  0
   36.6440   27.0520   34.9300 O   0  0  0  0  0  0  0  0  0  0  0  0
   36.4600   28.0500   33.9860 C   0  0  0  0  0  0  0  0  0  0  0  0
   35.7270   29.2360   34.1570 C   0  0  0  0  0  0  0  0  0  0  0  0
   35.6410   30.1350   33.1090 C   0  0  0  0  0  0  0  0  0  0  0  0
   36.2830   29.8230   31.9370 N   0  0  0  0  0  0  0  0  0  0  0  0
   36.9820   28.6730   31.7990 C   0  0  0  0  0  0  0  0  0  0  0  0
   37.0760   27.7800   32.8180 N   0  0  0  0  0  0  0  0  0  0  0  0
   35.2750   29.3420   35.1450 H   0  0  0  0  0  0  0  0  0  0  0  0
   35.0750   31.0230   33.2810 H   0  0  0  0  0  0  0  0  0  0  0  0
   37.4570   28.5110   30.8320 H   0  0  0  0  0  0  0  0  0  0  0  0
   37.8370   24.9610   36.2140 O   0  0  0  0  0  0  0  0  0  0  0  0
   41.5710   22.5080   35.5240 H   0  0  0  0  0  0  0  0  0  0  0  0
   40.7880   22.7550   36.1630 N   0  0  0  0  0  0  0  0  0  0  0  0
   39.9210   23.6680   35.6880 C   0  0  0  0  0  3  0  0  0  0  0  0
   38.8540   24.0500   36.4750 C   0  0  0  0  0  0  0  0  0  0  0  0
   38.7060   23.4810   37.7330 C   0  0  0  0  0  0  0  0  0  0  0  0
   37.7930   23.7150   38.5790 O   0  0  0  0  0  0  0  0  0  0  0  0
   39.5840   22.5640   38.2020 N   0  0  0  0  0  0  0  0  0  0  0  0
   40.6230   22.2190   37.3860 C   0  0  0  0  0  0  0  0  0  0  0  0
   41.5010   21.3730   37.7220 O   0  0  0  0  0  0  0  0  0  0  0  0
   39.5360   22.0970   39.1320 H   0  0  0  0  0  0  0  0  0  0  0  0
  2  1  2  1  0  0  0
  2 15  1  0  0  0  0
  3  2  1  0  0  0  0
  4  3  1  0  0  0  0
  5  2  1  0  0  0  0
  6  7  1  0  0  0  0
  6  5  1  0  0  0  0
  7 12  1  0  0  0  0
  8 13  1  0  0  0  0
  8  7  2  0  0  0  0
  9  8  1  0  0  0  0
 10  9  2  0  0  0  0
 10 11  1  0  0  0  0
 11  6  2  0  0  0  0
 14 10  1  0  0  0  0
 15 19  1  0  0  0  0
 16 17  1  0  0  0  0
 17 23  1  0  0  0  0
 18 17  1  0  0  0  0
 18 19  2  0  0  0  0
 19 20  1  0  0  0  0
 20 22  1  0  0  0  0
 20 21  2  0  0  0  0
 22 25  1  0  0  0  0
 23 24  2  0  0  0  0
 23 22  1  0  0  0  0
M  END
>  <minimizedAffinity>
-5.12230968

$$$$

 OpenBabel03272503473D

 25 26  0  0  0  0  0  0  0  0999 V2000
   36.7650   27.2850   34.9640 O   0  0  0  0  0  0  0  0  0  0  0  0
   37.9790   26.4370   35.2680 P   0  0  2  0  0  0  0  0  0  0  0  0
   39.0680   27.4150   36.1250 O   0  0  0  0  0  0  0  0  0  0  0  0
   39.5850   27.9930   35.5240 H   0  0  0  0  0  0  0  0  0  0  0  0
   38.7510   25.8910   33.8280 O   0  0  0  0  0  0  0  0  0  0  0  0
   39.8620   26.5300   33.3000 C   0  0  0  0  0  0  0  0  0  0  0  0
   39.9710   27.0900   32.0170 C   0  0  0  0  0  0  0  0  0  0  0  0
   41.1550   27.6970   31.6420 C   0  0  0  0  0  0  0  0  0  0  0  0
   42.1830   27.7250   32.5520 N   0  0  0  0  0  0  0  0  0  0  0  0
   42.0510   27.1770   33.7820 C   0  0  0  0  0  0  0  0  0  0  0  0
   40.8940   26.5770   34.1650 N   0  0  0  0  0  0  0  0  0  0  0  0
   39.0690   26.9900   31.4090 H   0  0  0  0  0  0  0  0  0  0  0  0
   41.1960   28.1100   30.6580 H   0  0  0  0  0  0  0  0  0  0  0  0
   42.9190   27.2460   34.4360 H   0  0  0  0  0  0  0  0  0  0  0  0
   37.5730   25.0460   36.1390 O   0  0  0  0  0  0  0  0  0  0  0  0
   41.0950   22.3070   35.4070 H   0  0  0  0  0  0  0  0  0  0  0  0
   40.4080   22.6910   36.0870 N   0  0  0  0  0  0  0  0  0  0  0  0
   39.5250   23.5710   35.5810 C   0  0  0  0  0  3  0  0  0  0  0  0
   38.5790   24.1270   36.4180 C   0  0  0  0  0  0  0  0  0  0  0  0
   38.5680   23.7640   37.7590 C   0  0  0  0  0  0  0  0  0  0  0  0
   37.7780   24.1750   38.6590 O   0  0  0  0  0  0  0  0  0  0  0  0
   39.4620   22.8790   38.2580 N   0  0  0  0  0  0  0  0  0  0  0  0
   40.3770   22.3560   37.3900 C   0  0  0  0  0  0  0  0  0  0  0  0
   41.2570   21.5210   37.7480 O   0  0  0  0  0  0  0  0  0  0  0  0
   39.5130   22.5610   39.2500 H   0  0  0  0  0  0  0  0  0  0  0  0
  2  1  2  6  0  0  0
  2  3  1  0  0  0  0
  2 15  1  0  0  0  0
  4  3  1  0  0  0  0
  5  2  1  0  0  0  0
  6  5  1  0  0  0  0
  6 11  1  0  0  0  0
  7  6  2  0  0  0  0
  8  7  1  0  0  0  0
  8  9  2  0  0  0  0
  9 10  1  0  0  0  0
 10 11  2  0  0  0  0
 10 14  1  0  0  0  0
 12  7  1  0  0  0  0
 13  8  1  0  0  0  0
 15 19  1  0  0  0  0
 16 17  1  0  0  0  0
 17 23  1  0  0  0  0
 18 17  1  0  0  0  0
 18 19  2  0  0  0  0
 19 20  1  0  0  0  0
 20 22  1  0  0  0  0
 20 21  2  0  0  0  0
 22 25  1  0  0  0  0
 23 24  2  0  0  0  0
 23 22  1  0  0  0  0
M  END
>  <minimizedAffinity>
-5.02737665

$$$$

 OpenBabel03272503473D

 25 26  0  0  0  0  0  0  0  0999 V2000
   40.8680   26.7940   34.9510 O   0  0  0  0  0  0  0  0  0  0  0  0
   39.3920   26.8050   34.6250 P   0  0  2  0  0  0  0  0  0  0  0  0
   38.6390   27.8200   35.7570 O   0  0  0  0  0  0  0  0  0  0  0  0
   38.4800   27.3580   36.6070 H   0  0  0  0  0  0  0  0  0  0  0  0
   38.7000   25.2330   34.7550 O   0  0  0  0  0  0  0  0  0  0  0  0
   38.8190   24.4680   35.9050 C   0  0  0  0  0  0  0  0  0  0  0  0
   39.6850   23.3810   36.0980 C   0  0  0  0  0  0  0  0  0  0  0  0
   39.6820   22.7200   37.3130 C   0  0  0  0  0  0  0  0  0  0  0  0
   38.8220   23.1630   38.2860 N   0  0  0  0  0  0  0  0  0  0  0  0
   37.9970   24.2140   38.0730 C   0  0  0  0  0  0  0  0  0  0  0  0
   37.9880   24.8740   36.8860 N   0  0  0  0  0  0  0  0  0  0  0  0
   40.3100   23.1490   35.2320 H   0  0  0  0  0  0  0  0  0  0  0  0
   40.3570   21.8990   37.4180 H   0  0  0  0  0  0  0  0  0  0  0  0
   37.3490   24.4940   38.9030 H   0  0  0  0  0  0  0  0  0  0  0  0
   39.1010   27.3160   33.0400 O   0  0  0  0  0  0  0  0  0  0  0  0
   37.0810   24.3950   30.2420 H   0  0  0  0  0  0  0  0  0  0  0  0
   36.9820   25.2080   30.8840 N   0  0  0  0  0  0  0  0  0  0  0  0
   38.1220   25.6290   31.4630 C   0  0  0  0  0  3  0  0  0  0  0  0
   38.0760   26.7030   32.3290 C   0  0  0  0  0  0  0  0  0  0  0  0
   36.8560   27.3170   32.5780 C   0  0  0  0  0  0  0  0  0  0  0  0
   36.6350   28.3050   33.3390 O   0  0  0  0  0  0  0  0  0  0  0  0
   35.7150   26.8850   31.9920 N   0  0  0  0  0  0  0  0  0  0  0  0
   35.8120   25.8200   31.1430 C   0  0  0  0  0  0  0  0  0  0  0  0
   34.8110   25.3340   30.5420 O   0  0  0  0  0  0  0  0  0  0  0  0
   34.7670   27.2950   32.1310 H   0  0  0  0  0  0  0  0  0  0  0  0
  2  5  1  0  0  0  0
  2  1  2  1  0  0  0
  2  3  1  0  0  0  0
  3  4  1  0  0  0  0
  5  6  1  0  0  0  0
  6  7  2  0  0  0  0
  6 11  1  0  0  0  0
  7  8  1  0  0  0  0
  8 13  1  0  0  0  0
  8  9  2  0  0  0  0
 10  9  1  0  0  0  0
 10 14  1  0  0  0  0
 11 10  2  0  0  0  0
 12  7  1  0  0  0  0
 15  2  1  0  0  0  0
 16 17  1  0  0  0  0
 17 23  1  0  0  0  0
 17 18  1  0  0  0  0
 18 19  2  0  0  0  0
 19 20  1  0  0  0  0
 19 15  1  0  0  0  0
 20 21  2  0  0  0  0
 22 25  1  0  0  0  0
 22 20  1  0  0  0  0
 23 22  1  0  0  0  0
 24 23  2  0  0  0  0
M  END
>  <minimizedAffinity>
-4.97062922

$$$$

 OpenBabel03272503473D

 25 26  0  0  0  0  0  0  0  0999 V2000
   39.4690   27.1870   35.6510 O   0  0  0  0  0  0  0  0  0  0  0  0
   38.1850   26.7420   34.9880 P   0  0  2  0  0  0  0  0  0  0  0  0
   37.1270   28.0670   35.0110 O   0  0  0  0  0  0  0  0  0  0  0  0
   36.6820   28.1590   35.8810 H   0  0  0  0  0  0  0  0  0  0  0  0
   37.4490   25.4380   35.8380 O   0  0  0  0  0  0  0  0  0  0  0  0
   38.1840   24.5600   36.6200 C   0  0  0  0  0  0  0  0  0  0  0  0
   37.9800   24.2860   37.9820 C   0  0  0  0  0  0  0  0  0  0  0  0
   38.8060   23.3780   38.6200 C   0  0  0  0  0  0  0  0  0  0  0  0
   39.7980   22.7790   37.8840 N   0  0  0  0  0  0  0  0  0  0  0  0
   39.9710   23.0620   36.5720 C   0  0  0  0  0  0  0  0  0  0  0  0
   39.1690   23.9520   35.9310 N   0  0  0  0  0  0  0  0  0  0  0  0
   37.1520   24.8390   38.4300 H   0  0  0  0  0  0  0  0  0  0  0  0
   38.6170   23.1980   39.6550 H   0  0  0  0  0  0  0  0  0  0  0  0
   40.7840   22.5400   36.0700 H   0  0  0  0  0  0  0  0  0  0  0  0
   38.4500   26.1850   33.4130 O   0  0  0  0  0  0  0  0  0  0  0  0
   35.0960   27.4500   30.6580 H   0  0  0  0  0  0  0  0  0  0  0  0
   35.5990   26.6700   31.1290 N   0  0  0  0  0  0  0  0  0  0  0  0
   36.6350   27.0370   31.9060 C   0  0  0  0  0  3  0  0  0  0  0  0
   37.3550   26.0630   32.5660 C   0  0  0  0  0  0  0  0  0  0  0  0
   36.9900   24.7320   32.4090 C   0  0  0  0  0  0  0  0  0  0  0  0
   37.5370   23.7180   32.9360 O   0  0  0  0  0  0  0  0  0  0  0  0
   35.9470   24.3730   31.6250 N   0  0  0  0  0  0  0  0  0  0  0  0
   35.2660   25.3730   30.9930 C   0  0  0  0  0  0  0  0  0  0  0  0
   34.2760   25.1530   30.2380 O   0  0  0  0  0  0  0  0  0  0  0  0
   35.6170   23.3980   31.4610 H   0  0  0  0  0  0  0  0  0  0  0  0
  2  3  1  0  0  0  0
  2  1  2  1  0  0  0
  2  5  1  0  0  0  0
  3  4  1  0  0  0  0
  5  6  1  0  0  0  0
  6  7  1  0  0  0  0
  7 12  1  0  0  0  0
  7  8  2  0  0  0  0
  8 13  1  0  0  0  0
  9  8  1  0  0  0  0
 10  9  2  0  0  0  0
 11 10  1  0  0  0  0
 11  6  2  0  0  0  0
 14 10  1  0  0  0  0
 15  2  1  0  0  0  0
 16 17  1  0  0  0  0
 17 18  1  0  0  0  0
 18 19  2  0  0  0  0
 19 15  1  0  0  0  0
 20 19  1  0  0  0  0
 20 21  2  0  0  0  0
 22 20  1  0  0  0  0
 23 17  1  0  0  0  0
 23 22  1  0  0  0  0
 24 23  2  0  0  0  0
 25 22  1  0  0  0  0
M  END
>  <minimizedAffinity>
-4.93808746

$$$$

 OpenBabel03272503473D

 25 26  0  0  0  0  0  0  0  0999 V2000
   40.3260   26.8700   34.9930 O   0  0  0  0  0  0  0  0  0  0  0  0
   38.8230   26.8400   34.8400 P   0  0  2  0  0  0  0  0  0  0  0  0
   38.1810   27.8860   36.0130 O   0  0  0  0  0  0  0  0  0  0  0  0
   38.1310   27.4540   36.8930 H   0  0  0  0  0  0  0  0  0  0  0  0
   38.1870   25.2620   35.1080 O   0  0  0  0  0  0  0  0  0  0  0  0
   38.6030   24.4710   36.1670 C   0  0  0  0  0  0  0  0  0  0  0  0
   38.0130   24.4030   37.4390 C   0  0  0  0  0  0  0  0  0  0  0  0
   38.5530   23.5560   38.3900 C   0  0  0  0  0  0  0  0  0  0  0  0
   39.6530   22.8120   38.0430 N   0  0  0  0  0  0  0  0  0  0  0  0
   40.2010   22.8980   36.8100 C   0  0  0  0  0  0  0  0  0  0  0  0
   39.6830   23.7250   35.8640 N   0  0  0  0  0  0  0  0  0  0  0  0
   37.1450   25.0520   37.5640 H   0  0  0  0  0  0  0  0  0  0  0  0
   38.0740   23.5340   39.3450 H   0  0  0  0  0  0  0  0  0  0  0  0
   41.0730   22.2710   36.6240 H   0  0  0  0  0  0  0  0  0  0  0  0
   38.3390   27.2830   33.2810 O   0  0  0  0  0  0  0  0  0  0  0  0
   40.7950   24.8700   30.3510 H   0  0  0  0  0  0  0  0  0  0  0  0
   39.8500   25.1400   30.6910 N   0  0  0  0  0  0  0  0  0  0  0  0
   39.8330   26.0030   31.7230 C   0  0  0  0  0  3  0  0  0  0  0  0
   38.6170   26.4120   32.2340 C   0  0  0  0  0  0  0  0  0  0  0  0
   37.4480   25.9200   31.6680 C   0  0  0  0  0  0  0  0  0  0  0  0
   36.2580   26.1860   32.0110 O   0  0  0  0  0  0  0  0  0  0  0  0
   37.4760   25.0510   30.6310 N   0  0  0  0  0  0  0  0  0  0  0  0
   38.7020   24.6770   30.1610 C   0  0  0  0  0  0  0  0  0  0  0  0
   38.8460   23.8720   29.1970 O   0  0  0  0  0  0  0  0  0  0  0  0
   36.6420   24.6420   30.1580 H   0  0  0  0  0  0  0  0  0  0  0  0
  2  1  2  1  0  0  0
  2  5  1  0  0  0  0
  2  3  1  0  0  0  0
  3  4  1  0  0  0  0
  5  6  1  0  0  0  0
  6  7  1  0  0  0  0
  7 12  1  0  0  0  0
  7  8  2  0  0  0  0
  8 13  1  0  0  0  0
  9  8  1  0  0  0  0
 10  9  2  0  0  0  0
 11  6  2  0  0  0  0
 11 10  1  0  0  0  0
 14 10  1  0  0  0  0
 15  2  1  0  0  0  0
 16 17  1  0  0  0  0
 17 18  1  0  0  0  0
 18 19  2  0  0  0  0
 19 15  1  0  0  0  0
 20 21  2  0  0  0  0
 20 19  1  0  0  0  0
 22 20  1  0  0  0  0
 23 22  1  0  0  0  0
 23 17  1  0  0  0  0
 24 23  2  0  0  0  0
 25 22  1  0  0  0  0
M  END
>  <minimizedAffinity>
-4.68320227

$$$$

 OpenBabel03272503473D

 25 26  0  0  0  0  0  0  0  0999 V2000
   39.3570   27.2100   35.5840 O   0  0  0  0  0  0  0  0  0  0  0  0
   38.1530   26.6490   34.8630 P   0  0  2  0  0  0  0  0  0  0  0  0
   36.9480   27.8430   34.9000 O   0  0  0  0  0  0  0  0  0  0  0  0
   36.4710   27.8480   35.7580 H   0  0  0  0  0  0  0  0  0  0  0  0
   37.5480   25.2360   35.6390 O   0  0  0  0  0  0  0  0  0  0  0  0
   38.3610   24.4040   36.3930 C   0  0  0  0  0  0  0  0  0  0  0  0
   39.5170   23.7420   35.9500 C   0  0  0  0  0  0  0  0  0  0  0  0
   40.2210   22.9450   36.8340 C   0  0  0  0  0  0  0  0  0  0  0  0
   39.7510   22.8340   38.1180 N   0  0  0  0  0  0  0  0  0  0  0  0
   38.6330   23.4820   38.5190 C   0  0  0  0  0  0  0  0  0  0  0  0
   37.9310   24.2700   37.6630 N   0  0  0  0  0  0  0  0  0  0  0  0
   39.7650   23.9300   34.9030 H   0  0  0  0  0  0  0  0  0  0  0  0
   41.0940   22.4600   36.4570 H   0  0  0  0  0  0  0  0  0  0  0  0
   38.3350   23.3350   39.5560 H   0  0  0  0  0  0  0  0  0  0  0  0
   38.5250   26.1910   33.2780 O   0  0  0  0  0  0  0  0  0  0  0  0
   37.6080   21.9420   32.0330 H   0  0  0  0  0  0  0  0  0  0  0  0
   37.3040   22.9370   32.0520 N   0  0  0  0  0  0  0  0  0  0  0  0
   38.1540   23.7900   32.6520 C   0  0  0  0  0  3  0  0  0  0  0  0
   37.8240   25.1280   32.7190 C   0  0  0  0  0  0  0  0  0  0  0  0
   36.6240   25.5550   32.1660 C   0  0  0  0  0  0  0  0  0  0  0  0
   36.1680   26.7370   32.1400 O   0  0  0  0  0  0  0  0  0  0  0  0
   35.7750   24.6890   31.5650 N   0  0  0  0  0  0  0  0  0  0  0  0
   36.1470   23.3760   31.5240 C   0  0  0  0  0  0  0  0  0  0  0  0
   35.4310   22.4820   30.9880 O   0  0  0  0  0  0  0  0  0  0  0  0
   34.8610   24.9380   31.1300 H   0  0  0  0  0  0  0  0  0  0  0  0
  2  3  1  0  0  0  0
  2  1  2  1  0  0  0
  2  5  1  0  0  0  0
  3  4  1  0  0  0  0
  5  6  1  0  0  0  0
  6 11  1  0  0  0  0
  7  6  2  0  0  0  0
  7  8  1  0  0  0  0
  8  9  2  0  0  0  0
  9 10  1  0  0  0  0
 10 14  1  0  0  0  0
 11 10  2  0  0  0  0
 12  7  1  0  0  0  0
 13  8  1  0  0  0  0
 15  2  1  0  0  0  0
 16 17  1  0  0  0  0
 17 18  1  0  0  0  0
 18 19  2  0  0  0  0
 19 15  1  0  0  0  0
 20 19  1  0  0  0  0
 21 20  2  0  0  0  0
 22 20  1  0  0  0  0
 23 22  1  0  0  0  0
 23 17  1  0  0  0  0
 24 23  2  0  0  0  0
 25 22  1  0  0  0  0
M  END
>  <minimizedAffinity>
-4.62241364

$$$$

 OpenBabel03272503473D

 25 26  0  0  0  0  0  0  0  0999 V2000
   37.2430   25.5280   33.4420 O   0  0  0  0  0  0  0  0  0  0  0  0
   38.4910   24.7740   33.8440 P   0  0  2  0  0  0  0  0  0  0  0  0
   39.8150   25.6450   33.2390 O   0  0  0  0  0  0  0  0  0  0  0  0
   39.9690   25.4540   32.2890 H   0  0  0  0  0  0  0  0  0  0  0  0
   38.5230   23.1900   33.1700 O   0  0  0  0  0  0  0  0  0  0  0  0
   37.3760   22.4200   33.0430 C   0  0  0  0  0  0  0  0  0  0  0  0
   36.8930   21.4830   33.9690 C   0  0  0  0  0  0  0  0  0  0  0  0
   35.7270   20.7950   33.6900 C   0  0  0  0  0  0  0  0  0  0  0  0
   35.0880   21.0620   32.5050 N   0  0  0  0  0  0  0  0  0  0  0  0
   35.5760   21.9700   31.6290 C   0  0  0  0  0  0  0  0  0  0  0  0
   36.7210   22.6550   31.8890 N   0  0  0  0  0  0  0  0  0  0  0  0
   37.5100   21.3820   34.8650 H   0  0  0  0  0  0  0  0  0  0  0  0
   35.3940   20.0920   34.4210 H   0  0  0  0  0  0  0  0  0  0  0  0
   35.0020   22.1160   30.7150 H   0  0  0  0  0  0  0  0  0  0  0  0
   38.5920   24.5740   35.5200 O   0  0  0  0  0  0  0  0  0  0  0  0
   42.4300   22.1950   35.7390 H   0  0  0  0  0  0  0  0  0  0  0  0
   41.5170   22.4310   36.1780 N   0  0  0  0  0  0  0  0  0  0  0  0
   40.7650   23.3200   35.5040 C   0  0  0  0  0  3  0  0  0  0  0  0
   39.5390   23.6880   36.0210 C   0  0  0  0  0  0  0  0  0  0  0  0
   39.1180   23.1300   37.2210 C   0  0  0  0  0  0  0  0  0  0  0  0
   38.0320   23.3540   37.8320 O   0  0  0  0  0  0  0  0  0  0  0  0
   39.8830   22.2370   37.8920 N   0  0  0  0  0  0  0  0  0  0  0  0
   41.0870   21.9060   37.3400 C   0  0  0  0  0  0  0  0  0  0  0  0
   41.8800   21.0820   37.8800 O   0  0  0  0  0  0  0  0  0  0  0  0
   39.6320   21.7800   38.7940 H   0  0  0  0  0  0  0  0  0  0  0  0
  2  1  2  6  0  0  0
  2 15  1  0  0  0  0
  3  2  1  0  0  0  0
  4  3  1  0  0  0  0
  5  2  1  0  0  0  0
  6  5  1  0  0  0  0
  6  7  1  0  0  0  0
  7 12  1  0  0  0  0
  8  7  2  0  0  0  0
  8 13  1  0  0  0  0
  9  8  1  0  0  0  0
 10 11  1  0  0  0  0
 10  9  2  0  0  0  0
 11  6  2  0  0  0  0
 14 10  1  0  0  0  0
 15 19  1  0  0  0  0
 16 17  1  0  0  0  0
 17 23  1  0  0  0  0
 18 19  2  0  0  0  0
 18 17  1  0  0  0  0
 19 20  1  0  0  0  0
 20 21  2  0  0  0  0
 20 22  1  0  0  0  0
 22 25  1  0  0  0  0
 23 24  2  0  0  0  0
 23 22  1  0  0  0  0
M  END
>  <minimizedAffinity>
-4.61746693

$$$$

 OpenBabel03272503473D

 25 26  0  0  0  0  0  0  0  0999 V2000
   38.1510   26.6680   37.0160 O   0  0  0  0  0  0  0  0  0  0  0  0
   38.2030   25.9550   35.6840 P   0  0  2  0  0  0  0  0  0  0  0  0
   39.7440   26.2330   35.0310 O   0  0  0  0  0  0  0  0  0  0  0  0
   39.7990   27.1120   34.5970 H   0  0  0  0  0  0  0  0  0  0  0  0
   37.0250   26.5670   34.5880 O   0  0  0  0  0  0  0  0  0  0  0  0
   37.2040   26.5240   33.2140 C   0  0  0  0  0  0  0  0  0  0  0  0
   36.6550   25.5820   32.3300 C   0  0  0  0  0  0  0  0  0  0  0  0
   36.9330   25.6800   30.9780 C   0  0  0  0  0  0  0  0  0  0  0  0
   37.7430   26.7050   30.5580 N   0  0  0  0  0  0  0  0  0  0  0  0
   38.2600   27.5990   31.4320 C   0  0  0  0  0  0  0  0  0  0  0  0
   37.9960   27.5170   32.7630 N   0  0  0  0  0  0  0  0  0  0  0  0
   36.0310   24.8270   32.8130 H   0  0  0  0  0  0  0  0  0  0  0  0
   36.4950   24.9440   30.3410 H   0  0  0  0  0  0  0  0  0  0  0  0
   38.8920   28.3780   31.0080 H   0  0  0  0  0  0  0  0  0  0  0  0
   37.8840   24.3020   35.8420 O   0  0  0  0  0  0  0  0  0  0  0  0
   40.0640   22.2530   39.2310 H   0  0  0  0  0  0  0  0  0  0  0  0
   39.9940   22.4220   38.2070 N   0  0  0  0  0  0  0  0  0  0  0  0
   38.9910   23.2320   37.8230 C   0  0  0  0  0  3  0  0  0  0  0  0
   38.8290   23.5070   36.4800 C   0  0  0  0  0  0  0  0  0  0  0  0
   39.7070   22.9400   35.5650 C   0  0  0  0  0  0  0  0  0  0  0  0
   39.7030   23.0830   34.3070 O   0  0  0  0  0  0  0  0  0  0  0  0
   40.7120   22.1250   35.9620 N   0  0  0  0  0  0  0  0  0  0  0  0
   40.8300   21.8840   37.3000 C   0  0  0  0  0  0  0  0  0  0  0  0
   41.7330   21.1400   37.7820 O   0  0  0  0  0  0  0  0  0  0  0  0
   41.4050   21.6650   35.3340 H   0  0  0  0  0  0  0  0  0  0  0  0
  2 15  1  0  0  0  0
  2  1  2  1  0  0  0
  3  2  1  0  0  0  0
  4  3  1  0  0  0  0
  5  2  1  0  0  0  0
  6  5  1  0  0  0  0
  7 12  1  0  0  0  0
  7  6  2  0  0  0  0
  8  7  1  0  0  0  0
  9  8  2  0  0  0  0
  9 10  1  0  0  0  0
 10 11  2  0  0  0  0
 11  6  1  0  0  0  0
 13  8  1  0  0  0  0
 14 10  1  0  0  0  0
 15 19  1  0  0  0  0
 17 16  1  0  0  0  0
 18 17  1  0  0  0  0
 19 18  2  0  0  0  0
 20 22  1  0  0  0  0
 20 19  1  0  0  0  0
 21 20  2  0  0  0  0
 22 23  1  0  0  0  0
 23 24  2  0  0  0  0
 23 17  1  0  0  0  0
 25 22  1  0  0  0  0
M  END
>  <minimizedAffinity>
-4.61079741

$$$$
