
 OpenBabel03272506443D

 33 35  0  0  1  0  0  0  0  0999 V2000
   32.2640   28.5890   47.4730 C   0  0  2  0  0  0  0  0  0  0  0  0
   33.5180   28.4110   48.3150 C   0  0  1  0  0  0  0  0  0  0  0  0
   33.8730   27.0950   48.2700 O   0  0  0  0  0  0  0  0  0  0  0  0
   33.1030   26.4510   47.3280 C   0  0  0  0  0  0  0  0  0  0  0  0
   32.5430   27.5440   46.4010 C   0  0  1  0  0  0  0  0  0  0  0  0
   31.3800   28.3110   48.0640 H   0  0  0  0  0  0  0  0  0  0  0  0
   33.3520   28.8210   49.3210 H   0  0  0  0  0  0  0  0  0  0  0  0
   33.6630   25.6820   46.7790 H   0  0  0  0  0  0  0  0  0  0  0  0
   32.2160   26.0360   47.8630 H   0  0  0  0  0  0  0  0  0  0  0  0
   33.3790   27.8710   45.7890 H   0  0  0  0  0  0  0  0  0  0  0  0
   32.1920   29.8750   46.9460 O   0  0  0  0  0  0  0  0  0  0  0  0
   32.8740   29.9450   46.2310 H   0  0  0  0  0  0  0  0  0  0  0  0
   34.8350   29.3840   47.4900 S   0  0  0  0  0  0  0  0  0  0  0  0
   37.3150   29.3670   50.5850 C   0  0  0  0  0  0  0  0  0  0  0  0
   37.8220   30.6690   50.6450 C   0  0  0  0  0  0  0  0  0  0  0  0
   37.3730   31.5950   49.6790 C   0  0  0  0  0  0  0  0  0  0  0  0
   36.4820   31.1710   48.7560 N   0  0  0  0  0  0  0  0  0  0  0  0
   36.0110   29.9070   48.7250 C   0  0  0  0  0  0  0  0  0  0  0  0
   36.4210   29.0070   49.6300 N   0  0  0  0  0  0  0  0  0  0  0  0
   37.6260   28.6200   51.3010 H   0  0  0  0  0  0  0  0  0  0  0  0
   38.5230   30.9500   51.3940 H   0  0  0  0  0  0  0  0  0  0  0  0
   37.7390   32.6150   49.6860 H   0  0  0  0  0  0  0  0  0  0  0  0
   31.4060   27.0910   45.7820 O   0  0  0  0  0  0  0  0  0  0  0  0
   27.9730   26.3760   48.6300 H   0  0  0  0  0  0  0  0  0  0  0  0
   28.3330   26.8810   47.8040 N   0  0  0  0  0  0  0  0  0  0  0  0
   29.5900   26.5790   47.4520 C   0  0  0  0  0  3  0  0  0  0  0  0
   30.1520   27.2050   46.3630 C   0  0  0  0  0  0  0  0  0  0  0  0
   29.3960   28.1390   45.6520 C   0  0  0  0  0  0  0  0  0  0  0  0
   29.7400   28.8060   44.6360 O   0  0  0  0  0  0  0  0  0  0  0  0
   28.1160   28.4350   46.0220 N   0  0  0  0  0  0  0  0  0  0  0  0
   27.5980   27.7910   47.1090 C   0  0  0  0  0  0  0  0  0  0  0  0
   26.4300   28.0100   47.5110 O   0  0  0  0  0  0  0  0  0  0  0  0
   27.4950   29.1060   45.5560 H   0  0  0  0  0  0  0  0  0  0  0  0
  1  6  1  1  0  0  0
  1  2  1  0  0  0  0
  2  7  1  1  0  0  0
  3  2  1  0  0  0  0
  4  9  1  0  0  0  0
  4  3  1  0  0  0  0
  5 10  1  6  0  0  0
  5  4  1  0  0  0  0
  5  1  1  0  0  0  0
  8  4  1  0  0  0  0
 11  1  1  0  0  0  0
 12 11  1  0  0  0  0
 13  2  1  0  0  0  0
 13 18  1  0  0  0  0
 14 15  1  0  0  0  0
 14 20  1  0  0  0  0
 15 21  1  0  0  0  0
 16 22  1  0  0  0  0
 16 15  2  0  0  0  0
 17 16  1  0  0  0  0
 18 17  2  0  0  0  0
 18 19  1  0  0  0  0
 19 14  2  0  0  0  0
 23 27  1  0  0  0  0
 23  5  1  0  0  0  0
 25 24  1  0  0  0  0
 26 25  1  0  0  0  0
 27 26  2  0  0  0  0
 28 30  1  0  0  0  0
 28 27  1  0  0  0  0
 29 28  2  0  0  0  0
 30 31  1  0  0  0  0
 31 32  2  0  0  0  0
 31 25  1  0  0  0  0
 33 30  1  0  0  0  0
M  END
>  <minimizedAffinity>
-4.62181616

>  <minimizedRMSD>
3.54146624

$$$$
