
 OpenBabel03272509193D

 34 36  0  0  0  0  0  0  0  0999 V2000
   37.8890   31.2890   48.0320 C   0  0  0  0  0  0  0  0  0  0  0  0
   36.8080   31.2510   48.8990 C   0  0  0  0  0  0  0  0  0  0  0  0
   36.7280   32.3400   49.7690 C   0  0  0  0  0  0  0  0  0  0  0  0
   37.6800   33.3710   49.7430 C   0  0  0  0  0  0  0  0  0  0  0  0
   38.7320   33.3100   48.8260 C   0  0  0  0  0  0  0  0  0  0  0  0
   38.8370   32.2480   47.9550 C   0  0  0  0  0  0  0  0  0  0  0  0
   35.9100   32.3650   50.4650 H   0  0  0  0  0  0  0  0  0  0  0  0
   37.6020   34.2050   50.4240 H   0  0  0  0  0  0  0  0  0  0  0  0
   39.4570   34.1070   48.8150 H   0  0  0  0  0  0  0  0  0  0  0  0
   34.7640   30.2110   48.0270 C   0  0  0  0  0  0  0  0  0  0  0  0
   35.8400   30.1950   48.9200 C   0  0  0  0  0  0  0  0  0  0  0  0
   35.9330   29.1310   49.8170 C   0  0  0  0  0  0  0  0  0  0  0  0
   34.9630   28.1700   49.7650 N   0  0  0  0  0  0  0  0  0  0  0  0
   33.9380   28.2240   48.8840 C   0  0  0  0  0  0  0  0  0  0  0  0
   33.8360   29.2440   48.0130 N   0  0  0  0  0  0  0  0  0  0  0  0
   34.7030   31.0440   47.3340 H   0  0  0  0  0  0  0  0  0  0  0  0
   33.2150   27.4220   48.9110 H   0  0  0  0  0  0  0  0  0  0  0  0
   37.0380   29.0560   50.7810 C   0  0  0  0  0  0  0  0  0  0  0  0
   36.8080   29.5510   51.7550 H   0  0  0  0  0  0  0  0  0  0  0  0
   37.4060   28.0320   50.9830 H   0  0  0  0  0  0  0  0  0  0  0  0
   37.9040   29.6280   50.3630 H   0  0  0  0  0  0  0  0  0  0  0  0
   38.0510   30.2190   47.1120 O   0  0  0  0  0  0  0  0  0  0  0  0
   37.2730   29.9000   46.5450 H   0  0  0  0  0  0  0  0  0  0  0  0
   39.8920   32.2390   47.0760 O   0  0  0  0  0  0  0  0  0  0  0  0
   37.9770   33.2020   43.0940 H   0  0  0  0  0  0  0  0  0  0  0  0
   38.7540   32.6950   43.5930 N   0  0  0  0  0  0  0  0  0  0  0  0
   38.7140   32.8620   44.9220 C   0  0  0  0  0  3  0  0  0  0  0  0
   39.6600   32.2660   45.7190 C   0  0  0  0  0  0  0  0  0  0  0  0
   40.6340   31.4990   45.0820 C   0  0  0  0  0  0  0  0  0  0  0  0
   41.5920   30.8630   45.5950 O   0  0  0  0  0  0  0  0  0  0  0  0
   40.6520   31.3440   43.7250 N   0  0  0  0  0  0  0  0  0  0  0  0
   39.6880   31.9590   42.9800 C   0  0  0  0  0  0  0  0  0  0  0  0
   39.5630   31.9190   41.7370 O   0  0  0  0  0  0  0  0  0  0  0  0
   41.3210   30.8060   43.1700 H   0  0  0  0  0  0  0  0  0  0  0  0
  1  2  1  0  0  0  0
  2 11  1  0  0  0  0
  2  3  2  0  0  0  0
  3  7  1  0  0  0  0
  4  3  1  0  0  0  0
  4  8  1  0  0  0  0
  5  4  2  0  0  0  0
  6  1  2  0  0  0  0
  6  5  1  0  0  0  0
  9  5  1  0  0  0  0
 10 11  1  0  0  0  0
 11 12  2  0  0  0  0
 12 18  1  0  0  0  0
 13 12  1  0  0  0  0
 14 17  1  0  0  0  0
 14 13  2  0  0  0  0
 15 10  2  0  0  0  0
 15 14  1  0  0  0  0
 16 10  1  0  0  0  0
 18 20  1  0  0  0  0
 18 19  1  0  0  0  0
 21 18  1  0  0  0  0
 22  1  1  0  0  0  0
 23 22  1  0  0  0  0
 24  6  1  0  0  0  0
 25 26  1  0  0  0  0
 26 27  1  0  0  0  0
 27 28  2  0  0  0  0
 28 24  1  0  0  0  0
 29 30  2  0  0  0  0
 29 28  1  0  0  0  0
 31 29  1  0  0  0  0
 32 26  1  0  0  0  0
 32 31  1  0  0  0  0
 33 32  2  0  0  0  0
 34 31  1  0  0  0  0
M  END
>  <minimizedAffinity>
-6.68159246

>  <minimizedRMSD>
1.04395318

$$$$
