
 OpenBabel03272506413D

 20 21  0  0  0  0  0  0  0  0999 V2000
   31.8440   27.5870   48.6710 S   0  0  0  0  0  0  0  0  0  0  0  0
   28.4850   25.6670   45.8650 H   0  0  0  0  0  0  0  0  0  0  0  0
   29.4600   25.6010   46.2390 N   0  0  0  0  0  0  0  0  0  0  0  0
   30.0200   26.4880   47.1070 C   0  0  0  0  0  3  0  0  0  0  0  0
   31.3270   26.3030   47.5400 C   0  0  0  0  0  0  0  0  0  0  0  0
   32.0620   25.2220   47.0920 C   0  0  0  0  0  0  0  0  0  0  0  0
   33.2330   25.1730   47.5620 O   0  0  0  0  0  0  0  0  0  0  0  0
   31.4810   24.3620   46.2330 N   0  0  0  0  0  0  0  0  0  0  0  0
   30.2260   24.5530   45.8300 C   0  0  0  0  0  0  0  0  0  0  0  0
   29.7110   23.7230   45.0210 O   0  0  0  0  0  0  0  0  0  0  0  0
   32.0840   23.5670   45.9310 H   0  0  0  0  0  0  0  0  0  0  0  0
   35.1760   29.7320   48.4300 C   0  0  0  0  0  0  0  0  0  0  0  0
   35.3090   30.0300   47.0760 C   0  0  0  0  0  0  0  0  0  0  0  0
   34.3350   29.5540   46.1900 C   0  0  0  0  0  0  0  0  0  0  0  0
   33.2930   28.8160   46.6990 N   0  0  0  0  0  0  0  0  0  0  0  0
   33.2020   28.5480   48.0250 C   0  0  0  0  0  0  0  0  0  0  0  0
   34.1360   29.0030   48.8840 N   0  0  0  0  0  0  0  0  0  0  0  0
   35.9450   30.1110   49.0920 H   0  0  0  0  0  0  0  0  0  0  0  0
   36.1140   30.6050   46.6600 H   0  0  0  0  0  0  0  0  0  0  0  0
   34.3400   29.7290   45.1050 H   0  0  0  0  0  0  0  0  0  0  0  0
  2  3  1  0  0  0  0
  3  4  1  0  0  0  0
  4  5  2  0  0  0  0
  5  1  1  0  0  0  0
  6  5  1  0  0  0  0
  6  7  2  0  0  0  0
  8  6  1  0  0  0  0
  9  8  1  0  0  0  0
  9  3  1  0  0  0  0
 10  9  2  0  0  0  0
 11  8  1  0  0  0  0
 12 17  1  0  0  0  0
 12 18  1  0  0  0  0
 13 12  2  0  0  0  0
 14 15  2  0  0  0  0
 14 13  1  0  0  0  0
 15 16  1  0  0  0  0
 16  1  1  0  0  0  0
 16 17  2  0  0  0  0
 19 13  1  0  0  0  0
 20 14  1  0  0  0  0
M  END
>  <minimizedAffinity>
-2.626688

>  <minimizedRMSD>
4.60734415

$$$$
