
 OpenBabel03272504433D

 46 48  0  0  0  0  0  0  0  0999 V2000
   36.6550   28.1540   33.8360 C   0  0  0  0  0  0  0  0  0  0  0  0
   35.9710   28.2070   34.7170 H   0  0  0  0  0  0  0  0  0  0  0  0
   37.5660   28.7170   34.1950 H   0  0  0  0  0  0  0  0  0  0  0  0
   38.3040   26.9750   36.0110 Cl  0  0  0  0  0  0  0  0  0  0  0  0
   37.8180   26.0970   34.5560 C   0  0  0  0  0  0  0  0  0  0  0  0
   38.2040   24.8130   34.3920 C   0  0  0  0  0  0  0  0  0  0  0  0
   37.8300   24.1230   33.2620 C   0  0  0  0  0  0  0  0  0  0  0  0
   37.0550   24.7690   32.3090 C   0  0  0  0  0  0  0  0  0  0  0  0
   36.6890   26.1070   32.5460 C   0  0  0  0  0  0  0  0  0  0  0  0
   37.0490   26.7910   33.6440 C   0  0  0  0  0  0  0  0  0  0  0  0
   38.1550   23.0800   33.1500 H   0  0  0  0  0  0  0  0  0  0  0  0
   36.8170   24.1410   31.4640 H   0  0  0  0  0  0  0  0  0  0  0  0
   36.1290   26.3980   31.7300 H   0  0  0  0  0  0  0  0  0  0  0  0
   41.0670   23.2800   36.1470 C   0  0  0  0  0  0  0  0  0  0  0  0
   40.4380   22.8740   37.3710 C   0  0  0  0  0  0  0  0  0  0  0  0
   39.0640   23.1460   37.5380 C   0  0  0  0  0  0  0  0  0  0  0  0
   38.3960   23.7760   36.5380 N   0  0  0  0  0  0  0  0  0  0  0  0
   39.0190   24.1450   35.3950 C   0  0  0  0  0  0  0  0  0  0  0  0
   40.3280   23.8960   35.2170 N   0  0  0  0  0  0  0  0  0  0  0  0
   42.1140   23.0530   36.0630 H   0  0  0  0  0  0  0  0  0  0  0  0
   41.0150   22.3770   38.1350 H   0  0  0  0  0  0  0  0  0  0  0  0
   38.4860   22.7360   38.7470 N   0  0  0  0  0  0  0  0  0  0  0  0
   38.8030   22.9950   39.6990 H   0  0  0  0  0  0  0  0  0  0  0  0
   37.6810   22.1200   38.4880 H   0  0  0  0  0  0  0  0  0  0  0  0
   36.0380   28.9070   32.7470 C   0  0  0  0  0  0  0  0  0  0  0  0
   36.4890   28.7040   31.7340 H   0  0  0  0  0  0  0  0  0  0  0  0
   36.2090   30.0050   32.9090 H   0  0  0  0  0  0  0  0  0  0  0  0
   34.6960   28.6560   32.6480 O   0  0  0  0  0  0  0  0  0  0  0  0
   33.2050   30.5960   31.6940 O   0  0  0  0  0  0  0  0  0  0  0  0
   33.8140   30.0340   32.9540 P   0  0  2  0  0  0  0  0  0  0  0  0
   34.9330   31.1800   33.6170 O   0  0  0  0  0  0  0  0  0  0  0  0
   32.6890   34.2270   35.8820 H   0  0  0  0  0  0  0  0  0  0  0  0
   33.4420   33.4950   35.8910 N   0  0  0  0  0  0  0  0  0  0  0  0
   33.7420   32.7780   34.7700 C   0  0  0  0  0  3  0  0  0  0  0  0
   34.7520   31.8100   34.8210 C   0  0  0  0  0  0  0  0  0  0  0  0
   35.3940   31.6330   36.0120 C   0  0  0  0  0  0  0  0  0  0  0  0
   36.2870   30.7510   35.9890 O   0  0  0  0  0  0  0  0  0  0  0  0
   35.0960   32.3400   37.1120 N   0  0  0  0  0  0  0  0  0  0  0  0
   34.1130   33.2760   37.0490 C   0  0  0  0  0  0  0  0  0  0  0  0
   33.8620   33.9180   38.0990 O   0  0  0  0  0  0  0  0  0  0  0  0
   35.6170   32.1640   38.0000 H   0  0  0  0  0  0  0  0  0  0  0  0
   32.6400   29.8290   34.1000 O   0  0  0  0  0  0  0  0  0  0  0  0
   31.6150   29.0440   33.6210 C   0  0  0  0  0  0  0  0  0  0  0  0
   32.0460   28.1400   32.6510 F   0  0  0  0  0  0  0  0  0  0  0  0
   31.0540   28.2730   34.6170 F   0  0  0  0  0  0  0  0  0  0  0  0
   30.6350   29.8520   33.0530 F   0  0  0  0  0  0  0  0  0  0  0  0
  1  3  1  0  0  0  0
  1  2  1  0  0  0  0
  5  4  1  0  0  0  0
  6  5  1  0  0  0  0
  6 18  1  0  0  0  0
  7  6  2  0  0  0  0
  8  9  2  0  0  0  0
  8  7  1  0  0  0  0
  9 10  1  0  0  0  0
 10  1  1  0  0  0  0
 10  5  2  0  0  0  0
 11  7  1  0  0  0  0
 12  8  1  0  0  0  0
 13  9  1  0  0  0  0
 14 15  1  0  0  0  0
 15 16  2  0  0  0  0
 15 21  1  0  0  0  0
 16 22  1  0  0  0  0
 17 16  1  0  0  0  0
 18 17  2  0  0  0  0
 19 18  1  0  0  0  0
 19 14  2  0  0  0  0
 20 14  1  0  0  0  0
 22 23  1  0  0  0  0
 24 22  1  0  0  0  0
 25 27  1  0  0  0  0
 25  1  1  0  0  0  0
 26 25  1  0  0  0  0
 28 25  1  0  0  0  0
 28 30  1  0  0  0  0
 30 29  2  6  0  0  0
 30 31  1  0  0  0  0
 30 42  1  0  0  0  0
 31 35  1  0  0  0  0
 32 33  1  0  0  0  0
 33 39  1  0  0  0  0
 34 35  2  0  0  0  0
 34 33  1  0  0  0  0
 35 36  1  0  0  0  0
 36 38  1  0  0  0  0
 37 36  2  0  0  0  0
 38 41  1  0  0  0  0
 39 38  1  0  0  0  0
 39 40  2  0  0  0  0
 43 42  1  0  0  0  0
 43 45  1  0  0  0  0
 44 43  1  0  0  0  0
 46 43  1  0  0  0  0
M  END
>  <minimizedAffinity>
-6.56276894

$$$$

 OpenBabel03272504433D

 46 48  0  0  0  0  0  0  0  0999 V2000
   36.6630   28.2110   33.9570 C   0  0  0  0  0  0  0  0  0  0  0  0
   36.1730   28.2880   34.9580 H   0  0  0  0  0  0  0  0  0  0  0  0
   37.6100   28.8110   34.0980 H   0  0  0  0  0  0  0  0  0  0  0  0
   38.3030   26.9860   36.1130 Cl  0  0  0  0  0  0  0  0  0  0  0  0
   37.8160   26.1370   34.6410 C   0  0  0  0  0  0  0  0  0  0  0  0
   38.1980   24.8550   34.4550 C   0  0  0  0  0  0  0  0  0  0  0  0
   37.8220   24.1870   33.3110 C   0  0  0  0  0  0  0  0  0  0  0  0
   37.0520   24.8540   32.3690 C   0  0  0  0  0  0  0  0  0  0  0  0
   36.6910   26.1890   32.6300 C   0  0  0  0  0  0  0  0  0  0  0  0
   37.0510   26.8510   33.7410 C   0  0  0  0  0  0  0  0  0  0  0  0
   38.1440   23.1450   33.1810 H   0  0  0  0  0  0  0  0  0  0  0  0
   36.8130   24.2430   31.5120 H   0  0  0  0  0  0  0  0  0  0  0  0
   36.1330   26.4970   31.8180 H   0  0  0  0  0  0  0  0  0  0  0  0
   41.0510   23.2800   36.1870 C   0  0  0  0  0  0  0  0  0  0  0  0
   40.4180   22.8520   37.4010 C   0  0  0  0  0  0  0  0  0  0  0  0
   39.0440   23.1240   37.5700 C   0  0  0  0  0  0  0  0  0  0  0  0
   38.3800   23.7760   36.5800 N   0  0  0  0  0  0  0  0  0  0  0  0
   39.0080   24.1650   35.4460 C   0  0  0  0  0  0  0  0  0  0  0  0
   40.3170   23.9160   35.2670 N   0  0  0  0  0  0  0  0  0  0  0  0
   42.0980   23.0520   36.1020 H   0  0  0  0  0  0  0  0  0  0  0  0
   40.9920   22.3380   38.1560 H   0  0  0  0  0  0  0  0  0  0  0  0
   38.4620   22.6920   38.7680 N   0  0  0  0  0  0  0  0  0  0  0  0
   38.7770   22.9320   39.7270 H   0  0  0  0  0  0  0  0  0  0  0  0
   37.6560   22.0830   38.4960 H   0  0  0  0  0  0  0  0  0  0  0  0
   35.8120   28.9010   32.9910 C   0  0  0  0  0  0  0  0  0  0  0  0
   34.7900   28.4420   32.8670 H   0  0  0  0  0  0  0  0  0  0  0  0
   36.2720   28.8270   31.9690 H   0  0  0  0  0  0  0  0  0  0  0  0
   35.6260   30.2160   33.3210 O   0  0  0  0  0  0  0  0  0  0  0  0
   33.2510   29.2500   33.8910 O   0  0  0  0  0  0  0  0  0  0  0  0
   34.1670   30.4310   34.0930 P   0  0  2  0  0  0  0  0  0  0  0  0
   33.4550   31.8440   33.3840 O   0  0  0  0  0  0  0  0  0  0  0  0
   33.3050   32.2830   28.9990 H   0  0  0  0  0  0  0  0  0  0  0  0
   32.7790   32.0900   29.8870 N   0  0  0  0  0  0  0  0  0  0  0  0
   33.4120   32.0790   31.0940 C   0  0  0  0  0  3  0  0  0  0  0  0
   32.6770   31.8190   32.2560 C   0  0  0  0  0  0  0  0  0  0  0  0
   31.3400   31.5850   32.1150 C   0  0  0  0  0  0  0  0  0  0  0  0
   30.7400   31.3590   33.1950 O   0  0  0  0  0  0  0  0  0  0  0  0
   30.7200   31.5970   30.9260 N   0  0  0  0  0  0  0  0  0  0  0  0
   31.4460   31.8510   29.8060 C   0  0  0  0  0  0  0  0  0  0  0  0
   30.8310   31.8540   28.7110 O   0  0  0  0  0  0  0  0  0  0  0  0
   29.6940   31.4120   30.8730 H   0  0  0  0  0  0  0  0  0  0  0  0
   34.3130   30.7570   35.7070 O   0  0  0  0  0  0  0  0  0  0  0  0
   35.4150   31.5450   35.9540 C   0  0  0  0  0  0  0  0  0  0  0  0
   35.6110   32.5090   34.9660 F   0  0  0  0  0  0  0  0  0  0  0  0
   35.2870   32.2480   37.1330 F   0  0  0  0  0  0  0  0  0  0  0  0
   36.5550   30.7480   36.0110 F   0  0  0  0  0  0  0  0  0  0  0  0
  1  3  1  0  0  0  0
  1  2  1  0  0  0  0
  5  4  1  0  0  0  0
  6  5  1  0  0  0  0
  6 18  1  0  0  0  0
  7  6  2  0  0  0  0
  8  9  2  0  0  0  0
  8  7  1  0  0  0  0
  9 10  1  0  0  0  0
 10  1  1  0  0  0  0
 10  5  2  0  0  0  0
 11  7  1  0  0  0  0
 12  8  1  0  0  0  0
 13  9  1  0  0  0  0
 14 15  1  0  0  0  0
 15 16  2  0  0  0  0
 15 21  1  0  0  0  0
 16 22  1  0  0  0  0
 17 16  1  0  0  0  0
 18 17  2  0  0  0  0
 19 18  1  0  0  0  0
 19 14  2  0  0  0  0
 20 14  1  0  0  0  0
 22 23  1  0  0  0  0
 24 22  1  0  0  0  0
 25 28  1  0  0  0  0
 25  1  1  0  0  0  0
 26 25  1  0  0  0  0
 27 25  1  0  0  0  0
 28 30  1  0  0  0  0
 30 29  2  6  0  0  0
 30 42  1  0  0  0  0
 31 30  1  0  0  0  0
 32 33  1  0  0  0  0
 33 34  1  0  0  0  0
 34 35  2  0  0  0  0
 35 31  1  0  0  0  0
 36 35  1  0  0  0  0
 36 37  2  0  0  0  0
 38 36  1  0  0  0  0
 39 33  1  0  0  0  0
 39 38  1  0  0  0  0
 40 39  2  0  0  0  0
 41 38  1  0  0  0  0
 42 43  1  0  0  0  0
 43 46  1  0  0  0  0
 43 45  1  0  0  0  0
 44 43  1  0  0  0  0
M  END
>  <minimizedAffinity>
-6.36471605

$$$$

 OpenBabel03272504433D

 46 48  0  0  0  0  0  0  0  0999 V2000
   37.2380   27.9360   33.4890 C   0  0  0  0  0  0  0  0  0  0  0  0
   38.2090   28.4350   33.7220 H   0  0  0  0  0  0  0  0  0  0  0  0
   37.0410   28.2600   32.4240 H   0  0  0  0  0  0  0  0  0  0  0  0
   38.9440   26.8570   35.6720 Cl  0  0  0  0  0  0  0  0  0  0  0  0
   38.2140   25.8610   34.4070 C   0  0  0  0  0  0  0  0  0  0  0  0
   38.4260   24.5270   34.4040 C   0  0  0  0  0  0  0  0  0  0  0  0
   37.8610   23.7450   33.4220 C   0  0  0  0  0  0  0  0  0  0  0  0
   37.0770   24.3520   32.4510 C   0  0  0  0  0  0  0  0  0  0  0  0
   36.8990   25.7470   32.5170 C   0  0  0  0  0  0  0  0  0  0  0  0
   37.4450   26.5200   33.4690 C   0  0  0  0  0  0  0  0  0  0  0  0
   38.0470   22.6630   33.4390 H   0  0  0  0  0  0  0  0  0  0  0  0
   36.6830   23.6520   31.7300 H   0  0  0  0  0  0  0  0  0  0  0  0
   36.2980   25.9950   31.7150 H   0  0  0  0  0  0  0  0  0  0  0  0
   41.3000   23.0370   36.1770 C   0  0  0  0  0  0  0  0  0  0  0  0
   40.6930   22.7140   37.4360 C   0  0  0  0  0  0  0  0  0  0  0  0
   39.3290   23.0230   37.6190 C   0  0  0  0  0  0  0  0  0  0  0  0
   38.6490   23.6090   36.6000 N   0  0  0  0  0  0  0  0  0  0  0  0
   39.2520   23.9000   35.4240 C   0  0  0  0  0  0  0  0  0  0  0  0
   40.5510   23.6140   35.2300 N   0  0  0  0  0  0  0  0  0  0  0  0
   42.3400   22.7840   36.0820 H   0  0  0  0  0  0  0  0  0  0  0  0
   41.2790   22.2490   38.2130 H   0  0  0  0  0  0  0  0  0  0  0  0
   38.7720   22.6930   38.8610 N   0  0  0  0  0  0  0  0  0  0  0  0
   39.1170   23.0000   39.7900 H   0  0  0  0  0  0  0  0  0  0  0  0
   37.9500   22.0800   38.6570 H   0  0  0  0  0  0  0  0  0  0  0  0
   36.2160   28.5220   34.3520 C   0  0  0  0  0  0  0  0  0  0  0  0
   36.6290   29.1090   35.2210 H   0  0  0  0  0  0  0  0  0  0  0  0
   35.6190   27.7020   34.8340 H   0  0  0  0  0  0  0  0  0  0  0  0
   35.3810   29.3590   33.6620 O   0  0  0  0  0  0  0  0  0  0  0  0
   36.0860   30.8810   35.6820 O   0  0  0  0  0  0  0  0  0  0  0  0
   35.2940   30.8480   34.3990 P   0  0  2  0  0  0  0  0  0  0  0  0
   33.6170   31.1100   34.7480 O   0  0  0  0  0  0  0  0  0  0  0  0
   31.3620   27.4430   35.7070 H   0  0  0  0  0  0  0  0  0  0  0  0
   31.7300   28.3690   36.0410 N   0  0  0  0  0  0  0  0  0  0  0  0
   32.4460   29.1840   35.2150 C   0  0  0  0  0  3  0  0  0  0  0  0
   32.9190   30.4100   35.6970 C   0  0  0  0  0  0  0  0  0  0  0  0
   32.6320   30.7290   36.9930 C   0  0  0  0  0  0  0  0  0  0  0  0
   33.0860   31.8410   37.3610 O   0  0  0  0  0  0  0  0  0  0  0  0
   31.9280   29.9250   37.8020 N   0  0  0  0  0  0  0  0  0  0  0  0
   31.4750   28.7380   37.3210 C   0  0  0  0  0  0  0  0  0  0  0  0
   30.8190   28.0110   38.1090 O   0  0  0  0  0  0  0  0  0  0  0  0
   31.7370   30.2170   38.7860 H   0  0  0  0  0  0  0  0  0  0  0  0
   35.7560   32.1000   33.4230 O   0  0  0  0  0  0  0  0  0  0  0  0
   35.6280   31.7620   32.0930 C   0  0  0  0  0  0  0  0  0  0  0  0
   34.4420   31.0790   31.8310 F   0  0  0  0  0  0  0  0  0  0  0  0
   35.5970   32.8770   31.2840 F   0  0  0  0  0  0  0  0  0  0  0  0
   36.6900   30.9440   31.7160 F   0  0  0  0  0  0  0  0  0  0  0  0
  1  2  1  0  0  0  0
  1 25  1  0  0  0  0
  3  1  1  0  0  0  0
  5  4  1  0  0  0  0
  6  5  1  0  0  0  0
  6 18  1  0  0  0  0
  7 11  1  0  0  0  0
  7  6  2  0  0  0  0
  8  9  2  0  0  0  0
  8  7  1  0  0  0  0
  9 10  1  0  0  0  0
 10  1  1  0  0  0  0
 10  5  2  0  0  0  0
 12  8  1  0  0  0  0
 13  9  1  0  0  0  0
 14 15  1  0  0  0  0
 15 16  2  0  0  0  0
 15 21  1  0  0  0  0
 16 22  1  0  0  0  0
 17 16  1  0  0  0  0
 18 17  2  0  0  0  0
 19 18  1  0  0  0  0
 19 14  2  0  0  0  0
 20 14  1  0  0  0  0
 22 23  1  0  0  0  0
 24 22  1  0  0  0  0
 25 27  1  0  0  0  0
 25 26  1  0  0  0  0
 28 25  1  0  0  0  0
 28 30  1  0  0  0  0
 30 31  1  0  0  0  0
 30 29  2  1  0  0  0
 31 35  1  0  0  0  0
 32 33  1  0  0  0  0
 33 39  1  0  0  0  0
 34 35  2  0  0  0  0
 34 33  1  0  0  0  0
 35 36  1  0  0  0  0
 36 37  2  0  0  0  0
 36 38  1  0  0  0  0
 38 41  1  0  0  0  0
 39 38  1  0  0  0  0
 39 40  2  0  0  0  0
 42 30  1  0  0  0  0
 43 42  1  0  0  0  0
 44 43  1  0  0  0  0
 45 43  1  0  0  0  0
 46 43  1  0  0  0  0
M  END
>  <minimizedAffinity>
-6.29942369

$$$$

 OpenBabel03272504433D

 46 48  0  0  0  0  0  0  0  0999 V2000
   37.2710   27.8210   32.2960 C   0  0  0  0  0  0  0  0  0  0  0  0
   37.7660   27.8360   31.2960 H   0  0  0  0  0  0  0  0  0  0  0  0
   38.1200   28.0760   32.9970 H   0  0  0  0  0  0  0  0  0  0  0  0
   36.6110   28.7960   35.0260 Cl  0  0  0  0  0  0  0  0  0  0  0  0
   35.9160   29.4660   33.5450 C   0  0  0  0  0  0  0  0  0  0  0  0
   35.0290   30.4810   33.6260 C   0  0  0  0  0  0  0  0  0  0  0  0
   34.4840   31.0080   32.4770 C   0  0  0  0  0  0  0  0  0  0  0  0
   34.8640   30.4790   31.2520 C   0  0  0  0  0  0  0  0  0  0  0  0
   35.7940   29.4230   31.2440 C   0  0  0  0  0  0  0  0  0  0  0  0
   36.3320   28.9000   32.3570 C   0  0  0  0  0  0  0  0  0  0  0  0
   33.7640   31.8330   32.5670 H   0  0  0  0  0  0  0  0  0  0  0  0
   34.3800   30.9620   30.4170 H   0  0  0  0  0  0  0  0  0  0  0  0
   35.9370   29.1760   30.2520 H   0  0  0  0  0  0  0  0  0  0  0  0
   34.9810   32.4520   36.7460 C   0  0  0  0  0  0  0  0  0  0  0  0
   33.7700   31.9680   37.3440 C   0  0  0  0  0  0  0  0  0  0  0  0
   33.0270   30.9890   36.6510 C   0  0  0  0  0  0  0  0  0  0  0  0
   33.4870   30.5480   35.4520 N   0  0  0  0  0  0  0  0  0  0  0  0
   34.6330   31.0260   34.9150 C   0  0  0  0  0  0  0  0  0  0  0  0
   35.3550   31.9590   35.5600 N   0  0  0  0  0  0  0  0  0  0  0  0
   35.5140   33.1970   37.3090 H   0  0  0  0  0  0  0  0  0  0  0  0
   33.4500   32.3530   38.3000 H   0  0  0  0  0  0  0  0  0  0  0  0
   31.8520   30.5420   37.2670 N   0  0  0  0  0  0  0  0  0  0  0  0
   31.0590   31.1320   37.5810 H   0  0  0  0  0  0  0  0  0  0  0  0
   31.9430   29.5020   37.3440 H   0  0  0  0  0  0  0  0  0  0  0  0
   36.8410   26.4500   32.5610 C   0  0  0  0  0  0  0  0  0  0  0  0
   37.2350   25.6940   31.8250 H   0  0  0  0  0  0  0  0  0  0  0  0
   35.7260   26.3820   32.4550 H   0  0  0  0  0  0  0  0  0  0  0  0
   37.2150   26.0300   33.8090 O   0  0  0  0  0  0  0  0  0  0  0  0
   38.1970   24.0500   32.3900 O   0  0  0  0  0  0  0  0  0  0  0  0
   38.3030   24.7740   33.7080 P   0  0  2  0  0  0  0  0  0  0  0  0
   37.8990   23.6890   34.9980 O   0  0  0  0  0  0  0  0  0  0  0  0
   41.4970   21.1600   35.3240 H   0  0  0  0  0  0  0  0  0  0  0  0
   40.7700   21.7320   35.8210 N   0  0  0  0  0  0  0  0  0  0  0  0
   39.7780   22.3650   35.1330 C   0  0  0  0  0  3  0  0  0  0  0  0
   38.8270   23.1180   35.8310 C   0  0  0  0  0  0  0  0  0  0  0  0
   38.9460   23.1790   37.1890 C   0  0  0  0  0  0  0  0  0  0  0  0
   38.0620   23.8710   37.7530 O   0  0  0  0  0  0  0  0  0  0  0  0
   39.9230   22.5560   37.8620 N   0  0  0  0  0  0  0  0  0  0  0  0
   40.8400   21.8280   37.1720 C   0  0  0  0  0  0  0  0  0  0  0  0
   41.7400   21.2580   37.8380 O   0  0  0  0  0  0  0  0  0  0  0  0
   39.9700   22.6350   38.9030 H   0  0  0  0  0  0  0  0  0  0  0  0
   39.8700   25.2310   33.9720 O   0  0  0  0  0  0  0  0  0  0  0  0
   39.9270   26.3830   34.7250 C   0  0  0  0  0  0  0  0  0  0  0  0
   38.9450   26.4220   35.7130 F   0  0  0  0  0  0  0  0  0  0  0  0
   41.1270   26.4950   35.3960 F   0  0  0  0  0  0  0  0  0  0  0  0
   39.7530   27.4890   33.8990 F   0  0  0  0  0  0  0  0  0  0  0  0
  1 10  1  0  0  0  0
  1 25  1  0  0  0  0
  1  3  1  0  0  0  0
  2  1  1  0  0  0  0
  5  6  1  0  0  0  0
  5  4  1  0  0  0  0
  6 18  1  0  0  0  0
  7 11  1  0  0  0  0
  7  6  2  0  0  0  0
  8  7  1  0  0  0  0
  9  8  2  0  0  0  0
  9 10  1  0  0  0  0
 10  5  2  0  0  0  0
 12  8  1  0  0  0  0
 13  9  1  0  0  0  0
 14 20  1  0  0  0  0
 14 15  1  0  0  0  0
 15 21  1  0  0  0  0
 16 22  1  0  0  0  0
 16 15  2  0  0  0  0
 17 16  1  0  0  0  0
 18 17  2  0  0  0  0
 18 19  1  0  0  0  0
 19 14  2  0  0  0  0
 22 24  1  0  0  0  0
 22 23  1  0  0  0  0
 25 28  1  0  0  0  0
 26 25  1  0  0  0  0
 27 25  1  0  0  0  0
 30 29  2  6  0  0  0
 30 28  1  0  0  0  0
 30 42  1  0  0  0  0
 30 31  1  0  0  0  0
 31 35  1  0  0  0  0
 32 33  1  0  0  0  0
 33 39  1  0  0  0  0
 34 33  1  0  0  0  0
 34 35  2  0  0  0  0
 35 36  1  0  0  0  0
 36 37  2  0  0  0  0
 36 38  1  0  0  0  0
 38 41  1  0  0  0  0
 39 40  2  0  0  0  0
 39 38  1  0  0  0  0
 42 43  1  0  0  0  0
 43 45  1  0  0  0  0
 43 44  1  0  0  0  0
 46 43  1  0  0  0  0
M  END
>  <minimizedAffinity>
-6.28578568

$$$$

 OpenBabel03272504433D

 46 48  0  0  0  0  0  0  0  0999 V2000
   38.2180   27.1840   32.0160 C   0  0  0  0  0  0  0  0  0  0  0  0
   39.2660   27.5710   32.0250 H   0  0  0  0  0  0  0  0  0  0  0  0
   38.1040   26.7520   33.0540 H   0  0  0  0  0  0  0  0  0  0  0  0
   36.5980   27.7420   34.4460 Cl  0  0  0  0  0  0  0  0  0  0  0  0
   36.4960   28.6860   32.9540 C   0  0  0  0  0  0  0  0  0  0  0  0
   35.6390   29.7270   32.8820 C   0  0  0  0  0  0  0  0  0  0  0  0
   35.5550   30.4660   31.7240 C   0  0  0  0  0  0  0  0  0  0  0  0
   36.3610   30.1200   30.6480 C   0  0  0  0  0  0  0  0  0  0  0  0
   37.2300   29.0230   30.7950 C   0  0  0  0  0  0  0  0  0  0  0  0
   37.3210   28.2950   31.9190 C   0  0  0  0  0  0  0  0  0  0  0  0
   34.8510   31.3090   31.6880 H   0  0  0  0  0  0  0  0  0  0  0  0
   36.2170   30.7610   29.7920 H   0  0  0  0  0  0  0  0  0  0  0  0
   37.7280   28.9330   29.8960 H   0  0  0  0  0  0  0  0  0  0  0  0
   32.7600   29.9860   35.1770 C   0  0  0  0  0  0  0  0  0  0  0  0
   33.3160   30.8230   36.2020 C   0  0  0  0  0  0  0  0  0  0  0  0
   34.6500   31.2580   36.0590 C   0  0  0  0  0  0  0  0  0  0  0  0
   35.3500   30.8700   34.9620 N   0  0  0  0  0  0  0  0  0  0  0  0
   34.7960   30.0800   34.0130 C   0  0  0  0  0  0  0  0  0  0  0  0
   33.5260   29.6540   34.1320 N   0  0  0  0  0  0  0  0  0  0  0  0
   31.7420   29.6780   35.3280 H   0  0  0  0  0  0  0  0  0  0  0  0
   32.7160   31.1030   37.0540 H   0  0  0  0  0  0  0  0  0  0  0  0
   35.1560   32.0730   37.0790 N   0  0  0  0  0  0  0  0  0  0  0  0
   35.1850   31.8460   38.0900 H   0  0  0  0  0  0  0  0  0  0  0  0
   35.4920   32.9470   36.6120 H   0  0  0  0  0  0  0  0  0  0  0  0
   38.1550   26.0940   31.0460 C   0  0  0  0  0  0  0  0  0  0  0  0
   38.5150   26.3720   30.0150 H   0  0  0  0  0  0  0  0  0  0  0  0
   37.0830   25.7950   30.8910 H   0  0  0  0  0  0  0  0  0  0  0  0
   38.8850   25.0080   31.4480 O   0  0  0  0  0  0  0  0  0  0  0  0
   36.6040   24.3980   32.5980 O   0  0  0  0  0  0  0  0  0  0  0  0
   37.8910   23.8230   32.0630 P   0  0  2  0  0  0  0  0  0  0  0  0
   38.7760   23.0830   33.3580 O   0  0  0  0  0  0  0  0  0  0  0  0
   37.1440   21.4340   37.1080 H   0  0  0  0  0  0  0  0  0  0  0  0
   37.5890   22.2520   36.6200 N   0  0  0  0  0  0  0  0  0  0  0  0
   37.9170   22.1920   35.2990 C   0  0  0  0  0  3  0  0  0  0  0  0
   38.5080   23.3020   34.6840 C   0  0  0  0  0  0  0  0  0  0  0  0
   38.7280   24.4050   35.4570 C   0  0  0  0  0  0  0  0  0  0  0  0
   39.2610   25.3640   34.8440 O   0  0  0  0  0  0  0  0  0  0  0  0
   38.4040   24.4600   36.7560 N   0  0  0  0  0  0  0  0  0  0  0  0
   37.8310   23.3760   37.3400 C   0  0  0  0  0  0  0  0  0  0  0  0
   37.5410   23.4650   38.5590 O   0  0  0  0  0  0  0  0  0  0  0  0
   38.5950   25.3300   37.3030 H   0  0  0  0  0  0  0  0  0  0  0  0
   37.5610   22.6110   30.9880 O   0  0  0  0  0  0  0  0  0  0  0  0
   36.3080   22.0820   31.2110 C   0  0  0  0  0  0  0  0  0  0  0  0
   35.2900   22.9190   30.7580 F   0  0  0  0  0  0  0  0  0  0  0  0
   36.1300   20.8910   30.5400 F   0  0  0  0  0  0  0  0  0  0  0  0
   36.1250   21.8780   32.5750 F   0  0  0  0  0  0  0  0  0  0  0  0
  1  2  1  0  0  0  0
  1  3  1  0  0  0  0
  5  4  1  0  0  0  0
  6  5  1  0  0  0  0
  6 18  1  0  0  0  0
  7  6  2  0  0  0  0
  8  9  2  0  0  0  0
  8  7  1  0  0  0  0
  9 10  1  0  0  0  0
 10  1  1  0  0  0  0
 10  5  2  0  0  0  0
 11  7  1  0  0  0  0
 12  8  1  0  0  0  0
 13  9  1  0  0  0  0
 14 20  1  0  0  0  0
 14 15  1  0  0  0  0
 15 21  1  0  0  0  0
 16 15  2  0  0  0  0
 16 22  1  0  0  0  0
 17 16  1  0  0  0  0
 18 19  1  0  0  0  0
 18 17  2  0  0  0  0
 19 14  2  0  0  0  0
 22 23  1  0  0  0  0
 24 22  1  0  0  0  0
 25 28  1  0  0  0  0
 25  1  1  0  0  0  0
 26 25  1  0  0  0  0
 27 25  1  0  0  0  0
 28 30  1  0  0  0  0
 30 29  2  1  0  0  0
 30 31  1  0  0  0  0
 31 35  1  0  0  0  0
 33 32  1  0  0  0  0
 33 39  1  0  0  0  0
 34 33  1  0  0  0  0
 35 34  2  0  0  0  0
 35 36  1  0  0  0  0
 36 38  1  0  0  0  0
 37 36  2  0  0  0  0
 38 41  1  0  0  0  0
 38 39  1  0  0  0  0
 39 40  2  0  0  0  0
 42 43  1  0  0  0  0
 42 30  1  0  0  0  0
 43 46  1  0  0  0  0
 44 43  1  0  0  0  0
 45 43  1  0  0  0  0
M  END
>  <minimizedAffinity>
-6.24294853

$$$$

 OpenBabel03272504433D

 46 48  0  0  0  0  0  0  0  0999 V2000
   37.8750   25.3470   35.1800 C   0  0  0  0  0  0  0  0  0  0  0  0
   38.1930   24.9240   34.1970 H   0  0  0  0  0  0  0  0  0  0  0  0
   36.7630   25.1460   35.1880 H   0  0  0  0  0  0  0  0  0  0  0  0
   40.4490   24.0180   34.5090 Cl  0  0  0  0  0  0  0  0  0  0  0  0
   39.6450   23.8750   36.0770 C   0  0  0  0  0  0  0  0  0  0  0  0
   40.2070   23.1240   37.0470 C   0  0  0  0  0  0  0  0  0  0  0  0
   39.5860   23.0080   38.2710 C   0  0  0  0  0  0  0  0  0  0  0  0
   38.3870   23.6740   38.4790 C   0  0  0  0  0  0  0  0  0  0  0  0
   37.8600   24.4400   37.4220 C   0  0  0  0  0  0  0  0  0  0  0  0
   38.4550   24.5600   36.2250 C   0  0  0  0  0  0  0  0  0  0  0  0
   40.0620   22.3910   39.0460 H   0  0  0  0  0  0  0  0  0  0  0  0
   37.9850   23.5180   39.4690 H   0  0  0  0  0  0  0  0  0  0  0  0
   36.9780   24.8430   37.7750 H   0  0  0  0  0  0  0  0  0  0  0  0
   43.6750   22.3630   36.0380 C   0  0  0  0  0  0  0  0  0  0  0  0
   43.7720   20.9910   36.4460 C   0  0  0  0  0  0  0  0  0  0  0  0
   42.6460   20.3910   37.0490 C   0  0  0  0  0  0  0  0  0  0  0  0
   41.5210   21.1340   37.2160 N   0  0  0  0  0  0  0  0  0  0  0  0
   41.4620   22.4260   36.8190 C   0  0  0  0  0  0  0  0  0  0  0  0
   42.5250   23.0160   36.2430 N   0  0  0  0  0  0  0  0  0  0  0  0
   44.5560   22.7780   35.5840 H   0  0  0  0  0  0  0  0  0  0  0  0
   44.6900   20.4460   36.2910 H   0  0  0  0  0  0  0  0  0  0  0  0
   42.7800   19.0510   37.4340 N   0  0  0  0  0  0  0  0  0  0  0  0
   43.5060   18.6620   38.0630 H   0  0  0  0  0  0  0  0  0  0  0  0
   42.0050   18.5340   36.9580 H   0  0  0  0  0  0  0  0  0  0  0  0
   38.0890   26.7910   35.1340 C   0  0  0  0  0  0  0  0  0  0  0  0
   38.9160   27.1120   34.4400 H   0  0  0  0  0  0  0  0  0  0  0  0
   38.4230   27.1500   36.1440 H   0  0  0  0  0  0  0  0  0  0  0  0
   36.9600   27.4640   34.7540 O   0  0  0  0  0  0  0  0  0  0  0  0
   38.2730   27.6410   32.4870 O   0  0  0  0  0  0  0  0  0  0  0  0
   36.8950   27.6210   33.0980 P   0  0  2  0  0  0  0  0  0  0  0  0
   36.1040   29.1320   32.7920 O   0  0  0  0  0  0  0  0  0  0  0  0
   31.6940   29.1950   32.7420 H   0  0  0  0  0  0  0  0  0  0  0  0
   32.5780   29.4720   33.2390 N   0  0  0  0  0  0  0  0  0  0  0  0
   33.8020   29.1460   32.7350 C   0  0  0  0  0  3  0  0  0  0  0  0
   34.9560   29.5320   33.4270 C   0  0  0  0  0  0  0  0  0  0  0  0
   34.7900   30.2250   34.5910 C   0  0  0  0  0  0  0  0  0  0  0  0
   35.8640   30.5400   35.1600 O   0  0  0  0  0  0  0  0  0  0  0  0
   33.5840   30.5430   35.0830 N   0  0  0  0  0  0  0  0  0  0  0  0
   32.4720   30.1620   34.4020 C   0  0  0  0  0  0  0  0  0  0  0  0
   31.3600   30.4780   34.8940 O   0  0  0  0  0  0  0  0  0  0  0  0
   33.5120   31.0740   35.9790 H   0  0  0  0  0  0  0  0  0  0  0  0
   35.9710   26.4660   32.3580 O   0  0  0  0  0  0  0  0  0  0  0  0
   36.1610   26.4810   30.9940 C   0  0  0  0  0  0  0  0  0  0  0  0
   36.1990   27.7750   30.4770 F   0  0  0  0  0  0  0  0  0  0  0  0
   37.3650   25.9090   30.6400 F   0  0  0  0  0  0  0  0  0  0  0  0
   35.1220   25.7970   30.3710 F   0  0  0  0  0  0  0  0  0  0  0  0
  1  3  1  0  0  0  0
  1 10  1  0  0  0  0
  2  1  1  0  0  0  0
  4  5  1  0  0  0  0
  5 10  2  0  0  0  0
  5  6  1  0  0  0  0
  6  7  2  0  0  0  0
  7  8  1  0  0  0  0
  7 11  1  0  0  0  0
  8 12  1  0  0  0  0
  9 13  1  0  0  0  0
  9  8  2  0  0  0  0
 10  9  1  0  0  0  0
 14 19  2  0  0  0  0
 14 15  1  0  0  0  0
 15 16  2  0  0  0  0
 16 17  1  0  0  0  0
 16 22  1  0  0  0  0
 18  6  1  0  0  0  0
 18 17  2  0  0  0  0
 19 18  1  0  0  0  0
 20 14  1  0  0  0  0
 21 15  1  0  0  0  0
 22 23  1  0  0  0  0
 24 22  1  0  0  0  0
 25  1  1  0  0  0  0
 25 27  1  0  0  0  0
 26 25  1  0  0  0  0
 28 25  1  0  0  0  0
 30 29  2  6  0  0  0
 30 28  1  0  0  0  0
 31 30  1  0  0  0  0
 31 35  1  0  0  0  0
 32 33  1  0  0  0  0
 33 39  1  0  0  0  0
 34 33  1  0  0  0  0
 34 35  2  0  0  0  0
 35 36  1  0  0  0  0
 36 38  1  0  0  0  0
 36 37  2  0  0  0  0
 38 41  1  0  0  0  0
 39 40  2  0  0  0  0
 39 38  1  0  0  0  0
 42 30  1  0  0  0  0
 43 42  1  0  0  0  0
 44 43  1  0  0  0  0
 45 43  1  0  0  0  0
 46 43  1  0  0  0  0
M  END
>  <minimizedAffinity>
-6.10659027

$$$$

 OpenBabel03272504433D

 46 48  0  0  0  0  0  0  0  0999 V2000
   39.2940   25.2300   31.0720 C   0  0  0  0  0  0  0  0  0  0  0  0
   39.9450   24.3890   30.7320 H   0  0  0  0  0  0  0  0  0  0  0  0
   39.3100   25.9300   30.1850 H   0  0  0  0  0  0  0  0  0  0  0  0
   39.0210   22.2940   31.4540 Cl  0  0  0  0  0  0  0  0  0  0  0  0
   37.6520   23.4100   31.3830 C   0  0  0  0  0  0  0  0  0  0  0  0
   36.3960   22.9310   31.5050 C   0  0  0  0  0  0  0  0  0  0  0  0
   35.3250   23.7950   31.4520 C   0  0  0  0  0  0  0  0  0  0  0  0
   35.5660   25.1500   31.2730 C   0  0  0  0  0  0  0  0  0  0  0  0
   36.9010   25.5780   31.1540 C   0  0  0  0  0  0  0  0  0  0  0  0
   37.9530   24.7450   31.2040 C   0  0  0  0  0  0  0  0  0  0  0  0
   34.3120   23.3830   31.5530 H   0  0  0  0  0  0  0  0  0  0  0  0
   34.6610   25.7380   31.2450 H   0  0  0  0  0  0  0  0  0  0  0  0
   36.8620   26.6010   31.0260 H   0  0  0  0  0  0  0  0  0  0  0  0
   35.5160   19.6790   33.0130 C   0  0  0  0  0  0  0  0  0  0  0  0
   35.7350   18.8050   31.8970 C   0  0  0  0  0  0  0  0  0  0  0  0
   36.1730   19.3700   30.6810 C   0  0  0  0  0  0  0  0  0  0  0  0
   36.3690   20.7120   30.6170 N   0  0  0  0  0  0  0  0  0  0  0  0
   36.1530   21.5090   31.6890 C   0  0  0  0  0  0  0  0  0  0  0  0
   35.7350   20.9900   32.8560 N   0  0  0  0  0  0  0  0  0  0  0  0
   35.1820   19.2060   33.9180 H   0  0  0  0  0  0  0  0  0  0  0  0
   35.5640   17.7450   32.0010 H   0  0  0  0  0  0  0  0  0  0  0  0
   36.3750   18.4840   29.6150 N   0  0  0  0  0  0  0  0  0  0  0  0
   35.6790   17.8210   29.2250 H   0  0  0  0  0  0  0  0  0  0  0  0
   37.3630   18.6290   29.3010 H   0  0  0  0  0  0  0  0  0  0  0  0
   39.9600   25.8830   32.1960 C   0  0  0  0  0  0  0  0  0  0  0  0
   39.3830   26.7460   32.6340 H   0  0  0  0  0  0  0  0  0  0  0  0
   40.9200   26.3450   31.8430 H   0  0  0  0  0  0  0  0  0  0  0  0
   40.2140   25.0080   33.2180 O   0  0  0  0  0  0  0  0  0  0  0  0
   40.2280   26.7340   35.1970 O   0  0  0  0  0  0  0  0  0  0  0  0
   39.5120   25.5330   34.6330 P   0  0  2  0  0  0  0  0  0  0  0  0
   39.6350   24.2090   35.7450 O   0  0  0  0  0  0  0  0  0  0  0  0
   36.9670   20.9150   34.5300 H   0  0  0  0  0  0  0  0  0  0  0  0
   37.2300   21.6140   35.2690 N   0  0  0  0  0  0  0  0  0  0  0  0
   38.2600   22.4870   35.0800 C   0  0  0  0  0  3  0  0  0  0  0  0
   38.5810   23.4030   36.0880 C   0  0  0  0  0  0  0  0  0  0  0  0
   37.8320   23.3710   37.2290 C   0  0  0  0  0  0  0  0  0  0  0  0
   38.1730   24.2170   38.0920 O   0  0  0  0  0  0  0  0  0  0  0  0
   36.8210   22.5100   37.4120 N   0  0  0  0  0  0  0  0  0  0  0  0
   36.5200   21.6260   36.4240 C   0  0  0  0  0  0  0  0  0  0  0  0
   35.5660   20.8360   36.6320 O   0  0  0  0  0  0  0  0  0  0  0  0
   36.2790   22.5270   38.3040 H   0  0  0  0  0  0  0  0  0  0  0  0
   37.8970   25.8580   34.4910 O   0  0  0  0  0  0  0  0  0  0  0  0
   37.6430   27.1960   34.7020 C   0  0  0  0  0  0  0  0  0  0  0  0
   38.1590   27.6500   35.9140 F   0  0  0  0  0  0  0  0  0  0  0  0
   38.2280   27.9850   33.7350 F   0  0  0  0  0  0  0  0  0  0  0  0
   36.2680   27.4130   34.7090 F   0  0  0  0  0  0  0  0  0  0  0  0
  1 10  1  0  0  0  0
  1 25  1  0  0  0  0
  2  1  1  0  0  0  0
  3  1  1  0  0  0  0
  5  4  1  0  0  0  0
  5  6  1  0  0  0  0
  6 18  1  0  0  0  0
  7  6  2  0  0  0  0
  7 11  1  0  0  0  0
  8  7  1  0  0  0  0
  9 10  1  0  0  0  0
  9  8  2  0  0  0  0
 10  5  2  0  0  0  0
 12  8  1  0  0  0  0
 13  9  1  0  0  0  0
 14 20  1  0  0  0  0
 15 21  1  0  0  0  0
 15 14  2  0  0  0  0
 16 15  1  0  0  0  0
 17 16  2  0  0  0  0
 17 18  1  0  0  0  0
 18 19  2  0  0  0  0
 19 14  1  0  0  0  0
 22 16  1  0  0  0  0
 23 22  1  0  0  0  0
 24 22  1  0  0  0  0
 25 26  1  0  0  0  0
 25 28  1  0  0  0  0
 27 25  1  0  0  0  0
 28 30  1  0  0  0  0
 30 29  2  1  0  0  0
 30 31  1  0  0  0  0
 31 35  1  0  0  0  0
 32 33  1  0  0  0  0
 33 39  1  0  0  0  0
 34 33  1  0  0  0  0
 34 35  2  0  0  0  0
 35 36  1  0  0  0  0
 36 38  1  0  0  0  0
 36 37  2  0  0  0  0
 38 41  1  0  0  0  0
 39 40  2  0  0  0  0
 39 38  1  0  0  0  0
 42 30  1  0  0  0  0
 42 43  1  0  0  0  0
 43 46  1  0  0  0  0
 43 44  1  0  0  0  0
 45 43  1  0  0  0  0
M  END
>  <minimizedAffinity>
-6.10302448

$$$$

 OpenBabel03272504433D

 46 48  0  0  0  0  0  0  0  0999 V2000
   39.1140   25.6550   30.7060 C   0  0  0  0  0  0  0  0  0  0  0  0
   39.6210   24.9510   30.0030 H   0  0  0  0  0  0  0  0  0  0  0  0
   39.0510   26.6070   30.1010 H   0  0  0  0  0  0  0  0  0  0  0  0
   38.8380   22.8040   31.5030 Cl  0  0  0  0  0  0  0  0  0  0  0  0
   37.4710   23.9050   31.2900 C   0  0  0  0  0  0  0  0  0  0  0  0
   36.2150   23.4530   31.4920 C   0  0  0  0  0  0  0  0  0  0  0  0
   35.1460   24.3040   31.3280 C   0  0  0  0  0  0  0  0  0  0  0  0
   35.3880   25.6190   30.9560 C   0  0  0  0  0  0  0  0  0  0  0  0
   36.7230   26.0200   30.7630 C   0  0  0  0  0  0  0  0  0  0  0  0
   37.7740   25.2000   30.9200 C   0  0  0  0  0  0  0  0  0  0  0  0
   34.1330   23.9160   31.4980 H   0  0  0  0  0  0  0  0  0  0  0  0
   34.4850   26.2010   30.8550 H   0  0  0  0  0  0  0  0  0  0  0  0
   36.6850   27.0150   30.4910 H   0  0  0  0  0  0  0  0  0  0  0  0
   35.6420   19.8090   31.3500 C   0  0  0  0  0  0  0  0  0  0  0  0
   35.5070   19.5100   32.7460 C   0  0  0  0  0  0  0  0  0  0  0  0
   35.6190   20.5700   33.6710 C   0  0  0  0  0  0  0  0  0  0  0  0
   35.8480   21.8240   33.2030 N   0  0  0  0  0  0  0  0  0  0  0  0
   35.9710   22.0720   31.8780 C   0  0  0  0  0  0  0  0  0  0  0  0
   35.8680   21.0760   30.9820 N   0  0  0  0  0  0  0  0  0  0  0  0
   35.5500   18.9720   30.6820 H   0  0  0  0  0  0  0  0  0  0  0  0
   35.3250   18.4960   33.0650 H   0  0  0  0  0  0  0  0  0  0  0  0
   35.4810   20.2380   35.0240 N   0  0  0  0  0  0  0  0  0  0  0  0
   36.0350   19.5320   35.5440 H   0  0  0  0  0  0  0  0  0  0  0  0
   34.7110   20.8420   35.3940 H   0  0  0  0  0  0  0  0  0  0  0  0
   40.0100   25.8780   31.8370 C   0  0  0  0  0  0  0  0  0  0  0  0
   41.0870   26.0360   31.5480 H   0  0  0  0  0  0  0  0  0  0  0  0
   40.0310   24.9590   32.4830 H   0  0  0  0  0  0  0  0  0  0  0  0
   39.6310   26.9600   32.5840 O   0  0  0  0  0  0  0  0  0  0  0  0
   40.8620   26.7710   34.8960 O   0  0  0  0  0  0  0  0  0  0  0  0
   39.5410   26.5630   34.1980 P   0  0  2  0  0  0  0  0  0  0  0  0
   39.1150   24.8840   34.2530 O   0  0  0  0  0  0  0  0  0  0  0  0
   42.2020   22.0040   35.5300 H   0  0  0  0  0  0  0  0  0  0  0  0
   41.3020   22.4960   35.7580 N   0  0  0  0  0  0  0  0  0  0  0  0
   40.7440   23.3870   34.8890 C   0  0  0  0  0  3  0  0  0  0  0  0
   39.5440   24.0220   35.2290 C   0  0  0  0  0  0  0  0  0  0  0  0
   38.9870   23.7100   36.4350 C   0  0  0  0  0  0  0  0  0  0  0  0
   37.9130   24.3140   36.6770 O   0  0  0  0  0  0  0  0  0  0  0  0
   39.5380   22.8340   37.2870 N   0  0  0  0  0  0  0  0  0  0  0  0
   40.7030   22.2240   36.9440 C   0  0  0  0  0  0  0  0  0  0  0  0
   41.1890   21.4100   37.7680 O   0  0  0  0  0  0  0  0  0  0  0  0
   39.0700   22.6310   38.1980 H   0  0  0  0  0  0  0  0  0  0  0  0
   38.3450   27.3630   35.0130 O   0  0  0  0  0  0  0  0  0  0  0  0
   37.1850   27.4020   34.2720 C   0  0  0  0  0  0  0  0  0  0  0  0
   36.1420   28.0300   34.9500 F   0  0  0  0  0  0  0  0  0  0  0  0
   37.3480   28.1180   33.1050 F   0  0  0  0  0  0  0  0  0  0  0  0
   36.7830   26.1050   33.9670 F   0  0  0  0  0  0  0  0  0  0  0  0
  1 10  1  0  0  0  0
  1 25  1  0  0  0  0
  2  1  1  0  0  0  0
  3  1  1  0  0  0  0
  5  6  1  0  0  0  0
  5  4  1  0  0  0  0
  6 18  1  0  0  0  0
  7  6  2  0  0  0  0
  7 11  1  0  0  0  0
  8  7  1  0  0  0  0
  9 10  1  0  0  0  0
  9  8  2  0  0  0  0
 10  5  2  0  0  0  0
 12  8  1  0  0  0  0
 13  9  1  0  0  0  0
 14 15  1  0  0  0  0
 15 21  1  0  0  0  0
 15 16  2  0  0  0  0
 16 22  1  0  0  0  0
 17 16  1  0  0  0  0
 18 17  2  0  0  0  0
 19 14  2  0  0  0  0
 19 18  1  0  0  0  0
 20 14  1  0  0  0  0
 22 24  1  0  0  0  0
 22 23  1  0  0  0  0
 25 27  1  0  0  0  0
 25 28  1  0  0  0  0
 26 25  1  0  0  0  0
 28 30  1  0  0  0  0
 30 31  1  0  0  0  0
 30 29  2  1  0  0  0
 30 42  1  0  0  0  0
 31 35  1  0  0  0  0
 32 33  1  0  0  0  0
 33 39  1  0  0  0  0
 34 35  2  0  0  0  0
 34 33  1  0  0  0  0
 35 36  1  0  0  0  0
 36 37  2  0  0  0  0
 36 38  1  0  0  0  0
 38 41  1  0  0  0  0
 39 38  1  0  0  0  0
 39 40  2  0  0  0  0
 43 44  1  0  0  0  0
 43 42  1  0  0  0  0
 45 43  1  0  0  0  0
 46 43  1  0  0  0  0
M  END
>  <minimizedAffinity>
-6.08518505

$$$$

 OpenBabel03272504433D

 46 48  0  0  0  0  0  0  0  0999 V2000
   38.8510   26.6690   31.5510 C   0  0  0  0  0  0  0  0  0  0  0  0
   38.9930   27.4180   30.7360 H   0  0  0  0  0  0  0  0  0  0  0  0
   39.8890   26.5810   31.9910 H   0  0  0  0  0  0  0  0  0  0  0  0
   36.7090   28.4770   30.5600 Cl  0  0  0  0  0  0  0  0  0  0  0  0
   36.9740   28.1050   32.2680 C   0  0  0  0  0  0  0  0  0  0  0  0
   36.1730   28.6610   33.2020 C   0  0  0  0  0  0  0  0  0  0  0  0
   36.3740   28.3760   34.5340 C   0  0  0  0  0  0  0  0  0  0  0  0
   37.4030   27.5150   34.8870 C   0  0  0  0  0  0  0  0  0  0  0  0
   38.1970   26.9720   33.8600 C   0  0  0  0  0  0  0  0  0  0  0  0
   38.0120   27.2430   32.5580 C   0  0  0  0  0  0  0  0  0  0  0  0
   35.7100   28.8400   35.2770 H   0  0  0  0  0  0  0  0  0  0  0  0
   37.4740   27.3590   35.9530 H   0  0  0  0  0  0  0  0  0  0  0  0
   38.8950   26.3720   34.3270 H   0  0  0  0  0  0  0  0  0  0  0  0
   34.3270   31.6480   32.0650 C   0  0  0  0  0  0  0  0  0  0  0  0
   32.9770   31.1660   32.1380 C   0  0  0  0  0  0  0  0  0  0  0  0
   32.7640   29.8410   32.5730 C   0  0  0  0  0  0  0  0  0  0  0  0
   33.8390   29.0800   32.9030 N   0  0  0  0  0  0  0  0  0  0  0  0
   35.0990   29.5660   32.8230 C   0  0  0  0  0  0  0  0  0  0  0  0
   35.3240   30.8250   32.4110 N   0  0  0  0  0  0  0  0  0  0  0  0
   34.4430   32.6620   31.7290 H   0  0  0  0  0  0  0  0  0  0  0  0
   32.1590   31.8130   31.8640 H   0  0  0  0  0  0  0  0  0  0  0  0
   31.4330   29.4080   32.6310 N   0  0  0  0  0  0  0  0  0  0  0  0
   30.7480   29.4180   31.8520 H   0  0  0  0  0  0  0  0  0  0  0  0
   31.2780   29.0780   33.6120 H   0  0  0  0  0  0  0  0  0  0  0  0
   38.4970   25.3950   30.9290 C   0  0  0  0  0  0  0  0  0  0  0  0
   38.7890   25.3160   29.8440 H   0  0  0  0  0  0  0  0  0  0  0  0
   37.3800   25.2820   30.9230 H   0  0  0  0  0  0  0  0  0  0  0  0
   39.0680   24.3340   31.5780 O   0  0  0  0  0  0  0  0  0  0  0  0
   36.6670   23.9750   32.5810 O   0  0  0  0  0  0  0  0  0  0  0  0
   37.9030   23.2620   32.0940 P   0  0  2  0  0  0  0  0  0  0  0  0
   38.6160   22.3780   33.4040 O   0  0  0  0  0  0  0  0  0  0  0  0
   36.5040   21.7370   37.2220 H   0  0  0  0  0  0  0  0  0  0  0  0
   37.2480   22.2630   36.7000 N   0  0  0  0  0  0  0  0  0  0  0  0
   37.4930   22.0180   35.3820 C   0  0  0  0  0  3  0  0  0  0  0  0
   38.4940   22.7400   34.7200 C   0  0  0  0  0  0  0  0  0  0  0  0
   39.1840   23.6670   35.4460 C   0  0  0  0  0  0  0  0  0  0  0  0
   40.0660   24.2780   34.7930 O   0  0  0  0  0  0  0  0  0  0  0  0
   38.9400   23.9060   36.7420 N   0  0  0  0  0  0  0  0  0  0  0  0
   37.9660   23.1980   37.3720 C   0  0  0  0  0  0  0  0  0  0  0  0
   37.7670   23.4490   38.5870 O   0  0  0  0  0  0  0  0  0  0  0  0
   39.4980   24.6270   37.2520 H   0  0  0  0  0  0  0  0  0  0  0  0
   37.4890   22.1350   30.9570 O   0  0  0  0  0  0  0  0  0  0  0  0
   36.2000   21.6900   31.1500 C   0  0  0  0  0  0  0  0  0  0  0  0
   35.9330   20.5140   30.4510 F   0  0  0  0  0  0  0  0  0  0  0  0
   35.9540   21.3950   32.4740 F   0  0  0  0  0  0  0  0  0  0  0  0
   35.3030   22.6620   30.7170 F   0  0  0  0  0  0  0  0  0  0  0  0
  1  3  1  0  0  0  0
  1 10  1  0  0  0  0
  2  1  1  0  0  0  0
  4  5  1  0  0  0  0
  5 10  2  0  0  0  0
  5  6  1  0  0  0  0
  6  7  2  0  0  0  0
  7  8  1  0  0  0  0
  7 11  1  0  0  0  0
  8 12  1  0  0  0  0
  9 13  1  0  0  0  0
  9  8  2  0  0  0  0
 10  9  1  0  0  0  0
 14 15  2  0  0  0  0
 14 19  1  0  0  0  0
 15 16  1  0  0  0  0
 16 22  1  0  0  0  0
 16 17  2  0  0  0  0
 18 17  1  0  0  0  0
 18  6  1  0  0  0  0
 19 18  2  0  0  0  0
 20 14  1  0  0  0  0
 21 15  1  0  0  0  0
 22 24  1  0  0  0  0
 23 22  1  0  0  0  0
 25  1  1  0  0  0  0
 25 28  1  0  0  0  0
 26 25  1  0  0  0  0
 27 25  1  0  0  0  0
 28 30  1  0  0  0  0
 30 29  2  1  0  0  0
 30 31  1  0  0  0  0
 31 35  1  0  0  0  0
 33 32  1  0  0  0  0
 33 39  1  0  0  0  0
 34 33  1  0  0  0  0
 35 34  2  0  0  0  0
 35 36  1  0  0  0  0
 36 38  1  0  0  0  0
 37 36  2  0  0  0  0
 38 41  1  0  0  0  0
 38 39  1  0  0  0  0
 39 40  2  0  0  0  0
 42 43  1  0  0  0  0
 42 30  1  0  0  0  0
 43 45  1  0  0  0  0
 44 43  1  0  0  0  0
 46 43  1  0  0  0  0
M  END
>  <minimizedAffinity>
-6.04939508

$$$$
