
 OpenBabel03272504423D

 46 48  0  0  0  0  0  0  0  0999 V2000
   34.5810   29.1190   48.7960 C   0  0  0  0  0  0  0  0  0  0  0  0
   35.4920   28.9270   49.4120 H   0  0  0  0  0  0  0  0  0  0  0  0
   34.0980   29.9890   49.3320 H   0  0  0  0  0  0  0  0  0  0  0  0
   37.3400   30.2180   48.6500 Cl  0  0  0  0  0  0  0  0  0  0  0  0
   36.2370   30.1320   47.2700 C   0  0  0  0  0  0  0  0  0  0  0  0
   36.6430   30.5870   46.0650 C   0  0  0  0  0  0  0  0  0  0  0  0
   35.7900   30.5240   44.9860 C   0  0  0  0  0  0  0  0  0  0  0  0
   34.5230   29.9880   45.1650 C   0  0  0  0  0  0  0  0  0  0  0  0
   34.1680   29.5340   46.4490 C   0  0  0  0  0  0  0  0  0  0  0  0
   34.9910   29.5900   47.5080 C   0  0  0  0  0  0  0  0  0  0  0  0
   36.1410   30.9000   44.0160 H   0  0  0  0  0  0  0  0  0  0  0  0
   33.9350   29.9850   44.2590 H   0  0  0  0  0  0  0  0  0  0  0  0
   33.2010   29.1830   46.3700 H   0  0  0  0  0  0  0  0  0  0  0  0
   39.6080   32.7650   46.3600 C   0  0  0  0  0  0  0  0  0  0  0  0
   40.5090   32.1060   45.4590 C   0  0  0  0  0  0  0  0  0  0  0  0
   40.0590   30.9460   44.7930 C   0  0  0  0  0  0  0  0  0  0  0  0
   38.7970   30.5040   45.0310 N   0  0  0  0  0  0  0  0  0  0  0  0
   37.9720   31.1500   45.8880 C   0  0  0  0  0  0  0  0  0  0  0  0
   38.3820   32.2570   46.5320 N   0  0  0  0  0  0  0  0  0  0  0  0
   39.9930   33.6440   46.8450 H   0  0  0  0  0  0  0  0  0  0  0  0
   41.5020   32.4990   45.3060 H   0  0  0  0  0  0  0  0  0  0  0  0
   40.9670   30.3310   43.9230 N   0  0  0  0  0  0  0  0  0  0  0  0
   41.9210   30.0010   44.1610 H   0  0  0  0  0  0  0  0  0  0  0  0
   40.4870   30.2780   42.9940 H   0  0  0  0  0  0  0  0  0  0  0  0
   33.7080   27.9540   48.9150 C   0  0  0  0  0  0  0  0  0  0  0  0
   34.0630   27.1870   49.6600 H   0  0  0  0  0  0  0  0  0  0  0  0
   33.6900   27.4000   47.9380 H   0  0  0  0  0  0  0  0  0  0  0  0
   32.4340   28.3030   49.2730 O   0  0  0  0  0  0  0  0  0  0  0  0
   31.9780   26.7620   47.1970 O   0  0  0  0  0  0  0  0  0  0  0  0
   31.3160   27.5230   48.3180 P   0  0  2  0  0  0  0  0  0  0  0  0
   30.3040   28.7650   47.6570 O   0  0  0  0  0  0  0  0  0  0  0  0
   30.9830   30.8090   43.8080 H   0  0  0  0  0  0  0  0  0  0  0  0
   30.4630   30.0620   44.3350 N   0  0  0  0  0  0  0  0  0  0  0  0
   30.6830   29.8520   45.6630 C   0  0  0  0  0  3  0  0  0  0  0  0
   29.9710   28.8490   46.3300 C   0  0  0  0  0  0  0  0  0  0  0  0
   29.0780   28.1200   45.6000 C   0  0  0  0  0  0  0  0  0  0  0  0
   28.4740   27.2370   46.2570 O   0  0  0  0  0  0  0  0  0  0  0  0
   28.8650   28.3290   44.2930 N   0  0  0  0  0  0  0  0  0  0  0  0
   29.5630   29.3070   43.6580 C   0  0  0  0  0  0  0  0  0  0  0  0
   29.3350   29.4720   42.4330 O   0  0  0  0  0  0  0  0  0  0  0  0
   28.1690   27.7430   43.7800 H   0  0  0  0  0  0  0  0  0  0  0  0
   30.3110   26.5170   49.1610 O   0  0  0  0  0  0  0  0  0  0  0  0
   29.4800   27.2350   49.9930 C   0  0  0  0  0  0  0  0  0  0  0  0
   29.1880   26.5500   51.1710 F   0  0  0  0  0  0  0  0  0  0  0  0
   30.0570   28.4210   50.3920 F   0  0  0  0  0  0  0  0  0  0  0  0
   28.2800   27.4990   49.3390 F   0  0  0  0  0  0  0  0  0  0  0  0
  1 25  1  0  0  0  0
  1  3  1  0  0  0  0
  1  2  1  0  0  0  0
  5 10  1  0  0  0  0
  5  4  1  0  0  0  0
  6  5  2  0  0  0  0
  7  8  2  0  0  0  0
  7  6  1  0  0  0  0
  8  9  1  0  0  0  0
  9 10  2  0  0  0  0
 10  1  1  0  0  0  0
 11  7  1  0  0  0  0
 12  8  1  0  0  0  0
 13  9  1  0  0  0  0
 14 19  1  0  0  0  0
 14 20  1  0  0  0  0
 15 14  2  0  0  0  0
 16 17  2  0  0  0  0
 16 15  1  0  0  0  0
 17 18  1  0  0  0  0
 18  6  1  0  0  0  0
 18 19  2  0  0  0  0
 21 15  1  0  0  0  0
 22 23  1  0  0  0  0
 22 16  1  0  0  0  0
 24 22  1  0  0  0  0
 25 28  1  0  0  0  0
 25 26  1  0  0  0  0
 27 25  1  0  0  0  0
 30 29  2  6  0  0  0
 30 42  1  0  0  0  0
 30 28  1  0  0  0  0
 31 30  1  0  0  0  0
 32 33  1  0  0  0  0
 33 34  1  0  0  0  0
 34 35  2  0  0  0  0
 35 31  1  0  0  0  0
 36 37  2  0  0  0  0
 36 35  1  0  0  0  0
 38 36  1  0  0  0  0
 39 38  1  0  0  0  0
 39 33  1  0  0  0  0
 40 39  2  0  0  0  0
 41 38  1  0  0  0  0
 42 43  1  0  0  0  0
 43 45  1  0  0  0  0
 43 44  1  0  0  0  0
 46 43  1  0  0  0  0
M  END
>  <minimizedAffinity>
-5.71339798

>  <minimizedRMSD>
0.756961524

$$$$
