
 OpenBabel03272506443D

 33 35  0  0  1  0  0  0  0  0999 V2000
   32.2500   28.6280   47.4110 C   0  0  2  0  0  0  0  0  0  0  0  0
   33.4910   28.4100   48.2640 C   0  0  1  0  0  0  0  0  0  0  0  0
   33.8260   27.0910   48.1920 O   0  0  0  0  0  0  0  0  0  0  0  0
   33.0600   26.4810   47.2260 C   0  0  0  0  0  0  0  0  0  0  0  0
   32.5260   27.6030   46.3180 C   0  0  1  0  0  0  0  0  0  0  0  0
   31.3550   28.3490   47.9850 H   0  0  0  0  0  0  0  0  0  0  0  0
   33.3180   28.7990   49.2770 H   0  0  0  0  0  0  0  0  0  0  0  0
   33.6150   25.7170   46.6650 H   0  0  0  0  0  0  0  0  0  0  0  0
   32.1600   26.0660   47.7400 H   0  0  0  0  0  0  0  0  0  0  0  0
   33.3750   27.9330   45.7240 H   0  0  0  0  0  0  0  0  0  0  0  0
   32.2030   29.9260   46.9140 O   0  0  0  0  0  0  0  0  0  0  0  0
   32.8950   30.0030   46.2090 H   0  0  0  0  0  0  0  0  0  0  0  0
   34.8310   29.3840   47.4790 S   0  0  0  0  0  0  0  0  0  0  0  0
   37.2880   29.3090   50.5910 C   0  0  0  0  0  0  0  0  0  0  0  0
   37.7540   30.6210   50.7110 C   0  0  0  0  0  0  0  0  0  0  0  0
   37.2840   31.5740   49.7820 C   0  0  0  0  0  0  0  0  0  0  0  0
   36.4130   31.1640   48.8330 N   0  0  0  0  0  0  0  0  0  0  0  0
   35.9820   29.8880   48.7450 C   0  0  0  0  0  0  0  0  0  0  0  0
   36.4120   28.9630   49.6140 N   0  0  0  0  0  0  0  0  0  0  0  0
   37.6170   28.5420   51.2770 H   0  0  0  0  0  0  0  0  0  0  0  0
   38.4410   30.8920   51.4770 H   0  0  0  0  0  0  0  0  0  0  0  0
   37.6190   32.6040   49.8360 H   0  0  0  0  0  0  0  0  0  0  0  0
   31.3910   27.1820   45.6750 O   0  0  0  0  0  0  0  0  0  0  0  0
   27.9010   26.0830   48.3250 H   0  0  0  0  0  0  0  0  0  0  0  0
   28.2940   26.7260   47.6180 N   0  0  0  0  0  0  0  0  0  0  0  0
   29.5370   26.4370   47.2110 C   0  0  0  0  0  3  0  0  0  0  0  0
   30.1400   27.2410   46.2690 C   0  0  0  0  0  0  0  0  0  0  0  0
   29.4380   28.3370   45.7630 C   0  0  0  0  0  0  0  0  0  0  0  0
   29.8240   29.1780   44.9040 O   0  0  0  0  0  0  0  0  0  0  0  0
   28.1720   28.6180   46.1890 N   0  0  0  0  0  0  0  0  0  0  0  0
   27.6120   27.7950   47.1240 C   0  0  0  0  0  0  0  0  0  0  0  0
   26.4530   27.9870   47.5640 O   0  0  0  0  0  0  0  0  0  0  0  0
   27.5900   29.4000   45.8690 H   0  0  0  0  0  0  0  0  0  0  0  0
  1  6  1  1  0  0  0
  1  2  1  0  0  0  0
  2  7  1  1  0  0  0
  3  2  1  0  0  0  0
  4  9  1  0  0  0  0
  4  3  1  0  0  0  0
  5 10  1  6  0  0  0
  5  4  1  0  0  0  0
  5  1  1  0  0  0  0
  8  4  1  0  0  0  0
 11  1  1  0  0  0  0
 12 11  1  0  0  0  0
 13  2  1  0  0  0  0
 13 18  1  0  0  0  0
 14 15  1  0  0  0  0
 14 20  1  0  0  0  0
 15 21  1  0  0  0  0
 16 22  1  0  0  0  0
 16 15  2  0  0  0  0
 17 16  1  0  0  0  0
 18 17  2  0  0  0  0
 18 19  1  0  0  0  0
 19 14  2  0  0  0  0
 23 27  1  0  0  0  0
 23  5  1  0  0  0  0
 25 24  1  0  0  0  0
 26 25  1  0  0  0  0
 27 26  2  0  0  0  0
 28 30  1  0  0  0  0
 28 27  1  0  0  0  0
 29 28  2  0  0  0  0
 30 31  1  0  0  0  0
 31 32  2  0  0  0  0
 31 25  1  0  0  0  0
 33 30  1  0  0  0  0
M  END
>  <minimizedAffinity>
-4.62883425

>  <minimizedRMSD>
3.58907342

$$$$
