
 OpenBabel03272501053D

 31 33  0  0  1  0  0  0  0  0999 V2000
   39.0340   32.4140   47.8090 C   0  0  2  0  0  0  0  0  0  0  0  0
   37.9870   32.7310   48.9090 C   0  0  2  0  0  0  0  0  0  0  0  0
   38.8680   33.5060   49.8070 C   0  0  0  0  0  0  0  0  0  0  0  0
   39.6590   34.3070   49.0080 O   0  0  0  0  0  0  0  0  0  0  0  0
   39.6610   33.7980   47.7300 C   0  0  0  0  0  0  0  0  0  0  0  0
   39.7180   31.6810   48.2230 H   0  0  0  0  0  0  0  0  0  0  0  0
   37.2470   33.3940   48.3710 H   0  0  0  0  0  0  0  0  0  0  0  0
   38.3470   34.0570   50.6120 H   0  0  0  0  0  0  0  0  0  0  0  0
   39.5610   32.7630   50.2980 H   0  0  0  0  0  0  0  0  0  0  0  0
   39.0200   34.3900   47.0510 H   0  0  0  0  0  0  0  0  0  0  0  0
   40.6750   33.7840   47.3350 H   0  0  0  0  0  0  0  0  0  0  0  0
   37.3570   29.6400   50.9800 C   0  0  0  0  0  0  0  0  0  0  0  0
   37.9970   30.8050   50.4870 C   0  0  0  0  0  0  0  0  0  0  0  0
   37.3730   31.5450   49.4530 C   0  0  0  0  0  0  0  0  0  0  0  0
   36.1710   31.0860   48.9830 N   0  0  0  0  0  0  0  0  0  0  0  0
   35.5950   29.9820   49.4720 C   0  0  0  0  0  0  0  0  0  0  0  0
   36.1670   29.2550   50.4590 N   0  0  0  0  0  0  0  0  0  0  0  0
   37.9330   29.1680   51.7650 H   0  0  0  0  0  0  0  0  0  0  0  0
   38.9470   31.1660   50.8600 H   0  0  0  0  0  0  0  0  0  0  0  0
   34.6440   29.6240   49.0950 H   0  0  0  0  0  0  0  0  0  0  0  0
   38.4280   32.0640   46.6120 O   0  0  0  0  0  0  0  0  0  0  0  0
   41.7320   30.1140   44.2280 H   0  0  0  0  0  0  0  0  0  0  0  0
   40.8100   30.6210   44.2010 N   0  0  0  0  0  0  0  0  0  0  0  0
   40.2530   30.9910   45.3620 C   0  0  0  0  0  0  0  0  0  0  0  0
   39.0460   31.6630   45.4640 C   0  0  0  0  0  0  0  0  0  0  0  0
   38.4280   31.9380   44.2490 C   0  0  0  0  0  0  0  0  0  0  0  0
   37.3230   32.5450   44.1710 O   0  0  0  0  0  0  0  0  0  0  0  0
   38.9770   31.5730   43.0990 N   0  0  0  0  0  0  0  0  0  0  0  0
   40.1560   30.9210   43.0650 C   0  0  0  0  0  0  0  0  0  0  0  0
   40.7470   30.5390   42.0090 O   0  0  0  0  0  0  0  0  0  0  0  0
   38.5370   31.7670   42.1600 H   0  0  0  0  0  0  0  0  0  0  0  0
  1  6  1  1  0  0  0
  1  2  1  0  0  0  0
  2  7  1  6  0  0  0
  2 14  1  0  0  0  0
  2  3  1  0  0  0  0
  3  9  1  0  0  0  0
  3  8  1  0  0  0  0
  4  3  1  0  0  0  0
  5  1  1  0  0  0  0
  5  4  1  0  0  0  0
 10  5  1  0  0  0  0
 11  5  1  0  0  0  0
 12 18  1  0  0  0  0
 13 19  1  0  0  0  0
 13 12  1  0  0  0  0
 14 13  2  0  0  0  0
 15 14  1  0  0  0  0
 15 16  2  0  0  0  0
 16 17  1  0  0  0  0
 17 12  2  0  0  0  0
 20 16  1  0  0  0  0
 21  1  1  0  0  0  0
 23 22  1  0  0  0  0
 23 24  1  0  0  0  0
 24 25  2  0  0  0  0
 25 21  1  0  0  0  0
 26 25  1  0  0  0  0
 27 26  2  0  0  0  0
 28 26  1  0  0  0  0
 29 28  1  0  0  0  0
 29 23  1  0  0  0  0
 30 29  2  0  0  0  0
 31 28  1  0  0  0  0
M  END
>  <minimizedAffinity>
-5.85377693

>  <minimizedRMSD>
4.141644

$$$$
