
 OpenBabel03272506443D

 33 35  0  0  1  0  0  0  0  0999 V2000
   32.2660   28.2490   47.5160 C   0  0  2  0  0  0  0  0  0  0  0  0
   33.5480   28.1890   48.3330 C   0  0  1  0  0  0  0  0  0  0  0  0
   34.0850   26.9460   48.1830 O   0  0  0  0  0  0  0  0  0  0  0  0
   33.4000   26.2710   47.1980 C   0  0  0  0  0  0  0  0  0  0  0  0
   32.6720   27.3400   46.3640 C   0  0  1  0  0  0  0  0  0  0  0  0
   31.4420   27.8030   48.0880 H   0  0  0  0  0  0  0  0  0  0  0  0
   33.3420   28.4930   49.3690 H   0  0  0  0  0  0  0  0  0  0  0  0
   34.0540   25.6350   46.5870 H   0  0  0  0  0  0  0  0  0  0  0  0
   32.5900   25.6930   47.7050 H   0  0  0  0  0  0  0  0  0  0  0  0
   33.4420   27.8300   45.7730 H   0  0  0  0  0  0  0  0  0  0  0  0
   32.0020   29.5480   47.0910 O   0  0  0  0  0  0  0  0  0  0  0  0
   32.6540   29.7690   46.3790 H   0  0  0  0  0  0  0  0  0  0  0  0
   34.6970   29.4020   47.5780 S   0  0  0  0  0  0  0  0  0  0  0  0
   37.2750   29.2900   50.5890 C   0  0  0  0  0  0  0  0  0  0  0  0
   37.7320   30.6050   50.7190 C   0  0  0  0  0  0  0  0  0  0  0  0
   37.2150   31.5720   49.8300 C   0  0  0  0  0  0  0  0  0  0  0  0
   36.3120   31.1710   48.9080 N   0  0  0  0  0  0  0  0  0  0  0  0
   35.8910   29.8930   48.8090 C   0  0  0  0  0  0  0  0  0  0  0  0
   36.3650   28.9550   49.6410 N   0  0  0  0  0  0  0  0  0  0  0  0
   37.6380   28.5120   51.2460 H   0  0  0  0  0  0  0  0  0  0  0  0
   38.4450   30.8670   51.4640 H   0  0  0  0  0  0  0  0  0  0  0  0
   37.5410   32.6040   49.8930 H   0  0  0  0  0  0  0  0  0  0  0  0
   31.6020   26.7770   45.7180 O   0  0  0  0  0  0  0  0  0  0  0  0
   31.2000   28.2840   41.4780 H   0  0  0  0  0  0  0  0  0  0  0  0
   30.7610   28.1500   42.4030 N   0  0  0  0  0  0  0  0  0  0  0  0
   31.5400   27.5670   43.3260 C   0  0  0  0  0  3  0  0  0  0  0  0
   31.0350   27.3480   44.5880 C   0  0  0  0  0  0  0  0  0  0  0  0
   29.7260   27.7390   44.8740 C   0  0  0  0  0  0  0  0  0  0  0  0
   29.1000   27.6210   45.9640 O   0  0  0  0  0  0  0  0  0  0  0  0
   28.9470   28.3320   43.9230 N   0  0  0  0  0  0  0  0  0  0  0  0
   29.4850   28.5300   42.6850 C   0  0  0  0  0  0  0  0  0  0  0  0
   28.8310   29.0680   41.7580 O   0  0  0  0  0  0  0  0  0  0  0  0
   27.9790   28.6470   44.0510 H   0  0  0  0  0  0  0  0  0  0  0  0
  1  6  1  1  0  0  0
  1  2  1  0  0  0  0
  2  7  1  1  0  0  0
  3  2  1  0  0  0  0
  4  9  1  0  0  0  0
  4  3  1  0  0  0  0
  5 10  1  6  0  0  0
  5  4  1  0  0  0  0
  5  1  1  0  0  0  0
  8  4  1  0  0  0  0
 11  1  1  0  0  0  0
 12 11  1  0  0  0  0
 13  2  1  0  0  0  0
 13 18  1  0  0  0  0
 14 15  1  0  0  0  0
 14 20  1  0  0  0  0
 15 21  1  0  0  0  0
 16 22  1  0  0  0  0
 16 15  2  0  0  0  0
 17 16  1  0  0  0  0
 18 17  2  0  0  0  0
 18 19  1  0  0  0  0
 19 14  2  0  0  0  0
 23  5  1  0  0  0  0
 24 25  1  0  0  0  0
 25 31  1  0  0  0  0
 25 26  1  0  0  0  0
 26 27  2  0  0  0  0
 27 28  1  0  0  0  0
 27 23  1  0  0  0  0
 28 29  2  0  0  0  0
 30 33  1  0  0  0  0
 30 28  1  0  0  0  0
 31 30  1  0  0  0  0
 32 31  2  0  0  0  0
M  END
>  <minimizedAffinity>
-3.90110993

>  <minimizedRMSD>
1.35039473

$$$$
