
 OpenBabel03272506443D

 33 35  0  0  1  0  0  0  0  0999 V2000
   32.3900   28.3550   47.5020 C   0  0  2  0  0  0  0  0  0  0  0  0
   33.6420   28.3940   48.3630 C   0  0  1  0  0  0  0  0  0  0  0  0
   34.1930   27.1470   48.3640 O   0  0  0  0  0  0  0  0  0  0  0  0
   33.5460   26.3670   47.4330 C   0  0  0  0  0  0  0  0  0  0  0  0
   32.8410   27.3340   46.4660 C   0  0  1  0  0  0  0  0  0  0  0  0
   31.5490   27.9630   48.0910 H   0  0  0  0  0  0  0  0  0  0  0  0
   33.3990   28.8030   49.3540 H   0  0  0  0  0  0  0  0  0  0  0  0
   34.2250   25.6760   46.9140 H   0  0  0  0  0  0  0  0  0  0  0  0
   32.7240   25.8360   47.9700 H   0  0  0  0  0  0  0  0  0  0  0  0
   33.6280   27.7670   45.8540 H   0  0  0  0  0  0  0  0  0  0  0  0
   32.1310   29.5990   46.9340 O   0  0  0  0  0  0  0  0  0  0  0  0
   32.8070   29.7520   46.2250 H   0  0  0  0  0  0  0  0  0  0  0  0
   34.8090   29.5330   47.5250 S   0  0  0  0  0  0  0  0  0  0  0  0
   37.3870   29.4760   50.5370 C   0  0  0  0  0  0  0  0  0  0  0  0
   37.9890   30.7380   50.5170 C   0  0  0  0  0  0  0  0  0  0  0  0
   37.5750   31.6490   49.5220 C   0  0  0  0  0  0  0  0  0  0  0  0
   36.6240   31.2500   48.6480 N   0  0  0  0  0  0  0  0  0  0  0  0
   36.0620   30.0240   48.6950 C   0  0  0  0  0  0  0  0  0  0  0  0
   36.4370   29.1400   49.6300 N   0  0  0  0  0  0  0  0  0  0  0  0
   37.6680   28.7430   51.2800 H   0  0  0  0  0  0  0  0  0  0  0  0
   38.7340   31.0010   51.2290 H   0  0  0  0  0  0  0  0  0  0  0  0
   38.0150   32.6380   49.4670 H   0  0  0  0  0  0  0  0  0  0  0  0
   31.7970   26.6960   45.8480 O   0  0  0  0  0  0  0  0  0  0  0  0
   30.3090   28.8650   42.1760 H   0  0  0  0  0  0  0  0  0  0  0  0
   30.7080   28.0020   42.5790 N   0  0  0  0  0  0  0  0  0  0  0  0
   30.9340   28.0420   43.8990 C   0  0  0  0  0  3  0  0  0  0  0  0
   31.4650   26.9340   44.5230 C   0  0  0  0  0  0  0  0  0  0  0  0
   31.7530   25.7990   43.7620 C   0  0  0  0  0  0  0  0  0  0  0  0
   32.2380   24.7030   44.1560 O   0  0  0  0  0  0  0  0  0  0  0  0
   31.5160   25.7770   42.4190 N   0  0  0  0  0  0  0  0  0  0  0  0
   30.9890   26.8960   41.8400 C   0  0  0  0  0  0  0  0  0  0  0  0
   30.7430   26.9510   40.6110 O   0  0  0  0  0  0  0  0  0  0  0  0
   31.6990   24.9860   41.7900 H   0  0  0  0  0  0  0  0  0  0  0  0
  1  6  1  1  0  0  0
  1  2  1  0  0  0  0
  2  3  1  0  0  0  0
  2  7  1  1  0  0  0
  4  9  1  0  0  0  0
  4  3  1  0  0  0  0
  5 10  1  6  0  0  0
  5  4  1  0  0  0  0
  5  1  1  0  0  0  0
  8  4  1  0  0  0  0
 11  1  1  0  0  0  0
 12 11  1  0  0  0  0
 13  2  1  0  0  0  0
 13 18  1  0  0  0  0
 14 20  1  0  0  0  0
 15 14  1  0  0  0  0
 15 21  1  0  0  0  0
 16 15  2  0  0  0  0
 17 18  2  0  0  0  0
 17 16  1  0  0  0  0
 18 19  1  0  0  0  0
 19 14  2  0  0  0  0
 22 16  1  0  0  0  0
 23  5  1  0  0  0  0
 24 25  1  0  0  0  0
 25 26  1  0  0  0  0
 26 27  2  0  0  0  0
 27 23  1  0  0  0  0
 28 29  2  0  0  0  0
 28 27  1  0  0  0  0
 30 28  1  0  0  0  0
 31 30  1  0  0  0  0
 31 25  1  0  0  0  0
 32 31  2  0  0  0  0
 33 30  1  0  0  0  0
M  END
>  <minimizedAffinity>
-3.73234844

>  <minimizedRMSD>
0.702694058

$$$$
