
 OpenBabel03272504423D

 46 48  0  0  0  0  0  0  0  0999 V2000
   34.5820   29.1170   48.7960 C   0  0  0  0  0  0  0  0  0  0  0  0
   35.4930   28.9230   49.4110 H   0  0  0  0  0  0  0  0  0  0  0  0
   34.1000   29.9860   49.3330 H   0  0  0  0  0  0  0  0  0  0  0  0
   37.3400   30.2150   48.6490 Cl  0  0  0  0  0  0  0  0  0  0  0  0
   36.2380   30.1310   47.2700 C   0  0  0  0  0  0  0  0  0  0  0  0
   36.6430   30.5870   46.0650 C   0  0  0  0  0  0  0  0  0  0  0  0
   35.7900   30.5250   44.9860 C   0  0  0  0  0  0  0  0  0  0  0  0
   34.5220   29.9890   45.1650 C   0  0  0  0  0  0  0  0  0  0  0  0
   34.1690   29.5330   46.4490 C   0  0  0  0  0  0  0  0  0  0  0  0
   34.9910   29.5890   47.5080 C   0  0  0  0  0  0  0  0  0  0  0  0
   36.1410   30.9010   44.0160 H   0  0  0  0  0  0  0  0  0  0  0  0
   33.9350   29.9860   44.2600 H   0  0  0  0  0  0  0  0  0  0  0  0
   33.2010   29.1820   46.3700 H   0  0  0  0  0  0  0  0  0  0  0  0
   39.6080   32.7660   46.3600 C   0  0  0  0  0  0  0  0  0  0  0  0
   40.5090   32.1060   45.4590 C   0  0  0  0  0  0  0  0  0  0  0  0
   40.0590   30.9470   44.7940 C   0  0  0  0  0  0  0  0  0  0  0  0
   38.7970   30.5040   45.0320 N   0  0  0  0  0  0  0  0  0  0  0  0
   37.9720   31.1500   45.8880 C   0  0  0  0  0  0  0  0  0  0  0  0
   38.3820   32.2570   46.5320 N   0  0  0  0  0  0  0  0  0  0  0  0
   39.9930   33.6440   46.8450 H   0  0  0  0  0  0  0  0  0  0  0  0
   41.5020   32.4990   45.3060 H   0  0  0  0  0  0  0  0  0  0  0  0
   40.9670   30.3310   43.9230 N   0  0  0  0  0  0  0  0  0  0  0  0
   41.9210   30.0020   44.1610 H   0  0  0  0  0  0  0  0  0  0  0  0
   40.4880   30.2780   42.9950 H   0  0  0  0  0  0  0  0  0  0  0  0
   33.7080   27.9520   48.9140 C   0  0  0  0  0  0  0  0  0  0  0  0
   34.0620   27.1840   49.6590 H   0  0  0  0  0  0  0  0  0  0  0  0
   33.6900   27.3990   47.9370 H   0  0  0  0  0  0  0  0  0  0  0  0
   32.4340   28.3020   49.2720 O   0  0  0  0  0  0  0  0  0  0  0  0
   31.9770   26.7620   47.1950 O   0  0  0  0  0  0  0  0  0  0  0  0
   31.3160   27.5230   48.3170 P   0  0  2  0  0  0  0  0  0  0  0  0
   30.3050   28.7660   47.6560 O   0  0  0  0  0  0  0  0  0  0  0  0
   30.9830   30.8070   43.8060 H   0  0  0  0  0  0  0  0  0  0  0  0
   30.4630   30.0620   44.3330 N   0  0  0  0  0  0  0  0  0  0  0  0
   30.6830   29.8520   45.6620 C   0  0  0  0  0  3  0  0  0  0  0  0
   29.9710   28.8500   46.3290 C   0  0  0  0  0  0  0  0  0  0  0  0
   29.0780   28.1210   45.5990 C   0  0  0  0  0  0  0  0  0  0  0  0
   28.4730   27.2390   46.2580 O   0  0  0  0  0  0  0  0  0  0  0  0
   28.8640   28.3290   44.2930 N   0  0  0  0  0  0  0  0  0  0  0  0
   29.5620   29.3060   43.6580 C   0  0  0  0  0  0  0  0  0  0  0  0
   29.3340   29.4730   42.4320 O   0  0  0  0  0  0  0  0  0  0  0  0
   28.1680   27.7430   43.7790 H   0  0  0  0  0  0  0  0  0  0  0  0
   30.3100   26.5180   49.1600 O   0  0  0  0  0  0  0  0  0  0  0  0
   29.4800   27.2350   49.9930 C   0  0  0  0  0  0  0  0  0  0  0  0
   29.1890   26.5500   51.1710 F   0  0  0  0  0  0  0  0  0  0  0  0
   30.0590   28.4210   50.3920 F   0  0  0  0  0  0  0  0  0  0  0  0
   28.2810   27.5010   49.3390 F   0  0  0  0  0  0  0  0  0  0  0  0
  1 25  1  0  0  0  0
  1  3  1  0  0  0  0
  1  2  1  0  0  0  0
  5 10  1  0  0  0  0
  5  4  1  0  0  0  0
  6  5  2  0  0  0  0
  7  8  2  0  0  0  0
  7  6  1  0  0  0  0
  8  9  1  0  0  0  0
  9 10  2  0  0  0  0
 10  1  1  0  0  0  0
 11  7  1  0  0  0  0
 12  8  1  0  0  0  0
 13  9  1  0  0  0  0
 14 19  1  0  0  0  0
 14 20  1  0  0  0  0
 15 14  2  0  0  0  0
 16 17  2  0  0  0  0
 16 15  1  0  0  0  0
 17 18  1  0  0  0  0
 18  6  1  0  0  0  0
 18 19  2  0  0  0  0
 21 15  1  0  0  0  0
 22 23  1  0  0  0  0
 22 16  1  0  0  0  0
 24 22  1  0  0  0  0
 25 28  1  0  0  0  0
 25 26  1  0  0  0  0
 27 25  1  0  0  0  0
 30 29  2  6  0  0  0
 30 42  1  0  0  0  0
 30 28  1  0  0  0  0
 31 30  1  0  0  0  0
 32 33  1  0  0  0  0
 33 34  1  0  0  0  0
 34 35  2  0  0  0  0
 35 31  1  0  0  0  0
 36 37  2  0  0  0  0
 36 35  1  0  0  0  0
 38 36  1  0  0  0  0
 39 38  1  0  0  0  0
 39 33  1  0  0  0  0
 40 39  2  0  0  0  0
 41 38  1  0  0  0  0
 42 43  1  0  0  0  0
 43 45  1  0  0  0  0
 43 44  1  0  0  0  0
 46 43  1  0  0  0  0
M  END
>  <minimizedAffinity>
-5.71556282

>  <minimizedRMSD>
0.740760446

$$$$
