
 OpenBabel03272505243D

 29 31  0  0  0  0  0  0  0  0999 V2000
   36.7460   29.5960   50.2570 C   0  0  0  0  0  0  0  0  0  0  0  0
   36.6130   29.5940   48.8410 C   0  0  0  0  0  0  0  0  0  0  0  0
   35.3500   29.5140   48.2930 C   0  0  0  0  0  0  0  0  0  0  0  0
   34.2940   29.4380   49.1430 N   0  0  0  0  0  0  0  0  0  0  0  0
   34.4090   29.4360   50.4870 C   0  0  0  0  0  0  0  0  0  0  0  0
   35.6420   29.5170   51.0420 N   0  0  0  0  0  0  0  0  0  0  0  0
   35.1270   29.5140   46.8970 N   0  0  0  0  0  0  0  0  0  0  0  0
   34.1120   28.8330   46.3310 C   0  0  0  0  0  0  0  0  0  0  0  0
   33.9070   28.8490   44.9540 C   0  0  0  0  0  0  0  0  0  0  0  0
   34.7950   29.6000   44.1690 C   0  0  0  0  0  0  0  0  0  0  0  0
   34.6520   29.6460   42.9290 O   0  0  0  0  0  0  0  0  0  0  0  0
   35.8150   30.2840   44.7520 N   0  0  0  0  0  0  0  0  0  0  0  0
   35.9300   30.2050   46.0950 C   0  0  0  0  0  0  0  0  0  0  0  0
   36.8840   30.8520   46.5970 O   0  0  0  0  0  0  0  0  0  0  0  0
   37.7290   29.6590   50.7300 H   0  0  0  0  0  0  0  0  0  0  0  0
   37.5390   29.6460   48.3350 H   0  0  0  0  0  0  0  0  0  0  0  0
   33.5270   29.3740   51.1110 H   0  0  0  0  0  0  0  0  0  0  0  0
   33.4500   28.2640   46.9700 H   0  0  0  0  0  0  0  0  0  0  0  0
   33.0990   28.3080   44.4900 H   0  0  0  0  0  0  0  0  0  0  0  0
   37.2110   34.0690   42.6470 H   0  0  0  0  0  0  0  0  0  0  0  0
   37.3830   33.0700   42.9100 N   0  0  0  0  0  0  0  0  0  0  0  0
   36.4790   32.3710   43.6490 C   0  0  0  0  0  3  0  0  0  0  0  0
   36.7310   31.0540   43.9810 C   0  0  0  0  0  0  0  0  0  0  0  0
   37.8900   30.4230   43.5760 C   0  0  0  0  0  0  0  0  0  0  0  0
   38.1800   29.2190   43.8470 O   0  0  0  0  0  0  0  0  0  0  0  0
   38.7740   31.1450   42.8390 N   0  0  0  0  0  0  0  0  0  0  0  0
   38.5090   32.4320   42.5250 C   0  0  0  0  0  0  0  0  0  0  0  0
   39.4010   33.0250   41.8300 O   0  0  0  0  0  0  0  0  0  0  0  0
   39.6590   30.6640   42.5300 H   0  0  0  0  0  0  0  0  0  0  0  0
  1 15  1  0  0  0  0
  1  6  1  0  0  0  0
  2  1  2  0  0  0  0
  3  2  1  0  0  0  0
  3  4  2  0  0  0  0
  4  5  1  0  0  0  0
  5  6  2  0  0  0  0
  5 17  1  0  0  0  0
  7  3  1  0  0  0  0
  8  7  1  0  0  0  0
  8 18  1  0  0  0  0
  9  8  2  0  0  0  0
 10 12  1  0  0  0  0
 10  9  1  0  0  0  0
 11 10  2  0  0  0  0
 12 13  1  0  0  0  0
 13 14  2  0  0  0  0
 13  7  1  0  0  0  0
 16  2  1  0  0  0  0
 19  9  1  0  0  0  0
 20 21  1  0  0  0  0
 21 22  1  0  0  0  0
 22 23  2  0  0  0  0
 23 12  1  0  0  0  0
 24 25  2  0  0  0  0
 24 23  1  0  0  0  0
 26 24  1  0  0  0  0
 27 26  1  0  0  0  0
 27 21  1  0  0  0  0
 28 27  2  0  0  0  0
 29 26  1  0  0  0  0
M  END
>  <minimizedAffinity>
-4.6067462

>  <minimizedRMSD>
5.43064833

$$$$
