
 OpenBabel03272509193D

 34 36  0  0  0  0  0  0  0  0999 V2000
   38.0320   31.1560   47.7140 C   0  0  0  0  0  0  0  0  0  0  0  0
   37.0950   31.2650   48.7290 C   0  0  0  0  0  0  0  0  0  0  0  0
   37.2260   32.4110   49.5150 C   0  0  0  0  0  0  0  0  0  0  0  0
   38.2350   33.3570   49.2710 C   0  0  0  0  0  0  0  0  0  0  0  0
   39.1290   33.1480   48.2180 C   0  0  0  0  0  0  0  0  0  0  0  0
   39.0240   32.0260   47.4260 C   0  0  0  0  0  0  0  0  0  0  0  0
   36.5270   32.5500   50.3180 H   0  0  0  0  0  0  0  0  0  0  0  0
   38.3210   34.2370   49.8890 H   0  0  0  0  0  0  0  0  0  0  0  0
   39.9000   33.8790   48.0400 H   0  0  0  0  0  0  0  0  0  0  0  0
   34.8940   30.3120   48.2130 C   0  0  0  0  0  0  0  0  0  0  0  0
   36.0680   30.2970   48.9730 C   0  0  0  0  0  0  0  0  0  0  0  0
   36.1970   29.3200   49.9610 C   0  0  0  0  0  0  0  0  0  0  0  0
   35.1650   28.4390   50.1220 N   0  0  0  0  0  0  0  0  0  0  0  0
   34.0460   28.4890   49.3640 C   0  0  0  0  0  0  0  0  0  0  0  0
   33.9080   29.4250   48.4090 N   0  0  0  0  0  0  0  0  0  0  0  0
   34.8040   31.0760   47.4480 H   0  0  0  0  0  0  0  0  0  0  0  0
   33.2800   27.7540   49.5580 H   0  0  0  0  0  0  0  0  0  0  0  0
   37.4050   29.2500   50.7940 C   0  0  0  0  0  0  0  0  0  0  0  0
   37.3300   29.8540   51.7290 H   0  0  0  0  0  0  0  0  0  0  0  0
   37.7240   28.2250   51.0590 H   0  0  0  0  0  0  0  0  0  0  0  0
   38.2490   29.7090   50.2210 H   0  0  0  0  0  0  0  0  0  0  0  0
   37.9750   30.0170   46.8660 O   0  0  0  0  0  0  0  0  0  0  0  0
   37.0990   29.7280   46.4450 H   0  0  0  0  0  0  0  0  0  0  0  0
   39.9300   31.8710   46.4060 O   0  0  0  0  0  0  0  0  0  0  0  0
   38.1590   30.7170   42.4080 H   0  0  0  0  0  0  0  0  0  0  0  0
   38.6240   31.4730   42.9750 N   0  0  0  0  0  0  0  0  0  0  0  0
   38.9070   31.0850   44.2260 C   0  0  0  0  0  3  0  0  0  0  0  0
   39.5160   31.9570   45.0950 C   0  0  0  0  0  0  0  0  0  0  0  0
   39.8140   33.2290   44.6130 C   0  0  0  0  0  0  0  0  0  0  0  0
   40.3650   34.1890   45.2150 O   0  0  0  0  0  0  0  0  0  0  0  0
   39.5160   33.6000   43.3330 N   0  0  0  0  0  0  0  0  0  0  0  0
   38.9100   32.6950   42.5100 C   0  0  0  0  0  0  0  0  0  0  0  0
   38.5730   32.8720   41.3200 O   0  0  0  0  0  0  0  0  0  0  0  0
   39.6920   34.5040   42.8910 H   0  0  0  0  0  0  0  0  0  0  0  0
  1  2  1  0  0  0  0
  2 11  1  0  0  0  0
  2  3  2  0  0  0  0
  3  7  1  0  0  0  0
  4  3  1  0  0  0  0
  4  8  1  0  0  0  0
  5  4  2  0  0  0  0
  6  1  2  0  0  0  0
  6  5  1  0  0  0  0
  9  5  1  0  0  0  0
 10 15  2  0  0  0  0
 10 11  1  0  0  0  0
 11 12  2  0  0  0  0
 12 13  1  0  0  0  0
 12 18  1  0  0  0  0
 14 17  1  0  0  0  0
 14 13  2  0  0  0  0
 15 14  1  0  0  0  0
 16 10  1  0  0  0  0
 18 20  1  0  0  0  0
 18 19  1  0  0  0  0
 21 18  1  0  0  0  0
 22  1  1  0  0  0  0
 23 22  1  0  0  0  0
 24  6  1  0  0  0  0
 25 26  1  0  0  0  0
 26 27  1  0  0  0  0
 27 28  2  0  0  0  0
 28 24  1  0  0  0  0
 29 28  1  0  0  0  0
 29 30  2  0  0  0  0
 31 29  1  0  0  0  0
 32 26  1  0  0  0  0
 32 31  1  0  0  0  0
 33 32  2  0  0  0  0
 34 31  1  0  0  0  0
M  END
>  <minimizedAffinity>
-6.40378141

>  <minimizedRMSD>
0.98934114

$$$$
