
 OpenBabel03272508283D

 39 42  0  0  1  0  0  0  0  0999 V2000
   33.8560   28.9580   47.2740 C   0  0  2  0  0  0  0  0  0  0  0  0
   34.5970   28.1710   48.3480 C   0  0  2  0  0  0  0  0  0  0  0  0
   33.6980   28.0120   49.3690 O   0  0  0  0  0  0  0  0  0  0  0  0
   32.4160   28.1060   48.9080 C   0  0  0  0  0  0  0  0  0  0  0  0
   32.4720   28.3100   47.4050 C   0  0  1  0  0  0  0  0  0  0  0  0
   33.7210   30.0170   47.5230 H   0  0  0  0  0  0  0  0  0  0  0  0
   34.8730   27.2130   47.8680 H   0  0  0  0  0  0  0  0  0  0  0  0
   31.9320   28.9670   49.4230 H   0  0  0  0  0  0  0  0  0  0  0  0
   31.9040   27.1470   49.1600 H   0  0  0  0  0  0  0  0  0  0  0  0
   32.5350   27.3190   46.9430 H   0  0  0  0  0  0  0  0  0  0  0  0
   35.6910   30.4040   49.0660 C   0  0  1  0  0  0  0  0  0  0  0  0
   35.7700   28.9940   48.7690 C   0  0  1  0  0  0  0  0  0  0  0  0
   35.9770   29.3960   50.1930 C   0  0  0  0  0  0  0  0  0  0  0  0
   34.7940   31.0070   49.2900 H   0  0  0  0  0  0  0  0  0  0  0  0
   36.7210   28.6670   48.2530 H   0  0  0  0  0  0  0  0  0  0  0  0
   36.9830   29.3710   50.6410 H   0  0  0  0  0  0  0  0  0  0  0  0
   35.1400   29.1640   50.8780 H   0  0  0  0  0  0  0  0  0  0  0  0
   36.8820   31.3210   48.8160 C   0  0  0  0  0  0  0  0  0  0  0  0
   37.0780   32.3650   49.7230 C   0  0  0  0  0  0  0  0  0  0  0  0
   38.1620   33.1840   49.4370 C   0  0  0  0  0  0  0  0  0  0  0  0
   38.9550   32.9590   48.3440 N   0  0  0  0  0  0  0  0  0  0  0  0
   38.7190   31.9280   47.4930 C   0  0  0  0  0  0  0  0  0  0  0  0
   37.6700   31.0990   47.7310 N   0  0  0  0  0  0  0  0  0  0  0  0
   36.4250   32.4880   50.5560 H   0  0  0  0  0  0  0  0  0  0  0  0
   38.3610   34.0100   50.1080 H   0  0  0  0  0  0  0  0  0  0  0  0
   39.3730   31.8000   46.6530 H   0  0  0  0  0  0  0  0  0  0  0  0
   34.3680   28.7980   46.0080 O   0  0  0  0  0  0  0  0  0  0  0  0
   34.9690   28.0220   45.8890 H   0  0  0  0  0  0  0  0  0  0  0  0
   31.4820   29.1030   46.9150 O   0  0  0  0  0  0  0  0  0  0  0  0
   27.3990   27.2260   47.3430 H   0  0  0  0  0  0  0  0  0  0  0  0
   28.0920   27.6390   46.6540 N   0  0  0  0  0  0  0  0  0  0  0  0
   29.2060   28.0370   47.2930 C   0  0  0  0  0  3  0  0  0  0  0  0
   30.2380   28.6030   46.5770 C   0  0  0  0  0  0  0  0  0  0  0  0
   30.0680   28.7360   45.1920 C   0  0  0  0  0  0  0  0  0  0  0  0
   30.8690   29.2200   44.3490 O   0  0  0  0  0  0  0  0  0  0  0  0
   28.9180   28.3180   44.5890 N   0  0  0  0  0  0  0  0  0  0  0  0
   27.9340   27.7690   45.3260 C   0  0  0  0  0  0  0  0  0  0  0  0
   26.8320   27.3470   44.8900 O   0  0  0  0  0  0  0  0  0  0  0  0
   28.7130   28.3810   43.5730 H   0  0  0  0  0  0  0  0  0  0  0  0
  1  5  1  0  0  0  0
  1  6  1  1  0  0  0
  1  2  1  0  0  0  0
  2  7  1  6  0  0  0
  2 12  1  0  0  0  0
  2  3  1  0  0  0  0
  4  9  1  0  0  0  0
  4  3  1  0  0  0  0
  4  8  1  0  0  0  0
  5 10  1  6  0  0  0
  5  4  1  0  0  0  0
 11 14  1  6  0  0  0
 11 13  1  0  0  0  0
 12 15  1  6  0  0  0
 12 11  1  0  0  0  0
 12 13  1  0  0  0  0
 13 16  1  0  0  0  0
 13 17  1  0  0  0  0
 18 11  1  0  0  0  0
 18 19  1  0  0  0  0
 19 24  1  0  0  0  0
 20 19  2  0  0  0  0
 20 25  1  0  0  0  0
 21 20  1  0  0  0  0
 22 23  1  0  0  0  0
 22 21  2  0  0  0  0
 23 18  2  0  0  0  0
 26 22  1  0  0  0  0
 27  1  1  0  0  0  0
 28 27  1  0  0  0  0
 29  5  1  0  0  0  0
 31 32  1  0  0  0  0
 31 30  1  0  0  0  0
 33 29  1  0  0  0  0
 33 32  2  0  0  0  0
 34 33  1  0  0  0  0
 35 34  2  0  0  0  0
 36 34  1  0  0  0  0
 36 37  1  0  0  0  0
 37 31  1  0  0  0  0
 38 37  2  0  0  0  0
 39 36  1  0  0  0  0
M  END
>  <minimizedAffinity>
-5.25675488

>  <minimizedRMSD>
1.22955978

$$$$
