
 OpenBabel03272504423D

 46 48  0  0  0  0  0  0  0  0999 V2000
   34.6680   29.2880   48.8520 C   0  0  0  0  0  0  0  0  0  0  0  0
   35.5640   29.2640   49.5180 H   0  0  0  0  0  0  0  0  0  0  0  0
   34.0500   30.1220   49.2990 H   0  0  0  0  0  0  0  0  0  0  0  0
   37.4350   30.3600   48.6650 Cl  0  0  0  0  0  0  0  0  0  0  0  0
   36.3280   30.2400   47.2910 C   0  0  0  0  0  0  0  0  0  0  0  0
   36.7340   30.6540   46.0710 C   0  0  0  0  0  0  0  0  0  0  0  0
   35.8780   30.5640   44.9970 C   0  0  0  0  0  0  0  0  0  0  0  0
   34.6070   30.0440   45.1960 C   0  0  0  0  0  0  0  0  0  0  0  0
   34.2530   29.6320   46.4940 C   0  0  0  0  0  0  0  0  0  0  0  0
   35.0780   29.7150   47.5490 C   0  0  0  0  0  0  0  0  0  0  0  0
   36.2290   30.9060   44.0140 H   0  0  0  0  0  0  0  0  0  0  0  0
   34.0170   30.0170   44.2920 H   0  0  0  0  0  0  0  0  0  0  0  0
   33.2830   29.2870   46.4280 H   0  0  0  0  0  0  0  0  0  0  0  0
   39.7250   32.8030   46.3100 C   0  0  0  0  0  0  0  0  0  0  0  0
   40.6090   32.1250   45.4060 C   0  0  0  0  0  0  0  0  0  0  0  0
   40.1390   30.9630   44.7580 C   0  0  0  0  0  0  0  0  0  0  0  0
   38.8760   30.5370   45.0150 N   0  0  0  0  0  0  0  0  0  0  0  0
   38.0670   31.2010   45.8740 C   0  0  0  0  0  0  0  0  0  0  0  0
   38.4960   32.3100   46.5010 N   0  0  0  0  0  0  0  0  0  0  0  0
   40.1250   33.6830   46.7810 H   0  0  0  0  0  0  0  0  0  0  0  0
   41.6040   32.5060   45.2380 H   0  0  0  0  0  0  0  0  0  0  0  0
   41.0310   30.3290   43.8840 N   0  0  0  0  0  0  0  0  0  0  0  0
   41.9840   29.9920   44.1150 H   0  0  0  0  0  0  0  0  0  0  0  0
   40.5400   30.2710   42.9620 H   0  0  0  0  0  0  0  0  0  0  0  0
   33.9490   28.0290   49.0260 C   0  0  0  0  0  0  0  0  0  0  0  0
   34.3530   27.3780   49.8530 H   0  0  0  0  0  0  0  0  0  0  0  0
   34.0650   27.4020   48.1020 H   0  0  0  0  0  0  0  0  0  0  0  0
   32.6200   28.2300   49.2850 O   0  0  0  0  0  0  0  0  0  0  0  0
   32.4890   26.3490   47.4580 O   0  0  0  0  0  0  0  0  0  0  0  0
   31.6730   27.3480   48.2380 P   0  0  2  0  0  0  0  0  0  0  0  0
   30.9690   28.4980   47.1490 O   0  0  0  0  0  0  0  0  0  0  0  0
   26.9810   27.7810   45.4080 H   0  0  0  0  0  0  0  0  0  0  0  0
   28.0200   27.8030   45.2600 N   0  0  0  0  0  0  0  0  0  0  0  0
   28.8720   28.1310   46.2720 C   0  0  0  0  0  3  0  0  0  0  0  0
   30.2510   28.1490   46.0340 C   0  0  0  0  0  0  0  0  0  0  0  0
   30.6760   27.8290   44.7780 C   0  0  0  0  0  0  0  0  0  0  0  0
   31.9240   27.8640   44.6330 O   0  0  0  0  0  0  0  0  0  0  0  0
   29.8360   27.5060   43.7860 N   0  0  0  0  0  0  0  0  0  0  0  0
   28.5000   27.4930   44.0300 C   0  0  0  0  0  0  0  0  0  0  0  0
   27.7440   27.1850   43.0740 O   0  0  0  0  0  0  0  0  0  0  0  0
   30.2150   27.2690   42.8400 H   0  0  0  0  0  0  0  0  0  0  0  0
   30.4060   26.5840   48.9750 O   0  0  0  0  0  0  0  0  0  0  0  0
   29.7800   27.4190   49.8740 C   0  0  0  0  0  0  0  0  0  0  0  0
   29.3210   26.7390   51.0000 F   0  0  0  0  0  0  0  0  0  0  0  0
   30.6380   28.3870   50.3530 F   0  0  0  0  0  0  0  0  0  0  0  0
   28.6890   28.0280   49.2620 F   0  0  0  0  0  0  0  0  0  0  0  0
  1 25  1  0  0  0  0
  1  3  1  0  0  0  0
  1  2  1  0  0  0  0
  5 10  1  0  0  0  0
  5  4  1  0  0  0  0
  6  5  2  0  0  0  0
  7  8  2  0  0  0  0
  7  6  1  0  0  0  0
  8  9  1  0  0  0  0
  9 10  2  0  0  0  0
 10  1  1  0  0  0  0
 11  7  1  0  0  0  0
 12  8  1  0  0  0  0
 13  9  1  0  0  0  0
 14 19  1  0  0  0  0
 14 20  1  0  0  0  0
 15 14  2  0  0  0  0
 16 17  2  0  0  0  0
 16 15  1  0  0  0  0
 17 18  1  0  0  0  0
 18  6  1  0  0  0  0
 18 19  2  0  0  0  0
 21 15  1  0  0  0  0
 22 23  1  0  0  0  0
 22 16  1  0  0  0  0
 24 22  1  0  0  0  0
 25 28  1  0  0  0  0
 25 26  1  0  0  0  0
 27 25  1  0  0  0  0
 30 29  2  6  0  0  0
 30 42  1  0  0  0  0
 30 28  1  0  0  0  0
 31 30  1  0  0  0  0
 33 32  1  0  0  0  0
 33 34  1  0  0  0  0
 35 34  2  0  0  0  0
 35 31  1  0  0  0  0
 36 35  1  0  0  0  0
 37 36  2  0  0  0  0
 38 39  1  0  0  0  0
 38 36  1  0  0  0  0
 39 33  1  0  0  0  0
 40 39  2  0  0  0  0
 41 38  1  0  0  0  0
 42 43  1  0  0  0  0
 43 45  1  0  0  0  0
 43 44  1  0  0  0  0
 46 43  1  0  0  0  0
M  END
>  <minimizedAffinity>
-5.85017586

>  <minimizedRMSD>
0.49069351

$$$$
