
 OpenBabel03272509193D

 34 36  0  0  0  0  0  0  0  0999 V2000
   38.0580   31.1620   47.7240 C   0  0  0  0  0  0  0  0  0  0  0  0
   37.1000   31.2710   48.7200 C   0  0  0  0  0  0  0  0  0  0  0  0
   37.2070   32.4240   49.5000 C   0  0  0  0  0  0  0  0  0  0  0  0
   38.2130   33.3750   49.2680 C   0  0  0  0  0  0  0  0  0  0  0  0
   39.1300   33.1660   48.2340 C   0  0  0  0  0  0  0  0  0  0  0  0
   39.0480   32.0380   47.4490 C   0  0  0  0  0  0  0  0  0  0  0  0
   36.4910   32.5630   50.2880 H   0  0  0  0  0  0  0  0  0  0  0  0
   38.2810   34.2610   49.8810 H   0  0  0  0  0  0  0  0  0  0  0  0
   39.8980   33.9020   48.0650 H   0  0  0  0  0  0  0  0  0  0  0  0
   34.9130   30.3030   48.1740 C   0  0  0  0  0  0  0  0  0  0  0  0
   36.0760   30.2970   48.9510 C   0  0  0  0  0  0  0  0  0  0  0  0
   36.1970   29.3220   49.9430 C   0  0  0  0  0  0  0  0  0  0  0  0
   35.1690   28.4360   50.0910 N   0  0  0  0  0  0  0  0  0  0  0  0
   34.0610   28.4760   49.3170 C   0  0  0  0  0  0  0  0  0  0  0  0
   33.9300   29.4090   48.3580 N   0  0  0  0  0  0  0  0  0  0  0  0
   34.8290   31.0650   47.4070 H   0  0  0  0  0  0  0  0  0  0  0  0
   33.2970   27.7360   49.5020 H   0  0  0  0  0  0  0  0  0  0  0  0
   37.3940   29.2620   50.7930 C   0  0  0  0  0  0  0  0  0  0  0  0
   37.3020   29.8680   51.7260 H   0  0  0  0  0  0  0  0  0  0  0  0
   37.7160   28.2400   51.0650 H   0  0  0  0  0  0  0  0  0  0  0  0
   38.2430   29.7250   50.2310 H   0  0  0  0  0  0  0  0  0  0  0  0
   38.0260   30.0170   46.8830 O   0  0  0  0  0  0  0  0  0  0  0  0
   37.1610   29.7180   46.4480 H   0  0  0  0  0  0  0  0  0  0  0  0
   39.9750   31.8830   46.4470 O   0  0  0  0  0  0  0  0  0  0  0  0
   38.3480   30.4940   42.4630 H   0  0  0  0  0  0  0  0  0  0  0  0
   38.7530   31.2960   43.0120 N   0  0  0  0  0  0  0  0  0  0  0  0
   39.0400   30.9650   44.2790 C   0  0  0  0  0  3  0  0  0  0  0  0
   39.5770   31.9010   45.1290 C   0  0  0  0  0  0  0  0  0  0  0  0
   39.8000   33.1750   44.6110 C   0  0  0  0  0  0  0  0  0  0  0  0
   40.2770   34.1860   45.1910 O   0  0  0  0  0  0  0  0  0  0  0  0
   39.4990   33.4860   43.3160 N   0  0  0  0  0  0  0  0  0  0  0  0
   38.9670   32.5190   42.5140 C   0  0  0  0  0  0  0  0  0  0  0  0
   38.6370   32.6380   41.3140 O   0  0  0  0  0  0  0  0  0  0  0  0
   39.6240   34.3870   42.8480 H   0  0  0  0  0  0  0  0  0  0  0  0
  1  2  1  0  0  0  0
  2 11  1  0  0  0  0
  2  3  2  0  0  0  0
  3  7  1  0  0  0  0
  4  3  1  0  0  0  0
  4  8  1  0  0  0  0
  5  4  2  0  0  0  0
  6  1  2  0  0  0  0
  6  5  1  0  0  0  0
  9  5  1  0  0  0  0
 10 15  2  0  0  0  0
 10 11  1  0  0  0  0
 11 12  2  0  0  0  0
 12 13  1  0  0  0  0
 12 18  1  0  0  0  0
 14 17  1  0  0  0  0
 14 13  2  0  0  0  0
 15 14  1  0  0  0  0
 16 10  1  0  0  0  0
 18 20  1  0  0  0  0
 18 19  1  0  0  0  0
 21 18  1  0  0  0  0
 22  1  1  0  0  0  0
 23 22  1  0  0  0  0
 24  6  1  0  0  0  0
 25 26  1  0  0  0  0
 26 27  1  0  0  0  0
 27 28  2  0  0  0  0
 28 24  1  0  0  0  0
 29 28  1  0  0  0  0
 29 30  2  0  0  0  0
 31 29  1  0  0  0  0
 32 26  1  0  0  0  0
 32 31  1  0  0  0  0
 33 32  2  0  0  0  0
 34 31  1  0  0  0  0
M  END
>  <minimizedAffinity>
-6.46810722

>  <minimizedRMSD>
0.769818544

$$$$
