
 OpenBabel03272505093D

 30 32  0  0  0  0  0  0  0  0999 V2000
   36.3910   30.8550   45.7030 Cl  0  0  0  0  0  0  0  0  0  0  0  0
   36.6850   30.7550   47.4220 C   0  0  0  0  0  0  0  0  0  0  0  0
   37.9370   31.0940   47.8550 C   0  0  0  0  0  0  0  0  0  0  0  0
   38.1960   31.0210   49.2270 C   0  0  0  0  0  0  0  0  0  0  0  0
   37.2020   30.6180   50.0840 C   0  0  0  0  0  0  0  0  0  0  0  0
   35.9590   30.2910   49.5690 C   0  0  0  0  0  0  0  0  0  0  0  0
   35.6410   30.3420   48.2320 C   0  0  0  0  0  0  0  0  0  0  0  0
   39.1780   31.2840   49.5950 H   0  0  0  0  0  0  0  0  0  0  0  0
   37.3950   30.5590   51.1470 H   0  0  0  0  0  0  0  0  0  0  0  0
   35.1810   29.9730   50.2640 H   0  0  0  0  0  0  0  0  0  0  0  0
   40.1930   33.2920   45.9960 C   0  0  0  0  0  0  0  0  0  0  0  0
   40.9000   32.4230   45.1520 C   0  0  0  0  0  0  0  0  0  0  0  0
   40.5800   31.0730   45.2420 C   0  0  0  0  0  0  0  0  0  0  0  0
   39.6190   30.6620   46.1240 N   0  0  0  0  0  0  0  0  0  0  0  0
   38.9730   31.5210   46.9050 C   0  0  0  0  0  0  0  0  0  0  0  0
   39.2650   32.8330   46.8340 N   0  0  0  0  0  0  0  0  0  0  0  0
   40.3690   34.3560   45.9980 H   0  0  0  0  0  0  0  0  0  0  0  0
   41.6460   32.8360   44.4850 H   0  0  0  0  0  0  0  0  0  0  0  0
   41.1010   30.3870   44.6140 H   0  0  0  0  0  0  0  0  0  0  0  0
   34.0560   29.9330   47.5590 S   0  0  0  0  0  0  0  0  0  0  0  0
   33.8210   25.1120   48.2410 H   0  0  0  0  0  0  0  0  0  0  0  0
   33.8220   25.8820   47.5360 N   0  0  0  0  0  0  0  0  0  0  0  0
   33.9250   27.1180   48.0570 C   0  0  0  0  0  3  0  0  0  0  0  0
   33.9320   28.1850   47.1560 C   0  0  0  0  0  0  0  0  0  0  0  0
   33.8350   27.9310   45.7860 C   0  0  0  0  0  0  0  0  0  0  0  0
   33.8350   28.8280   44.9090 O   0  0  0  0  0  0  0  0  0  0  0  0
   33.7360   26.6690   45.3210 N   0  0  0  0  0  0  0  0  0  0  0  0
   33.7310   25.6670   46.2170 C   0  0  0  0  0  0  0  0  0  0  0  0
   33.6420   24.4740   45.8740 O   0  0  0  0  0  0  0  0  0  0  0  0
   33.6610   26.4460   44.2950 H   0  0  0  0  0  0  0  0  0  0  0  0
  1  2  1  0  0  0  0
  2  3  2  0  0  0  0
  2  7  1  0  0  0  0
  3  4  1  0  0  0  0
  4  8  1  0  0  0  0
  4  5  2  0  0  0  0
  5  9  1  0  0  0  0
  6  5  1  0  0  0  0
  6 10  1  0  0  0  0
  7  6  2  0  0  0  0
 11 17  1  0  0  0  0
 11 16  1  0  0  0  0
 12 13  1  0  0  0  0
 12 11  2  0  0  0  0
 13 14  2  0  0  0  0
 14 15  1  0  0  0  0
 15  3  1  0  0  0  0
 16 15  2  0  0  0  0
 18 12  1  0  0  0  0
 19 13  1  0  0  0  0
 20  7  1  0  0  0  0
 22 23  1  0  0  0  0
 22 21  1  0  0  0  0
 24 20  1  0  0  0  0
 24 23  2  0  0  0  0
 25 24  1  0  0  0  0
 26 25  2  0  0  0  0
 27 25  1  0  0  0  0
 27 28  1  0  0  0  0
 28 22  1  0  0  0  0
 29 28  2  0  0  0  0
 30 27  1  0  0  0  0
M  END
>  <minimizedAffinity>
-5.50610304

>  <minimizedRMSD>
1.2535224

$$$$
