
 OpenBabel03272506443D

 33 35  0  0  1  0  0  0  0  0999 V2000
   32.4170   27.3920   48.7220 C   0  0  2  0  0  0  0  0  0  0  0  0
   33.8280   27.4510   48.1570 C   0  0  1  0  0  0  0  0  0  0  0  0
   33.8460   26.7420   46.9930 O   0  0  0  0  0  0  0  0  0  0  0  0
   32.5570   26.4080   46.6460 C   0  0  0  0  0  0  0  0  0  0  0  0
   31.6350   27.3690   47.4160 C   0  0  1  0  0  0  0  0  0  0  0  0
   32.2790   26.4500   49.2720 H   0  0  0  0  0  0  0  0  0  0  0  0
   34.5480   27.1250   48.9200 H   0  0  0  0  0  0  0  0  0  0  0  0
   32.3880   26.4420   45.5620 H   0  0  0  0  0  0  0  0  0  0  0  0
   32.3560   25.3980   47.0790 H   0  0  0  0  0  0  0  0  0  0  0  0
   31.7330   28.3330   46.9220 H   0  0  0  0  0  0  0  0  0  0  0  0
   32.1340   28.5210   49.4850 O   0  0  0  0  0  0  0  0  0  0  0  0
   32.0230   29.2830   48.8620 H   0  0  0  0  0  0  0  0  0  0  0  0
   34.1490   29.2110   47.7570 S   0  0  0  0  0  0  0  0  0  0  0  0
   36.5630   29.5890   50.8800 C   0  0  0  0  0  0  0  0  0  0  0  0
   37.3090   30.7420   50.6190 C   0  0  0  0  0  0  0  0  0  0  0  0
   37.0520   31.4340   49.4160 C   0  0  0  0  0  0  0  0  0  0  0  0
   36.1010   30.9440   48.5900 N   0  0  0  0  0  0  0  0  0  0  0  0
   35.3970   29.8280   48.8720 C   0  0  0  0  0  0  0  0  0  0  0  0
   35.6210   29.1510   50.0070 N   0  0  0  0  0  0  0  0  0  0  0  0
   36.7210   29.0230   51.7880 H   0  0  0  0  0  0  0  0  0  0  0  0
   38.0480   31.0840   51.3040 H   0  0  0  0  0  0  0  0  0  0  0  0
   37.6070   32.3320   49.1710 H   0  0  0  0  0  0  0  0  0  0  0  0
   30.3870   26.8160   47.5440 O   0  0  0  0  0  0  0  0  0  0  0  0
   28.0640   28.0660   43.8770 H   0  0  0  0  0  0  0  0  0  0  0  0
   28.0550   27.8610   44.8900 N   0  0  0  0  0  0  0  0  0  0  0  0
   29.2380   27.4990   45.4080 C   0  0  0  0  0  0  0  0  0  0  0  0
   29.3190   27.2080   46.7520 C   0  0  0  0  0  0  0  0  0  0  0  0
   28.1680   27.2980   47.5370 C   0  0  0  0  0  0  0  0  0  0  0  0
   28.0530   27.0700   48.7740 O   0  0  0  0  0  0  0  0  0  0  0  0
   26.9730   27.6660   46.9920 N   0  0  0  0  0  0  0  0  0  0  0  0
   26.9360   27.9460   45.6570 C   0  0  0  0  0  0  0  0  0  0  0  0
   25.8750   28.2920   45.0830 O   0  0  0  0  0  0  0  0  0  0  0  0
   26.0840   27.7560   47.4970 H   0  0  0  0  0  0  0  0  0  0  0  0
  1  6  1  1  0  0  0
  1 11  1  0  0  0  0
  2  1  1  0  0  0  0
  2  7  1  1  0  0  0
  3  2  1  0  0  0  0
  4  3  1  0  0  0  0
  4  9  1  0  0  0  0
  4  5  1  0  0  0  0
  5 10  1  6  0  0  0
  5 23  1  0  0  0  0
  5  1  1  0  0  0  0
  8  4  1  0  0  0  0
 12 11  1  0  0  0  0
 13  2  1  0  0  0  0
 13 18  1  0  0  0  0
 14 20  1  0  0  0  0
 15 14  1  0  0  0  0
 15 21  1  0  0  0  0
 16 15  2  0  0  0  0
 17 18  2  0  0  0  0
 17 16  1  0  0  0  0
 18 19  1  0  0  0  0
 19 14  2  0  0  0  0
 22 16  1  0  0  0  0
 24 25  1  0  0  0  0
 25 26  1  0  0  0  0
 25 31  1  0  0  0  0
 26 27  2  0  0  0  0
 27 28  1  0  0  0  0
 27 23  1  0  0  0  0
 28 29  2  0  0  0  0
 30 33  1  0  0  0  0
 30 28  1  0  0  0  0
 31 30  1  0  0  0  0
 32 31  2  0  0  0  0
M  END
>  <minimizedAffinity>
-4.76865768

>  <minimizedRMSD>
3.25923657

$$$$
