
 OpenBabel03272509193D

 34 36  0  0  0  0  0  0  0  0999 V2000
   38.0570   31.1620   47.7230 C   0  0  0  0  0  0  0  0  0  0  0  0
   37.1000   31.2710   48.7190 C   0  0  0  0  0  0  0  0  0  0  0  0
   37.2070   32.4230   49.5000 C   0  0  0  0  0  0  0  0  0  0  0  0
   38.2130   33.3750   49.2690 C   0  0  0  0  0  0  0  0  0  0  0  0
   39.1290   33.1660   48.2340 C   0  0  0  0  0  0  0  0  0  0  0  0
   39.0480   32.0380   47.4480 C   0  0  0  0  0  0  0  0  0  0  0  0
   36.4920   32.5620   50.2890 H   0  0  0  0  0  0  0  0  0  0  0  0
   38.2810   34.2600   49.8830 H   0  0  0  0  0  0  0  0  0  0  0  0
   39.8970   33.9030   48.0660 H   0  0  0  0  0  0  0  0  0  0  0  0
   34.9130   30.3020   48.1730 C   0  0  0  0  0  0  0  0  0  0  0  0
   36.0760   30.2960   48.9500 C   0  0  0  0  0  0  0  0  0  0  0  0
   36.1970   29.3220   49.9420 C   0  0  0  0  0  0  0  0  0  0  0  0
   35.1690   28.4350   50.0890 N   0  0  0  0  0  0  0  0  0  0  0  0
   34.0610   28.4760   49.3150 C   0  0  0  0  0  0  0  0  0  0  0  0
   33.9300   29.4090   48.3560 N   0  0  0  0  0  0  0  0  0  0  0  0
   34.8300   31.0640   47.4050 H   0  0  0  0  0  0  0  0  0  0  0  0
   33.2970   27.7360   49.4990 H   0  0  0  0  0  0  0  0  0  0  0  0
   37.3930   29.2620   50.7930 C   0  0  0  0  0  0  0  0  0  0  0  0
   37.3000   29.8680   51.7260 H   0  0  0  0  0  0  0  0  0  0  0  0
   37.7160   28.2400   51.0650 H   0  0  0  0  0  0  0  0  0  0  0  0
   38.2430   29.7250   50.2310 H   0  0  0  0  0  0  0  0  0  0  0  0
   38.0250   30.0180   46.8810 O   0  0  0  0  0  0  0  0  0  0  0  0
   37.1600   29.7190   46.4460 H   0  0  0  0  0  0  0  0  0  0  0  0
   39.9750   31.8840   46.4460 O   0  0  0  0  0  0  0  0  0  0  0  0
   38.3450   30.4930   42.4640 H   0  0  0  0  0  0  0  0  0  0  0  0
   38.7510   31.2960   43.0120 N   0  0  0  0  0  0  0  0  0  0  0  0
   39.0390   30.9650   44.2790 C   0  0  0  0  0  3  0  0  0  0  0  0
   39.5770   31.9020   45.1280 C   0  0  0  0  0  0  0  0  0  0  0  0
   39.7990   33.1760   44.6090 C   0  0  0  0  0  0  0  0  0  0  0  0
   40.2770   34.1860   45.1880 O   0  0  0  0  0  0  0  0  0  0  0  0
   39.4990   33.4850   43.3140 N   0  0  0  0  0  0  0  0  0  0  0  0
   38.9660   32.5180   42.5130 C   0  0  0  0  0  0  0  0  0  0  0  0
   38.6360   32.6360   41.3130 O   0  0  0  0  0  0  0  0  0  0  0  0
   39.6240   34.3850   42.8450 H   0  0  0  0  0  0  0  0  0  0  0  0
  1  2  1  0  0  0  0
  2 11  1  0  0  0  0
  2  3  2  0  0  0  0
  3  7  1  0  0  0  0
  4  3  1  0  0  0  0
  4  8  1  0  0  0  0
  5  4  2  0  0  0  0
  6  1  2  0  0  0  0
  6  5  1  0  0  0  0
  9  5  1  0  0  0  0
 10 15  2  0  0  0  0
 10 11  1  0  0  0  0
 11 12  2  0  0  0  0
 12 13  1  0  0  0  0
 12 18  1  0  0  0  0
 14 17  1  0  0  0  0
 14 13  2  0  0  0  0
 15 14  1  0  0  0  0
 16 10  1  0  0  0  0
 18 20  1  0  0  0  0
 18 19  1  0  0  0  0
 21 18  1  0  0  0  0
 22  1  1  0  0  0  0
 23 22  1  0  0  0  0
 24  6  1  0  0  0  0
 25 26  1  0  0  0  0
 26 27  1  0  0  0  0
 27 28  2  0  0  0  0
 28 24  1  0  0  0  0
 29 28  1  0  0  0  0
 29 30  2  0  0  0  0
 31 29  1  0  0  0  0
 32 26  1  0  0  0  0
 32 31  1  0  0  0  0
 33 32  2  0  0  0  0
 34 31  1  0  0  0  0
M  END
>  <minimizedAffinity>
-6.47203588

>  <minimizedRMSD>
0.565129042

$$$$
