
 OpenBabel03272509193D

 34 36  0  0  0  0  0  0  0  0999 V2000
   38.0320   31.1550   47.7140 C   0  0  0  0  0  0  0  0  0  0  0  0
   37.0950   31.2650   48.7290 C   0  0  0  0  0  0  0  0  0  0  0  0
   37.2260   32.4110   49.5150 C   0  0  0  0  0  0  0  0  0  0  0  0
   38.2350   33.3560   49.2700 C   0  0  0  0  0  0  0  0  0  0  0  0
   39.1290   33.1470   48.2170 C   0  0  0  0  0  0  0  0  0  0  0  0
   39.0240   32.0250   47.4250 C   0  0  0  0  0  0  0  0  0  0  0  0
   36.5270   32.5500   50.3180 H   0  0  0  0  0  0  0  0  0  0  0  0
   38.3220   34.2370   49.8890 H   0  0  0  0  0  0  0  0  0  0  0  0
   39.9000   33.8790   48.0380 H   0  0  0  0  0  0  0  0  0  0  0  0
   34.8930   30.3120   48.2140 C   0  0  0  0  0  0  0  0  0  0  0  0
   36.0670   30.2970   48.9730 C   0  0  0  0  0  0  0  0  0  0  0  0
   36.1970   29.3200   49.9610 C   0  0  0  0  0  0  0  0  0  0  0  0
   35.1650   28.4400   50.1230 N   0  0  0  0  0  0  0  0  0  0  0  0
   34.0450   28.4890   49.3650 C   0  0  0  0  0  0  0  0  0  0  0  0
   33.9070   29.4250   48.4100 N   0  0  0  0  0  0  0  0  0  0  0  0
   34.8040   31.0760   47.4490 H   0  0  0  0  0  0  0  0  0  0  0  0
   33.2790   27.7540   49.5600 H   0  0  0  0  0  0  0  0  0  0  0  0
   37.4050   29.2500   50.7940 C   0  0  0  0  0  0  0  0  0  0  0  0
   37.3300   29.8540   51.7290 H   0  0  0  0  0  0  0  0  0  0  0  0
   37.7240   28.2250   51.0590 H   0  0  0  0  0  0  0  0  0  0  0  0
   38.2490   29.7080   50.2200 H   0  0  0  0  0  0  0  0  0  0  0  0
   37.9740   30.0170   46.8660 O   0  0  0  0  0  0  0  0  0  0  0  0
   37.0980   29.7280   46.4450 H   0  0  0  0  0  0  0  0  0  0  0  0
   39.9290   31.8700   46.4050 O   0  0  0  0  0  0  0  0  0  0  0  0
   38.1580   30.7170   42.4060 H   0  0  0  0  0  0  0  0  0  0  0  0
   38.6240   31.4730   42.9730 N   0  0  0  0  0  0  0  0  0  0  0  0
   38.9060   31.0850   44.2250 C   0  0  0  0  0  3  0  0  0  0  0  0
   39.5150   31.9560   45.0950 C   0  0  0  0  0  0  0  0  0  0  0  0
   39.8140   33.2300   44.6120 C   0  0  0  0  0  0  0  0  0  0  0  0
   40.3650   34.1880   45.2150 O   0  0  0  0  0  0  0  0  0  0  0  0
   39.5160   33.6000   43.3310 N   0  0  0  0  0  0  0  0  0  0  0  0
   38.9100   32.6960   42.5100 C   0  0  0  0  0  0  0  0  0  0  0  0
   38.5720   32.8730   41.3200 O   0  0  0  0  0  0  0  0  0  0  0  0
   39.6940   34.5030   42.8900 H   0  0  0  0  0  0  0  0  0  0  0  0
  1  2  1  0  0  0  0
  2 11  1  0  0  0  0
  2  3  2  0  0  0  0
  3  7  1  0  0  0  0
  4  3  1  0  0  0  0
  4  8  1  0  0  0  0
  5  4  2  0  0  0  0
  6  1  2  0  0  0  0
  6  5  1  0  0  0  0
  9  5  1  0  0  0  0
 10 15  2  0  0  0  0
 10 11  1  0  0  0  0
 11 12  2  0  0  0  0
 12 13  1  0  0  0  0
 12 18  1  0  0  0  0
 14 17  1  0  0  0  0
 14 13  2  0  0  0  0
 15 14  1  0  0  0  0
 16 10  1  0  0  0  0
 18 20  1  0  0  0  0
 18 19  1  0  0  0  0
 21 18  1  0  0  0  0
 22  1  1  0  0  0  0
 23 22  1  0  0  0  0
 24  6  1  0  0  0  0
 25 26  1  0  0  0  0
 26 27  1  0  0  0  0
 27 28  2  0  0  0  0
 28 24  1  0  0  0  0
 29 28  1  0  0  0  0
 29 30  2  0  0  0  0
 31 29  1  0  0  0  0
 32 26  1  0  0  0  0
 32 31  1  0  0  0  0
 33 32  2  0  0  0  0
 34 31  1  0  0  0  0
M  END
>  <minimizedAffinity>
-6.40375948

>  <minimizedRMSD>
0.443703413

$$$$
