
 OpenBabel03272503503D

 38 40  0  0  1  0  0  0  0  0999 V2000
   33.2080   27.3030   45.8500 C   0  0  1  0  0  0  0  0  0  0  0  0
   33.9100   27.4480   47.2180 C   0  0  2  0  0  0  0  0  0  0  0  0
   33.7340   26.2330   47.8010 O   0  0  0  0  0  0  0  0  0  0  0  0
   34.0690   25.3310   46.8010 C   0  0  0  0  0  0  0  0  0  0  0  0
   33.6020   25.8950   45.4750 C   0  0  2  0  0  0  0  0  0  0  0  0
   33.6330   28.0290   45.1240 H   0  0  0  0  0  0  0  0  0  0  0  0
   34.9800   27.7040   46.9690 H   0  0  0  0  0  0  0  0  0  0  0  0
   33.5060   24.3870   46.9950 H   0  0  0  0  0  0  0  0  0  0  0  0
   35.1610   25.1380   46.8030 H   0  0  0  0  0  0  0  0  0  0  0  0
   32.7090   25.3420   45.1110 H   0  0  0  0  0  0  0  0  0  0  0  0
   31.8520   27.5150   45.9780 O   0  0  0  0  0  0  0  0  0  0  0  0
   31.3570   26.6930   46.2000 H   0  0  0  0  0  0  0  0  0  0  0  0
   33.2790   28.5090   47.8160 O   0  0  0  0  0  0  0  0  0  0  0  0
   35.3460   29.7980   46.7940 O   0  0  0  0  0  0  0  0  0  0  0  0
   34.0750   29.9780   47.6250 P   0  0  1  0  0  0  0  0  0  0  0  0
   33.1160   31.0470   46.7260 O   0  0  0  0  0  0  0  0  0  0  0  0
   32.2010   31.1280   47.1160 H   0  0  0  0  0  0  0  0  0  0  0  0
   34.3700   30.5970   49.1860 O   0  0  0  0  0  0  0  0  0  0  0  0
   35.6080   30.4810   49.7980 C   0  0  0  0  0  0  0  0  0  0  0  0
   35.9630   29.4690   50.7170 C   0  0  0  0  0  0  0  0  0  0  0  0
   37.2510   29.4930   51.2430 C   0  0  0  0  0  0  0  0  0  0  0  0
   38.1000   30.4800   50.8520 N   0  0  0  0  0  0  0  0  0  0  0  0
   37.7400   31.4410   49.9700 C   0  0  0  0  0  0  0  0  0  0  0  0
   36.4790   31.4400   49.4380 N   0  0  0  0  0  0  0  0  0  0  0  0
   35.1970   28.7400   50.9470 H   0  0  0  0  0  0  0  0  0  0  0  0
   37.5130   28.7140   51.9460 H   0  0  0  0  0  0  0  0  0  0  0  0
   38.4640   32.1980   49.7010 H   0  0  0  0  0  0  0  0  0  0  0  0
   34.6300   25.9050   44.5740 O   0  0  0  0  0  0  0  0  0  0  0  0
   34.1960   24.0800   40.6050 H   0  0  0  0  0  0  0  0  0  0  0  0
   34.6890   24.0990   41.5180 N   0  0  0  0  0  0  0  0  0  0  0  0
   34.3930   24.9750   42.5230 C   0  0  0  0  0  0  0  0  0  0  0  0
   35.0940   24.9550   43.7370 C   0  0  0  0  0  0  0  0  0  0  0  0
   36.0680   24.0160   43.8320 C   0  0  0  0  0  0  0  0  0  0  0  0
   36.6920   23.9920   44.9020 O   0  0  0  0  0  0  0  0  0  0  0  0
   36.3380   23.1660   42.8240 N   0  0  0  0  0  0  0  0  0  0  0  0
   35.6740   23.1860   41.6740 C   0  0  0  0  0  0  0  0  0  0  0  0
   35.9480   22.3790   40.7500 O   0  0  0  0  0  0  0  0  0  0  0  0
   37.0990   22.4570   42.9400 H   0  0  0  0  0  0  0  0  0  0  0  0
  1  6  1  6  0  0  0
  1 11  1  0  0  0  0
  1  2  1  0  0  0  0
  2  7  1  6  0  0  0
  2  3  1  0  0  0  0
  2 13  1  0  0  0  0
  4  9  1  0  0  0  0
  4  8  1  0  0  0  0
  4  3  1  0  0  0  0
  5 10  1  6  0  0  0
  5  1  1  0  0  0  0
  5  4  1  0  0  0  0
 11 12  1  0  0  0  0
 15 14  2  6  0  0  0
 15 13  1  0  0  0  0
 15 18  1  0  0  0  0
 16 17  1  0  0  0  0
 16 15  1  0  0  0  0
 18 19  1  0  0  0  0
 19 20  1  0  0  0  0
 20 25  1  0  0  0  0
 20 21  2  0  0  0  0
 21 26  1  0  0  0  0
 22 21  1  0  0  0  0
 23 22  2  0  0  0  0
 24 19  2  0  0  0  0
 24 23  1  0  0  0  0
 27 23  1  0  0  0  0
 28  5  1  0  0  0  0
 29 30  1  0  0  0  0
 30 36  1  0  0  0  0
 30 31  1  0  0  0  0
 31 32  2  0  0  0  0
 32 33  1  0  0  0  0
 32 28  1  0  0  0  0
 33 34  2  0  0  0  0
 35 38  1  0  0  0  0
 35 33  1  0  0  0  0
 36 35  1  0  0  0  0
 37 36  2  0  0  0  0
M  END
>  <minimizedAffinity>
-4.11577225

>  <minimizedRMSD>
1.22603989

$$$$
