
 OpenBabel03272506443D

 33 35  0  0  1  0  0  0  0  0999 V2000
   32.3860   28.3300   47.5340 C   0  0  2  0  0  0  0  0  0  0  0  0
   33.6380   28.3920   48.3950 C   0  0  1  0  0  0  0  0  0  0  0  0
   34.1950   27.1480   48.4190 O   0  0  0  0  0  0  0  0  0  0  0  0
   33.5530   26.3470   47.5020 C   0  0  0  0  0  0  0  0  0  0  0  0
   32.8440   27.2920   46.5180 C   0  0  1  0  0  0  0  0  0  0  0  0
   31.5470   27.9440   48.1290 H   0  0  0  0  0  0  0  0  0  0  0  0
   33.3920   28.8180   49.3780 H   0  0  0  0  0  0  0  0  0  0  0  0
   34.2360   25.6510   46.9970 H   0  0  0  0  0  0  0  0  0  0  0  0
   32.7330   25.8220   48.0490 H   0  0  0  0  0  0  0  0  0  0  0  0
   33.6290   27.7190   45.8980 H   0  0  0  0  0  0  0  0  0  0  0  0
   32.1210   29.5620   46.9430 O   0  0  0  0  0  0  0  0  0  0  0  0
   32.7960   29.7050   46.2320 H   0  0  0  0  0  0  0  0  0  0  0  0
   34.7980   29.5210   47.5370 S   0  0  0  0  0  0  0  0  0  0  0  0
   37.4050   29.4880   50.5250 C   0  0  0  0  0  0  0  0  0  0  0  0
   38.0040   30.7510   50.4920 C   0  0  0  0  0  0  0  0  0  0  0  0
   37.5800   31.6550   49.4950 C   0  0  0  0  0  0  0  0  0  0  0  0
   36.6210   31.2490   48.6330 N   0  0  0  0  0  0  0  0  0  0  0  0
   36.0620   30.0220   48.6920 C   0  0  0  0  0  0  0  0  0  0  0  0
   36.4460   29.1440   49.6290 N   0  0  0  0  0  0  0  0  0  0  0  0
   37.6930   28.7600   51.2700 H   0  0  0  0  0  0  0  0  0  0  0  0
   38.7560   31.0200   51.1950 H   0  0  0  0  0  0  0  0  0  0  0  0
   38.0170   32.6440   49.4300 H   0  0  0  0  0  0  0  0  0  0  0  0
   31.8040   26.6370   45.9110 O   0  0  0  0  0  0  0  0  0  0  0  0
   32.3640   25.3650   41.6120 H   0  0  0  0  0  0  0  0  0  0  0  0
   31.8970   25.9970   42.2830 N   0  0  0  0  0  0  0  0  0  0  0  0
   32.2280   25.8090   43.5680 C   0  0  0  0  0  3  0  0  0  0  0  0
   31.6520   26.6070   44.5320 C   0  0  0  0  0  0  0  0  0  0  0  0
   30.7400   27.5910   44.1440 C   0  0  0  0  0  0  0  0  0  0  0  0
   30.1200   28.4080   44.8800 O   0  0  0  0  0  0  0  0  0  0  0  0
   30.4160   27.7680   42.8310 N   0  0  0  0  0  0  0  0  0  0  0  0
   31.0080   26.9560   41.9070 C   0  0  0  0  0  0  0  0  0  0  0  0
   30.7600   27.0570   40.6820 O   0  0  0  0  0  0  0  0  0  0  0  0
   29.7580   28.4650   42.4640 H   0  0  0  0  0  0  0  0  0  0  0  0
  1  6  1  1  0  0  0
  1  2  1  0  0  0  0
  2  3  1  0  0  0  0
  2  7  1  1  0  0  0
  4  9  1  0  0  0  0
  4  3  1  0  0  0  0
  5 10  1  6  0  0  0
  5  4  1  0  0  0  0
  5  1  1  0  0  0  0
  8  4  1  0  0  0  0
 11  1  1  0  0  0  0
 12 11  1  0  0  0  0
 13  2  1  0  0  0  0
 13 18  1  0  0  0  0
 14 20  1  0  0  0  0
 15 14  1  0  0  0  0
 15 21  1  0  0  0  0
 16 15  2  0  0  0  0
 17 18  2  0  0  0  0
 17 16  1  0  0  0  0
 18 19  1  0  0  0  0
 19 14  2  0  0  0  0
 22 16  1  0  0  0  0
 23  5  1  0  0  0  0
 24 25  1  0  0  0  0
 25 26  1  0  0  0  0
 26 27  2  0  0  0  0
 27 23  1  0  0  0  0
 28 27  1  0  0  0  0
 28 29  2  0  0  0  0
 30 28  1  0  0  0  0
 31 25  1  0  0  0  0
 31 30  1  0  0  0  0
 32 31  2  0  0  0  0
 33 30  1  0  0  0  0
M  END
>  <minimizedAffinity>
-3.77264333

>  <minimizedRMSD>
0.398895591

$$$$
