
 OpenBabel03272504423D

 46 48  0  0  0  0  0  0  0  0999 V2000
   34.4790   29.2680   48.8390 C   0  0  0  0  0  0  0  0  0  0  0  0
   35.3560   29.2640   49.5290 H   0  0  0  0  0  0  0  0  0  0  0  0
   33.8420   30.1050   49.2520 H   0  0  0  0  0  0  0  0  0  0  0  0
   37.2420   30.3550   48.7040 Cl  0  0  0  0  0  0  0  0  0  0  0  0
   36.1740   30.2010   47.3040 C   0  0  0  0  0  0  0  0  0  0  0  0
   36.6090   30.5940   46.0880 C   0  0  0  0  0  0  0  0  0  0  0  0
   35.7820   30.4780   44.9930 C   0  0  0  0  0  0  0  0  0  0  0  0
   34.5090   29.9520   45.1680 C   0  0  0  0  0  0  0  0  0  0  0  0
   34.1230   29.5630   46.4650 C   0  0  0  0  0  0  0  0  0  0  0  0
   34.9200   29.6730   47.5390 C   0  0  0  0  0  0  0  0  0  0  0  0
   36.1570   30.8030   44.0140 H   0  0  0  0  0  0  0  0  0  0  0  0
   33.9440   29.9040   44.2500 H   0  0  0  0  0  0  0  0  0  0  0  0
   33.1580   29.2100   46.3800 H   0  0  0  0  0  0  0  0  0  0  0  0
   39.5950   32.7410   46.4010 C   0  0  0  0  0  0  0  0  0  0  0  0
   40.4880   32.0830   45.4910 C   0  0  0  0  0  0  0  0  0  0  0  0
   40.0260   30.9350   44.8150 C   0  0  0  0  0  0  0  0  0  0  0  0
   38.7600   30.5020   45.0500 N   0  0  0  0  0  0  0  0  0  0  0  0
   37.9430   31.1470   45.9150 C   0  0  0  0  0  0  0  0  0  0  0  0
   38.3650   32.2420   46.5700 N   0  0  0  0  0  0  0  0  0  0  0  0
   39.9890   33.6110   46.8940 H   0  0  0  0  0  0  0  0  0  0  0  0
   41.4840   32.4680   45.3410 H   0  0  0  0  0  0  0  0  0  0  0  0
   40.9270   30.3210   43.9360 N   0  0  0  0  0  0  0  0  0  0  0  0
   41.8780   29.9790   44.1690 H   0  0  0  0  0  0  0  0  0  0  0  0
   40.4450   30.2810   43.0080 H   0  0  0  0  0  0  0  0  0  0  0  0
   33.7650   28.0060   49.0190 C   0  0  0  0  0  0  0  0  0  0  0  0
   34.1740   27.3590   49.8460 H   0  0  0  0  0  0  0  0  0  0  0  0
   33.8810   27.3770   48.0960 H   0  0  0  0  0  0  0  0  0  0  0  0
   32.4370   28.2020   49.2820 O   0  0  0  0  0  0  0  0  0  0  0  0
   32.3120   26.3650   47.4090 O   0  0  0  0  0  0  0  0  0  0  0  0
   31.4900   27.3290   48.2270 P   0  0  2  0  0  0  0  0  0  0  0  0
   30.7460   28.4910   47.1790 O   0  0  0  0  0  0  0  0  0  0  0  0
   28.9490   25.9420   44.0600 H   0  0  0  0  0  0  0  0  0  0  0  0
   28.8300   26.7520   44.7180 N   0  0  0  0  0  0  0  0  0  0  0  0
   29.8380   27.1420   45.5490 C   0  0  0  0  0  3  0  0  0  0  0  0
   29.6420   28.2260   46.4110 C   0  0  0  0  0  0  0  0  0  0  0  0
   28.4270   28.8470   46.3740 C   0  0  0  0  0  0  0  0  0  0  0  0
   28.3170   29.8110   47.1710 O   0  0  0  0  0  0  0  0  0  0  0  0
   27.4380   28.4620   45.5560 N   0  0  0  0  0  0  0  0  0  0  0  0
   27.6420   27.4080   44.7240 C   0  0  0  0  0  0  0  0  0  0  0  0
   26.6920   27.0760   43.9720 O   0  0  0  0  0  0  0  0  0  0  0  0
   26.5260   28.9710   45.5670 H   0  0  0  0  0  0  0  0  0  0  0  0
   30.2490   26.5210   48.9640 O   0  0  0  0  0  0  0  0  0  0  0  0
   29.6340   27.3150   49.9060 C   0  0  0  0  0  0  0  0  0  0  0  0
   29.3740   26.6300   51.0910 F   0  0  0  0  0  0  0  0  0  0  0  0
   30.4250   28.3860   50.2660 F   0  0  0  0  0  0  0  0  0  0  0  0
   28.4230   27.7820   49.4020 F   0  0  0  0  0  0  0  0  0  0  0  0
  1 25  1  0  0  0  0
  1  3  1  0  0  0  0
  1  2  1  0  0  0  0
  5 10  1  0  0  0  0
  5  4  1  0  0  0  0
  6  5  2  0  0  0  0
  7  8  2  0  0  0  0
  7  6  1  0  0  0  0
  8  9  1  0  0  0  0
  9 10  2  0  0  0  0
 10  1  1  0  0  0  0
 11  7  1  0  0  0  0
 12  8  1  0  0  0  0
 13  9  1  0  0  0  0
 14 19  1  0  0  0  0
 14 20  1  0  0  0  0
 15 14  2  0  0  0  0
 16 17  2  0  0  0  0
 16 15  1  0  0  0  0
 17 18  1  0  0  0  0
 18  6  1  0  0  0  0
 18 19  2  0  0  0  0
 21 15  1  0  0  0  0
 22 23  1  0  0  0  0
 22 16  1  0  0  0  0
 24 22  1  0  0  0  0
 25 28  1  0  0  0  0
 25 26  1  0  0  0  0
 27 25  1  0  0  0  0
 30 29  2  6  0  0  0
 30 42  1  0  0  0  0
 30 28  1  0  0  0  0
 31 30  1  0  0  0  0
 32 33  1  0  0  0  0
 33 39  1  0  0  0  0
 33 34  1  0  0  0  0
 34 35  2  0  0  0  0
 35 31  1  0  0  0  0
 36 35  1  0  0  0  0
 36 37  2  0  0  0  0
 38 41  1  0  0  0  0
 38 36  1  0  0  0  0
 39 38  1  0  0  0  0
 40 39  2  0  0  0  0
 42 43  1  0  0  0  0
 43 45  1  0  0  0  0
 43 44  1  0  0  0  0
 46 43  1  0  0  0  0
M  END
>  <minimizedAffinity>
-6.02878904

>  <minimizedRMSD>
0.549062252

$$$$
