
 OpenBabel03272506443D

 33 35  0  0  1  0  0  0  0  0999 V2000
   32.3550   28.3010   47.5830 C   0  0  2  0  0  0  0  0  0  0  0  0
   33.6390   28.3270   48.3970 C   0  0  1  0  0  0  0  0  0  0  0  0
   34.2020   27.0870   48.3370 O   0  0  0  0  0  0  0  0  0  0  0  0
   33.5290   26.3290   47.4070 C   0  0  0  0  0  0  0  0  0  0  0  0
   32.7770   27.3180   46.4990 C   0  0  1  0  0  0  0  0  0  0  0  0
   31.5410   27.8810   48.1900 H   0  0  0  0  0  0  0  0  0  0  0  0
   33.4300   28.7020   49.4090 H   0  0  0  0  0  0  0  0  0  0  0  0
   34.1940   25.6630   46.8410 H   0  0  0  0  0  0  0  0  0  0  0  0
   32.7320   25.7730   47.9580 H   0  0  0  0  0  0  0  0  0  0  0  0
   33.5360   27.7790   45.8720 H   0  0  0  0  0  0  0  0  0  0  0  0
   32.0630   29.5590   47.0650 O   0  0  0  0  0  0  0  0  0  0  0  0
   32.7090   29.7410   46.3370 H   0  0  0  0  0  0  0  0  0  0  0  0
   34.7620   29.5050   47.5520 S   0  0  0  0  0  0  0  0  0  0  0  0
   37.3810   29.4720   50.5290 C   0  0  0  0  0  0  0  0  0  0  0  0
   37.9780   30.7350   50.4950 C   0  0  0  0  0  0  0  0  0  0  0  0
   37.5470   31.6400   49.5010 C   0  0  0  0  0  0  0  0  0  0  0  0
   36.5860   31.2340   48.6420 N   0  0  0  0  0  0  0  0  0  0  0  0
   36.0290   30.0060   48.7020 C   0  0  0  0  0  0  0  0  0  0  0  0
   36.4190   29.1270   49.6360 N   0  0  0  0  0  0  0  0  0  0  0  0
   37.6740   28.7430   51.2710 H   0  0  0  0  0  0  0  0  0  0  0  0
   38.7320   31.0050   51.1950 H   0  0  0  0  0  0  0  0  0  0  0  0
   37.9830   32.6310   49.4350 H   0  0  0  0  0  0  0  0  0  0  0  0
   31.7170   26.6880   45.9000 O   0  0  0  0  0  0  0  0  0  0  0  0
   31.2590   29.0020   42.0480 H   0  0  0  0  0  0  0  0  0  0  0  0
   30.9990   28.1720   42.6040 N   0  0  0  0  0  0  0  0  0  0  0  0
   31.5700   28.0960   43.8140 C   0  0  0  0  0  3  0  0  0  0  0  0
   31.2810   27.0210   44.6270 C   0  0  0  0  0  0  0  0  0  0  0  0
   30.4000   26.0410   44.1670 C   0  0  0  0  0  0  0  0  0  0  0  0
   30.0210   24.9960   44.7650 O   0  0  0  0  0  0  0  0  0  0  0  0
   29.8270   26.1350   42.9330 N   0  0  0  0  0  0  0  0  0  0  0  0
   30.1400   27.2150   42.1600 C   0  0  0  0  0  0  0  0  0  0  0  0
   29.6540   27.3720   41.0140 O   0  0  0  0  0  0  0  0  0  0  0  0
   29.1720   25.4600   42.5210 H   0  0  0  0  0  0  0  0  0  0  0  0
  1  6  1  1  0  0  0
  1  2  1  0  0  0  0
  2  7  1  1  0  0  0
  3  2  1  0  0  0  0
  4  9  1  0  0  0  0
  4  3  1  0  0  0  0
  5 10  1  6  0  0  0
  5  4  1  0  0  0  0
  5  1  1  0  0  0  0
  8  4  1  0  0  0  0
 11  1  1  0  0  0  0
 12 11  1  0  0  0  0
 13  2  1  0  0  0  0
 13 18  1  0  0  0  0
 14 20  1  0  0  0  0
 15 14  1  0  0  0  0
 15 21  1  0  0  0  0
 16 15  2  0  0  0  0
 17 18  2  0  0  0  0
 17 16  1  0  0  0  0
 18 19  1  0  0  0  0
 19 14  2  0  0  0  0
 22 16  1  0  0  0  0
 23  5  1  0  0  0  0
 24 25  1  0  0  0  0
 25 26  1  0  0  0  0
 26 27  2  0  0  0  0
 27 23  1  0  0  0  0
 28 27  1  0  0  0  0
 28 29  2  0  0  0  0
 30 28  1  0  0  0  0
 31 25  1  0  0  0  0
 31 30  1  0  0  0  0
 32 31  2  0  0  0  0
 33 30  1  0  0  0  0
M  END
>  <minimizedAffinity>
-3.76648641

>  <minimizedRMSD>
0.801885128

$$$$
