
 OpenBabel03272505443D

 25 26  0  0  0  0  0  0  0  0999 V2000
   32.4160   28.0500   49.0060 O   0  0  0  0  0  0  0  0  0  0  0  0
   33.8170   28.2760   48.4570 P   0  0  2  0  0  0  0  0  0  0  0  0
   34.0780   27.0900   47.2830 O   0  0  0  0  0  0  0  0  0  0  0  0
   34.9700   26.6950   47.3730 H   0  0  0  0  0  0  0  0  0  0  0  0
   34.9070   28.1000   49.7590 O   0  0  0  0  0  0  0  0  0  0  0  0
   37.2840   30.3270   51.3980 C   0  0  0  0  0  0  0  0  0  0  0  0
   38.0310   30.7710   50.2700 C   0  0  0  0  0  0  0  0  0  0  0  0
   37.6510   30.2610   49.0260 C   0  0  0  0  0  0  0  0  0  0  0  0
   36.6170   29.3930   48.9560 N   0  0  0  0  0  0  0  0  0  0  0  0
   35.9270   28.9910   50.0460 C   0  0  0  0  0  0  0  0  0  0  0  0
   36.2640   29.4610   51.2710 N   0  0  0  0  0  0  0  0  0  0  0  0
   37.5150   30.6780   52.4160 H   0  0  0  0  0  0  0  0  0  0  0  0
   38.8310   31.4570   50.4210 H   0  0  0  0  0  0  0  0  0  0  0  0
   38.2010   30.5810   48.1490 H   0  0  0  0  0  0  0  0  0  0  0  0
   33.8640   29.7830   47.7570 O   0  0  0  0  0  0  0  0  0  0  0  0
   36.2660   30.2050   44.0910 H   0  0  0  0  0  0  0  0  0  0  0  0
   35.3180   30.2110   44.5220 N   0  0  0  0  0  0  0  0  0  0  0  0
   35.1120   30.0020   45.8510 C   0  0  0  0  0  3  0  0  0  0  0  0
   33.8290   30.0150   46.3980 C   0  0  0  0  0  0  0  0  0  0  0  0
   32.7420   30.2420   45.5850 C   0  0  0  0  0  0  0  0  0  0  0  0
   31.6290   30.2360   46.1620 O   0  0  0  0  0  0  0  0  0  0  0  0
   32.9560   30.4460   44.2720 N   0  0  0  0  0  0  0  0  0  0  0  0
   34.2040   30.4290   43.7650 C   0  0  0  0  0  0  0  0  0  0  0  0
   34.3490   30.6260   42.5270 O   0  0  0  0  0  0  0  0  0  0  0  0
   32.1180   30.6140   43.6800 H   0  0  0  0  0  0  0  0  0  0  0  0
  2  1  2  1  0  0  0
  2  5  1  0  0  0  0
  3  4  1  0  0  0  0
  3  2  1  0  0  0  0
  5 10  1  0  0  0  0
  6 12  1  0  0  0  0
  7 13  1  0  0  0  0
  7  6  2  0  0  0  0
  8  7  1  0  0  0  0
  9  8  2  0  0  0  0
  9 10  1  0  0  0  0
 10 11  2  0  0  0  0
 11  6  1  0  0  0  0
 14  8  1  0  0  0  0
 15  2  1  0  0  0  0
 16 17  1  0  0  0  0
 17 18  1  0  0  0  0
 18 19  2  0  0  0  0
 19 15  1  0  0  0  0
 20 21  2  0  0  0  0
 20 19  1  0  0  0  0
 22 20  1  0  0  0  0
 23 22  1  0  0  0  0
 23 17  1  0  0  0  0
 24 23  2  0  0  0  0
 25 22  1  0  0  0  0
M  END
>  <minimizedAffinity>
-4.43737555

>  <minimizedRMSD>
2.03785777

$$$$
