
 OpenBabel03272506443D

 33 35  0  0  1  0  0  0  0  0999 V2000
   32.1970   28.0750   47.6500 C   0  0  2  0  0  0  0  0  0  0  0  0
   33.5320   28.0520   48.3790 C   0  0  1  0  0  0  0  0  0  0  0  0
   34.0870   26.8200   48.2040 O   0  0  0  0  0  0  0  0  0  0  0  0
   33.3520   26.1200   47.2740 C   0  0  0  0  0  0  0  0  0  0  0  0
   32.5460   27.1630   46.4810 C   0  0  1  0  0  0  0  0  0  0  0  0
   31.4240   27.6160   48.2810 H   0  0  0  0  0  0  0  0  0  0  0  0
   33.3890   28.3620   49.4240 H   0  0  0  0  0  0  0  0  0  0  0  0
   33.9780   25.4930   46.6250 H   0  0  0  0  0  0  0  0  0  0  0  0
   32.5920   25.5290   47.8390 H   0  0  0  0  0  0  0  0  0  0  0  0
   33.2630   27.6650   45.8360 H   0  0  0  0  0  0  0  0  0  0  0  0
   31.8750   29.3630   47.2330 O   0  0  0  0  0  0  0  0  0  0  0  0
   32.4730   29.5920   46.4770 H   0  0  0  0  0  0  0  0  0  0  0  0
   34.5990   29.2830   47.5390 S   0  0  0  0  0  0  0  0  0  0  0  0
   37.2060   29.3630   50.5260 C   0  0  0  0  0  0  0  0  0  0  0  0
   37.7550   30.6480   50.4890 C   0  0  0  0  0  0  0  0  0  0  0  0
   37.2950   31.5310   49.4880 C   0  0  0  0  0  0  0  0  0  0  0  0
   36.3530   31.0840   48.6280 N   0  0  0  0  0  0  0  0  0  0  0  0
   35.8420   29.8370   48.6920 C   0  0  0  0  0  0  0  0  0  0  0  0
   36.2610   28.9780   49.6320 N   0  0  0  0  0  0  0  0  0  0  0  0
   37.5230   28.6490   51.2730 H   0  0  0  0  0  0  0  0  0  0  0  0
   38.4950   30.9490   51.1910 H   0  0  0  0  0  0  0  0  0  0  0  0
   37.6930   32.5370   49.4200 H   0  0  0  0  0  0  0  0  0  0  0  0
   31.4480   26.5700   45.9140 O   0  0  0  0  0  0  0  0  0  0  0  0
   29.4610   29.4100   43.0160 H   0  0  0  0  0  0  0  0  0  0  0  0
   29.3590   28.7640   43.8150 N   0  0  0  0  0  0  0  0  0  0  0  0
   30.4940   28.1820   44.2260 C   0  0  0  0  0  3  0  0  0  0  0  0
   30.4520   27.3040   45.2870 C   0  0  0  0  0  0  0  0  0  0  0  0
   29.2270   27.0460   45.9060 C   0  0  0  0  0  0  0  0  0  0  0  0
   28.9970   26.2780   46.8820 O   0  0  0  0  0  0  0  0  0  0  0  0
   28.0820   27.6480   45.4750 N   0  0  0  0  0  0  0  0  0  0  0  0
   28.1680   28.5100   44.4210 C   0  0  0  0  0  0  0  0  0  0  0  0
   27.1580   29.1020   43.9660 O   0  0  0  0  0  0  0  0  0  0  0  0
   27.1450   27.5120   45.8720 H   0  0  0  0  0  0  0  0  0  0  0  0
  1  6  1  1  0  0  0
  1  2  1  0  0  0  0
  2  7  1  1  0  0  0
  3  2  1  0  0  0  0
  4  9  1  0  0  0  0
  4  3  1  0  0  0  0
  5 10  1  6  0  0  0
  5  4  1  0  0  0  0
  5  1  1  0  0  0  0
  8  4  1  0  0  0  0
 11  1  1  0  0  0  0
 12 11  1  0  0  0  0
 13  2  1  0  0  0  0
 13 18  1  0  0  0  0
 14 20  1  0  0  0  0
 15 14  1  0  0  0  0
 15 21  1  0  0  0  0
 16 15  2  0  0  0  0
 17 18  2  0  0  0  0
 17 16  1  0  0  0  0
 18 19  1  0  0  0  0
 19 14  2  0  0  0  0
 22 16  1  0  0  0  0
 23  5  1  0  0  0  0
 24 25  1  0  0  0  0
 25 26  1  0  0  0  0
 25 31  1  0  0  0  0
 26 27  2  0  0  0  0
 27 28  1  0  0  0  0
 27 23  1  0  0  0  0
 28 29  2  0  0  0  0
 30 33  1  0  0  0  0
 30 28  1  0  0  0  0
 31 30  1  0  0  0  0
 32 31  2  0  0  0  0
M  END
>  <minimizedAffinity>
-4.23549461

>  <minimizedRMSD>
2.20100737

$$$$
