
 OpenBabel03272502313D

 28 29  0  0  1  0  0  0  0  0999 V2000
   36.3800   30.1780   48.4940 C   0  0  2  0  0  0  0  0  0  0  0  0
   36.8590   29.2680   48.9350 H   0  0  0  0  0  0  0  0  0  0  0  0
   37.3930   31.2270   48.4460 N   0  0  0  0  0  0  0  0  0  0  0  0
   37.7470   31.7400   47.2650 C   0  0  0  0  0  3  0  0  0  0  0  0
   38.6390   32.8230   47.3700 C   0  0  0  0  0  0  0  0  0  0  0  0
   38.9780   33.3130   46.4460 H   0  0  0  0  0  0  0  0  0  0  0  0
   39.0620   33.2570   48.6430 C   0  0  0  0  0  0  0  0  0  0  0  0
   39.8430   34.2170   48.7520 O   0  0  0  0  0  0  0  0  0  0  0  0
   38.6320   32.6470   49.7430 N   0  0  0  0  0  0  0  0  0  0  0  0
   37.7910   31.6210   49.6540 C   0  0  0  0  0  0  0  0  0  0  0  0
   37.4140   31.0790   50.7460 O   0  0  0  0  0  0  0  0  0  0  0  0
   38.9470   32.9680   50.7080 H   0  0  0  0  0  0  0  0  0  0  0  0
   34.6880   29.9080   46.8100 C   0  0  0  0  0  3  0  0  0  0  0  0
   35.9790   29.8760   47.0780 C   0  0  0  0  0  3  0  0  0  0  0  0
   32.6410   30.2630   43.7130 C   0  0  0  0  0  0  0  0  0  0  0  0
   33.1860   30.4760   44.9830 C   0  0  0  0  0  0  0  0  0  0  0  0
   34.1830   29.6600   45.4920 C   0  0  0  0  0  0  0  0  0  0  0  0
   34.6120   28.6380   44.6990 N   0  0  0  0  0  0  0  0  0  0  0  0
   34.0820   28.4410   43.4780 C   0  0  0  0  0  0  0  0  0  0  0  0
   33.1080   29.2420   42.9930 N   0  0  0  0  0  0  0  0  0  0  0  0
   31.8490   30.9290   43.3490 H   0  0  0  0  0  0  0  0  0  0  0  0
   32.7510   31.3170   45.4880 H   0  0  0  0  0  0  0  0  0  0  0  0
   34.4110   27.6380   42.8280 H   0  0  0  0  0  0  0  0  0  0  0  0
   34.8900   30.6890   49.4100 S   0  0  0  0  0  0  0  0  0  0  0  0
   34.3540   29.3850   50.5210 C   0  0  0  0  0  0  0  0  0  0  0  0
   35.2560   29.0880   51.5190 F   0  0  0  0  0  0  0  0  0  0  0  0
   33.0800   29.6560   51.0270 F   0  0  0  0  0  0  0  0  0  0  0  0
   34.1700   28.2280   49.7130 F   0  0  0  0  0  0  0  0  0  0  0  0
  1  2  1  1  0  0  0
  1 24  1  0  0  0  0
  3  1  1  0  0  0  0
  3 10  1  0  0  0  0
  4  5  2  0  0  0  0
  4  3  1  0  0  0  0
  5  7  1  0  0  0  0
  6  5  1  0  0  0  0
  7  8  2  0  0  0  0
  7  9  1  0  0  0  0
  9 12  1  0  0  0  0
 10  9  1  0  0  0  0
 10 11  2  0  0  0  0
 13 14  2  0  0  0  0
 14  1  1  0  0  0  0
 15 16  1  0  0  0  0
 16 22  1  0  0  0  0
 16 17  2  0  0  0  0
 17 13  1  0  0  0  0
 18 17  1  0  0  0  0
 19 18  2  0  0  0  0
 20 19  1  0  0  0  0
 20 15  2  0  0  0  0
 21 15  1  0  0  0  0
 23 19  1  0  0  0  0
 24 25  1  0  0  0  0
 25 27  1  0  0  0  0
 25 26  1  0  0  0  0
 28 25  1  0  0  0  0
M  END
>  <minimizedAffinity>
-4.9894309

>  <minimizedRMSD>
4.7645545

$$$$
