
 OpenBabel03272502313D

 28 29  0  0  1  0  0  0  0  0999 V2000
   36.9330   32.9750   50.4810 C   0  0  2  0  0  0  0  0  0  0  0  0
   37.5660   32.8760   51.4000 H   0  0  0  0  0  0  0  0  0  0  0  0
   36.1150   34.1720   50.6400 N   0  0  0  0  0  0  0  0  0  0  0  0
   35.3070   34.5470   49.6450 C   0  0  0  0  0  3  0  0  0  0  0  0
   34.4840   35.6410   49.9730 C   0  0  0  0  0  0  0  0  0  0  0  0
   33.7810   36.0130   49.2140 H   0  0  0  0  0  0  0  0  0  0  0  0
   34.5740   36.2190   51.2550 C   0  0  0  0  0  0  0  0  0  0  0  0
   33.8500   37.1810   51.5620 O   0  0  0  0  0  0  0  0  0  0  0  0
   35.4320   35.7460   52.1530 N   0  0  0  0  0  0  0  0  0  0  0  0
   36.2140   34.7130   51.8520 C   0  0  0  0  0  0  0  0  0  0  0  0
   37.0160   34.3060   52.7570 O   0  0  0  0  0  0  0  0  0  0  0  0
   35.5050   36.1770   53.1240 H   0  0  0  0  0  0  0  0  0  0  0  0
   38.2030   32.1240   48.6280 C   0  0  0  0  0  3  0  0  0  0  0  0
   37.8300   33.1980   49.2970 C   0  0  0  0  0  3  0  0  0  0  0  0
   40.3640   33.5750   45.9580 C   0  0  0  0  0  0  0  0  0  0  0  0
   39.5630   33.4340   47.0950 C   0  0  0  0  0  0  0  0  0  0  0  0
   39.0390   32.2080   47.4670 C   0  0  0  0  0  0  0  0  0  0  0  0
   39.3400   31.1390   46.6760 N   0  0  0  0  0  0  0  0  0  0  0  0
   40.1130   31.2850   45.5830 C   0  0  0  0  0  0  0  0  0  0  0  0
   40.6160   32.4870   45.2280 N   0  0  0  0  0  0  0  0  0  0  0  0
   40.7550   34.5670   45.6940 H   0  0  0  0  0  0  0  0  0  0  0  0
   39.4140   34.3600   47.6180 H   0  0  0  0  0  0  0  0  0  0  0  0
   40.3690   30.4490   44.9420 H   0  0  0  0  0  0  0  0  0  0  0  0
   35.9340   31.4840   50.1660 S   0  0  0  0  0  0  0  0  0  0  0  0
   36.6260   30.0680   51.0240 C   0  0  0  0  0  0  0  0  0  0  0  0
   37.6200   30.3840   51.9240 F   0  0  0  0  0  0  0  0  0  0  0  0
   35.6160   29.2970   51.6060 F   0  0  0  0  0  0  0  0  0  0  0  0
   37.1740   29.2240   50.0180 F   0  0  0  0  0  0  0  0  0  0  0  0
  1  3  1  0  0  0  0
  1  2  1  1  0  0  0
  3 10  1  0  0  0  0
  4  5  2  0  0  0  0
  4  3  1  0  0  0  0
  5  7  1  0  0  0  0
  6  5  1  0  0  0  0
  7  8  2  0  0  0  0
  7  9  1  0  0  0  0
  9 12  1  0  0  0  0
 10  9  1  0  0  0  0
 10 11  2  0  0  0  0
 13 14  2  0  0  0  0
 14  1  1  0  0  0  0
 15 16  1  0  0  0  0
 16 17  2  0  0  0  0
 16 22  1  0  0  0  0
 17 13  1  0  0  0  0
 18 17  1  0  0  0  0
 19 18  2  0  0  0  0
 20 19  1  0  0  0  0
 20 15  2  0  0  0  0
 21 15  1  0  0  0  0
 23 19  1  0  0  0  0
 24  1  1  0  0  0  0
 24 25  1  0  0  0  0
 25 27  1  0  0  0  0
 25 26  1  0  0  0  0
 28 25  1  0  0  0  0
M  END
>  <minimizedAffinity>
6.99080467

>  <minimizedRMSD>
0.999638379

$$$$
