
 OpenBabel03272502323D

 28 29  0  0  1  0  0  0  0  0999 V2000
   38.6550   23.6240   35.4790 C   0  0  2  0  0  0  0  0  0  0  0  0
   37.8340   23.6540   36.2390 H   0  0  0  0  0  0  0  0  0  0  0  0
   39.7020   22.7500   35.9990 N   0  0  0  0  0  0  0  0  0  0  0  0
   40.6590   22.3170   35.1760 C   0  0  0  0  0  3  0  0  0  0  0  0
   41.6710   21.5880   35.8270 C   0  0  0  0  0  0  0  0  0  0  0  0
   42.5050   21.1980   35.2270 H   0  0  0  0  0  0  0  0  0  0  0  0
   41.5960   21.3840   37.2200 C   0  0  0  0  0  0  0  0  0  0  0  0
   42.4840   20.7490   37.8110 O   0  0  0  0  0  0  0  0  0  0  0  0
   40.5760   21.8710   37.9210 N   0  0  0  0  0  0  0  0  0  0  0  0
   39.6140   22.5610   37.3130 C   0  0  0  0  0  0  0  0  0  0  0  0
   38.6640   23.0010   38.0420 O   0  0  0  0  0  0  0  0  0  0  0  0
   40.5130   21.7230   38.9740 H   0  0  0  0  0  0  0  0  0  0  0  0
   37.3450   21.9430   34.3700 C   0  0  0  0  0  3  0  0  0  0  0  0
   38.1280   22.9950   34.2210 C   0  0  0  0  0  3  0  0  0  0  0  0
   35.0860   19.7310   32.3930 C   0  0  0  0  0  0  0  0  0  0  0  0
   35.6780   20.4310   33.4490 C   0  0  0  0  0  0  0  0  0  0  0  0
   36.7610   21.2700   33.2490 C   0  0  0  0  0  0  0  0  0  0  0  0
   37.2280   21.3850   31.9720 N   0  0  0  0  0  0  0  0  0  0  0  0
   36.6510   20.7080   30.9620 C   0  0  0  0  0  0  0  0  0  0  0  0
   35.5960   19.8900   31.1710 N   0  0  0  0  0  0  0  0  0  0  0  0
   34.2320   19.0710   32.5960 H   0  0  0  0  0  0  0  0  0  0  0  0
   35.2030   20.2410   34.3930 H   0  0  0  0  0  0  0  0  0  0  0  0
   37.0020   20.7880   29.9390 H   0  0  0  0  0  0  0  0  0  0  0  0
   39.2760   25.2870   35.0660 S   0  0  0  0  0  0  0  0  0  0  0  0
   38.3470   26.5440   35.9480 C   0  0  0  0  0  0  0  0  0  0  0  0
   38.2200   26.3080   37.2990 F   0  0  0  0  0  0  0  0  0  0  0  0
   38.8580   27.8170   35.6820 F   0  0  0  0  0  0  0  0  0  0  0  0
   37.0490   26.5600   35.3640 F   0  0  0  0  0  0  0  0  0  0  0  0
  1  3  1  0  0  0  0
  1  2  1  1  0  0  0
  3 10  1  0  0  0  0
  4  5  2  0  0  0  0
  4  3  1  0  0  0  0
  5  7  1  0  0  0  0
  6  5  1  0  0  0  0
  7  8  2  0  0  0  0
  7  9  1  0  0  0  0
  9 12  1  0  0  0  0
 10  9  1  0  0  0  0
 10 11  2  0  0  0  0
 14 13  2  0  0  0  0
 14  1  1  0  0  0  0
 15 21  1  0  0  0  0
 15 16  1  0  0  0  0
 16 22  1  0  0  0  0
 17 16  2  0  0  0  0
 17 13  1  0  0  0  0
 18 17  1  0  0  0  0
 19 20  1  0  0  0  0
 19 18  2  0  0  0  0
 20 15  2  0  0  0  0
 23 19  1  0  0  0  0
 24  1  1  0  0  0  0
 24 25  1  0  0  0  0
 25 26  1  0  0  0  0
 27 25  1  0  0  0  0
 28 25  1  0  0  0  0
M  END
>  <minimizedAffinity>
-5.57730913

$$$$

 OpenBabel03272502323D

 28 29  0  0  1  0  0  0  0  0999 V2000
   39.0080   23.7250   35.4660 C   0  0  2  0  0  0  0  0  0  0  0  0
   39.6260   22.8890   35.8810 H   0  0  0  0  0  0  0  0  0  0  0  0
   39.9270   24.7330   34.9480 N   0  0  0  0  0  0  0  0  0  0  0  0
   39.4400   25.8940   34.5030 C   0  0  0  0  0  3  0  0  0  0  0  0
   40.4380   26.8220   34.1490 C   0  0  0  0  0  0  0  0  0  0  0  0
   40.1270   27.8080   33.7790 H   0  0  0  0  0  0  0  0  0  0  0  0
   41.7960   26.4690   34.2850 C   0  0  0  0  0  0  0  0  0  0  0  0
   42.6880   27.2790   33.9830 O   0  0  0  0  0  0  0  0  0  0  0  0
   42.1410   25.2690   34.7390 N   0  0  0  0  0  0  0  0  0  0  0  0
   41.2050   24.3850   35.0750 C   0  0  0  0  0  0  0  0  0  0  0  0
   41.6030   23.2510   35.5050 O   0  0  0  0  0  0  0  0  0  0  0  0
   43.1650   24.9950   34.8470 H   0  0  0  0  0  0  0  0  0  0  0  0
   37.6900   22.0020   34.4350 C   0  0  0  0  0  3  0  0  0  0  0  0
   38.2090   23.2070   34.3050 C   0  0  0  0  0  3  0  0  0  0  0  0
   35.0190   19.9790   32.7970 C   0  0  0  0  0  0  0  0  0  0  0  0
   35.8180   20.6020   33.7600 C   0  0  0  0  0  0  0  0  0  0  0  0
   36.8890   21.4070   33.4070 C   0  0  0  0  0  0  0  0  0  0  0  0
   37.1300   21.5670   32.0750 N   0  0  0  0  0  0  0  0  0  0  0  0
   36.3550   20.9630   31.1550 C   0  0  0  0  0  0  0  0  0  0  0  0
   35.3160   20.1780   31.5110 N   0  0  0  0  0  0  0  0  0  0  0  0
   34.1840   19.3440   33.1190 H   0  0  0  0  0  0  0  0  0  0  0  0
   35.5070   20.3850   34.7640 H   0  0  0  0  0  0  0  0  0  0  0  0
   36.5260   21.0800   30.0900 H   0  0  0  0  0  0  0  0  0  0  0  0
   37.8490   24.4050   36.6970 S   0  0  0  0  0  0  0  0  0  0  0  0
   38.2890   23.8570   38.3480 C   0  0  0  0  0  0  0  0  0  0  0  0
   39.5260   23.2560   38.4320 F   0  0  0  0  0  0  0  0  0  0  0  0
   38.1460   24.8960   39.2710 F   0  0  0  0  0  0  0  0  0  0  0  0
   37.2960   22.9120   38.7290 F   0  0  0  0  0  0  0  0  0  0  0  0
  1  2  1  1  0  0  0
  1 24  1  0  0  0  0
  3 10  1  0  0  0  0
  3  1  1  0  0  0  0
  4  3  1  0  0  0  0
  5  7  1  0  0  0  0
  5  4  2  0  0  0  0
  6  5  1  0  0  0  0
  7  9  1  0  0  0  0
  8  7  2  0  0  0  0
  9 12  1  0  0  0  0
  9 10  1  0  0  0  0
 10 11  2  0  0  0  0
 14 13  2  0  0  0  0
 14  1  1  0  0  0  0
 15 21  1  0  0  0  0
 15 16  1  0  0  0  0
 16 22  1  0  0  0  0
 17 16  2  0  0  0  0
 17 13  1  0  0  0  0
 18 17  1  0  0  0  0
 19 20  1  0  0  0  0
 19 18  2  0  0  0  0
 20 15  2  0  0  0  0
 23 19  1  0  0  0  0
 24 25  1  0  0  0  0
 25 26  1  0  0  0  0
 25 28  1  0  0  0  0
 25 27  1  0  0  0  0
M  END
>  <minimizedAffinity>
-5.27168608

$$$$

 OpenBabel03272502323D

 28 29  0  0  1  0  0  0  0  0999 V2000
   37.0430   23.9850   32.3580 C   0  0  2  0  0  0  0  0  0  0  0  0
   35.9900   23.7630   32.6670 H   0  0  0  0  0  0  0  0  0  0  0  0
   37.0570   25.3220   31.7750 N   0  0  0  0  0  0  0  0  0  0  0  0
   38.1800   26.0430   31.8170 C   0  0  0  0  0  3  0  0  0  0  0  0
   38.0940   27.2580   31.1130 C   0  0  0  0  0  0  0  0  0  0  0  0
   38.9760   27.9120   31.0890 H   0  0  0  0  0  0  0  0  0  0  0  0
   36.8940   27.5980   30.4550 C   0  0  0  0  0  0  0  0  0  0  0  0
   36.8050   28.6630   29.8230 O   0  0  0  0  0  0  0  0  0  0  0  0
   35.8440   26.7840   30.4990 N   0  0  0  0  0  0  0  0  0  0  0  0
   35.9160   25.6330   31.1640 C   0  0  0  0  0  0  0  0  0  0  0  0
   34.8740   24.8970   31.1670 O   0  0  0  0  0  0  0  0  0  0  0  0
   34.9350   27.0320   30.0030 H   0  0  0  0  0  0  0  0  0  0  0  0
   37.8600   22.9670   34.3760 C   0  0  0  0  0  3  0  0  0  0  0  0
   37.9090   24.0220   33.5850 C   0  0  0  0  0  3  0  0  0  0  0  0
   40.6970   22.1100   36.6390 C   0  0  0  0  0  0  0  0  0  0  0  0
   39.8910   22.2500   35.5050 C   0  0  0  0  0  0  0  0  0  0  0  0
   38.6550   22.8730   35.5630 C   0  0  0  0  0  0  0  0  0  0  0  0
   38.2570   23.3470   36.7780 N   0  0  0  0  0  0  0  0  0  0  0  0
   39.0400   23.2070   37.8640 C   0  0  0  0  0  0  0  0  0  0  0  0
   40.2420   22.5950   37.7950 N   0  0  0  0  0  0  0  0  0  0  0  0
   41.6670   21.6040   36.5510 H   0  0  0  0  0  0  0  0  0  0  0  0
   40.3360   21.8300   34.6220 H   0  0  0  0  0  0  0  0  0  0  0  0
   38.7460   23.5800   38.8390 H   0  0  0  0  0  0  0  0  0  0  0  0
   37.7130   22.7240   31.2270 S   0  0  0  0  0  0  0  0  0  0  0  0
   36.6120   21.3090   31.1370 C   0  0  0  0  0  0  0  0  0  0  0  0
   36.8890   20.4450   30.1000 F   0  0  0  0  0  0  0  0  0  0  0  0
   36.5480   20.6500   32.3670 F   0  0  0  0  0  0  0  0  0  0  0  0
   35.3040   21.8360   30.9530 F   0  0  0  0  0  0  0  0  0  0  0  0
  1  2  1  1  0  0  0
  1 14  1  0  0  0  0
  3  4  1  0  0  0  0
  3  1  1  0  0  0  0
  5  4  2  0  0  0  0
  6  5  1  0  0  0  0
  7  9  1  0  0  0  0
  7  5  1  0  0  0  0
  8  7  2  0  0  0  0
  9 10  1  0  0  0  0
 10 11  2  0  0  0  0
 10  3  1  0  0  0  0
 12  9  1  0  0  0  0
 13 17  1  0  0  0  0
 14 13  2  0  0  0  0
 15 20  1  0  0  0  0
 16 17  1  0  0  0  0
 16 15  2  0  0  0  0
 17 18  2  0  0  0  0
 18 19  1  0  0  0  0
 19 23  1  0  0  0  0
 20 19  2  0  0  0  0
 21 15  1  0  0  0  0
 22 16  1  0  0  0  0
 24  1  1  0  0  0  0
 25 24  1  0  0  0  0
 25 27  1  0  0  0  0
 26 25  1  0  0  0  0
 28 25  1  0  0  0  0
M  END
>  <minimizedAffinity>
-5.00605536

$$$$

 OpenBabel03272502323D

 28 29  0  0  1  0  0  0  0  0999 V2000
   37.1370   22.0330   32.4250 C   0  0  2  0  0  0  0  0  0  0  0  0
   36.2600   22.6780   32.6830 H   0  0  0  0  0  0  0  0  0  0  0  0
   37.9280   22.7470   31.4280 N   0  0  0  0  0  0  0  0  0  0  0  0
   39.0590   22.2010   30.9770 C   0  0  0  0  0  3  0  0  0  0  0  0
   39.6580   22.9300   29.9340 C   0  0  0  0  0  0  0  0  0  0  0  0
   40.5900   22.5490   29.4960 H   0  0  0  0  0  0  0  0  0  0  0  0
   39.0480   24.1150   29.4740 C   0  0  0  0  0  0  0  0  0  0  0  0
   39.5590   24.7670   28.5490 O   0  0  0  0  0  0  0  0  0  0  0  0
   37.9170   24.5500   30.0210 N   0  0  0  0  0  0  0  0  0  0  0  0
   37.3440   23.8670   31.0090 C   0  0  0  0  0  0  0  0  0  0  0  0
   36.2600   24.3380   31.4900 O   0  0  0  0  0  0  0  0  0  0  0  0
   37.4480   25.4430   29.6780 H   0  0  0  0  0  0  0  0  0  0  0  0
   37.9030   22.8140   34.5630 C   0  0  0  0  0  3  0  0  0  0  0  0
   37.9950   21.8700   33.6470 C   0  0  0  0  0  3  0  0  0  0  0  0
   38.8280   23.3320   38.1390 C   0  0  0  0  0  0  0  0  0  0  0  0
   38.1270   23.3350   36.9290 C   0  0  0  0  0  0  0  0  0  0  0  0
   38.6530   22.7610   35.7830 C   0  0  0  0  0  0  0  0  0  0  0  0
   39.8860   22.1890   35.8860 N   0  0  0  0  0  0  0  0  0  0  0  0
   40.5530   22.1910   37.0550 C   0  0  0  0  0  0  0  0  0  0  0  0
   40.0310   22.7570   38.1660 N   0  0  0  0  0  0  0  0  0  0  0  0
   38.3780   23.8030   39.0220 H   0  0  0  0  0  0  0  0  0  0  0  0
   37.1720   23.8180   37.0010 H   0  0  0  0  0  0  0  0  0  0  0  0
   41.5330   21.7390   37.1620 H   0  0  0  0  0  0  0  0  0  0  0  0
   36.6340   20.3760   31.8580 S   0  0  0  0  0  0  0  0  0  0  0  0
   35.3040   19.7360   32.8800 C   0  0  0  0  0  0  0  0  0  0  0  0
   35.3870   18.3840   33.1320 F   0  0  0  0  0  0  0  0  0  0  0  0
   35.1770   20.4830   34.0540 F   0  0  0  0  0  0  0  0  0  0  0  0
   34.0990   19.9940   32.1690 F   0  0  0  0  0  0  0  0  0  0  0  0
  1  2  1  1  0  0  0
  1 14  1  0  0  0  0
  3  1  1  0  0  0  0
  4  3  1  0  0  0  0
  5  4  2  0  0  0  0
  6  5  1  0  0  0  0
  7  5  1  0  0  0  0
  7  9  1  0  0  0  0
  8  7  2  0  0  0  0
  9 10  1  0  0  0  0
 10  3  1  0  0  0  0
 10 11  2  0  0  0  0
 12  9  1  0  0  0  0
 13 17  1  0  0  0  0
 14 13  2  0  0  0  0
 15 20  1  0  0  0  0
 15 21  1  0  0  0  0
 16 22  1  0  0  0  0
 16 15  2  0  0  0  0
 17 18  2  0  0  0  0
 17 16  1  0  0  0  0
 18 19  1  0  0  0  0
 19 23  1  0  0  0  0
 19 20  2  0  0  0  0
 24  1  1  0  0  0  0
 24 25  1  0  0  0  0
 25 26  1  0  0  0  0
 25 27  1  0  0  0  0
 28 25  1  0  0  0  0
M  END
>  <minimizedAffinity>
-4.98518133

$$$$

 OpenBabel03272502323D

 28 29  0  0  1  0  0  0  0  0999 V2000
   37.9250   25.9550   33.1340 C   0  0  2  0  0  0  0  0  0  0  0  0
   37.5330   25.0580   32.5900 H   0  0  0  0  0  0  0  0  0  0  0  0
   36.8950   26.9870   33.0740 N   0  0  0  0  0  0  0  0  0  0  0  0
   36.8070   27.8800   34.0630 C   0  0  0  0  0  3  0  0  0  0  0  0
   35.8580   28.8900   33.8230 C   0  0  0  0  0  0  0  0  0  0  0  0
   35.7230   29.6730   34.5820 H   0  0  0  0  0  0  0  0  0  0  0  0
   35.1170   28.8800   32.6230 C   0  0  0  0  0  0  0  0  0  0  0  0
   34.2810   29.7680   32.3930 O   0  0  0  0  0  0  0  0  0  0  0  0
   35.3040   27.9210   31.7220 N   0  0  0  0  0  0  0  0  0  0  0  0
   36.1990   26.9600   31.9400 C   0  0  0  0  0  0  0  0  0  0  0  0
   36.3310   26.0710   31.0350 O   0  0  0  0  0  0  0  0  0  0  0  0
   34.7500   27.9060   30.8120 H   0  0  0  0  0  0  0  0  0  0  0  0
   38.4850   24.3570   34.8380 C   0  0  0  0  0  3  0  0  0  0  0  0
   38.1190   25.5980   34.5800 C   0  0  0  0  0  3  0  0  0  0  0  0
   38.0680   23.8950   38.5150 C   0  0  0  0  0  0  0  0  0  0  0  0
   37.8660   24.2920   37.1890 C   0  0  0  0  0  0  0  0  0  0  0  0
   38.7240   23.9010   36.1750 C   0  0  0  0  0  0  0  0  0  0  0  0
   39.7770   23.1080   36.5250 N   0  0  0  0  0  0  0  0  0  0  0  0
   39.9630   22.7310   37.8030 C   0  0  0  0  0  0  0  0  0  0  0  0
   39.1210   23.1210   38.7850 N   0  0  0  0  0  0  0  0  0  0  0  0
   37.3680   24.2320   39.2900 H   0  0  0  0  0  0  0  0  0  0  0  0
   36.9980   24.9110   37.0670 H   0  0  0  0  0  0  0  0  0  0  0  0
   40.7900   22.0980   38.1040 H   0  0  0  0  0  0  0  0  0  0  0  0
   39.5230   26.5250   32.4680 S   0  0  0  0  0  0  0  0  0  0  0  0
   40.6410   26.9650   33.8010 C   0  0  0  0  0  0  0  0  0  0  0  0
   40.0210   27.5340   34.8920 F   0  0  0  0  0  0  0  0  0  0  0  0
   41.4400   25.8760   34.1600 F   0  0  0  0  0  0  0  0  0  0  0  0
   41.5570   27.9060   33.2550 F   0  0  0  0  0  0  0  0  0  0  0  0
  1  2  1  6  0  0  0
  1 14  1  0  0  0  0
  3  1  1  0  0  0  0
  3  4  1  0  0  0  0
  5  4  2  0  0  0  0
  5  6  1  0  0  0  0
  7  5  1  0  0  0  0
  8  7  2  0  0  0  0
  9 10  1  0  0  0  0
  9  7  1  0  0  0  0
 10  3  1  0  0  0  0
 11 10  2  0  0  0  0
 12  9  1  0  0  0  0
 13 17  1  0  0  0  0
 14 13  2  0  0  0  0
 15 20  1  0  0  0  0
 15 21  1  0  0  0  0
 16 15  2  0  0  0  0
 17 18  2  0  0  0  0
 17 16  1  0  0  0  0
 18 19  1  0  0  0  0
 19 23  1  0  0  0  0
 19 20  2  0  0  0  0
 22 16  1  0  0  0  0
 24  1  1  0  0  0  0
 24 25  1  0  0  0  0
 25 27  1  0  0  0  0
 25 26  1  0  0  0  0
 28 25  1  0  0  0  0
M  END
>  <minimizedAffinity>
-4.95932674

$$$$

 OpenBabel03272502323D

 28 29  0  0  1  0  0  0  0  0999 V2000
   38.8510   24.9700   35.8510 C   0  0  2  0  0  0  0  0  0  0  0  0
   39.0210   25.8170   36.5630 H   0  0  0  0  0  0  0  0  0  0  0  0
   38.1790   25.5140   34.6760 N   0  0  0  0  0  0  0  0  0  0  0  0
   37.8970   24.7050   33.6520 C   0  0  0  0  0  3  0  0  0  0  0  0
   37.1410   25.3250   32.6400 C   0  0  0  0  0  0  0  0  0  0  0  0
   36.8570   24.7300   31.7600 H   0  0  0  0  0  0  0  0  0  0  0  0
   36.7620   26.6750   32.7810 C   0  0  0  0  0  0  0  0  0  0  0  0
   36.0880   27.2350   31.9010 O   0  0  0  0  0  0  0  0  0  0  0  0
   37.1180   27.3680   33.8590 N   0  0  0  0  0  0  0  0  0  0  0  0
   37.8340   26.7910   34.8200 C   0  0  0  0  0  0  0  0  0  0  0  0
   38.1420   27.5110   35.8280 O   0  0  0  0  0  0  0  0  0  0  0  0
   36.8340   28.3880   33.9750 H   0  0  0  0  0  0  0  0  0  0  0  0
   40.4910   23.2150   35.7790 C   0  0  0  0  0  3  0  0  0  0  0  0
   40.1830   24.4420   35.4020 C   0  0  0  0  0  3  0  0  0  0  0  0
   44.1480   22.5340   35.5220 C   0  0  0  0  0  0  0  0  0  0  0  0
   42.9180   23.0900   35.8840 C   0  0  0  0  0  0  0  0  0  0  0  0
   41.7220   22.5910   35.3950 C   0  0  0  0  0  0  0  0  0  0  0  0
   41.7960   21.5290   34.5430 N   0  0  0  0  0  0  0  0  0  0  0  0
   42.9850   21.0000   34.2010 C   0  0  0  0  0  0  0  0  0  0  0  0
   44.1450   21.4970   34.6820 N   0  0  0  0  0  0  0  0  0  0  0  0
   45.0730   22.9630   35.9280 H   0  0  0  0  0  0  0  0  0  0  0  0
   43.0170   23.9180   36.5610 H   0  0  0  0  0  0  0  0  0  0  0  0
   43.0680   20.1530   33.5290 H   0  0  0  0  0  0  0  0  0  0  0  0
   37.9230   23.6000   36.6140 S   0  0  0  0  0  0  0  0  0  0  0  0
   38.0100   23.6980   38.4040 C   0  0  0  0  0  0  0  0  0  0  0  0
   37.7400   24.9490   38.9140 F   0  0  0  0  0  0  0  0  0  0  0  0
   37.2220   22.7070   38.9950 F   0  0  0  0  0  0  0  0  0  0  0  0
   39.3420   23.3400   38.7550 F   0  0  0  0  0  0  0  0  0  0  0  0
  1  2  1  1  0  0  0
  1 24  1  0  0  0  0
  3 10  1  0  0  0  0
  3  1  1  0  0  0  0
  4  3  1  0  0  0  0
  5  7  1  0  0  0  0
  5  4  2  0  0  0  0
  6  5  1  0  0  0  0
  7  9  1  0  0  0  0
  8  7  2  0  0  0  0
  9 12  1  0  0  0  0
  9 10  1  0  0  0  0
 10 11  2  0  0  0  0
 14 13  2  0  0  0  0
 14  1  1  0  0  0  0
 15 16  1  0  0  0  0
 15 21  1  0  0  0  0
 16 22  1  0  0  0  0
 17 13  1  0  0  0  0
 17 16  2  0  0  0  0
 18 17  1  0  0  0  0
 19 18  2  0  0  0  0
 19 20  1  0  0  0  0
 20 15  2  0  0  0  0
 23 19  1  0  0  0  0
 24 25  1  0  0  0  0
 25 28  1  0  0  0  0
 25 26  1  0  0  0  0
 25 27  1  0  0  0  0
M  END
>  <minimizedAffinity>
-4.83691072

$$$$

 OpenBabel03272502323D

 28 29  0  0  1  0  0  0  0  0999 V2000
   37.6830   26.4860   33.5410 C   0  0  2  0  0  0  0  0  0  0  0  0
   37.6850   26.2270   34.6300 H   0  0  0  0  0  0  0  0  0  0  0  0
   37.0980   25.3590   32.8230 N   0  0  0  0  0  0  0  0  0  0  0  0
   36.3280   25.5920   31.7570 C   0  0  0  0  0  3  0  0  0  0  0  0
   35.9300   24.4210   31.0860 C   0  0  0  0  0  0  0  0  0  0  0  0
   35.3000   24.5190   30.1910 H   0  0  0  0  0  0  0  0  0  0  0  0
   36.3540   23.1650   31.5660 C   0  0  0  0  0  0  0  0  0  0  0  0
   36.0180   22.1230   30.9810 O   0  0  0  0  0  0  0  0  0  0  0  0
   37.1200   23.0780   32.6490 N   0  0  0  0  0  0  0  0  0  0  0  0
   37.5000   24.1800   33.2910 C   0  0  0  0  0  0  0  0  0  0  0  0
   38.2350   24.0280   34.3230 O   0  0  0  0  0  0  0  0  0  0  0  0
   37.4460   22.1340   33.0170 H   0  0  0  0  0  0  0  0  0  0  0  0
   36.3320   28.2730   34.4100 C   0  0  0  0  0  3  0  0  0  0  0  0
   36.7840   27.6710   33.3270 C   0  0  0  0  0  3  0  0  0  0  0  0
   35.0170   31.7050   35.0430 C   0  0  0  0  0  0  0  0  0  0  0  0
   35.8210   30.5610   35.0590 C   0  0  0  0  0  0  0  0  0  0  0  0
   35.4860   29.4260   34.3380 C   0  0  0  0  0  0  0  0  0  0  0  0
   34.3360   29.4740   33.6070 N   0  0  0  0  0  0  0  0  0  0  0  0
   33.5690   30.5800   33.5980 C   0  0  0  0  0  0  0  0  0  0  0  0
   33.9040   31.6790   34.3080 N   0  0  0  0  0  0  0  0  0  0  0  0
   35.3150   32.5800   35.6340 H   0  0  0  0  0  0  0  0  0  0  0  0
   36.6920   30.6710   35.6760 H   0  0  0  0  0  0  0  0  0  0  0  0
   32.6530   30.6420   33.0210 H   0  0  0  0  0  0  0  0  0  0  0  0
   39.3450   26.9160   32.9290 S   0  0  0  0  0  0  0  0  0  0  0  0
   40.5630   26.7440   34.2360 C   0  0  0  0  0  0  0  0  0  0  0  0
   40.9970   25.4510   34.4360 F   0  0  0  0  0  0  0  0  0  0  0  0
   41.6250   27.6310   34.0460 F   0  0  0  0  0  0  0  0  0  0  0  0
   39.9330   27.2020   35.4270 F   0  0  0  0  0  0  0  0  0  0  0  0
  1  2  1  1  0  0  0
  3 10  1  0  0  0  0
  3  1  1  0  0  0  0
  4  3  1  0  0  0  0
  5  7  1  0  0  0  0
  5  4  2  0  0  0  0
  6  5  1  0  0  0  0
  7  9  1  0  0  0  0
  8  7  2  0  0  0  0
  9 12  1  0  0  0  0
  9 10  1  0  0  0  0
 10 11  2  0  0  0  0
 14  1  1  0  0  0  0
 14 13  2  0  0  0  0
 15 16  1  0  0  0  0
 15 21  1  0  0  0  0
 16 22  1  0  0  0  0
 17 13  1  0  0  0  0
 17 16  2  0  0  0  0
 18 17  1  0  0  0  0
 19 18  2  0  0  0  0
 19 20  1  0  0  0  0
 20 15  2  0  0  0  0
 23 19  1  0  0  0  0
 24  1  1  0  0  0  0
 24 25  1  0  0  0  0
 25 26  1  0  0  0  0
 25 28  1  0  0  0  0
 27 25  1  0  0  0  0
M  END
>  <minimizedAffinity>
-4.80301189

$$$$

 OpenBabel03272502323D

 28 29  0  0  1  0  0  0  0  0999 V2000
   39.2840   23.6570   35.6880 C   0  0  2  0  0  0  0  0  0  0  0  0
   39.4500   24.3150   36.5790 H   0  0  0  0  0  0  0  0  0  0  0  0
   38.0720   22.8830   35.9340 N   0  0  0  0  0  0  0  0  0  0  0  0
   37.6420   22.0290   35.0030 C   0  0  0  0  0  3  0  0  0  0  0  0
   36.5380   21.2590   35.4150 C   0  0  0  0  0  0  0  0  0  0  0  0
   36.1220   20.5230   34.7130 H   0  0  0  0  0  0  0  0  0  0  0  0
   36.0050   21.4420   36.7080 C   0  0  0  0  0  0  0  0  0  0  0  0
   35.0360   20.7660   37.0890 O   0  0  0  0  0  0  0  0  0  0  0  0
   36.5320   22.3380   37.5360 N   0  0  0  0  0  0  0  0  0  0  0  0
   37.5750   23.0710   37.1550 C   0  0  0  0  0  0  0  0  0  0  0  0
   38.0340   23.9130   37.9970 O   0  0  0  0  0  0  0  0  0  0  0  0
   36.1370   22.4810   38.5150 H   0  0  0  0  0  0  0  0  0  0  0  0
   38.3120   25.6120   34.6860 C   0  0  0  0  0  3  0  0  0  0  0  0
   39.0290   24.5220   34.4880 C   0  0  0  0  0  3  0  0  0  0  0  0
   38.6790   27.5450   31.5180 C   0  0  0  0  0  0  0  0  0  0  0  0
   38.9040   26.6470   32.5660 C   0  0  0  0  0  0  0  0  0  0  0  0
   38.0200   26.5300   33.6260 C   0  0  0  0  0  0  0  0  0  0  0  0
   36.9150   27.3280   33.6020 N   0  0  0  0  0  0  0  0  0  0  0  0
   36.7070   28.1890   32.5890 C   0  0  0  0  0  0  0  0  0  0  0  0
   37.5780   28.2970   31.5620 N   0  0  0  0  0  0  0  0  0  0  0  0
   39.4080   27.6110   30.7000 H   0  0  0  0  0  0  0  0  0  0  0  0
   39.8120   26.0860   32.4480 H   0  0  0  0  0  0  0  0  0  0  0  0
   35.8330   28.8300   32.5460 H   0  0  0  0  0  0  0  0  0  0  0  0
   40.7250   22.6000   35.3320 S   0  0  0  0  0  0  0  0  0  0  0  0
   41.6200   22.2230   36.8410 C   0  0  0  0  0  0  0  0  0  0  0  0
   42.8100   22.9050   36.9770 F   0  0  0  0  0  0  0  0  0  0  0  0
   40.7960   22.3770   37.9590 F   0  0  0  0  0  0  0  0  0  0  0  0
   41.8960   20.8280   36.8000 F   0  0  0  0  0  0  0  0  0  0  0  0
  1  3  1  0  0  0  0
  1  2  1  1  0  0  0
  3 10  1  0  0  0  0
  4  5  2  0  0  0  0
  4  3  1  0  0  0  0
  5  7  1  0  0  0  0
  6  5  1  0  0  0  0
  7  8  2  0  0  0  0
  7  9  1  0  0  0  0
  9 12  1  0  0  0  0
 10  9  1  0  0  0  0
 10 11  2  0  0  0  0
 14 13  2  0  0  0  0
 14  1  1  0  0  0  0
 15 20  2  0  0  0  0
 15 16  1  0  0  0  0
 16 17  2  0  0  0  0
 17 13  1  0  0  0  0
 18 17  1  0  0  0  0
 19 18  2  0  0  0  0
 20 19  1  0  0  0  0
 21 15  1  0  0  0  0
 22 16  1  0  0  0  0
 23 19  1  0  0  0  0
 24  1  1  0  0  0  0
 24 25  1  0  0  0  0
 25 26  1  0  0  0  0
 25 27  1  0  0  0  0
 28 25  1  0  0  0  0
M  END
>  <minimizedAffinity>
-4.79181671

$$$$

 OpenBabel03272502323D

 28 29  0  0  1  0  0  0  0  0999 V2000
   33.7520   30.0750   34.9650 C   0  0  2  0  0  0  0  0  0  0  0  0
   33.2710   29.3020   35.6160 H   0  0  0  0  0  0  0  0  0  0  0  0
   34.0650   31.2240   35.8070 N   0  0  0  0  0  0  0  0  0  0  0  0
   35.0150   32.0790   35.4210 C   0  0  0  0  0  3  0  0  0  0  0  0
   35.1310   33.2050   36.2560 C   0  0  0  0  0  0  0  0  0  0  0  0
   35.8850   33.9650   36.0090 H   0  0  0  0  0  0  0  0  0  0  0  0
   34.2810   33.3330   37.3730 C   0  0  0  0  0  0  0  0  0  0  0  0
   34.3650   34.3240   38.1170 O   0  0  0  0  0  0  0  0  0  0  0  0
   33.3760   32.3980   37.6460 N   0  0  0  0  0  0  0  0  0  0  0  0
   33.2600   31.3290   36.8620 C   0  0  0  0  0  0  0  0  0  0  0  0
   32.3720   30.4690   37.1780 O   0  0  0  0  0  0  0  0  0  0  0  0
   32.7280   32.4880   38.4870 H   0  0  0  0  0  0  0  0  0  0  0  0
   35.0610   29.1040   33.1990 C   0  0  0  0  0  3  0  0  0  0  0  0
   35.0530   29.5300   34.4470 C   0  0  0  0  0  3  0  0  0  0  0  0
   38.2360   27.1990   32.7520 C   0  0  0  0  0  0  0  0  0  0  0  0
   37.0560   27.7160   33.2970 C   0  0  0  0  0  0  0  0  0  0  0  0
   36.2450   28.5840   32.5840 C   0  0  0  0  0  0  0  0  0  0  0  0
   36.6470   28.9120   31.3230 N   0  0  0  0  0  0  0  0  0  0  0  0
   37.7840   28.4090   30.8070 C   0  0  0  0  0  0  0  0  0  0  0  0
   38.5680   27.5660   31.5130 N   0  0  0  0  0  0  0  0  0  0  0  0
   38.8530   26.5190   33.3530 H   0  0  0  0  0  0  0  0  0  0  0  0
   36.8700   27.3690   34.2950 H   0  0  0  0  0  0  0  0  0  0  0  0
   38.1200   28.6520   29.8050 H   0  0  0  0  0  0  0  0  0  0  0  0
   32.7130   30.5200   33.5360 S   0  0  0  0  0  0  0  0  0  0  0  0
   31.3270   29.3900   33.3870 C   0  0  0  0  0  0  0  0  0  0  0  0
   30.2250   29.9280   32.7590 F   0  0  0  0  0  0  0  0  0  0  0  0
   31.7280   28.1850   32.8040 F   0  0  0  0  0  0  0  0  0  0  0  0
   30.9640   29.0310   34.7150 F   0  0  0  0  0  0  0  0  0  0  0  0
  1  2  1  1  0  0  0
  1  3  1  0  0  0  0
  3 10  1  0  0  0  0
  4  3  1  0  0  0  0
  4  5  2  0  0  0  0
  5  7  1  0  0  0  0
  6  5  1  0  0  0  0
  7  9  1  0  0  0  0
  7  8  2  0  0  0  0
  9 12  1  0  0  0  0
 10 11  2  0  0  0  0
 10  9  1  0  0  0  0
 13 14  2  0  0  0  0
 14  1  1  0  0  0  0
 15 16  1  0  0  0  0
 15 21  1  0  0  0  0
 16 22  1  0  0  0  0
 17 13  1  0  0  0  0
 17 16  2  0  0  0  0
 18 17  1  0  0  0  0
 19 18  2  0  0  0  0
 19 20  1  0  0  0  0
 20 15  2  0  0  0  0
 23 19  1  0  0  0  0
 24  1  1  0  0  0  0
 25 24  1  0  0  0  0
 25 28  1  0  0  0  0
 26 25  1  0  0  0  0
 27 25  1  0  0  0  0
M  END
>  <minimizedAffinity>
-4.67055798

$$$$
