
 OpenBabel03272506383D

 38 40  0  0  1  0  0  0  0  0999 V2000
   34.4990   28.7250   50.0290 O   0  0  0  0  0  0  0  0  0  0  0  0
   34.2480   29.0280   48.8500 C   0  0  0  0  0  0  0  0  0  0  0  0
   34.9700   30.0770   48.1660 C   0  0  2  0  0  0  0  0  0  0  0  0
   34.4430   29.8920   46.7040 C   0  0  0  0  0  0  0  0  0  0  0  0
   33.0830   29.2990   46.9140 C   0  0  0  0  0  0  0  0  0  0  0  0
   33.2370   28.3910   48.0380 N   0  0  0  0  0  0  0  0  0  0  0  0
   34.7060   31.1040   48.4720 H   0  0  0  0  0  0  0  0  0  0  0  0
   34.3800   30.9100   46.2760 H   0  0  0  0  0  0  0  0  0  0  0  0
   35.1210   29.2500   46.1280 H   0  0  0  0  0  0  0  0  0  0  0  0
   32.8590   28.6440   46.0390 H   0  0  0  0  0  0  0  0  0  0  0  0
   32.2790   30.0210   47.0140 H   0  0  0  0  0  0  0  0  0  0  0  0
   32.5320   27.1570   48.2520 C   0  0  0  0  0  0  0  0  0  0  0  0
   32.7640   26.4290   47.4590 H   0  0  0  0  0  0  0  0  0  0  0  0
   32.9300   26.6850   49.1950 H   0  0  0  0  0  0  0  0  0  0  0  0
   31.1270   27.2780   48.4260 N   0  0  0  0  0  0  0  0  0  0  0  0
   30.7470   27.8810   49.5840 C   0  0  0  0  0  3  0  0  0  0  0  0
   29.4130   28.0710   49.8990 C   0  0  0  0  0  0  0  0  0  0  0  0
   29.1290   28.5550   50.8270 H   0  0  0  0  0  0  0  0  0  0  0  0
   28.4160   27.6440   49.0270 C   0  0  0  0  0  0  0  0  0  0  0  0
   27.2080   27.8080   49.2980 O   0  0  0  0  0  0  0  0  0  0  0  0
   28.8440   27.0490   47.8890 N   0  0  0  0  0  0  0  0  0  0  0  0
   30.1490   26.8850   47.6240 C   0  0  0  0  0  0  0  0  0  0  0  0
   30.5000   26.3290   46.5580 O   0  0  0  0  0  0  0  0  0  0  0  0
   28.1260   26.7120   47.2070 H   0  0  0  0  0  0  0  0  0  0  0  0
   36.3780   29.8560   48.0840 O   0  0  0  0  0  0  0  0  0  0  0  0
   37.2120   30.9660   48.2100 C   0  0  0  0  0  0  0  0  0  0  0  0
   37.3260   31.5180   49.4740 C   0  0  0  0  0  0  0  0  0  0  0  0
   38.1480   32.6240   49.6310 C   0  0  0  0  0  0  0  0  0  0  0  0
   38.8040   33.1150   48.5430 N   0  0  0  0  0  0  0  0  0  0  0  0
   38.6830   32.5680   47.3260 C   0  0  0  0  0  0  0  0  0  0  0  0
   37.8960   31.5130   47.1820 N   0  0  0  0  0  0  0  0  0  0  0  0
   40.2660   32.1700   45.6060 C   0  0  0  0  0  0  0  0  0  0  0  0
   40.4830   30.9670   45.9440 O   0  0  0  0  0  0  0  0  0  0  0  0
   39.3820   33.1100   46.2100 N   0  0  0  0  0  0  0  0  0  0  0  0
   36.8210   31.1500   50.3430 H   0  0  0  0  0  0  0  0  0  0  0  0
   38.2590   33.0770   50.6020 H   0  0  0  0  0  0  0  0  0  0  0  0
   40.8610   32.4620   44.7400 H   0  0  0  0  0  0  0  0  0  0  0  0
   39.2600   34.0840   45.8720 H   0  0  0  0  0  0  0  0  0  0  0  0
  2  1  2  0  0  0  0
  3  7  1  1  0  0  0
  3  2  1  0  0  0  0
  4  5  1  0  0  0  0
  4  3  1  0  0  0  0
  5 11  1  0  0  0  0
  5  6  1  0  0  0  0
  6 12  1  0  0  0  0
  6  2  1  0  0  0  0
  8  4  1  0  0  0  0
  9  4  1  0  0  0  0
 10  5  1  0  0  0  0
 12 15  1  0  0  0  0
 12 14  1  0  0  0  0
 13 12  1  0  0  0  0
 15 16  1  0  0  0  0
 16 17  2  0  0  0  0
 17 18  1  0  0  0  0
 19 20  2  0  0  0  0
 19 17  1  0  0  0  0
 21 19  1  0  0  0  0
 22 21  1  0  0  0  0
 22 15  1  0  0  0  0
 23 22  2  0  0  0  0
 24 21  1  0  0  0  0
 25  3  1  0  0  0  0
 25 26  1  0  0  0  0
 26 27  1  0  0  0  0
 27 28  2  0  0  0  0
 27 35  1  0  0  0  0
 28 36  1  0  0  0  0
 29 28  1  0  0  0  0
 30 29  2  0  0  0  0
 31 30  1  0  0  0  0
 31 26  2  0  0  0  0
 32 33  2  0  0  0  0
 32 34  1  0  0  0  0
 34 30  1  0  0  0  0
 37 32  1  0  0  0  0
 38 34  1  0  0  0  0
M  END
>  <minimizedAffinity>
-6.38759661

>  <minimizedRMSD>
1.51366484

$$$$
