
 OpenBabel03262522243D

 36 38  0  0  0  0  0  0  0  0999 V2000
   37.9180   30.2270   49.4240 C   0  0  0  0  0  0  0  0  0  0  0  0
   37.8290   30.9590   48.2370 C   0  0  0  0  0  0  0  0  0  0  0  0
   36.6640   30.8370   47.4780 C   0  0  0  0  0  0  0  0  0  0  0  0
   35.7010   30.0150   47.9520 N   0  0  0  0  0  0  0  0  0  0  0  0
   35.8220   29.3460   49.0700 C   0  0  0  0  0  0  0  0  0  0  0  0
   36.9440   29.4250   49.8590 N   0  0  0  0  0  0  0  0  0  0  0  0
   38.7730   30.2360   50.1020 H   0  0  0  0  0  0  0  0  0  0  0  0
   36.6070   31.4110   46.5590 H   0  0  0  0  0  0  0  0  0  0  0  0
   38.9010   31.7370   47.9210 O   0  0  0  0  0  0  0  0  0  0  0  0
   39.3810   31.7060   46.6100 C   0  0  0  0  0  0  0  0  0  0  0  0
   39.6810   30.5870   45.8420 C   0  0  0  0  0  0  0  0  0  0  0  0
   40.1380   30.7600   44.5790 C   0  0  0  0  0  0  0  0  0  0  0  0
   40.2920   32.0270   44.0990 C   0  0  0  0  0  0  0  0  0  0  0  0
   39.9910   33.1340   44.8700 C   0  0  0  0  0  0  0  0  0  0  0  0
   39.5410   32.9120   46.1140 N   0  0  0  0  0  0  0  0  0  0  0  0
   39.5050   29.6460   46.3660 H   0  0  0  0  0  0  0  0  0  0  0  0
   40.3570   29.8510   44.0240 H   0  0  0  0  0  0  0  0  0  0  0  0
   40.6580   32.1690   43.0890 H   0  0  0  0  0  0  0  0  0  0  0  0
   40.1760   34.5210   44.2990 C   0  0  0  0  0  0  0  0  0  0  0  0
   40.4120   35.2240   45.1160 H   0  0  0  0  0  0  0  0  0  0  0  0
   41.0750   34.4390   43.6330 H   0  0  0  0  0  0  0  0  0  0  0  0
   39.3070   34.8180   43.6940 H   0  0  0  0  0  0  0  0  0  0  0  0
   34.3520   28.3480   49.4000 S   0  0  0  0  0  0  0  0  0  0  0  0
   33.3150   28.5270   47.9080 C   0  0  0  0  0  0  0  0  0  0  0  0
   33.5100   29.4920   47.4040 H   0  0  0  0  0  0  0  0  0  0  0  0
   32.2430   28.4120   48.1930 H   0  0  0  0  0  0  0  0  0  0  0  0
   33.6520   27.4220   47.0320 N   0  0  0  0  0  0  0  0  0  0  0  0
   33.7760   26.1240   47.4180 C   0  0  0  0  0  0  0  0  0  0  0  0
   34.1030   25.1680   46.4810 C   0  0  0  0  0  0  0  0  0  0  0  0
   34.2010   24.1210   46.8100 H   0  0  0  0  0  0  0  0  0  0  0  0
   34.3160   25.4480   45.1500 C   0  0  0  0  0  0  0  0  0  0  0  0
   34.6130   24.5890   44.2860 O   0  0  0  0  0  0  0  0  0  0  0  0
   34.1880   26.7360   44.7910 N   0  0  0  0  0  0  0  0  0  0  0  0
   33.8660   27.6790   45.7100 C   0  0  0  0  0  0  0  0  0  0  0  0
   33.7570   28.8820   45.3250 O   0  0  0  0  0  0  0  0  0  0  0  0
   34.3300   27.0670   43.7910 H   0  0  0  0  0  0  0  0  0  0  0  0
  1  6  1  0  0  0  0
  1  7  1  0  0  0  0
  2  1  2  0  0  0  0
  3  4  2  0  0  0  0
  3  2  1  0  0  0  0
  4  5  1  0  0  0  0
  5 23  1  0  0  0  0
  5  6  2  0  0  0  0
  8  3  1  0  0  0  0
  9  2  1  0  0  0  0
 10  9  1  0  0  0  0
 11 16  1  0  0  0  0
 11 10  2  0  0  0  0
 12 11  1  0  0  0  0
 13 12  2  0  0  0  0
 13 14  1  0  0  0  0
 14 15  2  0  0  0  0
 15 10  1  0  0  0  0
 17 12  1  0  0  0  0
 18 13  1  0  0  0  0
 19 14  1  0  0  0  0
 19 20  1  0  0  0  0
 21 19  1  0  0  0  0
 22 19  1  0  0  0  0
 24 26  1  0  0  0  0
 24 23  1  0  0  0  0
 25 24  1  0  0  0  0
 27 28  1  0  0  0  0
 27 24  1  0  0  0  0
 29 30  1  0  0  0  0
 29 28  2  0  0  0  0
 31 29  1  0  0  0  0
 32 31  2  0  0  0  0
 33 31  1  0  0  0  0
 33 34  1  0  0  0  0
 34 27  1  0  0  0  0
 35 34  2  0  0  0  0
 36 33  1  0  0  0  0
M  END
>  <minimizedAffinity>
-4.84680605

>  <minimizedRMSD>
4.21126413

$$$$
