
 OpenBabel03272506383D

 38 40  0  0  1  0  0  0  0  0999 V2000
   34.4980   28.7240   50.0290 O   0  0  0  0  0  0  0  0  0  0  0  0
   34.2480   29.0270   48.8500 C   0  0  0  0  0  0  0  0  0  0  0  0
   34.9700   30.0760   48.1670 C   0  0  2  0  0  0  0  0  0  0  0  0
   34.4430   29.8920   46.7050 C   0  0  0  0  0  0  0  0  0  0  0  0
   33.0830   29.2980   46.9140 C   0  0  0  0  0  0  0  0  0  0  0  0
   33.2370   28.3900   48.0370 N   0  0  0  0  0  0  0  0  0  0  0  0
   34.7060   31.1030   48.4730 H   0  0  0  0  0  0  0  0  0  0  0  0
   34.3800   30.9100   46.2770 H   0  0  0  0  0  0  0  0  0  0  0  0
   35.1210   29.2500   46.1290 H   0  0  0  0  0  0  0  0  0  0  0  0
   32.8590   28.6430   46.0390 H   0  0  0  0  0  0  0  0  0  0  0  0
   32.2790   30.0200   47.0140 H   0  0  0  0  0  0  0  0  0  0  0  0
   32.5320   27.1560   48.2510 C   0  0  0  0  0  0  0  0  0  0  0  0
   32.7640   26.4280   47.4580 H   0  0  0  0  0  0  0  0  0  0  0  0
   32.9300   26.6830   49.1940 H   0  0  0  0  0  0  0  0  0  0  0  0
   31.1270   27.2770   48.4260 N   0  0  0  0  0  0  0  0  0  0  0  0
   30.7480   27.8800   49.5830 C   0  0  0  0  0  3  0  0  0  0  0  0
   29.4140   28.0710   49.8980 C   0  0  0  0  0  0  0  0  0  0  0  0
   29.1310   28.5540   50.8260 H   0  0  0  0  0  0  0  0  0  0  0  0
   28.4160   27.6440   49.0270 C   0  0  0  0  0  0  0  0  0  0  0  0
   27.2070   27.8090   49.2980 O   0  0  0  0  0  0  0  0  0  0  0  0
   28.8440   27.0490   47.8880 N   0  0  0  0  0  0  0  0  0  0  0  0
   30.1490   26.8850   47.6230 C   0  0  0  0  0  0  0  0  0  0  0  0
   30.4990   26.3290   46.5570 O   0  0  0  0  0  0  0  0  0  0  0  0
   28.1250   26.7140   47.2070 H   0  0  0  0  0  0  0  0  0  0  0  0
   36.3780   29.8550   48.0850 O   0  0  0  0  0  0  0  0  0  0  0  0
   37.2110   30.9650   48.2110 C   0  0  0  0  0  0  0  0  0  0  0  0
   37.3260   31.5180   49.4740 C   0  0  0  0  0  0  0  0  0  0  0  0
   38.1470   32.6240   49.6310 C   0  0  0  0  0  0  0  0  0  0  0  0
   38.8030   33.1150   48.5430 N   0  0  0  0  0  0  0  0  0  0  0  0
   38.6810   32.5670   47.3250 C   0  0  0  0  0  0  0  0  0  0  0  0
   37.8950   31.5120   47.1830 N   0  0  0  0  0  0  0  0  0  0  0  0
   40.2650   32.1700   45.6060 C   0  0  0  0  0  0  0  0  0  0  0  0
   40.4810   30.9670   45.9440 O   0  0  0  0  0  0  0  0  0  0  0  0
   39.3800   33.1090   46.2100 N   0  0  0  0  0  0  0  0  0  0  0  0
   36.8210   31.1510   50.3440 H   0  0  0  0  0  0  0  0  0  0  0  0
   38.2580   33.0780   50.6020 H   0  0  0  0  0  0  0  0  0  0  0  0
   40.8590   32.4610   44.7400 H   0  0  0  0  0  0  0  0  0  0  0  0
   39.2580   34.0830   45.8710 H   0  0  0  0  0  0  0  0  0  0  0  0
  2  1  2  0  0  0  0
  3  7  1  1  0  0  0
  3  2  1  0  0  0  0
  4  5  1  0  0  0  0
  4  3  1  0  0  0  0
  5 11  1  0  0  0  0
  5  6  1  0  0  0  0
  6 12  1  0  0  0  0
  6  2  1  0  0  0  0
  8  4  1  0  0  0  0
  9  4  1  0  0  0  0
 10  5  1  0  0  0  0
 12 15  1  0  0  0  0
 12 14  1  0  0  0  0
 13 12  1  0  0  0  0
 15 16  1  0  0  0  0
 16 17  2  0  0  0  0
 17 18  1  0  0  0  0
 19 20  2  0  0  0  0
 19 17  1  0  0  0  0
 21 19  1  0  0  0  0
 22 21  1  0  0  0  0
 22 15  1  0  0  0  0
 23 22  2  0  0  0  0
 24 21  1  0  0  0  0
 25  3  1  0  0  0  0
 25 26  1  0  0  0  0
 26 27  1  0  0  0  0
 27 28  2  0  0  0  0
 27 35  1  0  0  0  0
 28 36  1  0  0  0  0
 29 28  1  0  0  0  0
 30 29  2  0  0  0  0
 31 30  1  0  0  0  0
 31 26  2  0  0  0  0
 32 33  2  0  0  0  0
 32 34  1  0  0  0  0
 34 30  1  0  0  0  0
 37 32  1  0  0  0  0
 38 34  1  0  0  0  0
M  END
>  <minimizedAffinity>
-6.38978434

>  <minimizedRMSD>
1.49804926

$$$$
