
 OpenBabel03272506383D

 38 40  0  0  1  0  0  0  0  0999 V2000
   34.4230   28.9020   50.0330 O   0  0  0  0  0  0  0  0  0  0  0  0
   34.2240   29.1560   48.8320 C   0  0  0  0  0  0  0  0  0  0  0  0
   34.9950   30.1570   48.1310 C   0  0  2  0  0  0  0  0  0  0  0  0
   34.5190   29.9170   46.6590 C   0  0  0  0  0  0  0  0  0  0  0  0
   33.1390   29.3630   46.8430 C   0  0  0  0  0  0  0  0  0  0  0  0
   33.2290   28.5050   48.0110 N   0  0  0  0  0  0  0  0  0  0  0  0
   34.7440   31.2030   48.3790 H   0  0  0  0  0  0  0  0  0  0  0  0
   34.4960   30.9150   46.1840 H   0  0  0  0  0  0  0  0  0  0  0  0
   35.2030   29.2340   46.1390 H   0  0  0  0  0  0  0  0  0  0  0  0
   32.9320   28.6730   45.9900 H   0  0  0  0  0  0  0  0  0  0  0  0
   32.3490   30.1060   46.8790 H   0  0  0  0  0  0  0  0  0  0  0  0
   32.4890   27.2970   48.2540 C   0  0  0  0  0  0  0  0  0  0  0  0
   32.6970   26.5450   47.4770 H   0  0  0  0  0  0  0  0  0  0  0  0
   32.8730   26.8350   49.2070 H   0  0  0  0  0  0  0  0  0  0  0  0
   31.0880   27.4640   48.4260 N   0  0  0  0  0  0  0  0  0  0  0  0
   30.7140   27.8890   49.6620 C   0  0  0  0  0  3  0  0  0  0  0  0
   29.3840   28.0960   49.9850 C   0  0  0  0  0  0  0  0  0  0  0  0
   29.1060   28.4350   50.9770 H   0  0  0  0  0  0  0  0  0  0  0  0
   28.3870   27.8730   49.0420 C   0  0  0  0  0  0  0  0  0  0  0  0
   27.1820   28.0560   49.3200 O   0  0  0  0  0  0  0  0  0  0  0  0
   28.8090   27.4520   47.8260 N   0  0  0  0  0  0  0  0  0  0  0  0
   30.1100   27.2640   47.5560 C   0  0  0  0  0  0  0  0  0  0  0  0
   30.4540   26.8730   46.4170 O   0  0  0  0  0  0  0  0  0  0  0  0
   28.0900   27.2730   47.0880 H   0  0  0  0  0  0  0  0  0  0  0  0
   36.4000   29.9020   48.1130 O   0  0  0  0  0  0  0  0  0  0  0  0
   37.2540   30.9970   48.2350 C   0  0  0  0  0  0  0  0  0  0  0  0
   37.3960   31.5370   49.5010 C   0  0  0  0  0  0  0  0  0  0  0  0
   38.2390   32.6270   49.6550 C   0  0  0  0  0  0  0  0  0  0  0  0
   38.8860   33.1170   48.5610 N   0  0  0  0  0  0  0  0  0  0  0  0
   38.7370   32.5820   47.3410 C   0  0  0  0  0  0  0  0  0  0  0  0
   37.9310   31.5410   47.2010 N   0  0  0  0  0  0  0  0  0  0  0  0
   40.2870   32.1730   45.5940 C   0  0  0  0  0  0  0  0  0  0  0  0
   40.4890   30.9630   45.9190 O   0  0  0  0  0  0  0  0  0  0  0  0
   39.4280   33.1220   46.2190 N   0  0  0  0  0  0  0  0  0  0  0  0
   36.8990   31.1700   50.3760 H   0  0  0  0  0  0  0  0  0  0  0  0
   38.3720   33.0710   50.6270 H   0  0  0  0  0  0  0  0  0  0  0  0
   40.8730   32.4620   44.7220 H   0  0  0  0  0  0  0  0  0  0  0  0
   39.3170   34.1000   45.8910 H   0  0  0  0  0  0  0  0  0  0  0  0
  2  1  2  0  0  0  0
  3  7  1  1  0  0  0
  3  2  1  0  0  0  0
  4  5  1  0  0  0  0
  4  3  1  0  0  0  0
  5 11  1  0  0  0  0
  5  6  1  0  0  0  0
  6 12  1  0  0  0  0
  6  2  1  0  0  0  0
  8  4  1  0  0  0  0
  9  4  1  0  0  0  0
 10  5  1  0  0  0  0
 12 15  1  0  0  0  0
 12 14  1  0  0  0  0
 13 12  1  0  0  0  0
 15 16  1  0  0  0  0
 16 17  2  0  0  0  0
 17 18  1  0  0  0  0
 19 20  2  0  0  0  0
 19 17  1  0  0  0  0
 21 19  1  0  0  0  0
 22 21  1  0  0  0  0
 22 15  1  0  0  0  0
 23 22  2  0  0  0  0
 24 21  1  0  0  0  0
 25  3  1  0  0  0  0
 25 26  1  0  0  0  0
 26 27  1  0  0  0  0
 27 28  2  0  0  0  0
 27 35  1  0  0  0  0
 28 36  1  0  0  0  0
 29 28  1  0  0  0  0
 30 29  2  0  0  0  0
 31 30  1  0  0  0  0
 31 26  2  0  0  0  0
 32 33  2  0  0  0  0
 32 34  1  0  0  0  0
 34 30  1  0  0  0  0
 37 32  1  0  0  0  0
 38 34  1  0  0  0  0
M  END
>  <minimizedAffinity>
-6.39395809

>  <minimizedRMSD>
1.51342452

$$$$
