
 OpenBabel03272509353D

 48 52  0  0  1  0  0  0  0  0999 V2000
   35.2760   29.7000   42.9590 C   0  0  1  0  0  0  0  0  0  0  0  0
   36.6750   29.5010   43.4250 C   0  0  0  0  0  0  0  0  0  0  0  0
   35.9220   28.2760   43.2570 C   0  0  2  0  0  0  0  0  0  0  0  0
   34.9610   29.7450   41.9290 H   0  0  0  0  0  0  0  0  0  0  0  0
   37.3550   30.0290   42.7620 H   0  0  0  0  0  0  0  0  0  0  0  0
   36.8520   29.8760   44.4990 H   0  0  0  0  0  0  0  0  0  0  0  0
   35.2660   27.7520   43.9350 H   0  0  0  0  0  0  0  0  0  0  0  0
   36.4040   27.4990   42.0650 C   0  0  0  0  0  0  0  0  0  0  0  0
   37.7840   27.6760   41.9020 C   0  0  0  0  0  0  0  0  0  0  0  0
   38.4550   26.9740   40.9330 C   0  0  0  0  0  0  0  0  0  0  0  0
   37.7880   26.0730   40.0910 C   0  0  0  0  0  0  0  0  0  0  0  0
   36.4220   25.9250   40.2840 C   0  0  0  0  0  0  0  0  0  0  0  0
   35.6540   25.0850   39.5240 C   0  0  0  0  0  0  0  0  0  0  0  0
   34.2970   24.9330   39.6950 C   0  0  0  0  0  0  0  0  0  0  0  0
   33.6720   25.6630   40.6840 C   0  0  0  0  0  0  0  0  0  0  0  0
   34.4410   26.5100   41.4530 C   0  0  0  0  0  0  0  0  0  0  0  0
   35.7970   26.6350   41.2500 C   0  0  0  0  0  0  0  0  0  0  0  0
   38.5580   28.2500   42.3700 H   0  0  0  0  0  0  0  0  0  0  0  0
   39.5010   26.9800   40.6630 H   0  0  0  0  0  0  0  0  0  0  0  0
   38.1870   25.4600   39.2940 H   0  0  0  0  0  0  0  0  0  0  0  0
   36.1120   24.4980   38.7410 H   0  0  0  0  0  0  0  0  0  0  0  0
   33.7430   24.2490   39.0580 H   0  0  0  0  0  0  0  0  0  0  0  0
   32.6210   25.5870   40.8650 H   0  0  0  0  0  0  0  0  0  0  0  0
   33.9210   27.0860   42.2400 H   0  0  0  0  0  0  0  0  0  0  0  0
   32.0880   30.8680   44.5950 C   0  0  0  0  0  0  0  0  0  0  0  0
   33.0340   30.5070   43.5940 C   0  0  0  0  0  0  0  0  0  0  0  0
   34.2670   30.0730   43.9840 C   0  0  0  0  0  0  0  0  0  0  0  0
   34.5020   30.0160   45.3420 N   0  0  0  0  0  0  0  0  0  0  0  0
   33.6080   30.3560   46.2770 C   0  0  0  0  0  0  0  0  0  0  0  0
   32.3890   30.7880   45.9230 N   0  0  0  0  0  0  0  0  0  0  0  0
   31.1190   31.2090   44.2580 H   0  0  0  0  0  0  0  0  0  0  0  0
   32.7430   30.5890   42.5550 H   0  0  0  0  0  0  0  0  0  0  0  0
   34.0070   30.2260   47.7130 C   0  0  0  0  0  0  0  0  0  0  0  0
   34.1590   31.2050   48.2070 H   0  0  0  0  0  0  0  0  0  0  0  0
   33.2090   29.6150   48.1820 H   0  0  0  0  0  0  0  0  0  0  0  0
   35.3030   29.3980   47.7470 C   0  0  0  0  0  0  0  0  0  0  0  0
   35.0080   28.4260   48.2250 H   0  0  0  0  0  0  0  0  0  0  0  0
   35.5520   29.1480   46.7010 H   0  0  0  0  0  0  0  0  0  0  0  0
   36.3450   30.0510   48.4850 N   0  0  0  0  0  0  0  0  0  0  0  0
   36.1570   30.1490   49.8330 C   0  0  0  0  0  3  0  0  0  0  0  0
   37.1430   30.7760   50.6030 C   0  0  0  0  0  0  0  0  0  0  0  0
   37.0810   30.8980   51.6580 H   0  0  0  0  0  0  0  0  0  0  0  0
   38.2250   31.2380   49.8820 C   0  0  0  0  0  0  0  0  0  0  0  0
   39.1380   31.8150   50.5640 O   0  0  0  0  0  0  0  0  0  0  0  0
   38.4330   31.1530   48.5550 N   0  0  0  0  0  0  0  0  0  0  0  0
   37.4430   30.5350   47.8680 C   0  0  0  0  0  0  0  0  0  0  0  0
   37.5760   30.4240   46.6220 O   0  0  0  0  0  0  0  0  0  0  0  0
   39.3040   31.5490   48.1410 H   0  0  0  0  0  0  0  0  0  0  0  0
  1  4  1  6  0  0  0
  1  3  1  0  0  0  0
  1  2  1  0  0  0  0
  1 27  1  0  0  0  0
  2  6  1  0  0  0  0
  3  2  1  0  0  0  0
  3  7  1  1  0  0  0
  5  2  1  0  0  0  0
  8  3  1  0  0  0  0
  9  8  1  0  0  0  0
  9 18  1  0  0  0  0
 10  9  2  0  0  0  0
 11 12  2  0  0  0  0
 11 10  1  0  0  0  0
 12 17  1  0  0  0  0
 13 14  2  0  0  0  0
 13 12  1  0  0  0  0
 14 15  1  0  0  0  0
 15 23  1  0  0  0  0
 15 16  2  0  0  0  0
 16 24  1  0  0  0  0
 17 16  1  0  0  0  0
 17  8  2  0  0  0  0
 19 10  1  0  0  0  0
 20 11  1  0  0  0  0
 21 13  1  0  0  0  0
 22 14  1  0  0  0  0
 25 30  1  0  0  0  0
 26 27  1  0  0  0  0
 26 25  2  0  0  0  0
 27 28  2  0  0  0  0
 28 29  1  0  0  0  0
 29 33  1  0  0  0  0
 30 29  2  0  0  0  0
 31 25  1  0  0  0  0
 32 26  1  0  0  0  0
 33 36  1  0  0  0  0
 33 35  1  0  0  0  0
 33 34  1  0  0  0  0
 36 37  1  0  0  0  0
 36 39  1  0  0  0  0
 38 36  1  0  0  0  0
 39 40  1  0  0  0  0
 40 41  2  0  0  0  0
 41 42  1  0  0  0  0
 43 44  2  0  0  0  0
 43 41  1  0  0  0  0
 45 43  1  0  0  0  0
 46 39  1  0  0  0  0
 46 45  1  0  0  0  0
 47 46  2  0  0  0  0
 48 45  1  0  0  0  0
M  END
>  <minimizedAffinity>
-3.95022941

>  <minimizedRMSD>
6.10839224

$$$$
