
 OpenBabel03272509353D

 48 52  0  0  1  0  0  0  0  0999 V2000
   34.3130   31.2750   42.6830 C   0  0  1  0  0  0  0  0  0  0  0  0
   34.0690   32.4200   41.7660 C   0  0  0  0  0  0  0  0  0  0  0  0
   34.9350   32.7260   42.8860 C   0  0  2  0  0  0  0  0  0  0  0  0
   35.1080   30.5530   42.5830 H   0  0  0  0  0  0  0  0  0  0  0  0
   34.2870   32.1190   40.7450 H   0  0  0  0  0  0  0  0  0  0  0  0
   32.9870   32.8100   41.8070 H   0  0  0  0  0  0  0  0  0  0  0  0
   34.7030   33.0460   43.8910 H   0  0  0  0  0  0  0  0  0  0  0  0
   36.3570   32.9110   42.4410 C   0  0  0  0  0  0  0  0  0  0  0  0
   36.3950   33.6220   41.2340 C   0  0  0  0  0  0  0  0  0  0  0  0
   37.6000   33.9940   40.6960 C   0  0  0  0  0  0  0  0  0  0  0  0
   38.8110   33.6800   41.3290 C   0  0  0  0  0  0  0  0  0  0  0  0
   38.7320   32.9760   42.5230 C   0  0  0  0  0  0  0  0  0  0  0  0
   39.8390   32.6000   43.2340 C   0  0  0  0  0  0  0  0  0  0  0  0
   39.7800   31.8950   44.4140 C   0  0  0  0  0  0  0  0  0  0  0  0
   38.5420   31.5450   44.9120 C   0  0  0  0  0  0  0  0  0  0  0  0
   37.4240   31.9210   44.1980 C   0  0  0  0  0  0  0  0  0  0  0  0
   37.5240   32.6270   43.0210 C   0  0  0  0  0  0  0  0  0  0  0  0
   35.6830   34.0150   40.5380 H   0  0  0  0  0  0  0  0  0  0  0  0
   37.8230   34.5370   39.7880 H   0  0  0  0  0  0  0  0  0  0  0  0
   39.8220   33.9080   41.0210 H   0  0  0  0  0  0  0  0  0  0  0  0
   40.8240   32.8580   42.8740 H   0  0  0  0  0  0  0  0  0  0  0  0
   40.6960   31.6260   44.9320 H   0  0  0  0  0  0  0  0  0  0  0  0
   38.4320   30.9970   45.8230 H   0  0  0  0  0  0  0  0  0  0  0  0
   36.4410   31.6320   44.6140 H   0  0  0  0  0  0  0  0  0  0  0  0
   30.9640   30.8930   44.3690 C   0  0  0  0  0  0  0  0  0  0  0  0
   31.9500   31.1750   43.3810 C   0  0  0  0  0  0  0  0  0  0  0  0
   33.2640   30.9790   43.6920 C   0  0  0  0  0  0  0  0  0  0  0  0
   33.5350   30.5120   44.9620 N   0  0  0  0  0  0  0  0  0  0  0  0
   32.6040   30.2500   45.8840 C   0  0  0  0  0  0  0  0  0  0  0  0
   31.3050   30.4350   45.6080 N   0  0  0  0  0  0  0  0  0  0  0  0
   29.9310   31.0590   44.0950 H   0  0  0  0  0  0  0  0  0  0  0  0
   31.6240   31.5360   42.4150 H   0  0  0  0  0  0  0  0  0  0  0  0
   33.0560   29.7350   47.2140 C   0  0  0  0  0  0  0  0  0  0  0  0
   33.1260   30.5290   47.9820 H   0  0  0  0  0  0  0  0  0  0  0  0
   32.3350   28.9320   47.4750 H   0  0  0  0  0  0  0  0  0  0  0  0
   34.4260   29.0710   46.9980 C   0  0  0  0  0  0  0  0  0  0  0  0
   34.2300   27.9710   47.0980 H   0  0  0  0  0  0  0  0  0  0  0  0
   34.6950   29.2260   45.9390 H   0  0  0  0  0  0  0  0  0  0  0  0
   35.4020   29.5180   47.9490 N   0  0  0  0  0  0  0  0  0  0  0  0
   36.1780   30.5720   47.5650 C   0  0  0  0  0  3  0  0  0  0  0  0
   37.1460   31.0510   48.4550 C   0  0  0  0  0  0  0  0  0  0  0  0
   37.7950   31.8670   48.2420 H   0  0  0  0  0  0  0  0  0  0  0  0
   37.2050   30.3740   49.6560 C   0  0  0  0  0  0  0  0  0  0  0  0
   38.0820   30.7920   50.4850 O   0  0  0  0  0  0  0  0  0  0  0  0
   36.4520   29.3330   50.0570 N   0  0  0  0  0  0  0  0  0  0  0  0
   35.5330   28.9190   49.1510 C   0  0  0  0  0  0  0  0  0  0  0  0
   34.7980   27.9480   49.4650 O   0  0  0  0  0  0  0  0  0  0  0  0
   36.6050   28.9160   51.0000 H   0  0  0  0  0  0  0  0  0  0  0  0
  1  4  1  6  0  0  0
  1  3  1  0  0  0  0
  1 27  1  0  0  0  0
  2  6  1  0  0  0  0
  2  1  1  0  0  0  0
  2  3  1  0  0  0  0
  3  7  1  1  0  0  0
  5  2  1  0  0  0  0
  8  3  1  0  0  0  0
  8 17  1  0  0  0  0
  9  8  2  0  0  0  0
 10  9  1  0  0  0  0
 10 11  2  0  0  0  0
 11 12  1  0  0  0  0
 12 17  2  0  0  0  0
 12 13  1  0  0  0  0
 13 14  2  0  0  0  0
 14 15  1  0  0  0  0
 14 22  1  0  0  0  0
 15 23  1  0  0  0  0
 16 24  1  0  0  0  0
 16 15  2  0  0  0  0
 17 16  1  0  0  0  0
 18  9  1  0  0  0  0
 19 10  1  0  0  0  0
 20 11  1  0  0  0  0
 21 13  1  0  0  0  0
 25 30  1  0  0  0  0
 26 27  1  0  0  0  0
 26 25  2  0  0  0  0
 27 28  2  0  0  0  0
 28 29  1  0  0  0  0
 29 33  1  0  0  0  0
 30 29  2  0  0  0  0
 31 25  1  0  0  0  0
 32 26  1  0  0  0  0
 33 35  1  0  0  0  0
 33 34  1  0  0  0  0
 36 37  1  0  0  0  0
 36 33  1  0  0  0  0
 36 39  1  0  0  0  0
 38 36  1  0  0  0  0
 39 46  1  0  0  0  0
 40 39  1  0  0  0  0
 40 41  2  0  0  0  0
 41 43  1  0  0  0  0
 42 41  1  0  0  0  0
 43 45  1  0  0  0  0
 43 44  2  0  0  0  0
 45 48  1  0  0  0  0
 46 47  2  0  0  0  0
 46 45  1  0  0  0  0
M  END
>  <minimizedAffinity>
-5.29904556

>  <minimizedRMSD>
5.34644604

$$$$
