
 OpenBabel03272508023D

 28 30  0  0  0  0  0  0  0  0999 V2000
   38.6040   30.7120   45.4890 C   0  0  0  0  0  0  0  0  0  0  0  0
   39.9160   31.0980   45.6520 C   0  0  0  0  0  0  0  0  0  0  0  0
   40.5860   30.9810   44.4250 C   0  0  0  0  0  0  0  0  0  0  0  0
   39.6300   30.5230   43.5640 N   0  0  0  0  0  0  0  0  0  0  0  0
   38.4780   30.3710   44.2020 N   0  0  0  0  0  0  0  0  0  0  0  0
   40.3490   31.4350   46.5810 H   0  0  0  0  0  0  0  0  0  0  0  0
   41.6200   31.2010   44.1990 H   0  0  0  0  0  0  0  0  0  0  0  0
   39.4780   27.5030   42.7500 Br  0  0  0  0  0  0  0  0  0  0  0  0
   39.7610   28.9770   41.6100 C   0  0  0  0  0  0  0  0  0  0  0  0
   39.7930   30.2340   42.1800 C   0  0  0  0  0  0  0  0  0  0  0  0
   40.0030   31.3070   41.3200 C   0  0  0  0  0  0  0  0  0  0  0  0
   40.0420   32.3360   41.6870 H   0  0  0  0  0  0  0  0  0  0  0  0
   40.1740   31.1870   39.9770 C   0  0  0  0  0  0  0  0  0  0  0  0
   40.3370   32.0090   39.2970 H   0  0  0  0  0  0  0  0  0  0  0  0
   40.1360   29.9000   39.4320 C   0  0  0  0  0  3  0  0  0  0  0  0
   39.9280   28.7890   40.2530 C   0  0  0  0  0  3  0  0  0  0  0  0
   37.5630   30.6830   46.5220 C   0  0  0  0  0  0  0  0  0  0  0  0
   37.9320   31.0860   47.8330 C   0  0  0  0  0  0  0  0  0  0  0  0
   36.9180   31.0510   48.8050 C   0  0  0  0  0  0  0  0  0  0  0  0
   35.6750   30.6470   48.4480 N   0  0  0  0  0  0  0  0  0  0  0  0
   35.3680   30.2730   47.1880 C   0  0  0  0  0  0  0  0  0  0  0  0
   36.3260   30.2990   46.2400 N   0  0  0  0  0  0  0  0  0  0  0  0
   38.9340   31.4000   48.0740 H   0  0  0  0  0  0  0  0  0  0  0  0
   34.3790   29.9630   46.9530 H   0  0  0  0  0  0  0  0  0  0  0  0
   37.2840   31.4690   50.1950 C   0  0  0  0  0  0  0  0  0  0  0  0
   36.6610   32.6930   50.3800 F   0  0  0  0  0  0  0  0  0  0  0  0
   36.7920   30.6000   51.1470 F   0  0  0  0  0  0  0  0  0  0  0  0
   38.6390   31.6450   50.3540 F   0  0  0  0  0  0  0  0  0  0  0  0
  1  2  1  0  0  0  0
  1 17  1  0  0  0  0
  2  6  1  0  0  0  0
  3  2  2  0  0  0  0
  4  5  1  0  0  0  0
  4  3  1  0  0  0  0
  5  1  2  0  0  0  0
  7  3  1  0  0  0  0
  9 10  1  0  0  0  0
  9  8  1  0  0  0  0
 10  4  1  0  0  0  0
 11 12  1  0  0  0  0
 11 10  2  0  0  0  0
 13 11  1  0  0  0  0
 14 13  1  0  0  0  0
 15 13  2  0  0  0  0
 15 16  1  0  0  0  0
 16  9  2  0  0  0  0
 17 18  1  0  0  0  0
 18 23  1  0  0  0  0
 18 19  2  0  0  0  0
 19 25  1  0  0  0  0
 20 19  1  0  0  0  0
 21 20  2  0  0  0  0
 22 17  2  0  0  0  0
 22 21  1  0  0  0  0
 24 21  1  0  0  0  0
 25 28  1  0  0  0  0
 25 26  1  0  0  0  0
 25 27  1  0  0  0  0
M  END
>  <minimizedAffinity>
-5.80612421

>  <minimizedRMSD>
1.69176817

$$$$
