
 OpenBabel03272503493D

 37 39  0  0  1  0  0  0  0  0999 V2000
   33.2780   27.2710   45.8210 C   0  0  1  0  0  0  0  0  0  0  0  0
   33.9090   27.4300   47.2200 C   0  0  2  0  0  0  0  0  0  0  0  0
   33.7000   26.2220   47.8060 O   0  0  0  0  0  0  0  0  0  0  0  0
   34.0780   25.3070   46.8350 C   0  0  0  0  0  0  0  0  0  0  0  0
   33.6960   25.8610   45.4760 C   0  0  2  0  0  0  0  0  0  0  0  0
   33.7530   28.0140   45.1320 H   0  0  0  0  0  0  0  0  0  0  0  0
   34.9600   27.7310   47.0370 H   0  0  0  0  0  0  0  0  0  0  0  0
   33.4730   24.3920   47.0030 H   0  0  0  0  0  0  0  0  0  0  0  0
   35.1350   25.0220   46.8860 H   0  0  0  0  0  0  0  0  0  0  0  0
   32.7660   25.3670   45.0960 H   0  0  0  0  0  0  0  0  0  0  0  0
   31.9160   27.4790   45.8780 O   0  0  0  0  0  0  0  0  0  0  0  0
   31.6500   28.0710   45.1330 H   0  0  0  0  0  0  0  0  0  0  0  0
   33.2440   28.5000   47.7750 O   0  0  0  0  0  0  0  0  0  0  0  0
   35.3360   29.7830   46.7930 O   0  0  0  0  0  0  0  0  0  0  0  0
   34.0610   29.9620   47.6130 P   0  0  1  0  0  0  0  0  0  0  0  0
   33.1230   31.0580   46.7260 O   0  0  0  0  0  0  0  0  0  0  0  0
   32.3000   31.2140   47.2760 H   0  0  0  0  0  0  0  0  0  0  0  0
   34.3440   30.5510   49.1880 O   0  0  0  0  0  0  0  0  0  0  0  0
   35.5910   30.4570   49.7900 C   0  0  0  0  0  0  0  0  0  0  0  0
   35.9760   29.4480   50.7020 C   0  0  0  0  0  0  0  0  0  0  0  0
   37.2620   29.4880   51.2210 C   0  0  0  0  0  0  0  0  0  0  0  0
   38.0930   30.4960   50.8320 N   0  0  0  0  0  0  0  0  0  0  0  0
   37.6950   31.4490   49.9550 C   0  0  0  0  0  0  0  0  0  0  0  0
   36.4380   31.4320   49.4310 N   0  0  0  0  0  0  0  0  0  0  0  0
   35.2280   28.7260   50.9160 H   0  0  0  0  0  0  0  0  0  0  0  0
   37.5420   28.7120   51.9150 H   0  0  0  0  0  0  0  0  0  0  0  0
   38.4020   32.2280   49.6820 H   0  0  0  0  0  0  0  0  0  0  0  0
   34.7530   25.8610   44.6360 O   0  0  0  0  0  0  0  0  0  0  0  0
   36.8900   23.4830   45.0970 Br  0  0  0  0  0  0  0  0  0  0  0  0
   36.1210   24.1070   43.4950 C   0  0  0  0  0  0  0  0  0  0  0  0
   35.2350   25.1430   43.6140 C   0  0  0  0  0  0  0  0  0  0  0  0
   34.6690   25.5980   42.4140 C   0  0  0  0  0  0  0  0  0  0  0  0
   33.9440   26.4070   42.2710 H   0  0  0  0  0  0  0  0  0  0  0  0
   34.9920   25.0270   41.1760 C   0  0  0  0  0  0  0  0  0  0  0  0
   34.5850   25.3400   40.2260 H   0  0  0  0  0  0  0  0  0  0  0  0
   35.8970   23.9870   41.1570 C   0  0  0  0  0  3  0  0  0  0  0  0
   36.4790   23.5050   42.3100 C   0  0  0  0  0  3  0  0  0  0  0  0
  1  6  1  6  0  0  0
  1 11  1  0  0  0  0
  1  2  1  0  0  0  0
  2  7  1  6  0  0  0
  2 13  1  0  0  0  0
  2  3  1  0  0  0  0
  4  9  1  0  0  0  0
  4  8  1  0  0  0  0
  4  3  1  0  0  0  0
  5 10  1  6  0  0  0
  5  1  1  0  0  0  0
  5  4  1  0  0  0  0
 12 11  1  0  0  0  0
 15 14  2  6  0  0  0
 15 13  1  0  0  0  0
 15 18  1  0  0  0  0
 16 17  1  0  0  0  0
 16 15  1  0  0  0  0
 18 19  1  0  0  0  0
 19 20  1  0  0  0  0
 20 25  1  0  0  0  0
 20 21  2  0  0  0  0
 21 26  1  0  0  0  0
 22 21  1  0  0  0  0
 23 22  2  0  0  0  0
 24 19  2  0  0  0  0
 24 23  1  0  0  0  0
 27 23  1  0  0  0  0
 28  5  1  0  0  0  0
 30 31  1  0  0  0  0
 30 29  1  0  0  0  0
 31 28  1  0  0  0  0
 32 31  2  0  0  0  0
 33 32  1  0  0  0  0
 34 32  1  0  0  0  0
 35 34  1  0  0  0  0
 36 34  2  0  0  0  0
 36 37  1  0  0  0  0
 37 30  2  0  0  0  0
M  END
>  <minimizedAffinity>
-4.20110464

>  <minimizedRMSD>
0.892021716

$$$$
