
 OpenBabel03272503493D

 37 39  0  0  1  0  0  0  0  0999 V2000
   33.3150   27.3220   45.7880 C   0  0  1  0  0  0  0  0  0  0  0  0
   33.9300   27.4410   47.1990 C   0  0  2  0  0  0  0  0  0  0  0  0
   33.7050   26.2210   47.7520 O   0  0  0  0  0  0  0  0  0  0  0  0
   34.0890   25.3270   46.7640 C   0  0  0  0  0  0  0  0  0  0  0  0
   33.7270   25.9160   45.4140 C   0  0  2  0  0  0  0  0  0  0  0  0
   33.8040   28.0770   45.1230 H   0  0  0  0  0  0  0  0  0  0  0  0
   34.9850   27.7390   47.0350 H   0  0  0  0  0  0  0  0  0  0  0  0
   33.4750   24.4120   46.9020 H   0  0  0  0  0  0  0  0  0  0  0  0
   35.1430   25.0320   46.8200 H   0  0  0  0  0  0  0  0  0  0  0  0
   32.7980   25.4390   45.0110 H   0  0  0  0  0  0  0  0  0  0  0  0
   31.9540   27.5370   45.8340 O   0  0  0  0  0  0  0  0  0  0  0  0
   31.7010   28.1500   45.1000 H   0  0  0  0  0  0  0  0  0  0  0  0
   33.2660   28.5020   47.7710 O   0  0  0  0  0  0  0  0  0  0  0  0
   35.3470   29.8020   46.7910 O   0  0  0  0  0  0  0  0  0  0  0  0
   34.0720   29.9700   47.6120 P   0  0  1  0  0  0  0  0  0  0  0  0
   33.1260   31.0610   46.7280 O   0  0  0  0  0  0  0  0  0  0  0  0
   32.3020   31.2100   47.2780 H   0  0  0  0  0  0  0  0  0  0  0  0
   34.3510   30.5590   49.1880 O   0  0  0  0  0  0  0  0  0  0  0  0
   35.5960   30.4610   49.7940 C   0  0  0  0  0  0  0  0  0  0  0  0
   35.9750   29.4520   50.7080 C   0  0  0  0  0  0  0  0  0  0  0  0
   37.2600   29.4880   51.2310 C   0  0  0  0  0  0  0  0  0  0  0  0
   38.0950   30.4930   50.8430 N   0  0  0  0  0  0  0  0  0  0  0  0
   37.7030   31.4460   49.9650 C   0  0  0  0  0  0  0  0  0  0  0  0
   36.4480   31.4330   49.4360 N   0  0  0  0  0  0  0  0  0  0  0  0
   35.2240   28.7320   50.9200 H   0  0  0  0  0  0  0  0  0  0  0  0
   37.5350   28.7120   51.9260 H   0  0  0  0  0  0  0  0  0  0  0  0
   38.4130   32.2230   49.6930 H   0  0  0  0  0  0  0  0  0  0  0  0
   34.7950   25.9300   44.5870 O   0  0  0  0  0  0  0  0  0  0  0  0
   34.7850   27.8820   42.0150 Br  0  0  0  0  0  0  0  0  0  0  0  0
   35.2310   26.0560   42.1300 C   0  0  0  0  0  0  0  0  0  0  0  0
   35.1390   25.4880   43.3720 C   0  0  0  0  0  0  0  0  0  0  0  0
   35.4740   24.1280   43.4430 C   0  0  0  0  0  0  0  0  0  0  0  0
   35.4720   23.4760   44.3230 H   0  0  0  0  0  0  0  0  0  0  0  0
   35.8750   23.4010   42.3140 C   0  0  0  0  0  0  0  0  0  0  0  0
   36.1420   22.3550   42.3170 H   0  0  0  0  0  0  0  0  0  0  0  0
   35.9360   24.0610   41.1040 C   0  0  0  0  0  3  0  0  0  0  0  0
   35.6170   25.3960   40.9840 C   0  0  0  0  0  3  0  0  0  0  0  0
  1  6  1  6  0  0  0
  1 11  1  0  0  0  0
  1  2  1  0  0  0  0
  2  7  1  6  0  0  0
  2  3  1  0  0  0  0
  2 13  1  0  0  0  0
  4  9  1  0  0  0  0
  4  8  1  0  0  0  0
  4  3  1  0  0  0  0
  5 10  1  6  0  0  0
  5  1  1  0  0  0  0
  5  4  1  0  0  0  0
 12 11  1  0  0  0  0
 15 14  2  6  0  0  0
 15 13  1  0  0  0  0
 15 18  1  0  0  0  0
 16 17  1  0  0  0  0
 16 15  1  0  0  0  0
 18 19  1  0  0  0  0
 19 20  1  0  0  0  0
 20 25  1  0  0  0  0
 20 21  2  0  0  0  0
 21 26  1  0  0  0  0
 22 21  1  0  0  0  0
 23 22  2  0  0  0  0
 24 19  2  0  0  0  0
 24 23  1  0  0  0  0
 27 23  1  0  0  0  0
 28  5  1  0  0  0  0
 29 30  1  0  0  0  0
 30 31  1  0  0  0  0
 31 32  2  0  0  0  0
 31 28  1  0  0  0  0
 32 33  1  0  0  0  0
 34 35  1  0  0  0  0
 34 32  1  0  0  0  0
 36 34  2  0  0  0  0
 37 36  1  0  0  0  0
 37 30  2  0  0  0  0
M  END
>  <minimizedAffinity>
-4.03541946

>  <minimizedRMSD>
0.511256993

$$$$
